VHF.pdb
     RDKit          3D

 29 30  0  0  1  0  0  0  0  0999 V2000
    8.1048  -12.4165   20.0312 C   0  0  0  0  0  0  0  0  0  0  0  0
    9.0263  -13.3953   19.3466 C   0  0  2  0  0  0  0  0  0  0  0  0
    9.6652  -12.8030   18.1142 C   0  0  0  0  0  0  0  0  0  0  0  0
    8.4286  -14.7419   19.1022 C   0  0  2  0  0  0  0  0  0  0  0  0
    7.3736  -14.5129   18.0880 N   0  0  0  0  0  0  0  0  0  0  0  0
    7.8207  -15.3962   20.2592 C   0  0  0  0  0  0  0  0  0  0  0  0
    6.5964  -15.1613   20.5607 O   0  0  0  0  0  0  0  0  0  0  0  0
    8.4947  -16.2940   21.0953 N   0  0  0  0  0  0  0  0  0  0  0  0
    7.8285  -16.9105   22.3033 C   0  0  1  0  0  0  0  0  0  0  0  0
    7.9257  -18.3597   22.0245 C   0  0  0  0  0  0  0  0  0  0  0  0
    7.6416  -19.3467   23.0434 C   0  0  0  0  0  0  0  0  0  0  0  0
    8.3353  -20.2327   23.7933 C   0  0  0  0  0  0  0  0  0  0  0  0
    7.5306  -20.8827   24.6661 N   0  0  0  0  0  0  0  0  0  0  0  0
    6.3199  -20.3933   24.4572 C   0  0  0  0  0  0  0  0  0  0  0  0
    6.3368  -19.4721   23.4968 N   0  0  0  0  0  0  0  0  0  0  0  0
    8.7395  -16.5518   23.4409 C   0  0  0  0  0  0  0  0  0  0  0  0
    9.9999  -16.5937   23.2113 O   0  0  0  0  0  0  0  0  0  0  0  0
    8.2555  -16.1799   24.7014 N   0  0  0  0  0  0  0  0  0  0  0  0
    9.1626  -16.2668   25.8580 C   0  0  1  0  0  0  0  0  0  0  0  0
    9.3967  -14.8599   26.3646 C   0  0  0  0  0  0  0  0  0  0  0  0
    8.1375  -14.0823   26.4360 C   0  0  0  0  0  0  0  0  0  0  0  0
    6.9391  -14.6431   25.9890 C   0  0  0  0  0  0  0  0  0  0  0  0
    5.7844  -13.9049   26.0768 C   0  0  0  0  0  0  0  0  0  0  0  0
    5.8179  -12.6343   26.5982 C   0  0  0  0  0  0  0  0  0  0  0  0
    7.0101  -12.0900   27.0374 C   0  0  0  0  0  0  0  0  0  0  0  0
    8.1806  -12.8079   26.9609 C   0  0  0  0  0  0  0  0  0  0  0  0
    8.5087  -17.1107   26.8770 C   0  0  0  0  0  0  0  0  0  0  0  0
    9.2102  -17.4945   28.0068 O   0  0  0  0  0  0  0  0  0  0  0  0
    7.3261  -17.5147   26.7842 O   0  0  0  0  0  0  0  0  0  0  0  0
  2  1  1  6
  2  3  1  0
  4  2  1  0
  4  5  1  6
  6  4  1  0
  7  6  2  0
  8  6  1  0
  9  8  1  0
  9 10  1  6
 10 11  1  0
 11 15  1  0
 12 11  2  0
 12 13  1  0
 13 14  1  0
 15 14  2  0
 16 17  2  0
 16  9  1  0
 18 16  1  0
 19 18  1  0
 19 20  1  1
 21 22  2  0
 21 20  1  0
 23 22  1  0
 24 23  2  0
 25 24  1  0
 25 26  2  0
 26 21  1  0
 27 19  1  0
 28 27  1  0
 29 27  2  0
M  END
$$$$
