VHF.pdb
     RDKit          3D

 29 30  0  0  1  0  0  0  0  0999 V2000
    7.9101  -12.1476   18.9758 C   0  0  0  0  0  0  0  0  0  0  0  0
    7.7937  -13.1602   20.0880 C   0  0  2  0  0  0  0  0  0  0  0  0
    8.1328  -12.5645   21.4326 C   0  0  0  0  0  0  0  0  0  0  0  0
    8.5002  -14.4499   19.8280 C   0  0  2  0  0  0  0  0  0  0  0  0
    7.8839  -14.9800   18.5898 N   0  0  0  0  0  0  0  0  0  0  0  0
    8.3870  -15.4678   20.8708 C   0  0  0  0  0  0  0  0  0  0  0  0
    7.3130  -16.1606   20.9788 O   0  0  0  0  0  0  0  0  0  0  0  0
    9.3970  -15.7579   21.7955 N   0  0  0  0  0  0  0  0  0  0  0  0
    9.2582  -16.8768   22.8013 C   0  0  1  0  0  0  0  0  0  0  0  0
   10.3254  -17.8159   22.3931 C   0  0  0  0  0  0  0  0  0  0  0  0
   10.1026  -18.8166   21.3723 C   0  0  0  0  0  0  0  0  0  0  0  0
    9.0789  -19.2353   20.5942 C   0  0  0  0  0  0  0  0  0  0  0  0
    9.4710  -20.2071   19.7376 N   0  0  0  0  0  0  0  0  0  0  0  0
   10.7565  -20.3944   19.9853 C   0  0  0  0  0  0  0  0  0  0  0  0
   11.1785  -19.5857   20.9543 N   0  0  0  0  0  0  0  0  0  0  0  0
    9.6216  -16.2350   24.1085 C   0  0  0  0  0  0  0  0  0  0  0  0
   10.6458  -15.4641   24.1124 O   0  0  0  0  0  0  0  0  0  0  0  0
    8.8858  -16.4502   25.2806 N   0  0  0  0  0  0  0  0  0  0  0  0
    9.3953  -15.8927   26.5446 C   0  0  1  0  0  0  0  0  0  0  0  0
    8.2031  -15.4441   27.3621 C   0  0  0  0  0  0  0  0  0  0  0  0
    7.5928  -14.2093   26.8161 C   0  0  0  0  0  0  0  0  0  0  0  0
    8.2303  -12.9778   26.9815 C   0  0  0  0  0  0  0  0  0  0  0  0
    7.6485  -11.8504   26.4558 C   0  0  0  0  0  0  0  0  0  0  0  0
    6.4567  -11.9428   25.7787 C   0  0  0  0  0  0  0  0  0  0  0  0
    5.8351  -13.1674   25.6213 C   0  0  0  0  0  0  0  0  0  0  0  0
    6.3965  -14.3117   26.1377 C   0  0  0  0  0  0  0  0  0  0  0  0
   10.1555  -16.9567   27.2287 C   0  0  0  0  0  0  0  0  0  0  0  0
   10.2061  -18.2273   26.6822 O   0  0  0  0  0  0  0  0  0  0  0  0
   10.7762  -16.7807   28.3031 O   0  0  0  0  0  0  0  0  0  0  0  0
  2  1  1  6
  2  3  1  0
  4  2  1  0
  4  5  1  6
  6  4  1  0
  7  6  2  0
  8  6  1  0
  9  8  1  0
  9 10  1  6
 10 11  1  0
 11 15  1  0
 12 11  2  0
 12 13  1  0
 13 14  1  0
 15 14  2  0
 16 17  2  0
 16  9  1  0
 18 16  1  0
 19 18  1  0
 19 20  1  1
 21 22  2  0
 21 20  1  0
 23 22  1  0
 24 23  2  0
 25 24  1  0
 25 26  2  0
 26 21  1  0
 27 19  1  0
 28 27  1  0
 29 27  2  0
M  END
$$$$
