IRD.pdb
     RDKit          3D

 28 27  0  0  1  0  0  0  0  0999 V2000
    6.5458  -11.7065   27.8377 C   0  0  0  0  0  0  0  0  0  0  0  0
    5.8897  -12.7400   26.9769 C   0  0  0  0  0  0  0  0  0  0  0  0
    6.9048  -13.3784   26.0770 C   0  0  2  0  0  0  0  0  0  0  0  0
    7.7107  -12.3559   25.3639 C   0  0  0  0  0  0  0  0  0  0  0  0
    6.1542  -14.3418   25.1769 C   0  0  2  0  0  0  0  0  0  0  0  0
    5.5498  -15.3731   26.0053 N   0  0  0  0  0  0  0  0  0  0  0  0
    7.1448  -15.0069   24.2759 C   0  0  0  0  0  0  0  0  0  0  0  0
    7.5350  -16.1457   24.6154 O   0  0  0  0  0  0  0  0  0  0  0  0
    9.4039  -15.1320   18.0258 N   0  0  0  0  0  0  0  0  0  0  0  0
    8.4690  -14.3959   17.2463 C   0  0  0  0  0  0  0  0  0  0  0  0
    8.6315  -14.3540   15.9659 N   0  0  0  0  0  0  0  0  0  0  0  0
    7.3708  -13.7091   17.7830 N   0  0  0  0  0  0  0  0  0  0  0  0
    7.4583  -13.1040   19.0901 C   0  0  0  0  0  0  0  0  0  0  0  0
    7.4836  -14.2630   20.1072 C   0  0  0  0  0  0  0  0  0  0  0  0
    8.6881  -14.1642   20.9768 C   0  0  0  0  0  0  0  0  0  0  0  0
    8.5746  -14.9741   22.2201 C   0  0  2  0  0  0  0  0  0  0  0  0
    7.5870  -14.3534   23.1194 N   0  0  0  0  0  0  0  0  0  0  0  0
    9.8338  -15.0830   22.9473 C   0  0  0  0  0  0  0  0  0  0  0  0
    9.9105  -14.6082   24.1321 O   0  0  0  0  0  0  0  0  0  0  0  0
    7.9992  -13.8106   15.3336 N   0  0  0  0  0  0  0  0  0  0  0  0
   10.9784  -15.7047   22.3922 C   0  0  2  0  0  0  0  0  0  0  0  0
   11.9513  -16.3120   23.2821 C   0  0  0  0  0  0  0  0  0  0  0  0
   11.1774  -17.4286   24.0023 C   0  0  0  0  0  0  0  0  0  0  0  0
   12.0703  -18.2020   24.8661 O   0  0  0  0  0  0  0  0  0  0  0  0
   12.6534  -19.1967   24.4076 C   0  0  0  0  0  0  0  0  0  0  0  0
   13.0893  -16.8289   22.5112 O   0  0  0  0  0  0  0  0  0  0  0  0
   14.3495  -16.9244   23.1257 O   0  0  0  0  0  0  0  0  0  0  0  0
   12.2408  -17.7919   26.1938 O   0  0  0  0  0  0  0  0  0  0  0  0
  1  2  1  0
  3  4  1  6
  3  5  1  0
  3  2  1  0
  5  6  1  1
  7  5  1  0
  7 17  1  0
  8  7  2  0
  9 10  1  0
 10 11  2  0
 12 10  1  0
 12 13  1  0
 13 14  1  0
 16 15  1  6
 15 14  1  0
 16 17  1  0
 18 16  1  0
 19 18  2  0
 20 18  1  0
 21 22  1  1
 21 20  1  0
 23 27  1  0
 23 22  1  0
 24 23  2  0
 25 21  1  0
 26 25  1  0
 28 25  2  0
M  END
$$$$
