IRD.pdb
     RDKit          3D

 28 27  0  0  1  0  0  0  0  0999 V2000
   10.5419  -13.9251   28.2667 C   0  0  0  0  0  0  0  0  0  0  0  0
    9.6073  -14.9541   27.7123 C   0  0  0  0  0  0  0  0  0  0  0  0
    8.3855  -14.2895   27.1525 C   0  0  2  0  0  0  0  0  0  0  0  0
    7.8544  -13.2651   28.0863 C   0  0  0  0  0  0  0  0  0  0  0  0
    7.4083  -15.3925   26.7914 C   0  0  2  0  0  0  0  0  0  0  0  0
    7.5355  -16.4614   27.7694 N   0  0  0  0  0  0  0  0  0  0  0  0
    7.8017  -15.9472   25.4599 C   0  0  0  0  0  0  0  0  0  0  0  0
    7.9437  -17.1879   25.3892 O   0  0  0  0  0  0  0  0  0  0  0  0
    9.1254  -12.3191   18.1173 N   0  0  0  0  0  0  0  0  0  0  0  0
    8.4104  -13.4524   17.6400 C   0  0  0  0  0  0  0  0  0  0  0  0
    8.6797  -13.8984   16.4584 N   0  0  0  0  0  0  0  0  0  0  0  0
    7.4253  -14.1243   18.3774 N   0  0  0  0  0  0  0  0  0  0  0  0
    7.1408  -13.7343   19.7373 C   0  0  0  0  0  0  0  0  0  0  0  0
    7.6211  -14.8936   20.6338 C   0  0  0  0  0  0  0  0  0  0  0  0
    7.5482  -14.5043   22.0691 C   0  0  0  0  0  0  0  0  0  0  0  0
    7.9857  -15.5899   22.9881 C   0  0  2  0  0  0  0  0  0  0  0  0
    7.9909  -15.0863   24.3721 N   0  0  0  0  0  0  0  0  0  0  0  0
    9.3237  -16.0865   22.6888 C   0  0  0  0  0  0  0  0  0  0  0  0
    9.5221  -16.7175   21.5944 O   0  0  0  0  0  0  0  0  0  0  0  0
    8.2096  -14.7401   16.0515 N   0  0  0  0  0  0  0  0  0  0  0  0
   10.4190  -15.8888   23.5638 C   0  0  1  0  0  0  0  0  0  0  0  0
   11.7183  -16.4225   23.1976 C   0  0  0  0  0  0  0  0  0  0  0  0
   12.4898  -15.2179   22.6336 C   0  0  0  0  0  0  0  0  0  0  0  0
   13.7369  -15.6522   22.0027 O   0  0  0  0  0  0  0  0  0  0  0  0
   13.9936  -16.8638   21.9276 C   0  0  0  0  0  0  0  0  0  0  0  0
   12.3760  -17.0059   24.3738 O   0  0  0  0  0  0  0  0  0  0  0  0
   11.6862  -17.0471   25.5975 O   0  0  0  0  0  0  0  0  0  0  0  0
   14.6083  -14.6792   21.4989 O   0  0  0  0  0  0  0  0  0  0  0  0
  1  2  1  0
  3  4  1  1
  3  5  1  0
  3  2  1  0
  5  6  1  1
  7  5  1  0
  7 17  1  0
  8  7  2  0
  9 10  1  0
 10 11  2  0
 12 10  1  0
 12 13  1  0
 13 14  1  0
 16 15  1  6
 15 14  1  0
 16 17  1  0
 18 16  1  0
 19 18  2  0
 20 18  1  0
 21 22  1  6
 21 20  1  0
 23 27  1  0
 23 22  1  0
 24 23  2  0
 25 21  1  0
 26 25  1  0
 28 25  2  0
M  END
$$$$
