IRD.pdb
     RDKit          3D

 28 27  0  0  1  0  0  0  0  0999 V2000
    6.4151  -10.6108   26.5346 C   0  0  0  0  0  0  0  0  0  0  0  0
    7.2265  -11.8484   26.7575 C   0  0  0  0  0  0  0  0  0  0  0  0
    6.6030  -13.0075   26.0395 C   0  0  2  0  0  0  0  0  0  0  0  0
    5.1343  -13.0448   26.2511 C   0  0  0  0  0  0  0  0  0  0  0  0
    7.3443  -14.2541   26.4846 C   0  0  2  0  0  0  0  0  0  0  0  0
    8.7598  -13.9372   26.5907 N   0  0  0  0  0  0  0  0  0  0  0  0
    7.1911  -15.2932   25.4206 C   0  0  0  0  0  0  0  0  0  0  0  0
    6.2004  -16.0509   25.5154 O   0  0  0  0  0  0  0  0  0  0  0  0
    9.7343  -13.8957   19.0298 N   0  0  0  0  0  0  0  0  0  0  0  0
    8.8736  -12.8648   19.4988 C   0  0  0  0  0  0  0  0  0  0  0  0
    9.2761  -11.6405   19.4162 N   0  0  0  0  0  0  0  0  0  0  0  0
    7.6038  -13.0938   20.0473 N   0  0  0  0  0  0  0  0  0  0  0  0
    7.1897  -14.4328   20.3906 C   0  0  0  0  0  0  0  0  0  0  0  0
    7.9491  -14.8080   21.6794 C   0  0  0  0  0  0  0  0  0  0  0  0
    7.4960  -16.1346   22.1813 C   0  0  0  0  0  0  0  0  0  0  0  0
    8.1477  -16.5247   23.4610 C   0  0  2  0  0  0  0  0  0  0  0  0
    8.1315  -15.3794   24.3869 N   0  0  0  0  0  0  0  0  0  0  0  0
    9.5346  -16.9417   23.2912 C   0  0  0  0  0  0  0  0  0  0  0  0
   10.4569  -16.0561   23.3115 O   0  0  0  0  0  0  0  0  0  0  0  0
    8.6758  -10.8286   19.6908 N   0  0  0  0  0  0  0  0  0  0  0  0
    9.9022  -18.2972   23.1118 C   0  0  2  0  0  0  0  0  0  0  0  0
   11.2655  -18.7017   23.4032 C   0  0  0  0  0  0  0  0  0  0  0  0
   12.1403  -17.6001   22.7822 C   0  0  0  0  0  0  0  0  0  0  0  0
   13.5074  -18.0803   22.5766 O   0  0  0  0  0  0  0  0  0  0  0  0
   13.8023  -19.2410   22.9013 C   0  0  0  0  0  0  0  0  0  0  0  0
   11.4600  -18.8179   24.8541 O   0  0  0  0  0  0  0  0  0  0  0  0
   12.3106  -19.8177   25.3559 O   0  0  0  0  0  0  0  0  0  0  0  0
   14.4476  -17.2082   22.0150 O   0  0  0  0  0  0  0  0  0  0  0  0
  1  2  1  0
  3  4  1  1
  3  5  1  0
  3  2  1  0
  5  6  1  6
  7  5  1  0
  7 17  1  0
  8  7  2  0
  9 10  1  0
 10 11  2  0
 12 10  1  0
 12 13  1  0
 13 14  1  0
 16 15  1  6
 15 14  1  0
 16 17  1  0
 18 16  1  0
 19 18  2  0
 20 18  1  0
 21 22  1  6
 21 20  1  0
 23 27  1  0
 23 22  1  0
 24 23  2  0
 25 21  1  0
 26 25  1  0
 28 25  2  0
M  END
$$$$
