IRD.pdb
     RDKit          3D

 28 27  0  0  1  0  0  0  0  0999 V2000
    6.7424  -11.4257   27.3867 C   0  0  0  0  0  0  0  0  0  0  0  0
    6.0324  -12.5035   26.6289 C   0  0  0  0  0  0  0  0  0  0  0  0
    7.0279  -13.4513   26.0302 C   0  0  2  0  0  0  0  0  0  0  0  0
    8.0338  -12.7292   25.2117 C   0  0  0  0  0  0  0  0  0  0  0  0
    6.2374  -14.5095   25.2837 C   0  0  2  0  0  0  0  0  0  0  0  0
    5.2745  -15.0996   26.2000 N   0  0  0  0  0  0  0  0  0  0  0  0
    7.1831  -15.5885   24.8632 C   0  0  0  0  0  0  0  0  0  0  0  0
    7.4789  -16.4429   25.7274 O   0  0  0  0  0  0  0  0  0  0  0  0
    6.7982  -13.8164   18.1698 N   0  0  0  0  0  0  0  0  0  0  0  0
    8.0350  -13.2246   18.5487 C   0  0  0  0  0  0  0  0  0  0  0  0
    8.1808  -11.9504   18.3971 N   0  0  0  0  0  0  0  0  0  0  0  0
    9.1147  -13.9413   19.0838 N   0  0  0  0  0  0  0  0  0  0  0  0
    8.9343  -15.2997   19.5361 C   0  0  0  0  0  0  0  0  0  0  0  0
    8.8833  -15.2440   21.0765 C   0  0  0  0  0  0  0  0  0  0  0  0
    8.7595  -16.6159   21.6417 C   0  0  0  0  0  0  0  0  0  0  0  0
    8.6597  -16.6254   23.1264 C   0  0  2  0  0  0  0  0  0  0  0  0
    7.6885  -15.6055   23.5576 N   0  0  0  0  0  0  0  0  0  0  0  0
    9.9287  -16.3402   23.7856 C   0  0  0  0  0  0  0  0  0  0  0  0
    9.9723  -15.4302   24.6829 O   0  0  0  0  0  0  0  0  0  0  0  0
    9.0886  -11.4607   18.5735 N   0  0  0  0  0  0  0  0  0  0  0  0
   11.1188  -17.0413   23.4747 C   0  0  1  0  0  0  0  0  0  0  0  0
   12.0966  -17.2687   24.5232 C   0  0  0  0  0  0  0  0  0  0  0  0
   11.3753  -18.1681   25.5407 C   0  0  0  0  0  0  0  0  0  0  0  0
   12.3012  -18.6171   26.5812 O   0  0  0  0  0  0  0  0  0  0  0  0
   12.6620  -17.8215   27.4625 C   0  0  0  0  0  0  0  0  0  0  0  0
   13.2969  -17.9061   23.9667 O   0  0  0  0  0  0  0  0  0  0  0  0
   14.4772  -17.9333   24.7290 O   0  0  0  0  0  0  0  0  0  0  0  0
   12.7545  -19.9413   26.5502 O   0  0  0  0  0  0  0  0  0  0  0  0
  1  2  1  0
  3  4  1  6
  3  5  1  0
  3  2  1  0
  5  6  1  1
  7  5  1  0
  7 17  1  0
  8  7  2  0
  9 10  1  0
 10 11  2  0
 12 10  1  0
 12 13  1  0
 13 14  1  0
 16 15  1  6
 15 14  1  0
 16 17  1  0
 18 16  1  0
 19 18  2  0
 20 18  1  0
 21 22  1  6
 21 20  1  0
 23 27  1  0
 23 22  1  0
 24 23  2  0
 25 21  1  0
 26 25  1  0
 28 25  2  0
M  END
$$$$
