KDP.pdb
     RDKit          3D

 25 25  0  0  1  0  0  0  0  0999 V2000
    9.0196  -18.9197   23.2115 N   0  0  0  0  0  0  0  0  0  0  0  0
   10.3333  -18.3087   23.0679 C   0  0  1  0  0  0  0  0  0  0  0  0
   11.0279  -18.7832   21.8252 C   0  0  0  0  0  0  0  0  0  0  0  0
   11.4192  -20.1916   21.7896 C   0  0  0  0  0  0  0  0  0  0  0  0
   10.5255  -21.2924   22.1335 C   0  0  0  0  0  0  0  0  0  0  0  0
   10.9966  -22.6914   22.1622 C   0  0  0  0  0  0  0  0  0  0  0  0
   12.0211  -22.7339   23.2569 N   0  0  0  0  0  0  0  0  0  0  0  0
   10.0456  -16.8171   22.9322 C   0  0  0  0  0  0  0  0  0  0  0  0
   10.9864  -16.0289   22.6582 O   0  0  0  0  0  0  0  0  0  0  0  0
    8.7385  -16.3186   23.1100 N   0  0  0  0  0  0  0  0  0  0  0  0
    8.5024  -14.8732   23.1163 C   0  0  1  0  0  0  0  0  0  0  0  0
    6.9819  -14.7385   22.9911 C   0  0  0  0  0  0  0  0  0  0  0  0
    6.4723  -15.3058   21.7198 C   0  0  0  0  0  0  0  0  0  0  0  0
    6.6066  -14.7807   20.6063 O   0  0  0  0  0  0  0  0  0  0  0  0
    8.9765  -14.2589   24.3769 C   0  0  0  0  0  0  0  0  0  0  0  0
   10.2437  -14.0924   24.4749 O   0  0  0  0  0  0  0  0  0  0  0  0
    5.7823  -16.5286   21.7511 O   0  0  0  0  0  0  0  0  0  0  0  0
    8.1008  -13.8734   25.4172 N   0  0  0  0  0  0  0  0  0  0  0  0
    6.6680  -13.9033   25.3772 C   0  0  0  0  0  0  0  0  0  0  0  0
    6.3056  -12.5925   26.0854 C   0  0  0  0  0  0  0  0  0  0  0  0
    7.5208  -12.2010   26.8872 C   0  0  0  0  0  0  0  0  0  0  0  0
    8.4681  -13.3638   26.7076 C   0  0  1  0  0  0  0  0  0  0  0  0
    8.1860  -14.3520   27.8034 C   0  0  0  0  0  0  0  0  0  0  0  0
    8.7076  -14.2169   29.0785 O   0  0  0  0  0  0  0  0  0  0  0  0
    7.4530  -15.3555   27.6038 O   0  0  0  0  0  0  0  0  0  0  0  0
  2  1  1  6
  3  2  1  0
  4  3  1  0
  5  6  1  0
  5  4  1  0
  6  7  1  0
  8  9  2  0
  8  2  1  0
 10  8  1  0
 11 15  1  0
 11 10  1  0
 11 12  1  1
 13 12  1  0
 13 14  2  0
 15 18  1  0
 16 15  2  0
 17 13  1  0
 18 22  1  0
 19 18  1  0
 19 20  1  0
 20 21  1  0
 22 21  1  0
 23 24  1  0
 22 23  1  1
 25 23  2  0
M  END
$$$$
