KDP.pdb
     RDKit          3D

 25 25  0  0  1  0  0  0  0  0999 V2000
    6.7272  -15.7504   19.4290 N   0  0  0  0  0  0  0  0  0  0  0  0
    7.8090  -15.1954   20.2299 C   0  0  1  0  0  0  0  0  0  0  0  0
    8.0124  -13.7363   19.9443 C   0  0  0  0  0  0  0  0  0  0  0  0
    7.6141  -13.2656   18.6186 C   0  0  0  0  0  0  0  0  0  0  0  0
    8.4001  -13.4830   17.4088 C   0  0  0  0  0  0  0  0  0  0  0  0
    7.9453  -12.9935   16.0921 C   0  0  0  0  0  0  0  0  0  0  0  0
    8.9532  -13.5185   15.1133 N   0  0  0  0  0  0  0  0  0  0  0  0
    7.3347  -15.3538   21.6707 C   0  0  0  0  0  0  0  0  0  0  0  0
    6.1926  -14.9384   21.9944 O   0  0  0  0  0  0  0  0  0  0  0  0
    8.1632  -15.9607   22.6371 N   0  0  0  0  0  0  0  0  0  0  0  0
    7.7135  -16.0584   24.0274 C   0  0  1  0  0  0  0  0  0  0  0  0
    7.8587  -17.5447   24.3675 C   0  0  0  0  0  0  0  0  0  0  0  0
    7.5548  -17.8255   25.7911 C   0  0  0  0  0  0  0  0  0  0  0  0
    8.3665  -17.7259   26.7211 O   0  0  0  0  0  0  0  0  0  0  0  0
    8.5583  -15.2357   24.9223 C   0  0  0  0  0  0  0  0  0  0  0  0
    9.7822  -15.1001   24.5661 O   0  0  0  0  0  0  0  0  0  0  0  0
    6.2580  -18.2367   26.1396 O   0  0  0  0  0  0  0  0  0  0  0  0
    8.0628  -14.6297   26.0991 N   0  0  0  0  0  0  0  0  0  0  0  0
    6.7072  -14.6601   26.5650 C   0  0  0  0  0  0  0  0  0  0  0  0
    6.5157  -13.2253   27.0706 C   0  0  0  0  0  0  0  0  0  0  0  0
    7.9001  -12.6759   27.3035 C   0  0  0  0  0  0  0  0  0  0  0  0
    8.8094  -13.8550   27.0489 C   0  0  1  0  0  0  0  0  0  0  0  0
    8.9859  -14.5812   28.3521 C   0  0  0  0  0  0  0  0  0  0  0  0
    9.7954  -14.1008   29.3670 O   0  0  0  0  0  0  0  0  0  0  0  0
    8.3958  -15.6699   28.5770 O   0  0  0  0  0  0  0  0  0  0  0  0
  2  1  1  6
  3  2  1  0
  4  3  1  0
  5  6  1  0
  5  4  1  0
  6  7  1  0
  8  9  2  0
  8  2  1  0
 10  8  1  0
 11 15  1  0
 11 10  1  0
 11 12  1  1
 13 12  1  0
 13 14  2  0
 15 18  1  0
 16 15  2  0
 17 13  1  0
 18 22  1  0
 19 18  1  0
 19 20  1  0
 20 21  1  0
 22 21  1  0
 23 24  1  0
 22 23  1  1
 25 23  2  0
M  END
$$$$
