KDP.pdb
     RDKit          3D

 25 25  0  0  1  0  0  0  0  0999 V2000
    8.5628  -16.1054   18.9246 N   0  0  0  0  0  0  0  0  0  0  0  0
    8.6951  -14.8122   19.5802 C   0  0  1  0  0  0  0  0  0  0  0  0
    7.9443  -13.7422   18.8433 C   0  0  0  0  0  0  0  0  0  0  0  0
    8.4369  -13.3940   17.5114 C   0  0  0  0  0  0  0  0  0  0  0  0
    7.7992  -13.8226   16.2711 C   0  0  0  0  0  0  0  0  0  0  0  0
    8.3618  -13.4743   14.9512 C   0  0  0  0  0  0  0  0  0  0  0  0
    7.4429  -14.1175   13.9554 N   0  0  0  0  0  0  0  0  0  0  0  0
    8.0514  -15.0124   20.9483 C   0  0  0  0  0  0  0  0  0  0  0  0
    6.8021  -14.9240   21.0621 O   0  0  0  0  0  0  0  0  0  0  0  0
    8.8433  -15.2955   22.0803 N   0  0  0  0  0  0  0  0  0  0  0  0
    8.2089  -15.4875   23.3862 C   0  0  1  0  0  0  0  0  0  0  0  0
    8.3964  -16.9787   23.6814 C   0  0  0  0  0  0  0  0  0  0  0  0
    7.5813  -17.8335   22.7855 C   0  0  0  0  0  0  0  0  0  0  0  0
    6.3459  -17.9147   22.8156 O   0  0  0  0  0  0  0  0  0  0  0  0
    8.8664  -14.6652   24.4268 C   0  0  0  0  0  0  0  0  0  0  0  0
   10.1102  -14.4176   24.2396 O   0  0  0  0  0  0  0  0  0  0  0  0
    8.2324  -18.6203   21.8215 O   0  0  0  0  0  0  0  0  0  0  0  0
    8.1810  -14.1750   25.5614 N   0  0  0  0  0  0  0  0  0  0  0  0
    6.7771  -14.2973   25.8251 C   0  0  0  0  0  0  0  0  0  0  0  0
    6.4432  -12.9160   26.4009 C   0  0  0  0  0  0  0  0  0  0  0  0
    7.7514  -12.3310   26.8688 C   0  0  0  0  0  0  0  0  0  0  0  0
    8.7468  -13.4482   26.6621 C   0  0  1  0  0  0  0  0  0  0  0  0
    8.7768  -14.2676   27.9209 C   0  0  0  0  0  0  0  0  0  0  0  0
    9.4714  -13.8699   29.0502 O   0  0  0  0  0  0  0  0  0  0  0  0
    8.1622  -15.3631   28.0007 O   0  0  0  0  0  0  0  0  0  0  0  0
  2  1  1  6
  3  2  1  0
  4  3  1  0
  5  6  1  0
  5  4  1  0
  6  7  1  0
  8  9  2  0
  8  2  1  0
 10  8  1  0
 11 15  1  0
 11 10  1  0
 11 12  1  1
 13 12  1  0
 13 14  2  0
 15 18  1  0
 16 15  2  0
 17 13  1  0
 18 22  1  0
 19 18  1  0
 19 20  1  0
 20 21  1  0
 22 21  1  0
 23 24  1  0
 22 23  1  1
 25 23  2  0
M  END
$$$$
