KDP.pdb
     RDKit          3D

 25 25  0  0  1  0  0  0  0  0999 V2000
    8.6325  -15.3595   19.9297 N   0  0  0  0  0  0  0  0  0  0  0  0
    8.5631  -14.0519   20.5661 C   0  0  1  0  0  0  0  0  0  0  0  0
    7.6720  -13.1155   19.8040 C   0  0  0  0  0  0  0  0  0  0  0  0
    7.3610  -13.4838   18.4236 C   0  0  0  0  0  0  0  0  0  0  0  0
    8.3656  -13.6333   17.3761 C   0  0  0  0  0  0  0  0  0  0  0  0
    7.9937  -13.9902   15.9926 C   0  0  0  0  0  0  0  0  0  0  0  0
    9.2978  -14.1606   15.2715 N   0  0  0  0  0  0  0  0  0  0  0  0
    7.9379  -14.3260   21.9300 C   0  0  0  0  0  0  0  0  0  0  0  0
    7.3932  -13.3840   22.5604 O   0  0  0  0  0  0  0  0  0  0  0  0
    7.9655  -15.6219   22.4854 N   0  0  0  0  0  0  0  0  0  0  0  0
    7.5676  -15.8278   23.8797 C   0  0  1  0  0  0  0  0  0  0  0  0
    7.3687  -17.3419   23.9960 C   0  0  0  0  0  0  0  0  0  0  0  0
    7.0921  -17.7649   25.3897 C   0  0  0  0  0  0  0  0  0  0  0  0
    6.0016  -17.6418   25.9635 O   0  0  0  0  0  0  0  0  0  0  0  0
    8.6232  -15.3694   24.8108 C   0  0  0  0  0  0  0  0  0  0  0  0
    9.8302  -15.5372   24.4130 O   0  0  0  0  0  0  0  0  0  0  0  0
    8.1253  -18.3519   26.1381 O   0  0  0  0  0  0  0  0  0  0  0  0
    8.3362  -14.7808   26.0634 N   0  0  0  0  0  0  0  0  0  0  0  0
    7.0401  -14.6405   26.6597 C   0  0  0  0  0  0  0  0  0  0  0  0
    7.1210  -13.2326   27.2616 C   0  0  0  0  0  0  0  0  0  0  0  0
    8.5895  -12.9149   27.3857 C   0  0  0  0  0  0  0  0  0  0  0  0
    9.2770  -14.1960   26.9759 C   0  0  1  0  0  0  0  0  0  0  0  0
    9.4545  -15.0310   28.2122 C   0  0  0  0  0  0  0  0  0  0  0  0
   10.4030  -14.7381   29.1769 O   0  0  0  0  0  0  0  0  0  0  0  0
    8.7373  -16.0433   28.4238 O   0  0  0  0  0  0  0  0  0  0  0  0
  2  1  1  6
  3  2  1  0
  4  3  1  0
  5  6  1  0
  5  4  1  0
  6  7  1  0
  8  9  2  0
  8  2  1  0
 10  8  1  0
 11 15  1  0
 11 10  1  0
 11 12  1  6
 13 12  1  0
 13 14  2  0
 15 18  1  0
 16 15  2  0
 17 13  1  0
 18 22  1  0
 19 18  1  0
 19 20  1  0
 20 21  1  0
 22 21  1  0
 23 24  1  0
 22 23  1  1
 25 23  2  0
M  END
$$$$
