KDP.pdb
     RDKit          3D

 25 25  0  0  1  0  0  0  0  0999 V2000
    5.8413  -16.5780   20.5101 N   0  0  0  0  0  0  0  0  0  0  0  0
    6.9960  -15.8388   21.0000 C   0  0  1  0  0  0  0  0  0  0  0  0
    6.8732  -14.3714   20.7108 C   0  0  0  0  0  0  0  0  0  0  0  0
    7.0454  -13.9607   19.3182 C   0  0  0  0  0  0  0  0  0  0  0  0
    8.2760  -13.3842   18.7870 C   0  0  0  0  0  0  0  0  0  0  0  0
    8.3615  -12.8868   17.3994 C   0  0  0  0  0  0  0  0  0  0  0  0
    9.7249  -12.2714   17.2908 N   0  0  0  0  0  0  0  0  0  0  0  0
    6.9675  -16.0472   22.5105 C   0  0  0  0  0  0  0  0  0  0  0  0
    5.8869  -15.8933   23.1351 O   0  0  0  0  0  0  0  0  0  0  0  0
    8.1382  -16.4106   23.2078 N   0  0  0  0  0  0  0  0  0  0  0  0
    8.1046  -16.5595   24.6643 C   0  0  1  0  0  0  0  0  0  0  0  0
    8.6838  -17.9551   24.9146 C   0  0  0  0  0  0  0  0  0  0  0  0
    8.8332  -18.2482   26.3601 C   0  0  0  0  0  0  0  0  0  0  0  0
    7.9142  -18.2085   27.1892 O   0  0  0  0  0  0  0  0  0  0  0  0
    8.9324  -15.5268   25.3271 C   0  0  0  0  0  0  0  0  0  0  0  0
   10.0798  -15.3073   24.7993 O   0  0  0  0  0  0  0  0  0  0  0  0
   10.1002  -18.6000   26.8534 O   0  0  0  0  0  0  0  0  0  0  0  0
    8.5004  -14.8172   26.4706 N   0  0  0  0  0  0  0  0  0  0  0  0
    7.2087  -14.9031   27.0866 C   0  0  0  0  0  0  0  0  0  0  0  0
    6.9271  -13.4364   27.4337 C   0  0  0  0  0  0  0  0  0  0  0  0
    8.2663  -12.7441   27.4410 C   0  0  0  0  0  0  0  0  0  0  0  0
    9.2582  -13.8636   27.2297 C   0  0  1  0  0  0  0  0  0  0  0  0
    9.6368  -14.3955   28.5827 C   0  0  0  0  0  0  0  0  0  0  0  0
   10.4879  -13.7157   29.4369 O   0  0  0  0  0  0  0  0  0  0  0  0
    9.1884  -15.4949   29.0001 O   0  0  0  0  0  0  0  0  0  0  0  0
  2  1  1  6
  3  2  1  0
  4  3  1  0
  5  6  1  0
  5  4  1  0
  6  7  1  0
  8  9  2  0
  8  2  1  0
 10  8  1  0
 11 15  1  0
 11 10  1  0
 11 12  1  6
 13 12  1  0
 13 14  2  0
 15 18  1  0
 16 15  2  0
 17 13  1  0
 18 22  1  0
 19 18  1  0
 19 20  1  0
 20 21  1  0
 22 21  1  0
 23 24  1  0
 22 23  1  1
 25 23  2  0
M  END
$$$$
