KDP.pdb
     RDKit          3D

 25 25  0  0  1  0  0  0  0  0999 V2000
    8.4225  -20.5492   23.9382 N   0  0  0  0  0  0  0  0  0  0  0  0
    7.4640  -19.8181   24.7546 C   0  0  1  0  0  0  0  0  0  0  0  0
    7.2390  -20.4928   26.0760 C   0  0  0  0  0  0  0  0  0  0  0  0
    7.1284  -21.9506   26.0577 C   0  0  0  0  0  0  0  0  0  0  0  0
    5.8779  -22.6682   25.8344 C   0  0  0  0  0  0  0  0  0  0  0  0
    5.8284  -24.1434   25.7958 C   0  0  0  0  0  0  0  0  0  0  0  0
    4.3957  -24.4764   25.5026 N   0  0  0  0  0  0  0  0  0  0  0  0
    8.1261  -18.4660   24.9985 C   0  0  0  0  0  0  0  0  0  0  0  0
    8.6161  -18.2129   26.1286 O   0  0  0  0  0  0  0  0  0  0  0  0
    8.1932  -17.5032   23.9702 N   0  0  0  0  0  0  0  0  0  0  0  0
    8.5509  -16.1190   24.2877 C   0  0  1  0  0  0  0  0  0  0  0  0
    8.7274  -15.4516   22.9205 C   0  0  0  0  0  0  0  0  0  0  0  0
    9.8511  -16.0383   22.1519 C   0  0  0  0  0  0  0  0  0  0  0  0
   11.0487  -15.9117   22.4408 O   0  0  0  0  0  0  0  0  0  0  0  0
    7.4767  -15.4515   25.0569 C   0  0  0  0  0  0  0  0  0  0  0  0
    6.3387  -16.0416   25.0543 O   0  0  0  0  0  0  0  0  0  0  0  0
    9.5653  -16.7991   21.0066 O   0  0  0  0  0  0  0  0  0  0  0  0
    7.6759  -14.2399   25.7568 N   0  0  0  0  0  0  0  0  0  0  0  0
    8.8772  -13.4577   25.7774 C   0  0  0  0  0  0  0  0  0  0  0  0
    8.9513  -13.0328   27.2488 C   0  0  0  0  0  0  0  0  0  0  0  0
    7.5561  -13.1863   27.7989 C   0  0  0  0  0  0  0  0  0  0  0  0
    6.7268  -13.5625   26.5937 C   0  0  1  0  0  0  0  0  0  0  0  0
    6.2332  -12.2893   25.9675 C   0  0  0  0  0  0  0  0  0  0  0  0
    5.1366  -11.5985   26.4535 O   0  0  0  0  0  0  0  0  0  0  0  0
    6.8054  -11.7922   24.9628 O   0  0  0  0  0  0  0  0  0  0  0  0
  2  1  1  6
  3  2  1  0
  4  3  1  0
  5  6  1  0
  5  4  1  0
  6  7  1  0
  8  9  2  0
  8  2  1  0
 10  8  1  0
 11 15  1  0
 11 10  1  0
 11 12  1  6
 13 12  1  0
 13 14  2  0
 15 18  1  0
 16 15  2  0
 17 13  1  0
 18 22  1  0
 19 18  1  0
 19 20  1  0
 20 21  1  0
 22 21  1  0
 23 24  1  0
 22 23  1  6
 25 23  2  0
M  END
$$$$
