KDP.pdb
     RDKit          3D

 25 25  0  0  1  0  0  0  0  0999 V2000
    5.7388  -15.7840   20.4181 N   0  0  0  0  0  0  0  0  0  0  0  0
    7.0465  -15.4098   20.9375 C   0  0  1  0  0  0  0  0  0  0  0  0
    7.3349  -13.9554   20.7063 C   0  0  0  0  0  0  0  0  0  0  0  0
    7.4602  -13.5247   19.3147 C   0  0  0  0  0  0  0  0  0  0  0  0
    8.6840  -13.6537   18.5308 C   0  0  0  0  0  0  0  0  0  0  0  0
    8.7793  -13.1311   17.1532 C   0  0  0  0  0  0  0  0  0  0  0  0
   10.1331  -13.5578   16.6688 N   0  0  0  0  0  0  0  0  0  0  0  0
    6.9445  -15.6591   22.4386 C   0  0  0  0  0  0  0  0  0  0  0  0
    5.9247  -15.2680   23.0620 O   0  0  0  0  0  0  0  0  0  0  0  0
    7.9800  -16.3228   23.1286 N   0  0  0  0  0  0  0  0  0  0  0  0
    7.9315  -16.4337   24.5881 C   0  0  1  0  0  0  0  0  0  0  0  0
    8.3278  -17.8860   24.8697 C   0  0  0  0  0  0  0  0  0  0  0  0
    7.1656  -18.8045   24.8135 C   0  0  0  0  0  0  0  0  0  0  0  0
    6.0515  -18.5671   25.2995 O   0  0  0  0  0  0  0  0  0  0  0  0
    8.8865  -15.5010   25.2278 C   0  0  0  0  0  0  0  0  0  0  0  0
    9.9871  -15.3102   24.5989 O   0  0  0  0  0  0  0  0  0  0  0  0
    7.3103  -20.0429   24.1671 O   0  0  0  0  0  0  0  0  0  0  0  0
    8.6178  -14.8524   26.4545 N   0  0  0  0  0  0  0  0  0  0  0  0
    7.3662  -14.8407   27.1537 C   0  0  0  0  0  0  0  0  0  0  0  0
    7.2909  -13.3888   27.6406 C   0  0  0  0  0  0  0  0  0  0  0  0
    8.7035  -12.8632   27.6077 C   0  0  0  0  0  0  0  0  0  0  0  0
    9.5338  -14.0681   27.2328 C   0  0  1  0  0  0  0  0  0  0  0  0
    9.9270  -14.7619   28.5059 C   0  0  0  0  0  0  0  0  0  0  0  0
   10.9032  -14.2650   29.3522 O   0  0  0  0  0  0  0  0  0  0  0  0
    9.3761  -15.8368   28.8597 O   0  0  0  0  0  0  0  0  0  0  0  0
  2  1  1  6
  3  2  1  0
  4  3  1  0
  5  6  1  0
  5  4  1  0
  6  7  1  0
  8  9  2  0
  8  2  1  0
 10  8  1  0
 11 15  1  0
 11 10  1  0
 11 12  1  6
 13 12  1  0
 13 14  2  0
 15 18  1  0
 16 15  2  0
 17 13  1  0
 18 22  1  0
 19 18  1  0
 19 20  1  0
 20 21  1  0
 22 21  1  0
 23 24  1  0
 22 23  1  1
 25 23  2  0
M  END
$$$$
