KDP.pdb
     RDKit          3D

 25 25  0  0  1  0  0  0  0  0999 V2000
    9.0256  -15.0889   19.7233 N   0  0  0  0  0  0  0  0  0  0  0  0
    8.6898  -13.7923   20.2940 C   0  0  1  0  0  0  0  0  0  0  0  0
    7.6999  -13.0551   19.4405 C   0  0  0  0  0  0  0  0  0  0  0  0
    7.8640  -13.1760   17.9926 C   0  0  0  0  0  0  0  0  0  0  0  0
    7.4793  -14.3567   17.2267 C   0  0  0  0  0  0  0  0  0  0  0  0
    7.5212  -14.3693   15.7509 C   0  0  0  0  0  0  0  0  0  0  0  0
    8.9736  -14.5123   15.4049 N   0  0  0  0  0  0  0  0  0  0  0  0
    8.0362  -14.1238   21.6315 C   0  0  0  0  0  0  0  0  0  0  0  0
    7.3123  -13.2639   22.1954 O   0  0  0  0  0  0  0  0  0  0  0  0
    8.2361  -15.3819   22.2365 N   0  0  0  0  0  0  0  0  0  0  0  0
    7.7363  -15.6291   23.5906 C   0  0  1  0  0  0  0  0  0  0  0  0
    7.8487  -17.1468   23.7634 C   0  0  0  0  0  0  0  0  0  0  0  0
    6.5223  -17.8087   23.7759 C   0  0  0  0  0  0  0  0  0  0  0  0
    5.5825  -17.4967   24.5196 O   0  0  0  0  0  0  0  0  0  0  0  0
    8.5602  -14.9287   24.6014 C   0  0  0  0  0  0  0  0  0  0  0  0
    9.8177  -14.8767   24.3582 O   0  0  0  0  0  0  0  0  0  0  0  0
    6.2862  -18.8714   22.8887 O   0  0  0  0  0  0  0  0  0  0  0  0
    8.0113  -14.3473   25.7670 N   0  0  0  0  0  0  0  0  0  0  0  0
    6.6250  -14.3197   26.1312 C   0  0  0  0  0  0  0  0  0  0  0  0
    6.4743  -12.8998   26.6899 C   0  0  0  0  0  0  0  0  0  0  0  0
    7.8651  -12.4421   27.0488 C   0  0  0  0  0  0  0  0  0  0  0  0
    8.7255  -13.6595   26.8046 C   0  0  1  0  0  0  0  0  0  0  0  0
    8.7637  -14.4512   28.0808 C   0  0  0  0  0  0  0  0  0  0  0  0
    8.0913  -15.6519   28.2308 O   0  0  0  0  0  0  0  0  0  0  0  0
    9.4184  -14.0498   29.0778 O   0  0  0  0  0  0  0  0  0  0  0  0
  2  1  1  6
  3  2  1  0
  4  3  1  0
  5  6  1  0
  5  4  1  0
  6  7  1  0
  8  9  2  0
  8  2  1  0
 10  8  1  0
 11 15  1  0
 11 10  1  0
 11 12  1  1
 13 12  1  0
 13 14  2  0
 15 18  1  0
 16 15  2  0
 17 13  1  0
 18 22  1  0
 19 18  1  0
 19 20  1  0
 20 21  1  0
 22 21  1  0
 23 24  1  0
 22 23  1  1
 25 23  2  0
M  END
$$$$
