KDP.pdb
     RDKit          3D

 25 25  0  0  1  0  0  0  0  0999 V2000
    6.2394  -15.9632   19.7133 N   0  0  0  0  0  0  0  0  0  0  0  0
    7.1483  -15.0767   20.4258 C   0  0  1  0  0  0  0  0  0  0  0  0
    6.8507  -13.6347   20.1359 C   0  0  0  0  0  0  0  0  0  0  0  0
    7.9435  -12.8385   19.5793 C   0  0  0  0  0  0  0  0  0  0  0  0
    9.0987  -13.4096   18.8951 C   0  0  0  0  0  0  0  0  0  0  0  0
   10.2406  -12.5732   18.4750 C   0  0  0  0  0  0  0  0  0  0  0  0
   11.1846  -13.5188   17.7935 N   0  0  0  0  0  0  0  0  0  0  0  0
    6.8684  -15.3506   21.8998 C   0  0  0  0  0  0  0  0  0  0  0  0
    5.6986  -15.2172   22.3417 O   0  0  0  0  0  0  0  0  0  0  0  0
    7.9068  -15.7515   22.7657 N   0  0  0  0  0  0  0  0  0  0  0  0
    7.6222  -16.0039   24.1800 C   0  0  1  0  0  0  0  0  0  0  0  0
    7.7110  -17.5268   24.3170 C   0  0  0  0  0  0  0  0  0  0  0  0
    7.5473  -17.9730   25.7212 C   0  0  0  0  0  0  0  0  0  0  0  0
    8.4786  -18.1909   26.5079 O   0  0  0  0  0  0  0  0  0  0  0  0
    8.6197  -15.3447   25.0526 C   0  0  0  0  0  0  0  0  0  0  0  0
    9.8311  -15.3693   24.6339 O   0  0  0  0  0  0  0  0  0  0  0  0
    6.2507  -18.1713   26.2231 O   0  0  0  0  0  0  0  0  0  0  0  0
    8.2756  -14.7217   26.2738 N   0  0  0  0  0  0  0  0  0  0  0  0
    6.9695  -14.6681   26.8624 C   0  0  0  0  0  0  0  0  0  0  0  0
    6.9213  -13.2301   27.3921 C   0  0  0  0  0  0  0  0  0  0  0  0
    8.3549  -12.7762   27.4998 C   0  0  0  0  0  0  0  0  0  0  0  0
    9.1562  -14.0096   27.1554 C   0  0  1  0  0  0  0  0  0  0  0  0
    9.4022  -14.7617   28.4324 C   0  0  0  0  0  0  0  0  0  0  0  0
   10.3225  -14.3412   29.3771 O   0  0  0  0  0  0  0  0  0  0  0  0
    8.7720  -15.8181   28.6988 O   0  0  0  0  0  0  0  0  0  0  0  0
  2  1  1  6
  3  2  1  0
  4  3  1  0
  5  6  1  0
  5  4  1  0
  6  7  1  0
  8  9  2  0
  8  2  1  0
 10  8  1  0
 11 15  1  0
 11 10  1  0
 11 12  1  6
 13 12  1  0
 13 14  2  0
 15 18  1  0
 16 15  2  0
 17 13  1  0
 18 22  1  0
 19 18  1  0
 19 20  1  0
 20 21  1  0
 22 21  1  0
 23 24  1  0
 22 23  1  1
 25 23  2  0
M  END
$$$$
