QCQ.pdb
     RDKit          3D

 25 24  0  0  1  0  0  0  0  0999 V2000
   15.7710   -9.5623  -18.0246 N   0  0  0  0  0  0  0  0  0  0  0  0
   16.0982  -10.9345  -18.2933 C   0  0  0  0  0  0  0  0  0  0  0  0
   15.6994  -11.4141  -19.3692 O   0  0  0  0  0  0  0  0  0  0  0  0
   16.8592  -11.6754  -17.3112 C   0  0  0  0  0  0  0  0  0  0  0  0
   17.1513  -10.9806  -16.0175 C   0  0  0  0  0  0  0  0  0  0  0  0
   18.5864  -10.8341  -15.6712 C   0  0  2  0  0  0  0  0  0  0  0  0
   19.2446  -12.0998  -15.5802 N   0  0  0  0  0  0  0  0  0  0  0  0
   18.7835  -10.1023  -14.3801 C   0  0  0  0  0  0  0  0  0  0  0  0
   18.6635  -10.6991  -13.2786 O   0  0  0  0  0  0  0  0  0  0  0  0
   19.1090   -8.7251  -14.3196 N   0  0  0  0  0  0  0  0  0  0  0  0
   19.2882   -7.9973  -13.0949 C   0  0  1  0  0  0  0  0  0  0  0  0
   20.4694   -7.1087  -13.0514 C   0  0  0  0  0  0  0  0  0  0  0  0
   22.0031   -8.1105  -12.9737 S   0  0  0  0  0  0  0  0  0  0  0  0
   18.0550   -7.1865  -12.8182 C   0  0  0  0  0  0  0  0  0  0  0  0
   17.4600   -6.5993  -13.7568 O   0  0  0  0  0  0  0  0  0  0  0  0
   15.1473   -7.0670   -7.2340 N   0  0  0  0  0  0  0  0  0  0  0  0
   14.2240   -6.3354   -8.0641 C   0  0  0  0  0  0  0  0  0  0  0  0
   13.1417   -6.0305   -7.5382 O   0  0  0  0  0  0  0  0  0  0  0  0
   14.6365   -6.0216   -9.4263 C   0  0  0  0  0  0  0  0  0  0  0  0
   15.9641   -6.6235   -9.7554 C   0  0  0  0  0  0  0  0  0  0  0  0
   16.3124   -6.3770  -11.1820 C   0  0  2  0  0  0  0  0  0  0  0  0
   17.5499   -7.0759  -11.4950 N   0  0  0  0  0  0  0  0  0  0  0  0
   16.4745   -4.9246  -11.4423 C   0  0  0  0  0  0  0  0  0  0  0  0
   15.3953   -4.2141  -11.9293 O   0  0  0  0  0  0  0  0  0  0  0  0
   17.5478   -4.3364  -11.2348 O   0  0  0  0  0  0  0  0  0  0  0  0
  1  2  1  0
  2  4  1  0
  3  2  2  0
  5  4  1  0
  6  5  1  0
  6  7  1  1
  8  6  1  0
  8  9  2  0
 10  8  1  0
 11 10  1  0
 11 14  1  0
 11 12  1  6
 13 12  1  0
 14 22  1  0
 15 14  2  0
 17 16  1  0
 17 19  1  0
 18 17  2  0
 19 20  1  0
 21 20  1  1
 21 23  1  0
 22 21  1  0
 23 25  2  0
 23 24  1  0
M  END
$$$$
