QCQ.pdb
     RDKit          3D

 25 24  0  0  1  0  0  0  0  0999 V2000
   29.9178  -20.3158  -11.5076 N   0  0  0  0  0  0  0  0  0  0  0  0
   29.6990  -21.2634  -10.4510 C   0  0  0  0  0  0  0  0  0  0  0  0
   30.6751  -21.9407  -10.0833 O   0  0  0  0  0  0  0  0  0  0  0  0
   28.3741  -21.3805   -9.8821 C   0  0  0  0  0  0  0  0  0  0  0  0
   27.3287  -20.4450  -10.4053 C   0  0  0  0  0  0  0  0  0  0  0  0
   26.3157  -21.0458  -11.3075 C   0  0  2  0  0  0  0  0  0  0  0  0
   26.7879  -22.2532  -11.9100 N   0  0  0  0  0  0  0  0  0  0  0  0
   25.8986  -20.1043  -12.3942 C   0  0  0  0  0  0  0  0  0  0  0  0
   25.2717  -19.0472  -12.1227 O   0  0  0  0  0  0  0  0  0  0  0  0
   26.1767  -20.3393  -13.7630 N   0  0  0  0  0  0  0  0  0  0  0  0
   25.7198  -19.4940  -14.8299 C   0  0  1  0  0  0  0  0  0  0  0  0
   26.7521  -19.0964  -15.8113 C   0  0  0  0  0  0  0  0  0  0  0  0
   28.3554  -18.8342  -14.9610 S   0  0  0  0  0  0  0  0  0  0  0  0
   24.5944  -20.1767  -15.5524 C   0  0  0  0  0  0  0  0  0  0  0  0
   24.7764  -21.2969  -16.0926 O   0  0  0  0  0  0  0  0  0  0  0  0
   21.3189  -21.7820  -11.7549 N   0  0  0  0  0  0  0  0  0  0  0  0
   20.3217  -22.0556  -12.7585 C   0  0  0  0  0  0  0  0  0  0  0  0
   19.3298  -22.6991  -12.3804 O   0  0  0  0  0  0  0  0  0  0  0  0
   20.5610  -21.5591  -14.1078 C   0  0  0  0  0  0  0  0  0  0  0  0
   21.8569  -20.8213  -14.2044 C   0  0  0  0  0  0  0  0  0  0  0  0
   22.0753  -20.3245  -15.5911 C   0  0  2  0  0  0  0  0  0  0  0  0
   23.3152  -19.5638  -15.6320 N   0  0  0  0  0  0  0  0  0  0  0  0
   20.9444  -19.4685  -16.0292 C   0  0  0  0  0  0  0  0  0  0  0  0
   19.8405  -20.0700  -16.6004 O   0  0  0  0  0  0  0  0  0  0  0  0
   20.9655  -18.2345  -15.8962 O   0  0  0  0  0  0  0  0  0  0  0  0
  1  2  1  0
  2  4  1  0
  3  2  2  0
  5  4  1  0
  6  5  1  0
  6  7  1  6
  8  6  1  0
  8  9  2  0
 10  8  1  0
 11 10  1  0
 11 14  1  0
 11 12  1  6
 13 12  1  0
 14 22  1  0
 15 14  2  0
 17 16  1  0
 17 19  1  0
 18 17  2  0
 19 20  1  0
 21 20  1  1
 21 23  1  0
 22 21  1  0
 23 25  2  0
 23 24  1  0
M  END
$$$$
