QCQ.pdb
     RDKit          3D

 25 24  0  0  1  0  0  0  0  0999 V2000
   30.3758  -26.0438  -15.7612 N   0  0  0  0  0  0  0  0  0  0  0  0
   29.4361  -26.6599  -16.6554 C   0  0  0  0  0  0  0  0  0  0  0  0
   29.7028  -27.8053  -17.0599 O   0  0  0  0  0  0  0  0  0  0  0  0
   28.2495  -25.9248  -17.0354 C   0  0  0  0  0  0  0  0  0  0  0  0
   28.0146  -24.6170  -16.3451 C   0  0  0  0  0  0  0  0  0  0  0  0
   28.5016  -23.4115  -17.0597 C   0  0  2  0  0  0  0  0  0  0  0  0
   29.9232  -23.4189  -17.2098 N   0  0  0  0  0  0  0  0  0  0  0  0
   28.1037  -22.1456  -16.3666 C   0  0  0  0  0  0  0  0  0  0  0  0
   28.9084  -21.5507  -15.6034 O   0  0  0  0  0  0  0  0  0  0  0  0
   26.8268  -21.5529  -16.5228 N   0  0  0  0  0  0  0  0  0  0  0  0
   26.4603  -20.2812  -15.9660 C   0  0  1  0  0  0  0  0  0  0  0  0
   27.2820  -19.1339  -16.4081 C   0  0  0  0  0  0  0  0  0  0  0  0
   28.8536  -19.7345  -17.1371 S   0  0  0  0  0  0  0  0  0  0  0  0
   25.0190  -20.0017  -16.2815 C   0  0  0  0  0  0  0  0  0  0  0  0
   24.5866  -20.1530  -17.4519 O   0  0  0  0  0  0  0  0  0  0  0  0
   20.6624  -21.3407  -13.2824 N   0  0  0  0  0  0  0  0  0  0  0  0
   19.8718  -20.3274  -13.9341 C   0  0  0  0  0  0  0  0  0  0  0  0
   18.6662  -20.5855  -14.0785 O   0  0  0  0  0  0  0  0  0  0  0  0
   20.5464  -19.1071  -14.3584 C   0  0  0  0  0  0  0  0  0  0  0  0
   22.0266  -19.2004  -14.1752 C   0  0  0  0  0  0  0  0  0  0  0  0
   22.7077  -19.3710  -15.4883 C   0  0  2  0  0  0  0  0  0  0  0  0
   24.1321  -19.5645  -15.2615 N   0  0  0  0  0  0  0  0  0  0  0  0
   22.4919  -18.1838  -16.3528 C   0  0  0  0  0  0  0  0  0  0  0  0
   21.4063  -18.1738  -17.2062 O   0  0  0  0  0  0  0  0  0  0  0  0
   23.2569  -17.2065  -16.3286 O   0  0  0  0  0  0  0  0  0  0  0  0
  1  2  1  0
  2  4  1  0
  3  2  2  0
  5  4  1  0
  6  5  1  0
  6  7  1  1
  8  6  1  0
  8  9  2  0
 10  8  1  0
 11 10  1  0
 11 14  1  0
 11 12  1  6
 13 12  1  0
 14 22  1  0
 15 14  2  0
 17 16  1  0
 17 19  1  0
 18 17  2  0
 19 20  1  0
 21 20  1  1
 21 23  1  0
 22 21  1  0
 23 25  2  0
 23 24  1  0
M  END
$$$$
