QCQ.pdb
     RDKit          3D

 25 24  0  0  1  0  0  0  0  0999 V2000
   17.8864  -14.5183  -15.1446 N   0  0  0  0  0  0  0  0  0  0  0  0
   17.2063  -14.3068  -16.3916 C   0  0  0  0  0  0  0  0  0  0  0  0
   16.6234  -15.2836  -16.8943 O   0  0  0  0  0  0  0  0  0  0  0  0
   17.2386  -12.9898  -16.9892 C   0  0  0  0  0  0  0  0  0  0  0  0
   17.9472  -11.9166  -16.2224 C   0  0  0  0  0  0  0  0  0  0  0  0
   18.7411  -10.9597  -17.0316 C   0  0  2  0  0  0  0  0  0  0  0  0
   19.5126  -11.6228  -18.0359 N   0  0  0  0  0  0  0  0  0  0  0  0
   19.6654  -10.1381  -16.1878 C   0  0  0  0  0  0  0  0  0  0  0  0
   19.2316   -9.5016  -15.1925 O   0  0  0  0  0  0  0  0  0  0  0  0
   21.0528  -10.0284  -16.4513 N   0  0  0  0  0  0  0  0  0  0  0  0
   21.9616   -9.2567  -15.6513 C   0  0  1  0  0  0  0  0  0  0  0  0
   23.3813   -9.6621  -15.7337 C   0  0  0  0  0  0  0  0  0  0  0  0
   23.6682  -11.1486  -14.6993 S   0  0  0  0  0  0  0  0  0  0  0  0
   21.8433   -7.8082  -16.0293 C   0  0  0  0  0  0  0  0  0  0  0  0
   21.8522   -7.4671  -17.2390 O   0  0  0  0  0  0  0  0  0  0  0  0
   18.4108   -4.4922  -17.4789 N   0  0  0  0  0  0  0  0  0  0  0  0
   18.9981   -3.3556  -16.8158 C   0  0  0  0  0  0  0  0  0  0  0  0
   18.6356   -2.2399  -17.2220 O   0  0  0  0  0  0  0  0  0  0  0  0
   19.9500   -3.6118  -15.7423 C   0  0  0  0  0  0  0  0  0  0  0  0
   20.1396   -5.0755  -15.5081 C   0  0  0  0  0  0  0  0  0  0  0  0
   21.5832   -5.3961  -15.3342 C   0  0  2  0  0  0  0  0  0  0  0  0
   21.7202   -6.8114  -15.0246 N   0  0  0  0  0  0  0  0  0  0  0  0
   22.1769   -4.5822  -14.2440 C   0  0  0  0  0  0  0  0  0  0  0  0
   22.5258   -3.2727  -14.5092 O   0  0  0  0  0  0  0  0  0  0  0  0
   22.3664   -5.0452  -13.1079 O   0  0  0  0  0  0  0  0  0  0  0  0
  1  2  1  0
  2  4  1  0
  3  2  2  0
  5  4  1  0
  6  5  1  0
  6  7  1  6
  8  6  1  0
  8  9  2  0
 10  8  1  0
 11 10  1  0
 11 14  1  0
 11 12  1  6
 13 12  1  0
 14 22  1  0
 15 14  2  0
 17 16  1  0
 17 19  1  0
 18 17  2  0
 19 20  1  0
 21 20  1  1
 21 23  1  0
 22 21  1  0
 23 25  2  0
 23 24  1  0
M  END
$$$$
