QCQ.pdb
     RDKit          3D

 25 24  0  0  1  0  0  0  0  0999 V2000
   18.5988  -25.7519   -5.3526 N   0  0  0  0  0  0  0  0  0  0  0  0
   17.4105  -26.4485   -4.9465 C   0  0  0  0  0  0  0  0  0  0  0  0
   16.6373  -26.8255   -5.8446 O   0  0  0  0  0  0  0  0  0  0  0  0
   17.1781  -26.6676   -3.5356 C   0  0  0  0  0  0  0  0  0  0  0  0
   18.2081  -26.1328   -2.5897 C   0  0  0  0  0  0  0  0  0  0  0  0
   19.1630  -27.1277   -2.0426 C   0  0  2  0  0  0  0  0  0  0  0  0
   18.6799  -28.4654   -2.1869 N   0  0  0  0  0  0  0  0  0  0  0  0
   19.4642  -26.8849   -0.5964 C   0  0  0  0  0  0  0  0  0  0  0  0
   19.1083  -27.7132    0.2818 O   0  0  0  0  0  0  0  0  0  0  0  0
   20.1517  -25.7348   -0.1374 N   0  0  0  0  0  0  0  0  0  0  0  0
   20.5276  -25.5191    1.2315 C   0  0  1  0  0  0  0  0  0  0  0  0
   21.9102  -25.0386    1.4420 C   0  0  0  0  0  0  0  0  0  0  0  0
   22.7391  -24.7906   -0.1746 S   0  0  0  0  0  0  0  0  0  0  0  0
   19.5704  -24.5467    1.8583 C   0  0  0  0  0  0  0  0  0  0  0  0
   19.1337  -23.5722    1.1955 O   0  0  0  0  0  0  0  0  0  0  0  0
   14.7522  -25.7072    5.1088 N   0  0  0  0  0  0  0  0  0  0  0  0
   14.8323  -24.2887    5.3498 C   0  0  0  0  0  0  0  0  0  0  0  0
   13.8597  -23.7781    5.9280 O   0  0  0  0  0  0  0  0  0  0  0  0
   16.0302  -23.5896    4.9019 C   0  0  0  0  0  0  0  0  0  0  0  0
   17.0089  -24.5213    4.2638 C   0  0  0  0  0  0  0  0  0  0  0  0
   18.2464  -23.7927    3.8702 C   0  0  2  0  0  0  0  0  0  0  0  0
   19.1500  -24.7189    3.2043 N   0  0  0  0  0  0  0  0  0  0  0  0
   18.9135  -23.2050    5.0589 C   0  0  0  0  0  0  0  0  0  0  0  0
   18.4702  -21.9861    5.5327 O   0  0  0  0  0  0  0  0  0  0  0  0
   19.8531  -23.7772    5.6341 O   0  0  0  0  0  0  0  0  0  0  0  0
  1  2  1  0
  2  4  1  0
  3  2  2  0
  5  4  1  0
  6  5  1  0
  6  7  1  1
  8  6  1  0
  8  9  2  0
 10  8  1  0
 11 10  1  0
 11 14  1  0
 11 12  1  6
 13 12  1  0
 14 22  1  0
 15 14  2  0
 17 16  1  0
 17 19  1  0
 18 17  2  0
 19 20  1  0
 21 20  1  1
 21 23  1  0
 22 21  1  0
 23 25  2  0
 23 24  1  0
M  END
$$$$
