QCQ.pdb
     RDKit          3D

 25 24  0  0  1  0  0  0  0  0999 V2000
   18.1197  -15.0544  -15.7934 N   0  0  0  0  0  0  0  0  0  0  0  0
   19.0269  -14.3714  -16.6725 C   0  0  0  0  0  0  0  0  0  0  0  0
   19.7507  -15.0737  -17.4002 O   0  0  0  0  0  0  0  0  0  0  0  0
   19.0527  -12.9251  -16.6619 C   0  0  0  0  0  0  0  0  0  0  0  0
   18.1638  -12.2404  -15.6705 C   0  0  0  0  0  0  0  0  0  0  0  0
   18.2394  -10.7589  -15.6486 C   0  0  2  0  0  0  0  0  0  0  0  0
   19.3582  -10.2713  -16.3929 N   0  0  0  0  0  0  0  0  0  0  0  0
   18.3243  -10.2188  -14.2549 C   0  0  0  0  0  0  0  0  0  0  0  0
   17.9730  -10.9210  -13.2713 O   0  0  0  0  0  0  0  0  0  0  0  0
   18.7937   -8.9146  -13.9637 N   0  0  0  0  0  0  0  0  0  0  0  0
   18.9728   -8.4062  -12.6328 C   0  0  1  0  0  0  0  0  0  0  0  0
   20.2942   -7.8026  -12.3564 C   0  0  0  0  0  0  0  0  0  0  0  0
   20.6886   -6.5483  -13.6345 S   0  0  0  0  0  0  0  0  0  0  0  0
   17.9020   -7.3941  -12.3433 C   0  0  0  0  0  0  0  0  0  0  0  0
   17.4638   -6.6561  -13.2616 O   0  0  0  0  0  0  0  0  0  0  0  0
   14.9724   -6.7976   -6.7927 N   0  0  0  0  0  0  0  0  0  0  0  0
   14.4765   -5.6483   -7.5066 C   0  0  0  0  0  0  0  0  0  0  0  0
   13.7037   -4.9076   -6.8779 O   0  0  0  0  0  0  0  0  0  0  0  0
   14.9200   -5.4589   -8.8819 C   0  0  0  0  0  0  0  0  0  0  0  0
   15.9117   -6.4988   -9.2920 C   0  0  0  0  0  0  0  0  0  0  0  0
   16.4019   -6.2399  -10.6740 C   0  0  2  0  0  0  0  0  0  0  0  0
   17.3747   -7.2616  -11.0308 N   0  0  0  0  0  0  0  0  0  0  0  0
   17.0248   -4.8959  -10.7699 C   0  0  0  0  0  0  0  0  0  0  0  0
   16.2170   -3.8087  -11.0390 O   0  0  0  0  0  0  0  0  0  0  0  0
   18.2446   -4.7253  -10.6154 O   0  0  0  0  0  0  0  0  0  0  0  0
  1  2  1  0
  2  4  1  0
  3  2  2  0
  5  4  1  0
  6  5  1  0
  6  7  1  6
  8  6  1  0
  8  9  2  0
 10  8  1  0
 11 10  1  0
 11 14  1  0
 11 12  1  6
 13 12  1  0
 14 22  1  0
 15 14  2  0
 17 16  1  0
 17 19  1  0
 18 17  2  0
 19 20  1  0
 21 20  1  1
 21 23  1  0
 22 21  1  0
 23 25  2  0
 23 24  1  0
M  END
$$$$
