QCQ.pdb
     RDKit          3D

 25 24  0  0  1  0  0  0  0  0999 V2000
   27.6913  -18.0831  -17.6304 N   0  0  0  0  0  0  0  0  0  0  0  0
   28.2589  -19.3734  -17.3565 C   0  0  0  0  0  0  0  0  0  0  0  0
   28.0781  -20.2658  -18.2037 O   0  0  0  0  0  0  0  0  0  0  0  0
   28.9961  -19.5645  -16.1265 C   0  0  0  0  0  0  0  0  0  0  0  0
   28.3444  -20.4031  -15.0711 C   0  0  0  0  0  0  0  0  0  0  0  0
   27.1979  -19.7796  -14.3656 C   0  0  2  0  0  0  0  0  0  0  0  0
   27.5773  -18.5782  -13.6900 N   0  0  0  0  0  0  0  0  0  0  0  0
   26.5755  -20.7082  -13.3698 C   0  0  0  0  0  0  0  0  0  0  0  0
   26.3535  -21.9114  -13.6647 O   0  0  0  0  0  0  0  0  0  0  0  0
   26.2061  -20.2998  -12.0649 N   0  0  0  0  0  0  0  0  0  0  0  0
   25.1312  -20.8872  -11.3157 C   0  0  1  0  0  0  0  0  0  0  0  0
   25.0300  -20.4550   -9.9052 C   0  0  0  0  0  0  0  0  0  0  0  0
   26.7008  -20.3745   -9.1543 S   0  0  0  0  0  0  0  0  0  0  0  0
   23.8314  -20.5999  -12.0104 C   0  0  0  0  0  0  0  0  0  0  0  0
   23.4471  -19.4136  -12.1687 O   0  0  0  0  0  0  0  0  0  0  0  0
   22.6376  -23.6478  -16.7569 N   0  0  0  0  0  0  0  0  0  0  0  0
   23.3418  -22.3984  -16.6164 C   0  0  0  0  0  0  0  0  0  0  0  0
   24.1367  -22.1152  -17.5269 O   0  0  0  0  0  0  0  0  0  0  0  0
   23.0620  -21.5893  -15.4369 C   0  0  0  0  0  0  0  0  0  0  0  0
   21.9904  -22.1962  -14.5906 C   0  0  0  0  0  0  0  0  0  0  0  0
   21.8422  -21.4449  -13.3136 C   0  0  2  0  0  0  0  0  0  0  0  0
   23.0250  -21.6644  -12.4947 N   0  0  0  0  0  0  0  0  0  0  0  0
   20.6311  -21.8878  -12.5782 C   0  0  0  0  0  0  0  0  0  0  0  0
   20.7304  -22.9734  -11.7307 O   0  0  0  0  0  0  0  0  0  0  0  0
   19.5390  -21.3114  -12.7047 O   0  0  0  0  0  0  0  0  0  0  0  0
  1  2  1  0
  2  4  1  0
  3  2  2  0
  5  4  1  0
  6  5  1  0
  6  7  1  1
  8  6  1  0
  8  9  2  0
 10  8  1  0
 11 10  1  0
 11 14  1  0
 11 12  1  1
 13 12  1  0
 14 22  1  0
 15 14  2  0
 17 16  1  0
 17 19  1  0
 18 17  2  0
 19 20  1  0
 21 20  1  6
 21 23  1  0
 22 21  1  0
 23 25  2  0
 23 24  1  0
M  END
$$$$
