QCQ.pdb
     RDKit          3D

 25 24  0  0  1  0  0  0  0  0999 V2000
   28.8006  -22.2389  -17.2281 N   0  0  0  0  0  0  0  0  0  0  0  0
   28.7783  -20.8206  -17.4518 C   0  0  0  0  0  0  0  0  0  0  0  0
   28.9959  -20.4240  -18.6102 O   0  0  0  0  0  0  0  0  0  0  0  0
   28.5118  -19.9421  -16.3338 C   0  0  0  0  0  0  0  0  0  0  0  0
   28.2967  -20.5900  -15.0012 C   0  0  0  0  0  0  0  0  0  0  0  0
   26.9111  -20.5402  -14.4735 C   0  0  2  0  0  0  0  0  0  0  0  0
   26.4580  -19.1966  -14.2919 N   0  0  0  0  0  0  0  0  0  0  0  0
   26.7766  -21.2669  -13.1715 C   0  0  0  0  0  0  0  0  0  0  0  0
   27.2070  -22.4427  -13.0447 O   0  0  0  0  0  0  0  0  0  0  0  0
   26.1705  -20.6900  -12.0287 N   0  0  0  0  0  0  0  0  0  0  0  0
   25.1175  -21.3148  -11.2788 C   0  0  1  0  0  0  0  0  0  0  0  0
   25.3874  -21.4972   -9.8363 C   0  0  0  0  0  0  0  0  0  0  0  0
   25.8833  -19.8993   -9.0860 S   0  0  0  0  0  0  0  0  0  0  0  0
   23.8551  -20.5187  -11.4440 C   0  0  0  0  0  0  0  0  0  0  0  0
   23.8573  -19.2789  -11.2378 O   0  0  0  0  0  0  0  0  0  0  0  0
   23.2708  -19.8024  -16.4879 N   0  0  0  0  0  0  0  0  0  0  0  0
   21.9132  -19.3719  -16.2684 C   0  0  0  0  0  0  0  0  0  0  0  0
   21.3661  -18.7880  -17.2175 O   0  0  0  0  0  0  0  0  0  0  0  0
   21.3108  -19.6569  -14.9722 C   0  0  0  0  0  0  0  0  0  0  0  0
   22.2622  -20.3653  -14.0633 C   0  0  0  0  0  0  0  0  0  0  0  0
   21.6699  -20.5260  -12.7066 C   0  0  2  0  0  0  0  0  0  0  0  0
   22.6483  -21.1585  -11.8345 N   0  0  0  0  0  0  0  0  0  0  0  0
   20.4375  -21.3515  -12.7632 C   0  0  0  0  0  0  0  0  0  0  0  0
   20.5547  -22.6995  -13.0388 O   0  0  0  0  0  0  0  0  0  0  0  0
   19.3120  -20.8646  -12.5704 O   0  0  0  0  0  0  0  0  0  0  0  0
  1  2  1  0
  2  4  1  0
  3  2  2  0
  5  4  1  0
  6  5  1  0
  6  7  1  1
  8  6  1  0
  8  9  2  0
 10  8  1  0
 11 10  1  0
 11 14  1  0
 11 12  1  1
 13 12  1  0
 14 22  1  0
 15 14  2  0
 17 16  1  0
 17 19  1  0
 18 17  2  0
 19 20  1  0
 21 20  1  6
 21 23  1  0
 22 21  1  0
 23 25  2  0
 23 24  1  0
M  END
$$$$
