MHR.pdb
     RDKit          3D

 30 30  0  0  1  0  0  0  0  0999 V2000
    5.6660  -12.3934   28.1031 C   0  0  0  0  0  0  0  0  0  0  0  0
    5.1564  -11.4605   26.6217 S   0  0  0  0  0  0  0  0  0  0  0  0
    6.3097  -11.7478   25.2593 C   0  0  0  0  0  0  0  0  0  0  0  0
    6.4729  -13.1818   24.8914 C   0  0  0  0  0  0  0  0  0  0  0  0
    7.8519  -13.7345   25.0127 C   0  0  2  0  0  0  0  0  0  0  0  0
    8.9169  -12.8226   24.7593 N   0  0  0  0  0  0  0  0  0  0  0  0
    7.9530  -14.9951   24.2069 C   0  0  0  0  0  0  0  0  0  0  0  0
    7.0325  -15.8555   24.3483 O   0  0  0  0  0  0  0  0  0  0  0  0
    9.0418  -15.1947   23.3310 N   0  0  0  0  0  0  0  0  0  0  0  0
    9.2083  -16.4364   22.6067 C   0  0  1  0  0  0  0  0  0  0  0  0
    9.7340  -16.1402   21.2295 C   0  0  0  0  0  0  0  0  0  0  0  0
    8.8804  -15.2960   20.4012 C   0  0  0  0  0  0  0  0  0  0  0  0
    9.1208  -13.9837   20.0612 C   0  0  0  0  0  0  0  0  0  0  0  0
    8.0840  -13.5839   19.3092 N   0  0  0  0  0  0  0  0  0  0  0  0
    7.2363  -14.6175   19.1924 C   0  0  0  0  0  0  0  0  0  0  0  0
    7.7062  -15.6737   19.8536 N   0  0  0  0  0  0  0  0  0  0  0  0
   10.1101  -17.3682   23.2910 C   0  0  0  0  0  0  0  0  0  0  0  0
   11.3370  -17.3391   23.0287 O   0  0  0  0  0  0  0  0  0  0  0  0
   12.4946  -19.1379   31.4086 N   0  0  0  0  0  0  0  0  0  0  0  0
   12.6945  -20.3600   30.6978 C   0  0  0  0  0  0  0  0  0  0  0  0
   13.3922  -21.2977   31.2074 N   0  0  0  0  0  0  0  0  0  0  0  0
   12.1190  -20.5633   29.4041 N   0  0  0  0  0  0  0  0  0  0  0  0
   11.4952  -19.5146   28.6362 C   0  0  0  0  0  0  0  0  0  0  0  0
   11.1945  -19.9544   27.2193 C   0  0  0  0  0  0  0  0  0  0  0  0
   10.5397  -18.8942   26.4069 C   0  0  0  0  0  0  0  0  0  0  0  0
   10.5398  -19.1732   24.9239 C   0  0  2  0  0  0  0  0  0  0  0  0
    9.6166  -18.3147   24.2561 N   0  0  0  0  0  0  0  0  0  0  0  0
   10.2992  -20.5795   24.5871 C   0  0  0  0  0  0  0  0  0  0  0  0
   11.2678  -21.3925   24.6704 O   0  0  0  0  0  0  0  0  0  0  0  0
    9.0965  -21.1096   24.1814 O   0  0  0  0  0  0  0  0  0  0  0  0
  1  2  1  0
  2  3  1  0
  4  5  1  0
  4  3  1  0
  5  6  1  6
  7  8  2  0
  7  5  1  0
  9  7  1  0
 10 11  1  6
 10  9  1  0
 11 12  1  0
 12 16  1  0
 13 12  2  0
 13 14  1  0
 14 15  1  0
 16 15  2  0
 17 10  1  0
 18 17  2  0
 20 19  1  0
 20 22  1  0
 21 20  2  0
 23 22  1  0
 24 23  1  0
 25 24  1  0
 26 25  1  1
 26 27  1  0
 27 17  1  0
 28 30  1  0
 28 26  1  0
 29 28  2  0
M  END
$$$$
