MHR.pdb
     RDKit          3D

 30 30  0  0  1  0  0  0  0  0999 V2000
    8.2668  -10.7744   19.0579 C   0  0  0  0  0  0  0  0  0  0  0  0
    6.9512  -11.9291   18.5479 S   0  0  0  0  0  0  0  0  0  0  0  0
    7.4641  -13.6411   18.8215 C   0  0  0  0  0  0  0  0  0  0  0  0
    8.7885  -13.7810   19.4883 C   0  0  0  0  0  0  0  0  0  0  0  0
    9.2032  -15.1709   19.8321 C   0  0  2  0  0  0  0  0  0  0  0  0
    8.2599  -16.1972   19.5373 N   0  0  0  0  0  0  0  0  0  0  0  0
    9.6871  -15.2069   21.2510 C   0  0  0  0  0  0  0  0  0  0  0  0
   10.6462  -14.4380   21.5619 O   0  0  0  0  0  0  0  0  0  0  0  0
    9.0827  -16.0730   22.1875 N   0  0  0  0  0  0  0  0  0  0  0  0
    9.6117  -16.2227   23.5261 C   0  0  1  0  0  0  0  0  0  0  0  0
    8.4739  -16.4138   24.4902 C   0  0  0  0  0  0  0  0  0  0  0  0
    7.7953  -15.1923   24.9086 C   0  0  0  0  0  0  0  0  0  0  0  0
    8.1802  -13.9054   24.6065 C   0  0  0  0  0  0  0  0  0  0  0  0
    7.2959  -13.0890   25.1995 N   0  0  0  0  0  0  0  0  0  0  0  0
    6.3988  -13.8509   25.8439 C   0  0  0  0  0  0  0  0  0  0  0  0
    6.6876  -15.1403   25.6777 N   0  0  0  0  0  0  0  0  0  0  0  0
   10.5481  -17.3456   23.6367 C   0  0  0  0  0  0  0  0  0  0  0  0
   10.7514  -18.0758   22.6366 O   0  0  0  0  0  0  0  0  0  0  0  0
   15.8212  -14.6245   20.0792 N   0  0  0  0  0  0  0  0  0  0  0  0
   14.7121  -15.3971   19.6190 C   0  0  0  0  0  0  0  0  0  0  0  0
   14.3627  -15.3605   18.3933 N   0  0  0  0  0  0  0  0  0  0  0  0
   13.9699  -16.2286   20.5156 N   0  0  0  0  0  0  0  0  0  0  0  0
   14.1886  -16.2576   21.9404 C   0  0  0  0  0  0  0  0  0  0  0  0
   13.3071  -17.2792   22.6265 C   0  0  0  0  0  0  0  0  0  0  0  0
   13.5027  -17.3209   24.1005 C   0  0  0  0  0  0  0  0  0  0  0  0
   12.5318  -18.2247   24.8203 C   0  0  2  0  0  0  0  0  0  0  0  0
   11.2375  -17.6267   24.8682 N   0  0  0  0  0  0  0  0  0  0  0  0
   12.9810  -18.6307   26.1553 C   0  0  0  0  0  0  0  0  0  0  0  0
   12.3983  -18.1316   27.1640 O   0  0  0  0  0  0  0  0  0  0  0  0
   13.9958  -19.5206   26.4208 O   0  0  0  0  0  0  0  0  0  0  0  0
  1  2  1  0
  2  3  1  0
  4  5  1  0
  4  3  1  0
  5  6  1  1
  7  8  2  0
  7  5  1  0
  9  7  1  0
 10 11  1  1
 10  9  1  0
 11 12  1  0
 12 16  1  0
 13 12  2  0
 13 14  1  0
 14 15  1  0
 16 15  2  0
 17 10  1  0
 18 17  2  0
 20 19  1  0
 20 22  1  0
 21 20  2  0
 23 22  1  0
 24 23  1  0
 25 24  1  0
 26 25  1  1
 26 27  1  0
 27 17  1  0
 28 30  1  0
 28 26  1  0
 29 28  2  0
M  END
$$$$
