MHR.pdb
     RDKit          3D

 30 30  0  0  1  0  0  0  0  0999 V2000
    8.0781  -10.8801   20.6675 C   0  0  0  0  0  0  0  0  0  0  0  0
    7.0369  -11.8600   19.5360 S   0  0  0  0  0  0  0  0  0  0  0  0
    7.4048  -13.6228   19.6967 C   0  0  0  0  0  0  0  0  0  0  0  0
    8.5957  -13.9221   20.5396 C   0  0  0  0  0  0  0  0  0  0  0  0
    8.8466  -15.3630   20.8278 C   0  0  2  0  0  0  0  0  0  0  0  0
    7.8756  -16.2796   20.3309 N   0  0  0  0  0  0  0  0  0  0  0  0
    9.1222  -15.5346   22.2918 C   0  0  0  0  0  0  0  0  0  0  0  0
   10.1764  -15.0039   22.7550 O   0  0  0  0  0  0  0  0  0  0  0  0
    8.2276  -16.2646   23.1038 N   0  0  0  0  0  0  0  0  0  0  0  0
    8.4859  -16.4710   24.5127 C   0  0  1  0  0  0  0  0  0  0  0  0
    7.2015  -16.3190   25.2795 C   0  0  0  0  0  0  0  0  0  0  0  0
    6.7537  -14.9463   25.4860 C   0  0  0  0  0  0  0  0  0  0  0  0
    7.4318  -13.8067   25.1162 C   0  0  0  0  0  0  0  0  0  0  0  0
    6.6796  -12.7664   25.5064 N   0  0  0  0  0  0  0  0  0  0  0  0
    5.5768  -13.2530   26.0960 C   0  0  0  0  0  0  0  0  0  0  0  0
    5.6040  -14.5844   26.0931 N   0  0  0  0  0  0  0  0  0  0  0  0
    9.0744  -17.7853   24.7883 C   0  0  0  0  0  0  0  0  0  0  0  0
    8.6823  -18.7824   24.1351 O   0  0  0  0  0  0  0  0  0  0  0  0
   14.7328  -16.7873   19.9979 N   0  0  0  0  0  0  0  0  0  0  0  0
   13.5855  -17.6335   20.0785 C   0  0  0  0  0  0  0  0  0  0  0  0
   12.9558  -17.9713   19.0225 N   0  0  0  0  0  0  0  0  0  0  0  0
   13.1170  -18.1225   21.3384 N   0  0  0  0  0  0  0  0  0  0  0  0
   13.8089  -17.9050   22.5844 C   0  0  0  0  0  0  0  0  0  0  0  0
   13.1514  -18.6418   23.7317 C   0  0  0  0  0  0  0  0  0  0  0  0
   11.8763  -18.0148   24.1720 C   0  0  0  0  0  0  0  0  0  0  0  0
   11.3133  -18.6027   25.4428 C   0  0  2  0  0  0  0  0  0  0  0  0
   10.0916  -17.9542   25.7922 N   0  0  0  0  0  0  0  0  0  0  0  0
   12.2576  -18.6003   26.5641 C   0  0  0  0  0  0  0  0  0  0  0  0
   13.2934  -19.3256   26.4800 O   0  0  0  0  0  0  0  0  0  0  0  0
   12.1219  -17.8697   27.7216 O   0  0  0  0  0  0  0  0  0  0  0  0
  1  2  1  0
  2  3  1  0
  4  5  1  0
  4  3  1  0
  5  6  1  1
  7  8  2  0
  7  5  1  0
  9  7  1  0
 10 11  1  1
 10  9  1  0
 11 12  1  0
 12 16  1  0
 13 12  2  0
 13 14  1  0
 14 15  1  0
 16 15  2  0
 17 10  1  0
 18 17  2  0
 20 19  1  0
 20 22  1  0
 21 20  2  0
 23 22  1  0
 24 23  1  0
 25 24  1  0
 26 25  1  6
 26 27  1  0
 27 17  1  0
 28 30  1  0
 28 26  1  0
 29 28  2  0
M  END
$$$$
