MHR.pdb
     RDKit          3D

 30 30  0  0  1  0  0  0  0  0999 V2000
    6.6255  -12.0535   18.9244 C   0  0  0  0  0  0  0  0  0  0  0  0
    8.0456  -12.9107   19.6816 S   0  0  0  0  0  0  0  0  0  0  0  0
    8.7981  -14.0591   18.5054 C   0  0  0  0  0  0  0  0  0  0  0  0
    9.9115  -14.8695   19.0726 C   0  0  0  0  0  0  0  0  0  0  0  0
   10.5349  -15.8599   18.1493 C   0  0  2  0  0  0  0  0  0  0  0  0
    9.8307  -16.1165   16.9376 N   0  0  0  0  0  0  0  0  0  0  0  0
   10.8667  -17.1077   18.9121 C   0  0  0  0  0  0  0  0  0  0  0  0
   11.0995  -16.9906   20.1529 O   0  0  0  0  0  0  0  0  0  0  0  0
   10.9130  -18.3544   18.2519 N   0  0  0  0  0  0  0  0  0  0  0  0
   11.1966  -19.5778   18.9710 C   0  0  1  0  0  0  0  0  0  0  0  0
   10.9891  -20.7512   18.0542 C   0  0  0  0  0  0  0  0  0  0  0  0
    9.6180  -20.9579   17.6016 C   0  0  0  0  0  0  0  0  0  0  0  0
    8.4970  -20.9997   18.3997 C   0  0  0  0  0  0  0  0  0  0  0  0
    7.4534  -21.2267   17.5876 N   0  0  0  0  0  0  0  0  0  0  0  0
    7.9199  -21.3211   16.3330 C   0  0  0  0  0  0  0  0  0  0  0  0
    9.2417  -21.1594   16.3213 N   0  0  0  0  0  0  0  0  0  0  0  0
   12.5590  -19.6072   19.5121 C   0  0  0  0  0  0  0  0  0  0  0  0
   13.5294  -19.4043   18.7428 O   0  0  0  0  0  0  0  0  0  0  0  0
   13.4008  -14.5498   18.3238 N   0  0  0  0  0  0  0  0  0  0  0  0
   12.5983  -14.4123   19.4968 C   0  0  0  0  0  0  0  0  0  0  0  0
   11.4639  -13.8329   19.4399 N   0  0  0  0  0  0  0  0  0  0  0  0
   13.0429  -14.9198   20.7581 N   0  0  0  0  0  0  0  0  0  0  0  0
   14.1041  -15.8856   20.8987 C   0  0  0  0  0  0  0  0  0  0  0  0
   13.5694  -17.2826   21.1307 C   0  0  0  0  0  0  0  0  0  0  0  0
   14.6374  -18.3176   21.1594 C   0  0  0  0  0  0  0  0  0  0  0  0
   14.1279  -19.7142   21.4190 C   0  0  2  0  0  0  0  0  0  0  0  0
   12.8051  -19.8644   20.9066 N   0  0  0  0  0  0  0  0  0  0  0  0
   14.2036  -20.1189   22.8259 C   0  0  0  0  0  0  0  0  0  0  0  0
   13.1312  -20.4469   23.4163 O   0  0  0  0  0  0  0  0  0  0  0  0
   15.3526  -20.1772   23.5800 O   0  0  0  0  0  0  0  0  0  0  0  0
  1  2  1  0
  2  3  1  0
  4  5  1  0
  4  3  1  0
  5  6  1  6
  7  8  2  0
  7  5  1  0
  9  7  1  0
 10 11  1  6
 10  9  1  0
 11 12  1  0
 12 16  1  0
 13 12  2  0
 13 14  1  0
 14 15  1  0
 16 15  2  0
 17 10  1  0
 18 17  2  0
 20 19  1  0
 20 22  1  0
 21 20  2  0
 23 22  1  0
 24 23  1  0
 25 24  1  0
 26 25  1  1
 26 27  1  0
 27 17  1  0
 28 30  1  0
 28 26  1  0
 29 28  2  0
M  END
$$$$
