MHR.pdb
     RDKit          3D

 30 30  0  0  1  0  0  0  0  0999 V2000
    7.3389  -11.7345   20.0176 C   0  0  0  0  0  0  0  0  0  0  0  0
    7.1008  -12.6887   18.4821 S   0  0  0  0  0  0  0  0  0  0  0  0
    8.2227  -14.1056   18.4317 C   0  0  0  0  0  0  0  0  0  0  0  0
    8.8293  -14.4495   19.7478 C   0  0  0  0  0  0  0  0  0  0  0  0
    9.6120  -15.7172   19.7951 C   0  0  2  0  0  0  0  0  0  0  0  0
    9.9121  -16.2201   21.0939 N   0  0  0  0  0  0  0  0  0  0  0  0
   10.8236  -15.5843   18.9216 C   0  0  0  0  0  0  0  0  0  0  0  0
   10.7610  -16.0773   17.7551 O   0  0  0  0  0  0  0  0  0  0  0  0
   11.9793  -14.9315   19.4019 N   0  0  0  0  0  0  0  0  0  0  0  0
   13.2363  -15.0024   18.6883 C   0  0  1  0  0  0  0  0  0  0  0  0
   13.0451  -14.4739   17.2937 C   0  0  0  0  0  0  0  0  0  0  0  0
   14.1894  -14.6287   16.4027 C   0  0  0  0  0  0  0  0  0  0  0  0
   15.4370  -15.0913   16.7561 C   0  0  0  0  0  0  0  0  0  0  0  0
   16.1899  -15.0571   15.6461 N   0  0  0  0  0  0  0  0  0  0  0  0
   15.4284  -14.5887   14.6455 C   0  0  0  0  0  0  0  0  0  0  0  0
   14.2015  -14.3210   15.0887 N   0  0  0  0  0  0  0  0  0  0  0  0
   14.3047  -14.2550   19.3588 C   0  0  0  0  0  0  0  0  0  0  0  0
   14.1896  -13.0133   19.5000 O   0  0  0  0  0  0  0  0  0  0  0  0
   10.8488  -19.0618   24.3460 N   0  0  0  0  0  0  0  0  0  0  0  0
   11.3563  -17.8838   24.9733 C   0  0  0  0  0  0  0  0  0  0  0  0
   10.7500  -17.3698   25.9702 N   0  0  0  0  0  0  0  0  0  0  0  0
   12.5518  -17.2547   24.5031 N   0  0  0  0  0  0  0  0  0  0  0  0
   13.2140  -17.6194   23.2755 C   0  0  0  0  0  0  0  0  0  0  0  0
   14.3771  -16.7012   22.9666 C   0  0  0  0  0  0  0  0  0  0  0  0
   14.3558  -16.1831   21.5724 C   0  0  0  0  0  0  0  0  0  0  0  0
   15.5335  -15.3041   21.2292 C   0  0  2  0  0  0  0  0  0  0  0  0
   15.4816  -14.9163   19.8573 N   0  0  0  0  0  0  0  0  0  0  0  0
   16.8313  -15.8964   21.5668 C   0  0  0  0  0  0  0  0  0  0  0  0
   17.4652  -15.4303   22.5603 O   0  0  0  0  0  0  0  0  0  0  0  0
   17.4370  -16.9314   20.8930 O   0  0  0  0  0  0  0  0  0  0  0  0
  1  2  1  0
  2  3  1  0
  4  5  1  0
  4  3  1  0
  5  6  1  1
  7  8  2  0
  7  5  1  0
  9  7  1  0
 10 11  1  6
 10  9  1  0
 11 12  1  0
 12 16  1  0
 13 12  2  0
 13 14  1  0
 14 15  1  0
 16 15  2  0
 17 10  1  0
 18 17  2  0
 20 19  1  0
 20 22  1  0
 21 20  2  0
 23 22  1  0
 24 23  1  0
 25 24  1  0
 26 25  1  6
 26 27  1  0
 27 17  1  0
 28 30  1  0
 28 26  1  0
 29 28  2  0
M  END
$$$$
