MHR.pdb
     RDKit          3D

 30 30  0  0  1  0  0  0  0  0999 V2000
    6.6890  -11.9256   20.0446 C   0  0  0  0  0  0  0  0  0  0  0  0
    7.1641  -12.5004   18.3807 S   0  0  0  0  0  0  0  0  0  0  0  0
    8.6680  -13.5010   18.4572 C   0  0  0  0  0  0  0  0  0  0  0  0
    8.6735  -14.5096   19.5530 C   0  0  0  0  0  0  0  0  0  0  0  0
   10.0078  -15.0561   19.9312 C   0  0  2  0  0  0  0  0  0  0  0  0
   10.8385  -15.4816   18.8548 N   0  0  0  0  0  0  0  0  0  0  0  0
    9.8320  -16.1050   20.9884 C   0  0  0  0  0  0  0  0  0  0  0  0
    8.9233  -15.9182   21.8528 O   0  0  0  0  0  0  0  0  0  0  0  0
   10.6594  -17.2485   21.0012 N   0  0  0  0  0  0  0  0  0  0  0  0
   10.5355  -18.2567   22.0320 C   0  0  1  0  0  0  0  0  0  0  0  0
   11.5762  -19.3196   21.8133 C   0  0  0  0  0  0  0  0  0  0  0  0
   11.2761  -20.2832   20.7603 C   0  0  0  0  0  0  0  0  0  0  0  0
   10.0831  -20.4006   20.0830 C   0  0  0  0  0  0  0  0  0  0  0  0
   10.2284  -21.4166   19.2189 N   0  0  0  0  0  0  0  0  0  0  0  0
   11.4697  -21.9057   19.3622 C   0  0  0  0  0  0  0  0  0  0  0  0
   12.1258  -21.2254   20.3004 N   0  0  0  0  0  0  0  0  0  0  0  0
   10.6732  -17.6992   23.3810 C   0  0  0  0  0  0  0  0  0  0  0  0
   11.6418  -16.9435   23.6369 O   0  0  0  0  0  0  0  0  0  0  0  0
    7.7280  -13.3430   27.3458 N   0  0  0  0  0  0  0  0  0  0  0  0
    6.8255  -12.9909   26.2968 C   0  0  0  0  0  0  0  0  0  0  0  0
    6.5241  -11.7700   26.0858 N   0  0  0  0  0  0  0  0  0  0  0  0
    6.2412  -13.9927   25.4595 N   0  0  0  0  0  0  0  0  0  0  0  0
    6.4940  -15.4040   25.6109 C   0  0  0  0  0  0  0  0  0  0  0  0
    7.9226  -15.7626   25.2618 C   0  0  0  0  0  0  0  0  0  0  0  0
    8.4810  -16.8371   26.1257 C   0  0  0  0  0  0  0  0  0  0  0  0
    9.8304  -17.3424   25.6770 C   0  0  2  0  0  0  0  0  0  0  0  0
    9.7207  -18.0016   24.4166 N   0  0  0  0  0  0  0  0  0  0  0  0
   10.5022  -18.1911   26.6656 C   0  0  0  0  0  0  0  0  0  0  0  0
   10.5004  -19.4452   26.4825 O   0  0  0  0  0  0  0  0  0  0  0  0
   11.1473  -17.7447   27.7955 O   0  0  0  0  0  0  0  0  0  0  0  0
  1  2  1  0
  2  3  1  0
  4  5  1  0
  4  3  1  0
  5  6  1  6
  7  8  2  0
  7  5  1  0
  9  7  1  0
 10 11  1  6
 10  9  1  0
 11 12  1  0
 12 16  1  0
 13 12  2  0
 13 14  1  0
 14 15  1  0
 16 15  2  0
 17 10  1  0
 18 17  2  0
 20 19  1  0
 20 22  1  0
 21 20  2  0
 23 22  1  0
 24 23  1  0
 25 24  1  0
 26 25  1  1
 26 27  1  0
 27 17  1  0
 28 30  1  0
 28 26  1  0
 29 28  2  0
M  END
$$$$
