MHR.pdb
     RDKit          3D

 30 30  0  0  1  0  0  0  0  0999 V2000
    8.2082  -11.6200   20.2768 C   0  0  0  0  0  0  0  0  0  0  0  0
    8.3744  -12.4198   18.6467 S   0  0  0  0  0  0  0  0  0  0  0  0
    7.0899  -13.6711   18.4166 C   0  0  0  0  0  0  0  0  0  0  0  0
    7.2515  -14.8755   19.2777 C   0  0  0  0  0  0  0  0  0  0  0  0
    8.5360  -15.6171   19.1293 C   0  0  2  0  0  0  0  0  0  0  0  0
    8.8314  -16.1035   17.8231 N   0  0  0  0  0  0  0  0  0  0  0  0
    8.6199  -16.6789   20.1850 C   0  0  0  0  0  0  0  0  0  0  0  0
    8.4063  -16.3292   21.3849 O   0  0  0  0  0  0  0  0  0  0  0  0
    8.9274  -18.0106   19.8323 N   0  0  0  0  0  0  0  0  0  0  0  0
    8.9788  -19.0607   20.8268 C   0  0  1  0  0  0  0  0  0  0  0  0
    9.2923  -20.3673   20.1522 C   0  0  0  0  0  0  0  0  0  0  0  0
    9.4070  -21.5190   21.0398 C   0  0  0  0  0  0  0  0  0  0  0  0
    8.9854  -21.5804   22.3490 C   0  0  0  0  0  0  0  0  0  0  0  0
    9.2964  -22.8061   22.7974 N   0  0  0  0  0  0  0  0  0  0  0  0
    9.8892  -23.4737   21.7957 C   0  0  0  0  0  0  0  0  0  0  0  0
    9.9659  -22.7030   20.7124 N   0  0  0  0  0  0  0  0  0  0  0  0
    9.9701  -18.7936   21.8736 C   0  0  0  0  0  0  0  0  0  0  0  0
   11.1805  -18.6874   21.5599 O   0  0  0  0  0  0  0  0  0  0  0  0
    9.0789  -13.5589   28.9995 N   0  0  0  0  0  0  0  0  0  0  0  0
    9.7388  -14.8223   29.0848 C   0  0  0  0  0  0  0  0  0  0  0  0
   10.2561  -15.2086   30.1843 N   0  0  0  0  0  0  0  0  0  0  0  0
    9.8343  -15.6828   27.9461 N   0  0  0  0  0  0  0  0  0  0  0  0
   10.5683  -15.3452   26.7520 C   0  0  0  0  0  0  0  0  0  0  0  0
   11.0473  -16.5782   26.0159 C   0  0  0  0  0  0  0  0  0  0  0  0
   10.0867  -17.0494   24.9826 C   0  0  0  0  0  0  0  0  0  0  0  0
   10.5613  -18.2577   24.2129 C   0  0  2  0  0  0  0  0  0  0  0  0
    9.5828  -18.6514   23.2523 N   0  0  0  0  0  0  0  0  0  0  0  0
   10.9551  -19.3837   25.0648 C   0  0  0  0  0  0  0  0  0  0  0  0
   12.1178  -19.3790   25.5690 O   0  0  0  0  0  0  0  0  0  0  0  0
   10.1650  -20.4663   25.3743 O   0  0  0  0  0  0  0  0  0  0  0  0
  1  2  1  0
  2  3  1  0
  4  5  1  0
  4  3  1  0
  5  6  1  6
  7  8  2  0
  7  5  1  0
  9  7  1  0
 10 11  1  6
 10  9  1  0
 11 12  1  0
 12 16  1  0
 13 12  2  0
 13 14  1  0
 14 15  1  0
 16 15  2  0
 17 10  1  0
 18 17  2  0
 20 19  1  0
 20 22  1  0
 21 20  2  0
 23 22  1  0
 24 23  1  0
 25 24  1  0
 26 25  1  1
 26 27  1  0
 27 17  1  0
 28 30  1  0
 28 26  1  0
 29 28  2  0
M  END
$$$$
