VCM.pdb
     RDKit          3D

 22 21  0  0  1  0  0  0  0  0999 V2000
   21.2239  -13.8054  -21.5374 C   0  0  0  0  0  0  0  0  0  0  0  0
   21.0692  -13.0378  -20.2536 C   0  0  2  0  0  0  0  0  0  0  0  0
   20.8080  -11.5553  -20.5219 C   0  0  0  0  0  0  0  0  0  0  0  0
   22.1927  -13.2492  -19.2916 C   0  0  2  0  0  0  0  0  0  0  0  0
   22.2448  -14.6600  -18.9612 N   0  0  0  0  0  0  0  0  0  0  0  0
   22.1129  -12.4533  -18.0654 C   0  0  0  0  0  0  0  0  0  0  0  0
   21.2890  -12.6281  -17.1407 O   0  0  0  0  0  0  0  0  0  0  0  0
   23.0301  -11.3680  -17.8500 N   0  0  0  0  0  0  0  0  0  0  0  0
   23.0188  -10.5562  -16.6795 C   0  0  1  0  0  0  0  0  0  0  0  0
   24.3501  -10.2339  -16.1050 C   0  0  0  0  0  0  0  0  0  0  0  0
   25.1500  -11.6239  -15.3020 S   0  0  0  0  0  0  0  0  0  0  0  0
   22.3092   -9.2614  -16.9771 C   0  0  0  0  0  0  0  0  0  0  0  0
   22.6218   -8.5516  -17.9619 O   0  0  0  0  0  0  0  0  0  0  0  0
   16.3166   -8.1260  -14.8657 C   0  0  0  0  0  0  0  0  0  0  0  0
   16.4643   -7.0632  -16.3347 S   0  0  0  0  0  0  0  0  0  0  0  0
   18.2126   -6.6590  -16.5568 C   0  0  0  0  0  0  0  0  0  0  0  0
   19.0892   -7.8324  -16.2575 C   0  0  0  0  0  0  0  0  0  0  0  0
   20.5672   -7.5534  -16.4976 C   0  0  2  0  0  0  0  0  0  0  0  0
   21.2553   -8.7848  -16.1582 N   0  0  0  0  0  0  0  0  0  0  0  0
   21.0242   -6.4246  -15.6486 C   0  0  0  0  0  0  0  0  0  0  0  0
   20.9236   -5.2345  -15.9925 O   0  0  0  0  0  0  0  0  0  0  0  0
   21.5929   -6.7002  -14.4089 O   0  0  0  0  0  0  0  0  0  0  0  0
  2  1  1  6
  2  3  1  0
  4  2  1  0
  4  5  1  1
  6  4  1  0
  6  8  1  0
  7  6  2  0
  9  8  1  0
  9 12  1  0
  9 10  1  6
 11 10  1  0
 12 13  2  0
 12 19  1  0
 14 15  1  0
 16 15  1  0
 17 16  1  0
 18 17  1  1
 18 20  1  0
 19 18  1  0
 20 22  1  0
 21 20  2  0
M  END
$$$$
