VCM.pdb
     RDKit          3D

 22 21  0  0  1  0  0  0  0  0999 V2000
   18.0836   -8.8301  -18.5389 C   0  0  0  0  0  0  0  0  0  0  0  0
   17.8057  -10.2431  -18.1059 C   0  0  2  0  0  0  0  0  0  0  0  0
   16.7630  -10.2857  -16.9883 C   0  0  0  0  0  0  0  0  0  0  0  0
   19.0371  -11.0155  -17.7603 C   0  0  2  0  0  0  0  0  0  0  0  0
   18.6650  -12.4067  -17.5922 N   0  0  0  0  0  0  0  0  0  0  0  0
   19.7482  -10.5431  -16.5709 C   0  0  0  0  0  0  0  0  0  0  0  0
   19.4059  -10.7616  -15.3879 O   0  0  0  0  0  0  0  0  0  0  0  0
   20.9443   -9.7588  -16.7107 N   0  0  0  0  0  0  0  0  0  0  0  0
   21.6425   -9.1948  -15.6046 C   0  0  1  0  0  0  0  0  0  0  0  0
   23.0381   -9.6665  -15.4141 C   0  0  0  0  0  0  0  0  0  0  0  0
   23.2500  -11.4289  -15.6706 S   0  0  0  0  0  0  0  0  0  0  0  0
   21.6678   -7.6952  -15.7426 C   0  0  0  0  0  0  0  0  0  0  0  0
   21.4655   -7.1328  -16.8445 O   0  0  0  0  0  0  0  0  0  0  0  0
   18.6103   -1.4006  -16.4142 C   0  0  0  0  0  0  0  0  0  0  0  0
   18.7078   -3.1972  -16.1457 S   0  0  0  0  0  0  0  0  0  0  0  0
   20.3477   -3.5737  -15.4838 C   0  0  0  0  0  0  0  0  0  0  0  0
   20.5448   -5.0454  -15.3107 C   0  0  0  0  0  0  0  0  0  0  0  0
   21.9340   -5.4088  -14.8028 C   0  0  2  0  0  0  0  0  0  0  0  0
   21.9215   -6.8498  -14.6338 N   0  0  0  0  0  0  0  0  0  0  0  0
   22.2129   -4.7145  -13.5205 C   0  0  0  0  0  0  0  0  0  0  0  0
   22.0320   -5.2438  -12.4106 O   0  0  0  0  0  0  0  0  0  0  0  0
   22.6993   -3.4113  -13.5510 O   0  0  0  0  0  0  0  0  0  0  0  0
  2  1  1  1
  2  3  1  0
  4  2  1  0
  4  5  1  1
  6  4  1  0
  6  8  1  0
  7  6  2  0
  9  8  1  0
  9 12  1  0
  9 10  1  6
 11 10  1  0
 12 13  2  0
 12 19  1  0
 14 15  1  0
 16 15  1  0
 17 16  1  0
 18 17  1  1
 18 20  1  0
 19 18  1  0
 20 22  1  0
 21 20  2  0
M  END
$$$$
