VCM.pdb
     RDKit          3D

 22 21  0  0  1  0  0  0  0  0999 V2000
   28.3622  -18.6241  -16.7247 C   0  0  0  0  0  0  0  0  0  0  0  0
   27.6807  -18.4837  -15.3917 C   0  0  2  0  0  0  0  0  0  0  0  0
   28.6952  -18.4823  -14.2476 C   0  0  0  0  0  0  0  0  0  0  0  0
   26.5837  -19.4745  -15.1737 C   0  0  2  0  0  0  0  0  0  0  0  0
   25.6616  -19.3796  -16.2886 N   0  0  0  0  0  0  0  0  0  0  0  0
   25.8568  -19.3223  -13.9120 C   0  0  0  0  0  0  0  0  0  0  0  0
   25.3979  -18.2479  -13.4655 O   0  0  0  0  0  0  0  0  0  0  0  0
   25.6205  -20.4659  -13.0743 N   0  0  0  0  0  0  0  0  0  0  0  0
   24.9121  -20.3975  -11.8404 C   0  0  1  0  0  0  0  0  0  0  0  0
   23.6126  -21.1161  -11.8018 C   0  0  0  0  0  0  0  0  0  0  0  0
   22.4868  -20.6514  -13.1183 S   0  0  0  0  0  0  0  0  0  0  0  0
   25.7812  -20.9379  -10.7354 C   0  0  0  0  0  0  0  0  0  0  0  0
   26.2440  -22.1024  -10.7727 O   0  0  0  0  0  0  0  0  0  0  0  0
   29.6510  -19.3831   -5.0234 C   0  0  0  0  0  0  0  0  0  0  0  0
   27.8854  -18.9472   -4.9802 S   0  0  0  0  0  0  0  0  0  0  0  0
   26.9870  -20.1613   -5.9743 C   0  0  0  0  0  0  0  0  0  0  0  0
   26.9153  -19.7500   -7.4097 C   0  0  0  0  0  0  0  0  0  0  0  0
   26.2118  -20.7729   -8.2922 C   0  0  2  0  0  0  0  0  0  0  0  0
   26.1165  -20.1560   -9.6020 N   0  0  0  0  0  0  0  0  0  0  0  0
   24.8698  -21.0920   -7.7437 C   0  0  0  0  0  0  0  0  0  0  0  0
   23.8340  -20.5079   -8.1054 O   0  0  0  0  0  0  0  0  0  0  0  0
   24.7546  -22.0890   -6.7800 O   0  0  0  0  0  0  0  0  0  0  0  0
  2  1  1  6
  2  3  1  0
  4  2  1  0
  4  5  1  6
  6  4  1  0
  6  8  1  0
  7  6  2  0
  9  8  1  0
  9 12  1  0
  9 10  1  6
 11 10  1  0
 12 13  2  0
 12 19  1  0
 14 15  1  0
 16 15  1  0
 17 16  1  0
 18 17  1  1
 18 20  1  0
 19 18  1  0
 20 22  1  0
 21 20  2  0
M  END
$$$$
