VCM.pdb
     RDKit          3D

 22 21  0  0  1  0  0  0  0  0999 V2000
   19.5698  -13.9510  -17.4392 C   0  0  0  0  0  0  0  0  0  0  0  0
   20.1730  -12.9129  -16.5339 C   0  0  2  0  0  0  0  0  0  0  0  0
   19.1663  -12.4394  -15.4849 C   0  0  0  0  0  0  0  0  0  0  0  0
   20.8037  -11.7740  -17.2672 C   0  0  2  0  0  0  0  0  0  0  0  0
   21.6567  -12.3215  -18.3039 N   0  0  0  0  0  0  0  0  0  0  0  0
   21.5694  -10.8493  -16.4292 C   0  0  0  0  0  0  0  0  0  0  0  0
   21.1468  -10.2921  -15.3923 O   0  0  0  0  0  0  0  0  0  0  0  0
   22.9236  -10.5156  -16.7762 N   0  0  0  0  0  0  0  0  0  0  0  0
   23.7164   -9.5948  -16.0327 C   0  0  1  0  0  0  0  0  0  0  0  0
   25.1803   -9.6612  -16.2754 C   0  0  0  0  0  0  0  0  0  0  0  0
   25.9353  -11.1986  -15.7437 S   0  0  0  0  0  0  0  0  0  0  0  0
   23.2547   -8.1909  -16.3231 C   0  0  0  0  0  0  0  0  0  0  0  0
   22.9270   -7.8323  -17.4788 O   0  0  0  0  0  0  0  0  0  0  0  0
   18.7394   -5.6987  -13.7140 C   0  0  0  0  0  0  0  0  0  0  0  0
   19.3717   -4.0365  -14.0968 S   0  0  0  0  0  0  0  0  0  0  0  0
   20.9563   -4.2251  -14.9469 C   0  0  0  0  0  0  0  0  0  0  0  0
   21.5006   -5.6088  -14.7922 C   0  0  0  0  0  0  0  0  0  0  0  0
   22.7507   -5.8581  -15.6259 C   0  0  2  0  0  0  0  0  0  0  0  0
   23.1693   -7.2096  -15.3042 N   0  0  0  0  0  0  0  0  0  0  0  0
   23.8039   -4.8685  -15.2861 C   0  0  0  0  0  0  0  0  0  0  0  0
   24.7006   -5.0924  -14.4550 O   0  0  0  0  0  0  0  0  0  0  0  0
   23.7962   -3.6304  -15.9209 O   0  0  0  0  0  0  0  0  0  0  0  0
  2  1  1  6
  2  3  1  0
  4  2  1  0
  4  5  1  6
  6  4  1  0
  6  8  1  0
  7  6  2  0
  9  8  1  0
  9 12  1  0
  9 10  1  6
 11 10  1  0
 12 13  2  0
 12 19  1  0
 14 15  1  0
 16 15  1  0
 17 16  1  0
 18 17  1  1
 18 20  1  0
 19 18  1  0
 20 22  1  0
 21 20  2  0
M  END
$$$$
