VCM.pdb
     RDKit          3D

 22 21  0  0  1  0  0  0  0  0999 V2000
   16.3203   -9.8930  -16.6166 C   0  0  0  0  0  0  0  0  0  0  0  0
   16.9486  -11.2169  -16.2792 C   0  0  2  0  0  0  0  0  0  0  0  0
   16.2022  -12.3716  -16.9482 C   0  0  0  0  0  0  0  0  0  0  0  0
   17.1309  -11.4355  -14.8123 C   0  0  2  0  0  0  0  0  0  0  0  0
   15.8260  -11.6686  -14.2250 N   0  0  0  0  0  0  0  0  0  0  0  0
   17.8076  -10.3463  -14.1058 C   0  0  0  0  0  0  0  0  0  0  0  0
   19.0202  -10.0582  -14.2102 O   0  0  0  0  0  0  0  0  0  0  0  0
   17.0700   -9.5047  -13.2040 N   0  0  0  0  0  0  0  0  0  0  0  0
   17.6454   -8.3909  -12.5276 C   0  0  1  0  0  0  0  0  0  0  0  0
   18.2970   -7.3759  -13.3946 C   0  0  0  0  0  0  0  0  0  0  0  0
   18.8581   -5.9194  -12.5112 S   0  0  0  0  0  0  0  0  0  0  0  0
   16.5847   -7.7006  -11.7110 C   0  0  0  0  0  0  0  0  0  0  0  0
   15.5297   -7.2693  -12.2332 O   0  0  0  0  0  0  0  0  0  0  0  0
   11.3095   -8.1604   -6.5674 C   0  0  0  0  0  0  0  0  0  0  0  0
   12.6856   -8.8621   -7.5283 S   0  0  0  0  0  0  0  0  0  0  0  0
   13.6765   -7.4908   -8.1660 C   0  0  0  0  0  0  0  0  0  0  0  0
   14.8231   -7.9798   -8.9912 C   0  0  0  0  0  0  0  0  0  0  0  0
   15.6786   -6.8533   -9.5563 C   0  0  2  0  0  0  0  0  0  0  0  0
   16.7292   -7.5062  -10.3147 N   0  0  0  0  0  0  0  0  0  0  0  0
   16.2366   -6.0271   -8.4564 C   0  0  0  0  0  0  0  0  0  0  0  0
   15.5333   -5.3099   -7.7243 O   0  0  0  0  0  0  0  0  0  0  0  0
   17.6086   -6.0490   -8.2256 O   0  0  0  0  0  0  0  0  0  0  0  0
  2  1  1  1
  2  3  1  0
  4  2  1  0
  4  5  1  1
  6  4  1  0
  6  8  1  0
  7  6  2  0
  9  8  1  0
  9 12  1  0
  9 10  1  6
 11 10  1  0
 12 13  2  0
 12 19  1  0
 14 15  1  0
 16 15  1  0
 17 16  1  0
 18 17  1  1
 18 20  1  0
 19 18  1  0
 20 22  1  0
 21 20  2  0
M  END
$$$$
