VCM.pdb
     RDKit          3D

 22 21  0  0  1  0  0  0  0  0999 V2000
   20.8492  -20.6177  -13.5530 C   0  0  0  0  0  0  0  0  0  0  0  0
   21.8962  -21.1323  -12.6041 C   0  0  2  0  0  0  0  0  0  0  0  0
   21.7233  -20.5316  -11.2086 C   0  0  0  0  0  0  0  0  0  0  0  0
   23.2921  -20.9823  -13.1155 C   0  0  2  0  0  0  0  0  0  0  0  0
   23.3739  -21.6411  -14.4045 N   0  0  0  0  0  0  0  0  0  0  0  0
   24.3338  -21.4984  -12.2256 C   0  0  0  0  0  0  0  0  0  0  0  0
   24.5629  -22.7077  -12.0034 O   0  0  0  0  0  0  0  0  0  0  0  0
   25.1954  -20.5888  -11.5215 N   0  0  0  0  0  0  0  0  0  0  0  0
   26.2759  -21.0159  -10.6973 C   0  0  1  0  0  0  0  0  0  0  0  0
   27.6363  -20.6906  -11.1973 C   0  0  0  0  0  0  0  0  0  0  0  0
   28.0954  -21.5819  -12.6844 S   0  0  0  0  0  0  0  0  0  0  0  0
   26.1236  -20.4158   -9.3243 C   0  0  0  0  0  0  0  0  0  0  0  0
   25.4740  -19.3602   -9.1364 O   0  0  0  0  0  0  0  0  0  0  0  0
   30.7505  -21.1929   -4.7453 C   0  0  0  0  0  0  0  0  0  0  0  0
   29.2190  -21.2697   -3.7667 S   0  0  0  0  0  0  0  0  0  0  0  0
   27.9181  -20.4302   -4.7005 C   0  0  0  0  0  0  0  0  0  0  0  0
   27.6830  -21.0849   -6.0238 C   0  0  0  0  0  0  0  0  0  0  0  0
   26.7166  -20.3120   -6.9119 C   0  0  2  0  0  0  0  0  0  0  0  0
   26.7074  -21.0157   -8.1808 N   0  0  0  0  0  0  0  0  0  0  0  0
   27.1733  -18.9087   -7.0731 C   0  0  0  0  0  0  0  0  0  0  0  0
   27.8642  -18.5274   -8.0334 O   0  0  0  0  0  0  0  0  0  0  0  0
   26.8174  -17.9688   -6.1109 O   0  0  0  0  0  0  0  0  0  0  0  0
  2  1  1  6
  2  3  1  0
  4  2  1  0
  4  5  1  6
  6  4  1  0
  6  8  1  0
  7  6  2  0
  9  8  1  0
  9 12  1  0
  9 10  1  6
 11 10  1  0
 12 13  2  0
 12 19  1  0
 14 15  1  0
 16 15  1  0
 17 16  1  0
 18 17  1  1
 18 20  1  0
 19 18  1  0
 20 22  1  0
 21 20  2  0
M  END
$$$$
