VCM.pdb
     RDKit          3D

 22 21  0  0  1  0  0  0  0  0999 V2000
   29.3821  -19.5613  -17.5936 C   0  0  0  0  0  0  0  0  0  0  0  0
   28.0731  -20.0316  -18.1651 C   0  0  2  0  0  0  0  0  0  0  0  0
   27.6131  -19.1308  -19.3119 C   0  0  0  0  0  0  0  0  0  0  0  0
   27.0071  -20.2264  -17.1363 C   0  0  2  0  0  0  0  0  0  0  0  0
   26.3531  -18.9511  -16.9169 N   0  0  0  0  0  0  0  0  0  0  0  0
   27.4735  -20.7727  -15.8606 C   0  0  0  0  0  0  0  0  0  0  0  0
   27.9677  -21.9100  -15.6971 O   0  0  0  0  0  0  0  0  0  0  0  0
   27.3815  -19.9843  -14.6625 N   0  0  0  0  0  0  0  0  0  0  0  0
   27.7290  -20.4794  -13.3728 C   0  0  1  0  0  0  0  0  0  0  0  0
   29.0378  -20.0241  -12.8381 C   0  0  0  0  0  0  0  0  0  0  0  0
   30.0469  -21.3458  -12.1662 S   0  0  0  0  0  0  0  0  0  0  0  0
   26.6584  -20.0950  -12.3857 C   0  0  0  0  0  0  0  0  0  0  0  0
   26.3890  -18.8952  -12.1417 O   0  0  0  0  0  0  0  0  0  0  0  0
   22.8552  -21.6214  -13.9814 C   0  0  0  0  0  0  0  0  0  0  0  0
   22.2466  -20.1084  -13.1753 S   0  0  0  0  0  0  0  0  0  0  0  0
   22.5629  -20.2562  -11.4012 C   0  0  0  0  0  0  0  0  0  0  0  0
   23.6164  -21.2776  -11.1151 C   0  0  0  0  0  0  0  0  0  0  0  0
   24.9419  -20.6662  -10.6800 C   0  0  2  0  0  0  0  0  0  0  0  0
   25.9055  -21.0710  -11.6864 N   0  0  0  0  0  0  0  0  0  0  0  0
   25.3224  -21.1627   -9.3337 C   0  0  0  0  0  0  0  0  0  0  0  0
   24.7428  -20.8087   -8.2927 O   0  0  0  0  0  0  0  0  0  0  0  0
   26.3747  -22.0659   -9.2204 O   0  0  0  0  0  0  0  0  0  0  0  0
  2  1  1  1
  2  3  1  0
  4  2  1  0
  4  5  1  1
  6  4  1  0
  6  8  1  0
  7  6  2  0
  9  8  1  0
  9 12  1  0
  9 10  1  1
 11 10  1  0
 12 13  2  0
 12 19  1  0
 14 15  1  0
 16 15  1  0
 17 16  1  0
 18 17  1  6
 18 20  1  0
 19 18  1  0
 20 22  1  0
 21 20  2  0
M  END
$$$$
