NYR.pdb
     RDKit          3D

 32 32  0  0  1  0  0  0  0  0999 V2000
   19.7236  -23.7924   -7.2759 N   0  0  0  0  0  0  0  0  0  0  0  0
   19.1729  -22.8181   -8.1368 C   0  0  0  0  0  0  0  0  0  0  0  0
   17.9590  -22.8633   -8.4348 O   0  0  0  0  0  0  0  0  0  0  0  0
   20.0082  -21.7381   -8.6969 C   0  0  0  0  0  0  0  0  0  0  0  0
   20.3048  -21.9775  -10.1763 C   0  0  2  0  0  0  0  0  0  0  0  0
   20.7516  -23.3266  -10.3297 N   0  0  0  0  0  0  0  0  0  0  0  0
   21.3720  -20.9965  -10.6058 C   0  0  0  0  0  0  0  0  0  0  0  0
   21.1146  -19.7717  -10.6775 O   0  0  0  0  0  0  0  0  0  0  0  0
   28.7912  -18.9480  -15.0591 O   0  0  0  0  0  0  0  0  0  0  0  0
   27.8637  -19.4587  -14.1475 C   0  0  0  0  0  0  0  0  0  0  0  0
   27.4911  -20.7960  -14.3251 C   0  0  0  0  0  0  0  0  0  0  0  0
   26.5691  -21.3396  -13.4361 C   0  0  0  0  0  0  0  0  0  0  0  0
   26.0271  -20.6031  -12.4063 C   0  0  0  0  0  0  0  0  0  0  0  0
   25.0517  -21.1985  -11.4764 C   0  0  0  0  0  0  0  0  0  0  0  0
   23.6527  -20.7606  -11.7025 C   0  0  2  0  0  0  0  0  0  0  0  0
   22.6767  -21.4503  -10.9328 N   0  0  0  0  0  0  0  0  0  0  0  0
   23.3897  -20.7731  -13.1825 C   0  0  0  0  0  0  0  0  0  0  0  0
   23.1389  -21.8386  -13.7909 O   0  0  0  0  0  0  0  0  0  0  0  0
   26.4110  -19.2887  -12.2537 C   0  0  0  0  0  0  0  0  0  0  0  0
   27.3352  -18.7045  -13.1259 C   0  0  0  0  0  0  0  0  0  0  0  0
   17.6131  -16.5455  -17.3550 N   0  0  0  0  0  0  0  0  0  0  0  0
   18.1302  -17.3840  -18.3721 C   0  0  0  0  0  0  0  0  0  0  0  0
   17.5009  -17.5604  -19.4914 N   0  0  0  0  0  0  0  0  0  0  0  0
   19.3710  -18.0358  -18.1363 N   0  0  0  0  0  0  0  0  0  0  0  0
   19.9637  -17.9346  -16.8292 C   0  0  0  0  0  0  0  0  0  0  0  0
   21.3191  -18.6524  -16.9159 C   0  0  0  0  0  0  0  0  0  0  0  0
   21.7585  -18.8672  -15.5015 C   0  0  0  0  0  0  0  0  0  0  0  0
   23.0595  -19.6233  -15.4007 C   0  0  2  0  0  0  0  0  0  0  0  0
   23.4104  -19.5887  -13.9638 N   0  0  0  0  0  0  0  0  0  0  0  0
   24.0898  -18.8889  -16.1788 C   0  0  0  0  0  0  0  0  0  0  0  0
   24.7280  -17.9049  -15.7799 O   0  0  0  0  0  0  0  0  0  0  0  0
   24.3749  -19.3366  -17.4780 O   0  0  0  0  0  0  0  0  0  0  0  0
  2  1  1  0
  3  2  2  0
  4  2  1  0
  5  6  1  1
  5  4  1  0
  7  5  1  0
  8  7  2  0
  9 10  1  0
 10 20  2  0
 10 11  1  0
 11 12  2  0
 12 13  1  0
 13 14  1  0
 15 14  1  6
 15 16  1  0
 16  7  1  0
 17 29  1  0
 17 15  1  0
 18 17  2  0
 19 13  2  0
 20 19  1  0
 21 22  1  0
 22 24  1  0
 22 23  2  0
 24 25  1  0
 26 25  1  0
 27 26  1  0
 28 27  1  1
 28 29  1  0
 30 32  1  0
 30 28  1  0
 31 30  2  0
M  END
$$$$
