NYR.pdb
     RDKit          3D

 32 32  0  0  1  0  0  0  0  0999 V2000
   23.2589  -13.5734  -18.7058 N   0  0  0  0  0  0  0  0  0  0  0  0
   21.9268  -13.3721  -18.2829 C   0  0  0  0  0  0  0  0  0  0  0  0
   21.0082  -14.0751  -18.7586 O   0  0  0  0  0  0  0  0  0  0  0  0
   21.5939  -12.3399  -17.2821 C   0  0  0  0  0  0  0  0  0  0  0  0
   22.8392  -11.5711  -16.8436 C   0  0  2  0  0  0  0  0  0  0  0  0
   23.6455  -12.4431  -16.0482 N   0  0  0  0  0  0  0  0  0  0  0  0
   22.3909  -10.3654  -16.0493 C   0  0  0  0  0  0  0  0  0  0  0  0
   21.5759  -10.4957  -15.1058 O   0  0  0  0  0  0  0  0  0  0  0  0
   21.3802   -1.6737  -14.4502 O   0  0  0  0  0  0  0  0  0  0  0  0
   21.8828   -2.9415  -14.7536 C   0  0  0  0  0  0  0  0  0  0  0  0
   22.2635   -3.1560  -16.0831 C   0  0  0  0  0  0  0  0  0  0  0  0
   22.7687   -4.4071  -16.4232 C   0  0  0  0  0  0  0  0  0  0  0  0
   22.8990   -5.4175  -15.4965 C   0  0  0  0  0  0  0  0  0  0  0  0
   23.4361   -6.7352  -15.8781 C   0  0  0  0  0  0  0  0  0  0  0  0
   22.4411   -7.8340  -15.8261 C   0  0  2  0  0  0  0  0  0  0  0  0
   22.8871   -9.0727  -16.3623 N   0  0  0  0  0  0  0  0  0  0  0  0
   21.1558   -7.3328  -16.4233 C   0  0  0  0  0  0  0  0  0  0  0  0
   20.8812   -7.5209  -17.6306 O   0  0  0  0  0  0  0  0  0  0  0  0
   22.5168   -5.1801  -14.1942 C   0  0  0  0  0  0  0  0  0  0  0  0
   22.0042   -3.9363  -13.8115 C   0  0  0  0  0  0  0  0  0  0  0  0
   14.3495  -10.4536  -15.3110 N   0  0  0  0  0  0  0  0  0  0  0  0
   14.9781  -10.4490  -16.5798 C   0  0  0  0  0  0  0  0  0  0  0  0
   14.8444  -11.4380  -17.4070 N   0  0  0  0  0  0  0  0  0  0  0  0
   15.7683   -9.3214  -16.9318 N   0  0  0  0  0  0  0  0  0  0  0  0
   15.7185   -8.1565  -16.0887 C   0  0  0  0  0  0  0  0  0  0  0  0
   16.6445   -7.1169  -16.7383 C   0  0  0  0  0  0  0  0  0  0  0  0
   18.0089   -7.3821  -16.1835 C   0  0  0  0  0  0  0  0  0  0  0  0
   18.9188   -6.1825  -16.2676 C   0  0  2  0  0  0  0  0  0  0  0  0
   20.1920   -6.6261  -15.6582 N   0  0  0  0  0  0  0  0  0  0  0  0
   18.3326   -5.0912  -15.4481 C   0  0  0  0  0  0  0  0  0  0  0  0
   18.2891   -5.0638  -14.2103 O   0  0  0  0  0  0  0  0  0  0  0  0
   17.7770   -3.9913  -16.1196 O   0  0  0  0  0  0  0  0  0  0  0  0
  2  1  1  0
  3  2  2  0
  4  2  1  0
  5  6  1  1
  5  4  1  0
  7  5  1  0
  8  7  2  0
  9 10  1  0
 10 20  2  0
 10 11  1  0
 11 12  2  0
 12 13  1  0
 13 14  1  0
 15 14  1  6
 15 16  1  0
 16  7  1  0
 17 29  1  0
 17 15  1  0
 18 17  2  0
 19 13  2  0
 20 19  1  0
 21 22  1  0
 22 24  1  0
 22 23  2  0
 24 25  1  0
 26 25  1  0
 27 26  1  0
 28 27  1  1
 28 29  1  0
 30 32  1  0
 30 28  1  0
 31 30  2  0
M  END
$$$$
