NYR.pdb
     RDKit          3D

 32 32  0  0  1  0  0  0  0  0999 V2000
   26.6365  -22.5610  -16.3251 N   0  0  0  0  0  0  0  0  0  0  0  0
   26.5631  -22.3513  -14.9307 C   0  0  0  0  0  0  0  0  0  0  0  0
   27.5477  -22.6180  -14.2069 O   0  0  0  0  0  0  0  0  0  0  0  0
   25.3373  -21.8189  -14.3047 C   0  0  0  0  0  0  0  0  0  0  0  0
   24.2626  -21.5275  -15.3508 C   0  0  2  0  0  0  0  0  0  0  0  0
   24.5996  -20.3040  -16.0085 N   0  0  0  0  0  0  0  0  0  0  0  0
   22.9330  -21.4172  -14.6395 C   0  0  0  0  0  0  0  0  0  0  0  0
   22.7848  -20.6050  -13.6961 O   0  0  0  0  0  0  0  0  0  0  0  0
   21.3602  -15.8743  -15.6337 O   0  0  0  0  0  0  0  0  0  0  0  0
   20.9600  -17.2128  -15.6205 C   0  0  0  0  0  0  0  0  0  0  0  0
   20.0945  -17.5914  -14.5880 C   0  0  0  0  0  0  0  0  0  0  0  0
   19.6743  -18.9171  -14.5423 C   0  0  0  0  0  0  0  0  0  0  0  0
   20.0848  -19.8448  -15.4737 C   0  0  0  0  0  0  0  0  0  0  0  0
   19.6281  -21.2438  -15.4065 C   0  0  0  0  0  0  0  0  0  0  0  0
   20.4926  -22.1253  -14.5845 C   0  0  2  0  0  0  0  0  0  0  0  0
   21.8380  -22.2313  -15.0311 N   0  0  0  0  0  0  0  0  0  0  0  0
   19.7942  -23.4461  -14.4184 C   0  0  0  0  0  0  0  0  0  0  0  0
   20.1543  -24.4591  -15.0606 O   0  0  0  0  0  0  0  0  0  0  0  0
   20.9371  -19.4459  -16.4801 C   0  0  0  0  0  0  0  0  0  0  0  0
   21.3827  -18.1226  -16.5615 C   0  0  0  0  0  0  0  0  0  0  0  0
   17.3849  -23.8253   -8.5717 N   0  0  0  0  0  0  0  0  0  0  0  0
   18.6696  -24.3602   -8.3103 C   0  0  0  0  0  0  0  0  0  0  0  0
   19.4760  -23.8048   -7.4610 N   0  0  0  0  0  0  0  0  0  0  0  0
   19.0605  -25.5351   -9.0078 N   0  0  0  0  0  0  0  0  0  0  0  0
   18.1221  -26.1411   -9.9146 C   0  0  0  0  0  0  0  0  0  0  0  0
   18.6709  -25.8946  -11.3282 C   0  0  0  0  0  0  0  0  0  0  0  0
   17.6175  -25.1086  -12.0438 C   0  0  0  0  0  0  0  0  0  0  0  0
   17.9407  -24.8857  -13.4999 C   0  0  2  0  0  0  0  0  0  0  0  0
   18.6989  -23.6157  -13.5322 N   0  0  0  0  0  0  0  0  0  0  0  0
   16.6654  -24.7189  -14.2428 C   0  0  0  0  0  0  0  0  0  0  0  0
   16.1589  -23.6369  -14.5704 O   0  0  0  0  0  0  0  0  0  0  0  0
   15.9636  -25.8770  -14.6115 O   0  0  0  0  0  0  0  0  0  0  0  0
  2  1  1  0
  3  2  2  0
  4  2  1  0
  5  6  1  1
  5  4  1  0
  7  5  1  0
  8  7  2  0
  9 10  1  0
 10 20  2  0
 10 11  1  0
 11 12  2  0
 12 13  1  0
 13 14  1  0
 15 14  1  6
 15 16  1  0
 16  7  1  0
 17 29  1  0
 17 15  1  0
 18 17  2  0
 19 13  2  0
 20 19  1  0
 21 22  1  0
 22 24  1  0
 22 23  2  0
 24 25  1  0
 26 25  1  0
 27 26  1  0
 28 27  1  1
 28 29  1  0
 30 32  1  0
 30 28  1  0
 31 30  2  0
M  END
$$$$
