NYR.pdb
     RDKit          3D

 32 32  0  0  1  0  0  0  0  0999 V2000
   30.1400  -21.2451  -18.6453 N   0  0  0  0  0  0  0  0  0  0  0  0
   28.8315  -20.7691  -18.8798 C   0  0  0  0  0  0  0  0  0  0  0  0
   28.6095  -20.0030  -19.8432 O   0  0  0  0  0  0  0  0  0  0  0  0
   27.7108  -21.1609  -18.0032 C   0  0  0  0  0  0  0  0  0  0  0  0
   28.1451  -22.2147  -16.9859 C   0  0  2  0  0  0  0  0  0  0  0  0
   28.1301  -23.4905  -17.6303 N   0  0  0  0  0  0  0  0  0  0  0  0
   27.1748  -22.1765  -15.8271 C   0  0  0  0  0  0  0  0  0  0  0  0
   26.2002  -22.9640  -15.7908 O   0  0  0  0  0  0  0  0  0  0  0  0
   24.2177  -20.4986   -7.6715 O   0  0  0  0  0  0  0  0  0  0  0  0
   24.9453  -20.4695   -8.8639 C   0  0  0  0  0  0  0  0  0  0  0  0
   25.9363  -21.4468   -9.0100 C   0  0  0  0  0  0  0  0  0  0  0  0
   26.6817  -21.4493  -10.1848 C   0  0  0  0  0  0  0  0  0  0  0  0
   26.4681  -20.5281  -11.1860 C   0  0  0  0  0  0  0  0  0  0  0  0
   27.2693  -20.5484  -12.4222 C   0  0  0  0  0  0  0  0  0  0  0  0
   26.5672  -21.1329  -13.5907 C   0  0  2  0  0  0  0  0  0  0  0  0
   27.3558  -21.2492  -14.7676 N   0  0  0  0  0  0  0  0  0  0  0  0
   25.2776  -20.3854  -13.7862 C   0  0  0  0  0  0  0  0  0  0  0  0
   25.2547  -19.2551  -14.3249 O   0  0  0  0  0  0  0  0  0  0  0  0
   25.4861  -19.5766  -11.0171 C   0  0  0  0  0  0  0  0  0  0  0  0
   24.7147  -19.5398   -9.8510 C   0  0  0  0  0  0  0  0  0  0  0  0
   19.3410  -21.3412  -18.9418 N   0  0  0  0  0  0  0  0  0  0  0  0
   19.4185  -19.9367  -18.7785 C   0  0  0  0  0  0  0  0  0  0  0  0
   18.6120  -19.1356  -19.4012 N   0  0  0  0  0  0  0  0  0  0  0  0
   20.4123  -19.4179  -17.9050 N   0  0  0  0  0  0  0  0  0  0  0  0
   21.3070  -20.3393  -17.2565 C   0  0  0  0  0  0  0  0  0  0  0  0
   21.3252  -19.9465  -15.7714 C   0  0  0  0  0  0  0  0  0  0  0  0
   22.6167  -20.4706  -15.2263 C   0  0  0  0  0  0  0  0  0  0  0  0
   22.7618  -20.2423  -13.7427 C   0  0  2  0  0  0  0  0  0  0  0  0
   24.0270  -20.9155  -13.3752 N   0  0  0  0  0  0  0  0  0  0  0  0
   21.6284  -20.9098  -13.0527 C   0  0  0  0  0  0  0  0  0  0  0  0
   20.5568  -20.3716  -12.7417 O   0  0  0  0  0  0  0  0  0  0  0  0
   21.7694  -22.2656  -12.7185 O   0  0  0  0  0  0  0  0  0  0  0  0
  2  1  1  0
  3  2  2  0
  4  2  1  0
  5  6  1  6
  5  4  1  0
  7  5  1  0
  8  7  2  0
  9 10  1  0
 10 20  2  0
 10 11  1  0
 11 12  2  0
 12 13  1  0
 13 14  1  0
 15 14  1  1
 15 16  1  0
 16  7  1  0
 17 29  1  0
 17 15  1  0
 18 17  2  0
 19 13  2  0
 20 19  1  0
 21 22  1  0
 22 24  1  0
 22 23  2  0
 24 25  1  0
 26 25  1  0
 27 26  1  0
 28 27  1  6
 28 29  1  0
 30 32  1  0
 30 28  1  0
 31 30  2  0
M  END
$$$$
