NYR.pdb
     RDKit          3D

 32 32  0  0  1  0  0  0  0  0999 V2000
   28.4745  -18.2550  -20.1728 N   0  0  0  0  0  0  0  0  0  0  0  0
   29.0645  -17.8136  -18.9684 C   0  0  0  0  0  0  0  0  0  0  0  0
   29.9527  -16.9334  -18.9945 O   0  0  0  0  0  0  0  0  0  0  0  0
   28.6506  -18.3751  -17.6679 C   0  0  0  0  0  0  0  0  0  0  0  0
   27.6331  -19.5003  -17.8487 C   0  0  2  0  0  0  0  0  0  0  0  0
   26.4215  -18.9307  -18.3492 N   0  0  0  0  0  0  0  0  0  0  0  0
   27.4141  -20.1556  -16.5039 C   0  0  0  0  0  0  0  0  0  0  0  0
   28.3873  -20.5955  -15.8476 O   0  0  0  0  0  0  0  0  0  0  0  0
   24.5732  -20.8505   -8.3505 O   0  0  0  0  0  0  0  0  0  0  0  0
   25.0544  -20.5953   -9.6371 C   0  0  0  0  0  0  0  0  0  0  0  0
   24.1941  -19.9004  -10.4947 C   0  0  0  0  0  0  0  0  0  0  0  0
   24.6391  -19.6280  -11.7846 C   0  0  0  0  0  0  0  0  0  0  0  0
   25.8835  -20.0206  -12.2249 C   0  0  0  0  0  0  0  0  0  0  0  0
   26.3347  -19.7222  -13.5953 C   0  0  0  0  0  0  0  0  0  0  0  0
   25.7572  -20.6125  -14.6315 C   0  0  2  0  0  0  0  0  0  0  0  0
   26.1050  -20.2803  -15.9692 N   0  0  0  0  0  0  0  0  0  0  0  0
   24.2773  -20.7176  -14.3891 C   0  0  0  0  0  0  0  0  0  0  0  0
   23.4850  -19.8410  -14.8041 O   0  0  0  0  0  0  0  0  0  0  0  0
   26.7110  -20.7034  -11.3605 C   0  0  0  0  0  0  0  0  0  0  0  0
   26.3015  -20.9970  -10.0557 C   0  0  0  0  0  0  0  0  0  0  0  0
   21.5858  -17.4900  -16.5262 N   0  0  0  0  0  0  0  0  0  0  0  0
   21.7803  -18.5275  -17.4700 C   0  0  0  0  0  0  0  0  0  0  0  0
   22.5385  -18.3666  -18.5089 N   0  0  0  0  0  0  0  0  0  0  0  0
   21.1182  -19.7657  -17.2501 N   0  0  0  0  0  0  0  0  0  0  0  0
   20.2418  -19.8851  -16.1153 C   0  0  0  0  0  0  0  0  0  0  0  0
   20.6294  -21.1934  -15.4094 C   0  0  0  0  0  0  0  0  0  0  0  0
   21.6713  -20.8205  -14.4019 C   0  0  0  0  0  0  0  0  0  0  0  0
   22.2376  -22.0146  -13.6756 C   0  0  2  0  0  0  0  0  0  0  0  0
   23.7024  -21.8064  -13.6836 N   0  0  0  0  0  0  0  0  0  0  0  0
   21.9079  -23.2361  -14.4536 C   0  0  0  0  0  0  0  0  0  0  0  0
   22.7251  -23.9583  -15.0412 O   0  0  0  0  0  0  0  0  0  0  0  0
   20.5597  -23.6166  -14.5390 O   0  0  0  0  0  0  0  0  0  0  0  0
  2  1  1  0
  3  2  2  0
  4  2  1  0
  5  6  1  1
  5  4  1  0
  7  5  1  0
  8  7  2  0
  9 10  1  0
 10 20  2  0
 10 11  1  0
 11 12  2  0
 12 13  1  0
 13 14  1  0
 15 14  1  1
 15 16  1  0
 16  7  1  0
 17 29  1  0
 17 15  1  0
 18 17  2  0
 19 13  2  0
 20 19  1  0
 21 22  1  0
 22 24  1  0
 22 23  2  0
 24 25  1  0
 26 25  1  0
 27 26  1  0
 28 27  1  6
 28 29  1  0
 30 32  1  0
 30 28  1  0
 31 30  2  0
M  END
$$$$
