NYR.pdb
     RDKit          3D

 32 32  0  0  1  0  0  0  0  0999 V2000
   29.2047  -17.8354  -15.7605 N   0  0  0  0  0  0  0  0  0  0  0  0
   27.8819  -18.0047  -16.2241 C   0  0  0  0  0  0  0  0  0  0  0  0
   27.4501  -17.2882  -17.1540 O   0  0  0  0  0  0  0  0  0  0  0  0
   26.9907  -19.0189  -15.6282 C   0  0  0  0  0  0  0  0  0  0  0  0
   27.7120  -19.8252  -14.5495 C   0  0  2  0  0  0  0  0  0  0  0  0
   28.7026  -20.6360  -15.1853 N   0  0  0  0  0  0  0  0  0  0  0  0
   26.6864  -20.6756  -13.8347 C   0  0  0  0  0  0  0  0  0  0  0  0
   26.4356  -21.8364  -14.2358 O   0  0  0  0  0  0  0  0  0  0  0  0
   29.2045  -20.4545   -7.1243 O   0  0  0  0  0  0  0  0  0  0  0  0
   28.0790  -20.3743   -7.9483 C   0  0  0  0  0  0  0  0  0  0  0  0
   28.1344  -21.0960   -9.1460 C   0  0  0  0  0  0  0  0  0  0  0  0
   27.0317  -21.0401   -9.9927 C   0  0  0  0  0  0  0  0  0  0  0  0
   25.9101  -20.3039   -9.6818 C   0  0  0  0  0  0  0  0  0  0  0  0
   24.7534  -20.2582  -10.5931 C   0  0  0  0  0  0  0  0  0  0  0  0
   25.0113  -20.8450  -11.9306 C   0  0  2  0  0  0  0  0  0  0  0  0
   25.9961  -20.1698  -12.7020 N   0  0  0  0  0  0  0  0  0  0  0  0
   23.6922  -21.0158  -12.6312 C   0  0  0  0  0  0  0  0  0  0  0  0
   23.1164  -20.0491  -13.1810 O   0  0  0  0  0  0  0  0  0  0  0  0
   25.8813  -19.6025   -8.4963 C   0  0  0  0  0  0  0  0  0  0  0  0
   26.9690  -19.6324   -7.6176 C   0  0  0  0  0  0  0  0  0  0  0  0
   23.0549  -25.5411  -17.4159 N   0  0  0  0  0  0  0  0  0  0  0  0
   23.9953  -26.2657  -16.6441 C   0  0  0  0  0  0  0  0  0  0  0  0
   25.1048  -26.6977  -17.1565 N   0  0  0  0  0  0  0  0  0  0  0  0
   23.6928  -26.5115  -15.2774 N   0  0  0  0  0  0  0  0  0  0  0  0
   22.5010  -25.9281  -14.7210 C   0  0  0  0  0  0  0  0  0  0  0  0
   22.8340  -24.4543  -14.4434 C   0  0  0  0  0  0  0  0  0  0  0  0
   21.6438  -23.8942  -13.7298 C   0  0  0  0  0  0  0  0  0  0  0  0
   21.7664  -22.4161  -13.4569 C   0  0  2  0  0  0  0  0  0  0  0  0
   23.0338  -22.2705  -12.7076 N   0  0  0  0  0  0  0  0  0  0  0  0
   20.6312  -22.0034  -12.5926 C   0  0  0  0  0  0  0  0  0  0  0  0
   20.6612  -21.9156  -11.3572 O   0  0  0  0  0  0  0  0  0  0  0  0
   19.4147  -21.6826  -13.2146 O   0  0  0  0  0  0  0  0  0  0  0  0
  2  1  1  0
  3  2  2  0
  4  2  1  0
  5  6  1  6
  5  4  1  0
  7  5  1  0
  8  7  2  0
  9 10  1  0
 10 20  2  0
 10 11  1  0
 11 12  2  0
 12 13  1  0
 13 14  1  0
 15 14  1  1
 15 16  1  0
 16  7  1  0
 17 29  1  0
 17 15  1  0
 18 17  2  0
 19 13  2  0
 20 19  1  0
 21 22  1  0
 22 24  1  0
 22 23  2  0
 24 25  1  0
 26 25  1  0
 27 26  1  0
 28 27  1  1
 28 29  1  0
 30 32  1  0
 30 28  1  0
 31 30  2  0
M  END
$$$$
