NYR.pdb
     RDKit          3D

 32 32  0  0  1  0  0  0  0  0999 V2000
   21.8918  -15.5941  -20.9054 N   0  0  0  0  0  0  0  0  0  0  0  0
   22.6844  -14.5073  -20.4760 C   0  0  0  0  0  0  0  0  0  0  0  0
   23.8487  -14.3730  -20.9130 O   0  0  0  0  0  0  0  0  0  0  0  0
   22.1620  -13.5180  -19.5135 C   0  0  0  0  0  0  0  0  0  0  0  0
   23.0051  -13.4855  -18.2398 C   0  0  2  0  0  0  0  0  0  0  0  0
   22.9655  -14.7844  -17.6447 N   0  0  0  0  0  0  0  0  0  0  0  0
   22.4186  -12.4428  -17.3154 C   0  0  0  0  0  0  0  0  0  0  0  0
   21.2855  -12.6127  -16.8066 O   0  0  0  0  0  0  0  0  0  0  0  0
   22.2574   -4.9495  -12.5325 O   0  0  0  0  0  0  0  0  0  0  0  0
   22.6306   -6.1138  -13.2086 C   0  0  0  0  0  0  0  0  0  0  0  0
   23.2636   -5.9378  -14.4443 C   0  0  0  0  0  0  0  0  0  0  0  0
   23.6498   -7.0749  -15.1470 C   0  0  0  0  0  0  0  0  0  0  0  0
   23.4262   -8.3438  -14.6608 C   0  0  0  0  0  0  0  0  0  0  0  0
   23.8430   -9.5346  -15.4216 C   0  0  0  0  0  0  0  0  0  0  0  0
   22.7383  -10.2087  -16.1464 C   0  0  2  0  0  0  0  0  0  0  0  0
   23.1434  -11.2602  -17.0129 N   0  0  0  0  0  0  0  0  0  0  0  0
   21.8993   -9.1531  -16.8111 C   0  0  0  0  0  0  0  0  0  0  0  0
   22.2801   -8.5819  -17.8585 O   0  0  0  0  0  0  0  0  0  0  0  0
   22.8010   -8.4892  -13.4416 C   0  0  0  0  0  0  0  0  0  0  0  0
   22.3971   -7.3718  -12.7038 C   0  0  0  0  0  0  0  0  0  0  0  0
   13.3365   -8.7604  -17.0648 N   0  0  0  0  0  0  0  0  0  0  0  0
   13.6563   -7.5484  -17.7236 C   0  0  0  0  0  0  0  0  0  0  0  0
   12.7460   -6.8302  -18.3029 N   0  0  0  0  0  0  0  0  0  0  0  0
   15.0147   -7.1307  -17.7352 N   0  0  0  0  0  0  0  0  0  0  0  0
   15.9974   -7.9682  -17.1003 C   0  0  0  0  0  0  0  0  0  0  0  0
   17.3621   -7.3266  -17.3937 C   0  0  0  0  0  0  0  0  0  0  0  0
   18.3785   -8.2168  -16.7503 C   0  0  0  0  0  0  0  0  0  0  0  0
   19.7960   -7.7813  -17.0247 C   0  0  2  0  0  0  0  0  0  0  0  0
   20.6411   -8.7505  -16.2929 N   0  0  0  0  0  0  0  0  0  0  0  0
   19.9890   -6.4251  -16.4506 C   0  0  0  0  0  0  0  0  0  0  0  0
   19.8675   -6.1252  -15.2547 O   0  0  0  0  0  0  0  0  0  0  0  0
   20.3390   -5.3851  -17.3255 O   0  0  0  0  0  0  0  0  0  0  0  0
  2  1  1  0
  3  2  2  0
  4  2  1  0
  5  6  1  1
  5  4  1  0
  7  5  1  0
  8  7  2  0
  9 10  1  0
 10 20  2  0
 10 11  1  0
 11 12  2  0
 12 13  1  0
 13 14  1  0
 15 14  1  6
 15 16  1  0
 16  7  1  0
 17 29  1  0
 17 15  1  0
 18 17  2  0
 19 13  2  0
 20 19  1  0
 21 22  1  0
 22 24  1  0
 22 23  2  0
 24 25  1  0
 26 25  1  0
 27 26  1  0
 28 27  1  1
 28 29  1  0
 30 32  1  0
 30 28  1  0
 31 30  2  0
M  END
$$$$
