NYR.pdb
     RDKit          3D

 32 32  0  0  1  0  0  0  0  0999 V2000
   27.5339  -14.8188  -14.9572 N   0  0  0  0  0  0  0  0  0  0  0  0
   26.1549  -15.1100  -15.0416 C   0  0  0  0  0  0  0  0  0  0  0  0
   25.3128  -14.2130  -14.8169 O   0  0  0  0  0  0  0  0  0  0  0  0
   25.6832  -16.4636  -15.3928 C   0  0  0  0  0  0  0  0  0  0  0  0
   26.8445  -17.4536  -15.4657 C   0  0  2  0  0  0  0  0  0  0  0  0
   27.6305  -17.1362  -16.6166 N   0  0  0  0  0  0  0  0  0  0  0  0
   26.2675  -18.8474  -15.5656 C   0  0  0  0  0  0  0  0  0  0  0  0
   25.7356  -19.2379  -16.6314 O   0  0  0  0  0  0  0  0  0  0  0  0
   25.0193  -20.3081   -8.1031 O   0  0  0  0  0  0  0  0  0  0  0  0
   25.4115  -20.6702   -9.3943 C   0  0  0  0  0  0  0  0  0  0  0  0
   24.6044  -21.6086  -10.0474 C   0  0  0  0  0  0  0  0  0  0  0  0
   24.9637  -21.9939  -11.3352 C   0  0  0  0  0  0  0  0  0  0  0  0
   26.0747  -21.4807  -11.9668 C   0  0  0  0  0  0  0  0  0  0  0  0
   26.4374  -21.9028  -13.3309 C   0  0  0  0  0  0  0  0  0  0  0  0
   25.8431  -21.0672  -14.4026 C   0  0  2  0  0  0  0  0  0  0  0  0
   26.3210  -19.7295  -14.4545 N   0  0  0  0  0  0  0  0  0  0  0  0
   24.3469  -21.1825  -14.3131 C   0  0  0  0  0  0  0  0  0  0  0  0
   23.6520  -20.2707  -13.8090 O   0  0  0  0  0  0  0  0  0  0  0  0
   26.8523  -20.5582  -11.3014 C   0  0  0  0  0  0  0  0  0  0  0  0
   26.5257  -20.1445  -10.0059 C   0  0  0  0  0  0  0  0  0  0  0  0
   18.8865  -22.8185   -9.6424 N   0  0  0  0  0  0  0  0  0  0  0  0
   19.1054  -23.7222  -10.7103 C   0  0  0  0  0  0  0  0  0  0  0  0
   18.8893  -24.9934  -10.5788 N   0  0  0  0  0  0  0  0  0  0  0  0
   19.5724  -23.1980  -11.9461 N   0  0  0  0  0  0  0  0  0  0  0  0
   19.8944  -21.7977  -12.0216 C   0  0  0  0  0  0  0  0  0  0  0  0
   20.2325  -21.5139  -13.4931 C   0  0  0  0  0  0  0  0  0  0  0  0
   21.7212  -21.6248  -13.5987 C   0  0  0  0  0  0  0  0  0  0  0  0
   22.1685  -22.3277  -14.8557 C   0  0  2  0  0  0  0  0  0  0  0  0
   23.6466  -22.3202  -14.7914 N   0  0  0  0  0  0  0  0  0  0  0  0
   21.7206  -21.5280  -16.0245 C   0  0  0  0  0  0  0  0  0  0  0  0
   20.7181  -21.7599  -16.7143 O   0  0  0  0  0  0  0  0  0  0  0  0
   22.4888  -20.4118  -16.3900 O   0  0  0  0  0  0  0  0  0  0  0  0
  2  1  1  0
  3  2  2  0
  4  2  1  0
  5  6  1  6
  5  4  1  0
  7  5  1  0
  8  7  2  0
  9 10  1  0
 10 20  2  0
 10 11  1  0
 11 12  2  0
 12 13  1  0
 13 14  1  0
 15 14  1  1
 15 16  1  0
 16  7  1  0
 17 29  1  0
 17 15  1  0
 18 17  2  0
 19 13  2  0
 20 19  1  0
 21 22  1  0
 22 24  1  0
 22 23  2  0
 24 25  1  0
 26 25  1  0
 27 26  1  0
 28 27  1  1
 28 29  1  0
 30 32  1  0
 30 28  1  0
 31 30  2  0
M  END
$$$$
