NYR.pdb
     RDKit          3D

 32 32  0  0  1  0  0  0  0  0999 V2000
   24.2331  -16.5404  -21.0416 N   0  0  0  0  0  0  0  0  0  0  0  0
   24.7247  -16.5205  -19.7182 C   0  0  0  0  0  0  0  0  0  0  0  0
   25.1538  -15.4529  -19.2278 O   0  0  0  0  0  0  0  0  0  0  0  0
   24.7426  -17.7450  -18.8946 C   0  0  0  0  0  0  0  0  0  0  0  0
   26.1718  -18.1583  -18.5471 C   0  0  2  0  0  0  0  0  0  0  0  0
   26.7342  -18.8194  -19.6827 N   0  0  0  0  0  0  0  0  0  0  0  0
   26.1158  -19.0804  -17.3503 C   0  0  0  0  0  0  0  0  0  0  0  0
   25.6000  -20.2184  -17.4510 O   0  0  0  0  0  0  0  0  0  0  0  0
   26.7982  -21.5486   -8.8566 O   0  0  0  0  0  0  0  0  0  0  0  0
   26.9029  -20.8348  -10.0530 C   0  0  0  0  0  0  0  0  0  0  0  0
   27.7758  -21.3584  -11.0134 C   0  0  0  0  0  0  0  0  0  0  0  0
   27.9064  -20.6745  -12.2181 C   0  0  0  0  0  0  0  0  0  0  0  0
   27.2081  -19.5164  -12.4786 C   0  0  0  0  0  0  0  0  0  0  0  0
   27.3615  -18.8076  -13.7610 C   0  0  0  0  0  0  0  0  0  0  0  0
   26.5050  -19.3343  -14.8514 C   0  0  2  0  0  0  0  0  0  0  0  0
   26.6462  -18.6686  -16.0995 N   0  0  0  0  0  0  0  0  0  0  0  0
   25.0905  -19.4015  -14.3471 C   0  0  0  0  0  0  0  0  0  0  0  0
   24.3881  -18.3706  -14.2372 O   0  0  0  0  0  0  0  0  0  0  0  0
   26.3552  -19.0222  -11.5160 C   0  0  0  0  0  0  0  0  0  0  0  0
   26.1955  -19.6796  -10.2919 C   0  0  0  0  0  0  0  0  0  0  0  0
   20.4564  -19.5445  -18.3867 N   0  0  0  0  0  0  0  0  0  0  0  0
   20.7476  -18.6543  -17.3247 C   0  0  0  0  0  0  0  0  0  0  0  0
   20.9434  -17.3901  -17.5331 N   0  0  0  0  0  0  0  0  0  0  0  0
   20.8206  -19.1840  -16.0079 N   0  0  0  0  0  0  0  0  0  0  0  0
   20.6464  -20.6005  -15.8256 C   0  0  0  0  0  0  0  0  0  0  0  0
   20.8831  -20.8733  -14.3324 C   0  0  0  0  0  0  0  0  0  0  0  0
   22.2673  -21.4337  -14.2342 C   0  0  0  0  0  0  0  0  0  0  0  0
   23.1563  -20.6402  -13.3098 C   0  0  2  0  0  0  0  0  0  0  0  0
   24.4792  -20.6260  -13.9721 N   0  0  0  0  0  0  0  0  0  0  0  0
   23.2578  -21.3674  -12.0187 C   0  0  0  0  0  0  0  0  0  0  0  0
   24.0633  -22.2735  -11.7637 O   0  0  0  0  0  0  0  0  0  0  0  0
   22.3721  -21.0082  -10.9910 O   0  0  0  0  0  0  0  0  0  0  0  0
  2  1  1  0
  3  2  2  0
  4  2  1  0
  5  6  1  6
  5  4  1  0
  7  5  1  0
  8  7  2  0
  9 10  1  0
 10 20  2  0
 10 11  1  0
 11 12  2  0
 12 13  1  0
 13 14  1  0
 15 14  1  1
 15 16  1  0
 16  7  1  0
 17 29  1  0
 17 15  1  0
 18 17  2  0
 19 13  2  0
 20 19  1  0
 21 22  1  0
 22 24  1  0
 22 23  2  0
 24 25  1  0
 26 25  1  0
 27 26  1  0
 28 27  1  6
 28 29  1  0
 30 32  1  0
 30 28  1  0
 31 30  2  0
M  END
$$$$
