NYR.pdb
     RDKit          3D

 32 32  0  0  1  0  0  0  0  0999 V2000
   24.7656  -13.8223  -18.0926 N   0  0  0  0  0  0  0  0  0  0  0  0
   25.2742  -12.6114  -17.5742 C   0  0  0  0  0  0  0  0  0  0  0  0
   26.3696  -12.1683  -17.9842 O   0  0  0  0  0  0  0  0  0  0  0  0
   24.5326  -11.8515  -16.5492 C   0  0  0  0  0  0  0  0  0  0  0  0
   23.5440  -10.8778  -17.1885 C   0  0  2  0  0  0  0  0  0  0  0  0
   24.2901   -9.8446  -17.8359 N   0  0  0  0  0  0  0  0  0  0  0  0
   22.6663  -10.3141  -16.0942 C   0  0  0  0  0  0  0  0  0  0  0  0
   21.9701  -11.0775  -15.3842 O   0  0  0  0  0  0  0  0  0  0  0  0
   24.7037   -2.7268  -16.3814 O   0  0  0  0  0  0  0  0  0  0  0  0
   24.1299   -3.8412  -15.7642 C   0  0  0  0  0  0  0  0  0  0  0  0
   24.7597   -5.0699  -15.9928 C   0  0  0  0  0  0  0  0  0  0  0  0
   24.2165   -6.2025  -15.3944 C   0  0  0  0  0  0  0  0  0  0  0  0
   23.0947   -6.1397  -14.5981 C   0  0  0  0  0  0  0  0  0  0  0  0
   22.5357   -7.3517  -13.9743 C   0  0  0  0  0  0  0  0  0  0  0  0
   21.8032   -8.2350  -14.9141 C   0  0  2  0  0  0  0  0  0  0  0  0
   22.6201   -8.9150  -15.8580 N   0  0  0  0  0  0  0  0  0  0  0  0
   20.6836   -7.4419  -15.5286 C   0  0  0  0  0  0  0  0  0  0  0  0
   20.8661   -6.7402  -16.5497 O   0  0  0  0  0  0  0  0  0  0  0  0
   22.4939   -4.9175  -14.3891 C   0  0  0  0  0  0  0  0  0  0  0  0
   23.0085   -3.7552  -14.9724 C   0  0  0  0  0  0  0  0  0  0  0  0
   12.1966   -9.0348  -15.1449 N   0  0  0  0  0  0  0  0  0  0  0  0
   12.1919   -7.7443  -15.7277 C   0  0  0  0  0  0  0  0  0  0  0  0
   11.0954   -7.1903  -16.1411 N   0  0  0  0  0  0  0  0  0  0  0  0
   13.4316   -7.0603  -15.8504 N   0  0  0  0  0  0  0  0  0  0  0  0
   14.6477   -7.7938  -15.6195 C   0  0  0  0  0  0  0  0  0  0  0  0
   15.7986   -6.8136  -15.8931 C   0  0  0  0  0  0  0  0  0  0  0  0
   17.0403   -7.4982  -15.4147 C   0  0  0  0  0  0  0  0  0  0  0  0
   18.2850   -6.6762  -15.6369 C   0  0  2  0  0  0  0  0  0  0  0  0
   19.3707   -7.4457  -14.9902 N   0  0  0  0  0  0  0  0  0  0  0  0
   18.1182   -5.3754  -14.9397 C   0  0  0  0  0  0  0  0  0  0  0  0
   18.4722   -5.1302  -13.7781 O   0  0  0  0  0  0  0  0  0  0  0  0
   17.5094   -4.3255  -15.6445 O   0  0  0  0  0  0  0  0  0  0  0  0
  2  1  1  0
  3  2  2  0
  4  2  1  0
  5  6  1  1
  5  4  1  0
  7  5  1  0
  8  7  2  0
  9 10  1  0
 10 20  2  0
 10 11  1  0
 11 12  2  0
 12 13  1  0
 13 14  1  0
 15 14  1  6
 15 16  1  0
 16  7  1  0
 17 29  1  0
 17 15  1  0
 18 17  2  0
 19 13  2  0
 20 19  1  0
 21 22  1  0
 22 24  1  0
 22 23  2  0
 24 25  1  0
 26 25  1  0
 27 26  1  0
 28 27  1  1
 28 29  1  0
 30 32  1  0
 30 28  1  0
 31 30  2  0
M  END
$$$$
