KWP.pdb
     RDKit          3D

 31 33  0  0  1  0  0  0  0  0999 V2000
    4.3869  -20.7281   23.4296 N   0  0  0  0  0  0  0  0  0  0  0  0
    5.7088  -20.3459   23.0436 C   0  0  1  0  0  0  0  0  0  0  0  0
    6.0550  -20.6866   21.6154 C   0  0  0  0  0  0  0  0  0  0  0  0
    7.2403  -21.5868   21.5397 C   0  0  0  0  0  0  0  0  0  0  0  0
    8.2031  -21.1896   20.4396 C   0  0  0  0  0  0  0  0  0  0  0  0
    9.4027  -22.1056   20.3712 C   0  0  0  0  0  0  0  0  0  0  0  0
    9.2983  -22.8420   19.1158 N   0  0  0  0  0  0  0  0  0  0  0  0
    5.9240  -18.9150   23.3635 C   0  0  0  0  0  0  0  0  0  0  0  0
    5.5559  -17.9899   22.5885 O   0  0  0  0  0  0  0  0  0  0  0  0
    6.5651  -18.5799   24.5800 N   0  0  0  0  0  0  0  0  0  0  0  0
    6.9457  -17.1981   24.8350 C   0  0  1  0  0  0  0  0  0  0  0  0
    6.9874  -16.9373   26.3242 C   0  0  0  0  0  0  0  0  0  0  0  0
    7.1232  -15.4904   26.5519 C   0  0  0  0  0  0  0  0  0  0  0  0
    6.1174  -14.5678   26.4649 C   0  0  0  0  0  0  0  0  0  0  0  0
    6.5770  -13.3437   26.7380 N   0  0  0  0  0  0  0  0  0  0  0  0
    7.8884  -13.4592   27.0055 C   0  0  0  0  0  0  0  0  0  0  0  0
    8.8432  -12.5226   27.3452 C   0  0  0  0  0  0  0  0  0  0  0  0
   10.1519  -12.8828   27.5777 C   0  0  0  0  0  0  0  0  0  0  0  0
   10.5158  -14.2035   27.4690 C   0  0  0  0  0  0  0  0  0  0  0  0
    9.5710  -15.1420   27.1312 C   0  0  0  0  0  0  0  0  0  0  0  0
    8.2615  -14.7939   26.8970 C   0  0  0  0  0  0  0  0  0  0  0  0
    8.2602  -16.9536   24.1720 C   0  0  0  0  0  0  0  0  0  0  0  0
    9.0762  -17.9335   24.0825 O   0  0  0  0  0  0  0  0  0  0  0  0
    8.6346  -15.7103   23.6471 N   0  0  0  0  0  0  0  0  0  0  0  0
    8.1207  -14.4134   23.9437 C   0  0  0  0  0  0  0  0  0  0  0  0
    8.2742  -13.5946   22.6704 C   0  0  0  0  0  0  0  0  0  0  0  0
    9.0147  -14.5003   21.7237 C   0  0  0  0  0  0  0  0  0  0  0  0
    9.6676  -15.5040   22.6425 C   0  0  1  0  0  0  0  0  0  0  0  0
   10.8548  -14.8951   23.2494 C   0  0  0  0  0  0  0  0  0  0  0  0
   12.0334  -14.7046   22.5089 O   0  0  0  0  0  0  0  0  0  0  0  0
   10.8993  -14.5127   24.4388 O   0  0  0  0  0  0  0  0  0  0  0  0
  2  1  1  6
  3  4  1  0
  3  2  1  0
  5  6  1  0
  5  4  1  0
  7  6  1  0
  8  2  1  0
  8  9  2  0
 10  8  1  0
 11 10  1  0
 11 12  1  1
 13 12  1  0
 14 13  2  0
 15 14  1  0
 16 15  1  0
 16 21  2  0
 17 16  1  0
 18 17  2  0
 18 19  1  0
 19 20  2  0
 20 21  1  0
 21 13  1  0
 22 11  1  0
 23 22  2  0
 24 25  1  0
 24 22  1  0
 26 27  1  0
 26 25  1  0
 27 28  1  0
 28 24  1  0
 28 29  1  1
 29 30  1  0
 31 29  2  0
M  END
$$$$
