KWP.pdb
     RDKit          3D

 31 33  0  0  1  0  0  0  0  0999 V2000
    8.2629  -16.3128   21.0235 N   0  0  0  0  0  0  0  0  0  0  0  0
    9.3697  -15.4566   21.3147 C   0  0  1  0  0  0  0  0  0  0  0  0
    9.4966  -14.2774   20.3826 C   0  0  0  0  0  0  0  0  0  0  0  0
    9.4744  -14.7039   18.9548 C   0  0  0  0  0  0  0  0  0  0  0  0
    8.8948  -13.6444   18.0401 C   0  0  0  0  0  0  0  0  0  0  0  0
    9.0088  -14.0232   16.5819 C   0  0  0  0  0  0  0  0  0  0  0  0
    8.2561  -13.0257   15.8283 N   0  0  0  0  0  0  0  0  0  0  0  0
    9.3279  -15.0613   22.7424 C   0  0  0  0  0  0  0  0  0  0  0  0
    9.3987  -13.8560   23.1087 O   0  0  0  0  0  0  0  0  0  0  0  0
    9.2053  -16.0734   23.7241 N   0  0  0  0  0  0  0  0  0  0  0  0
    9.1522  -15.7064   25.1319 C   0  0  1  0  0  0  0  0  0  0  0  0
    7.8832  -16.2385   25.7596 C   0  0  0  0  0  0  0  0  0  0  0  0
    6.8031  -15.2609   25.5550 C   0  0  0  0  0  0  0  0  0  0  0  0
    5.5359  -15.5452   25.1264 C   0  0  0  0  0  0  0  0  0  0  0  0
    4.8028  -14.4310   25.0542 N   0  0  0  0  0  0  0  0  0  0  0  0
    5.5879  -13.4099   25.4358 C   0  0  0  0  0  0  0  0  0  0  0  0
    5.3456  -12.0561   25.5477 C   0  0  0  0  0  0  0  0  0  0  0  0
    6.3244  -11.1836   25.9687 C   0  0  0  0  0  0  0  0  0  0  0  0
    7.5700  -11.6711   26.2844 C   0  0  0  0  0  0  0  0  0  0  0  0
    7.8191  -13.0178   26.1756 C   0  0  0  0  0  0  0  0  0  0  0  0
    6.8494  -13.8982   25.7564 C   0  0  0  0  0  0  0  0  0  0  0  0
   10.3835  -16.2327   25.7908 C   0  0  0  0  0  0  0  0  0  0  0  0
   11.2459  -16.8277   25.0586 O   0  0  0  0  0  0  0  0  0  0  0  0
   10.6340  -16.1028   27.1627 N   0  0  0  0  0  0  0  0  0  0  0  0
    9.8292  -15.5000   28.1741 C   0  0  0  0  0  0  0  0  0  0  0  0
   10.7949  -14.9580   29.2178 C   0  0  0  0  0  0  0  0  0  0  0  0
   12.1506  -15.4219   28.7577 C   0  0  0  0  0  0  0  0  0  0  0  0
   11.8299  -16.5784   27.8426 C   0  0  1  0  0  0  0  0  0  0  0  0
   11.5196  -17.7587   28.6546 C   0  0  0  0  0  0  0  0  0  0  0  0
   10.2272  -18.3091   28.6733 O   0  0  0  0  0  0  0  0  0  0  0  0
   12.3632  -18.3426   29.3690 O   0  0  0  0  0  0  0  0  0  0  0  0
  2  1  1  6
  3  4  1  0
  3  2  1  0
  5  6  1  0
  5  4  1  0
  7  6  1  0
  8  2  1  0
  8  9  2  0
 10  8  1  0
 11 10  1  0
 11 12  1  1
 13 12  1  0
 14 13  2  0
 15 14  1  0
 16 15  1  0
 16 21  2  0
 17 16  1  0
 18 17  2  0
 18 19  1  0
 19 20  2  0
 20 21  1  0
 21 13  1  0
 22 11  1  0
 23 22  2  0
 24 25  1  0
 24 22  1  0
 26 27  1  0
 26 25  1  0
 27 28  1  0
 28 24  1  0
 28 29  1  1
 29 30  1  0
 31 29  2  0
M  END
$$$$
