KWP.pdb
     RDKit          3D

 31 33  0  0  1  0  0  0  0  0999 V2000
   10.6606  -18.3532   20.7123 N   0  0  0  0  0  0  0  0  0  0  0  0
   11.3701  -17.1140   20.7727 C   0  0  1  0  0  0  0  0  0  0  0  0
   11.3721  -16.3428   19.4763 C   0  0  0  0  0  0  0  0  0  0  0  0
   11.5902  -17.2400   18.3064 C   0  0  0  0  0  0  0  0  0  0  0  0
   11.5870  -16.4904   16.9899 C   0  0  0  0  0  0  0  0  0  0  0  0
   11.8257  -17.4045   15.8108 C   0  0  0  0  0  0  0  0  0  0  0  0
   11.7210  -16.5799   14.6115 N   0  0  0  0  0  0  0  0  0  0  0  0
   10.8748  -16.3150   21.9183 C   0  0  0  0  0  0  0  0  0  0  0  0
   11.3950  -15.2127   22.2444 O   0  0  0  0  0  0  0  0  0  0  0  0
    9.7818  -16.8096   22.6693 N   0  0  0  0  0  0  0  0  0  0  0  0
    9.2437  -16.0148   23.7639 C   0  0  1  0  0  0  0  0  0  0  0  0
    7.7320  -16.0624   23.7458 C   0  0  0  0  0  0  0  0  0  0  0  0
    7.2163  -15.2880   24.8853 C   0  0  0  0  0  0  0  0  0  0  0  0
    6.6964  -15.8087   26.0380 C   0  0  0  0  0  0  0  0  0  0  0  0
    6.3267  -14.8317   26.8705 N   0  0  0  0  0  0  0  0  0  0  0  0
    6.6032  -13.6645   26.2656 C   0  0  0  0  0  0  0  0  0  0  0  0
    6.4281  -12.3564   26.6683 C   0  0  0  0  0  0  0  0  0  0  0  0
    6.7946  -11.3015   25.8625 C   0  0  0  0  0  0  0  0  0  0  0  0
    7.3468  -11.5564   24.6301 C   0  0  0  0  0  0  0  0  0  0  0  0
    7.5245  -12.8562   24.2219 C   0  0  0  0  0  0  0  0  0  0  0  0
    7.1623  -13.9172   25.0182 C   0  0  0  0  0  0  0  0  0  0  0  0
    9.8196  -16.5373   25.0377 C   0  0  0  0  0  0  0  0  0  0  0  0
   10.3326  -17.7080   25.0262 O   0  0  0  0  0  0  0  0  0  0  0  0
    9.8245  -15.8074   26.2330 N   0  0  0  0  0  0  0  0  0  0  0  0
    9.0579  -14.6599   26.5931 C   0  0  0  0  0  0  0  0  0  0  0  0
    9.9186  -13.8612   27.5609 C   0  0  0  0  0  0  0  0  0  0  0  0
   11.1335  -14.7203   27.7862 C   0  0  0  0  0  0  0  0  0  0  0  0
   10.6640  -16.0977   27.3861 C   0  0  1  0  0  0  0  0  0  0  0  0
    9.8595  -16.6630   28.4732 C   0  0  0  0  0  0  0  0  0  0  0  0
    8.5127  -17.0109   28.2761 O   0  0  0  0  0  0  0  0  0  0  0  0
   10.3055  -16.8695   29.6227 O   0  0  0  0  0  0  0  0  0  0  0  0
  2  1  1  6
  3  4  1  0
  3  2  1  0
  5  6  1  0
  5  4  1  0
  7  6  1  0
  8  2  1  0
  8  9  2  0
 10  8  1  0
 11 10  1  0
 11 12  1  1
 13 12  1  0
 14 13  2  0
 15 14  1  0
 16 15  1  0
 16 21  2  0
 17 16  1  0
 18 17  2  0
 18 19  1  0
 19 20  2  0
 20 21  1  0
 21 13  1  0
 22 11  1  0
 23 22  2  0
 24 25  1  0
 24 22  1  0
 26 27  1  0
 26 25  1  0
 27 28  1  0
 28 24  1  0
 28 29  1  1
 29 30  1  0
 31 29  2  0
M  END
$$$$
