KWP.pdb
     RDKit          3D

 31 33  0  0  1  0  0  0  0  0999 V2000
   10.6611  -17.4744   20.1879 N   0  0  0  0  0  0  0  0  0  0  0  0
   11.6599  -16.6546   20.7984 C   0  0  1  0  0  0  0  0  0  0  0  0
   12.4063  -15.7711   19.8299 C   0  0  0  0  0  0  0  0  0  0  0  0
   13.3110  -16.5649   18.9509 C   0  0  0  0  0  0  0  0  0  0  0  0
   14.0591  -15.7021   17.9554 C   0  0  0  0  0  0  0  0  0  0  0  0
   15.0202  -16.5057   17.1109 C   0  0  0  0  0  0  0  0  0  0  0  0
   15.7562  -15.5513   16.2882 N   0  0  0  0  0  0  0  0  0  0  0  0
   11.0609  -15.8993   21.9239 C   0  0  0  0  0  0  0  0  0  0  0  0
   11.2674  -14.6660   22.0916 O   0  0  0  0  0  0  0  0  0  0  0  0
   10.2307  -16.5893   22.8392 N   0  0  0  0  0  0  0  0  0  0  0  0
    9.5417  -15.8470   23.8850 C   0  0  1  0  0  0  0  0  0  0  0  0
    8.0742  -15.7116   23.5448 C   0  0  0  0  0  0  0  0  0  0  0  0
    7.3646  -15.1521   24.7057 C   0  0  0  0  0  0  0  0  0  0  0  0
    6.7511  -15.8725   25.6930 C   0  0  0  0  0  0  0  0  0  0  0  0
    6.2074  -15.0576   26.6011 N   0  0  0  0  0  0  0  0  0  0  0  0
    6.4627  -13.7975   26.2118 C   0  0  0  0  0  0  0  0  0  0  0  0
    6.1377  -12.5788   26.7715 C   0  0  0  0  0  0  0  0  0  0  0  0
    6.5154  -11.3935   26.1808 C   0  0  0  0  0  0  0  0  0  0  0  0
    7.2315  -11.4241   25.0083 C   0  0  0  0  0  0  0  0  0  0  0  0
    7.5590  -12.6336   24.4447 C   0  0  0  0  0  0  0  0  0  0  0  0
    7.1873  -13.8232   25.0257 C   0  0  0  0  0  0  0  0  0  0  0  0
    9.7685  -16.5567   25.1781 C   0  0  0  0  0  0  0  0  0  0  0  0
    9.9819  -17.8164   25.1394 O   0  0  0  0  0  0  0  0  0  0  0  0
    9.7598  -15.9090   26.4199 N   0  0  0  0  0  0  0  0  0  0  0  0
    9.0629  -14.7302   26.8182 C   0  0  0  0  0  0  0  0  0  0  0  0
    9.9246  -14.0673   27.8829 C   0  0  0  0  0  0  0  0  0  0  0  0
   11.0559  -15.0331   28.1112 C   0  0  0  0  0  0  0  0  0  0  0  0
   10.5071  -16.3398   27.5924 C   0  0  1  0  0  0  0  0  0  0  0  0
    9.6008  -16.9090   28.5940 C   0  0  0  0  0  0  0  0  0  0  0  0
   10.0827  -17.3789   29.8271 O   0  0  0  0  0  0  0  0  0  0  0  0
    8.3666  -17.0130   28.4240 O   0  0  0  0  0  0  0  0  0  0  0  0
  2  1  1  6
  3  4  1  0
  3  2  1  0
  5  6  1  0
  5  4  1  0
  7  6  1  0
  8  2  1  0
  8  9  2  0
 10  8  1  0
 11 10  1  0
 11 12  1  6
 13 12  1  0
 14 13  2  0
 15 14  1  0
 16 15  1  0
 16 21  2  0
 17 16  1  0
 18 17  2  0
 18 19  1  0
 19 20  2  0
 20 21  1  0
 21 13  1  0
 22 11  1  0
 23 22  2  0
 24 25  1  0
 24 22  1  0
 26 27  1  0
 26 25  1  0
 27 28  1  0
 28 24  1  0
 28 29  1  1
 29 30  1  0
 31 29  2  0
M  END
$$$$
