KWP.pdb
     RDKit          3D

 31 33  0  0  1  0  0  0  0  0999 V2000
    8.4896  -16.1611   20.7416 N   0  0  0  0  0  0  0  0  0  0  0  0
    8.9008  -14.8179   21.0051 C   0  0  1  0  0  0  0  0  0  0  0  0
    8.1381  -13.7770   20.2238 C   0  0  0  0  0  0  0  0  0  0  0  0
    8.8152  -13.4547   18.9360 C   0  0  0  0  0  0  0  0  0  0  0  0
    8.1757  -14.1511   17.7522 C   0  0  0  0  0  0  0  0  0  0  0  0
    8.9680  -13.9601   16.4799 C   0  0  0  0  0  0  0  0  0  0  0  0
    8.2290  -14.6366   15.4190 N   0  0  0  0  0  0  0  0  0  0  0  0
    8.8810  -14.5713   22.4662 C   0  0  0  0  0  0  0  0  0  0  0  0
    8.7156  -13.4185   22.9516 O   0  0  0  0  0  0  0  0  0  0  0  0
    9.0548  -15.6690   23.3426 N   0  0  0  0  0  0  0  0  0  0  0  0
    8.9747  -15.4598   24.7811 C   0  0  1  0  0  0  0  0  0  0  0  0
    7.7536  -16.1558   25.3398 C   0  0  0  0  0  0  0  0  0  0  0  0
    6.7514  -15.1424   25.7042 C   0  0  0  0  0  0  0  0  0  0  0  0
    5.4197  -15.3720   25.9139 C   0  0  0  0  0  0  0  0  0  0  0  0
    4.7920  -14.2378   26.2364 N   0  0  0  0  0  0  0  0  0  0  0  0
    5.7115  -13.2584   26.2392 C   0  0  0  0  0  0  0  0  0  0  0  0
    5.6143  -11.9071   26.5009 C   0  0  0  0  0  0  0  0  0  0  0  0
    6.7159  -11.0829   26.4417 C   0  0  0  0  0  0  0  0  0  0  0  0
    7.9392  -11.6171   26.1148 C   0  0  0  0  0  0  0  0  0  0  0  0
    8.0442  -12.9617   25.8529 C   0  0  0  0  0  0  0  0  0  0  0  0
    6.9511  -13.7941   25.9091 C   0  0  0  0  0  0  0  0  0  0  0  0
   10.2454  -15.9532   25.3888 C   0  0  0  0  0  0  0  0  0  0  0  0
   11.1434  -16.4147   24.6049 O   0  0  0  0  0  0  0  0  0  0  0  0
   10.4954  -15.9311   26.7667 N   0  0  0  0  0  0  0  0  0  0  0  0
    9.6498  -15.4988   27.8307 C   0  0  0  0  0  0  0  0  0  0  0  0
   10.5735  -14.9745   28.9204 C   0  0  0  0  0  0  0  0  0  0  0  0
   11.9605  -15.2725   28.4181 C   0  0  0  0  0  0  0  0  0  0  0  0
   11.7341  -16.3617   27.3983 C   0  0  1  0  0  0  0  0  0  0  0  0
   11.5349  -17.6356   28.0956 C   0  0  0  0  0  0  0  0  0  0  0  0
   12.5996  -18.2843   28.7430 O   0  0  0  0  0  0  0  0  0  0  0  0
   10.4308  -18.2183   28.1607 O   0  0  0  0  0  0  0  0  0  0  0  0
  2  1  1  1
  3  4  1  0
  3  2  1  0
  5  6  1  0
  5  4  1  0
  7  6  1  0
  8  2  1  0
  8  9  2  0
 10  8  1  0
 11 10  1  0
 11 12  1  1
 13 12  1  0
 14 13  2  0
 15 14  1  0
 16 15  1  0
 16 21  2  0
 17 16  1  0
 18 17  2  0
 18 19  1  0
 19 20  2  0
 20 21  1  0
 21 13  1  0
 22 11  1  0
 23 22  2  0
 24 25  1  0
 24 22  1  0
 26 27  1  0
 26 25  1  0
 27 28  1  0
 28 24  1  0
 28 29  1  1
 29 30  1  0
 31 29  2  0
M  END
$$$$
