KWP.pdb
     RDKit          3D

 31 33  0  0  1  0  0  0  0  0999 V2000
    9.2557  -17.3733   20.0601 N   0  0  0  0  0  0  0  0  0  0  0  0
   10.2957  -17.7192   20.9774 C   0  0  1  0  0  0  0  0  0  0  0  0
   11.6803  -17.6811   20.3798 C   0  0  0  0  0  0  0  0  0  0  0  0
   12.4412  -18.9262   20.6826 C   0  0  0  0  0  0  0  0  0  0  0  0
   13.8632  -18.8800   20.1620 C   0  0  0  0  0  0  0  0  0  0  0  0
   14.6125  -20.1642   20.4309 C   0  0  0  0  0  0  0  0  0  0  0  0
   15.9838  -19.9533   19.9787 N   0  0  0  0  0  0  0  0  0  0  0  0
   10.1726  -16.8919   22.2007 C   0  0  0  0  0  0  0  0  0  0  0  0
   10.8127  -15.8151   22.3515 O   0  0  0  0  0  0  0  0  0  0  0  0
    9.3075  -17.3290   23.2320 N   0  0  0  0  0  0  0  0  0  0  0  0
    9.0778  -16.4743   24.3879 C   0  0  1  0  0  0  0  0  0  0  0  0
    7.5938  -16.2652   24.5923 C   0  0  0  0  0  0  0  0  0  0  0  0
    7.2973  -14.8272   24.5012 C   0  0  0  0  0  0  0  0  0  0  0  0
    7.3268  -14.0739   23.3601 C   0  0  0  0  0  0  0  0  0  0  0  0
    6.9998  -12.8062   23.6249 N   0  0  0  0  0  0  0  0  0  0  0  0
    6.7543  -12.7231   24.9431 C   0  0  0  0  0  0  0  0  0  0  0  0
    6.3808  -11.6631   25.7435 C   0  0  0  0  0  0  0  0  0  0  0  0
    6.1822  -11.8202   27.0972 C   0  0  0  0  0  0  0  0  0  0  0  0
    6.3597  -13.0595   27.6640 C   0  0  0  0  0  0  0  0  0  0  0  0
    6.7315  -14.1200   26.8736 C   0  0  0  0  0  0  0  0  0  0  0  0
    6.9325  -13.9748   25.5211 C   0  0  0  0  0  0  0  0  0  0  0  0
    9.7363  -17.1091   25.5671 C   0  0  0  0  0  0  0  0  0  0  0  0
   10.0484  -18.3458   25.4838 O   0  0  0  0  0  0  0  0  0  0  0  0
   10.0261  -16.4155   26.7489 N   0  0  0  0  0  0  0  0  0  0  0  0
    9.5168  -15.1658   27.2101 C   0  0  0  0  0  0  0  0  0  0  0  0
   10.6226  -14.5399   28.0473 C   0  0  0  0  0  0  0  0  0  0  0  0
   11.6979  -15.5912   28.1029 C   0  0  0  0  0  0  0  0  0  0  0  0
   10.9564  -16.8641   27.7745 C   0  0  1  0  0  0  0  0  0  0  0  0
   10.2267  -17.3128   28.9639 C   0  0  0  0  0  0  0  0  0  0  0  0
   10.9032  -17.8449   30.0743 O   0  0  0  0  0  0  0  0  0  0  0  0
    8.9824  -17.2543   29.0697 O   0  0  0  0  0  0  0  0  0  0  0  0
  2  1  1  6
  3  4  1  0
  3  2  1  0
  5  6  1  0
  5  4  1  0
  7  6  1  0
  8  2  1  0
  8  9  2  0
 10  8  1  0
 11 10  1  0
 11 12  1  1
 13 12  1  0
 14 13  2  0
 15 14  1  0
 16 15  1  0
 16 21  2  0
 17 16  1  0
 18 17  2  0
 18 19  1  0
 19 20  2  0
 20 21  1  0
 21 13  1  0
 22 11  1  0
 23 22  2  0
 24 25  1  0
 24 22  1  0
 26 27  1  0
 26 25  1  0
 27 28  1  0
 28 24  1  0
 28 29  1  1
 29 30  1  0
 31 29  2  0
M  END
$$$$
