KWP.pdb
     RDKit          3D

 31 33  0  0  1  0  0  0  0  0999 V2000
    4.5727  -20.6231   22.1231 N   0  0  0  0  0  0  0  0  0  0  0  0
    5.9286  -20.3213   22.4595 C   0  0  1  0  0  0  0  0  0  0  0  0
    6.9340  -20.7855   21.4351 C   0  0  0  0  0  0  0  0  0  0  0  0
    6.2716  -21.1917   20.1634 C   0  0  0  0  0  0  0  0  0  0  0  0
    7.2390  -21.8105   19.1754 C   0  0  0  0  0  0  0  0  0  0  0  0
    6.5808  -22.1282   17.8530 C   0  0  0  0  0  0  0  0  0  0  0  0
    7.4536  -21.5978   16.8108 N   0  0  0  0  0  0  0  0  0  0  0  0
    6.0512  -18.8787   22.7754 C   0  0  0  0  0  0  0  0  0  0  0  0
    5.6038  -17.9820   22.0089 O   0  0  0  0  0  0  0  0  0  0  0  0
    6.6935  -18.4990   23.9782 N   0  0  0  0  0  0  0  0  0  0  0  0
    7.0503  -17.1041   24.1930 C   0  0  1  0  0  0  0  0  0  0  0  0
    7.2330  -16.8364   25.6703 C   0  0  0  0  0  0  0  0  0  0  0  0
    6.8747  -15.4373   25.9499 C   0  0  0  0  0  0  0  0  0  0  0  0
    5.6046  -14.9410   26.0535 C   0  0  0  0  0  0  0  0  0  0  0  0
    5.6314  -13.6325   26.3207 N   0  0  0  0  0  0  0  0  0  0  0  0
    6.9215  -13.2652   26.3934 C   0  0  0  0  0  0  0  0  0  0  0  0
    7.5174  -12.0456   26.6417 C   0  0  0  0  0  0  0  0  0  0  0  0
    8.8874  -11.9076   26.6677 C   0  0  0  0  0  0  0  0  0  0  0  0
    9.6790  -13.0080   26.4414 C   0  0  0  0  0  0  0  0  0  0  0  0
    9.0932  -14.2258   26.1935 C   0  0  0  0  0  0  0  0  0  0  0  0
    7.7265  -14.3753   26.1652 C   0  0  0  0  0  0  0  0  0  0  0  0
    8.2821  -16.8174   23.4007 C   0  0  0  0  0  0  0  0  0  0  0  0
    9.1329  -17.7604   23.2559 O   0  0  0  0  0  0  0  0  0  0  0  0
    8.5434  -15.5733   22.8129 N   0  0  0  0  0  0  0  0  0  0  0  0
    7.8577  -14.3340   22.9804 C   0  0  0  0  0  0  0  0  0  0  0  0
    8.0066  -13.5854   21.6640 C   0  0  0  0  0  0  0  0  0  0  0  0
    8.9181  -14.4507   20.8363 C   0  0  0  0  0  0  0  0  0  0  0  0
    9.6161  -15.3049   21.8663 C   0  0  1  0  0  0  0  0  0  0  0  0
   10.6737  -14.5158   22.5045 C   0  0  0  0  0  0  0  0  0  0  0  0
   11.8733  -14.2289   21.8318 O   0  0  0  0  0  0  0  0  0  0  0  0
   10.5835  -14.0550   23.6632 O   0  0  0  0  0  0  0  0  0  0  0  0
  2  1  1  6
  3  4  1  0
  3  2  1  0
  5  6  1  0
  5  4  1  0
  7  6  1  0
  8  2  1  0
  8  9  2  0
 10  8  1  0
 11 10  1  0
 11 12  1  1
 13 12  1  0
 14 13  2  0
 15 14  1  0
 16 15  1  0
 16 21  2  0
 17 16  1  0
 18 17  2  0
 18 19  1  0
 19 20  2  0
 20 21  1  0
 21 13  1  0
 22 11  1  0
 23 22  2  0
 24 25  1  0
 24 22  1  0
 26 27  1  0
 26 25  1  0
 27 28  1  0
 28 24  1  0
 28 29  1  1
 29 30  1  0
 31 29  2  0
M  END
$$$$
