KWP.pdb
     RDKit          3D

 31 33  0  0  1  0  0  0  0  0999 V2000
    9.3024  -15.6751   19.8479 N   0  0  0  0  0  0  0  0  0  0  0  0
    9.4135  -14.2957   20.2052 C   0  0  1  0  0  0  0  0  0  0  0  0
    8.4762  -13.3874   19.4489 C   0  0  0  0  0  0  0  0  0  0  0  0
    8.8332  -13.3137   18.0039 C   0  0  0  0  0  0  0  0  0  0  0  0
    8.5343  -14.6016   17.2643 C   0  0  0  0  0  0  0  0  0  0  0  0
    8.8877  -14.5143   15.7979 C   0  0  0  0  0  0  0  0  0  0  0  0
    8.5301  -15.7975   15.2022 N   0  0  0  0  0  0  0  0  0  0  0  0
    9.2932  -14.1535   21.6753 C   0  0  0  0  0  0  0  0  0  0  0  0
    9.4506  -13.0461   22.2590 O   0  0  0  0  0  0  0  0  0  0  0  0
    8.9924  -15.3017   22.4464 N   0  0  0  0  0  0  0  0  0  0  0  0
    8.7037  -15.1586   23.8660 C   0  0  1  0  0  0  0  0  0  0  0  0
    7.3804  -15.8129   24.1953 C   0  0  0  0  0  0  0  0  0  0  0  0
    6.6823  -14.9983   25.2018 C   0  0  0  0  0  0  0  0  0  0  0  0
    5.8917  -15.4756   26.2105 C   0  0  0  0  0  0  0  0  0  0  0  0
    5.4156  -14.4707   26.9505 N   0  0  0  0  0  0  0  0  0  0  0  0
    5.8931  -13.3285   26.4289 C   0  0  0  0  0  0  0  0  0  0  0  0
    5.7216  -12.0089   26.7941 C   0  0  0  0  0  0  0  0  0  0  0  0
    6.3229  -10.9861   26.0949 C   0  0  0  0  0  0  0  0  0  0  0  0
    7.1110  -11.2854   25.0095 C   0  0  0  0  0  0  0  0  0  0  0  0
    7.2867  -12.5968   24.6396 C   0  0  0  0  0  0  0  0  0  0  0  0
    6.6913  -13.6261   25.3303 C   0  0  0  0  0  0  0  0  0  0  0  0
    9.8422  -15.7496   24.6286 C   0  0  0  0  0  0  0  0  0  0  0  0
   10.7058  -16.4331   23.9797 O   0  0  0  0  0  0  0  0  0  0  0  0
   10.0055  -15.5883   26.0102 N   0  0  0  0  0  0  0  0  0  0  0  0
    9.1745  -14.9005   26.9431 C   0  0  0  0  0  0  0  0  0  0  0  0
   10.0996  -14.3852   28.0359 C   0  0  0  0  0  0  0  0  0  0  0  0
   11.4502  -14.9505   27.6877 C   0  0  0  0  0  0  0  0  0  0  0  0
   11.1176  -16.1154   26.7876 C   0  0  1  0  0  0  0  0  0  0  0  0
   10.6745  -17.2444   27.6108 C   0  0  0  0  0  0  0  0  0  0  0  0
   11.5923  -18.0108   28.3484 O   0  0  0  0  0  0  0  0  0  0  0  0
    9.4786  -17.5946   27.7108 O   0  0  0  0  0  0  0  0  0  0  0  0
  2  1  1  1
  3  4  1  0
  3  2  1  0
  5  6  1  0
  5  4  1  0
  7  6  1  0
  8  2  1  0
  8  9  2  0
 10  8  1  0
 11 10  1  0
 11 12  1  6
 13 12  1  0
 14 13  2  0
 15 14  1  0
 16 15  1  0
 16 21  2  0
 17 16  1  0
 18 17  2  0
 18 19  1  0
 19 20  2  0
 20 21  1  0
 21 13  1  0
 22 11  1  0
 23 22  2  0
 24 25  1  0
 24 22  1  0
 26 27  1  0
 26 25  1  0
 27 28  1  0
 28 24  1  0
 28 29  1  1
 29 30  1  0
 31 29  2  0
M  END
$$$$
