TES.pdb
     RDKit          3D

 23 22  0  0  1  0  0  0  0  0999 V2000
    9.2042  -12.7156   19.9157 C   0  0  0  0  0  0  0  0  0  0  0  0
    8.1645  -13.3036   19.0022 C   0  0  1  0  0  0  0  0  0  0  0  0
    7.5313  -12.2987   18.2868 O   0  0  0  0  0  0  0  0  0  0  0  0
    8.7802  -14.3431   18.0866 C   0  0  2  0  0  0  0  0  0  0  0  0
    7.7159  -14.8592   17.2445 N   0  0  0  0  0  0  0  0  0  0  0  0
    9.4532  -15.4137   18.8577 C   0  0  0  0  0  0  0  0  0  0  0  0
    8.7364  -16.2602   19.4239 O   0  0  0  0  0  0  0  0  0  0  0  0
   10.8408  -15.5239   18.9829 N   0  0  0  0  0  0  0  0  0  0  0  0
   11.5687  -16.4820   19.7424 C   0  0  1  0  0  0  0  0  0  0  0  0
   12.9553  -16.7523   19.3210 C   0  0  0  0  0  0  0  0  0  0  0  0
   13.7112  -17.7080   20.1899 C   0  0  0  0  0  0  0  0  0  0  0  0
   15.1101  -17.9144   19.7344 C   0  0  0  0  0  0  0  0  0  0  0  0
   15.4939  -18.8575   19.0282 O   0  0  0  0  0  0  0  0  0  0  0  0
   11.5748  -16.0710   21.1982 C   0  0  0  0  0  0  0  0  0  0  0  0
   12.0558  -14.9612   21.4611 O   0  0  0  0  0  0  0  0  0  0  0  0
   16.0958  -16.9874   20.1170 O   0  0  0  0  0  0  0  0  0  0  0  0
    8.9239  -17.6275   24.0088 O   0  0  0  0  0  0  0  0  0  0  0  0
    9.6428  -16.4645   24.1657 C   0  0  0  0  0  0  0  0  0  0  0  0
   11.0477  -16.5476   23.6039 C   0  0  2  0  0  0  0  0  0  0  0  0
   11.0522  -16.9202   22.2122 N   0  0  0  0  0  0  0  0  0  0  0  0
   11.9343  -17.3715   24.4398 C   0  0  0  0  0  0  0  0  0  0  0  0
   12.1417  -17.0373   25.7561 O   0  0  0  0  0  0  0  0  0  0  0  0
   12.4966  -18.3703   23.9582 O   0  0  0  0  0  0  0  0  0  0  0  0
  2  1  1  6
  2  4  1  0
  3  2  1  0
  4  6  1  0
  4  5  1  1
  6  7  2  0
  8  6  1  0
  8  9  1  0
  9 14  1  0
  9 10  1  6
 11 12  1  0
 11 10  1  0
 12 13  2  0
 12 16  1  0
 14 20  1  0
 14 15  2  0
 18 17  1  0
 19 18  1  1
 20 19  1  0
 21 19  1  0
 21 22  1  0
 23 21  2  0
M  END
$$$$
