TES.pdb
     RDKit          3D

 23 22  0  0  1  0  0  0  0  0999 V2000
    7.5388  -12.4179   19.8874 C   0  0  0  0  0  0  0  0  0  0  0  0
    7.9663  -13.4639   20.8796 C   0  0  1  0  0  0  0  0  0  0  0  0
    7.0184  -13.5878   21.8839 O   0  0  0  0  0  0  0  0  0  0  0  0
    8.2273  -14.7865   20.1865 C   0  0  2  0  0  0  0  0  0  0  0  0
    7.0139  -15.1463   19.4749 N   0  0  0  0  0  0  0  0  0  0  0  0
    8.6414  -15.8313   21.1513 C   0  0  0  0  0  0  0  0  0  0  0  0
    7.7921  -16.6753   21.4935 O   0  0  0  0  0  0  0  0  0  0  0  0
    9.9260  -15.9198   21.6946 N   0  0  0  0  0  0  0  0  0  0  0  0
   10.4130  -16.8912   22.6131 C   0  0  1  0  0  0  0  0  0  0  0  0
   11.8646  -17.1486   22.6035 C   0  0  0  0  0  0  0  0  0  0  0  0
   12.4021  -17.7235   21.3306 C   0  0  0  0  0  0  0  0  0  0  0  0
   13.8799  -17.8749   21.3481 C   0  0  0  0  0  0  0  0  0  0  0  0
   14.6561  -17.3484   20.5383 O   0  0  0  0  0  0  0  0  0  0  0  0
    9.9965  -16.5104   24.0166 C   0  0  0  0  0  0  0  0  0  0  0  0
   10.0639  -15.3099   24.3106 O   0  0  0  0  0  0  0  0  0  0  0  0
   14.4724  -18.6689   22.3460 O   0  0  0  0  0  0  0  0  0  0  0  0
    6.7708  -17.8625   25.8686 O   0  0  0  0  0  0  0  0  0  0  0  0
    7.5667  -16.7944   26.2145 C   0  0  0  0  0  0  0  0  0  0  0  0
    9.0431  -17.1338   26.2515 C   0  0  2  0  0  0  0  0  0  0  0  0
    9.5494  -17.4863   24.9494 N   0  0  0  0  0  0  0  0  0  0  0  0
    9.3627  -18.1181   27.2967 C   0  0  0  0  0  0  0  0  0  0  0  0
    9.0361  -17.8588   28.6057 O   0  0  0  0  0  0  0  0  0  0  0  0
    9.9276  -19.1847   26.9987 O   0  0  0  0  0  0  0  0  0  0  0  0
  2  1  1  6
  2  4  1  0
  3  2  1  0
  4  6  1  0
  4  5  1  1
  6  7  2  0
  8  6  1  0
  8  9  1  0
  9 14  1  0
  9 10  1  1
 11 12  1  0
 11 10  1  0
 12 13  2  0
 12 16  1  0
 14 20  1  0
 14 15  2  0
 18 17  1  0
 19 18  1  6
 20 19  1  0
 21 19  1  0
 21 22  1  0
 23 21  2  0
M  END
$$$$
