TES.pdb
     RDKit          3D

 23 22  0  0  1  0  0  0  0  0999 V2000
    8.2709  -12.1759   18.6527 C   0  0  0  0  0  0  0  0  0  0  0  0
    8.3720  -13.5684   19.2113 C   0  0  1  0  0  0  0  0  0  0  0  0
    8.4950  -14.4899   18.1825 O   0  0  0  0  0  0  0  0  0  0  0  0
    9.5193  -13.6697   20.1968 C   0  0  2  0  0  0  0  0  0  0  0  0
   10.7466  -13.4517   19.4523 N   0  0  0  0  0  0  0  0  0  0  0  0
    9.5154  -14.9727   20.9010 C   0  0  0  0  0  0  0  0  0  0  0  0
    8.4640  -15.3227   21.4692 O   0  0  0  0  0  0  0  0  0  0  0  0
   10.6215  -15.8248   20.9612 N   0  0  0  0  0  0  0  0  0  0  0  0
   10.7129  -17.0801   21.6249 C   0  0  1  0  0  0  0  0  0  0  0  0
   11.4742  -18.1415   20.9413 C   0  0  0  0  0  0  0  0  0  0  0  0
   11.1443  -18.3319   19.4940 C   0  0  0  0  0  0  0  0  0  0  0  0
   11.9242  -19.4302   18.8673 C   0  0  0  0  0  0  0  0  0  0  0  0
   12.8738  -19.2699   18.0875 O   0  0  0  0  0  0  0  0  0  0  0  0
   11.2947  -16.8779   23.0066 C   0  0  0  0  0  0  0  0  0  0  0  0
   12.2247  -16.0671   23.1055 O   0  0  0  0  0  0  0  0  0  0  0  0
   11.5835  -20.7624   19.1610 O   0  0  0  0  0  0  0  0  0  0  0  0
    9.2732  -16.6773   26.4854 O   0  0  0  0  0  0  0  0  0  0  0  0
   10.5866  -16.3477   26.2397 C   0  0  0  0  0  0  0  0  0  0  0  0
   11.3349  -17.4084   25.4579 C   0  0  2  0  0  0  0  0  0  0  0  0
   10.7948  -17.5859   24.1341 N   0  0  0  0  0  0  0  0  0  0  0  0
   11.4741  -18.6629   26.2131 C   0  0  0  0  0  0  0  0  0  0  0  0
   12.1445  -18.6707   27.4123 O   0  0  0  0  0  0  0  0  0  0  0  0
   10.9864  -19.7167   25.7692 O   0  0  0  0  0  0  0  0  0  0  0  0
  2  1  1  6
  2  4  1  0
  3  2  1  0
  4  6  1  0
  4  5  1  6
  6  7  2  0
  8  6  1  0
  8  9  1  0
  9 14  1  0
  9 10  1  6
 11 12  1  0
 11 10  1  0
 12 13  2  0
 12 16  1  0
 14 20  1  0
 14 15  2  0
 18 17  1  0
 19 18  1  1
 20 19  1  0
 21 19  1  0
 21 22  1  0
 23 21  2  0
M  END
$$$$
