TES.pdb
     RDKit          3D

 23 22  0  0  1  0  0  0  0  0999 V2000
    7.0852  -13.7682   19.6445 C   0  0  0  0  0  0  0  0  0  0  0  0
    8.0452  -12.8139   18.9895 C   0  0  1  0  0  0  0  0  0  0  0  0
    8.7741  -12.1315   19.9515 O   0  0  0  0  0  0  0  0  0  0  0  0
    8.9468  -13.5443   18.0142 C   0  0  2  0  0  0  0  0  0  0  0  0
    8.0896  -14.1892   17.0358 N   0  0  0  0  0  0  0  0  0  0  0  0
    9.8278  -14.5105   18.7101 C   0  0  0  0  0  0  0  0  0  0  0  0
    9.4168  -15.6782   18.8455 O   0  0  0  0  0  0  0  0  0  0  0  0
   11.0875  -14.1836   19.2194 N   0  0  0  0  0  0  0  0  0  0  0  0
   12.0074  -15.0480   19.8761 C   0  0  1  0  0  0  0  0  0  0  0  0
   13.4413  -14.7617   19.6883 C   0  0  0  0  0  0  0  0  0  0  0  0
   13.9851  -15.0896   18.3331 C   0  0  0  0  0  0  0  0  0  0  0  0
   15.3092  -14.4655   18.0796 C   0  0  0  0  0  0  0  0  0  0  0  0
   15.7738  -14.2194   16.9575 O   0  0  0  0  0  0  0  0  0  0  0  0
   11.7066  -15.0707   21.3585 C   0  0  0  0  0  0  0  0  0  0  0  0
   11.1304  -14.0793   21.8246 O   0  0  0  0  0  0  0  0  0  0  0  0
   16.1196  -14.1164   19.1744 O   0  0  0  0  0  0  0  0  0  0  0  0
    8.9582  -17.4985   23.6223 O   0  0  0  0  0  0  0  0  0  0  0  0
    9.8079  -16.9859   22.6687 C   0  0  0  0  0  0  0  0  0  0  0  0
   11.1994  -16.7007   23.1964 C   0  0  2  0  0  0  0  0  0  0  0  0
   12.0690  -16.1785   22.1732 N   0  0  0  0  0  0  0  0  0  0  0  0
   11.7648  -17.8465   23.9251 C   0  0  0  0  0  0  0  0  0  0  0  0
   11.7476  -17.8618   25.2987 O   0  0  0  0  0  0  0  0  0  0  0  0
   12.2582  -18.8019   23.3010 O   0  0  0  0  0  0  0  0  0  0  0  0
  2  1  1  1
  2  4  1  0
  3  2  1  0
  4  6  1  0
  4  5  1  6
  6  7  2  0
  8  6  1  0
  8  9  1  0
  9 14  1  0
  9 10  1  1
 11 12  1  0
 11 10  1  0
 12 13  2  0
 12 16  1  0
 14 20  1  0
 14 15  2  0
 18 17  1  0
 19 18  1  6
 20 19  1  0
 21 19  1  0
 21 22  1  0
 23 21  2  0
M  END
$$$$
