TES.pdb
     RDKit          3D

 23 22  0  0  1  0  0  0  0  0999 V2000
    7.6665  -12.1074   19.1075 C   0  0  0  0  0  0  0  0  0  0  0  0
    8.4370  -13.1826   19.8228 C   0  0  1  0  0  0  0  0  0  0  0  0
    7.8482  -13.4607   21.0469 O   0  0  0  0  0  0  0  0  0  0  0  0
    8.5539  -14.4236   18.9602 C   0  0  2  0  0  0  0  0  0  0  0  0
    7.2077  -14.8099   18.5774 N   0  0  0  0  0  0  0  0  0  0  0  0
    9.2682  -15.5106   19.6688 C   0  0  0  0  0  0  0  0  0  0  0  0
    8.5840  -16.4030   20.2037 O   0  0  0  0  0  0  0  0  0  0  0  0
   10.6601  -15.5874   19.7684 N   0  0  0  0  0  0  0  0  0  0  0  0
   11.4269  -16.5790   20.4417 C   0  0  1  0  0  0  0  0  0  0  0  0
   12.7716  -16.8591   19.9060 C   0  0  0  0  0  0  0  0  0  0  0  0
   12.7985  -17.5156   18.5614 C   0  0  0  0  0  0  0  0  0  0  0  0
   13.2206  -18.9385   18.6257 C   0  0  0  0  0  0  0  0  0  0  0  0
   12.9123  -19.8076   17.7980 O   0  0  0  0  0  0  0  0  0  0  0  0
   11.5534  -16.2111   21.9035 C   0  0  0  0  0  0  0  0  0  0  0  0
   12.3134  -15.2734   22.1776 O   0  0  0  0  0  0  0  0  0  0  0  0
   14.0309  -19.3620   19.6941 O   0  0  0  0  0  0  0  0  0  0  0  0
    8.5434  -17.0322   24.6575 O   0  0  0  0  0  0  0  0  0  0  0  0
    9.5255  -16.0806   24.8118 C   0  0  0  0  0  0  0  0  0  0  0  0
   10.8795  -16.5278   24.2989 C   0  0  2  0  0  0  0  0  0  0  0  0
   10.8324  -16.9100   22.9106 N   0  0  0  0  0  0  0  0  0  0  0  0
   11.4994  -17.5381   25.1699 C   0  0  0  0  0  0  0  0  0  0  0  0
   11.7814  -17.2344   26.4797 O   0  0  0  0  0  0  0  0  0  0  0  0
   11.7688  -18.6668   24.7238 O   0  0  0  0  0  0  0  0  0  0  0  0
  2  1  1  6
  2  4  1  0
  3  2  1  0
  4  6  1  0
  4  5  1  1
  6  7  2  0
  8  6  1  0
  8  9  1  0
  9 14  1  0
  9 10  1  6
 11 12  1  0
 11 10  1  0
 12 13  2  0
 12 16  1  0
 14 20  1  0
 14 15  2  0
 18 17  1  0
 19 18  1  1
 20 19  1  0
 21 19  1  0
 21 22  1  0
 23 21  2  0
M  END
$$$$
