TES.pdb
     RDKit          3D

 23 22  0  0  1  0  0  0  0  0999 V2000
    7.5372  -11.9585   18.8927 C   0  0  0  0  0  0  0  0  0  0  0  0
    8.5800  -12.8935   19.4402 C   0  0  1  0  0  0  0  0  0  0  0  0
    8.0562  -13.6348   20.4884 O   0  0  0  0  0  0  0  0  0  0  0  0
    9.1327  -13.7826   18.3439 C   0  0  2  0  0  0  0  0  0  0  0  0
    8.0097  -14.4935   17.7593 N   0  0  0  0  0  0  0  0  0  0  0  0
   10.1690  -14.7039   18.8645 C   0  0  0  0  0  0  0  0  0  0  0  0
    9.8165  -15.8558   19.1802 O   0  0  0  0  0  0  0  0  0  0  0  0
   11.5126  -14.3517   19.0192 N   0  0  0  0  0  0  0  0  0  0  0  0
   12.5482  -15.1260   19.6128 C   0  0  1  0  0  0  0  0  0  0  0  0
   13.9212  -14.8806   19.1350 C   0  0  0  0  0  0  0  0  0  0  0  0
   14.1586  -15.1905   17.6902 C   0  0  0  0  0  0  0  0  0  0  0  0
   15.5519  -14.9021   17.2628 C   0  0  0  0  0  0  0  0  0  0  0  0
   16.3683  -15.7543   16.8851 O   0  0  0  0  0  0  0  0  0  0  0  0
   12.5164  -14.9428   21.1141 C   0  0  0  0  0  0  0  0  0  0  0  0
   12.1800  -13.8271   21.5315 O   0  0  0  0  0  0  0  0  0  0  0  0
   16.0083  -13.5722   17.2771 O   0  0  0  0  0  0  0  0  0  0  0  0
    9.8869  -16.6159   24.0759 O   0  0  0  0  0  0  0  0  0  0  0  0
   10.6182  -16.2560   22.9669 C   0  0  0  0  0  0  0  0  0  0  0  0
   12.1145  -16.2683   23.2055 C   0  0  2  0  0  0  0  0  0  0  0  0
   12.8564  -16.0027   21.9993 N   0  0  0  0  0  0  0  0  0  0  0  0
   12.5556  -17.4778   23.9169 C   0  0  0  0  0  0  0  0  0  0  0  0
   12.4347  -17.5521   25.2834 O   0  0  0  0  0  0  0  0  0  0  0  0
   13.0374  -18.4337   23.2847 O   0  0  0  0  0  0  0  0  0  0  0  0
  2  1  1  6
  2  4  1  0
  3  2  1  0
  4  6  1  0
  4  5  1  1
  6  7  2  0
  8  6  1  0
  8  9  1  0
  9 14  1  0
  9 10  1  6
 11 12  1  0
 11 10  1  0
 12 13  2  0
 12 16  1  0
 14 20  1  0
 14 15  2  0
 18 17  1  0
 19 18  1  6
 20 19  1  0
 21 19  1  0
 21 22  1  0
 23 21  2  0
M  END
$$$$
