TES.pdb
     RDKit          3D

 23 22  0  0  1  0  0  0  0  0999 V2000
    7.3497  -12.2113   19.1229 C   0  0  0  0  0  0  0  0  0  0  0  0
    8.4295  -13.1765   19.5279 C   0  0  1  0  0  0  0  0  0  0  0  0
    7.9085  -14.1583   20.3569 O   0  0  0  0  0  0  0  0  0  0  0  0
    9.1038  -13.7708   18.3074 C   0  0  2  0  0  0  0  0  0  0  0  0
    8.0764  -14.4439   17.5331 N   0  0  0  0  0  0  0  0  0  0  0  0
   10.2063  -14.6838   18.6882 C   0  0  0  0  0  0  0  0  0  0  0  0
    9.9535  -15.9009   18.7613 O   0  0  0  0  0  0  0  0  0  0  0  0
   11.5066  -14.2548   18.9680 N   0  0  0  0  0  0  0  0  0  0  0  0
   12.6026  -15.0452   19.4136 C   0  0  1  0  0  0  0  0  0  0  0  0
   13.9476  -14.4576   19.2759 C   0  0  0  0  0  0  0  0  0  0  0  0
   15.0678  -15.2977   19.8042 C   0  0  0  0  0  0  0  0  0  0  0  0
   16.4057  -14.7325   19.4918 C   0  0  0  0  0  0  0  0  0  0  0  0
   17.0443  -14.9545   18.4533 O   0  0  0  0  0  0  0  0  0  0  0  0
   12.3879  -15.4338   20.8597 C   0  0  0  0  0  0  0  0  0  0  0  0
   12.2967  -14.5086   21.6769 O   0  0  0  0  0  0  0  0  0  0  0  0
   17.0201  -13.8783   20.4247 O   0  0  0  0  0  0  0  0  0  0  0  0
   10.8114  -19.1520   22.0347 O   0  0  0  0  0  0  0  0  0  0  0  0
   10.8258  -18.0084   22.8002 C   0  0  0  0  0  0  0  0  0  0  0  0
   12.0878  -17.1875   22.6281 C   0  0  2  0  0  0  0  0  0  0  0  0
   12.2954  -16.7962   21.2570 N   0  0  0  0  0  0  0  0  0  0  0  0
   13.2590  -17.8302   23.2436 C   0  0  0  0  0  0  0  0  0  0  0  0
   13.2377  -18.1618   24.5766 O   0  0  0  0  0  0  0  0  0  0  0  0
   14.2685  -18.0745   22.5604 O   0  0  0  0  0  0  0  0  0  0  0  0
  2  1  1  6
  2  4  1  0
  3  2  1  0
  4  6  1  0
  4  5  1  1
  6  7  2  0
  8  6  1  0
  8  9  1  0
  9 14  1  0
  9 10  1  1
 11 12  1  0
 11 10  1  0
 12 13  2  0
 12 16  1  0
 14 20  1  0
 14 15  2  0
 18 17  1  0
 19 18  1  6
 20 19  1  0
 21 19  1  0
 21 22  1  0
 23 21  2  0
M  END
$$$$
