TES.pdb
     RDKit          3D

 23 22  0  0  1  0  0  0  0  0999 V2000
    7.5068  -12.4086   19.2459 C   0  0  0  0  0  0  0  0  0  0  0  0
    8.6282  -13.3406   19.6134 C   0  0  1  0  0  0  0  0  0  0  0  0
    8.1707  -14.3238   20.4774 O   0  0  0  0  0  0  0  0  0  0  0  0
    9.2619  -13.9345   18.3710 C   0  0  2  0  0  0  0  0  0  0  0  0
    8.2093  -14.6065   17.6304 N   0  0  0  0  0  0  0  0  0  0  0  0
   10.3758  -14.8482   18.7148 C   0  0  0  0  0  0  0  0  0  0  0  0
   10.1293  -16.0673   18.7756 O   0  0  0  0  0  0  0  0  0  0  0  0
   11.6801  -14.4179   18.9730 N   0  0  0  0  0  0  0  0  0  0  0  0
   12.7707  -15.1968   19.4510 C   0  0  1  0  0  0  0  0  0  0  0  0
   14.1047  -14.8784   18.9100 C   0  0  0  0  0  0  0  0  0  0  0  0
   14.3694  -15.3844   17.5267 C   0  0  0  0  0  0  0  0  0  0  0  0
   15.7416  -15.0689   17.0529 C   0  0  0  0  0  0  0  0  0  0  0  0
   16.7322  -15.7955   17.2150 O   0  0  0  0  0  0  0  0  0  0  0  0
   12.8259  -15.1129   20.9604 C   0  0  0  0  0  0  0  0  0  0  0  0
   12.6796  -13.9904   21.4610 O   0  0  0  0  0  0  0  0  0  0  0  0
   15.9655  -13.8625   16.3661 O   0  0  0  0  0  0  0  0  0  0  0  0
    9.9129  -16.6696   23.6614 O   0  0  0  0  0  0  0  0  0  0  0  0
   10.7333  -16.3639   22.5996 C   0  0  0  0  0  0  0  0  0  0  0  0
   12.2033  -16.5830   22.8952 C   0  0  2  0  0  0  0  0  0  0  0  0
   13.0353  -16.2691   21.7615 N   0  0  0  0  0  0  0  0  0  0  0  0
   12.4641  -17.9114   23.4705 C   0  0  0  0  0  0  0  0  0  0  0  0
   12.9112  -18.0224   24.7648 O   0  0  0  0  0  0  0  0  0  0  0  0
   12.2808  -18.9345   22.7885 O   0  0  0  0  0  0  0  0  0  0  0  0
  2  1  1  6
  2  4  1  0
  3  2  1  0
  4  6  1  0
  4  5  1  1
  6  7  2  0
  8  6  1  0
  8  9  1  0
  9 14  1  0
  9 10  1  6
 11 12  1  0
 11 10  1  0
 12 13  2  0
 12 16  1  0
 14 20  1  0
 14 15  2  0
 18 17  1  0
 19 18  1  6
 20 19  1  0
 21 19  1  0
 21 22  1  0
 23 21  2  0
M  END
$$$$
