TES.pdb
     RDKit          3D

 23 22  0  0  1  0  0  0  0  0999 V2000
    8.4287  -12.7162   19.8829 C   0  0  0  0  0  0  0  0  0  0  0  0
    7.7453  -13.3989   18.7304 C   0  0  1  0  0  0  0  0  0  0  0  0
    6.8075  -12.5521   18.1593 O   0  0  0  0  0  0  0  0  0  0  0  0
    8.7605  -13.8810   17.7133 C   0  0  2  0  0  0  0  0  0  0  0  0
    8.0198  -14.3664   16.5627 N   0  0  0  0  0  0  0  0  0  0  0  0
    9.6498  -14.9183   18.2851 C   0  0  0  0  0  0  0  0  0  0  0  0
    9.7307  -16.0078   17.6874 O   0  0  0  0  0  0  0  0  0  0  0  0
   10.3980  -14.7408   19.4521 N   0  0  0  0  0  0  0  0  0  0  0  0
   11.4360  -15.5761   19.9511 C   0  0  1  0  0  0  0  0  0  0  0  0
   12.6587  -15.6801   19.1339 C   0  0  0  0  0  0  0  0  0  0  0  0
   13.2852  -14.3751   18.7546 C   0  0  0  0  0  0  0  0  0  0  0  0
   14.6630  -14.5332   18.2219 C   0  0  0  0  0  0  0  0  0  0  0  0
   15.2444  -13.7078   17.5034 O   0  0  0  0  0  0  0  0  0  0  0  0
   11.8193  -15.1256   21.3435 C   0  0  0  0  0  0  0  0  0  0  0  0
   11.9080  -13.9050   21.5287 O   0  0  0  0  0  0  0  0  0  0  0  0
   15.3875  -15.6960   18.5387 O   0  0  0  0  0  0  0  0  0  0  0  0
    8.9105  -16.2363   24.2672 O   0  0  0  0  0  0  0  0  0  0  0  0
    9.7471  -16.1942   23.1752 C   0  0  0  0  0  0  0  0  0  0  0  0
   11.2160  -16.1634   23.5461 C   0  0  2  0  0  0  0  0  0  0  0  0
   12.0643  -16.0614   22.3860 N   0  0  0  0  0  0  0  0  0  0  0  0
   11.5848  -17.2604   24.4538 C   0  0  0  0  0  0  0  0  0  0  0  0
   11.7421  -17.0159   25.7965 O   0  0  0  0  0  0  0  0  0  0  0  0
   11.7543  -18.4090   24.0092 O   0  0  0  0  0  0  0  0  0  0  0  0
  2  1  1  1
  2  4  1  0
  3  2  1  0
  4  6  1  0
  4  5  1  6
  6  7  2  0
  8  6  1  0
  8  9  1  0
  9 14  1  0
  9 10  1  6
 11 12  1  0
 11 10  1  0
 12 13  2  0
 12 16  1  0
 14 20  1  0
 14 15  2  0
 18 17  1  0
 19 18  1  6
 20 19  1  0
 21 19  1  0
 21 22  1  0
 23 21  2  0
M  END
$$$$
