CTP.pdb
     RDKit          3D

 21 21  0  0  1  0  0  0  0  0999 V2000
   11.3051  -16.3574   19.2072 N   0  0  0  0  0  0  0  0  0  0  0  0
   10.9465  -16.7379   20.5466 C   0  0  1  0  0  0  0  0  0  0  0  0
   12.2071  -17.2253   21.2339 C   0  0  0  0  0  0  0  0  0  0  0  0
   11.7327  -17.7736   22.9134 S   0  0  0  0  0  0  0  0  0  0  0  0
   10.3179  -15.6142   21.2956 C   0  0  0  0  0  0  0  0  0  0  0  0
   10.8362  -14.4878   21.3205 O   0  0  0  0  0  0  0  0  0  0  0  0
    6.7053  -14.6821   20.8438 C   0  0  0  0  0  0  0  0  0  0  0  0
    6.9272  -15.0605   22.2892 C   0  0  1  0  0  0  0  0  0  0  0  0
    6.4994  -16.3236   22.5192 O   0  0  0  0  0  0  0  0  0  0  0  0
    8.3814  -14.7806   22.6987 C   0  0  2  0  0  0  0  0  0  0  0  0
    9.1102  -15.8602   21.9819 N   0  0  0  0  0  0  0  0  0  0  0  0
    8.5910  -15.0061   24.1375 C   0  0  0  0  0  0  0  0  0  0  0  0
    9.5247  -15.8539   24.4325 O   0  0  0  0  0  0  0  0  0  0  0  0
    7.9076  -14.4157   25.2061 N   0  0  0  0  0  0  0  0  0  0  0  0
    6.7343  -13.5989   25.1064 C   0  0  0  0  0  0  0  0  0  0  0  0
    6.9400  -12.5866   26.2143 C   0  0  0  0  0  0  0  0  0  0  0  0
    8.1728  -13.0518   26.9990 C   0  0  0  0  0  0  0  0  0  0  0  0
    8.1986  -14.5363   26.5935 C   0  0  1  0  0  0  0  0  0  0  0  0
    7.1845  -15.2992   27.3488 C   0  0  0  0  0  0  0  0  0  0  0  0
    7.4083  -15.6287   28.6662 O   0  0  0  0  0  0  0  0  0  0  0  0
    6.1287  -15.6435   26.7938 O   0  0  0  0  0  0  0  0  0  0  0  0
  2  1  1  6
  3  2  1  0
  4  3  1  0
  5 11  1  0
  5  2  1  0
  6  5  2  0
  8  7  1  6
  8 10  1  0
  9  8  1  0
 10 12  1  0
 10 11  1  6
 12 14  1  0
 13 12  2  0
 14 15  1  0
 14 18  1  0
 15 16  1  0
 16 17  1  0
 18 19  1  1
 18 17  1  0
 19 20  1  0
 21 19  2  0
M  END
$$$$
