CTP.pdb
     RDKit          3D

 21 21  0  0  1  0  0  0  0  0999 V2000
    8.2135  -15.6138   18.4789 N   0  0  0  0  0  0  0  0  0  0  0  0
    8.5409  -14.6725   19.5153 C   0  0  1  0  0  0  0  0  0  0  0  0
    8.4638  -13.2845   18.9099 C   0  0  0  0  0  0  0  0  0  0  0  0
    8.9039  -12.0927   20.2262 S   0  0  0  0  0  0  0  0  0  0  0  0
    7.6380  -14.8038   20.6927 C   0  0  0  0  0  0  0  0  0  0  0  0
    6.4151  -14.9550   20.5521 O   0  0  0  0  0  0  0  0  0  0  0  0
    6.0405  -16.6542   22.0387 C   0  0  0  0  0  0  0  0  0  0  0  0
    7.0137  -16.3888   23.1630 C   0  0  1  0  0  0  0  0  0  0  0  0
    8.0645  -17.2384   23.0903 O   0  0  0  0  0  0  0  0  0  0  0  0
    7.3833  -14.8982   23.2106 C   0  0  2  0  0  0  0  0  0  0  0  0
    8.2079  -14.7522   21.9821 N   0  0  0  0  0  0  0  0  0  0  0  0
    8.2602  -14.5947   24.3524 C   0  0  0  0  0  0  0  0  0  0  0  0
    9.5272  -14.7476   24.1305 O   0  0  0  0  0  0  0  0  0  0  0  0
    7.8860  -14.1645   25.6300 N   0  0  0  0  0  0  0  0  0  0  0  0
    6.5442  -14.0517   26.1206 C   0  0  0  0  0  0  0  0  0  0  0  0
    6.6202  -12.8329   27.0168 C   0  0  0  0  0  0  0  0  0  0  0  0
    8.1044  -12.4567   27.1068 C   0  0  0  0  0  0  0  0  0  0  0  0
    8.7413  -13.7995   26.7067 C   0  0  1  0  0  0  0  0  0  0  0  0
    8.7092  -14.7478   27.8383 C   0  0  0  0  0  0  0  0  0  0  0  0
    9.5478  -14.5670   28.9145 O   0  0  0  0  0  0  0  0  0  0  0  0
    7.9242  -15.7094   27.8180 O   0  0  0  0  0  0  0  0  0  0  0  0
  2  1  1  6
  3  2  1  0
  4  3  1  0
  5 11  1  0
  5  2  1  0
  6  5  2  0
  8  7  1  6
  8 10  1  0
  9  8  1  0
 10 12  1  0
 10 11  1  6
 12 14  1  0
 13 12  2  0
 14 15  1  0
 14 18  1  0
 15 16  1  0
 16 17  1  0
 18 19  1  1
 18 17  1  0
 19 20  1  0
 21 19  2  0
M  END
$$$$
