CTP.pdb
     RDKit          3D

 21 21  0  0  1  0  0  0  0  0999 V2000
   11.9382  -16.2433   19.4915 N   0  0  0  0  0  0  0  0  0  0  0  0
   11.2533  -16.7619   20.6444 C   0  0  1  0  0  0  0  0  0  0  0  0
   12.2570  -17.5685   21.4450 C   0  0  0  0  0  0  0  0  0  0  0  0
   12.6022  -19.0970   20.5011 S   0  0  0  0  0  0  0  0  0  0  0  0
   10.6466  -15.6779   21.4663 C   0  0  0  0  0  0  0  0  0  0  0  0
   11.2760  -14.6430   21.7323 O   0  0  0  0  0  0  0  0  0  0  0  0
    6.9610  -14.4639   21.0089 C   0  0  0  0  0  0  0  0  0  0  0  0
    7.1907  -15.0096   22.3984 C   0  0  1  0  0  0  0  0  0  0  0  0
    6.7074  -16.2696   22.4984 O   0  0  0  0  0  0  0  0  0  0  0  0
    8.6637  -14.8430   22.8023 C   0  0  2  0  0  0  0  0  0  0  0  0
    9.3296  -15.8547   21.9399 N   0  0  0  0  0  0  0  0  0  0  0  0
    8.8919  -15.2536   24.1967 C   0  0  0  0  0  0  0  0  0  0  0  0
    9.6102  -16.3210   24.3467 O   0  0  0  0  0  0  0  0  0  0  0  0
    8.4295  -14.6298   25.3605 N   0  0  0  0  0  0  0  0  0  0  0  0
    7.3756  -13.6615   25.4345 C   0  0  0  0  0  0  0  0  0  0  0  0
    7.8498  -12.7390   26.5384 C   0  0  0  0  0  0  0  0  0  0  0  0
    9.0929  -13.3997   27.1470 C   0  0  0  0  0  0  0  0  0  0  0  0
    8.8663  -14.8536   26.6959 C   0  0  1  0  0  0  0  0  0  0  0  0
    7.8557  -15.5111   27.5488 C   0  0  0  0  0  0  0  0  0  0  0  0
    8.1784  -15.8947   28.8306 O   0  0  0  0  0  0  0  0  0  0  0  0
    6.7136  -15.7177   27.1082 O   0  0  0  0  0  0  0  0  0  0  0  0
  2  1  1  6
  3  2  1  0
  4  3  1  0
  5 11  1  0
  5  2  1  0
  6  5  2  0
  8  7  1  6
  8 10  1  0
  9  8  1  0
 10 12  1  0
 10 11  1  6
 12 14  1  0
 13 12  2  0
 14 15  1  0
 14 18  1  0
 15 16  1  0
 16 17  1  0
 18 19  1  1
 18 17  1  0
 19 20  1  0
 21 19  2  0
M  END
$$$$
