CTP.pdb
     RDKit          3D

 21 21  0  0  1  0  0  0  0  0999 V2000
   12.3176  -16.9211   19.0078 N   0  0  0  0  0  0  0  0  0  0  0  0
   11.0712  -17.2432   19.6481 C   0  0  1  0  0  0  0  0  0  0  0  0
   11.2835  -18.5179   20.4413 C   0  0  0  0  0  0  0  0  0  0  0  0
   11.9801  -19.7615   19.2948 S   0  0  0  0  0  0  0  0  0  0  0  0
   10.5890  -16.1345   20.5182 C   0  0  0  0  0  0  0  0  0  0  0  0
   11.3827  -15.3557   21.0673 O   0  0  0  0  0  0  0  0  0  0  0  0
    7.4806  -13.7976   19.6514 C   0  0  0  0  0  0  0  0  0  0  0  0
    7.2837  -14.6461   20.8854 C   0  0  1  0  0  0  0  0  0  0  0  0
    6.5574  -15.7493   20.5909 O   0  0  0  0  0  0  0  0  0  0  0  0
    8.6325  -14.9177   21.5692 C   0  0  2  0  0  0  0  0  0  0  0  0
    9.1987  -15.9877   20.7061 N   0  0  0  0  0  0  0  0  0  0  0  0
    8.4523  -15.4997   22.9086 C   0  0  0  0  0  0  0  0  0  0  0  0
    9.1650  -16.5534   23.1523 O   0  0  0  0  0  0  0  0  0  0  0  0
    7.6127  -15.0493   23.9330 N   0  0  0  0  0  0  0  0  0  0  0  0
    6.6609  -13.9825   23.8333 C   0  0  0  0  0  0  0  0  0  0  0  0
    6.7236  -13.3525   25.2094 C   0  0  0  0  0  0  0  0  0  0  0  0
    7.6049  -14.2720   26.0639 C   0  0  0  0  0  0  0  0  0  0  0  0
    7.4945  -15.5737   25.2502 C   0  0  1  0  0  0  0  0  0  0  0  0
    6.2030  -16.2411   25.5099 C   0  0  0  0  0  0  0  0  0  0  0  0
    5.2455  -16.2997   24.5229 O   0  0  0  0  0  0  0  0  0  0  0  0
    5.9813  -16.7500   26.6203 O   0  0  0  0  0  0  0  0  0  0  0  0
  2  1  1  1
  3  2  1  0
  4  3  1  0
  5 11  1  0
  5  2  1  0
  6  5  2  0
  8  7  1  6
  8 10  1  0
  9  8  1  0
 10 12  1  0
 10 11  1  6
 12 14  1  0
 13 12  2  0
 14 15  1  0
 14 18  1  0
 15 16  1  0
 16 17  1  0
 18 19  1  6
 18 17  1  0
 19 20  1  0
 21 19  2  0
M  END
$$$$
