CTP.pdb
     RDKit          3D

 21 21  0  0  1  0  0  0  0  0999 V2000
   12.4323  -16.5729   20.6923 N   0  0  0  0  0  0  0  0  0  0  0  0
   11.2140  -16.9454   21.3588 C   0  0  1  0  0  0  0  0  0  0  0  0
   11.5577  -18.0283   22.3629 C   0  0  0  0  0  0  0  0  0  0  0  0
   12.7128  -17.2958   23.5777 S   0  0  0  0  0  0  0  0  0  0  0  0
   10.5605  -15.7801   22.0172 C   0  0  0  0  0  0  0  0  0  0  0  0
   11.2214  -14.8026   22.3990 O   0  0  0  0  0  0  0  0  0  0  0  0
    7.0697  -14.3164   20.8400 C   0  0  0  0  0  0  0  0  0  0  0  0
    7.0396  -14.8166   22.2649 C   0  0  1  0  0  0  0  0  0  0  0  0
    6.4684  -16.0419   22.3249 O   0  0  0  0  0  0  0  0  0  0  0  0
    8.4366  -14.7175   22.8968 C   0  0  2  0  0  0  0  0  0  0  0  0
    9.1619  -15.8118   22.1990 N   0  0  0  0  0  0  0  0  0  0  0  0
    8.4096  -15.0661   24.3260 C   0  0  0  0  0  0  0  0  0  0  0  0
    9.1685  -16.0593   24.6657 O   0  0  0  0  0  0  0  0  0  0  0  0
    7.6700  -14.4542   25.3438 N   0  0  0  0  0  0  0  0  0  0  0  0
    6.6548  -13.4587   25.1643 C   0  0  0  0  0  0  0  0  0  0  0  0
    6.8406  -12.5731   26.3792 C   0  0  0  0  0  0  0  0  0  0  0  0
    7.8646  -13.2808   27.2751 C   0  0  0  0  0  0  0  0  0  0  0  0
    7.7340  -14.7181   26.7403 C   0  0  1  0  0  0  0  0  0  0  0  0
    6.5205  -15.3649   27.2786 C   0  0  0  0  0  0  0  0  0  0  0  0
    6.5138  -15.8593   28.5631 O   0  0  0  0  0  0  0  0  0  0  0  0
    5.5052  -15.4623   26.5709 O   0  0  0  0  0  0  0  0  0  0  0  0
  2  1  1  1
  3  2  1  0
  4  3  1  0
  5 11  1  0
  5  2  1  0
  6  5  2  0
  8  7  1  6
  8 10  1  0
  9  8  1  0
 10 12  1  0
 10 11  1  6
 12 14  1  0
 13 12  2  0
 14 15  1  0
 14 18  1  0
 15 16  1  0
 16 17  1  0
 18 19  1  1
 18 17  1  0
 19 20  1  0
 21 19  2  0
M  END
$$$$
