CTP.pdb
     RDKit          3D

 21 21  0  0  1  0  0  0  0  0999 V2000
    8.3195  -15.4612   18.4523 N   0  0  0  0  0  0  0  0  0  0  0  0
    8.5309  -14.5014   19.5018 C   0  0  1  0  0  0  0  0  0  0  0  0
    8.2844  -13.1249   18.9157 C   0  0  0  0  0  0  0  0  0  0  0  0
    8.4534  -11.9161   20.2783 S   0  0  0  0  0  0  0  0  0  0  0  0
    7.6521  -14.7581   20.6768 C   0  0  0  0  0  0  0  0  0  0  0  0
    6.4755  -15.1228   20.5329 O   0  0  0  0  0  0  0  0  0  0  0  0
    6.2287  -16.6894   22.0213 C   0  0  0  0  0  0  0  0  0  0  0  0
    7.1672  -16.3253   23.1473 C   0  0  1  0  0  0  0  0  0  0  0  0
    8.2995  -17.0631   23.0776 O   0  0  0  0  0  0  0  0  0  0  0  0
    7.3825  -14.8048   23.1944 C   0  0  2  0  0  0  0  0  0  0  0  0
    8.1908  -14.5761   21.9678 N   0  0  0  0  0  0  0  0  0  0  0  0
    8.2211  -14.4125   24.3381 C   0  0  0  0  0  0  0  0  0  0  0  0
    9.4977  -14.4415   24.1213 O   0  0  0  0  0  0  0  0  0  0  0  0
    7.8015  -14.0161   25.6125 N   0  0  0  0  0  0  0  0  0  0  0  0
    6.4495  -14.0041   26.0876 C   0  0  0  0  0  0  0  0  0  0  0  0
    6.4255  -12.7867   26.9885 C   0  0  0  0  0  0  0  0  0  0  0  0
    7.8768  -12.3029   27.0972 C   0  0  0  0  0  0  0  0  0  0  0  0
    8.6153  -13.5936   26.7003 C   0  0  1  0  0  0  0  0  0  0  0  0
    8.6399  -14.5463   27.8284 C   0  0  0  0  0  0  0  0  0  0  0  0
    9.4720  -14.3237   28.9019 O   0  0  0  0  0  0  0  0  0  0  0  0
    7.9085  -15.5492   27.8078 O   0  0  0  0  0  0  0  0  0  0  0  0
  2  1  1  6
  3  2  1  0
  4  3  1  0
  5 11  1  0
  5  2  1  0
  6  5  2  0
  8  7  1  6
  8 10  1  0
  9  8  1  0
 10 12  1  0
 10 11  1  6
 12 14  1  0
 13 12  2  0
 14 15  1  0
 14 18  1  0
 15 16  1  0
 16 17  1  0
 18 19  1  1
 18 17  1  0
 19 20  1  0
 21 19  2  0
M  END
$$$$
