CTP.pdb
     RDKit          3D

 21 21  0  0  1  0  0  0  0  0999 V2000
    8.1036  -15.7225   18.6747 N   0  0  0  0  0  0  0  0  0  0  0  0
    8.3542  -14.6685   19.6199 C   0  0  1  0  0  0  0  0  0  0  0  0
    8.1466  -13.3513   18.8981 C   0  0  0  0  0  0  0  0  0  0  0  0
    9.2055  -12.1077   19.7219 S   0  0  0  0  0  0  0  0  0  0  0  0
    7.4776  -14.7759   20.8195 C   0  0  0  0  0  0  0  0  0  0  0  0
    6.2578  -14.9709   20.7096 O   0  0  0  0  0  0  0  0  0  0  0  0
    5.9241  -16.5701   22.1414 C   0  0  0  0  0  0  0  0  0  0  0  0
    6.9276  -16.3430   23.2473 C   0  0  1  0  0  0  0  0  0  0  0  0
    7.9808  -17.1817   23.1110 O   0  0  0  0  0  0  0  0  0  0  0  0
    7.2898  -14.8529   23.3438 C   0  0  2  0  0  0  0  0  0  0  0  0
    8.0690  -14.6500   22.0940 N   0  0  0  0  0  0  0  0  0  0  0  0
    8.2053  -14.5905   24.4654 C   0  0  0  0  0  0  0  0  0  0  0  0
    9.4656  -14.6889   24.1831 O   0  0  0  0  0  0  0  0  0  0  0  0
    7.8733  -14.2501   25.7812 N   0  0  0  0  0  0  0  0  0  0  0  0
    6.5580  -14.2717   26.3498 C   0  0  0  0  0  0  0  0  0  0  0  0
    6.5878  -13.0917   27.2992 C   0  0  0  0  0  0  0  0  0  0  0  0
    8.0394  -12.5974   27.3258 C   0  0  0  0  0  0  0  0  0  0  0  0
    8.7582  -13.8632   26.8259 C   0  0  1  0  0  0  0  0  0  0  0  0
    8.8693  -14.8602   27.9096 C   0  0  0  0  0  0  0  0  0  0  0  0
    8.1997  -16.0590   27.8162 O   0  0  0  0  0  0  0  0  0  0  0  0
    9.5682  -14.6159   28.9062 O   0  0  0  0  0  0  0  0  0  0  0  0
  2  1  1  6
  3  2  1  0
  4  3  1  0
  5 11  1  0
  5  2  1  0
  6  5  2  0
  8  7  1  6
  8 10  1  0
  9  8  1  0
 10 12  1  0
 10 11  1  6
 12 14  1  0
 13 12  2  0
 14 15  1  0
 14 18  1  0
 15 16  1  0
 16 17  1  0
 18 19  1  1
 18 17  1  0
 19 20  1  0
 21 19  2  0
M  END
$$$$
