MIR.pdb
     RDKit          3D

 28 27  0  0  1  0  0  0  0  0999 V2000
    7.0096  -21.3041   27.1221 C   0  0  0  0  0  0  0  0  0  0  0  0
    6.1454  -21.6669   25.6014 S   0  0  0  0  0  0  0  0  0  0  0  0
    5.5694  -20.2632   24.6652 C   0  0  0  0  0  0  0  0  0  0  0  0
    6.4955  -19.0960   24.6251 C   0  0  0  0  0  0  0  0  0  0  0  0
    5.8531  -17.8819   24.0358 C   0  0  2  0  0  0  0  0  0  0  0  0
    5.4300  -18.0433   22.6840 N   0  0  0  0  0  0  0  0  0  0  0  0
    6.7927  -16.7063   24.1228 C   0  0  0  0  0  0  0  0  0  0  0  0
    7.5678  -16.4974   23.1456 O   0  0  0  0  0  0  0  0  0  0  0  0
    5.4763  -12.4420   27.1254 C   0  0  0  0  0  0  0  0  0  0  0  0
    6.2348  -13.0479   25.9420 C   0  0  0  0  0  0  0  0  0  0  0  0
    7.3699  -13.8739   26.4319 C   0  0  2  0  0  0  0  0  0  0  0  0
    8.4947  -13.0383   26.9980 C   0  0  0  0  0  0  0  0  0  0  0  0
    7.8736  -14.8680   25.4092 C   0  0  2  0  0  0  0  0  0  0  0  0
    6.7956  -15.8833   25.2544 N   0  0  0  0  0  0  0  0  0  0  0  0
    9.0764  -15.6064   25.8196 C   0  0  0  0  0  0  0  0  0  0  0  0
    9.0033  -16.4382   26.7738 O   0  0  0  0  0  0  0  0  0  0  0  0
   14.7979  -15.3142   19.7810 N   0  0  0  0  0  0  0  0  0  0  0  0
   15.2984  -15.0650   21.0941 C   0  0  0  0  0  0  0  0  0  0  0  0
   16.3818  -14.3936   21.2590 N   0  0  0  0  0  0  0  0  0  0  0  0
   14.6373  -15.5394   22.2582 N   0  0  0  0  0  0  0  0  0  0  0  0
   14.0602  -16.8531   22.3320 C   0  0  0  0  0  0  0  0  0  0  0  0
   13.2857  -17.1327   23.5791 C   0  0  0  0  0  0  0  0  0  0  0  0
   12.1721  -16.1759   23.8343 C   0  0  0  0  0  0  0  0  0  0  0  0
   11.3317  -16.4648   25.0183 C   0  0  2  0  0  0  0  0  0  0  0  0
   10.3409  -15.4237   25.1726 N   0  0  0  0  0  0  0  0  0  0  0  0
   12.0735  -16.6833   26.2843 C   0  0  0  0  0  0  0  0  0  0  0  0
   12.8871  -17.6271   26.4234 O   0  0  0  0  0  0  0  0  0  0  0  0
   11.8969  -15.8525   27.3724 O   0  0  0  0  0  0  0  0  0  0  0  0
  2  1  1  0
  3  2  1  0
  4  3  1  0
  5  4  1  0
  5  6  1  6
  7  5  1  0
  7  8  2  0
 10  9  1  0
 11 10  1  0
 11 13  1  0
 11 12  1  6
 13 15  1  0
 13 14  1  1
 14  7  1  0
 15 16  2  0
 18 17  1  0
 18 20  1  0
 19 18  2  0
 20 21  1  0
 21 22  1  0
 22 23  1  0
 24 23  1  6
 24 26  1  0
 25 24  1  0
 25 15  1  0
 26 27  2  0
 26 28  1  0
M  END
$$$$
