MIR.pdb
     RDKit          3D

 28 27  0  0  1  0  0  0  0  0999 V2000
    6.3176  -19.9350   20.9638 C   0  0  0  0  0  0  0  0  0  0  0  0
    4.9021  -18.8550   20.8189 S   0  0  0  0  0  0  0  0  0  0  0  0
    5.2494  -17.1138   20.6569 C   0  0  0  0  0  0  0  0  0  0  0  0
    6.2736  -16.5746   21.5960 C   0  0  0  0  0  0  0  0  0  0  0  0
    6.3611  -15.0833   21.5450 C   0  0  2  0  0  0  0  0  0  0  0  0
    6.7516  -14.5647   20.2758 N   0  0  0  0  0  0  0  0  0  0  0  0
    7.3179  -14.5855   22.5981 C   0  0  0  0  0  0  0  0  0  0  0  0
    8.5006  -14.3161   22.2403 O   0  0  0  0  0  0  0  0  0  0  0  0
    5.7553  -11.2320   26.3468 C   0  0  0  0  0  0  0  0  0  0  0  0
    6.7515  -11.9100   25.4028 C   0  0  0  0  0  0  0  0  0  0  0  0
    7.1855  -13.2142   25.9695 C   0  0  2  0  0  0  0  0  0  0  0  0
    7.9821  -13.0577   27.2442 C   0  0  0  0  0  0  0  0  0  0  0  0
    7.9011  -14.0945   24.9690 C   0  0  2  0  0  0  0  0  0  0  0  0
    6.8963  -14.4325   23.9236 N   0  0  0  0  0  0  0  0  0  0  0  0
    8.3728  -15.3755   25.5139 C   0  0  0  0  0  0  0  0  0  0  0  0
    7.5353  -16.1924   26.0031 O   0  0  0  0  0  0  0  0  0  0  0  0
   14.5352  -21.3807   25.4261 N   0  0  0  0  0  0  0  0  0  0  0  0
   13.6683  -21.5805   24.3101 C   0  0  0  0  0  0  0  0  0  0  0  0
   13.8992  -22.5255   23.4702 N   0  0  0  0  0  0  0  0  0  0  0  0
   12.5327  -20.7597   24.0778 N   0  0  0  0  0  0  0  0  0  0  0  0
   12.6240  -19.3282   23.9947 C   0  0  0  0  0  0  0  0  0  0  0  0
   12.1815  -18.5956   25.2198 C   0  0  0  0  0  0  0  0  0  0  0  0
   11.4576  -17.3229   24.9427 C   0  0  0  0  0  0  0  0  0  0  0  0
   10.2425  -17.0820   25.7533 C   0  0  2  0  0  0  0  0  0  0  0  0
    9.7570  -15.7425   25.5091 N   0  0  0  0  0  0  0  0  0  0  0  0
   10.3896  -17.3363   27.2075 C   0  0  0  0  0  0  0  0  0  0  0  0
   10.4088  -16.4046   28.0463 O   0  0  0  0  0  0  0  0  0  0  0  0
   10.5151  -18.6185   27.7030 O   0  0  0  0  0  0  0  0  0  0  0  0
  2  1  1  0
  3  2  1  0
  4  3  1  0
  5  4  1  0
  5  6  1  6
  7  5  1  0
  7  8  2  0
 10  9  1  0
 11 10  1  0
 11 13  1  0
 11 12  1  1
 13 15  1  0
 13 14  1  6
 14  7  1  0
 15 16  2  0
 18 17  1  0
 18 20  1  0
 19 18  2  0
 20 21  1  0
 21 22  1  0
 22 23  1  0
 24 23  1  6
 24 26  1  0
 25 24  1  0
 25 15  1  0
 26 27  2  0
 26 28  1  0
M  END
$$$$
