ADM.pdb
     RDKit          3D

 22 21  0  0  1  0  0  0  0  0999 V2000
    7.2485  -12.6867   18.7236 C   0  0  0  0  0  0  0  0  0  0  0  0
    8.6340  -13.2414   19.0382 C   0  0  2  0  0  0  0  0  0  0  0  0
    9.1863  -13.9512   17.9288 N   0  0  0  0  0  0  0  0  0  0  0  0
    8.4598  -14.1372   20.2378 C   0  0  0  0  0  0  0  0  0  0  0  0
    7.9838  -13.6811   21.3061 O   0  0  0  0  0  0  0  0  0  0  0  0
    8.8305  -15.5202   20.1879 N   0  0  0  0  0  0  0  0  0  0  0  0
    8.7609  -16.4291   21.2762 C   0  0  1  0  0  0  0  0  0  0  0  0
    9.0246  -17.8557   21.0048 C   0  0  0  0  0  0  0  0  0  0  0  0
    8.4144  -18.4358   19.8146 C   0  0  0  0  0  0  0  0  0  0  0  0
    7.1404  -18.4115   19.7056 O   0  0  0  0  0  0  0  0  0  0  0  0
    9.4232  -15.9779   22.5347 C   0  0  0  0  0  0  0  0  0  0  0  0
   10.2947  -15.0878   22.3646 O   0  0  0  0  0  0  0  0  0  0  0  0
    9.0953  -19.0209   18.7728 O   0  0  0  0  0  0  0  0  0  0  0  0
    6.5866  -11.5942   27.6953 C   0  0  0  0  0  0  0  0  0  0  0  0
    6.5380  -12.7000   26.2398 S   0  0  0  0  0  0  0  0  0  0  0  0
    8.0830  -13.5651   26.0374 C   0  0  0  0  0  0  0  0  0  0  0  0
    8.1866  -14.4725   24.8696 C   0  0  0  0  0  0  0  0  0  0  0  0
    9.0608  -15.6686   25.0324 C   0  0  2  0  0  0  0  0  0  0  0  0
    9.1666  -16.4458   23.8201 N   0  0  0  0  0  0  0  0  0  0  0  0
    8.8206  -16.4584   26.2577 C   0  0  0  0  0  0  0  0  0  0  0  0
    7.8686  -17.2291   26.4172 O   0  0  0  0  0  0  0  0  0  0  0  0
    9.7300  -16.3218   27.2894 O   0  0  0  0  0  0  0  0  0  0  0  0
  2  1  1  6
  3  2  1  0
  4  6  1  0
  4  2  1  0
  5  4  2  0
  7  6  1  0
  7 11  1  0
  7  8  1  6
  9  8  1  0
 10  9  2  0
 11 19  1  0
 12 11  2  0
 13  9  1  0
 15 14  1  0
 16 15  1  0
 17 16  1  0
 18 20  1  0
 18 17  1  6
 19 18  1  0
 20 22  1  0
 21 20  2  0
M  END
$$$$
