ADM.pdb
     RDKit          3D

 22 21  0  0  1  0  0  0  0  0999 V2000
    8.1755  -12.3710   19.6868 C   0  0  0  0  0  0  0  0  0  0  0  0
    8.2638  -13.7624   19.0683 C   0  0  2  0  0  0  0  0  0  0  0  0
    7.1218  -14.0594   18.2638 N   0  0  0  0  0  0  0  0  0  0  0  0
    8.3928  -14.7225   20.2231 C   0  0  0  0  0  0  0  0  0  0  0  0
    7.3817  -15.0506   20.8909 O   0  0  0  0  0  0  0  0  0  0  0  0
    9.6627  -15.2792   20.5835 N   0  0  0  0  0  0  0  0  0  0  0  0
    9.8747  -16.2585   21.5891 C   0  0  1  0  0  0  0  0  0  0  0  0
   10.9582  -17.2393   21.3830 C   0  0  0  0  0  0  0  0  0  0  0  0
   11.0670  -18.3301   22.3441 C   0  0  0  0  0  0  0  0  0  0  0  0
   11.8591  -18.1933   23.3388 O   0  0  0  0  0  0  0  0  0  0  0  0
    9.8496  -15.7549   22.9933 C   0  0  0  0  0  0  0  0  0  0  0  0
   10.8863  -15.1294   23.3321 O   0  0  0  0  0  0  0  0  0  0  0  0
   10.3824  -19.5211   22.2809 O   0  0  0  0  0  0  0  0  0  0  0  0
    7.0553  -10.8166   25.7554 C   0  0  0  0  0  0  0  0  0  0  0  0
    6.6457  -12.3191   26.7139 S   0  0  0  0  0  0  0  0  0  0  0  0
    7.9319  -13.5444   26.5700 C   0  0  0  0  0  0  0  0  0  0  0  0
    7.6555  -14.6935   25.6751 C   0  0  0  0  0  0  0  0  0  0  0  0
    8.8214  -15.5471   25.3095 C   0  0  2  0  0  0  0  0  0  0  0  0
    8.8192  -15.9187   23.9142 N   0  0  0  0  0  0  0  0  0  0  0  0
    9.1067  -16.6531   26.2466 C   0  0  0  0  0  0  0  0  0  0  0  0
    9.1021  -17.8493   25.9383 O   0  0  0  0  0  0  0  0  0  0  0  0
    9.4010  -16.3171   27.5544 O   0  0  0  0  0  0  0  0  0  0  0  0
  2  1  1  1
  3  2  1  0
  4  6  1  0
  4  2  1  0
  5  4  2  0
  7  6  1  0
  7 11  1  0
  7  8  1  6
  9  8  1  0
 10  9  2  0
 11 19  1  0
 12 11  2  0
 13  9  1  0
 15 14  1  0
 16 15  1  0
 17 16  1  0
 18 20  1  0
 18 17  1  1
 19 18  1  0
 20 22  1  0
 21 20  2  0
M  END
$$$$
