ADM.pdb
     RDKit          3D

 22 21  0  0  1  0  0  0  0  0999 V2000
    7.2678  -12.6647   19.0492 C   0  0  0  0  0  0  0  0  0  0  0  0
    8.6470  -12.8956   19.6580 C   0  0  2  0  0  0  0  0  0  0  0  0
    9.6237  -13.1977   18.6608 N   0  0  0  0  0  0  0  0  0  0  0  0
    8.4842  -14.0309   20.6360 C   0  0  0  0  0  0  0  0  0  0  0  0
    7.6159  -13.9691   21.5405 O   0  0  0  0  0  0  0  0  0  0  0  0
    9.3101  -15.1989   20.5571 N   0  0  0  0  0  0  0  0  0  0  0  0
    9.2825  -16.2875   21.4679 C   0  0  1  0  0  0  0  0  0  0  0  0
    9.8764  -17.5675   21.0353 C   0  0  0  0  0  0  0  0  0  0  0  0
    9.7236  -18.7123   21.9249 C   0  0  0  0  0  0  0  0  0  0  0  0
    8.6462  -18.8195   22.6056 O   0  0  0  0  0  0  0  0  0  0  0  0
    9.6525  -15.9584   22.8754 C   0  0  0  0  0  0  0  0  0  0  0  0
   10.8331  -15.5481   23.0125 O   0  0  0  0  0  0  0  0  0  0  0  0
   10.6504  -19.7119   22.1061 O   0  0  0  0  0  0  0  0  0  0  0  0
    6.1691  -11.1496   25.9110 C   0  0  0  0  0  0  0  0  0  0  0  0
    6.2549  -12.9366   26.2895 S   0  0  0  0  0  0  0  0  0  0  0  0
    7.7744  -13.6490   25.6896 C   0  0  0  0  0  0  0  0  0  0  0  0
    8.0423  -15.0565   26.0702 C   0  0  0  0  0  0  0  0  0  0  0  0
    9.1636  -15.7353   25.3607 C   0  0  2  0  0  0  0  0  0  0  0  0
    8.8333  -16.0684   23.9951 N   0  0  0  0  0  0  0  0  0  0  0  0
    9.8238  -16.8161   26.1215 C   0  0  0  0  0  0  0  0  0  0  0  0
    9.9405  -17.9800   25.7245 O   0  0  0  0  0  0  0  0  0  0  0  0
   10.3465  -16.4931   27.3594 O   0  0  0  0  0  0  0  0  0  0  0  0
  2  1  1  6
  3  2  1  0
  4  6  1  0
  4  2  1  0
  5  4  2  0
  7  6  1  0
  7 11  1  0
  7  8  1  6
  9  8  1  0
 10  9  2  0
 11 19  1  0
 12 11  2  0
 13  9  1  0
 15 14  1  0
 16 15  1  0
 17 16  1  0
 18 20  1  0
 18 17  1  1
 19 18  1  0
 20 22  1  0
 21 20  2  0
M  END
$$$$
