ADM.pdb
     RDKit          3D

 22 21  0  0  1  0  0  0  0  0999 V2000
    8.5158  -12.3131   19.6763 C   0  0  0  0  0  0  0  0  0  0  0  0
    8.2102  -13.6548   19.0184 C   0  0  2  0  0  0  0  0  0  0  0  0
    6.9396  -13.6492   18.3664 N   0  0  0  0  0  0  0  0  0  0  0  0
    8.2620  -14.6797   20.1223 C   0  0  0  0  0  0  0  0  0  0  0  0
    7.2447  -14.9121   20.8202 O   0  0  0  0  0  0  0  0  0  0  0  0
    9.4644  -15.4078   20.3994 N   0  0  0  0  0  0  0  0  0  0  0  0
    9.6346  -16.3411   21.4554 C   0  0  1  0  0  0  0  0  0  0  0  0
   10.6615  -17.3890   21.2946 C   0  0  0  0  0  0  0  0  0  0  0  0
   10.5168  -18.3024   20.1676 C   0  0  0  0  0  0  0  0  0  0  0  0
   11.5732  -18.7593   19.6100 O   0  0  0  0  0  0  0  0  0  0  0  0
    9.6522  -15.7613   22.8300 C   0  0  0  0  0  0  0  0  0  0  0  0
   10.6949  -15.1122   23.0992 O   0  0  0  0  0  0  0  0  0  0  0  0
    9.3234  -18.7296   19.6344 O   0  0  0  0  0  0  0  0  0  0  0  0
    6.6621  -10.7705   27.4492 C   0  0  0  0  0  0  0  0  0  0  0  0
    6.2179  -12.3061   26.5614 S   0  0  0  0  0  0  0  0  0  0  0  0
    7.6626  -13.2920   26.2188 C   0  0  0  0  0  0  0  0  0  0  0  0
    7.4494  -14.5278   25.4283 C   0  0  0  0  0  0  0  0  0  0  0  0
    8.6601  -15.3460   25.1341 C   0  0  2  0  0  0  0  0  0  0  0  0
    8.6542  -15.8802   23.7926 N   0  0  0  0  0  0  0  0  0  0  0  0
    9.0337  -16.3134   26.1864 C   0  0  0  0  0  0  0  0  0  0  0  0
    9.3367  -16.0052   27.3436 O   0  0  0  0  0  0  0  0  0  0  0  0
    9.0387  -17.6525   25.8448 O   0  0  0  0  0  0  0  0  0  0  0  0
  2  1  1  1
  3  2  1  0
  4  6  1  0
  4  2  1  0
  5  4  2  0
  7  6  1  0
  7 11  1  0
  7  8  1  6
  9  8  1  0
 10  9  2  0
 11 19  1  0
 12 11  2  0
 13  9  1  0
 15 14  1  0
 16 15  1  0
 17 16  1  0
 18 20  1  0
 18 17  1  1
 19 18  1  0
 20 22  1  0
 21 20  2  0
M  END
$$$$
