ADM.pdb
     RDKit          3D

 22 21  0  0  1  0  0  0  0  0999 V2000
    8.1848  -12.4587   19.6488 C   0  0  0  0  0  0  0  0  0  0  0  0
    8.6323  -13.5596   18.6928 C   0  0  2  0  0  0  0  0  0  0  0  0
    7.8091  -13.6176   17.5272 N   0  0  0  0  0  0  0  0  0  0  0  0
    8.5696  -14.8435   19.4798 C   0  0  0  0  0  0  0  0  0  0  0  0
    8.1742  -15.9029   18.9345 O   0  0  0  0  0  0  0  0  0  0  0  0
    8.9568  -14.8853   20.8585 N   0  0  0  0  0  0  0  0  0  0  0  0
    9.5029  -16.0137   21.5245 C   0  0  1  0  0  0  0  0  0  0  0  0
   10.5963  -16.7485   20.8590 C   0  0  0  0  0  0  0  0  0  0  0  0
   10.2562  -18.0023   20.1974 C   0  0  0  0  0  0  0  0  0  0  0  0
    9.5276  -18.8469   20.8230 O   0  0  0  0  0  0  0  0  0  0  0  0
    9.7690  -15.8344   22.9816 C   0  0  0  0  0  0  0  0  0  0  0  0
   10.7324  -15.0677   23.2362 O   0  0  0  0  0  0  0  0  0  0  0  0
   10.6541  -18.3719   18.9340 O   0  0  0  0  0  0  0  0  0  0  0  0
    6.9524  -10.9634   26.6555 C   0  0  0  0  0  0  0  0  0  0  0  0
    6.5660  -12.7456   26.5204 S   0  0  0  0  0  0  0  0  0  0  0  0
    7.9255  -13.6458   25.8010 C   0  0  0  0  0  0  0  0  0  0  0  0
    7.7063  -15.0909   25.5532 C   0  0  0  0  0  0  0  0  0  0  0  0
    8.9270  -15.9283   25.3791 C   0  0  2  0  0  0  0  0  0  0  0  0
    9.0700  -16.4243   24.0306 N   0  0  0  0  0  0  0  0  0  0  0  0
    9.1539  -16.9333   26.4380 C   0  0  0  0  0  0  0  0  0  0  0  0
    8.8562  -18.1284   26.3430 O   0  0  0  0  0  0  0  0  0  0  0  0
    9.7427  -16.4984   27.6102 O   0  0  0  0  0  0  0  0  0  0  0  0
  2  1  1  1
  3  2  1  0
  4  6  1  0
  4  2  1  0
  5  4  2  0
  7  6  1  0
  7 11  1  0
  7  8  1  6
  9  8  1  0
 10  9  2  0
 11 19  1  0
 12 11  2  0
 13  9  1  0
 15 14  1  0
 16 15  1  0
 17 16  1  0
 18 20  1  0
 18 17  1  6
 19 18  1  0
 20 22  1  0
 21 20  2  0
M  END
$$$$
