ADM.pdb
     RDKit          3D

 22 21  0  0  1  0  0  0  0  0999 V2000
    6.8348  -18.3298   19.1593 C   0  0  0  0  0  0  0  0  0  0  0  0
    7.0979  -17.0112   19.8793 C   0  0  2  0  0  0  0  0  0  0  0  0
    7.5028  -15.9835   18.9740 N   0  0  0  0  0  0  0  0  0  0  0  0
    8.1670  -17.3024   20.9010 C   0  0  0  0  0  0  0  0  0  0  0  0
    7.9733  -18.1633   21.7939 O   0  0  0  0  0  0  0  0  0  0  0  0
    9.4205  -16.6089   20.8777 N   0  0  0  0  0  0  0  0  0  0  0  0
   10.4632  -16.7646   21.8284 C   0  0  1  0  0  0  0  0  0  0  0  0
   11.8547  -16.7615   21.3366 C   0  0  0  0  0  0  0  0  0  0  0  0
   12.9107  -17.0098   22.3106 C   0  0  0  0  0  0  0  0  0  0  0  0
   12.6119  -17.6146   23.3971 O   0  0  0  0  0  0  0  0  0  0  0  0
   10.3204  -15.9612   23.0775 C   0  0  0  0  0  0  0  0  0  0  0  0
   10.6280  -14.7493   22.9454 O   0  0  0  0  0  0  0  0  0  0  0  0
   14.2294  -16.6465   22.1685 O   0  0  0  0  0  0  0  0  0  0  0  0
    6.5646  -11.3395   27.2287 C   0  0  0  0  0  0  0  0  0  0  0  0
    6.8488  -12.4690   25.8190 S   0  0  0  0  0  0  0  0  0  0  0  0
    8.0482  -13.7216   26.2300 C   0  0  0  0  0  0  0  0  0  0  0  0
    8.4649  -14.6260   25.1319 C   0  0  0  0  0  0  0  0  0  0  0  0
    9.5048  -15.6406   25.4645 C   0  0  2  0  0  0  0  0  0  0  0  0
    9.8971  -16.4270   24.3188 N   0  0  0  0  0  0  0  0  0  0  0  0
    9.2506  -16.4187   26.6945 C   0  0  0  0  0  0  0  0  0  0  0  0
    9.0603  -17.6389   26.7229 O   0  0  0  0  0  0  0  0  0  0  0  0
    9.2291  -15.7265   27.8904 O   0  0  0  0  0  0  0  0  0  0  0  0
  2  1  1  6
  3  2  1  0
  4  6  1  0
  4  2  1  0
  5  4  2  0
  7  6  1  0
  7 11  1  0
  7  8  1  6
  9  8  1  0
 10  9  2  0
 11 19  1  0
 12 11  2  0
 13  9  1  0
 15 14  1  0
 16 15  1  0
 17 16  1  0
 18 20  1  0
 18 17  1  6
 19 18  1  0
 20 22  1  0
 21 20  2  0
M  END
$$$$
