ADM.pdb
     RDKit          3D

 22 21  0  0  1  0  0  0  0  0999 V2000
    7.3468  -12.6192   18.8090 C   0  0  0  0  0  0  0  0  0  0  0  0
    8.6687  -13.1568   19.3473 C   0  0  2  0  0  0  0  0  0  0  0  0
    9.4241  -13.8209   18.3335 N   0  0  0  0  0  0  0  0  0  0  0  0
    8.3086  -14.0927   20.4726 C   0  0  0  0  0  0  0  0  0  0  0  0
    7.5776  -13.7001   21.4146 O   0  0  0  0  0  0  0  0  0  0  0  0
    8.7884  -15.4425   20.4938 N   0  0  0  0  0  0  0  0  0  0  0  0
    8.5517  -16.3822   21.5313 C   0  0  1  0  0  0  0  0  0  0  0  0
    8.7691  -17.8113   21.2338 C   0  0  0  0  0  0  0  0  0  0  0  0
    8.0260  -18.3847   20.1184 C   0  0  0  0  0  0  0  0  0  0  0  0
    6.7484  -18.3987   20.1762 O   0  0  0  0  0  0  0  0  0  0  0  0
    9.0935  -16.0115   22.8711 C   0  0  0  0  0  0  0  0  0  0  0  0
   10.3419  -15.8644   22.8964 O   0  0  0  0  0  0  0  0  0  0  0  0
    8.5817  -18.9251   18.9825 O   0  0  0  0  0  0  0  0  0  0  0  0
    6.4525  -10.6467   26.1694 C   0  0  0  0  0  0  0  0  0  0  0  0
    6.5506  -12.3764   26.7544 S   0  0  0  0  0  0  0  0  0  0  0  0
    7.7187  -13.3162   25.7906 C   0  0  0  0  0  0  0  0  0  0  0  0
    7.9040  -14.7361   26.1740 C   0  0  0  0  0  0  0  0  0  0  0  0
    8.8690  -15.5251   25.3568 C   0  0  2  0  0  0  0  0  0  0  0  0
    8.3604  -15.8282   24.0398 N   0  0  0  0  0  0  0  0  0  0  0  0
    9.4990  -16.6635   26.0567 C   0  0  0  0  0  0  0  0  0  0  0  0
    9.1913  -17.8472   25.8840 O   0  0  0  0  0  0  0  0  0  0  0  0
   10.5024  -16.3752   26.9622 O   0  0  0  0  0  0  0  0  0  0  0  0
  2  1  1  6
  3  2  1  0
  4  6  1  0
  4  2  1  0
  5  4  2  0
  7  6  1  0
  7 11  1  0
  7  8  1  6
  9  8  1  0
 10  9  2  0
 11 19  1  0
 12 11  2  0
 13  9  1  0
 15 14  1  0
 16 15  1  0
 17 16  1  0
 18 20  1  0
 18 17  1  1
 19 18  1  0
 20 22  1  0
 21 20  2  0
M  END
$$$$
