TMM.pdb
     RDKit          3D

 24 23  0  0  1  0  0  0  0  0999 V2000
   26.9308  -17.8758  -14.8929 C   0  0  0  0  0  0  0  0  0  0  0  0
   27.2272  -19.1341  -15.7034 C   0  0  1  0  0  0  0  0  0  0  0  0
   28.2522  -18.7241  -16.6088 O   0  0  0  0  0  0  0  0  0  0  0  0
   27.8583  -20.2195  -14.8814 C   0  0  2  0  0  0  0  0  0  0  0  0
   28.1438  -21.3893  -15.7453 N   0  0  0  0  0  0  0  0  0  0  0  0
   27.0986  -20.7232  -13.7505 C   0  0  0  0  0  0  0  0  0  0  0  0
   26.2372  -21.6503  -13.9745 O   0  0  0  0  0  0  0  0  0  0  0  0
   28.0285  -20.2419   -7.1713 C   0  0  0  0  0  0  0  0  0  0  0  0
   26.2566  -19.8846   -7.3391 S   0  0  0  0  0  0  0  0  0  0  0  0
   25.6219  -20.5515   -8.9129 C   0  0  0  0  0  0  0  0  0  0  0  0
   26.5444  -20.2217  -10.0226 C   0  0  0  0  0  0  0  0  0  0  0  0
   26.1609  -20.6460  -11.3922 C   0  0  2  0  0  0  0  0  0  0  0  0
   27.1688  -20.3342  -12.3957 N   0  0  0  0  0  0  0  0  0  0  0  0
   24.8160  -20.3103  -11.8371 C   0  0  0  0  0  0  0  0  0  0  0  0
   24.4492  -19.1944  -12.2813 O   0  0  0  0  0  0  0  0  0  0  0  0
   21.7302  -23.2931  -16.5046 C   0  0  0  0  0  0  0  0  0  0  0  0
   20.4308  -22.9255  -15.3617 S   0  0  0  0  0  0  0  0  0  0  0  0
   20.7981  -21.8181  -14.0154 C   0  0  0  0  0  0  0  0  0  0  0  0
   22.1468  -21.9640  -13.4324 C   0  0  0  0  0  0  0  0  0  0  0  0
   22.4288  -21.0485  -12.3012 C   0  0  2  0  0  0  0  0  0  0  0  0
   23.7980  -21.2998  -11.7817 N   0  0  0  0  0  0  0  0  0  0  0  0
   21.4628  -21.0129  -11.2115 C   0  0  0  0  0  0  0  0  0  0  0  0
   20.1575  -20.5454  -11.5028 O   0  0  0  0  0  0  0  0  0  0  0  0
   21.7088  -21.3615  -10.0612 O   0  0  0  0  0  0  0  0  0  0  0  0
  2  1  1  1
  2  3  1  0
  4  6  1  0
  4  2  1  0
  4  5  1  6
  6  7  2  0
  8  9  1  0
 10 11  1  0
 10  9  1  0
 12 11  1  1
 12 14  1  0
 13 12  1  0
 13  6  1  0
 14 21  1  0
 14 15  2  0
 16 17  1  0
 17 18  1  0
 18 19  1  0
 20 19  1  6
 20 22  1  0
 21 20  1  0
 22 24  2  0
 22 23  1  0
M  END
$$$$
