TMM.pdb
     RDKit          3D

 24 23  0  0  1  0  0  0  0  0999 V2000
   13.3806  -12.6640  -13.3259 C   0  0  0  0  0  0  0  0  0  0  0  0
   14.0535  -11.3873  -12.8304 C   0  0  1  0  0  0  0  0  0  0  0  0
   13.3850  -11.1034  -11.6011 O   0  0  0  0  0  0  0  0  0  0  0  0
   15.4876  -11.5992  -12.4427 C   0  0  2  0  0  0  0  0  0  0  0  0
   15.5600  -12.5921  -11.3449 N   0  0  0  0  0  0  0  0  0  0  0  0
   16.2324  -10.4367  -11.9913 C   0  0  0  0  0  0  0  0  0  0  0  0
   16.0985  -10.0811  -10.7635 O   0  0  0  0  0  0  0  0  0  0  0  0
   22.1420   -6.9595  -13.0180 C   0  0  0  0  0  0  0  0  0  0  0  0
   21.5569   -8.5035  -13.7726 S   0  0  0  0  0  0  0  0  0  0  0  0
   20.0795   -9.1165  -12.8975 C   0  0  0  0  0  0  0  0  0  0  0  0
   19.0249   -8.0779  -12.8753 C   0  0  0  0  0  0  0  0  0  0  0  0
   17.7422   -8.4066  -12.2048 C   0  0  2  0  0  0  0  0  0  0  0  0
   17.1125   -9.6123  -12.7242 N   0  0  0  0  0  0  0  0  0  0  0  0
   16.7907   -7.3192  -12.0264 C   0  0  0  0  0  0  0  0  0  0  0  0
   15.8356   -7.0489  -12.7957 O   0  0  0  0  0  0  0  0  0  0  0  0
   14.7927   -3.9643   -5.9431 C   0  0  0  0  0  0  0  0  0  0  0  0
   13.7722   -4.5389   -7.2691 S   0  0  0  0  0  0  0  0  0  0  0  0
   14.4222   -4.4296   -8.9242 C   0  0  0  0  0  0  0  0  0  0  0  0
   15.3400   -5.5195   -9.3116 C   0  0  0  0  0  0  0  0  0  0  0  0
   15.9623   -5.3524  -10.6465 C   0  0  2  0  0  0  0  0  0  0  0  0
   16.9152   -6.4643  -10.8986 N   0  0  0  0  0  0  0  0  0  0  0  0
   16.5812   -4.0669  -10.9407 C   0  0  0  0  0  0  0  0  0  0  0  0
   15.7261   -2.9641  -11.1847 O   0  0  0  0  0  0  0  0  0  0  0  0
   17.7929   -3.8810  -10.9901 O   0  0  0  0  0  0  0  0  0  0  0  0
  2  1  1  1
  2  3  1  0
  4  6  1  0
  4  2  1  0
  4  5  1  1
  6  7  2  0
  8  9  1  0
 10 11  1  0
 10  9  1  0
 12 11  1  6
 12 14  1  0
 13 12  1  0
 13  6  1  0
 14 21  1  0
 14 15  2  0
 16 17  1  0
 17 18  1  0
 18 19  1  0
 20 19  1  1
 20 22  1  0
 21 20  1  0
 22 24  2  0
 22 23  1  0
M  END
$$$$
