TMM.pdb
     RDKit          3D

 24 23  0  0  1  0  0  0  0  0999 V2000
   20.4567  -32.9227   -5.4219 C   0  0  0  0  0  0  0  0  0  0  0  0
   20.2828  -33.5899   -6.7831 C   0  0  1  0  0  0  0  0  0  0  0  0
   19.2015  -32.8733   -7.3795 O   0  0  0  0  0  0  0  0  0  0  0  0
   21.4472  -33.3523   -7.6995 C   0  0  2  0  0  0  0  0  0  0  0  0
   21.1949  -34.0173   -8.9997 N   0  0  0  0  0  0  0  0  0  0  0  0
   22.7499  -33.8130   -7.2516 C   0  0  0  0  0  0  0  0  0  0  0  0
   22.9519  -35.0814   -7.2059 O   0  0  0  0  0  0  0  0  0  0  0  0
   27.9234  -31.2286   -9.4324 C   0  0  0  0  0  0  0  0  0  0  0  0
   28.1075  -32.9875   -9.0227 S   0  0  0  0  0  0  0  0  0  0  0  0
   26.5436  -33.6510   -8.3605 C   0  0  0  0  0  0  0  0  0  0  0  0
   26.3158  -33.1579   -6.9835 C   0  0  0  0  0  0  0  0  0  0  0  0
   25.0870  -33.6050   -6.2814 C   0  0  2  0  0  0  0  0  0  0  0  0
   23.8655  -33.0495   -6.8467 N   0  0  0  0  0  0  0  0  0  0  0  0
   25.0980  -33.5488   -4.8267 C   0  0  0  0  0  0  0  0  0  0  0  0
   24.9230  -32.5167   -4.1328 O   0  0  0  0  0  0  0  0  0  0  0  0
   21.2082  -36.5104   -0.8688 C   0  0  0  0  0  0  0  0  0  0  0  0
   22.7547  -36.6575   -0.0221 S   0  0  0  0  0  0  0  0  0  0  0  0
   24.1318  -35.7100   -0.6384 C   0  0  0  0  0  0  0  0  0  0  0  0
   24.1721  -35.5417   -2.1048 C   0  0  0  0  0  0  0  0  0  0  0  0
   25.3255  -34.7536   -2.6006 C   0  0  2  0  0  0  0  0  0  0  0  0
   25.3226  -34.7404   -4.0864 N   0  0  0  0  0  0  0  0  0  0  0  0
   26.6445  -35.1037   -2.0911 C   0  0  0  0  0  0  0  0  0  0  0  0
   27.0075  -34.6164   -0.8113 O   0  0  0  0  0  0  0  0  0  0  0  0
   27.4576  -35.7921   -2.6997 O   0  0  0  0  0  0  0  0  0  0  0  0
  2  1  1  1
  2  3  1  0
  4  6  1  0
  4  2  1  0
  4  5  1  6
  6  7  2  0
  8  9  1  0
 10 11  1  0
 10  9  1  0
 12 11  1  6
 12 14  1  0
 13 12  1  0
 13  6  1  0
 14 21  1  0
 14 15  2  0
 16 17  1  0
 17 18  1  0
 18 19  1  0
 20 19  1  6
 20 22  1  0
 21 20  1  0
 22 24  2  0
 22 23  1  0
M  END
$$$$
