TMM.pdb
     RDKit          3D

 24 23  0  0  1  0  0  0  0  0999 V2000
   28.2079  -19.4345  -13.4430 C   0  0  0  0  0  0  0  0  0  0  0  0
   29.1261  -20.6489  -13.3425 C   0  0  1  0  0  0  0  0  0  0  0  0
   30.2458  -20.2994  -14.1565 O   0  0  0  0  0  0  0  0  0  0  0  0
   29.6987  -20.8322  -11.9675 C   0  0  2  0  0  0  0  0  0  0  0  0
   30.6249  -21.9892  -11.9694 N   0  0  0  0  0  0  0  0  0  0  0  0
   28.7607  -21.0623  -10.8826 C   0  0  0  0  0  0  0  0  0  0  0  0
   28.2164  -22.2236  -10.7994 O   0  0  0  0  0  0  0  0  0  0  0  0
   27.7960  -18.2623   -4.7919 C   0  0  0  0  0  0  0  0  0  0  0  0
   27.0202  -19.9004   -4.8930 S   0  0  0  0  0  0  0  0  0  0  0  0
   26.4068  -20.2080   -6.5823 C   0  0  0  0  0  0  0  0  0  0  0  0
   27.5088  -20.0809   -7.5626 C   0  0  0  0  0  0  0  0  0  0  0  0
   27.2136  -20.3975   -8.9822 C   0  0  2  0  0  0  0  0  0  0  0  0
   28.3447  -20.1709   -9.8707 N   0  0  0  0  0  0  0  0  0  0  0  0
   25.9680  -19.8807   -9.5307 C   0  0  0  0  0  0  0  0  0  0  0  0
   25.7066  -18.6701   -9.7391 O   0  0  0  0  0  0  0  0  0  0  0  0
   24.9374  -20.7816  -15.4488 C   0  0  0  0  0  0  0  0  0  0  0  0
   23.3313  -21.1173  -14.7872 S   0  0  0  0  0  0  0  0  0  0  0  0
   22.9992  -20.6049  -13.1136 C   0  0  0  0  0  0  0  0  0  0  0  0
   24.0769  -20.8878  -12.1447 C   0  0  0  0  0  0  0  0  0  0  0  0
   23.8110  -20.3986  -10.7709 C   0  0  2  0  0  0  0  0  0  0  0  0
   24.9301  -20.7879   -9.8744 N   0  0  0  0  0  0  0  0  0  0  0  0
   22.5282  -20.7441  -10.1734 C   0  0  0  0  0  0  0  0  0  0  0  0
   21.3560  -20.2516  -10.7984 O   0  0  0  0  0  0  0  0  0  0  0  0
   22.4007  -21.4327   -9.1660 O   0  0  0  0  0  0  0  0  0  0  0  0
  2  1  1  1
  2  3  1  0
  4  6  1  0
  4  2  1  0
  4  5  1  6
  6  7  2  0
  8  9  1  0
 10 11  1  0
 10  9  1  0
 12 11  1  1
 12 14  1  0
 13 12  1  0
 13  6  1  0
 14 21  1  0
 14 15  2  0
 16 17  1  0
 17 18  1  0
 18 19  1  0
 20 19  1  6
 20 22  1  0
 21 20  1  0
 22 24  2  0
 22 23  1  0
M  END
$$$$
