TMM.pdb
     RDKit          3D

 24 23  0  0  1  0  0  0  0  0999 V2000
   29.1833  -11.4417  -17.7893 C   0  0  0  0  0  0  0  0  0  0  0  0
   27.8018  -10.8660  -17.4925 C   0  0  1  0  0  0  0  0  0  0  0  0
   27.4249  -10.2334  -18.7157 O   0  0  0  0  0  0  0  0  0  0  0  0
   26.7635  -11.9281  -17.2785 C   0  0  2  0  0  0  0  0  0  0  0  0
   26.6928  -12.7970  -18.4769 N   0  0  0  0  0  0  0  0  0  0  0  0
   25.4053  -11.4858  -17.0146 C   0  0  0  0  0  0  0  0  0  0  0  0
   24.6033  -11.3897  -18.0143 O   0  0  0  0  0  0  0  0  0  0  0  0
   21.2402  -15.5111  -13.9449 C   0  0  0  0  0  0  0  0  0  0  0  0
   21.4368  -13.7354  -13.6225 S   0  0  0  0  0  0  0  0  0  0  0  0
   22.4428  -12.9613  -14.9313 C   0  0  0  0  0  0  0  0  0  0  0  0
   22.6884  -11.5354  -14.6181 C   0  0  0  0  0  0  0  0  0  0  0  0
   23.4275  -10.7236  -15.6168 C   0  0  2  0  0  0  0  0  0  0  0  0
   24.8143  -11.1353  -15.7820 N   0  0  0  0  0  0  0  0  0  0  0  0
   23.2872   -9.2772  -15.5287 C   0  0  0  0  0  0  0  0  0  0  0  0
   24.1167   -8.4919  -15.0067 O   0  0  0  0  0  0  0  0  0  0  0  0
   21.3477   -3.0451  -19.7520 C   0  0  0  0  0  0  0  0  0  0  0  0
   21.4931   -4.7801  -19.4379 S   0  0  0  0  0  0  0  0  0  0  0  0
   21.7192   -5.3019  -17.7496 C   0  0  0  0  0  0  0  0  0  0  0  0
   21.8187   -6.7618  -17.5516 C   0  0  0  0  0  0  0  0  0  0  0  0
   21.9892   -7.1793  -16.1395 C   0  0  2  0  0  0  0  0  0  0  0  0
   22.1277   -8.6569  -16.0665 N   0  0  0  0  0  0  0  0  0  0  0  0
   21.0030   -6.7062  -15.1774 C   0  0  0  0  0  0  0  0  0  0  0  0
   21.1814   -5.4101  -14.6340 O   0  0  0  0  0  0  0  0  0  0  0  0
   20.0310   -7.3585  -14.8101 O   0  0  0  0  0  0  0  0  0  0  0  0
  2  1  1  6
  2  3  1  0
  4  6  1  0
  4  2  1  0
  4  5  1  6
  6  7  2  0
  8  9  1  0
 10 11  1  0
 10  9  1  0
 12 11  1  1
 12 14  1  0
 13 12  1  0
 13  6  1  0
 14 21  1  0
 14 15  2  0
 16 17  1  0
 17 18  1  0
 18 19  1  0
 20 19  1  6
 20 22  1  0
 21 20  1  0
 22 24  2  0
 22 23  1  0
M  END
$$$$
