TMM.pdb
     RDKit          3D

 24 23  0  0  1  0  0  0  0  0999 V2000
   18.6600  -14.0582    3.2206 C   0  0  0  0  0  0  0  0  0  0  0  0
   17.3645  -13.6736    3.9291 C   0  0  1  0  0  0  0  0  0  0  0  0
   16.6532  -12.9131    2.9523 O   0  0  0  0  0  0  0  0  0  0  0  0
   16.4817  -14.8548    4.2074 C   0  0  2  0  0  0  0  0  0  0  0  0
   15.2360  -14.3950    4.8656 N   0  0  0  0  0  0  0  0  0  0  0  0
   17.0245  -15.9058    5.0503 C   0  0  0  0  0  0  0  0  0  0  0  0
   17.0082  -15.7202    6.3220 O   0  0  0  0  0  0  0  0  0  0  0  0
   20.7298  -22.9778    5.8506 C   0  0  0  0  0  0  0  0  0  0  0  0
   19.8121  -21.7926    4.8266 S   0  0  0  0  0  0  0  0  0  0  0  0
   19.5483  -20.2369    5.7402 C   0  0  0  0  0  0  0  0  0  0  0  0
   18.7368  -19.2966    4.9347 C   0  0  0  0  0  0  0  0  0  0  0  0
   18.4249  -17.9703    5.5232 C   0  0  2  0  0  0  0  0  0  0  0  0
   17.5849  -17.1434    4.6684 N   0  0  0  0  0  0  0  0  0  0  0  0
   19.5348  -17.2228    6.0966 C   0  0  0  0  0  0  0  0  0  0  0  0
   20.3016  -16.4529    5.4669 O   0  0  0  0  0  0  0  0  0  0  0  0
   21.3889  -11.8765    6.7514 C   0  0  0  0  0  0  0  0  0  0  0  0
   21.3813  -12.4982    8.4077 S   0  0  0  0  0  0  0  0  0  0  0  0
   21.6350  -14.2463    8.6393 C   0  0  0  0  0  0  0  0  0  0  0  0
   20.6417  -15.1177    7.9804 C   0  0  0  0  0  0  0  0  0  0  0  0
   20.8965  -16.5692    8.1405 C   0  0  2  0  0  0  0  0  0  0  0  0
   19.8117  -17.3443    7.4848 N   0  0  0  0  0  0  0  0  0  0  0  0
   21.1386  -17.0618    9.4898 C   0  0  0  0  0  0  0  0  0  0  0  0
   22.4349  -16.8852   10.0334 O   0  0  0  0  0  0  0  0  0  0  0  0
   20.2922  -17.6183   10.1821 O   0  0  0  0  0  0  0  0  0  0  0  0
  2  1  1  6
  2  3  1  0
  4  6  1  0
  4  2  1  0
  4  5  1  1
  6  7  2  0
  8  9  1  0
 10 11  1  0
 10  9  1  0
 12 11  1  6
 12 14  1  0
 13 12  1  0
 13  6  1  0
 14 21  1  0
 14 15  2  0
 16 17  1  0
 17 18  1  0
 18 19  1  0
 20 19  1  1
 20 22  1  0
 21 20  1  0
 22 24  2  0
 22 23  1  0
M  END
$$$$
