TMM.pdb
     RDKit          3D

 24 23  0  0  1  0  0  0  0  0999 V2000
   26.9863  -17.5995  -14.4783 C   0  0  0  0  0  0  0  0  0  0  0  0
   27.4253  -18.8168  -15.2867 C   0  0  1  0  0  0  0  0  0  0  0  0
   28.5469  -18.3449  -16.0336 O   0  0  0  0  0  0  0  0  0  0  0  0
   27.9767  -19.9168  -14.4277 C   0  0  2  0  0  0  0  0  0  0  0  0
   28.4839  -21.0093  -15.2910 N   0  0  0  0  0  0  0  0  0  0  0  0
   27.0692  -20.5357  -13.4773 C   0  0  0  0  0  0  0  0  0  0  0  0
   26.5037  -21.6374  -13.8214 O   0  0  0  0  0  0  0  0  0  0  0  0
   26.9113  -18.9104   -7.3498 C   0  0  0  0  0  0  0  0  0  0  0  0
   26.6286  -20.7025   -7.4129 S   0  0  0  0  0  0  0  0  0  0  0  0
   26.5602  -21.2727   -9.1434 C   0  0  0  0  0  0  0  0  0  0  0  0
   25.7192  -20.3630   -9.9537 C   0  0  0  0  0  0  0  0  0  0  0  0
   25.6022  -20.6380  -11.4075 C   0  0  2  0  0  0  0  0  0  0  0  0
   26.7044  -20.0936  -12.1877 N   0  0  0  0  0  0  0  0  0  0  0  0
   24.3092  -20.3857  -12.0270 C   0  0  0  0  0  0  0  0  0  0  0  0
   24.0327  -19.4152  -12.7747 O   0  0  0  0  0  0  0  0  0  0  0  0
   23.0953  -24.7387  -16.4104 C   0  0  0  0  0  0  0  0  0  0  0  0
   21.6385  -24.6248  -15.4130 S   0  0  0  0  0  0  0  0  0  0  0  0
   21.3617  -23.1095  -14.5180 C   0  0  0  0  0  0  0  0  0  0  0  0
   22.3611  -22.8049  -13.4745 C   0  0  0  0  0  0  0  0  0  0  0  0
   22.1594  -21.5044  -12.7925 C   0  0  2  0  0  0  0  0  0  0  0  0
   23.2379  -21.2892  -11.7934 N   0  0  0  0  0  0  0  0  0  0  0  0
   20.8519  -21.2540  -12.2010 C   0  0  0  0  0  0  0  0  0  0  0  0
   19.7675  -21.0080  -13.0789 O   0  0  0  0  0  0  0  0  0  0  0  0
   20.6326  -21.2431  -10.9939 O   0  0  0  0  0  0  0  0  0  0  0  0
  2  1  1  1
  2  3  1  0
  4  6  1  0
  4  2  1  0
  4  5  1  6
  6  7  2  0
  8  9  1  0
 10 11  1  0
 10  9  1  0
 12 11  1  1
 12 14  1  0
 13 12  1  0
 13  6  1  0
 14 21  1  0
 14 15  2  0
 16 17  1  0
 17 18  1  0
 18 19  1  0
 20 19  1  1
 20 22  1  0
 21 20  1  0
 22 24  2  0
 22 23  1  0
M  END
$$$$
