KAP.pdb
     RDKit          3D

 22 22  0  0  1  0  0  0  0  0999 V2000
   20.9791  -13.3916  -18.8677 N   0  0  0  0  0  0  0  0  0  0  0  0
   21.9812  -12.4116  -18.6346 C   0  0  1  0  0  0  0  0  0  0  0  0
   22.3703  -11.5030  -19.7194 C   0  0  0  0  0  0  0  0  0  0  0  0
   23.0417  -12.0456  -20.9018 C   0  0  0  0  0  0  0  0  0  0  0  0
   22.7971  -13.3472  -21.4925 C   0  0  0  0  0  0  0  0  0  0  0  0
   23.4743  -13.8129  -22.7145 C   0  0  0  0  0  0  0  0  0  0  0  0
   24.4277  -12.9009  -23.2944 N   0  0  0  0  0  0  0  0  0  0  0  0
   21.6686  -11.6436  -17.3581 C   0  0  0  0  0  0  0  0  0  0  0  0
   20.4645  -11.5776  -17.0207 O   0  0  0  0  0  0  0  0  0  0  0  0
   23.5410  -10.5575  -14.4103 C   0  0  0  0  0  0  0  0  0  0  0  0
   22.3625  -10.3255  -15.3321 C   0  0  2  0  0  0  0  0  0  0  0  0
   22.6402  -11.0269  -16.5690 N   0  0  0  0  0  0  0  0  0  0  0  0
   22.2161   -8.8429  -15.6173 C   0  0  0  0  0  0  0  0  0  0  0  0
   23.2312   -8.3067  -16.1538 O   0  0  0  0  0  0  0  0  0  0  0  0
   21.0291   -8.1824  -15.2894 N   0  0  0  0  0  0  0  0  0  0  0  0
   19.7395   -8.8743  -15.0932 C   0  0  0  0  0  0  0  0  0  0  0  0
   19.3276   -8.2849  -13.7732 C   0  0  0  0  0  0  0  0  0  0  0  0
   20.0470   -6.9586  -13.6538 C   0  0  0  0  0  0  0  0  0  0  0  0
   20.6921   -6.8323  -15.0639 C   0  0  1  0  0  0  0  0  0  0  0  0
   21.7082   -5.8041  -15.0728 C   0  0  0  0  0  0  0  0  0  0  0  0
   21.6375   -4.4770  -15.3957 O   0  0  0  0  0  0  0  0  0  0  0  0
   22.8879   -6.1969  -14.7167 O   0  0  0  0  0  0  0  0  0  0  0  0
  2  1  1  6
  2  3  1  0
  2  8  1  0
  4  3  1  0
  5  4  1  0
  6  5  1  0
  7  6  1  0
  8 12  1  0
  8  9  2  0
 11 10  1  1
 12 11  1  0
 13 11  1  0
 13 14  2  0
 15 13  1  0
 16 15  1  0
 17 18  1  0
 17 16  1  0
 18 19  1  0
 19 15  1  0
 19 20  1  1
 20 21  1  0
 22 20  2  0
M  END
$$$$
