KAP.pdb
     RDKit          3D

 22 22  0  0  1  0  0  0  0  0999 V2000
   28.1524  -21.9027  -18.1057 N   0  0  0  0  0  0  0  0  0  0  0  0
   27.8049  -22.7053  -16.9859 C   0  0  1  0  0  0  0  0  0  0  0  0
   28.6218  -23.8789  -16.6560 C   0  0  0  0  0  0  0  0  0  0  0  0
   27.9692  -25.1758  -16.4686 C   0  0  0  0  0  0  0  0  0  0  0  0
   26.6625  -25.5481  -16.9758 C   0  0  0  0  0  0  0  0  0  0  0  0
   26.0260  -26.8422  -16.6779 C   0  0  0  0  0  0  0  0  0  0  0  0
   24.6632  -26.9924  -17.1219 N   0  0  0  0  0  0  0  0  0  0  0  0
   27.5875  -21.8241  -15.7639 C   0  0  0  0  0  0  0  0  0  0  0  0
   28.6033  -21.5299  -15.0934 O   0  0  0  0  0  0  0  0  0  0  0  0
   25.8462  -19.1026  -14.7135 C   0  0  0  0  0  0  0  0  0  0  0  0
   26.1158  -20.5045  -14.2093 C   0  0  2  0  0  0  0  0  0  0  0  0
   26.3385  -21.3429  -15.3698 N   0  0  0  0  0  0  0  0  0  0  0  0
   24.9109  -21.0168  -13.4434 C   0  0  0  0  0  0  0  0  0  0  0  0
   23.9009  -21.2772  -14.1629 O   0  0  0  0  0  0  0  0  0  0  0  0
   24.9773  -21.1660  -12.0556 N   0  0  0  0  0  0  0  0  0  0  0  0
   26.2404  -21.3653  -11.3174 C   0  0  0  0  0  0  0  0  0  0  0  0
   26.0863  -20.3158  -10.2524 C   0  0  0  0  0  0  0  0  0  0  0  0
   24.6003  -20.0655  -10.1103 C   0  0  0  0  0  0  0  0  0  0  0  0
   24.0137  -21.1775  -11.0267 C   0  0  1  0  0  0  0  0  0  0  0  0
   22.6201  -20.9226  -11.3145 C   0  0  0  0  0  0  0  0  0  0  0  0
   21.4833  -21.3335  -10.6748 O   0  0  0  0  0  0  0  0  0  0  0  0
   22.4018  -20.1814  -12.3516 O   0  0  0  0  0  0  0  0  0  0  0  0
  2  1  1  6
  2  3  1  0
  2  8  1  0
  4  3  1  0
  5  4  1  0
  6  5  1  0
  7  6  1  0
  8 12  1  0
  8  9  2  0
 11 10  1  6
 12 11  1  0
 13 11  1  0
 13 14  2  0
 15 13  1  0
 16 15  1  0
 17 18  1  0
 17 16  1  0
 18 19  1  0
 19 15  1  0
 19 20  1  6
 20 21  1  0
 22 20  2  0
M  END
$$$$
