KAP.pdb
     RDKit          3D

 22 22  0  0  1  0  0  0  0  0999 V2000
   27.6286  -20.9702  -17.8531 N   0  0  0  0  0  0  0  0  0  0  0  0
   27.5519  -21.6650  -16.6160 C   0  0  1  0  0  0  0  0  0  0  0  0
   28.7551  -22.3027  -16.0690 C   0  0  0  0  0  0  0  0  0  0  0  0
   28.9034  -23.7558  -16.1680 C   0  0  0  0  0  0  0  0  0  0  0  0
   28.5401  -24.5685  -17.3128 C   0  0  0  0  0  0  0  0  0  0  0  0
   27.9713  -25.9211  -17.1874 C   0  0  0  0  0  0  0  0  0  0  0  0
   28.8389  -26.9203  -16.6166 N   0  0  0  0  0  0  0  0  0  0  0  0
   26.8679  -20.7926  -15.5729 C   0  0  0  0  0  0  0  0  0  0  0  0
   27.5638  -19.8959  -15.0442 O   0  0  0  0  0  0  0  0  0  0  0  0
   23.8526  -19.2911  -14.8341 C   0  0  0  0  0  0  0  0  0  0  0  0
   24.8873  -20.1644  -14.1564 C   0  0  2  0  0  0  0  0  0  0  0  0
   25.5345  -20.9452  -15.1912 N   0  0  0  0  0  0  0  0  0  0  0  0
   24.2082  -21.0985  -13.1731 C   0  0  0  0  0  0  0  0  0  0  0  0
   23.3846  -21.9067  -13.6967 O   0  0  0  0  0  0  0  0  0  0  0  0
   24.5126  -21.0206  -11.8115 N   0  0  0  0  0  0  0  0  0  0  0  0
   25.8864  -20.8714  -11.2914 C   0  0  0  0  0  0  0  0  0  0  0  0
   25.6826  -19.7183  -10.3488 C   0  0  0  0  0  0  0  0  0  0  0  0
   24.2158  -19.7251   -9.9754 C   0  0  0  0  0  0  0  0  0  0  0  0
   23.7387  -21.0516  -10.6336 C   0  0  1  0  0  0  0  0  0  0  0  0
   22.2953  -21.1023  -10.6972 C   0  0  0  0  0  0  0  0  0  0  0  0
   21.3857  -21.7490   -9.9068 O   0  0  0  0  0  0  0  0  0  0  0  0
   21.7655  -20.4242  -11.6627 O   0  0  0  0  0  0  0  0  0  0  0  0
  2  1  1  6
  2  3  1  0
  2  8  1  0
  4  3  1  0
  5  4  1  0
  6  5  1  0
  7  6  1  0
  8 12  1  0
  8  9  2  0
 11 10  1  6
 12 11  1  0
 13 11  1  0
 13 14  2  0
 15 13  1  0
 16 15  1  0
 17 18  1  0
 17 16  1  0
 18 19  1  0
 19 15  1  0
 19 20  1  6
 20 21  1  0
 22 20  2  0
M  END
$$$$
