KAP.pdb
     RDKit          3D

 22 22  0  0  1  0  0  0  0  0999 V2000
   28.3608  -18.0002  -17.3497 N   0  0  0  0  0  0  0  0  0  0  0  0
   27.1052  -18.5110  -17.7759 C   0  0  1  0  0  0  0  0  0  0  0  0
   27.0533  -19.7762  -18.5176 C   0  0  0  0  0  0  0  0  0  0  0  0
   27.8512  -20.9121  -18.0525 C   0  0  0  0  0  0  0  0  0  0  0  0
   27.3263  -22.1614  -17.5359 C   0  0  0  0  0  0  0  0  0  0  0  0
   28.1877  -23.2579  -17.0624 C   0  0  0  0  0  0  0  0  0  0  0  0
   27.5082  -24.4539  -16.6323 N   0  0  0  0  0  0  0  0  0  0  0  0
   26.1246  -18.5142  -16.6117 C   0  0  0  0  0  0  0  0  0  0  0  0
   26.6162  -18.5545  -15.4607 O   0  0  0  0  0  0  0  0  0  0  0  0
   23.1555  -17.0524  -15.6895 C   0  0  0  0  0  0  0  0  0  0  0  0
   23.7945  -18.4249  -15.6700 C   0  0  2  0  0  0  0  0  0  0  0  0
   24.7386  -18.4748  -16.7679 N   0  0  0  0  0  0  0  0  0  0  0  0
   22.7332  -19.4898  -15.8714 C   0  0  0  0  0  0  0  0  0  0  0  0
   22.1109  -19.4120  -16.9725 O   0  0  0  0  0  0  0  0  0  0  0  0
   22.5108  -20.4504  -14.8812 N   0  0  0  0  0  0  0  0  0  0  0  0
   23.4321  -20.6834  -13.7511 C   0  0  0  0  0  0  0  0  0  0  0  0
   22.4557  -20.6449  -12.6089 C   0  0  0  0  0  0  0  0  0  0  0  0
   21.1029  -20.9950  -13.1905 C   0  0  0  0  0  0  0  0  0  0  0  0
   21.4884  -21.3916  -14.6447 C   0  0  1  0  0  0  0  0  0  0  0  0
   20.3170  -21.4406  -15.4905 C   0  0  0  0  0  0  0  0  0  0  0  0
   19.5742  -22.5007  -15.9319 O   0  0  0  0  0  0  0  0  0  0  0  0
   19.8926  -20.2915  -15.9053 O   0  0  0  0  0  0  0  0  0  0  0  0
  2  1  1  1
  2  3  1  0
  2  8  1  0
  4  3  1  0
  5  4  1  0
  6  5  1  0
  7  6  1  0
  8 12  1  0
  8  9  2  0
 11 10  1  6
 12 11  1  0
 13 11  1  0
 13 14  2  0
 15 13  1  0
 16 15  1  0
 17 18  1  0
 17 16  1  0
 18 19  1  0
 19 15  1  0
 19 20  1  6
 20 21  1  0
 22 20  2  0
M  END
$$$$
