KAP.pdb
     RDKit          3D

 22 22  0  0  1  0  0  0  0  0999 V2000
   25.2919  -20.9603  -17.0206 N   0  0  0  0  0  0  0  0  0  0  0  0
   24.9268  -20.0264  -16.0139 C   0  0  1  0  0  0  0  0  0  0  0  0
   25.6508  -20.0192  -14.7374 C   0  0  0  0  0  0  0  0  0  0  0  0
   25.6121  -21.2092  -13.8856 C   0  0  0  0  0  0  0  0  0  0  0  0
   24.7267  -22.3450  -14.0563 C   0  0  0  0  0  0  0  0  0  0  0  0
   24.7265  -23.5046  -13.1486 C   0  0  0  0  0  0  0  0  0  0  0  0
   24.0921  -23.3054  -11.8700 N   0  0  0  0  0  0  0  0  0  0  0  0
   24.8454  -18.6277  -16.6091 C   0  0  0  0  0  0  0  0  0  0  0  0
   25.8804  -18.1889  -17.1607 O   0  0  0  0  0  0  0  0  0  0  0  0
   22.9050  -16.7030  -18.5123 C   0  0  0  0  0  0  0  0  0  0  0  0
   23.5892  -16.5237  -17.1736 C   0  0  2  0  0  0  0  0  0  0  0  0
   23.6977  -17.8353  -16.5676 N   0  0  0  0  0  0  0  0  0  0  0  0
   22.7507  -15.6268  -16.2829 C   0  0  0  0  0  0  0  0  0  0  0  0
   21.5793  -16.0544  -16.0575 O   0  0  0  0  0  0  0  0  0  0  0  0
   23.2888  -14.4374  -15.7845 N   0  0  0  0  0  0  0  0  0  0  0  0
   24.7387  -14.1943  -15.6466 C   0  0  0  0  0  0  0  0  0  0  0  0
   24.8422  -12.8557  -16.3224 C   0  0  0  0  0  0  0  0  0  0  0  0
   23.4706  -12.2224  -16.2298 C   0  0  0  0  0  0  0  0  0  0  0  0
   22.7280  -13.2341  -15.3103 C   0  0  1  0  0  0  0  0  0  0  0  0
   21.2997  -13.0147  -15.3550 C   0  0  0  0  0  0  0  0  0  0  0  0
   20.4209  -12.6329  -14.3792 O   0  0  0  0  0  0  0  0  0  0  0  0
   20.7513  -13.2111  -16.5097 O   0  0  0  0  0  0  0  0  0  0  0  0
  2  1  1  6
  2  3  1  0
  2  8  1  0
  4  3  1  0
  5  4  1  0
  6  5  1  0
  7  6  1  0
  8 12  1  0
  8  9  2  0
 11 10  1  6
 12 11  1  0
 13 11  1  0
 13 14  2  0
 15 13  1  0
 16 15  1  0
 17 18  1  0
 17 16  1  0
 18 19  1  0
 19 15  1  0
 19 20  1  6
 20 21  1  0
 22 20  2  0
M  END
$$$$
