KAP.pdb
     RDKit          3D

 22 22  0  0  1  0  0  0  0  0999 V2000
   20.1778  -13.6498  -18.8735 N   0  0  0  0  0  0  0  0  0  0  0  0
   19.4278  -13.1254  -17.7865 C   0  0  1  0  0  0  0  0  0  0  0  0
   19.2495  -13.9335  -16.5745 C   0  0  0  0  0  0  0  0  0  0  0  0
   18.6278  -15.2547  -16.6798 C   0  0  0  0  0  0  0  0  0  0  0  0
   18.4442  -16.1941  -15.5904 C   0  0  0  0  0  0  0  0  0  0  0  0
   17.8860  -17.5434  -15.7810 C   0  0  0  0  0  0  0  0  0  0  0  0
   17.7452  -18.3424  -14.5899 N   0  0  0  0  0  0  0  0  0  0  0  0
   19.9163  -11.7242  -17.4476 C   0  0  0  0  0  0  0  0  0  0  0  0
   21.1558  -11.5462  -17.4390 O   0  0  0  0  0  0  0  0  0  0  0  0
   18.5417   -8.3422  -17.3862 C   0  0  0  0  0  0  0  0  0  0  0  0
   19.5155   -9.3323  -16.7828 C   0  0  2  0  0  0  0  0  0  0  0  0
   19.0650  -10.6583  -17.1542 N   0  0  0  0  0  0  0  0  0  0  0  0
   19.5091   -9.2047  -15.2713 C   0  0  0  0  0  0  0  0  0  0  0  0
   18.4827   -9.6869  -14.7060 O   0  0  0  0  0  0  0  0  0  0  0  0
   20.5819   -8.5928  -14.6176 N   0  0  0  0  0  0  0  0  0  0  0  0
   21.8832   -8.3256  -15.2623 C   0  0  0  0  0  0  0  0  0  0  0  0
   22.0588   -6.8772  -14.9004 C   0  0  0  0  0  0  0  0  0  0  0  0
   21.2254   -6.6423  -13.6589 C   0  0  0  0  0  0  0  0  0  0  0  0
   20.7746   -8.0910  -13.3144 C   0  0  1  0  0  0  0  0  0  0  0  0
   19.6901   -8.0769  -12.3585 C   0  0  0  0  0  0  0  0  0  0  0  0
   18.4448   -7.5157  -12.4245 O   0  0  0  0  0  0  0  0  0  0  0  0
   19.9296   -8.6977  -11.2495 O   0  0  0  0  0  0  0  0  0  0  0  0
  2  1  1  6
  2  3  1  0
  2  8  1  0
  4  3  1  0
  5  4  1  0
  6  5  1  0
  7  6  1  0
  8 12  1  0
  8  9  2  0
 11 10  1  6
 12 11  1  0
 13 11  1  0
 13 14  2  0
 15 13  1  0
 16 15  1  0
 17 18  1  0
 17 16  1  0
 18 19  1  0
 19 15  1  0
 19 20  1  1
 20 21  1  0
 22 20  2  0
M  END
$$$$
