FAD.pdb
     RDKit          3D

 25 25  0  0  1  0  0  0  0  0999 V2000
    6.0877  -16.5457   25.2285 N   0  0  0  0  0  0  0  0  0  0  0  0
    7.0864  -15.7065   24.6441 C   0  0  1  0  0  0  0  0  0  0  0  0
    7.8887  -14.9462   25.6883 C   0  0  0  0  0  0  0  0  0  0  0  0
    7.3024  -13.6192   25.9796 C   0  0  0  0  0  0  0  0  0  0  0  0
    7.8513  -12.5066   25.3774 C   0  0  0  0  0  0  0  0  0  0  0  0
    7.3389  -11.2382   25.6165 C   0  0  0  0  0  0  0  0  0  0  0  0
    6.2659  -11.0651   26.4651 C   0  0  0  0  0  0  0  0  0  0  0  0
    5.7206  -12.1789   27.0645 C   0  0  0  0  0  0  0  0  0  0  0  0
    6.2313  -13.4472   26.8268 C   0  0  0  0  0  0  0  0  0  0  0  0
    8.0089  -16.4064   23.7467 C   0  0  0  0  0  0  0  0  0  0  0  0
    8.2812  -17.6106   24.0097 O   0  0  0  0  0  0  0  0  0  0  0  0
    9.7422  -15.8702   20.4300 C   0  0  0  0  0  0  0  0  0  0  0  0
    9.4691  -16.5865   21.7126 C   0  0  2  0  0  0  0  0  0  0  0  0
    8.6257  -15.8468   22.6028 N   0  0  0  0  0  0  0  0  0  0  0  0
   10.7335  -17.0268   22.3202 C   0  0  0  0  0  0  0  0  0  0  0  0
   11.4277  -17.8820   21.7127 O   0  0  0  0  0  0  0  0  0  0  0  0
   11.2373  -16.5504   23.5623 N   0  0  0  0  0  0  0  0  0  0  0  0
   12.4077  -17.1502   24.2005 C   0  0  1  0  0  0  0  0  0  0  0  0
   13.4517  -16.0559   24.2697 C   0  0  0  0  0  0  0  0  0  0  0  0
   14.2473  -15.9434   23.0326 C   0  0  0  0  0  0  0  0  0  0  0  0
   14.0125  -16.6927   22.0626 O   0  0  0  0  0  0  0  0  0  0  0  0
   12.0601  -17.7162   25.5232 C   0  0  0  0  0  0  0  0  0  0  0  0
   10.9599  -17.4858   26.0806 O   0  0  0  0  0  0  0  0  0  0  0  0
   15.2569  -14.9989   22.9578 O   0  0  0  0  0  0  0  0  0  0  0  0
   12.9574  -18.5332   26.1975 O   0  0  0  0  0  0  0  0  0  0  0  0
  2  1  1  1
  2  3  1  0
  4  5  2  0
  4  3  1  0
  6  5  1  0
  7  6  2  0
  8  7  1  0
  8  9  2  0
  9  4  1  0
 10  2  1  0
 11 10  2  0
 13 12  1  6
 13 14  1  0
 14 10  1  0
 15 16  2  0
 15 13  1  0
 17 15  1  0
 18 17  1  0
 18 19  1  1
 20 21  2  0
 20 19  1  0
 22 25  1  0
 22 18  1  0
 23 22  2  0
 24 20  1  0
M  END
$$$$
