FAD.pdb
     RDKit          3D

 25 25  0  0  1  0  0  0  0  0999 V2000
    6.0347  -17.4435   25.7194 N   0  0  0  0  0  0  0  0  0  0  0  0
    6.5736  -16.2278   25.1953 C   0  0  1  0  0  0  0  0  0  0  0  0
    7.6042  -15.6029   26.1226 C   0  0  0  0  0  0  0  0  0  0  0  0
    7.3503  -14.1618   26.3425 C   0  0  0  0  0  0  0  0  0  0  0  0
    8.3780  -13.2682   26.1257 C   0  0  0  0  0  0  0  0  0  0  0  0
    8.1926  -11.9053   26.3172 C   0  0  0  0  0  0  0  0  0  0  0  0
    6.9713  -11.4160   26.7300 C   0  0  0  0  0  0  0  0  0  0  0  0
    5.9475  -12.3118   26.9453 C   0  0  0  0  0  0  0  0  0  0  0  0
    6.1308  -13.6742   26.7545 C   0  0  0  0  0  0  0  0  0  0  0  0
    7.1498  -16.3552   23.8545 C   0  0  0  0  0  0  0  0  0  0  0  0
    7.6649  -17.4643   23.5413 O   0  0  0  0  0  0  0  0  0  0  0  0
    7.5778  -14.3055   20.6941 C   0  0  0  0  0  0  0  0  0  0  0  0
    7.7325  -15.5111   21.5631 C   0  0  2  0  0  0  0  0  0  0  0  0
    7.1797  -15.3367   22.8727 N   0  0  0  0  0  0  0  0  0  0  0  0
    9.1351  -15.9522   21.5639 C   0  0  0  0  0  0  0  0  0  0  0  0
    9.6591  -16.2945   20.4728 O   0  0  0  0  0  0  0  0  0  0  0  0
    9.9553  -16.0215   22.7241 N   0  0  0  0  0  0  0  0  0  0  0  0
   11.3091  -16.5711   22.6793 C   0  0  1  0  0  0  0  0  0  0  0  0
   12.2436  -15.3801   22.6983 C   0  0  0  0  0  0  0  0  0  0  0  0
   13.6652  -15.7652   22.6139 C   0  0  0  0  0  0  0  0  0  0  0  0
   14.3462  -15.8904   23.6521 O   0  0  0  0  0  0  0  0  0  0  0  0
   11.5366  -17.5153   23.7963 C   0  0  0  0  0  0  0  0  0  0  0  0
   10.7933  -17.5468   24.8066 O   0  0  0  0  0  0  0  0  0  0  0  0
   14.2364  -15.9865   21.3723 O   0  0  0  0  0  0  0  0  0  0  0  0
   12.5979  -18.4093   23.7578 O   0  0  0  0  0  0  0  0  0  0  0  0
  2  1  1  1
  2  3  1  0
  4  5  2  0
  4  3  1  0
  6  5  1  0
  7  6  2  0
  8  7  1  0
  8  9  2  0
  9  4  1  0
 10  2  1  0
 11 10  2  0
 13 12  1  6
 13 14  1  0
 14 10  1  0
 15 16  2  0
 15 13  1  0
 17 15  1  0
 18 17  1  0
 18 19  1  1
 20 21  2  0
 20 19  1  0
 22 25  1  0
 22 18  1  0
 23 22  2  0
 24 20  1  0
M  END
$$$$
