FAD.pdb
     RDKit          3D

 25 25  0  0  1  0  0  0  0  0999 V2000
    8.2863  -14.3023   23.4008 N   0  0  0  0  0  0  0  0  0  0  0  0
    8.8019  -15.0846   24.4803 C   0  0  1  0  0  0  0  0  0  0  0  0
    7.7722  -15.3110   25.5760 C   0  0  0  0  0  0  0  0  0  0  0  0
    7.1801  -14.0409   26.0512 C   0  0  0  0  0  0  0  0  0  0  0  0
    8.0166  -13.0713   26.5627 C   0  0  0  0  0  0  0  0  0  0  0  0
    7.5122  -11.8616   27.0219 C   0  0  0  0  0  0  0  0  0  0  0  0
    6.1583  -11.6047   26.9753 C   0  0  0  0  0  0  0  0  0  0  0  0
    5.3262  -12.5757   26.4638 C   0  0  0  0  0  0  0  0  0  0  0  0
    5.8283  -13.7852   26.0043 C   0  0  0  0  0  0  0  0  0  0  0  0
    9.3604  -16.3762   24.0728 C   0  0  0  0  0  0  0  0  0  0  0  0
    9.6131  -17.2173   24.9794 O   0  0  0  0  0  0  0  0  0  0  0  0
    9.8404  -18.5138   21.0468 C   0  0  0  0  0  0  0  0  0  0  0  0
   10.2540  -18.0134   22.3925 C   0  0  2  0  0  0  0  0  0  0  0  0
    9.6432  -16.7662   22.7423 N   0  0  0  0  0  0  0  0  0  0  0  0
   11.7206  -18.0068   22.4962 C   0  0  0  0  0  0  0  0  0  0  0  0
   12.3351  -19.1010   22.4103 O   0  0  0  0  0  0  0  0  0  0  0  0
   12.5076  -16.8376   22.6892 N   0  0  0  0  0  0  0  0  0  0  0  0
   13.9592  -16.9031   22.8490 C   0  0  1  0  0  0  0  0  0  0  0  0
   14.4799  -15.5252   22.4991 C   0  0  0  0  0  0  0  0  0  0  0  0
   15.9529  -15.4469   22.5186 C   0  0  0  0  0  0  0  0  0  0  0  0
   16.6328  -16.4498   22.8173 O   0  0  0  0  0  0  0  0  0  0  0  0
   14.3242  -17.3406   24.2151 C   0  0  0  0  0  0  0  0  0  0  0  0
   15.3517  -18.0225   24.4463 O   0  0  0  0  0  0  0  0  0  0  0  0
   16.5737  -14.2505   22.2025 O   0  0  0  0  0  0  0  0  0  0  0  0
   13.5259  -17.0032   25.2995 O   0  0  0  0  0  0  0  0  0  0  0  0
  2  1  1  6
  2  3  1  0
  4  5  2  0
  4  3  1  0
  6  5  1  0
  7  6  2  0
  8  7  1  0
  8  9  2  0
  9  4  1  0
 10  2  1  0
 11 10  2  0
 13 12  1  6
 13 14  1  0
 14 10  1  0
 15 16  2  0
 15 13  1  0
 17 15  1  0
 18 17  1  0
 18 19  1  1
 20 21  2  0
 20 19  1  0
 22 25  1  0
 22 18  1  0
 23 22  2  0
 24 20  1  0
M  END
$$$$
