FAD.pdb
     RDKit          3D

 25 25  0  0  1  0  0  0  0  0999 V2000
    7.0297  -16.3796   26.1209 N   0  0  0  0  0  0  0  0  0  0  0  0
    7.1371  -15.6086   24.9221 C   0  0  1  0  0  0  0  0  0  0  0  0
    7.9379  -14.3317   25.1235 C   0  0  0  0  0  0  0  0  0  0  0  0
    7.2666  -13.3975   26.0541 C   0  0  0  0  0  0  0  0  0  0  0  0
    6.0788  -12.8151   25.6649 C   0  0  0  0  0  0  0  0  0  0  0  0
    5.4082  -11.9315   26.5005 C   0  0  0  0  0  0  0  0  0  0  0  0
    5.9192  -11.6175   27.7421 C   0  0  0  0  0  0  0  0  0  0  0  0
    7.1058  -12.2013   28.1271 C   0  0  0  0  0  0  0  0  0  0  0  0
    7.7774  -13.0845   27.2935 C   0  0  0  0  0  0  0  0  0  0  0  0
    7.6879  -16.3451   23.7817 C   0  0  0  0  0  0  0  0  0  0  0  0
    8.1108  -17.5161   23.9898 O   0  0  0  0  0  0  0  0  0  0  0  0
    8.0995  -15.9701   20.0377 C   0  0  0  0  0  0  0  0  0  0  0  0
    8.3187  -16.6162   21.3670 C   0  0  2  0  0  0  0  0  0  0  0  0
    7.7879  -15.8553   22.4580 N   0  0  0  0  0  0  0  0  0  0  0  0
    9.7369  -16.9712   21.5244 C   0  0  0  0  0  0  0  0  0  0  0  0
   10.2489  -17.7806   20.7089 O   0  0  0  0  0  0  0  0  0  0  0  0
   10.5851  -16.4595   22.5453 N   0  0  0  0  0  0  0  0  0  0  0  0
   11.9610  -16.9251   22.7095 C   0  0  1  0  0  0  0  0  0  0  0  0
   12.8449  -15.7800   22.2628 C   0  0  0  0  0  0  0  0  0  0  0  0
   14.2832  -16.0880   22.3756 C   0  0  0  0  0  0  0  0  0  0  0  0
   14.6575  -17.1939   22.8164 O   0  0  0  0  0  0  0  0  0  0  0  0
   12.2140  -17.3545   24.1033 C   0  0  0  0  0  0  0  0  0  0  0  0
   13.2958  -17.8851   24.4532 O   0  0  0  0  0  0  0  0  0  0  0  0
   15.2135  -15.1388   21.9880 O   0  0  0  0  0  0  0  0  0  0  0  0
   11.2443  -17.1795   25.0811 O   0  0  0  0  0  0  0  0  0  0  0  0
  2  1  1  1
  2  3  1  0
  4  5  2  0
  4  3  1  0
  6  5  1  0
  7  6  2  0
  8  7  1  0
  8  9  2  0
  9  4  1  0
 10  2  1  0
 11 10  2  0
 13 12  1  6
 13 14  1  0
 14 10  1  0
 15 16  2  0
 15 13  1  0
 17 15  1  0
 18 17  1  0
 18 19  1  1
 20 21  2  0
 20 19  1  0
 22 25  1  0
 22 18  1  0
 23 22  2  0
 24 20  1  0
M  END
$$$$
