FAD.pdb
     RDKit          3D

 25 25  0  0  1  0  0  0  0  0999 V2000
    7.0154  -15.1063   23.7189 N   0  0  0  0  0  0  0  0  0  0  0  0
    8.2704  -15.0513   24.4008 C   0  0  1  0  0  0  0  0  0  0  0  0
    8.1171  -14.6884   25.8696 C   0  0  0  0  0  0  0  0  0  0  0  0
    7.4236  -13.3940   26.0511 C   0  0  0  0  0  0  0  0  0  0  0  0
    6.1468  -13.3946   26.5723 C   0  0  0  0  0  0  0  0  0  0  0  0
    5.4519  -12.2075   26.7631 C   0  0  0  0  0  0  0  0  0  0  0  0
    6.0275  -10.9986   26.4335 C   0  0  0  0  0  0  0  0  0  0  0  0
    7.3027  -11.0023   25.9132 C   0  0  0  0  0  0  0  0  0  0  0  0
    7.9988  -12.1876   25.7219 C   0  0  0  0  0  0  0  0  0  0  0  0
    9.0683  -16.2749   24.2900 C   0  0  0  0  0  0  0  0  0  0  0  0
   10.1133  -16.3585   24.9932 O   0  0  0  0  0  0  0  0  0  0  0  0
    9.7547  -17.6126   21.2353 C   0  0  0  0  0  0  0  0  0  0  0  0
    9.7422  -18.0616   22.6604 C   0  0  2  0  0  0  0  0  0  0  0  0
    8.7679  -17.3792   23.4579 N   0  0  0  0  0  0  0  0  0  0  0  0
   11.1035  -18.0122   23.2138 C   0  0  0  0  0  0  0  0  0  0  0  0
   11.5407  -19.0192   23.8279 O   0  0  0  0  0  0  0  0  0  0  0  0
   11.9755  -16.8935   23.1045 N   0  0  0  0  0  0  0  0  0  0  0  0
   13.4266  -17.0340   23.2111 C   0  0  1  0  0  0  0  0  0  0  0  0
   14.0162  -15.9079   22.3885 C   0  0  0  0  0  0  0  0  0  0  0  0
   15.4899  -15.8697   22.4417 C   0  0  0  0  0  0  0  0  0  0  0  0
   16.1490  -16.9288   22.4028 O   0  0  0  0  0  0  0  0  0  0  0  0
   13.8595  -17.0178   24.6265 C   0  0  0  0  0  0  0  0  0  0  0  0
   15.0216  -17.3391   24.9736 O   0  0  0  0  0  0  0  0  0  0  0  0
   16.1347  -14.6482   22.5352 O   0  0  0  0  0  0  0  0  0  0  0  0
   12.9765  -16.6398   25.6287 O   0  0  0  0  0  0  0  0  0  0  0  0
  2  1  1  1
  2  3  1  0
  4  5  2  0
  4  3  1  0
  6  5  1  0
  7  6  2  0
  8  7  1  0
  8  9  2  0
  9  4  1  0
 10  2  1  0
 11 10  2  0
 13 12  1  6
 13 14  1  0
 14 10  1  0
 15 16  2  0
 15 13  1  0
 17 15  1  0
 18 17  1  0
 18 19  1  6
 20 21  2  0
 20 19  1  0
 22 25  1  0
 22 18  1  0
 23 22  2  0
 24 20  1  0
M  END
$$$$
