FAD.pdb
     RDKit          3D

 25 25  0  0  1  0  0  0  0  0999 V2000
    8.5854  -16.4584   26.1498 N   0  0  0  0  0  0  0  0  0  0  0  0
    7.2343  -16.5099   25.6862 C   0  0  1  0  0  0  0  0  0  0  0  0
    6.2856  -15.7213   26.5753 C   0  0  0  0  0  0  0  0  0  0  0  0
    6.6997  -14.3071   26.7106 C   0  0  0  0  0  0  0  0  0  0  0  0
    5.8193  -13.3197   26.3215 C   0  0  0  0  0  0  0  0  0  0  0  0
    6.1583  -11.9771   26.4278 C   0  0  0  0  0  0  0  0  0  0  0  0
    7.3880  -11.6029   26.9269 C   0  0  0  0  0  0  0  0  0  0  0  0
    8.2644  -12.5922   27.3144 C   0  0  0  0  0  0  0  0  0  0  0  0
    7.9274  -13.9344   27.2090 C   0  0  0  0  0  0  0  0  0  0  0  0
    7.0592  -16.0788   24.2970 C   0  0  0  0  0  0  0  0  0  0  0  0
    6.1376  -16.6221   23.6270 O   0  0  0  0  0  0  0  0  0  0  0  0
    8.3534  -13.7944   21.6364 C   0  0  0  0  0  0  0  0  0  0  0  0
    8.1564  -15.1468   22.2405 C   0  0  2  0  0  0  0  0  0  0  0  0
    7.8382  -15.0999   23.6360 N   0  0  0  0  0  0  0  0  0  0  0  0
    9.3025  -16.0106   21.9208 C   0  0  0  0  0  0  0  0  0  0  0  0
    9.7723  -15.9803   20.7543 O   0  0  0  0  0  0  0  0  0  0  0  0
    9.9284  -16.8910   22.8465 N   0  0  0  0  0  0  0  0  0  0  0  0
   11.3797  -17.0613   22.8878 C   0  0  1  0  0  0  0  0  0  0  0  0
   11.9603  -15.6673   22.9956 C   0  0  0  0  0  0  0  0  0  0  0  0
   13.3037  -15.5577   22.3960 C   0  0  0  0  0  0  0  0  0  0  0  0
   13.8235  -16.5419   21.8316 O   0  0  0  0  0  0  0  0  0  0  0  0
   11.7787  -17.9525   24.0002 C   0  0  0  0  0  0  0  0  0  0  0  0
   12.6263  -18.8659   23.8537 O   0  0  0  0  0  0  0  0  0  0  0  0
   13.9822  -14.3529   22.4654 O   0  0  0  0  0  0  0  0  0  0  0  0
   11.2166  -17.8009   25.2604 O   0  0  0  0  0  0  0  0  0  0  0  0
  2  1  1  1
  2  3  1  0
  4  5  2  0
  4  3  1  0
  6  5  1  0
  7  6  2  0
  8  7  1  0
  8  9  2  0
  9  4  1  0
 10  2  1  0
 11 10  2  0
 13 12  1  1
 13 14  1  0
 14 10  1  0
 15 16  2  0
 15 13  1  0
 17 15  1  0
 18 17  1  0
 18 19  1  1
 20 21  2  0
 20 19  1  0
 22 25  1  0
 22 18  1  0
 23 22  2  0
 24 20  1  0
M  END
$$$$
