FAD.pdb
     RDKit          3D

 25 25  0  0  1  0  0  0  0  0999 V2000
    6.6242  -16.3438   25.3870 N   0  0  0  0  0  0  0  0  0  0  0  0
    7.6968  -15.7768   24.6313 C   0  0  1  0  0  0  0  0  0  0  0  0
    8.5053  -14.7714   25.4362 C   0  0  0  0  0  0  0  0  0  0  0  0
    7.6837  -13.6198   25.8700 C   0  0  0  0  0  0  0  0  0  0  0  0
    7.5957  -13.3398   27.2174 C   0  0  0  0  0  0  0  0  0  0  0  0
    6.8383  -12.2706   27.6775 C   0  0  0  0  0  0  0  0  0  0  0  0
    6.1558  -11.4637   26.7919 C   0  0  0  0  0  0  0  0  0  0  0  0
    6.2463  -11.7466   25.4470 C   0  0  0  0  0  0  0  0  0  0  0  0
    7.0027  -12.8147   24.9853 C   0  0  0  0  0  0  0  0  0  0  0  0
    8.6064  -16.7645   24.0455 C   0  0  0  0  0  0  0  0  0  0  0  0
    8.7043  -17.8840   24.6203 O   0  0  0  0  0  0  0  0  0  0  0  0
   10.3899  -17.3968   20.8124 C   0  0  0  0  0  0  0  0  0  0  0  0
   10.1795  -17.6021   22.2775 C   0  0  2  0  0  0  0  0  0  0  0  0
    9.3904  -16.5720   22.8834 N   0  0  0  0  0  0  0  0  0  0  0  0
   11.4709  -17.8303   22.9424 C   0  0  0  0  0  0  0  0  0  0  0  0
   12.1112  -18.8783   22.6703 O   0  0  0  0  0  0  0  0  0  0  0  0
   12.0584  -16.9408   23.8844 N   0  0  0  0  0  0  0  0  0  0  0  0
   13.2486  -17.3056   24.6506 C   0  0  1  0  0  0  0  0  0  0  0  0
   14.2140  -16.1495   24.4972 C   0  0  0  0  0  0  0  0  0  0  0  0
   14.6334  -15.9343   23.0993 C   0  0  0  0  0  0  0  0  0  0  0  0
   14.9230  -16.9063   22.3721 O   0  0  0  0  0  0  0  0  0  0  0  0
   12.9038  -17.6011   26.0594 C   0  0  0  0  0  0  0  0  0  0  0  0
   13.7629  -17.9763   26.8932 O   0  0  0  0  0  0  0  0  0  0  0  0
   14.7026  -14.6442   22.6019 O   0  0  0  0  0  0  0  0  0  0  0  0
   11.5963  -17.4693   26.5070 O   0  0  0  0  0  0  0  0  0  0  0  0
  2  1  1  1
  2  3  1  0
  4  5  2  0
  4  3  1  0
  6  5  1  0
  7  6  2  0
  8  7  1  0
  8  9  2  0
  9  4  1  0
 10  2  1  0
 11 10  2  0
 13 12  1  6
 13 14  1  0
 14 10  1  0
 15 16  2  0
 15 13  1  0
 17 15  1  0
 18 17  1  0
 18 19  1  1
 20 21  2  0
 20 19  1  0
 22 25  1  0
 22 18  1  0
 23 22  2  0
 24 20  1  0
M  END
$$$$
