FAD.pdb
     RDKit          3D

 25 25  0  0  1  0  0  0  0  0999 V2000
    5.9945  -17.9088   25.6368 N   0  0  0  0  0  0  0  0  0  0  0  0
    6.4684  -16.6030   25.2999 C   0  0  1  0  0  0  0  0  0  0  0  0
    7.3777  -16.0217   26.3712 C   0  0  0  0  0  0  0  0  0  0  0  0
    7.2464  -14.5512   26.4712 C   0  0  0  0  0  0  0  0  0  0  0  0
    5.9836  -13.9973   26.4601 C   0  0  0  0  0  0  0  0  0  0  0  0
    5.8049  -12.6231   26.5516 C   0  0  0  0  0  0  0  0  0  0  0  0
    6.8919  -11.7811   26.6557 C   0  0  0  0  0  0  0  0  0  0  0  0
    8.1514  -12.3384   26.6664 C   0  0  0  0  0  0  0  0  0  0  0  0
    8.3320  -13.7114   26.5752 C   0  0  0  0  0  0  0  0  0  0  0  0
    7.1454  -16.5260   24.0029 C   0  0  0  0  0  0  0  0  0  0  0  0
    7.8207  -17.5267   23.6344 O   0  0  0  0  0  0  0  0  0  0  0  0
    7.5380  -14.1258   21.0942 C   0  0  0  0  0  0  0  0  0  0  0  0
    7.6958  -15.4251   21.8150 C   0  0  2  0  0  0  0  0  0  0  0  0
    7.1081  -15.4202   23.1210 N   0  0  0  0  0  0  0  0  0  0  0  0
    9.1066  -15.8390   21.7996 C   0  0  0  0  0  0  0  0  0  0  0  0
    9.6743  -16.0012   20.6889 O   0  0  0  0  0  0  0  0  0  0  0  0
    9.8884  -16.0732   22.9648 N   0  0  0  0  0  0  0  0  0  0  0  0
   11.2617  -16.5679   22.8851 C   0  0  1  0  0  0  0  0  0  0  0  0
   12.0607  -15.4736   22.2096 C   0  0  0  0  0  0  0  0  0  0  0  0
   13.4862  -15.8188   22.0515 C   0  0  0  0  0  0  0  0  0  0  0  0
   13.8447  -17.0137   22.0173 O   0  0  0  0  0  0  0  0  0  0  0  0
   11.7750  -16.9293   24.2255 C   0  0  0  0  0  0  0  0  0  0  0  0
   12.9234  -17.4051   24.3955 O   0  0  0  0  0  0  0  0  0  0  0  0
   14.4223  -14.8047   21.9414 O   0  0  0  0  0  0  0  0  0  0  0  0
   10.9865  -16.7489   25.3537 O   0  0  0  0  0  0  0  0  0  0  0  0
  2  1  1  1
  2  3  1  0
  4  5  2  0
  4  3  1  0
  6  5  1  0
  7  6  2  0
  8  7  1  0
  8  9  2  0
  9  4  1  0
 10  2  1  0
 11 10  2  0
 13 12  1  1
 13 14  1  0
 14 10  1  0
 15 16  2  0
 15 13  1  0
 17 15  1  0
 18 17  1  0
 18 19  1  1
 20 21  2  0
 20 19  1  0
 22 25  1  0
 22 18  1  0
 23 22  2  0
 24 20  1  0
M  END
$$$$
