LWD.pdb
     RDKit          3D

 31 32  0  0  1  0  0  0  0  0999 V2000
   29.2720  -21.0989  -17.0112 C   0  0  0  0  0  0  0  0  0  0  0  0
   27.8013  -21.2489  -17.2759 C   0  0  2  0  0  0  0  0  0  0  0  0
   27.3715  -19.9821  -18.0287 C   0  0  0  0  0  0  0  0  0  0  0  0
   26.9580  -21.3233  -16.0534 C   0  0  0  0  0  0  0  0  0  0  0  0
   27.3170  -22.4382  -15.1033 C   0  0  2  0  0  0  0  0  0  0  0  0
   27.1496  -23.7380  -15.6714 N   0  0  0  0  0  0  0  0  0  0  0  0
   26.6019  -22.2966  -13.7983 C   0  0  0  0  0  0  0  0  0  0  0  0
   25.4571  -22.7907  -13.6037 O   0  0  0  0  0  0  0  0  0  0  0  0
   27.2097  -21.5826  -12.7122 N   0  0  0  0  0  0  0  0  0  0  0  0
   26.5288  -21.3284  -11.4734 C   0  0  1  0  0  0  0  0  0  0  0  0
   27.3797  -20.6404  -10.4274 C   0  0  0  0  0  0  0  0  0  0  0  0
   26.6835  -20.4038   -9.1501 C   0  0  0  0  0  0  0  0  0  0  0  0
   25.3194  -20.3235   -8.9702 C   0  0  0  0  0  0  0  0  0  0  0  0
   25.1003  -20.1362   -7.6598 N   0  0  0  0  0  0  0  0  0  0  0  0
   26.2722  -20.0928   -6.9949 C   0  0  0  0  0  0  0  0  0  0  0  0
   26.6350  -19.9217   -5.6807 C   0  0  0  0  0  0  0  0  0  0  0  0
   27.9351  -19.9078   -5.2499 C   0  0  0  0  0  0  0  0  0  0  0  0
   28.9225  -20.0712   -6.1690 C   0  0  0  0  0  0  0  0  0  0  0  0
   28.6091  -20.2465   -7.4988 C   0  0  0  0  0  0  0  0  0  0  0  0
   27.2839  -20.2605   -7.9279 C   0  0  0  0  0  0  0  0  0  0  0  0
   25.3735  -20.4348  -11.7153 C   0  0  0  0  0  0  0  0  0  0  0  0
   25.5922  -19.3253  -12.2607 O   0  0  0  0  0  0  0  0  0  0  0  0
   24.0559  -20.7550  -11.3718 N   0  0  0  0  0  0  0  0  0  0  0  0
   22.8641  -20.1753  -12.0067 C   0  0  1  0  0  0  0  0  0  0  0  0
   22.7527  -20.5996  -13.4254 C   0  0  0  0  0  0  0  0  0  0  0  0
   22.4619  -19.4598  -14.3115 C   0  0  0  0  0  0  0  0  0  0  0  0
   22.3408  -18.2753  -13.9134 O   0  0  0  0  0  0  0  0  0  0  0  0
   21.7012  -20.7086  -11.2092 C   0  0  0  0  0  0  0  0  0  0  0  0
   21.7156  -22.0313  -10.7141 O   0  0  0  0  0  0  0  0  0  0  0  0
   22.3005  -19.6502  -15.6982 O   0  0  0  0  0  0  0  0  0  0  0  0
   20.6991  -20.0211  -10.9585 O   0  0  0  0  0  0  0  0  0  0  0  0
  2  3  1  6
  2  1  1  0
  4  2  1  0
  5  4  1  0
  5  6  1  6
  7  5  1  0
  7  8  2  0
  9  7  1  0
 10  9  1  0
 10 11  1  1
 12 11  1  0
 13 12  2  0
 14 13  1  0
 15 14  1  0
 15 20  2  0
 16 15  1  0
 17 16  2  0
 17 18  1  0
 18 19  2  0
 19 20  1  0
 20 12  1  0
 21 10  1  0
 21 23  1  0
 22 21  2  0
 24 23  1  0
 24 28  1  0
 25 26  1  0
 24 25  1  6
 26 30  1  0
 27 26  2  0
 28 31  2  0
 28 29  1  0
M  END
$$$$
