LWD.pdb
     RDKit          3D

 31 32  0  0  1  0  0  0  0  0999 V2000
   27.3183  -20.7244  -17.3629 C   0  0  0  0  0  0  0  0  0  0  0  0
   28.1210  -21.5166  -16.3711 C   0  0  2  0  0  0  0  0  0  0  0  0
   28.4196  -22.8642  -17.0427 C   0  0  0  0  0  0  0  0  0  0  0  0
   27.4075  -21.8228  -15.1029 C   0  0  0  0  0  0  0  0  0  0  0  0
   27.0073  -20.6147  -14.2937 C   0  0  2  0  0  0  0  0  0  0  0  0
   28.0391  -19.6310  -14.2025 N   0  0  0  0  0  0  0  0  0  0  0  0
   26.4804  -21.0055  -12.9506 C   0  0  0  0  0  0  0  0  0  0  0  0
   25.6173  -21.9151  -12.8074 O   0  0  0  0  0  0  0  0  0  0  0  0
   26.9510  -20.3452  -11.7669 N   0  0  0  0  0  0  0  0  0  0  0  0
   26.4499  -20.6519  -10.4563 C   0  0  1  0  0  0  0  0  0  0  0  0
   27.3359  -20.1741   -9.3256 C   0  0  0  0  0  0  0  0  0  0  0  0
   26.8377  -20.5272   -7.9843 C   0  0  0  0  0  0  0  0  0  0  0  0
   25.7462  -21.3211   -7.7052 C   0  0  0  0  0  0  0  0  0  0  0  0
   25.6568  -21.4213   -6.3702 N   0  0  0  0  0  0  0  0  0  0  0  0
   26.6490  -20.7211   -5.7848 C   0  0  0  0  0  0  0  0  0  0  0  0
   27.0265  -20.4755   -4.4867 C   0  0  0  0  0  0  0  0  0  0  0  0
   28.1020  -19.6993   -4.1451 C   0  0  0  0  0  0  0  0  0  0  0  0
   28.8380  -19.1399   -5.1409 C   0  0  0  0  0  0  0  0  0  0  0  0
   28.4995  -19.3570   -6.4583 C   0  0  0  0  0  0  0  0  0  0  0  0
   27.4045  -20.1488   -6.7967 C   0  0  0  0  0  0  0  0  0  0  0  0
   25.1397  -19.9918  -10.2580 C   0  0  0  0  0  0  0  0  0  0  0  0
   25.1005  -18.7377  -10.3003 O   0  0  0  0  0  0  0  0  0  0  0  0
   23.9461  -20.6837  -10.0266 N   0  0  0  0  0  0  0  0  0  0  0  0
   22.6347  -20.2843  -10.5559 C   0  0  1  0  0  0  0  0  0  0  0  0
   22.6372  -20.2715  -12.0407 C   0  0  0  0  0  0  0  0  0  0  0  0
   21.3026  -19.9653  -12.5831 C   0  0  0  0  0  0  0  0  0  0  0  0
   20.6196  -18.9682  -12.2432 O   0  0  0  0  0  0  0  0  0  0  0  0
   21.6753  -21.3287  -10.0443 C   0  0  0  0  0  0  0  0  0  0  0  0
   21.8550  -22.6911  -10.3706 O   0  0  0  0  0  0  0  0  0  0  0  0
   20.7071  -20.8060  -13.5442 O   0  0  0  0  0  0  0  0  0  0  0  0
   20.7037  -21.0415   -9.3279 O   0  0  0  0  0  0  0  0  0  0  0  0
  2  3  1  6
  2  1  1  0
  4  2  1  0
  5  4  1  0
  5  6  1  1
  7  5  1  0
  7  8  2  0
  9  7  1  0
 10  9  1  0
 10 11  1  1
 12 11  1  0
 13 12  2  0
 14 13  1  0
 15 14  1  0
 15 20  2  0
 16 15  1  0
 17 16  2  0
 17 18  1  0
 18 19  2  0
 19 20  1  0
 20 12  1  0
 21 10  1  0
 21 23  1  0
 22 21  2  0
 24 23  1  0
 24 28  1  0
 25 26  1  0
 24 25  1  6
 26 30  1  0
 27 26  2  0
 28 31  2  0
 28 29  1  0
M  END
$$$$
