LWD.pdb
     RDKit          3D

 31 32  0  0  1  0  0  0  0  0999 V2000
   14.2117  -23.4692    0.0549 C   0  0  0  0  0  0  0  0  0  0  0  0
   15.4379  -22.6627   -0.2636 C   0  0  2  0  0  0  0  0  0  0  0  0
   16.4315  -23.6352   -0.9143 C   0  0  0  0  0  0  0  0  0  0  0  0
   16.1234  -22.0859    0.9232 C   0  0  0  0  0  0  0  0  0  0  0  0
   15.3104  -21.0783    1.6966 C   0  0  2  0  0  0  0  0  0  0  0  0
   14.5567  -20.2005    0.8588 N   0  0  0  0  0  0  0  0  0  0  0  0
   16.1542  -20.3331    2.6800 C   0  0  0  0  0  0  0  0  0  0  0  0
   16.8704  -20.9252    3.5338 O   0  0  0  0  0  0  0  0  0  0  0  0
   16.1730  -18.8983    2.6787 N   0  0  0  0  0  0  0  0  0  0  0  0
   16.9864  -18.1324    3.5813 C   0  0  1  0  0  0  0  0  0  0  0  0
   17.2143  -16.7000    3.1478 C   0  0  0  0  0  0  0  0  0  0  0  0
   18.0832  -15.9305    4.0562 C   0  0  0  0  0  0  0  0  0  0  0  0
   18.7548  -16.4261    5.1529 C   0  0  0  0  0  0  0  0  0  0  0  0
   19.4570  -15.4126    5.6821 N   0  0  0  0  0  0  0  0  0  0  0  0
   19.2593  -14.2875    4.9662 C   0  0  0  0  0  0  0  0  0  0  0  0
   19.7074  -12.9916    5.0542 C   0  0  0  0  0  0  0  0  0  0  0  0
   19.3406  -12.0028    4.1803 C   0  0  0  0  0  0  0  0  0  0  0  0
   18.4873  -12.3163    3.1704 C   0  0  0  0  0  0  0  0  0  0  0  0
   18.0106  -13.6020    3.0401 C   0  0  0  0  0  0  0  0  0  0  0  0
   18.3899  -14.6018    3.9329 C   0  0  0  0  0  0  0  0  0  0  0  0
   16.3276  -18.0606    4.9052 C   0  0  0  0  0  0  0  0  0  0  0  0
   15.0973  -17.8129    4.9373 O   0  0  0  0  0  0  0  0  0  0  0  0
   16.9959  -18.2524    6.1190 N   0  0  0  0  0  0  0  0  0  0  0  0
   16.3506  -18.2283    7.4391 C   0  0  1  0  0  0  0  0  0  0  0  0
   16.7507  -19.4042    8.2528 C   0  0  0  0  0  0  0  0  0  0  0  0
   15.8895  -20.5683    7.9842 C   0  0  0  0  0  0  0  0  0  0  0  0
   14.7354  -20.4889    7.4963 O   0  0  0  0  0  0  0  0  0  0  0  0
   16.8369  -16.9561    8.0856 C   0  0  0  0  0  0  0  0  0  0  0  0
   16.1231  -16.3763    9.1576 O   0  0  0  0  0  0  0  0  0  0  0  0
   16.3351  -21.8738    8.2715 O   0  0  0  0  0  0  0  0  0  0  0  0
   17.8664  -16.3738    7.7102 O   0  0  0  0  0  0  0  0  0  0  0  0
  2  3  1  1
  2  1  1  0
  4  2  1  0
  5  4  1  0
  5  6  1  6
  7  5  1  0
  7  8  2  0
  9  7  1  0
 10  9  1  0
 10 11  1  6
 12 11  1  0
 13 12  2  0
 14 13  1  0
 15 14  1  0
 15 20  2  0
 16 15  1  0
 17 16  2  0
 17 18  1  0
 18 19  2  0
 19 20  1  0
 20 12  1  0
 21 10  1  0
 21 23  1  0
 22 21  2  0
 24 23  1  0
 24 28  1  0
 25 26  1  0
 24 25  1  1
 26 30  1  0
 27 26  2  0
 28 31  2  0
 28 29  1  0
M  END
$$$$
