LWD.pdb
     RDKit          3D

 31 32  0  0  1  0  0  0  0  0999 V2000
   28.2200  -21.0185  -17.3327 C   0  0  0  0  0  0  0  0  0  0  0  0
   28.5889  -21.9330  -16.2001 C   0  0  2  0  0  0  0  0  0  0  0  0
   28.8189  -23.3159  -16.8254 C   0  0  0  0  0  0  0  0  0  0  0  0
   27.5277  -22.1027  -15.1723 C   0  0  0  0  0  0  0  0  0  0  0  0
   27.1930  -20.8541  -14.3955 C   0  0  2  0  0  0  0  0  0  0  0  0
   28.2744  -19.9229  -14.3330 N   0  0  0  0  0  0  0  0  0  0  0  0
   26.6510  -21.1809  -13.0413 C   0  0  0  0  0  0  0  0  0  0  0  0
   25.7047  -21.9994  -12.8771 O   0  0  0  0  0  0  0  0  0  0  0  0
   27.2032  -20.5616  -11.8706 N   0  0  0  0  0  0  0  0  0  0  0  0
   26.6462  -20.7460  -10.5596 C   0  0  1  0  0  0  0  0  0  0  0  0
   27.5649  -20.3294   -9.4308 C   0  0  0  0  0  0  0  0  0  0  0  0
   26.9895  -20.5233   -8.0879 C   0  0  0  0  0  0  0  0  0  0  0  0
   25.8017  -21.1584   -7.7961 C   0  0  0  0  0  0  0  0  0  0  0  0
   25.6630  -21.1514   -6.4616 N   0  0  0  0  0  0  0  0  0  0  0  0
   26.7165  -20.5354   -5.8888 C   0  0  0  0  0  0  0  0  0  0  0  0
   27.0843  -20.2446   -4.5973 C   0  0  0  0  0  0  0  0  0  0  0  0
   28.2367  -19.5808   -4.2695 C   0  0  0  0  0  0  0  0  0  0  0  0
   29.0634  -19.1864   -5.2732 C   0  0  0  0  0  0  0  0  0  0  0  0
   28.7383  -19.4550   -6.5845 C   0  0  0  0  0  0  0  0  0  0  0  0
   27.5646  -20.1318   -6.9086 C   0  0  0  0  0  0  0  0  0  0  0  0
   25.4236  -19.9231  -10.4186 C   0  0  0  0  0  0  0  0  0  0  0  0
   25.5213  -18.6865  -10.6123 O   0  0  0  0  0  0  0  0  0  0  0  0
   24.1692  -20.4431  -10.0827 N   0  0  0  0  0  0  0  0  0  0  0  0
   22.9099  -20.0769  -10.7456 C   0  0  1  0  0  0  0  0  0  0  0  0
   22.9161  -20.4879  -12.1725 C   0  0  0  0  0  0  0  0  0  0  0  0
   21.6043  -20.2701  -12.8057 C   0  0  0  0  0  0  0  0  0  0  0  0
   20.9097  -19.2372  -12.6420 O   0  0  0  0  0  0  0  0  0  0  0  0
   21.8417  -20.8266   -9.9908 C   0  0  0  0  0  0  0  0  0  0  0  0
   22.1872  -21.8619   -9.0944 O   0  0  0  0  0  0  0  0  0  0  0  0
   21.0461  -21.2447  -13.6564 O   0  0  0  0  0  0  0  0  0  0  0  0
   20.6345  -20.5713  -10.1227 O   0  0  0  0  0  0  0  0  0  0  0  0
  2  3  1  6
  2  1  1  0
  4  2  1  0
  5  4  1  0
  5  6  1  1
  7  5  1  0
  7  8  2  0
  9  7  1  0
 10  9  1  0
 10 11  1  1
 12 11  1  0
 13 12  2  0
 14 13  1  0
 15 14  1  0
 15 20  2  0
 16 15  1  0
 17 16  2  0
 17 18  1  0
 18 19  2  0
 19 20  1  0
 20 12  1  0
 21 10  1  0
 21 23  1  0
 22 21  2  0
 24 23  1  0
 24 28  1  0
 25 26  1  0
 24 25  1  6
 26 30  1  0
 27 26  2  0
 28 31  2  0
 28 29  1  0
M  END
$$$$
