LWD.pdb
     RDKit          3D

 31 32  0  0  1  0  0  0  0  0999 V2000
   28.3092  -19.8234  -17.3235 C   0  0  0  0  0  0  0  0  0  0  0  0
   29.0320  -20.3869  -16.1337 C   0  0  2  0  0  0  0  0  0  0  0  0
   29.9345  -21.5054  -16.6728 C   0  0  0  0  0  0  0  0  0  0  0  0
   28.1486  -21.0092  -15.1120 C   0  0  0  0  0  0  0  0  0  0  0  0
   27.1823  -20.0606  -14.4480 C   0  0  2  0  0  0  0  0  0  0  0  0
   27.8137  -18.8960  -13.9138 N   0  0  0  0  0  0  0  0  0  0  0  0
   26.3386  -20.7610  -13.4322 C   0  0  0  0  0  0  0  0  0  0  0  0
   25.7819  -21.8682  -13.6709 O   0  0  0  0  0  0  0  0  0  0  0  0
   26.1362  -20.1827  -12.1347 N   0  0  0  0  0  0  0  0  0  0  0  0
   25.3451  -20.8171  -11.1175 C   0  0  1  0  0  0  0  0  0  0  0  0
   25.6442  -20.3414   -9.7119 C   0  0  0  0  0  0  0  0  0  0  0  0
   27.0064  -20.6609   -9.2488 C   0  0  0  0  0  0  0  0  0  0  0  0
   27.9518  -21.3857   -9.9418 C   0  0  0  0  0  0  0  0  0  0  0  0
   29.0618  -21.4164   -9.1887 N   0  0  0  0  0  0  0  0  0  0  0  0
   28.8621  -20.7395   -8.0400 C   0  0  0  0  0  0  0  0  0  0  0  0
   29.6276  -20.4615   -6.9334 C   0  0  0  0  0  0  0  0  0  0  0  0
   29.1752  -19.7375   -5.8624 C   0  0  0  0  0  0  0  0  0  0  0  0
   27.9006  -19.2673   -5.8919 C   0  0  0  0  0  0  0  0  0  0  0  0
   27.0940  -19.5196   -6.9795 C   0  0  0  0  0  0  0  0  0  0  0  0
   27.5630  -20.2560   -8.0651 C   0  0  0  0  0  0  0  0  0  0  0  0
   23.9116  -20.5302  -11.3515 C   0  0  0  0  0  0  0  0  0  0  0  0
   23.5313  -19.3359  -11.2787 O   0  0  0  0  0  0  0  0  0  0  0  0
   22.9594  -21.5110  -11.6481 N   0  0  0  0  0  0  0  0  0  0  0  0
   21.5608  -21.2346  -12.0047 C   0  0  1  0  0  0  0  0  0  0  0  0
   20.9442  -22.3959  -12.6949 C   0  0  0  0  0  0  0  0  0  0  0  0
   20.4243  -22.0250  -14.0220 C   0  0  0  0  0  0  0  0  0  0  0  0
   20.4664  -20.8612  -14.4913 O   0  0  0  0  0  0  0  0  0  0  0  0
   20.8680  -20.9805  -10.6900 C   0  0  0  0  0  0  0  0  0  0  0  0
   21.3334  -21.5882   -9.5030 O   0  0  0  0  0  0  0  0  0  0  0  0
   19.8342  -22.9926  -14.8590 O   0  0  0  0  0  0  0  0  0  0  0  0
   19.8767  -20.2401  -10.5959 O   0  0  0  0  0  0  0  0  0  0  0  0
  2  3  1  6
  2  1  1  0
  4  2  1  0
  5  4  1  0
  5  6  1  1
  7  5  1  0
  7  8  2  0
  9  7  1  0
 10  9  1  0
 10 11  1  1
 12 11  1  0
 13 12  2  0
 14 13  1  0
 15 14  1  0
 15 20  2  0
 16 15  1  0
 17 16  2  0
 17 18  1  0
 18 19  2  0
 19 20  1  0
 20 12  1  0
 21 10  1  0
 21 23  1  0
 22 21  2  0
 24 23  1  0
 24 28  1  0
 25 26  1  0
 24 25  1  1
 26 30  1  0
 27 26  2  0
 28 31  2  0
 28 29  1  0
M  END
$$$$
