SIF.pdb
     RDKit          3D

 26 26  0  0  1  0  0  0  0  0999 V2000
   20.6532  -19.5923  -11.0760 O   0  0  0  0  0  0  0  0  0  0  0  0
   21.4968  -19.1807  -12.1165 C   0  0  0  0  0  0  0  0  0  0  0  0
   21.9979  -20.4584  -12.7613 C   0  0  2  0  0  0  0  0  0  0  0  0
   20.9228  -21.4045  -12.7219 N   0  0  0  0  0  0  0  0  0  0  0  0
   23.1514  -20.9656  -11.9560 C   0  0  0  0  0  0  0  0  0  0  0  0
   22.9581  -21.8180  -11.0586 O   0  0  0  0  0  0  0  0  0  0  0  0
   27.4994  -20.5409  -14.4774 C   0  0  0  0  0  0  0  0  0  0  0  0
   26.9586  -21.5667  -13.4599 C   0  0  0  0  0  0  0  0  0  0  0  0
   26.9285  -20.8437  -12.1553 C   0  0  2  0  0  0  0  0  0  0  0  0
   28.0540  -21.4032  -11.2728 C   0  0  0  0  0  0  0  0  0  0  0  0
   25.6237  -20.8611  -11.4206 C   0  0  2  0  0  0  0  0  0  0  0  0
   24.4774  -20.4978  -12.1846 N   0  0  0  0  0  0  0  0  0  0  0  0
   25.7092  -20.3637  -10.0414 C   0  0  0  0  0  0  0  0  0  0  0  0
   25.4714  -19.1151   -9.8000 O   0  0  0  0  0  0  0  0  0  0  0  0
   26.0414  -21.1141   -8.8820 N   0  0  0  0  0  0  0  0  0  0  0  0
   26.5236  -20.4355   -7.6783 C   0  0  1  0  0  0  0  0  0  0  0  0
   27.0659  -21.3086   -6.6201 C   0  0  0  0  0  0  0  0  0  0  0  0
   27.6898  -20.6097   -5.4800 C   0  0  0  0  0  0  0  0  0  0  0  0
   26.9807  -20.2336   -4.3527 C   0  0  0  0  0  0  0  0  0  0  0  0
   27.6221  -19.6024   -3.3128 C   0  0  0  0  0  0  0  0  0  0  0  0
   28.9510  -19.3289   -3.3503 C   0  0  0  0  0  0  0  0  0  0  0  0
   29.6705  -19.6945   -4.4597 C   0  0  0  0  0  0  0  0  0  0  0  0
   29.0303  -20.3229   -5.4956 C   0  0  0  0  0  0  0  0  0  0  0  0
   27.5902  -19.4646   -8.0935 C   0  0  0  0  0  0  0  0  0  0  0  0
   27.5350  -18.1731   -7.6020 O   0  0  0  0  0  0  0  0  0  0  0  0
   28.5310  -19.7640   -8.8648 O   0  0  0  0  0  0  0  0  0  0  0  0
  2  3  1  0
  2  1  1  0
  3  4  1  1
  5  3  1  0
  5  6  2  0
  8  9  1  0
  8  7  1  0
  9 11  1  0
  9 10  1  1
 11 13  1  0
 11 12  1  6
 12  5  1  0
 13 15  1  0
 14 13  2  0
 15 16  1  0
 16 24  1  0
 16 17  1  1
 18 17  1  0
 19 18  2  0
 20 19  1  0
 21 22  1  0
 21 20  2  0
 22 23  2  0
 23 18  1  0
 24 26  2  0
 24 25  1  0
M  END
$$$$
