SIF.pdb
     RDKit          3D

 26 26  0  0  1  0  0  0  0  0999 V2000
   27.0886  -28.1568  -18.3616 O   0  0  0  0  0  0  0  0  0  0  0  0
   26.5375  -26.8685  -18.3709 C   0  0  0  0  0  0  0  0  0  0  0  0
   27.3604  -26.0686  -17.3798 C   0  0  2  0  0  0  0  0  0  0  0  0
   28.2997  -26.9700  -16.7817 N   0  0  0  0  0  0  0  0  0  0  0  0
   26.4366  -25.5296  -16.3346 C   0  0  0  0  0  0  0  0  0  0  0  0
   26.4525  -26.0134  -15.1792 O   0  0  0  0  0  0  0  0  0  0  0  0
   24.4556  -20.2281  -16.7327 C   0  0  0  0  0  0  0  0  0  0  0  0
   25.2097  -21.5221  -16.3625 C   0  0  0  0  0  0  0  0  0  0  0  0
   24.1455  -22.5089  -16.0171 C   0  0  2  0  0  0  0  0  0  0  0  0
   23.3195  -21.9342  -14.8570 C   0  0  0  0  0  0  0  0  0  0  0  0
   24.6099  -23.8963  -15.6979 C   0  0  2  0  0  0  0  0  0  0  0  0
   25.5284  -24.4707  -16.6231 N   0  0  0  0  0  0  0  0  0  0  0  0
   23.5600  -24.7655  -15.1511 C   0  0  0  0  0  0  0  0  0  0  0  0
   22.7725  -25.3973  -15.9601 O   0  0  0  0  0  0  0  0  0  0  0  0
   23.2813  -25.0090  -13.7797 N   0  0  0  0  0  0  0  0  0  0  0  0
   22.2683  -25.9937  -13.3973 C   0  0  1  0  0  0  0  0  0  0  0  0
   22.7079  -27.0352  -12.4495 C   0  0  0  0  0  0  0  0  0  0  0  0
   21.6767  -28.0187  -12.0661 C   0  0  0  0  0  0  0  0  0  0  0  0
   20.9017  -28.6922  -12.9939 C   0  0  0  0  0  0  0  0  0  0  0  0
   19.9699  -29.6132  -12.5763 C   0  0  0  0  0  0  0  0  0  0  0  0
   19.7774  -29.8930  -11.2622 C   0  0  0  0  0  0  0  0  0  0  0  0
   20.5367  -29.2353  -10.3277 C   0  0  0  0  0  0  0  0  0  0  0  0
   21.4646  -28.3174  -10.7450 C   0  0  0  0  0  0  0  0  0  0  0  0
   21.1109  -25.2527  -12.7941 C   0  0  0  0  0  0  0  0  0  0  0  0
   21.3402  -24.0043  -12.2450 O   0  0  0  0  0  0  0  0  0  0  0  0
   19.9440  -25.7075  -12.7618 O   0  0  0  0  0  0  0  0  0  0  0  0
  2  3  1  0
  2  1  1  0
  3  4  1  1
  5  3  1  0
  5  6  2  0
  8  9  1  0
  8  7  1  0
  9 11  1  0
  9 10  1  1
 11 13  1  0
 11 12  1  6
 12  5  1  0
 13 15  1  0
 14 13  2  0
 15 16  1  0
 16 24  1  0
 16 17  1  1
 18 17  1  0
 19 18  2  0
 20 19  1  0
 21 22  1  0
 21 20  2  0
 22 23  2  0
 23 18  1  0
 24 26  2  0
 24 25  1  0
M  END
$$$$
