SIF.pdb
     RDKit          3D

 26 26  0  0  1  0  0  0  0  0999 V2000
   26.3698  -17.8264  -15.7215 O   0  0  0  0  0  0  0  0  0  0  0  0
   27.7605  -17.6584  -15.7556 C   0  0  0  0  0  0  0  0  0  0  0  0
   28.3296  -19.0408  -16.0098 C   0  0  2  0  0  0  0  0  0  0  0  0
   27.8709  -19.4584  -17.3012 N   0  0  0  0  0  0  0  0  0  0  0  0
   27.7997  -19.9634  -14.9590 C   0  0  0  0  0  0  0  0  0  0  0  0
   26.8624  -20.7480  -15.2335 O   0  0  0  0  0  0  0  0  0  0  0  0
   30.8911  -21.4521  -10.5017 C   0  0  0  0  0  0  0  0  0  0  0  0
   30.0222  -21.5455  -11.7731 C   0  0  0  0  0  0  0  0  0  0  0  0
   28.7105  -20.9442  -11.3944 C   0  0  2  0  0  0  0  0  0  0  0  0
   28.0434  -21.8645  -10.3615 C   0  0  0  0  0  0  0  0  0  0  0  0
   27.7703  -20.6469  -12.5214 C   0  0  2  0  0  0  0  0  0  0  0  0
   28.3379  -19.9714  -13.6401 N   0  0  0  0  0  0  0  0  0  0  0  0
   26.4288  -20.2372  -12.0865 C   0  0  0  0  0  0  0  0  0  0  0  0
   26.2416  -19.0331  -11.6517 O   0  0  0  0  0  0  0  0  0  0  0  0
   25.2535  -21.0348  -12.0767 N   0  0  0  0  0  0  0  0  0  0  0  0
   23.9994  -20.4925  -11.5521 C   0  0  1  0  0  0  0  0  0  0  0  0
   22.7764  -20.8760  -12.2824 C   0  0  0  0  0  0  0  0  0  0  0  0
   21.5114  -20.3884  -11.6996 C   0  0  0  0  0  0  0  0  0  0  0  0
   20.8059  -21.0956  -10.7419 C   0  0  0  0  0  0  0  0  0  0  0  0
   19.6426  -20.5798  -10.2207 C   0  0  0  0  0  0  0  0  0  0  0  0
   19.1500  -19.3789  -10.6173 C   0  0  0  0  0  0  0  0  0  0  0  0
   19.8359  -18.6631  -11.5658 C   0  0  0  0  0  0  0  0  0  0  0  0
   20.9947  -19.1785  -12.0848 C   0  0  0  0  0  0  0  0  0  0  0  0
   23.8666  -20.9383  -10.1251 C   0  0  0  0  0  0  0  0  0  0  0  0
   23.3726  -20.0407   -9.1962 O   0  0  0  0  0  0  0  0  0  0  0  0
   24.1811  -22.0849   -9.7301 O   0  0  0  0  0  0  0  0  0  0  0  0
  2  3  1  0
  2  1  1  0
  3  4  1  6
  5  3  1  0
  5  6  2  0
  8  9  1  0
  8  7  1  0
  9 11  1  0
  9 10  1  1
 11 13  1  0
 11 12  1  1
 12  5  1  0
 13 15  1  0
 14 13  2  0
 15 16  1  0
 16 24  1  0
 16 17  1  6
 18 17  1  0
 19 18  2  0
 20 19  1  0
 21 22  1  0
 21 20  2  0
 22 23  2  0
 23 18  1  0
 24 26  2  0
 24 25  1  0
M  END
$$$$
