DYH.pdb
     RDKit          3D

 31 32  0  0  1  0  0  0  0  0999 V2000
    9.8774  -16.9124   19.4700 N   0  0  0  0  0  0  0  0  0  0  0  0
    9.8701  -17.6929   20.6846 C   0  0  1  0  0  0  0  0  0  0  0  0
   11.1618  -18.4726   20.8724 C   0  0  0  0  0  0  0  0  0  0  0  0
   11.3860  -19.3896   19.7447 C   0  0  0  0  0  0  0  0  0  0  0  0
   10.5125  -19.5219   18.8666 O   0  0  0  0  0  0  0  0  0  0  0  0
    9.7652  -16.8179   21.8990 C   0  0  0  0  0  0  0  0  0  0  0  0
   10.7291  -16.5467   22.6494 O   0  0  0  0  0  0  0  0  0  0  0  0
   12.5522  -20.1160   19.6328 O   0  0  0  0  0  0  0  0  0  0  0  0
    6.5116  -11.1437   27.9056 O   0  0  0  0  0  0  0  0  0  0  0  0
    6.6870  -11.9645   26.7760 C   0  0  0  0  0  0  0  0  0  0  0  0
    5.9874  -13.1309   26.6659 C   0  0  0  0  0  0  0  0  0  0  0  0
    6.1906  -13.9121   25.5318 C   0  0  0  0  0  0  0  0  0  0  0  0
    7.0589  -13.5558   24.5320 C   0  0  0  0  0  0  0  0  0  0  0  0
    7.2212  -14.4312   23.3711 C   0  0  0  0  0  0  0  0  0  0  0  0
    8.3961  -15.3887   23.4720 C   0  0  2  0  0  0  0  0  0  0  0  0
    8.5077  -16.2130   22.2902 N   0  0  0  0  0  0  0  0  0  0  0  0
    8.4264  -16.1352   24.7359 C   0  0  0  0  0  0  0  0  0  0  0  0
    7.4521  -16.8682   25.0275 O   0  0  0  0  0  0  0  0  0  0  0  0
    7.7544  -12.3771   24.6600 C   0  0  0  0  0  0  0  0  0  0  0  0
    7.5598  -11.6019   25.7749 C   0  0  0  0  0  0  0  0  0  0  0  0
    9.4879  -16.0991   25.6801 N   0  0  0  0  0  0  0  0  0  0  0  0
    9.5765  -17.1081   26.7510 C   0  0  1  0  0  0  0  0  0  0  0  0
    9.5509  -18.4954   26.1593 C   0  0  0  0  0  0  0  0  0  0  0  0
    8.3943  -19.2495   26.7076 C   0  0  0  0  0  0  0  0  0  0  0  0
    7.4946  -18.8592   27.6756 C   0  0  0  0  0  0  0  0  0  0  0  0
    6.6278  -19.8702   27.8592 N   0  0  0  0  0  0  0  0  0  0  0  0
    6.9459  -20.8850   27.0439 C   0  0  0  0  0  0  0  0  0  0  0  0
    8.0154  -20.5142   26.3443 N   0  0  0  0  0  0  0  0  0  0  0  0
   10.7337  -16.8674   27.6129 C   0  0  0  0  0  0  0  0  0  0  0  0
   10.8481  -17.6893   28.7550 O   0  0  0  0  0  0  0  0  0  0  0  0
   11.6358  -16.0221   27.4598 O   0  0  0  0  0  0  0  0  0  0  0  0
  2  1  1  6
  3  2  1  0
  3  4  1  0
  4  5  2  0
  6  2  1  0
  6  7  2  0
  8  4  1  0
  9 10  1  0
 10 20  2  0
 10 11  1  0
 11 12  2  0
 12 13  1  0
 13 14  1  0
 15 14  1  6
 15 16  1  0
 16  6  1  0
 17 15  1  0
 18 17  2  0
 19 13  2  0
 20 19  1  0
 21 17  1  0
 22 21  1  0
 22 29  1  0
 22 23  1  6
 24 23  1  0
 24 25  2  0
 26 25  1  0
 27 26  1  0
 28 27  2  0
 28 24  1  0
 29 30  1  0
 31 29  2  0
M  END
$$$$
