DYH.pdb
     RDKit          3D

 31 32  0  0  1  0  0  0  0  0999 V2000
    9.2760  -16.8490   19.0546 N   0  0  0  0  0  0  0  0  0  0  0  0
   10.1395  -17.3594   20.0930 C   0  0  1  0  0  0  0  0  0  0  0  0
   11.6059  -17.3108   19.6941 C   0  0  0  0  0  0  0  0  0  0  0  0
   11.8125  -17.9536   18.3877 C   0  0  0  0  0  0  0  0  0  0  0  0
   10.8348  -18.3644   17.7342 O   0  0  0  0  0  0  0  0  0  0  0  0
   10.0489  -16.5296   21.3398 C   0  0  0  0  0  0  0  0  0  0  0  0
   11.0361  -16.2112   22.0397 O   0  0  0  0  0  0  0  0  0  0  0  0
   13.0759  -18.1157   17.8607 O   0  0  0  0  0  0  0  0  0  0  0  0
    6.5817  -11.8515   28.0598 O   0  0  0  0  0  0  0  0  0  0  0  0
    6.7740  -12.5255   26.8395 C   0  0  0  0  0  0  0  0  0  0  0  0
    7.5421  -11.9612   25.8629 C   0  0  0  0  0  0  0  0  0  0  0  0
    7.7067  -12.6626   24.6718 C   0  0  0  0  0  0  0  0  0  0  0  0
    7.1312  -13.8867   24.4467 C   0  0  0  0  0  0  0  0  0  0  0  0
    7.3480  -14.5616   23.1668 C   0  0  0  0  0  0  0  0  0  0  0  0
    8.6760  -15.2919   23.0645 C   0  0  2  0  0  0  0  0  0  0  0  0
    8.7787  -16.0286   21.8254 N   0  0  0  0  0  0  0  0  0  0  0  0
    8.9982  -16.0759   24.2634 C   0  0  0  0  0  0  0  0  0  0  0  0
    8.2324  -17.0105   24.5974 O   0  0  0  0  0  0  0  0  0  0  0  0
    6.3614  -14.4397   25.4421 C   0  0  0  0  0  0  0  0  0  0  0  0
    6.1943  -13.7546   26.6188 C   0  0  0  0  0  0  0  0  0  0  0  0
   10.1286  -15.8635   25.0982 N   0  0  0  0  0  0  0  0  0  0  0  0
   10.3586  -16.7106   26.2825 C   0  0  1  0  0  0  0  0  0  0  0  0
   11.7736  -17.2330   26.2790 C   0  0  0  0  0  0  0  0  0  0  0  0
   11.9098  -18.2953   25.2494 C   0  0  0  0  0  0  0  0  0  0  0  0
   10.9404  -18.8210   24.4233 C   0  0  0  0  0  0  0  0  0  0  0  0
   11.5193  -19.7683   23.6652 N   0  0  0  0  0  0  0  0  0  0  0  0
   12.8183  -19.8613   23.9813 C   0  0  0  0  0  0  0  0  0  0  0  0
   13.0599  -18.9713   24.9406 N   0  0  0  0  0  0  0  0  0  0  0  0
   10.0039  -16.0072   27.5152 C   0  0  0  0  0  0  0  0  0  0  0  0
   10.1220  -16.7429   28.7143 O   0  0  0  0  0  0  0  0  0  0  0  0
    9.6100  -14.8317   27.6360 O   0  0  0  0  0  0  0  0  0  0  0  0
  2  1  1  6
  3  2  1  0
  3  4  1  0
  4  5  2  0
  6  2  1  0
  6  7  2  0
  8  4  1  0
  9 10  1  0
 10 20  2  0
 10 11  1  0
 11 12  2  0
 12 13  1  0
 13 14  1  0
 15 14  1  1
 15 16  1  0
 16  6  1  0
 17 15  1  0
 18 17  2  0
 19 13  2  0
 20 19  1  0
 21 17  1  0
 22 21  1  0
 22 29  1  0
 22 23  1  1
 24 23  1  0
 24 25  2  0
 26 25  1  0
 27 26  1  0
 28 27  2  0
 28 24  1  0
 29 30  1  0
 31 29  2  0
M  END
$$$$
