DYH.pdb
     RDKit          3D

 31 32  0  0  1  0  0  0  0  0999 V2000
   10.0969  -18.1393   20.1736 N   0  0  0  0  0  0  0  0  0  0  0  0
   11.1519  -17.2993   20.6892 C   0  0  1  0  0  0  0  0  0  0  0  0
   11.6832  -16.3370   19.6387 C   0  0  0  0  0  0  0  0  0  0  0  0
   12.3787  -17.0663   18.5677 C   0  0  0  0  0  0  0  0  0  0  0  0
   12.4133  -18.3114   18.5830 O   0  0  0  0  0  0  0  0  0  0  0  0
   10.6612  -16.4237   21.8045 C   0  0  0  0  0  0  0  0  0  0  0  0
   11.3699  -15.5730   22.3875 O   0  0  0  0  0  0  0  0  0  0  0  0
   13.0013  -16.3997   17.5342 O   0  0  0  0  0  0  0  0  0  0  0  0
    7.8375  -12.5554   17.8839 O   0  0  0  0  0  0  0  0  0  0  0  0
    7.7765  -13.1402   19.1625 C   0  0  0  0  0  0  0  0  0  0  0  0
    8.3129  -12.4899   20.2356 C   0  0  0  0  0  0  0  0  0  0  0  0
    8.2299  -13.1038   21.4821 C   0  0  0  0  0  0  0  0  0  0  0  0
    7.6351  -14.3252   21.6688 C   0  0  0  0  0  0  0  0  0  0  0  0
    7.5894  -14.9082   23.0100 C   0  0  0  0  0  0  0  0  0  0  0  0
    8.8318  -15.6951   23.3900 C   0  0  2  0  0  0  0  0  0  0  0  0
    9.2983  -16.5080   22.2899 N   0  0  0  0  0  0  0  0  0  0  0  0
    8.6918  -16.4183   24.6602 C   0  0  0  0  0  0  0  0  0  0  0  0
    7.6598  -17.1031   24.8543 O   0  0  0  0  0  0  0  0  0  0  0  0
    7.0998  -14.9650   20.5764 C   0  0  0  0  0  0  0  0  0  0  0  0
    7.1778  -14.3665   19.3445 C   0  0  0  0  0  0  0  0  0  0  0  0
    9.6456  -16.4100   25.7136 N   0  0  0  0  0  0  0  0  0  0  0  0
    9.9174  -17.6322   26.4916 C   0  0  1  0  0  0  0  0  0  0  0  0
   10.2426  -18.7758   25.5632 C   0  0  0  0  0  0  0  0  0  0  0  0
   10.5056  -20.0031   26.3579 C   0  0  0  0  0  0  0  0  0  0  0  0
   10.5326  -20.1509   27.7276 C   0  0  0  0  0  0  0  0  0  0  0  0
   10.8243  -21.4358   27.9943 N   0  0  0  0  0  0  0  0  0  0  0  0
   10.9829  -22.1058   26.8446 C   0  0  0  0  0  0  0  0  0  0  0  0
   10.7911  -21.2424   25.8503 N   0  0  0  0  0  0  0  0  0  0  0  0
   10.9461  -17.3986   27.5051 C   0  0  0  0  0  0  0  0  0  0  0  0
   10.7118  -17.9602   28.7790 O   0  0  0  0  0  0  0  0  0  0  0  0
   12.0098  -16.7626   27.3795 O   0  0  0  0  0  0  0  0  0  0  0  0
  2  1  1  6
  3  2  1  0
  3  4  1  0
  4  5  2  0
  6  2  1  0
  6  7  2  0
  8  4  1  0
  9 10  1  0
 10 20  2  0
 10 11  1  0
 11 12  2  0
 12 13  1  0
 13 14  1  0
 15 14  1  6
 15 16  1  0
 16  6  1  0
 17 15  1  0
 18 17  2  0
 19 13  2  0
 20 19  1  0
 21 17  1  0
 22 21  1  0
 22 29  1  0
 22 23  1  6
 24 23  1  0
 24 25  2  0
 26 25  1  0
 27 26  1  0
 28 27  2  0
 28 24  1  0
 29 30  1  0
 31 29  2  0
M  END
$$$$
