DYH.pdb
     RDKit          3D

 31 32  0  0  1  0  0  0  0  0999 V2000
    9.8468  -18.7863   19.3235 N   0  0  0  0  0  0  0  0  0  0  0  0
   11.0201  -17.9571   19.4650 C   0  0  1  0  0  0  0  0  0  0  0  0
   11.2289  -17.0496   18.2631 C   0  0  0  0  0  0  0  0  0  0  0  0
   11.7272  -17.8162   17.1113 C   0  0  0  0  0  0  0  0  0  0  0  0
   11.3331  -18.9827   16.9220 O   0  0  0  0  0  0  0  0  0  0  0  0
   10.8975  -17.0273   20.6364 C   0  0  0  0  0  0  0  0  0  0  0  0
   11.8188  -16.2796   21.0336 O   0  0  0  0  0  0  0  0  0  0  0  0
   12.6306  -17.2710   16.2244 O   0  0  0  0  0  0  0  0  0  0  0  0
    7.4197  -12.2228   18.0729 O   0  0  0  0  0  0  0  0  0  0  0  0
    7.6500  -12.9982   19.2245 C   0  0  0  0  0  0  0  0  0  0  0  0
    7.0656  -14.2251   19.3482 C   0  0  0  0  0  0  0  0  0  0  0  0
    7.3210  -14.9590   20.5031 C   0  0  0  0  0  0  0  0  0  0  0  0
    8.1298  -14.4986   21.5103 C   0  0  0  0  0  0  0  0  0  0  0  0
    8.3482  -15.3272   22.6962 C   0  0  0  0  0  0  0  0  0  0  0  0
    9.6017  -16.1829   22.6362 C   0  0  2  0  0  0  0  0  0  0  0  0
    9.6707  -16.9316   21.4020 N   0  0  0  0  0  0  0  0  0  0  0  0
    9.8095  -16.9891   23.8457 C   0  0  0  0  0  0  0  0  0  0  0  0
    8.9357  -17.8275   24.1698 O   0  0  0  0  0  0  0  0  0  0  0  0
    8.7103  -13.2609   21.3679 C   0  0  0  0  0  0  0  0  0  0  0  0
    8.4633  -12.5314   20.2326 C   0  0  0  0  0  0  0  0  0  0  0  0
   10.9407  -16.9005   24.7014 N   0  0  0  0  0  0  0  0  0  0  0  0
   11.0957  -17.8228   25.8409 C   0  0  1  0  0  0  0  0  0  0  0  0
   12.5495  -18.1811   26.0234 C   0  0  0  0  0  0  0  0  0  0  0  0
   13.0875  -18.7402   24.7565 C   0  0  0  0  0  0  0  0  0  0  0  0
   12.4011  -19.3294   23.7170 C   0  0  0  0  0  0  0  0  0  0  0  0
   13.3015  -19.6962   22.7887 N   0  0  0  0  0  0  0  0  0  0  0  0
   14.5314  -19.3613   23.2024 C   0  0  0  0  0  0  0  0  0  0  0  0
   14.4073  -18.7821   24.3940 N   0  0  0  0  0  0  0  0  0  0  0  0
   10.4765  -17.2809   27.0504 C   0  0  0  0  0  0  0  0  0  0  0  0
   10.5025  -18.1082   28.1941 O   0  0  0  0  0  0  0  0  0  0  0  0
    9.9278  -16.1719   27.1950 O   0  0  0  0  0  0  0  0  0  0  0  0
  2  1  1  6
  3  2  1  0
  3  4  1  0
  4  5  2  0
  6  2  1  0
  6  7  2  0
  8  4  1  0
  9 10  1  0
 10 20  2  0
 10 11  1  0
 11 12  2  0
 12 13  1  0
 13 14  1  0
 15 14  1  1
 15 16  1  0
 16  6  1  0
 17 15  1  0
 18 17  2  0
 19 13  2  0
 20 19  1  0
 21 17  1  0
 22 21  1  0
 22 29  1  0
 22 23  1  1
 24 23  1  0
 24 25  2  0
 26 25  1  0
 27 26  1  0
 28 27  2  0
 28 24  1  0
 29 30  1  0
 31 29  2  0
M  END
$$$$
