DYH.pdb
     RDKit          3D

 31 32  0  0  1  0  0  0  0  0999 V2000
    8.9192  -18.6920   19.4368 N   0  0  0  0  0  0  0  0  0  0  0  0
   10.2076  -18.0573   19.5831 C   0  0  1  0  0  0  0  0  0  0  0  0
   10.4867  -17.0633   18.4669 C   0  0  0  0  0  0  0  0  0  0  0  0
   10.7278  -17.7614   17.1952 C   0  0  0  0  0  0  0  0  0  0  0  0
   10.1973  -18.8681   16.9821 O   0  0  0  0  0  0  0  0  0  0  0  0
   10.2829  -17.2523   20.8471 C   0  0  0  0  0  0  0  0  0  0  0  0
   11.2677  -16.5516   21.1709 O   0  0  0  0  0  0  0  0  0  0  0  0
   11.5357  -17.2162   16.2205 O   0  0  0  0  0  0  0  0  0  0  0  0
    7.1716  -12.0751   18.8618 O   0  0  0  0  0  0  0  0  0  0  0  0
    7.3965  -12.9461   19.9440 C   0  0  0  0  0  0  0  0  0  0  0  0
    6.6354  -14.0702   20.0837 C   0  0  0  0  0  0  0  0  0  0  0  0
    6.8920  -14.9045   21.1680 C   0  0  0  0  0  0  0  0  0  0  0  0
    7.8713  -14.6407   22.0909 C   0  0  0  0  0  0  0  0  0  0  0  0
    8.0795  -15.5644   23.2063 C   0  0  0  0  0  0  0  0  0  0  0  0
    9.2722  -16.4893   23.0352 C   0  0  2  0  0  0  0  0  0  0  0  0
    9.1900  -17.2328   21.7987 N   0  0  0  0  0  0  0  0  0  0  0  0
    9.5391  -17.3135   24.2206 C   0  0  0  0  0  0  0  0  0  0  0  0
    8.6340  -18.0690   24.6467 O   0  0  0  0  0  0  0  0  0  0  0  0
    8.6283  -13.5043   21.9336 C   0  0  0  0  0  0  0  0  0  0  0  0
    8.3813  -12.6768   20.8676 C   0  0  0  0  0  0  0  0  0  0  0  0
   10.7620  -17.3307   24.9444 N   0  0  0  0  0  0  0  0  0  0  0  0
   10.9099  -18.1642   26.1512 C   0  0  1  0  0  0  0  0  0  0  0  0
   12.3651  -18.4869   26.3828 C   0  0  0  0  0  0  0  0  0  0  0  0
   12.8990  -19.2422   25.2202 C   0  0  0  0  0  0  0  0  0  0  0  0
   12.2034  -19.9216   24.2438 C   0  0  0  0  0  0  0  0  0  0  0  0
   13.1024  -20.4638   23.4041 N   0  0  0  0  0  0  0  0  0  0  0  0
   14.3401  -20.1529   23.8132 C   0  0  0  0  0  0  0  0  0  0  0  0
   14.2224  -19.4132   24.9131 N   0  0  0  0  0  0  0  0  0  0  0  0
   10.2631  -17.5440   27.3074 C   0  0  0  0  0  0  0  0  0  0  0  0
   10.2801  -16.1331   27.3547 O   0  0  0  0  0  0  0  0  0  0  0  0
    9.6948  -18.1123   28.2591 O   0  0  0  0  0  0  0  0  0  0  0  0
  2  1  1  6
  3  2  1  0
  3  4  1  0
  4  5  2  0
  6  2  1  0
  6  7  2  0
  8  4  1  0
  9 10  1  0
 10 20  2  0
 10 11  1  0
 11 12  2  0
 12 13  1  0
 13 14  1  0
 15 14  1  1
 15 16  1  0
 16  6  1  0
 17 15  1  0
 18 17  2  0
 19 13  2  0
 20 19  1  0
 21 17  1  0
 22 21  1  0
 22 29  1  0
 22 23  1  1
 24 23  1  0
 24 25  2  0
 26 25  1  0
 27 26  1  0
 28 27  2  0
 28 24  1  0
 29 30  1  0
 31 29  2  0
M  END
$$$$
