DYH.pdb
     RDKit          3D

 31 32  0  0  1  0  0  0  0  0999 V2000
    8.4129  -17.3407   18.6708 N   0  0  0  0  0  0  0  0  0  0  0  0
    9.7342  -17.3722   19.2518 C   0  0  1  0  0  0  0  0  0  0  0  0
   10.7681  -16.7024   18.3608 C   0  0  0  0  0  0  0  0  0  0  0  0
   10.9582  -17.4653   17.1180 C   0  0  0  0  0  0  0  0  0  0  0  0
    9.9796  -17.7302   16.3942 O   0  0  0  0  0  0  0  0  0  0  0  0
    9.7842  -16.6110   20.5440 C   0  0  0  0  0  0  0  0  0  0  0  0
   10.8440  -16.3188   21.1415 O   0  0  0  0  0  0  0  0  0  0  0  0
   12.2066  -17.9006   16.7283 O   0  0  0  0  0  0  0  0  0  0  0  0
    7.1691  -11.8727   27.5987 O   0  0  0  0  0  0  0  0  0  0  0  0
    7.2061  -12.5738   26.3790 C   0  0  0  0  0  0  0  0  0  0  0  0
    6.6074  -13.7958   26.2769 C   0  0  0  0  0  0  0  0  0  0  0  0
    6.6671  -14.4543   25.0520 C   0  0  0  0  0  0  0  0  0  0  0  0
    7.2991  -13.9252   23.9560 C   0  0  0  0  0  0  0  0  0  0  0  0
    7.3223  -14.6794   22.7025 C   0  0  0  0  0  0  0  0  0  0  0  0
    8.6177  -15.4321   22.4521 C   0  0  2  0  0  0  0  0  0  0  0  0
    8.5760  -16.1515   21.1994 N   0  0  0  0  0  0  0  0  0  0  0  0
    9.0478  -16.2401   23.6001 C   0  0  0  0  0  0  0  0  0  0  0  0
    8.4112  -17.2843   23.8757 O   0  0  0  0  0  0  0  0  0  0  0  0
    7.8960  -12.6931   24.0776 C   0  0  0  0  0  0  0  0  0  0  0  0
    7.8416  -12.0380   25.2816 C   0  0  0  0  0  0  0  0  0  0  0  0
   10.1481  -15.9355   24.4464 N   0  0  0  0  0  0  0  0  0  0  0  0
   10.6017  -16.8985   25.4661 C   0  0  1  0  0  0  0  0  0  0  0  0
   12.1084  -16.9703   25.4770 C   0  0  0  0  0  0  0  0  0  0  0  0
   12.5526  -17.9568   26.4951 C   0  0  0  0  0  0  0  0  0  0  0  0
   11.8343  -18.9842   27.0673 C   0  0  0  0  0  0  0  0  0  0  0  0
   12.6398  -19.6062   27.9456 N   0  0  0  0  0  0  0  0  0  0  0  0
   13.8402  -19.0104   27.9504 C   0  0  0  0  0  0  0  0  0  0  0  0
   13.7925  -18.0105   27.0736 N   0  0  0  0  0  0  0  0  0  0  0  0
   10.0269  -16.5943   26.7765 C   0  0  0  0  0  0  0  0  0  0  0  0
   10.0401  -17.6391   27.7259 O   0  0  0  0  0  0  0  0  0  0  0  0
    9.5263  -15.5197   27.1587 O   0  0  0  0  0  0  0  0  0  0  0  0
  2  1  1  6
  3  2  1  0
  3  4  1  0
  4  5  2  0
  6  2  1  0
  6  7  2  0
  8  4  1  0
  9 10  1  0
 10 20  2  0
 10 11  1  0
 11 12  2  0
 12 13  1  0
 13 14  1  0
 15 14  1  1
 15 16  1  0
 16  6  1  0
 17 15  1  0
 18 17  2  0
 19 13  2  0
 20 19  1  0
 21 17  1  0
 22 21  1  0
 22 29  1  0
 22 23  1  1
 24 23  1  0
 24 25  2  0
 26 25  1  0
 27 26  1  0
 28 27  2  0
 28 24  1  0
 29 30  1  0
 31 29  2  0
M  END
$$$$
