DYH.pdb
     RDKit          3D

 31 32  0  0  1  0  0  0  0  0999 V2000
   10.6672  -17.1724   17.2142 N   0  0  0  0  0  0  0  0  0  0  0  0
    9.9757  -17.5316   18.4295 C   0  0  1  0  0  0  0  0  0  0  0  0
   10.5496  -18.7878   19.0655 C   0  0  0  0  0  0  0  0  0  0  0  0
   11.0998  -19.6868   18.0399 C   0  0  0  0  0  0  0  0  0  0  0  0
   10.5320  -19.7940   16.9364 O   0  0  0  0  0  0  0  0  0  0  0  0
   10.1175  -16.4669   19.4773 C   0  0  0  0  0  0  0  0  0  0  0  0
    9.7739  -15.2751   19.3125 O   0  0  0  0  0  0  0  0  0  0  0  0
   12.2418  -20.4233   18.2709 O   0  0  0  0  0  0  0  0  0  0  0  0
    7.6309  -11.9356   17.6656 O   0  0  0  0  0  0  0  0  0  0  0  0
    8.0216  -12.7532   18.7423 C   0  0  0  0  0  0  0  0  0  0  0  0
    7.1349  -13.6388   19.2824 C   0  0  0  0  0  0  0  0  0  0  0  0
    7.5631  -14.4287   20.3456 C   0  0  0  0  0  0  0  0  0  0  0  0
    8.8300  -14.3499   20.8643 C   0  0  0  0  0  0  0  0  0  0  0  0
    9.2056  -15.2117   21.9855 C   0  0  0  0  0  0  0  0  0  0  0  0
   10.5964  -15.8116   21.8716 C   0  0  2  0  0  0  0  0  0  0  0  0
   10.6748  -16.7588   20.7829 N   0  0  0  0  0  0  0  0  0  0  0  0
   11.1155  -16.3141   23.1498 C   0  0  0  0  0  0  0  0  0  0  0  0
   10.4383  -17.1542   23.7879 O   0  0  0  0  0  0  0  0  0  0  0  0
    9.7095  -13.4525   20.3072 C   0  0  0  0  0  0  0  0  0  0  0  0
    9.2949  -12.6704   19.2592 C   0  0  0  0  0  0  0  0  0  0  0  0
   12.3471  -15.9228   23.7412 N   0  0  0  0  0  0  0  0  0  0  0  0
   13.2085  -16.9143   24.4105 C   0  0  1  0  0  0  0  0  0  0  0  0
   13.5416  -18.0370   23.4598 C   0  0  0  0  0  0  0  0  0  0  0  0
   12.5530  -19.1344   23.6192 C   0  0  0  0  0  0  0  0  0  0  0  0
   11.4658  -19.1961   24.4636 C   0  0  0  0  0  0  0  0  0  0  0  0
   10.8676  -20.3848   24.2733 N   0  0  0  0  0  0  0  0  0  0  0  0
   11.5359  -21.0770   23.3405 C   0  0  0  0  0  0  0  0  0  0  0  0
   12.5579  -20.3240   22.9412 N   0  0  0  0  0  0  0  0  0  0  0  0
   14.3902  -16.2814   24.9962 C   0  0  0  0  0  0  0  0  0  0  0  0
   14.8197  -15.0773   24.3974 O   0  0  0  0  0  0  0  0  0  0  0  0
   15.0659  -16.6772   25.9650 O   0  0  0  0  0  0  0  0  0  0  0  0
  2  1  1  6
  3  2  1  0
  3  4  1  0
  4  5  2  0
  6  2  1  0
  6  7  2  0
  8  4  1  0
  9 10  1  0
 10 20  2  0
 10 11  1  0
 11 12  2  0
 12 13  1  0
 13 14  1  0
 15 14  1  1
 15 16  1  0
 16  6  1  0
 17 15  1  0
 18 17  2  0
 19 13  2  0
 20 19  1  0
 21 17  1  0
 22 21  1  0
 22 29  1  0
 22 23  1  6
 24 23  1  0
 24 25  2  0
 26 25  1  0
 27 26  1  0
 28 27  2  0
 28 24  1  0
 29 30  1  0
 31 29  2  0
M  END
$$$$
