ENR.pdb
     RDKit          3D

 29 28  0  0  1  0  0  0  0  0999 V2000
   12.3676  -16.7001   18.5552 N   0  0  0  0  0  0  0  0  0  0  0  0
   12.1142  -18.0097   19.1223 C   0  0  1  0  0  0  0  0  0  0  0  0
   12.7527  -19.1099   18.3210 C   0  0  0  0  0  0  0  0  0  0  0  0
   13.6750  -18.6092   17.2595 C   0  0  0  0  0  0  0  0  0  0  0  0
   14.0860  -19.6168   16.2786 C   0  0  0  0  0  0  0  0  0  0  0  0
   14.1356  -19.2520   15.0678 O   0  0  0  0  0  0  0  0  0  0  0  0
   12.7577  -18.0322   20.4843 C   0  0  0  0  0  0  0  0  0  0  0  0
   12.6738  -19.0639   21.1579 O   0  0  0  0  0  0  0  0  0  0  0  0
   14.4254  -20.9272   16.5395 O   0  0  0  0  0  0  0  0  0  0  0  0
   15.4634  -16.8014   24.8772 N   0  0  0  0  0  0  0  0  0  0  0  0
   15.9683  -16.1661   23.7280 C   0  0  0  0  0  0  0  0  0  0  0  0
   17.0814  -15.5661   23.8593 O   0  0  0  0  0  0  0  0  0  0  0  0
   15.3208  -16.1403   22.4040 C   0  0  0  0  0  0  0  0  0  0  0  0
   14.0082  -16.8474   22.3267 C   0  0  2  0  0  0  0  0  0  0  0  0
   13.4446  -16.9096   20.9946 N   0  0  0  0  0  0  0  0  0  0  0  0
   13.0073  -16.2431   23.2367 C   0  0  0  0  0  0  0  0  0  0  0  0
   13.0166  -14.9994   23.4880 O   0  0  0  0  0  0  0  0  0  0  0  0
    7.2159  -14.8107   19.4692 N   0  0  0  0  0  0  0  0  0  0  0  0
    8.3084  -13.9018   19.7101 C   0  0  0  0  0  0  0  0  0  0  0  0
    8.4871  -12.9738   18.8450 N   0  0  0  0  0  0  0  0  0  0  0  0
    9.1397  -14.0349   20.8502 N   0  0  0  0  0  0  0  0  0  0  0  0
    9.0610  -15.1766   21.7265 C   0  0  0  0  0  0  0  0  0  0  0  0
   10.1345  -15.1582   22.7846 C   0  0  0  0  0  0  0  0  0  0  0  0
    9.8203  -16.0157   23.9788 C   0  0  0  0  0  0  0  0  0  0  0  0
   11.0117  -16.4308   24.7720 C   0  0  2  0  0  0  0  0  0  0  0  0
   11.9910  -17.0031   23.8767 N   0  0  0  0  0  0  0  0  0  0  0  0
   10.7512  -17.3498   25.8654 C   0  0  0  0  0  0  0  0  0  0  0  0
    9.9726  -16.9279   26.9327 O   0  0  0  0  0  0  0  0  0  0  0  0
   11.1772  -18.5325   25.9423 O   0  0  0  0  0  0  0  0  0  0  0  0
  2  1  1  6
  3  2  1  0
  4  3  1  0
  5  4  1  0
  5  6  2  0
  7  8  2  0
  7  2  1  0
  9  5  1  0
 11 10  1  0
 12 11  2  0
 14 13  1  6
 13 11  1  0
 14 15  1  0
 15  7  1  0
 16 26  1  0
 16 14  1  0
 17 16  2  0
 19 18  1  0
 19 21  1  0
 20 19  2  0
 22 21  1  0
 23 22  1  0
 24 23  1  0
 25 24  1  6
 25 26  1  0
 27 28  1  0
 27 25  1  0
 29 27  2  0
M  END
$$$$
