ENR.pdb
     RDKit          3D

 29 28  0  0  1  0  0  0  0  0999 V2000
   10.3638  -14.7951   17.6894 N   0  0  0  0  0  0  0  0  0  0  0  0
    9.2255  -14.1372   18.2998 C   0  0  1  0  0  0  0  0  0  0  0  0
    8.1424  -13.8328   17.3027 C   0  0  0  0  0  0  0  0  0  0  0  0
    7.7950  -14.9957   16.4338 C   0  0  0  0  0  0  0  0  0  0  0  0
    8.5818  -15.0980   15.2022 C   0  0  0  0  0  0  0  0  0  0  0  0
    9.5126  -15.9553   15.1855 O   0  0  0  0  0  0  0  0  0  0  0  0
    8.6412  -15.1028   19.2976 C   0  0  0  0  0  0  0  0  0  0  0  0
    7.6891  -14.7294   19.9899 O   0  0  0  0  0  0  0  0  0  0  0  0
    8.4123  -14.3532   14.0545 O   0  0  0  0  0  0  0  0  0  0  0  0
    7.5616  -19.2596   17.3652 N   0  0  0  0  0  0  0  0  0  0  0  0
    7.3639  -18.7693   18.6690 C   0  0  0  0  0  0  0  0  0  0  0  0
    6.2035  -18.3215   18.9323 O   0  0  0  0  0  0  0  0  0  0  0  0
    8.3779  -18.7334   19.7382 C   0  0  0  0  0  0  0  0  0  0  0  0
    8.6009  -17.3924   20.3551 C   0  0  2  0  0  0  0  0  0  0  0  0
    9.1571  -16.4077   19.4511 N   0  0  0  0  0  0  0  0  0  0  0  0
    9.4686  -17.4790   21.5529 C   0  0  0  0  0  0  0  0  0  0  0  0
    9.3575  -18.4395   22.3745 O   0  0  0  0  0  0  0  0  0  0  0  0
   15.4962  -15.9214   18.7878 N   0  0  0  0  0  0  0  0  0  0  0  0
   14.8690  -14.6881   19.1921 C   0  0  0  0  0  0  0  0  0  0  0  0
   14.7120  -13.7973   18.2849 N   0  0  0  0  0  0  0  0  0  0  0  0
   14.4497  -14.4790   20.5297 N   0  0  0  0  0  0  0  0  0  0  0  0
   14.6500  -15.4680   21.5588 C   0  0  0  0  0  0  0  0  0  0  0  0
   13.4169  -16.3020   21.7957 C   0  0  0  0  0  0  0  0  0  0  0  0
   12.4949  -15.7345   22.8387 C   0  0  0  0  0  0  0  0  0  0  0  0
   11.2538  -16.5281   23.0641 C   0  0  2  0  0  0  0  0  0  0  0  0
   10.4628  -16.5092   21.8549 N   0  0  0  0  0  0  0  0  0  0  0  0
   10.4370  -16.1132   24.1905 C   0  0  0  0  0  0  0  0  0  0  0  0
   10.8251  -16.4671   25.4741 O   0  0  0  0  0  0  0  0  0  0  0  0
    9.3749  -15.4409   24.1137 O   0  0  0  0  0  0  0  0  0  0  0  0
  2  1  1  6
  3  2  1  0
  4  3  1  0
  5  4  1  0
  5  6  2  0
  7  8  2  0
  7  2  1  0
  9  5  1  0
 11 10  1  0
 12 11  2  0
 14 13  1  6
 13 11  1  0
 14 15  1  0
 15  7  1  0
 16 26  1  0
 16 14  1  0
 17 16  2  0
 19 18  1  0
 19 21  1  0
 20 19  2  0
 22 21  1  0
 23 22  1  0
 24 23  1  0
 25 24  1  6
 25 26  1  0
 27 28  1  0
 27 25  1  0
 29 27  2  0
M  END
$$$$
