ENR.pdb
     RDKit          3D

 29 28  0  0  1  0  0  0  0  0999 V2000
    6.9896  -17.9380   16.5894 N   0  0  0  0  0  0  0  0  0  0  0  0
    6.8986  -18.9137   17.6575 C   0  0  1  0  0  0  0  0  0  0  0  0
    8.1519  -19.7336   17.7873 C   0  0  0  0  0  0  0  0  0  0  0  0
    9.3978  -18.9116   17.7961 C   0  0  0  0  0  0  0  0  0  0  0  0
   10.6374  -19.6779   17.9460 C   0  0  0  0  0  0  0  0  0  0  0  0
   11.7209  -19.0241   17.9351 O   0  0  0  0  0  0  0  0  0  0  0  0
    6.7446  -18.1454   18.9442 C   0  0  0  0  0  0  0  0  0  0  0  0
    7.1086  -16.9656   18.9724 O   0  0  0  0  0  0  0  0  0  0  0  0
   10.7459  -21.0438   18.0982 O   0  0  0  0  0  0  0  0  0  0  0  0
    3.1798  -18.3835   20.4750 N   0  0  0  0  0  0  0  0  0  0  0  0
    3.6191  -18.8139   21.7403 C   0  0  0  0  0  0  0  0  0  0  0  0
    2.7399  -19.3406   22.4925 O   0  0  0  0  0  0  0  0  0  0  0  0
    4.9956  -18.7055   22.2564 C   0  0  0  0  0  0  0  0  0  0  0  0
    5.9647  -18.0343   21.3403 C   0  0  2  0  0  0  0  0  0  0  0  0
    6.1990  -18.7439   20.1003 N   0  0  0  0  0  0  0  0  0  0  0  0
    7.2682  -17.7959   22.0030 C   0  0  0  0  0  0  0  0  0  0  0  0
    8.2606  -18.5572   21.7900 O   0  0  0  0  0  0  0  0  0  0  0  0
   10.3808  -15.2678   29.8653 N   0  0  0  0  0  0  0  0  0  0  0  0
    9.5217  -14.5372   28.9674 C   0  0  0  0  0  0  0  0  0  0  0  0
    9.2899  -13.3120   29.2614 N   0  0  0  0  0  0  0  0  0  0  0  0
    8.9646  -15.1515   27.8181 N   0  0  0  0  0  0  0  0  0  0  0  0
    8.5643  -14.3909   26.6611 C   0  0  0  0  0  0  0  0  0  0  0  0
    7.9684  -15.2618   25.5846 C   0  0  0  0  0  0  0  0  0  0  0  0
    8.6696  -15.1494   24.2595 C   0  0  0  0  0  0  0  0  0  0  0  0
    8.7706  -16.4296   23.5034 C   0  0  2  0  0  0  0  0  0  0  0  0
    7.4876  -16.7194   22.9049 N   0  0  0  0  0  0  0  0  0  0  0  0
    9.2257  -17.5776   24.2668 C   0  0  0  0  0  0  0  0  0  0  0  0
   10.5701  -17.6850   24.5903 O   0  0  0  0  0  0  0  0  0  0  0  0
    8.4949  -18.5172   24.6780 O   0  0  0  0  0  0  0  0  0  0  0  0
  2  1  1  6
  3  2  1  0
  4  3  1  0
  5  4  1  0
  5  6  2  0
  7  8  2  0
  7  2  1  0
  9  5  1  0
 11 10  1  0
 12 11  2  0
 14 13  1  1
 13 11  1  0
 14 15  1  0
 15  7  1  0
 16 26  1  0
 16 14  1  0
 17 16  2  0
 19 18  1  0
 19 21  1  0
 20 19  2  0
 22 21  1  0
 23 22  1  0
 24 23  1  0
 25 24  1  1
 25 26  1  0
 27 28  1  0
 27 25  1  0
 29 27  2  0
M  END
$$$$
