ENR.pdb
     RDKit          3D

 29 28  0  0  1  0  0  0  0  0999 V2000
    5.4427  -19.5302   20.3884 N   0  0  0  0  0  0  0  0  0  0  0  0
    4.9606  -18.6674   21.4486 C   0  0  1  0  0  0  0  0  0  0  0  0
    3.5867  -19.0568   21.9185 C   0  0  0  0  0  0  0  0  0  0  0  0
    2.8830  -19.9837   20.9838 C   0  0  0  0  0  0  0  0  0  0  0  0
    1.4286  -19.8155   20.9322 C   0  0  0  0  0  0  0  0  0  0  0  0
    0.7944  -20.5507   20.1206 O   0  0  0  0  0  0  0  0  0  0  0  0
    5.8900  -18.8477   22.6205 C   0  0  0  0  0  0  0  0  0  0  0  0
    5.6611  -18.2149   23.6560 O   0  0  0  0  0  0  0  0  0  0  0  0
    0.6762  -18.9346   21.6796 O   0  0  0  0  0  0  0  0  0  0  0  0
    6.3369  -22.1074   24.4783 N   0  0  0  0  0  0  0  0  0  0  0  0
    7.6855  -22.2731   24.1136 C   0  0  0  0  0  0  0  0  0  0  0  0
    8.1343  -23.4623   24.1413 O   0  0  0  0  0  0  0  0  0  0  0  0
    8.6063  -21.1959   23.7081 C   0  0  0  0  0  0  0  0  0  0  0  0
    7.9893  -19.8403   23.6052 C   0  0  2  0  0  0  0  0  0  0  0  0
    7.0012  -19.7156   22.5544 N   0  0  0  0  0  0  0  0  0  0  0  0
    9.0136  -18.7861   23.4196 C   0  0  0  0  0  0  0  0  0  0  0  0
    9.8794  -18.8690   22.4959 O   0  0  0  0  0  0  0  0  0  0  0  0
    7.6843  -11.6926   20.0274 N   0  0  0  0  0  0  0  0  0  0  0  0
    8.0485  -12.9487   19.4212 C   0  0  0  0  0  0  0  0  0  0  0  0
    8.2270  -12.9458   18.1526 N   0  0  0  0  0  0  0  0  0  0  0  0
    8.1995  -14.1248   20.1975 N   0  0  0  0  0  0  0  0  0  0  0  0
    8.4844  -14.0792   21.6097 C   0  0  0  0  0  0  0  0  0  0  0  0
    9.1858  -15.3239   22.0903 C   0  0  0  0  0  0  0  0  0  0  0  0
    9.3928  -15.3641   23.5788 C   0  0  0  0  0  0  0  0  0  0  0  0
   10.0770  -16.5917   24.0746 C   0  0  2  0  0  0  0  0  0  0  0  0
    9.0926  -17.6350   24.2497 N   0  0  0  0  0  0  0  0  0  0  0  0
   10.8464  -16.4341   25.2957 C   0  0  0  0  0  0  0  0  0  0  0  0
   10.4270  -17.0823   26.4478 O   0  0  0  0  0  0  0  0  0  0  0  0
   11.8926  -15.7433   25.4154 O   0  0  0  0  0  0  0  0  0  0  0  0
  2  1  1  6
  3  2  1  0
  4  3  1  0
  5  4  1  0
  5  6  2  0
  7  8  2  0
  7  2  1  0
  9  5  1  0
 11 10  1  0
 12 11  2  0
 14 13  1  6
 13 11  1  0
 14 15  1  0
 15  7  1  0
 16 26  1  0
 16 14  1  0
 17 16  2  0
 19 18  1  0
 19 21  1  0
 20 19  2  0
 22 21  1  0
 23 22  1  0
 24 23  1  0
 25 24  1  1
 25 26  1  0
 27 28  1  0
 27 25  1  0
 29 27  2  0
M  END
$$$$
