ENR.pdb
     RDKit          3D

 29 28  0  0  1  0  0  0  0  0999 V2000
    8.1298  -16.7460   21.2087 N   0  0  0  0  0  0  0  0  0  0  0  0
    9.3690  -16.0316   20.9744 C   0  0  1  0  0  0  0  0  0  0  0  0
    9.2885  -15.1319   19.7727 C   0  0  0  0  0  0  0  0  0  0  0  0
    8.0073  -14.3706   19.6890 C   0  0  0  0  0  0  0  0  0  0  0  0
    7.7616  -13.7230   18.3981 C   0  0  0  0  0  0  0  0  0  0  0  0
    8.6642  -13.8361   17.5184 O   0  0  0  0  0  0  0  0  0  0  0  0
    9.5986  -15.1437   22.1696 C   0  0  0  0  0  0  0  0  0  0  0  0
    9.9019  -13.9623   21.9755 O   0  0  0  0  0  0  0  0  0  0  0  0
    6.6435  -12.9996   18.0412 O   0  0  0  0  0  0  0  0  0  0  0  0
    7.9567  -13.1493   26.7608 N   0  0  0  0  0  0  0  0  0  0  0  0
    7.4204  -13.1246   25.4604 C   0  0  0  0  0  0  0  0  0  0  0  0
    6.4405  -12.3372   25.2703 O   0  0  0  0  0  0  0  0  0  0  0  0
    7.8955  -13.9256   24.3179 C   0  0  0  0  0  0  0  0  0  0  0  0
    9.0514  -14.8239   24.6109 C   0  0  2  0  0  0  0  0  0  0  0  0
    9.4742  -15.6334   23.4875 N   0  0  0  0  0  0  0  0  0  0  0  0
    8.7722  -15.7170   25.7597 C   0  0  0  0  0  0  0  0  0  0  0  0
    8.3272  -15.2562   26.8549 O   0  0  0  0  0  0  0  0  0  0  0  0
   12.5631  -18.8346   20.4640 N   0  0  0  0  0  0  0  0  0  0  0  0
   12.2308  -19.6286   21.6202 C   0  0  0  0  0  0  0  0  0  0  0  0
   11.2310  -20.4215   21.5065 N   0  0  0  0  0  0  0  0  0  0  0  0
   12.9784  -19.5310   22.8204 N   0  0  0  0  0  0  0  0  0  0  0  0
   12.7639  -18.4702   23.7723 C   0  0  0  0  0  0  0  0  0  0  0  0
   11.5042  -18.6710   24.5755 C   0  0  0  0  0  0  0  0  0  0  0  0
   11.3095  -17.6480   25.6598 C   0  0  0  0  0  0  0  0  0  0  0  0
   10.0409  -17.7953   26.4276 C   0  0  2  0  0  0  0  0  0  0  0  0
    8.9819  -17.1219   25.7111 N   0  0  0  0  0  0  0  0  0  0  0  0
   10.0782  -17.3264   27.8012 C   0  0  0  0  0  0  0  0  0  0  0  0
   10.3211  -15.9840   28.0513 O   0  0  0  0  0  0  0  0  0  0  0  0
    9.9058  -18.0431   28.8223 O   0  0  0  0  0  0  0  0  0  0  0  0
  2  1  1  1
  3  2  1  0
  4  3  1  0
  5  4  1  0
  5  6  2  0
  7  8  2  0
  7  2  1  0
  9  5  1  0
 11 10  1  0
 12 11  2  0
 14 13  1  6
 13 11  1  0
 14 15  1  0
 15  7  1  0
 16 26  1  0
 16 14  1  0
 17 16  2  0
 19 18  1  0
 19 21  1  0
 20 19  2  0
 22 21  1  0
 23 22  1  0
 24 23  1  0
 25 24  1  6
 25 26  1  0
 27 28  1  0
 27 25  1  0
 29 27  2  0
M  END
$$$$
