ENR.pdb
     RDKit          3D

 29 28  0  0  1  0  0  0  0  0999 V2000
    9.9608  -27.4665   15.1061 N   0  0  0  0  0  0  0  0  0  0  0  0
   10.4317  -26.2158   14.5450 C   0  0  1  0  0  0  0  0  0  0  0  0
    9.4007  -25.5619   13.6676 C   0  0  0  0  0  0  0  0  0  0  0  0
    9.8918  -24.3180   13.0048 C   0  0  0  0  0  0  0  0  0  0  0  0
    8.9182  -23.6660   12.1253 C   0  0  0  0  0  0  0  0  0  0  0  0
    8.5451  -24.3124   11.1034 O   0  0  0  0  0  0  0  0  0  0  0  0
   10.6787  -25.2801   15.6996 C   0  0  0  0  0  0  0  0  0  0  0  0
   11.2271  -24.1970   15.4725 O   0  0  0  0  0  0  0  0  0  0  0  0
    8.3643  -22.4153   12.2968 O   0  0  0  0  0  0  0  0  0  0  0  0
   10.2315  -25.3557   21.3617 N   0  0  0  0  0  0  0  0  0  0  0  0
    9.4047  -25.6095   20.2521 C   0  0  0  0  0  0  0  0  0  0  0  0
    8.7359  -26.6902   20.2836 O   0  0  0  0  0  0  0  0  0  0  0  0
    9.2535  -24.7369   19.0737 C   0  0  0  0  0  0  0  0  0  0  0  0
   10.4223  -24.7181   18.1451 C   0  0  2  0  0  0  0  0  0  0  0  0
   10.2989  -25.6168   17.0167 N   0  0  0  0  0  0  0  0  0  0  0  0
   11.6884  -25.0186   18.8535 C   0  0  0  0  0  0  0  0  0  0  0  0
   12.0642  -26.2152   19.0448 O   0  0  0  0  0  0  0  0  0  0  0  0
   18.0906  -22.0436   15.6120 N   0  0  0  0  0  0  0  0  0  0  0  0
   18.1547  -23.3362   16.2466 C   0  0  0  0  0  0  0  0  0  0  0  0
   18.6503  -24.2938   15.5546 N   0  0  0  0  0  0  0  0  0  0  0  0
   17.6899  -23.5303   17.5714 N   0  0  0  0  0  0  0  0  0  0  0  0
   16.3127  -23.3169   17.9389 C   0  0  0  0  0  0  0  0  0  0  0  0
   16.0998  -23.4057   19.4286 C   0  0  0  0  0  0  0  0  0  0  0  0
   14.6943  -23.0886   19.8579 C   0  0  0  0  0  0  0  0  0  0  0  0
   13.8099  -24.2789   20.0055 C   0  0  2  0  0  0  0  0  0  0  0  0
   12.5480  -24.0047   19.3569 N   0  0  0  0  0  0  0  0  0  0  0  0
   13.5743  -24.7233   21.3675 C   0  0  0  0  0  0  0  0  0  0  0  0
   12.3630  -24.4285   21.9752 O   0  0  0  0  0  0  0  0  0  0  0  0
   14.3895  -25.3721   22.0751 O   0  0  0  0  0  0  0  0  0  0  0  0
  2  1  1  1
  3  2  1  0
  4  3  1  0
  5  4  1  0
  5  6  2  0
  7  8  2  0
  7  2  1  0
  9  5  1  0
 11 10  1  0
 12 11  2  0
 14 13  1  1
 13 11  1  0
 14 15  1  0
 15  7  1  0
 16 26  1  0
 16 14  1  0
 17 16  2  0
 19 18  1  0
 19 21  1  0
 20 19  2  0
 22 21  1  0
 23 22  1  0
 24 23  1  0
 25 24  1  1
 25 26  1  0
 27 28  1  0
 27 25  1  0
 29 27  2  0
M  END
$$$$
