ENR.pdb
     RDKit          3D

 29 28  0  0  1  0  0  0  0  0999 V2000
   11.8549  -17.2056   17.6204 N   0  0  0  0  0  0  0  0  0  0  0  0
   10.5104  -16.8079   17.9883 C   0  0  1  0  0  0  0  0  0  0  0  0
    9.4680  -17.4546   17.1193 C   0  0  0  0  0  0  0  0  0  0  0  0
    9.8221  -18.8446   16.7064 C   0  0  0  0  0  0  0  0  0  0  0  0
    8.9918  -19.3961   15.6327 C   0  0  0  0  0  0  0  0  0  0  0  0
    7.7575  -19.1185   15.6618 O   0  0  0  0  0  0  0  0  0  0  0  0
   10.2742  -17.2995   19.3926 C   0  0  0  0  0  0  0  0  0  0  0  0
    9.1421  -17.1864   19.8731 O   0  0  0  0  0  0  0  0  0  0  0  0
    9.4183  -20.1900   14.5894 O   0  0  0  0  0  0  0  0  0  0  0  0
   14.5355  -18.6963   21.0300 N   0  0  0  0  0  0  0  0  0  0  0  0
   13.5739  -18.6567   22.0561 C   0  0  0  0  0  0  0  0  0  0  0  0
   13.9130  -18.0535   23.1227 O   0  0  0  0  0  0  0  0  0  0  0  0
   12.2254  -19.2489   21.9956 C   0  0  0  0  0  0  0  0  0  0  0  0
   11.1496  -18.3280   21.5228 C   0  0  2  0  0  0  0  0  0  0  0  0
   11.3106  -17.8788   20.1559 N   0  0  0  0  0  0  0  0  0  0  0  0
   11.0221  -17.1405   22.3996 C   0  0  0  0  0  0  0  0  0  0  0  0
   11.9210  -16.2455   22.4255 O   0  0  0  0  0  0  0  0  0  0  0  0
    8.6669  -11.2981   20.7175 N   0  0  0  0  0  0  0  0  0  0  0  0
    8.2964  -12.3965   19.8608 C   0  0  0  0  0  0  0  0  0  0  0  0
    8.7428  -12.3666   18.6603 N   0  0  0  0  0  0  0  0  0  0  0  0
    7.4779  -13.4537   20.3308 N   0  0  0  0  0  0  0  0  0  0  0  0
    7.4077  -13.8056   21.7268 C   0  0  0  0  0  0  0  0  0  0  0  0
    8.6211  -14.5752   22.1825 C   0  0  0  0  0  0  0  0  0  0  0  0
    8.5655  -14.9913   23.6261 C   0  0  0  0  0  0  0  0  0  0  0  0
    9.7512  -15.7642   24.0924 C   0  0  2  0  0  0  0  0  0  0  0  0
    9.9057  -16.9310   23.2540 N   0  0  0  0  0  0  0  0  0  0  0  0
    9.7337  -16.1628   25.4884 C   0  0  0  0  0  0  0  0  0  0  0  0
    9.8574  -17.5063   25.8098 O   0  0  0  0  0  0  0  0  0  0  0  0
    9.6131  -15.3820   26.4691 O   0  0  0  0  0  0  0  0  0  0  0  0
  2  1  1  6
  3  2  1  0
  4  3  1  0
  5  4  1  0
  5  6  2  0
  7  8  2  0
  7  2  1  0
  9  5  1  0
 11 10  1  0
 12 11  2  0
 14 13  1  1
 13 11  1  0
 14 15  1  0
 15  7  1  0
 16 26  1  0
 16 14  1  0
 17 16  2  0
 19 18  1  0
 19 21  1  0
 20 19  2  0
 22 21  1  0
 23 22  1  0
 24 23  1  0
 25 24  1  6
 25 26  1  0
 27 28  1  0
 27 25  1  0
 29 27  2  0
M  END
$$$$
