WFC.pdb
     RDKit          3D

 32 34  0  0  1  0  0  0  0  0999 V2000
    7.5951  -17.0620   21.3939 N   0  0  0  0  0  0  0  0  0  0  0  0
    8.9864  -17.3689   21.6498 C   0  0  1  0  0  0  0  0  0  0  0  0
    9.8139  -16.6835   20.5870 C   0  0  0  0  0  0  0  0  0  0  0  0
    9.0435  -15.5911   19.9172 C   0  0  0  0  0  0  0  0  0  0  0  0
    8.7241  -15.4693   18.5961 C   0  0  0  0  0  0  0  0  0  0  0  0
    8.0250  -14.3318   18.4509 N   0  0  0  0  0  0  0  0  0  0  0  0
    7.8794  -13.7081   19.6392 C   0  0  0  0  0  0  0  0  0  0  0  0
    7.2448  -12.5195   19.9945 C   0  0  0  0  0  0  0  0  0  0  0  0
    7.2425  -12.0983   21.3054 C   0  0  0  0  0  0  0  0  0  0  0  0
    7.8823  -12.8856   22.2389 C   0  0  0  0  0  0  0  0  0  0  0  0
    8.5119  -14.0666   21.8805 C   0  0  0  0  0  0  0  0  0  0  0  0
    8.5210  -14.5004   20.5659 C   0  0  0  0  0  0  0  0  0  0  0  0
    9.3808  -16.8364   22.9653 C   0  0  0  0  0  0  0  0  0  0  0  0
   10.4778  -16.2351   23.1289 O   0  0  0  0  0  0  0  0  0  0  0  0
    8.5452  -16.9777   24.0993 N   0  0  0  0  0  0  0  0  0  0  0  0
    8.9797  -16.6036   25.4349 C   0  0  1  0  0  0  0  0  0  0  0  0
    7.7656  -16.1364   26.1943 C   0  0  0  0  0  0  0  0  0  0  0  0
    7.5212  -14.6936   26.1225 C   0  0  0  0  0  0  0  0  0  0  0  0
    6.3863  -14.0997   25.6123 C   0  0  0  0  0  0  0  0  0  0  0  0
    6.2501  -12.7142   25.5878 C   0  0  0  0  0  0  0  0  0  0  0  0
    7.2538  -11.9055   26.0762 C   0  0  0  0  0  0  0  0  0  0  0  0
    8.3973  -12.4824   26.5909 C   0  0  0  0  0  0  0  0  0  0  0  0
    8.5009  -13.8482   26.6009 C   0  0  0  0  0  0  0  0  0  0  0  0
    9.4751  -17.8529   26.0924 C   0  0  0  0  0  0  0  0  0  0  0  0
    8.8380  -18.9314   26.0411 O   0  0  0  0  0  0  0  0  0  0  0  0
   10.7210  -17.8521   26.8165 N   0  0  0  0  0  0  0  0  0  0  0  0
   11.2419  -19.0023   27.4873 C   0  0  1  0  0  0  0  0  0  0  0  0
   12.6363  -19.2624   26.9785 C   0  0  0  0  0  0  0  0  0  0  0  0
   13.3906  -20.6725   27.8293 S   0  0  0  0  0  0  0  0  0  0  0  0
   11.2224  -18.8320   28.9658 C   0  0  0  0  0  0  0  0  0  0  0  0
   11.4945  -19.8896   29.7859 O   0  0  0  0  0  0  0  0  0  0  0  0
   10.9547  -17.7133   29.4313 O   0  0  0  0  0  0  0  0  0  0  0  0
  2  1  1  6
  3  2  1  0
  4  3  1  0
  4  5  2  0
  6  5  1  0
  7  6  1  0
  8  7  2  0
  9  8  1  0
 10  9  2  0
 10 11  1  0
 11 12  2  0
 12  7  1  0
 12  4  1  0
 13  2  1  0
 13 14  2  0
 15 16  1  0
 15 13  1  0
 16 17  1  1
 18 17  1  0
 19 18  2  0
 20 19  1  0
 21 20  2  0
 21 22  1  0
 22 23  2  0
 23 18  1  0
 24 16  1  0
 25 24  2  0
 26 24  1  0
 27 26  1  0
 27 30  1  0
 27 28  1  6
 29 28  1  0
 30 31  1  0
 32 30  2  0
M  END
$$$$
