WFC.pdb
     RDKit          3D

 32 34  0  0  1  0  0  0  0  0999 V2000
    7.9296  -17.3983   21.6273 N   0  0  0  0  0  0  0  0  0  0  0  0
    8.1550  -16.6631   22.8536 C   0  0  1  0  0  0  0  0  0  0  0  0
    7.1454  -17.1414   23.8716 C   0  0  0  0  0  0  0  0  0  0  0  0
    6.6098  -16.0053   24.6828 C   0  0  0  0  0  0  0  0  0  0  0  0
    5.6643  -16.0407   25.6662 C   0  0  0  0  0  0  0  0  0  0  0  0
    5.4992  -14.7859   26.1156 N   0  0  0  0  0  0  0  0  0  0  0  0
    6.3098  -13.9331   25.4536 C   0  0  0  0  0  0  0  0  0  0  0  0
    6.4972  -12.5564   25.5593 C   0  0  0  0  0  0  0  0  0  0  0  0
    7.4055  -11.9148   24.7474 C   0  0  0  0  0  0  0  0  0  0  0  0
    8.1117  -12.6749   23.8397 C   0  0  0  0  0  0  0  0  0  0  0  0
    7.9216  -14.0435   23.7385 C   0  0  0  0  0  0  0  0  0  0  0  0
    7.0114  -14.6999   24.5492 C   0  0  0  0  0  0  0  0  0  0  0  0
    9.5063  -16.9490   23.3654 C   0  0  0  0  0  0  0  0  0  0  0  0
   10.1338  -17.9877   23.0203 O   0  0  0  0  0  0  0  0  0  0  0  0
   10.1558  -16.0701   24.2654 N   0  0  0  0  0  0  0  0  0  0  0  0
   11.4395  -16.3867   24.8690 C   0  0  1  0  0  0  0  0  0  0  0  0
   11.9005  -15.1675   25.6240 C   0  0  0  0  0  0  0  0  0  0  0  0
   11.1121  -14.8582   26.8195 C   0  0  0  0  0  0  0  0  0  0  0  0
   11.3434  -15.3623   28.0819 C   0  0  0  0  0  0  0  0  0  0  0  0
   10.5330  -15.0065   29.1567 C   0  0  0  0  0  0  0  0  0  0  0  0
    9.4775  -14.1381   28.9776 C   0  0  0  0  0  0  0  0  0  0  0  0
    9.2307  -13.6234   27.7208 C   0  0  0  0  0  0  0  0  0  0  0  0
   10.0462  -13.9928   26.6840 C   0  0  0  0  0  0  0  0  0  0  0  0
   11.1899  -17.4729   25.8672 C   0  0  0  0  0  0  0  0  0  0  0  0
   10.0885  -17.6009   26.4524 O   0  0  0  0  0  0  0  0  0  0  0  0
   12.2269  -18.4199   26.1903 N   0  0  0  0  0  0  0  0  0  0  0  0
   12.0525  -19.8366   26.1066 C   0  0  1  0  0  0  0  0  0  0  0  0
   11.5260  -20.1737   24.7355 C   0  0  0  0  0  0  0  0  0  0  0  0
    9.8702  -20.9020   24.8314 S   0  0  0  0  0  0  0  0  0  0  0  0
   13.3171  -20.5643   26.4007 C   0  0  0  0  0  0  0  0  0  0  0  0
   14.4789  -20.2087   25.7771 O   0  0  0  0  0  0  0  0  0  0  0  0
   13.2896  -21.4954   27.2206 O   0  0  0  0  0  0  0  0  0  0  0  0
  2  1  1  6
  3  2  1  0
  4  3  1  0
  4  5  2  0
  6  5  1  0
  7  6  1  0
  8  7  2  0
  9  8  1  0
 10  9  2  0
 10 11  1  0
 11 12  2  0
 12  7  1  0
 12  4  1  0
 13  2  1  0
 13 14  2  0
 15 16  1  0
 15 13  1  0
 16 17  1  1
 18 17  1  0
 19 18  2  0
 20 19  1  0
 21 20  2  0
 21 22  1  0
 22 23  2  0
 23 18  1  0
 24 16  1  0
 25 24  2  0
 26 24  1  0
 27 26  1  0
 27 30  1  0
 27 28  1  6
 29 28  1  0
 30 31  1  0
 32 30  2  0
M  END
$$$$
