ICK.pdb
     RDKit          3D

 24 23  0  0  1  0  0  0  0  0999 V2000
   26.2128  -14.6472  -15.3741 C   0  0  0  0  0  0  0  0  0  0  0  0
   25.3935  -15.6904  -16.0841 C   0  0  0  0  0  0  0  0  0  0  0  0
   25.5540  -17.0580  -15.4954 C   0  0  2  0  0  0  0  0  0  0  0  0
   27.0036  -17.4242  -15.4751 C   0  0  0  0  0  0  0  0  0  0  0  0
   24.6817  -18.0900  -16.1678 C   0  0  2  0  0  0  0  0  0  0  0  0
   23.3015  -17.7037  -15.9501 N   0  0  0  0  0  0  0  0  0  0  0  0
   24.9050  -19.3872  -15.4432 C   0  0  0  0  0  0  0  0  0  0  0  0
   26.0025  -19.9998  -15.5136 O   0  0  0  0  0  0  0  0  0  0  0  0
   23.8853  -19.9785  -14.6463 N   0  0  0  0  0  0  0  0  0  0  0  0
   24.1256  -21.2103  -13.8843 C   0  0  1  0  0  0  0  0  0  0  0  0
   23.0782  -21.2309  -12.7788 C   0  0  0  0  0  0  0  0  0  0  0  0
   21.4394  -21.0632  -13.5175 S   0  0  0  0  0  0  0  0  0  0  0  0
   23.9083  -22.3708  -14.7554 C   0  0  0  0  0  0  0  0  0  0  0  0
   23.0721  -22.2639  -15.7037 O   0  0  0  0  0  0  0  0  0  0  0  0
   24.5806  -23.5996  -14.5935 N   0  0  0  0  0  0  0  0  0  0  0  0
   24.4348  -24.7091  -15.5188 C   0  0  1  0  0  0  0  0  0  0  0  0
   25.6479  -25.5974  -15.4865 C   0  0  0  0  0  0  0  0  0  0  0  0
   25.5702  -26.7583  -16.4110 C   0  0  0  0  0  0  0  0  0  0  0  0
   26.7976  -27.6188  -16.3932 C   0  0  0  0  0  0  0  0  0  0  0  0
   26.6643  -28.7535  -17.3646 C   0  0  0  0  0  0  0  0  0  0  0  0
   27.8457  -29.5625  -17.4661 N   0  0  0  0  0  0  0  0  0  0  0  0
   23.1985  -25.4309  -15.1302 C   0  0  0  0  0  0  0  0  0  0  0  0
   22.3968  -26.1094  -16.0571 O   0  0  0  0  0  0  0  0  0  0  0  0
   22.7807  -25.4844  -13.9319 O   0  0  0  0  0  0  0  0  0  0  0  0
  2  1  1  0
  3  2  1  0
  3  4  1  6
  5  6  1  1
  5  7  1  0
  5  3  1  0
  7  9  1  0
  8  7  2  0
  9 10  1  0
 10 11  1  1
 11 12  1  0
 13 15  1  0
 13 10  1  0
 14 13  2  0
 16 22  1  0
 16 15  1  0
 16 17  1  1
 18 17  1  0
 19 18  1  0
 20 19  1  0
 21 20  1  0
 22 23  1  0
 24 22  2  0
M  END
$$$$
