ICK.pdb
     RDKit          3D

 24 23  0  0  1  0  0  0  0  0999 V2000
   17.8210  -14.6857  -18.2446 C   0  0  0  0  0  0  0  0  0  0  0  0
   18.4707  -14.4441  -16.9094 C   0  0  0  0  0  0  0  0  0  0  0  0
   18.2045  -13.0721  -16.3712 C   0  0  2  0  0  0  0  0  0  0  0  0
   16.7302  -12.8746  -16.2192 C   0  0  0  0  0  0  0  0  0  0  0  0
   18.8775  -11.9874  -17.1766 C   0  0  2  0  0  0  0  0  0  0  0  0
   20.2618  -12.3760  -17.3613 N   0  0  0  0  0  0  0  0  0  0  0  0
   18.8681  -10.7469  -16.3288 C   0  0  0  0  0  0  0  0  0  0  0  0
   17.7944  -10.2586  -15.8888 O   0  0  0  0  0  0  0  0  0  0  0  0
   20.0727  -10.0710  -15.9872 N   0  0  0  0  0  0  0  0  0  0  0  0
   20.0589   -8.8275  -15.2067 C   0  0  1  0  0  0  0  0  0  0  0  0
   21.4449   -8.7057  -14.5870 C   0  0  0  0  0  0  0  0  0  0  0  0
   21.5202   -7.1918  -13.6062 S   0  0  0  0  0  0  0  0  0  0  0  0
   19.8490   -7.6897  -16.1091 C   0  0  0  0  0  0  0  0  0  0  0  0
   20.4666   -7.6780  -17.2174 O   0  0  0  0  0  0  0  0  0  0  0  0
   18.9963   -6.6078  -15.8087 N   0  0  0  0  0  0  0  0  0  0  0  0
   18.7508   -5.5139  -16.7315 C   0  0  1  0  0  0  0  0  0  0  0  0
   17.3267   -5.5289  -17.2146 C   0  0  0  0  0  0  0  0  0  0  0  0
   16.9904   -4.4123  -18.1356 C   0  0  0  0  0  0  0  0  0  0  0  0
   15.5543   -4.4049  -18.5655 C   0  0  0  0  0  0  0  0  0  0  0  0
   15.2857   -3.2627  -19.4995 C   0  0  0  0  0  0  0  0  0  0  0  0
   13.9021   -3.1279  -19.8566 N   0  0  0  0  0  0  0  0  0  0  0  0
   19.0870   -4.2620  -16.0102 C   0  0  0  0  0  0  0  0  0  0  0  0
   19.1578   -4.1908  -14.6130 O   0  0  0  0  0  0  0  0  0  0  0  0
   19.3337   -3.1685  -16.6076 O   0  0  0  0  0  0  0  0  0  0  0  0
  2  1  1  0
  3  2  1  0
  3  4  1  6
  5  6  1  1
  5  7  1  0
  5  3  1  0
  7  9  1  0
  8  7  2  0
  9 10  1  0
 10 11  1  6
 11 12  1  0
 13 15  1  0
 13 10  1  0
 14 13  2  0
 16 22  1  0
 16 15  1  0
 16 17  1  1
 18 17  1  0
 19 18  1  0
 20 19  1  0
 21 20  1  0
 22 23  1  0
 24 22  2  0
M  END
$$$$
