ICK.pdb
     RDKit          3D

 24 23  0  0  1  0  0  0  0  0999 V2000
   19.4473  -13.3202  -21.0947 C   0  0  0  0  0  0  0  0  0  0  0  0
   20.5758  -13.2654  -20.1013 C   0  0  0  0  0  0  0  0  0  0  0  0
   20.3113  -12.3203  -18.9701 C   0  0  2  0  0  0  0  0  0  0  0  0
   19.9816  -10.9685  -19.5176 C   0  0  0  0  0  0  0  0  0  0  0  0
   21.4246  -12.3020  -17.9511 C   0  0  2  0  0  0  0  0  0  0  0  0
   21.5765  -13.6523  -17.4461 N   0  0  0  0  0  0  0  0  0  0  0  0
   20.9553  -11.4453  -16.8094 C   0  0  0  0  0  0  0  0  0  0  0  0
   19.8513  -11.6529  -16.2413 O   0  0  0  0  0  0  0  0  0  0  0  0
   21.7391  -10.3625  -16.3216 N   0  0  0  0  0  0  0  0  0  0  0  0
   21.2491   -9.4816  -15.2541 C   0  0  1  0  0  0  0  0  0  0  0  0
   21.8064  -10.0473  -13.9544 C   0  0  0  0  0  0  0  0  0  0  0  0
   23.5797  -10.3266  -14.1466 S   0  0  0  0  0  0  0  0  0  0  0  0
   21.7941   -8.1332  -15.4483 C   0  0  0  0  0  0  0  0  0  0  0  0
   22.9350   -8.0171  -15.9912 O   0  0  0  0  0  0  0  0  0  0  0  0
   21.1156   -6.9589  -15.0629 N   0  0  0  0  0  0  0  0  0  0  0  0
   21.6433   -5.6267  -15.2985 C   0  0  1  0  0  0  0  0  0  0  0  0
   20.5407   -4.6685  -15.6558 C   0  0  0  0  0  0  0  0  0  0  0  0
   20.6028   -4.1723  -17.0552 C   0  0  0  0  0  0  0  0  0  0  0  0
   19.4157   -4.5662  -17.8815 C   0  0  0  0  0  0  0  0  0  0  0  0
   19.5622   -4.0728  -19.2901 C   0  0  0  0  0  0  0  0  0  0  0  0
   18.4645   -4.4350  -20.1411 N   0  0  0  0  0  0  0  0  0  0  0  0
   22.3590   -5.2252  -14.0627 C   0  0  0  0  0  0  0  0  0  0  0  0
   23.4082   -4.2971  -14.0651 O   0  0  0  0  0  0  0  0  0  0  0  0
   22.0714   -5.6938  -12.9177 O   0  0  0  0  0  0  0  0  0  0  0  0
  2  1  1  0
  3  2  1  0
  3  4  1  6
  5  6  1  1
  5  7  1  0
  5  3  1  0
  7  9  1  0
  8  7  2  0
  9 10  1  0
 10 11  1  1
 11 12  1  0
 13 15  1  0
 13 10  1  0
 14 13  2  0
 16 22  1  0
 16 15  1  0
 16 17  1  1
 18 17  1  0
 19 18  1  0
 20 19  1  0
 21 20  1  0
 22 23  1  0
 24 22  2  0
M  END
$$$$
