ICK.pdb
     RDKit          3D

 24 23  0  0  1  0  0  0  0  0999 V2000
   19.9294  -16.4199  -18.5399 C   0  0  0  0  0  0  0  0  0  0  0  0
   20.5361  -15.1450  -19.0596 C   0  0  0  0  0  0  0  0  0  0  0  0
   20.4232  -14.0084  -18.0911 C   0  0  2  0  0  0  0  0  0  0  0  0
   19.0055  -13.8846  -17.6321 C   0  0  0  0  0  0  0  0  0  0  0  0
   20.9957  -12.7207  -18.6316 C   0  0  2  0  0  0  0  0  0  0  0  0
   22.3990  -12.9509  -18.9127 N   0  0  0  0  0  0  0  0  0  0  0  0
   20.9193  -11.7109  -17.5216 C   0  0  0  0  0  0  0  0  0  0  0  0
   19.8257  -11.4213  -16.9695 O   0  0  0  0  0  0  0  0  0  0  0  0
   22.0802  -11.0387  -17.0471 N   0  0  0  0  0  0  0  0  0  0  0  0
   21.9982  -10.0160  -15.9969 C   0  0  1  0  0  0  0  0  0  0  0  0
   23.4353   -9.7105  -15.5955 C   0  0  0  0  0  0  0  0  0  0  0  0
   24.0275  -11.0112  -14.4922 S   0  0  0  0  0  0  0  0  0  0  0  0
   21.3989   -8.7969  -16.5515 C   0  0  0  0  0  0  0  0  0  0  0  0
   21.7606   -8.4203  -17.7079 O   0  0  0  0  0  0  0  0  0  0  0  0
   20.4413   -8.0216  -15.8660 N   0  0  0  0  0  0  0  0  0  0  0  0
   19.8204   -6.8415  -16.4408 C   0  0  1  0  0  0  0  0  0  0  0  0
   18.3334   -7.0265  -16.5694 C   0  0  0  0  0  0  0  0  0  0  0  0
   17.9347   -7.9880  -17.6300 C   0  0  0  0  0  0  0  0  0  0  0  0
   16.4502   -8.1029  -17.8042 C   0  0  0  0  0  0  0  0  0  0  0  0
   16.1172   -9.0921  -18.8810 C   0  0  0  0  0  0  0  0  0  0  0  0
   14.7112   -9.1925  -19.1518 N   0  0  0  0  0  0  0  0  0  0  0  0
   20.1712   -5.7011  -15.5595 C   0  0  0  0  0  0  0  0  0  0  0  0
   20.2874   -4.3880  -16.0334 O   0  0  0  0  0  0  0  0  0  0  0  0
   20.3906   -5.8346  -14.3156 O   0  0  0  0  0  0  0  0  0  0  0  0
  2  1  1  0
  3  2  1  0
  3  4  1  6
  5  6  1  1
  5  7  1  0
  5  3  1  0
  7  9  1  0
  8  7  2  0
  9 10  1  0
 10 11  1  6
 11 12  1  0
 13 15  1  0
 13 10  1  0
 14 13  2  0
 16 22  1  0
 16 15  1  0
 16 17  1  1
 18 17  1  0
 19 18  1  0
 20 19  1  0
 21 20  1  0
 22 23  1  0
 24 22  2  0
M  END
$$$$
