ICK.pdb
     RDKit          3D

 24 23  0  0  1  0  0  0  0  0999 V2000
   27.0408  -14.6681  -19.9088 C   0  0  0  0  0  0  0  0  0  0  0  0
   26.9078  -14.7559  -18.4129 C   0  0  0  0  0  0  0  0  0  0  0  0
   25.6924  -14.0519  -17.8932 C   0  0  2  0  0  0  0  0  0  0  0  0
   25.6947  -12.6355  -18.3724 C   0  0  0  0  0  0  0  0  0  0  0  0
   25.5366  -14.1812  -16.3975 C   0  0  2  0  0  0  0  0  0  0  0  0
   25.5537  -15.5949  -16.0774 N   0  0  0  0  0  0  0  0  0  0  0  0
   24.1697  -13.6594  -16.0558 C   0  0  0  0  0  0  0  0  0  0  0  0
   23.1328  -14.3407  -16.2691 O   0  0  0  0  0  0  0  0  0  0  0  0
   23.9889  -12.3724  -15.4764 N   0  0  0  0  0  0  0  0  0  0  0  0
   22.6555  -11.8748  -15.1157 C   0  0  1  0  0  0  0  0  0  0  0  0
   22.4775  -12.1867  -13.6356 C   0  0  0  0  0  0  0  0  0  0  0  0
   20.9560  -11.4113  -13.0494 S   0  0  0  0  0  0  0  0  0  0  0  0
   22.6155  -10.4189  -15.2944 C   0  0  0  0  0  0  0  0  0  0  0  0
   23.5911   -9.7321  -14.8627 O   0  0  0  0  0  0  0  0  0  0  0  0
   21.5487   -9.7429  -15.9211 N   0  0  0  0  0  0  0  0  0  0  0  0
   21.4935   -8.2974  -16.0480 C   0  0  1  0  0  0  0  0  0  0  0  0
   20.4787   -7.8879  -17.0796 C   0  0  0  0  0  0  0  0  0  0  0  0
   20.4061   -6.4208  -17.3051 C   0  0  0  0  0  0  0  0  0  0  0  0
   19.4684   -6.0320  -18.4081 C   0  0  0  0  0  0  0  0  0  0  0  0
   19.4527   -4.5437  -18.5915 C   0  0  0  0  0  0  0  0  0  0  0  0
   18.8057   -4.1223  -19.8014 N   0  0  0  0  0  0  0  0  0  0  0  0
   21.1751   -7.7615  -14.7020 C   0  0  0  0  0  0  0  0  0  0  0  0
   21.7489   -6.5856  -14.2018 O   0  0  0  0  0  0  0  0  0  0  0  0
   20.3612   -8.3301  -13.9096 O   0  0  0  0  0  0  0  0  0  0  0  0
  2  1  1  0
  3  2  1  0
  3  4  1  1
  5  6  1  6
  5  7  1  0
  5  3  1  0
  7  9  1  0
  8  7  2  0
  9 10  1  0
 10 11  1  1
 11 12  1  0
 13 15  1  0
 13 10  1  0
 14 13  2  0
 16 22  1  0
 16 15  1  0
 16 17  1  6
 18 17  1  0
 19 18  1  0
 20 19  1  0
 21 20  1  0
 22 23  1  0
 24 22  2  0
M  END
$$$$
