ICK.pdb
     RDKit          3D

 24 23  0  0  1  0  0  0  0  0999 V2000
   29.4569  -23.2000  -16.2070 C   0  0  0  0  0  0  0  0  0  0  0  0
   28.7514  -22.1165  -15.4378 C   0  0  0  0  0  0  0  0  0  0  0  0
   27.9548  -21.2019  -16.3163 C   0  0  2  0  0  0  0  0  0  0  0  0
   28.8473  -20.6146  -17.3624 C   0  0  0  0  0  0  0  0  0  0  0  0
   27.1814  -20.1678  -15.5349 C   0  0  2  0  0  0  0  0  0  0  0  0
   28.1346  -19.4165  -14.7423 N   0  0  0  0  0  0  0  0  0  0  0  0
   26.2948  -20.9170  -14.5808 C   0  0  0  0  0  0  0  0  0  0  0  0
   25.4702  -21.7775  -14.9863 O   0  0  0  0  0  0  0  0  0  0  0  0
   26.3496  -20.6857  -13.1779 N   0  0  0  0  0  0  0  0  0  0  0  0
   25.3606  -21.2728  -12.2652 C   0  0  1  0  0  0  0  0  0  0  0  0
   25.8932  -21.0325  -10.8586 C   0  0  0  0  0  0  0  0  0  0  0  0
   24.5002  -20.8086   -9.7321 S   0  0  0  0  0  0  0  0  0  0  0  0
   24.0847  -20.5627  -12.4092 C   0  0  0  0  0  0  0  0  0  0  0  0
   24.0798  -19.3006  -12.2793 O   0  0  0  0  0  0  0  0  0  0  0  0
   22.8629  -21.2102  -12.6847 N   0  0  0  0  0  0  0  0  0  0  0  0
   21.6414  -20.4926  -13.0034 C   0  0  1  0  0  0  0  0  0  0  0  0
   21.4076  -20.4647  -14.4887 C   0  0  0  0  0  0  0  0  0  0  0  0
   20.4461  -19.4205  -14.9285 C   0  0  0  0  0  0  0  0  0  0  0  0
   20.1172  -19.4890  -16.3894 C   0  0  0  0  0  0  0  0  0  0  0  0
   19.2657  -18.3237  -16.7970 C   0  0  0  0  0  0  0  0  0  0  0  0
   19.9792  -17.0788  -16.8361 N   0  0  0  0  0  0  0  0  0  0  0  0
   20.5432  -21.1721  -12.2736 C   0  0  0  0  0  0  0  0  0  0  0  0
   19.4288  -20.4850  -11.7752 O   0  0  0  0  0  0  0  0  0  0  0  0
   20.5358  -22.4224  -12.0498 O   0  0  0  0  0  0  0  0  0  0  0  0
  2  1  1  0
  3  2  1  0
  3  4  1  6
  5  6  1  1
  5  7  1  0
  5  3  1  0
  7  9  1  0
  8  7  2  0
  9 10  1  0
 10 11  1  1
 11 12  1  0
 13 15  1  0
 13 10  1  0
 14 13  2  0
 16 22  1  0
 16 15  1  0
 16 17  1  6
 18 17  1  0
 19 18  1  0
 20 19  1  0
 21 20  1  0
 22 23  1  0
 24 22  2  0
M  END
$$$$
