ICK.pdb
     RDKit          3D

 24 23  0  0  1  0  0  0  0  0999 V2000
   13.6081  -13.4482  -12.5720 C   0  0  0  0  0  0  0  0  0  0  0  0
   13.7204  -12.6511  -11.3011 C   0  0  0  0  0  0  0  0  0  0  0  0
   14.3495  -11.3079  -11.5089 C   0  0  2  0  0  0  0  0  0  0  0  0
   15.6343  -11.4704  -12.2563 C   0  0  0  0  0  0  0  0  0  0  0  0
   14.4936  -10.5252  -10.2265 C   0  0  2  0  0  0  0  0  0  0  0  0
   13.1605  -10.2775   -9.7140 N   0  0  0  0  0  0  0  0  0  0  0  0
   15.0885   -9.1950  -10.5934 C   0  0  0  0  0  0  0  0  0  0  0  0
   14.5509   -8.4480  -11.4522 O   0  0  0  0  0  0  0  0  0  0  0  0
   16.2853   -8.7230   -9.9854 N   0  0  0  0  0  0  0  0  0  0  0  0
   16.8762   -7.4315  -10.3576 C   0  0  1  0  0  0  0  0  0  0  0  0
   17.0349   -6.6528   -9.0583 C   0  0  0  0  0  0  0  0  0  0  0  0
   15.3994   -6.2995   -8.3803 S   0  0  0  0  0  0  0  0  0  0  0  0
   18.2069   -7.6542  -10.9343 C   0  0  0  0  0  0  0  0  0  0  0  0
   18.9954   -8.4509  -10.3398 O   0  0  0  0  0  0  0  0  0  0  0  0
   18.6555   -7.0286  -12.1155 N   0  0  0  0  0  0  0  0  0  0  0  0
   19.9007   -7.3814  -12.7739 C   0  0  1  0  0  0  0  0  0  0  0  0
   19.6427   -8.2195  -13.9957 C   0  0  0  0  0  0  0  0  0  0  0  0
   20.8742   -8.6121  -14.7290 C   0  0  0  0  0  0  0  0  0  0  0  0
   20.6097   -9.4988  -15.9083 C   0  0  0  0  0  0  0  0  0  0  0  0
   21.8965   -9.9428  -16.5376 C   0  0  0  0  0  0  0  0  0  0  0  0
   22.6550  -10.8433  -15.7166 N   0  0  0  0  0  0  0  0  0  0  0  0
   20.5881   -6.1080  -13.1001 C   0  0  0  0  0  0  0  0  0  0  0  0
   19.9074   -4.8887  -13.2098 O   0  0  0  0  0  0  0  0  0  0  0  0
   21.8398   -6.0338  -13.3026 O   0  0  0  0  0  0  0  0  0  0  0  0
  2  1  1  0
  3  2  1  0
  3  4  1  1
  5  6  1  6
  5  7  1  0
  5  3  1  0
  7  9  1  0
  8  7  2  0
  9 10  1  0
 10 11  1  1
 11 12  1  0
 13 15  1  0
 13 10  1  0
 14 13  2  0
 16 22  1  0
 16 15  1  0
 16 17  1  6
 18 17  1  0
 19 18  1  0
 20 19  1  0
 21 20  1  0
 22 23  1  0
 24 22  2  0
M  END
$$$$
