ICK.pdb
     RDKit          3D

 24 23  0  0  1  0  0  0  0  0999 V2000
   17.0923  -14.2577  -18.2985 C   0  0  0  0  0  0  0  0  0  0  0  0
   18.1853  -13.2373  -18.1324 C   0  0  0  0  0  0  0  0  0  0  0  0
   17.6986  -11.9536  -17.5341 C   0  0  2  0  0  0  0  0  0  0  0  0
   16.4884  -11.4855  -18.2771 C   0  0  0  0  0  0  0  0  0  0  0  0
   18.7829  -10.9089  -17.4301 C   0  0  2  0  0  0  0  0  0  0  0  0
   19.8314  -11.4501  -16.5882 N   0  0  0  0  0  0  0  0  0  0  0  0
   18.1872   -9.7341  -16.7071 C   0  0  0  0  0  0  0  0  0  0  0  0
   17.1711   -9.1361  -17.1482 O   0  0  0  0  0  0  0  0  0  0  0  0
   18.7464   -9.2475  -15.4926 N   0  0  0  0  0  0  0  0  0  0  0  0
   18.2300   -8.0367  -14.8420 C   0  0  1  0  0  0  0  0  0  0  0  0
   18.9116   -7.9681  -13.4817 C   0  0  0  0  0  0  0  0  0  0  0  0
   18.0929   -9.1166  -12.3546 S   0  0  0  0  0  0  0  0  0  0  0  0
   18.6259   -6.8591  -15.6228 C   0  0  0  0  0  0  0  0  0  0  0  0
   19.7995   -6.8221  -16.1037 O   0  0  0  0  0  0  0  0  0  0  0  0
   17.7697   -5.7658  -15.8666 N   0  0  0  0  0  0  0  0  0  0  0  0
   18.1237   -4.6637  -16.7433 C   0  0  1  0  0  0  0  0  0  0  0  0
   17.2315   -4.6332  -17.9535 C   0  0  0  0  0  0  0  0  0  0  0  0
   17.6264   -5.5915  -19.0185 C   0  0  0  0  0  0  0  0  0  0  0  0
   16.7512   -5.5274  -20.2338 C   0  0  0  0  0  0  0  0  0  0  0  0
   17.1977   -6.5231  -21.2624 C   0  0  0  0  0  0  0  0  0  0  0  0
   16.4067   -6.5035  -22.4600 N   0  0  0  0  0  0  0  0  0  0  0  0
   18.0189   -3.4239  -15.9357 C   0  0  0  0  0  0  0  0  0  0  0  0
   18.8203   -2.2992  -16.1708 O   0  0  0  0  0  0  0  0  0  0  0  0
   17.1968   -3.2949  -14.9761 O   0  0  0  0  0  0  0  0  0  0  0  0
  2  1  1  0
  3  2  1  0
  3  4  1  6
  5  6  1  1
  5  7  1  0
  5  3  1  0
  7  9  1  0
  8  7  2  0
  9 10  1  0
 10 11  1  1
 11 12  1  0
 13 15  1  0
 13 10  1  0
 14 13  2  0
 16 22  1  0
 16 15  1  0
 16 17  1  6
 18 17  1  0
 19 18  1  0
 20 19  1  0
 21 20  1  0
 22 23  1  0
 24 22  2  0
M  END
$$$$
