IVN.pdb
     RDKit          3D

 24 23  0  0  1  0  0  0  0  0999 V2000
   28.4312  -19.4720   -4.2514 C   0  0  0  0  0  0  0  0  0  0  0  0
   27.6208  -20.4816   -5.0352 C   0  0  0  0  0  0  0  0  0  0  0  0
   27.6932  -20.2333   -6.5272 C   0  0  2  0  0  0  0  0  0  0  0  0
   28.5053  -18.9679   -6.7261 C   0  0  0  0  0  0  0  0  0  0  0  0
   26.2691  -20.0244   -7.0053 C   0  0  2  0  0  0  0  0  0  0  0  0
   25.4176  -21.1351   -6.6223 N   0  0  0  0  0  0  0  0  0  0  0  0
   26.1923  -19.8897   -8.4732 C   0  0  0  0  0  0  0  0  0  0  0  0
   26.9981  -19.1358   -9.1221 O   0  0  0  0  0  0  0  0  0  0  0  0
   26.4612  -22.6624  -10.8137 C   0  0  0  0  0  0  0  0  0  0  0  0
   26.5235  -21.2128  -11.1525 C   0  0  1  0  0  0  0  0  0  0  0  0
   26.9540  -20.9218  -12.5570 C   0  0  0  0  0  0  0  0  0  0  0  0
   25.2380  -20.4795  -10.7526 C   0  0  2  0  0  0  0  0  0  0  0  0
   25.2425  -20.5656   -9.2810 N   0  0  0  0  0  0  0  0  0  0  0  0
   24.0254  -21.1418  -11.2951 C   0  0  0  0  0  0  0  0  0  0  0  0
   23.2062  -21.6836  -10.4730 O   0  0  0  0  0  0  0  0  0  0  0  0
   20.5448  -17.5081  -12.9240 N   0  0  0  0  0  0  0  0  0  0  0  0
   20.9567  -18.7873  -12.4519 C   0  0  0  0  0  0  0  0  0  0  0  0
   20.1223  -19.4793  -11.8556 O   0  0  0  0  0  0  0  0  0  0  0  0
   22.3208  -19.2141  -12.6897 C   0  0  0  0  0  0  0  0  0  0  0  0
   22.4548  -20.6124  -13.2234 C   0  0  2  0  0  0  0  0  0  0  0  0
   23.6984  -21.2216  -12.6673 N   0  0  0  0  0  0  0  0  0  0  0  0
   22.4763  -20.7418  -14.6790 C   0  0  0  0  0  0  0  0  0  0  0  0
   21.4151  -21.1587  -15.4308 O   0  0  0  0  0  0  0  0  0  0  0  0
   23.5350  -20.4593  -15.3436 O   0  0  0  0  0  0  0  0  0  0  0  0
  1  2  1  0
  2  3  1  0
  3  5  1  0
  3  4  1  1
  5  6  1  6
  7  8  2  0
  7  5  1  0
 10 11  1  6
 10  9  1  0
 12 10  1  0
 12 13  1  1
 13  7  1  0
 14 12  1  0
 15 14  2  0
 17 16  1  0
 18 17  2  0
 20 19  1  6
 19 17  1  0
 20 21  1  0
 21 14  1  0
 22 20  1  0
 22 23  1  0
 24 22  2  0
M  END
$$$$
