IVN.pdb
     RDKit          3D

 24 23  0  0  1  0  0  0  0  0999 V2000
   25.6925  -24.3907  -19.2532 C   0  0  0  0  0  0  0  0  0  0  0  0
   26.7915  -23.9820  -18.2964 C   0  0  0  0  0  0  0  0  0  0  0  0
   27.3339  -22.6032  -18.6093 C   0  0  2  0  0  0  0  0  0  0  0  0
   28.0401  -22.6991  -19.9481 C   0  0  0  0  0  0  0  0  0  0  0  0
   28.3273  -22.2652  -17.5142 C   0  0  2  0  0  0  0  0  0  0  0  0
   29.3561  -23.2826  -17.4052 N   0  0  0  0  0  0  0  0  0  0  0  0
   27.6769  -22.1461  -16.1946 C   0  0  0  0  0  0  0  0  0  0  0  0
   27.7513  -23.0795  -15.3217 O   0  0  0  0  0  0  0  0  0  0  0  0
   28.1530  -19.3580  -13.7673 C   0  0  0  0  0  0  0  0  0  0  0  0
   26.6868  -19.4930  -13.9957 C   0  0  1  0  0  0  0  0  0  0  0  0
   26.0920  -18.4226  -14.8578 C   0  0  0  0  0  0  0  0  0  0  0  0
   26.3096  -20.9087  -14.4472 C   0  0  2  0  0  0  0  0  0  0  0  0
   26.9277  -21.0150  -15.7812 N   0  0  0  0  0  0  0  0  0  0  0  0
   24.8399  -21.0877  -14.5541 C   0  0  0  0  0  0  0  0  0  0  0  0
   24.2447  -20.6409  -15.5965 O   0  0  0  0  0  0  0  0  0  0  0  0
   19.8171  -22.2105  -13.6838 N   0  0  0  0  0  0  0  0  0  0  0  0
   20.6105  -23.1518  -12.9676 C   0  0  0  0  0  0  0  0  0  0  0  0
   20.0273  -24.0741  -12.3845 O   0  0  0  0  0  0  0  0  0  0  0  0
   22.0500  -22.9867  -12.9553 C   0  0  0  0  0  0  0  0  0  0  0  0
   22.5475  -21.7792  -13.6984 C   0  0  2  0  0  0  0  0  0  0  0  0
   24.0343  -21.7228  -13.5826 N   0  0  0  0  0  0  0  0  0  0  0  0
   21.9924  -20.4949  -13.2759 C   0  0  0  0  0  0  0  0  0  0  0  0
   22.6155  -19.6300  -12.4223 O   0  0  0  0  0  0  0  0  0  0  0  0
   20.8487  -20.1060  -13.7040 O   0  0  0  0  0  0  0  0  0  0  0  0
  1  2  1  0
  2  3  1  0
  3  5  1  0
  3  4  1  6
  5  6  1  1
  7  8  2  0
  7  5  1  0
 10 11  1  6
 10  9  1  0
 12 10  1  0
 12 13  1  6
 13  7  1  0
 14 12  1  0
 15 14  2  0
 17 16  1  0
 18 17  2  0
 20 19  1  1
 19 17  1  0
 20 21  1  0
 21 14  1  0
 22 20  1  0
 22 23  1  0
 24 22  2  0
M  END
$$$$
