IVN.pdb
     RDKit          3D

 24 23  0  0  1  0  0  0  0  0999 V2000
   25.9512  -20.7070   -7.6838 C   0  0  0  0  0  0  0  0  0  0  0  0
   25.5248  -21.3086   -9.0054 C   0  0  0  0  0  0  0  0  0  0  0  0
   25.3956  -20.2612  -10.0913 C   0  0  2  0  0  0  0  0  0  0  0  0
   24.2358  -19.3638   -9.7044 C   0  0  0  0  0  0  0  0  0  0  0  0
   25.0812  -21.0012  -11.3773 C   0  0  2  0  0  0  0  0  0  0  0  0
   25.8589  -22.2214  -11.4856 N   0  0  0  0  0  0  0  0  0  0  0  0
   25.3683  -20.1824  -12.5713 C   0  0  0  0  0  0  0  0  0  0  0  0
   24.7505  -19.0843  -12.7980 O   0  0  0  0  0  0  0  0  0  0  0  0
   28.3680  -19.2459  -16.3872 C   0  0  0  0  0  0  0  0  0  0  0  0
   27.9981  -19.8953  -15.0981 C   0  0  1  0  0  0  0  0  0  0  0  0
   28.8540  -19.4980  -13.9352 C   0  0  0  0  0  0  0  0  0  0  0  0
   26.4972  -19.7740  -14.8103 C   0  0  2  0  0  0  0  0  0  0  0  0
   26.3311  -20.5271  -13.5541 N   0  0  0  0  0  0  0  0  0  0  0  0
   25.6719  -20.3866  -15.8813 C   0  0  0  0  0  0  0  0  0  0  0  0
   25.3785  -21.6300  -15.7901 O   0  0  0  0  0  0  0  0  0  0  0  0
   21.0550  -19.9000  -18.0086 N   0  0  0  0  0  0  0  0  0  0  0  0
   21.4335  -19.5244  -16.6879 C   0  0  0  0  0  0  0  0  0  0  0  0
   20.5331  -19.2566  -15.8828 O   0  0  0  0  0  0  0  0  0  0  0  0
   22.8422  -19.4738  -16.3523 C   0  0  0  0  0  0  0  0  0  0  0  0
   23.7669  -19.8465  -17.4765 C   0  0  2  0  0  0  0  0  0  0  0  0
   25.1762  -19.6954  -17.0094 N   0  0  0  0  0  0  0  0  0  0  0  0
   23.5986  -19.0949  -18.7187 C   0  0  0  0  0  0  0  0  0  0  0  0
   22.9695  -19.5767  -19.8310 O   0  0  0  0  0  0  0  0  0  0  0  0
   24.0526  -17.9013  -18.8256 O   0  0  0  0  0  0  0  0  0  0  0  0
  1  2  1  0
  2  3  1  0
  3  5  1  0
  3  4  1  1
  5  6  1  6
  7  8  2  0
  7  5  1  0
 10 11  1  1
 10  9  1  0
 12 10  1  0
 12 13  1  1
 13  7  1  0
 14 12  1  0
 15 14  2  0
 17 16  1  0
 18 17  2  0
 20 19  1  1
 19 17  1  0
 20 21  1  0
 21 14  1  0
 22 20  1  0
 22 23  1  0
 24 22  2  0
M  END
$$$$
