LWC.pdb
     RDKit          3D

 29 30  0  0  1  0  0  0  0  0999 V2000
   19.1097  -20.4611  -12.9519 C   0  0  0  0  0  0  0  0  0  0  0  0
   19.8092  -19.5436  -11.9936 C   0  0  2  0  0  0  0  0  0  0  0  0
   19.0390  -18.2454  -11.9680 C   0  0  0  0  0  0  0  0  0  0  0  0
   21.2641  -19.3445  -12.2874 C   0  0  0  0  0  0  0  0  0  0  0  0
   21.9818  -20.6695  -12.3990 C   0  0  2  0  0  0  0  0  0  0  0  0
   21.7365  -21.4203  -11.2017 N   0  0  0  0  0  0  0  0  0  0  0  0
   23.4402  -20.4903  -12.5486 C   0  0  0  0  0  0  0  0  0  0  0  0
   23.9185  -19.5725  -13.2845 O   0  0  0  0  0  0  0  0  0  0  0  0
   24.4102  -21.3137  -11.8944 N   0  0  0  0  0  0  0  0  0  0  0  0
   25.8045  -21.2886  -12.2093 C   0  0  1  0  0  0  0  0  0  0  0  0
   26.6849  -21.8089  -11.1132 C   0  0  0  0  0  0  0  0  0  0  0  0
   26.6397  -20.9913   -9.8784 C   0  0  0  0  0  0  0  0  0  0  0  0
   25.5343  -20.2613   -9.4240 C   0  0  0  0  0  0  0  0  0  0  0  0
   25.8488  -19.6687   -8.2691 N   0  0  0  0  0  0  0  0  0  0  0  0
   27.1288  -19.9600   -7.9070 C   0  0  0  0  0  0  0  0  0  0  0  0
   27.8929  -19.5848   -6.8209 C   0  0  0  0  0  0  0  0  0  0  0  0
   29.1862  -20.0258   -6.7043 C   0  0  0  0  0  0  0  0  0  0  0  0
   29.6669  -20.8412   -7.7041 C   0  0  0  0  0  0  0  0  0  0  0  0
   28.9041  -21.2171   -8.7902 C   0  0  0  0  0  0  0  0  0  0  0  0
   27.6045  -20.7831   -8.9201 C   0  0  0  0  0  0  0  0  0  0  0  0
   26.1203  -22.0561  -13.4453 C   0  0  0  0  0  0  0  0  0  0  0  0
   25.2943  -22.8837  -13.8812 O   0  0  0  0  0  0  0  0  0  0  0  0
   27.3518  -21.8468  -14.1215 N   0  0  0  0  0  0  0  0  0  0  0  0
   27.4683  -21.7924  -15.5530 C   0  0  1  0  0  0  0  0  0  0  0  0
   26.5566  -20.7500  -16.1646 C   0  0  0  0  0  0  0  0  0  0  0  0
   26.6581  -20.8368  -17.9890 S   0  0  0  0  0  0  0  0  0  0  0  0
   28.8438  -21.6016  -16.0368 C   0  0  0  0  0  0  0  0  0  0  0  0
   29.3242  -22.4099  -17.0463 O   0  0  0  0  0  0  0  0  0  0  0  0
   29.5856  -20.7230  -15.5523 O   0  0  0  0  0  0  0  0  0  0  0  0
  2  3  1  6
  2  1  1  0
  4  2  1  0
  5  4  1  0
  5  6  1  1
  7  8  2  0
  7  5  1  0
  9  7  1  0
 10  9  1  0
 10 11  1  1
 11 12  1  0
 12 13  2  0
 12 20  1  0
 13 14  1  0
 14 15  1  0
 15 16  2  0
 17 16  1  0
 18 17  2  0
 19 20  2  0
 19 18  1  0
 20 15  1  0
 21 22  2  0
 21 10  1  0
 23 21  1  0
 24 25  1  1
 24 23  1  0
 26 25  1  0
 27 24  1  0
 28 27  1  0
 29 27  2  0
M  END
$$$$
