LWC.pdb
     RDKit          3D

 29 30  0  0  1  0  0  0  0  0999 V2000
   18.8669  -28.2047   -2.3282 C   0  0  0  0  0  0  0  0  0  0  0  0
   17.5322  -27.5795   -2.6058 C   0  0  2  0  0  0  0  0  0  0  0  0
   17.2271  -27.7976   -4.0683 C   0  0  0  0  0  0  0  0  0  0  0  0
   17.4350  -26.1396   -2.2058 C   0  0  0  0  0  0  0  0  0  0  0  0
   16.0268  -25.6209   -2.3824 C   0  0  2  0  0  0  0  0  0  0  0  0
   15.9634  -24.8919   -3.6161 N   0  0  0  0  0  0  0  0  0  0  0  0
   15.6359  -24.7154   -1.2830 C   0  0  0  0  0  0  0  0  0  0  0  0
   16.4791  -24.3335   -0.4136 O   0  0  0  0  0  0  0  0  0  0  0  0
   14.3101  -24.2063   -1.1101 N   0  0  0  0  0  0  0  0  0  0  0  0
   13.9413  -23.3133   -0.0564 C   0  0  1  0  0  0  0  0  0  0  0  0
   12.6708  -22.5604   -0.3142 C   0  0  0  0  0  0  0  0  0  0  0  0
   12.8033  -21.5128   -1.3534 C   0  0  0  0  0  0  0  0  0  0  0  0
   13.4310  -21.6712   -2.5953 C   0  0  0  0  0  0  0  0  0  0  0  0
   13.3379  -20.5277   -3.2792 N   0  0  0  0  0  0  0  0  0  0  0  0
   12.6707  -19.5843   -2.5586 C   0  0  0  0  0  0  0  0  0  0  0  0
   12.3364  -18.2738   -2.8325 C   0  0  0  0  0  0  0  0  0  0  0  0
   11.6531  -17.5297   -1.9050 C   0  0  0  0  0  0  0  0  0  0  0  0
   11.3284  -18.1461   -0.7175 C   0  0  0  0  0  0  0  0  0  0  0  0
   11.6618  -19.4561   -0.4425 C   0  0  0  0  0  0  0  0  0  0  0  0
   12.3466  -20.2151   -1.3640 C   0  0  0  0  0  0  0  0  0  0  0  0
   13.7967  -24.0092    1.2517 C   0  0  0  0  0  0  0  0  0  0  0  0
   13.4260  -25.2006    1.2750 O   0  0  0  0  0  0  0  0  0  0  0  0
   14.0789  -23.3215    2.4621 N   0  0  0  0  0  0  0  0  0  0  0  0
   13.9770  -23.9310    3.7598 C   0  0  1  0  0  0  0  0  0  0  0  0
   14.8167  -25.1855    3.8731 C   0  0  0  0  0  0  0  0  0  0  0  0
   16.5875  -24.7589    3.7036 S   0  0  0  0  0  0  0  0  0  0  0  0
   14.2800  -23.0223    4.8756 C   0  0  0  0  0  0  0  0  0  0  0  0
   14.7976  -21.7717    4.6083 O   0  0  0  0  0  0  0  0  0  0  0  0
   14.0782  -23.3596    6.0599 O   0  0  0  0  0  0  0  0  0  0  0  0
  2  3  1  6
  2  1  1  0
  4  2  1  0
  5  4  1  0
  5  6  1  6
  7  8  2  0
  7  5  1  0
  9  7  1  0
 10  9  1  0
 10 11  1  6
 11 12  1  0
 12 13  2  0
 12 20  1  0
 13 14  1  0
 14 15  1  0
 15 16  2  0
 17 16  1  0
 18 17  2  0
 19 20  2  0
 19 18  1  0
 20 15  1  0
 21 22  2  0
 21 10  1  0
 23 21  1  0
 24 25  1  6
 24 23  1  0
 26 25  1  0
 27 24  1  0
 28 27  1  0
 29 27  2  0
M  END
$$$$
