LWC.pdb
     RDKit          3D

 29 30  0  0  1  0  0  0  0  0999 V2000
   23.2699  -14.5194  -15.1122 C   0  0  0  0  0  0  0  0  0  0  0  0
   24.0915  -13.5418  -15.8987 C   0  0  2  0  0  0  0  0  0  0  0  0
   25.4408  -13.4442  -15.2283 C   0  0  0  0  0  0  0  0  0  0  0  0
   23.4423  -12.2049  -16.0835 C   0  0  0  0  0  0  0  0  0  0  0  0
   22.0746  -12.3475  -16.7097 C   0  0  2  0  0  0  0  0  0  0  0  0
   22.2371  -12.8435  -18.0458 N   0  0  0  0  0  0  0  0  0  0  0  0
   21.3652  -11.0537  -16.7738 C   0  0  0  0  0  0  0  0  0  0  0  0
   21.6630  -10.1823  -17.6483 O   0  0  0  0  0  0  0  0  0  0  0  0
   20.3112  -10.6836  -15.8799 N   0  0  0  0  0  0  0  0  0  0  0  0
   19.5862   -9.4558  -15.9836 C   0  0  1  0  0  0  0  0  0  0  0  0
   18.1221   -9.5876  -15.6898 C   0  0  0  0  0  0  0  0  0  0  0  0
   17.3738  -10.3323  -16.7294 C   0  0  0  0  0  0  0  0  0  0  0  0
   17.8882  -10.7475  -17.9640 C   0  0  0  0  0  0  0  0  0  0  0  0
   16.9393  -11.4109  -18.6300 N   0  0  0  0  0  0  0  0  0  0  0  0
   15.7885  -11.4703  -17.9044 C   0  0  0  0  0  0  0  0  0  0  0  0
   14.5557  -12.0323  -18.1664 C   0  0  0  0  0  0  0  0  0  0  0  0
   13.5460  -11.9371  -17.2432 C   0  0  0  0  0  0  0  0  0  0  0  0
   13.8231  -11.2677  -16.0725 C   0  0  0  0  0  0  0  0  0  0  0  0
   15.0550  -10.7055  -15.8093 C   0  0  0  0  0  0  0  0  0  0  0  0
   16.0778  -10.7939  -16.7260 C   0  0  0  0  0  0  0  0  0  0  0  0
   20.1329   -8.3976  -15.0904 C   0  0  0  0  0  0  0  0  0  0  0  0
   20.6399   -8.7199  -13.9967 O   0  0  0  0  0  0  0  0  0  0  0  0
   20.0773   -7.0333  -15.4816 N   0  0  0  0  0  0  0  0  0  0  0  0
   20.5779   -5.9574  -14.6706 C   0  0  1  0  0  0  0  0  0  0  0  0
   22.0726   -6.0514  -14.4499 C   0  0  0  0  0  0  0  0  0  0  0  0
   22.6459   -4.6042  -13.4892 S   0  0  0  0  0  0  0  0  0  0  0  0
   20.2274   -4.6181  -15.1667 C   0  0  0  0  0  0  0  0  0  0  0  0
   20.4729   -3.5168  -14.3728 O   0  0  0  0  0  0  0  0  0  0  0  0
   19.7122   -4.4576  -16.2918 O   0  0  0  0  0  0  0  0  0  0  0  0
  2  3  1  1
  2  1  1  0
  4  2  1  0
  5  4  1  0
  5  6  1  6
  7  8  2  0
  7  5  1  0
  9  7  1  0
 10  9  1  0
 10 11  1  1
 11 12  1  0
 12 13  2  0
 12 20  1  0
 13 14  1  0
 14 15  1  0
 15 16  2  0
 17 16  1  0
 18 17  2  0
 19 20  2  0
 19 18  1  0
 20 15  1  0
 21 22  2  0
 21 10  1  0
 23 21  1  0
 24 25  1  6
 24 23  1  0
 26 25  1  0
 27 24  1  0
 28 27  1  0
 29 27  2  0
M  END
$$$$
