LWC.pdb
     RDKit          3D

 29 30  0  0  1  0  0  0  0  0999 V2000
   36.0719  -38.3818   -4.3134 C   0  0  0  0  0  0  0  0  0  0  0  0
   36.1270  -37.0107   -4.9186 C   0  0  2  0  0  0  0  0  0  0  0  0
   37.4135  -36.3667   -4.4607 C   0  0  0  0  0  0  0  0  0  0  0  0
   34.9252  -36.1649   -4.6302 C   0  0  0  0  0  0  0  0  0  0  0  0
   33.6494  -36.9028   -4.9637 C   0  0  2  0  0  0  0  0  0  0  0  0
   33.6316  -37.1629   -6.3742 N   0  0  0  0  0  0  0  0  0  0  0  0
   32.4528  -36.1089   -4.6189 C   0  0  0  0  0  0  0  0  0  0  0  0
   32.2171  -35.7599   -3.4208 O   0  0  0  0  0  0  0  0  0  0  0  0
   31.4846  -35.6780   -5.5801 N   0  0  0  0  0  0  0  0  0  0  0  0
   30.2904  -34.9731   -5.2326 C   0  0  1  0  0  0  0  0  0  0  0  0
   29.6490  -34.2588   -6.3840 C   0  0  0  0  0  0  0  0  0  0  0  0
   28.4172  -33.5236   -6.0132 C   0  0  0  0  0  0  0  0  0  0  0  0
   27.9556  -33.3125   -4.7079 C   0  0  0  0  0  0  0  0  0  0  0  0
   26.8324  -32.5912   -4.7548 N   0  0  0  0  0  0  0  0  0  0  0  0
   26.4989  -32.2956   -6.0415 C   0  0  0  0  0  0  0  0  0  0  0  0
   25.4441  -31.5929   -6.5874 C   0  0  0  0  0  0  0  0  0  0  0  0
   25.3434  -31.4496   -7.9476 C   0  0  0  0  0  0  0  0  0  0  0  0
   26.3263  -32.0303   -8.7172 C   0  0  0  0  0  0  0  0  0  0  0  0
   27.3812  -32.7329   -8.1728 C   0  0  0  0  0  0  0  0  0  0  0  0
   27.4957  -32.8840   -6.8096 C   0  0  0  0  0  0  0  0  0  0  0  0
   29.2635  -35.8631   -4.6244 C   0  0  0  0  0  0  0  0  0  0  0  0
   29.0553  -36.9886   -5.1217 O   0  0  0  0  0  0  0  0  0  0  0  0
   28.5282  -35.4334   -3.4877 N   0  0  0  0  0  0  0  0  0  0  0  0
   27.6484  -36.2931   -2.7441 C   0  0  1  0  0  0  0  0  0  0  0  0
   28.3085  -37.6015   -2.3649 C   0  0  0  0  0  0  0  0  0  0  0  0
   27.0375  -38.9058   -2.1930 S   0  0  0  0  0  0  0  0  0  0  0  0
   27.0601  -35.6641   -1.5522 C   0  0  0  0  0  0  0  0  0  0  0  0
   25.7355  -35.8993   -1.2469 O   0  0  0  0  0  0  0  0  0  0  0  0
   27.7353  -34.9213   -0.8108 O   0  0  0  0  0  0  0  0  0  0  0  0
  2  3  1  1
  2  1  1  0
  4  2  1  0
  5  4  1  0
  5  6  1  6
  7  8  2  0
  7  5  1  0
  9  7  1  0
 10  9  1  0
 10 11  1  6
 11 12  1  0
 12 13  2  0
 12 20  1  0
 13 14  1  0
 14 15  1  0
 15 16  2  0
 17 16  1  0
 18 17  2  0
 19 20  2  0
 19 18  1  0
 20 15  1  0
 21 22  2  0
 21 10  1  0
 23 21  1  0
 24 25  1  1
 24 23  1  0
 26 25  1  0
 27 24  1  0
 28 27  1  0
 29 27  2  0
M  END
$$$$
