LWC.pdb
     RDKit          3D

 29 30  0  0  1  0  0  0  0  0999 V2000
   27.6817  -17.0097  -17.6062 C   0  0  0  0  0  0  0  0  0  0  0  0
   26.6484  -15.9933  -17.2203 C   0  0  2  0  0  0  0  0  0  0  0  0
   27.3221  -14.6422  -17.2213 C   0  0  0  0  0  0  0  0  0  0  0  0
   25.9515  -16.2885  -15.9280 C   0  0  0  0  0  0  0  0  0  0  0  0
   25.3952  -17.6933  -15.9197 C   0  0  2  0  0  0  0  0  0  0  0  0
   24.2935  -17.7502  -16.8366 N   0  0  0  0  0  0  0  0  0  0  0  0
   24.9095  -18.0810  -14.5799 C   0  0  0  0  0  0  0  0  0  0  0  0
   24.1968  -17.2928  -13.8846 O   0  0  0  0  0  0  0  0  0  0  0  0
   25.1939  -19.3433  -13.9693 N   0  0  0  0  0  0  0  0  0  0  0  0
   24.7786  -19.6885  -12.6457 C   0  0  1  0  0  0  0  0  0  0  0  0
   23.8533  -20.8665  -12.5865 C   0  0  0  0  0  0  0  0  0  0  0  0
   22.4346  -20.5186  -12.8347 C   0  0  0  0  0  0  0  0  0  0  0  0
   21.8317  -20.4038  -14.0935 C   0  0  0  0  0  0  0  0  0  0  0  0
   20.5406  -20.1022  -13.9319 N   0  0  0  0  0  0  0  0  0  0  0  0
   20.2271  -20.0035  -12.6104 C   0  0  0  0  0  0  0  0  0  0  0  0
   19.0470  -19.7120  -11.9572 C   0  0  0  0  0  0  0  0  0  0  0  0
   19.0114  -19.6696  -10.5869 C   0  0  0  0  0  0  0  0  0  0  0  0
   20.1867  -19.9267   -9.9175 C   0  0  0  0  0  0  0  0  0  0  0  0
   21.3670  -20.2183  -10.5692 C   0  0  0  0  0  0  0  0  0  0  0  0
   21.4174  -20.2653  -11.9438 C   0  0  0  0  0  0  0  0  0  0  0  0
   25.9304  -19.9731  -11.7463 C   0  0  0  0  0  0  0  0  0  0  0  0
   26.9020  -20.6242  -12.1814 O   0  0  0  0  0  0  0  0  0  0  0  0
   25.9221  -19.5063  -10.4048 N   0  0  0  0  0  0  0  0  0  0  0  0
   26.7332  -20.0767   -9.3643 C   0  0  1  0  0  0  0  0  0  0  0  0
   26.3164  -19.6057   -7.9873 C   0  0  0  0  0  0  0  0  0  0  0  0
   27.4253  -20.3310   -6.7262 S   0  0  0  0  0  0  0  0  0  0  0  0
   26.8011  -21.5454   -9.3928 C   0  0  0  0  0  0  0  0  0  0  0  0
   28.0244  -22.1633   -9.5507 O   0  0  0  0  0  0  0  0  0  0  0  0
   25.7740  -22.2444   -9.2770 O   0  0  0  0  0  0  0  0  0  0  0  0
  2  3  1  1
  2  1  1  0
  4  2  1  0
  5  4  1  0
  5  6  1  6
  7  8  2  0
  7  5  1  0
  9  7  1  0
 10  9  1  0
 10 11  1  6
 11 12  1  0
 12 13  2  0
 12 20  1  0
 13 14  1  0
 14 15  1  0
 15 16  2  0
 17 16  1  0
 18 17  2  0
 19 20  2  0
 19 18  1  0
 20 15  1  0
 21 22  2  0
 21 10  1  0
 23 21  1  0
 24 25  1  1
 24 23  1  0
 26 25  1  0
 27 24  1  0
 28 27  1  0
 29 27  2  0
M  END
$$$$
