LWC.pdb
     RDKit          3D

 29 30  0  0  1  0  0  0  0  0999 V2000
   28.1828  -21.8391  -19.6521 C   0  0  0  0  0  0  0  0  0  0  0  0
   29.1010  -21.8636  -18.4665 C   0  0  2  0  0  0  0  0  0  0  0  0
   30.2132  -22.8362  -18.7771 C   0  0  0  0  0  0  0  0  0  0  0  0
   28.4177  -22.1655  -17.1685 C   0  0  0  0  0  0  0  0  0  0  0  0
   27.2439  -21.2407  -16.9450 C   0  0  2  0  0  0  0  0  0  0  0  0
   27.7188  -19.8877  -16.9839 N   0  0  0  0  0  0  0  0  0  0  0  0
   26.6053  -21.4750  -15.6340 C   0  0  0  0  0  0  0  0  0  0  0  0
   26.1173  -22.6080  -15.3327 O   0  0  0  0  0  0  0  0  0  0  0  0
   26.4862  -20.4720  -14.6207 N   0  0  0  0  0  0  0  0  0  0  0  0
   25.9254  -20.7205  -13.3295 C   0  0  1  0  0  0  0  0  0  0  0  0
   26.6070  -19.9809  -12.2179 C   0  0  0  0  0  0  0  0  0  0  0  0
   26.4459  -20.6234  -10.8926 C   0  0  0  0  0  0  0  0  0  0  0  0
   26.2968  -21.9973  -10.6654 C   0  0  0  0  0  0  0  0  0  0  0  0
   26.2029  -22.2134   -9.3507 N   0  0  0  0  0  0  0  0  0  0  0  0
   26.2810  -21.0427   -8.6596 C   0  0  0  0  0  0  0  0  0  0  0  0
   26.2292  -20.7577   -7.3104 C   0  0  0  0  0  0  0  0  0  0  0  0
   26.3271  -19.4603   -6.8770 C   0  0  0  0  0  0  0  0  0  0  0  0
   26.4755  -18.4844   -7.8368 C   0  0  0  0  0  0  0  0  0  0  0  0
   26.5275  -18.7679   -9.1858 C   0  0  0  0  0  0  0  0  0  0  0  0
   26.4315  -20.0652   -9.6352 C   0  0  0  0  0  0  0  0  0  0  0  0
   24.4748  -20.3910  -13.2686 C   0  0  0  0  0  0  0  0  0  0  0  0
   24.0860  -19.2635  -13.6359 O   0  0  0  0  0  0  0  0  0  0  0  0
   23.5426  -21.3530  -12.7964 N   0  0  0  0  0  0  0  0  0  0  0  0
   22.1256  -21.1188  -12.7388 C   0  0  1  0  0  0  0  0  0  0  0  0
   21.3244  -22.3477  -13.1123 C   0  0  0  0  0  0  0  0  0  0  0  0
   21.9869  -23.0690  -14.6573 S   0  0  0  0  0  0  0  0  0  0  0  0
   21.6568  -20.5869  -11.4505 C   0  0  0  0  0  0  0  0  0  0  0  0
   20.3359  -20.2134  -11.3130 O   0  0  0  0  0  0  0  0  0  0  0  0
   22.4301  -20.4664  -10.4786 O   0  0  0  0  0  0  0  0  0  0  0  0
  2  3  1  6
  2  1  1  0
  4  2  1  0
  5  4  1  0
  5  6  1  1
  7  8  2  0
  7  5  1  0
  9  7  1  0
 10  9  1  0
 10 11  1  1
 11 12  1  0
 12 13  2  0
 12 20  1  0
 13 14  1  0
 14 15  1  0
 15 16  2  0
 17 16  1  0
 18 17  2  0
 19 20  2  0
 19 18  1  0
 20 15  1  0
 21 22  2  0
 21 10  1  0
 23 21  1  0
 24 25  1  1
 24 23  1  0
 26 25  1  0
 27 24  1  0
 28 27  1  0
 29 27  2  0
M  END
$$$$
