EQH.pdb
     RDKit          3D

 29 29  0  0  1  0  0  0  0  0999 V2000
   23.3989  -15.4276  -16.0329 N   0  0  0  0  0  0  0  0  0  0  0  0
   22.7312  -14.3595  -16.7109 C   0  0  1  0  0  0  0  0  0  0  0  0
   21.2416  -14.5776  -16.8643 C   0  0  0  0  0  0  0  0  0  0  0  0
   20.8899  -15.9439  -17.3697 C   0  0  0  0  0  0  0  0  0  0  0  0
   19.4021  -15.9630  -17.5522 C   0  0  0  0  0  0  0  0  0  0  0  0
   18.6625  -15.0038  -17.2478 O   0  0  0  0  0  0  0  0  0  0  0  0
   22.9879  -13.0868  -16.0146 C   0  0  0  0  0  0  0  0  0  0  0  0
   22.6835  -12.8841  -14.8260 O   0  0  0  0  0  0  0  0  0  0  0  0
   18.8470  -17.1187  -18.0886 O   0  0  0  0  0  0  0  0  0  0  0  0
   27.8782   -9.2969  -16.8787 N   0  0  0  0  0  0  0  0  0  0  0  0
   27.6819  -10.6177  -16.4102 C   0  0  0  0  0  0  0  0  0  0  0  0
   28.6884  -11.3420  -16.2273 O   0  0  0  0  0  0  0  0  0  0  0  0
   26.3357  -11.1731  -16.1294 C   0  0  0  0  0  0  0  0  0  0  0  0
   25.2429  -10.1827  -16.4541 C   0  0  0  0  0  0  0  0  0  0  0  0
   23.9380  -10.7674  -16.1087 C   0  0  2  0  0  0  0  0  0  0  0  0
   23.6106  -12.0238  -16.7085 N   0  0  0  0  0  0  0  0  0  0  0  0
   22.7901   -9.8168  -16.3264 C   0  0  0  0  0  0  0  0  0  0  0  0
   22.3082   -9.6733  -17.4788 O   0  0  0  0  0  0  0  0  0  0  0  0
   22.2145   -9.0626  -15.2832 N   0  0  0  0  0  0  0  0  0  0  0  0
   21.0687   -8.1815  -15.4549 C   0  0  1  0  0  0  0  0  0  0  0  0
   19.8076   -8.7831  -14.9425 C   0  0  0  0  0  0  0  0  0  0  0  0
   18.6943   -7.8201  -15.1022 C   0  0  0  0  0  0  0  0  0  0  0  0
   18.7093   -6.6125  -15.8074 C   0  0  0  0  0  0  0  0  0  0  0  0
   17.5178   -6.0073  -15.7321 N   0  0  0  0  0  0  0  0  0  0  0  0
   16.7287   -6.8055  -14.9873 C   0  0  0  0  0  0  0  0  0  0  0  0
   17.4345   -7.8808  -14.6164 N   0  0  0  0  0  0  0  0  0  0  0  0
   21.4015   -6.8688  -14.8651 C   0  0  0  0  0  0  0  0  0  0  0  0
   22.4096   -6.7175  -14.1389 O   0  0  0  0  0  0  0  0  0  0  0  0
   20.5975   -5.7755  -15.1081 O   0  0  0  0  0  0  0  0  0  0  0  0
  2  1  1  1
  2  3  1  0
  4  3  1  0
  4  5  1  0
  5  9  1  0
  5  6  2  0
  7  2  1  0
  8  7  2  0
 11 12  2  0
 11 10  1  0
 13 11  1  0
 14 13  1  0
 15 14  1  6
 15 16  1  0
 16  7  1  0
 17 15  1  0
 18 17  2  0
 19 17  1  0
 20 19  1  0
 20 21  1  1
 22 21  1  0
 22 23  2  0
 24 23  1  0
 25 24  1  0
 26 25  2  0
 26 22  1  0
 27 20  1  0
 27 29  1  0
 28 27  2  0
M  END
$$$$
