EQH.pdb
     RDKit          3D

 29 29  0  0  1  0  0  0  0  0999 V2000
   21.4165  -20.6771  -14.9330 N   0  0  0  0  0  0  0  0  0  0  0  0
   21.2614  -19.6126  -13.9900 C   0  0  1  0  0  0  0  0  0  0  0  0
   21.9217  -19.8851  -12.6559 C   0  0  0  0  0  0  0  0  0  0  0  0
   21.4324  -21.1383  -11.9955 C   0  0  0  0  0  0  0  0  0  0  0  0
   20.1736  -20.7748  -11.2671 C   0  0  0  0  0  0  0  0  0  0  0  0
   19.7365  -19.6071  -11.1957 O   0  0  0  0  0  0  0  0  0  0  0  0
   21.7766  -18.3572  -14.5634 C   0  0  0  0  0  0  0  0  0  0  0  0
   21.8316  -17.2881  -13.9305 O   0  0  0  0  0  0  0  0  0  0  0  0
   19.4803  -21.8096  -10.6505 O   0  0  0  0  0  0  0  0  0  0  0  0
   26.8565  -17.7390  -17.7563 N   0  0  0  0  0  0  0  0  0  0  0  0
   25.8793  -18.7253  -18.0298 C   0  0  0  0  0  0  0  0  0  0  0  0
   26.2284  -19.7543  -18.6548 O   0  0  0  0  0  0  0  0  0  0  0  0
   24.4649  -18.5865  -17.6062 C   0  0  0  0  0  0  0  0  0  0  0  0
   24.2097  -17.2584  -16.9342 C   0  0  0  0  0  0  0  0  0  0  0  0
   22.7975  -17.1811  -16.5296 C   0  0  2  0  0  0  0  0  0  0  0  0
   22.2387  -18.3371  -15.8996 N   0  0  0  0  0  0  0  0  0  0  0  0
   21.8858  -16.7561  -17.6506 C   0  0  0  0  0  0  0  0  0  0  0  0
   22.2467  -15.8443  -18.4375 O   0  0  0  0  0  0  0  0  0  0  0  0
   20.6208  -17.3396  -17.8694 N   0  0  0  0  0  0  0  0  0  0  0  0
   19.6937  -16.9041  -18.9035 C   0  0  1  0  0  0  0  0  0  0  0  0
   18.9042  -18.0313  -19.4701 C   0  0  0  0  0  0  0  0  0  0  0  0
   18.0851  -17.5465  -20.6042 C   0  0  0  0  0  0  0  0  0  0  0  0
   18.4437  -16.5988  -21.5681 C   0  0  0  0  0  0  0  0  0  0  0  0
   17.4461  -16.4128  -22.4408 N   0  0  0  0  0  0  0  0  0  0  0  0
   16.4438  -17.2267  -22.0569 C   0  0  0  0  0  0  0  0  0  0  0  0
   16.8306  -17.8974  -20.9648 N   0  0  0  0  0  0  0  0  0  0  0  0
   18.8764  -15.8010  -18.3580 C   0  0  0  0  0  0  0  0  0  0  0  0
   18.2885  -15.9080  -17.2583 O   0  0  0  0  0  0  0  0  0  0  0  0
   18.7466  -14.6216  -19.0599 O   0  0  0  0  0  0  0  0  0  0  0  0
  2  1  1  6
  2  3  1  0
  4  3  1  0
  4  5  1  0
  5  9  1  0
  5  6  2  0
  7  2  1  0
  8  7  2  0
 11 12  2  0
 11 10  1  0
 13 11  1  0
 14 13  1  0
 15 14  1  6
 15 16  1  0
 16  7  1  0
 17 15  1  0
 18 17  2  0
 19 17  1  0
 20 19  1  0
 20 21  1  1
 22 21  1  0
 22 23  2  0
 24 23  1  0
 25 24  1  0
 26 25  2  0
 26 22  1  0
 27 20  1  0
 27 29  1  0
 28 27  2  0
M  END
$$$$
