EQH.pdb
     RDKit          3D

 29 29  0  0  1  0  0  0  0  0999 V2000
   24.6933  -21.1397  -15.6803 N   0  0  0  0  0  0  0  0  0  0  0  0
   24.3280  -19.8090  -15.3031 C   0  0  1  0  0  0  0  0  0  0  0  0
   24.9365  -18.7413  -16.1861 C   0  0  0  0  0  0  0  0  0  0  0  0
   24.5372  -18.8617  -17.6255 C   0  0  0  0  0  0  0  0  0  0  0  0
   25.2582  -17.7733  -18.3623 C   0  0  0  0  0  0  0  0  0  0  0  0
   24.6993  -16.7305  -18.7620 O   0  0  0  0  0  0  0  0  0  0  0  0
   22.8607  -19.6783  -15.2877 C   0  0  0  0  0  0  0  0  0  0  0  0
   22.1492  -19.8386  -16.2951 O   0  0  0  0  0  0  0  0  0  0  0  0
   26.6148  -17.9622  -18.5974 O   0  0  0  0  0  0  0  0  0  0  0  0
   17.6464  -20.4780  -13.0875 N   0  0  0  0  0  0  0  0  0  0  0  0
   18.7002  -21.3086  -12.6379 C   0  0  0  0  0  0  0  0  0  0  0  0
   18.4628  -22.5249  -12.4495 O   0  0  0  0  0  0  0  0  0  0  0  0
   20.0679  -20.7948  -12.3827 C   0  0  0  0  0  0  0  0  0  0  0  0
   20.1716  -19.3151  -12.6656 C   0  0  0  0  0  0  0  0  0  0  0  0
   20.7940  -19.1140  -13.9832 C   0  0  2  0  0  0  0  0  0  0  0  0
   22.2006  -19.3545  -14.0800 N   0  0  0  0  0  0  0  0  0  0  0  0
   20.4953  -17.7620  -14.5759 C   0  0  0  0  0  0  0  0  0  0  0  0
   21.2228  -16.7784  -14.2857 O   0  0  0  0  0  0  0  0  0  0  0  0
   19.4191  -17.5356  -15.4585 N   0  0  0  0  0  0  0  0  0  0  0  0
   19.0356  -16.2207  -15.9510 C   0  0  1  0  0  0  0  0  0  0  0  0
   19.6094  -15.9269  -17.2923 C   0  0  0  0  0  0  0  0  0  0  0  0
   19.2067  -14.5679  -17.7206 C   0  0  0  0  0  0  0  0  0  0  0  0
   19.4751  -13.3579  -17.0728 C   0  0  0  0  0  0  0  0  0  0  0  0
   18.9529  -12.3315  -17.7550 N   0  0  0  0  0  0  0  0  0  0  0  0
   18.3487  -12.8584  -18.8375 C   0  0  0  0  0  0  0  0  0  0  0  0
   18.5036  -14.1878  -18.8105 N   0  0  0  0  0  0  0  0  0  0  0  0
   17.5643  -16.1106  -15.8799 C   0  0  0  0  0  0  0  0  0  0  0  0
   16.8404  -17.1239  -15.7537 O   0  0  0  0  0  0  0  0  0  0  0  0
   16.9571  -14.8750  -15.9521 O   0  0  0  0  0  0  0  0  0  0  0  0
  2  1  1  6
  2  3  1  0
  4  3  1  0
  4  5  1  0
  5  9  1  0
  5  6  2  0
  7  2  1  0
  8  7  2  0
 11 12  2  0
 11 10  1  0
 13 11  1  0
 14 13  1  0
 15 14  1  1
 15 16  1  0
 16  7  1  0
 17 15  1  0
 18 17  2  0
 19 17  1  0
 20 19  1  0
 20 21  1  6
 22 21  1  0
 22 23  2  0
 24 23  1  0
 25 24  1  0
 26 25  2  0
 26 22  1  0
 27 20  1  0
 27 29  1  0
 28 27  2  0
M  END
$$$$
