EQH.pdb
     RDKit          3D

 29 29  0  0  1  0  0  0  0  0999 V2000
   19.3985  -13.9684  -16.0695 N   0  0  0  0  0  0  0  0  0  0  0  0
   18.9159  -13.5947  -17.3633 C   0  0  1  0  0  0  0  0  0  0  0  0
   17.9538  -14.5970  -17.9630 C   0  0  0  0  0  0  0  0  0  0  0  0
   17.7470  -15.8087  -17.1056 C   0  0  0  0  0  0  0  0  0  0  0  0
   16.7119  -16.6476  -17.7927 C   0  0  0  0  0  0  0  0  0  0  0  0
   16.1923  -16.3359  -18.8847 O   0  0  0  0  0  0  0  0  0  0  0  0
   18.2859  -12.2645  -17.2973 C   0  0  0  0  0  0  0  0  0  0  0  0
   17.8254  -11.6759  -18.2912 O   0  0  0  0  0  0  0  0  0  0  0  0
   16.3317  -17.8248  -17.1593 O   0  0  0  0  0  0  0  0  0  0  0  0
   13.9909  -10.0120  -13.6768 N   0  0  0  0  0  0  0  0  0  0  0  0
   14.0438  -10.7460  -14.8855 C   0  0  0  0  0  0  0  0  0  0  0  0
   12.9937  -11.2913  -15.2992 O   0  0  0  0  0  0  0  0  0  0  0  0
   15.2899  -10.8927  -15.6762 C   0  0  0  0  0  0  0  0  0  0  0  0
   16.4475  -10.1638  -15.0367 C   0  0  0  0  0  0  0  0  0  0  0  0
   17.6354  -10.2890  -15.8953 C   0  0  2  0  0  0  0  0  0  0  0  0
   18.1865  -11.5993  -16.0536 N   0  0  0  0  0  0  0  0  0  0  0  0
   18.7435   -9.3445  -15.5097 C   0  0  0  0  0  0  0  0  0  0  0  0
   19.6167   -9.7109  -14.6826 O   0  0  0  0  0  0  0  0  0  0  0  0
   18.8560   -8.0423  -16.0389 N   0  0  0  0  0  0  0  0  0  0  0  0
   20.0150   -7.1838  -15.8433 C   0  0  1  0  0  0  0  0  0  0  0  0
   21.2532   -7.7567  -16.4376 C   0  0  0  0  0  0  0  0  0  0  0  0
   21.9493   -8.5916  -15.4323 C   0  0  0  0  0  0  0  0  0  0  0  0
   21.6265   -8.7397  -14.0796 C   0  0  0  0  0  0  0  0  0  0  0  0
   22.4805   -9.5780  -13.4799 N   0  0  0  0  0  0  0  0  0  0  0  0
   23.3539   -9.9765  -14.4247 C   0  0  0  0  0  0  0  0  0  0  0  0
   23.0322   -9.3864  -15.5824 N   0  0  0  0  0  0  0  0  0  0  0  0
   19.6757   -5.8303  -16.3282 C   0  0  0  0  0  0  0  0  0  0  0  0
   20.2034   -4.8093  -15.8325 O   0  0  0  0  0  0  0  0  0  0  0  0
   18.7614   -5.6678  -17.3472 O   0  0  0  0  0  0  0  0  0  0  0  0
  2  1  1  1
  2  3  1  0
  4  3  1  0
  4  5  1  0
  5  9  1  0
  5  6  2  0
  7  2  1  0
  8  7  2  0
 11 12  2  0
 11 10  1  0
 13 11  1  0
 14 13  1  0
 15 14  1  1
 15 16  1  0
 16  7  1  0
 17 15  1  0
 18 17  2  0
 19 17  1  0
 20 19  1  0
 20 21  1  6
 22 21  1  0
 22 23  2  0
 24 23  1  0
 25 24  1  0
 26 25  2  0
 26 22  1  0
 27 20  1  0
 27 29  1  0
 28 27  2  0
M  END
$$$$
