EQH.pdb
     RDKit          3D

 29 29  0  0  1  0  0  0  0  0999 V2000
   16.1444  -13.5164  -17.7509 N   0  0  0  0  0  0  0  0  0  0  0  0
   16.4952  -13.1227  -16.4211 C   0  0  1  0  0  0  0  0  0  0  0  0
   17.9573  -13.3341  -16.0934 C   0  0  0  0  0  0  0  0  0  0  0  0
   18.8843  -12.5818  -16.9994 C   0  0  0  0  0  0  0  0  0  0  0  0
   20.2701  -13.0610  -16.6875 C   0  0  0  0  0  0  0  0  0  0  0  0
   20.5162  -13.9308  -15.8257 O   0  0  0  0  0  0  0  0  0  0  0  0
   16.1255  -11.7135  -16.2025 C   0  0  0  0  0  0  0  0  0  0  0  0
   16.2445  -10.8324  -17.0721 O   0  0  0  0  0  0  0  0  0  0  0  0
   21.3121  -12.4910  -17.4092 O   0  0  0  0  0  0  0  0  0  0  0  0
   11.6573   -9.6448  -12.2946 N   0  0  0  0  0  0  0  0  0  0  0  0
   11.6569  -10.3798  -13.5039 C   0  0  0  0  0  0  0  0  0  0  0  0
   10.5919  -10.9331  -13.8657 O   0  0  0  0  0  0  0  0  0  0  0  0
   12.8642  -10.5184  -14.3539 C   0  0  0  0  0  0  0  0  0  0  0  0
   14.0525   -9.8009  -13.7596 C   0  0  0  0  0  0  0  0  0  0  0  0
   15.2162   -9.9721  -14.6430 C   0  0  2  0  0  0  0  0  0  0  0  0
   15.6065  -11.3134  -14.9496 N   0  0  0  0  0  0  0  0  0  0  0  0
   16.4295   -9.2135  -14.1731 C   0  0  0  0  0  0  0  0  0  0  0  0
   17.3513   -9.8209  -13.5712 O   0  0  0  0  0  0  0  0  0  0  0  0
   16.5902   -7.8275  -14.3769 N   0  0  0  0  0  0  0  0  0  0  0  0
   17.8401   -7.1142  -14.1585 C   0  0  1  0  0  0  0  0  0  0  0  0
   18.9930   -7.7680  -14.8354 C   0  0  0  0  0  0  0  0  0  0  0  0
   20.2119   -6.9483  -14.6483 C   0  0  0  0  0  0  0  0  0  0  0  0
   20.3868   -5.8726  -13.7720 C   0  0  0  0  0  0  0  0  0  0  0  0
   21.6246   -5.3744  -13.8778 N   0  0  0  0  0  0  0  0  0  0  0  0
   22.2564   -6.1120  -14.8112 C   0  0  0  0  0  0  0  0  0  0  0  0
   21.4109   -7.0454  -15.2647 N   0  0  0  0  0  0  0  0  0  0  0  0
   17.6370   -5.6992  -14.5308 C   0  0  0  0  0  0  0  0  0  0  0  0
   17.0859   -5.3819  -15.6089 O   0  0  0  0  0  0  0  0  0  0  0  0
   18.0560   -4.6931  -13.6866 O   0  0  0  0  0  0  0  0  0  0  0  0
  2  1  1  6
  2  3  1  0
  4  3  1  0
  4  5  1  0
  5  9  1  0
  5  6  2  0
  7  2  1  0
  8  7  2  0
 11 12  2  0
 11 10  1  0
 13 11  1  0
 14 13  1  0
 15 14  1  1
 15 16  1  0
 16  7  1  0
 17 15  1  0
 18 17  2  0
 19 17  1  0
 20 19  1  0
 20 21  1  6
 22 21  1  0
 22 23  2  0
 24 23  1  0
 25 24  1  0
 26 25  2  0
 26 22  1  0
 27 20  1  0
 27 29  1  0
 28 27  2  0
M  END
$$$$
