EQH.pdb
     RDKit          3D

 29 29  0  0  1  0  0  0  0  0999 V2000
   20.4021  -13.1527  -16.5369 N   0  0  0  0  0  0  0  0  0  0  0  0
   20.5029  -11.8233  -17.0555 C   0  0  1  0  0  0  0  0  0  0  0  0
   19.1625  -11.1842  -17.3466 C   0  0  0  0  0  0  0  0  0  0  0  0
   18.3754  -11.9064  -18.3977 C   0  0  0  0  0  0  0  0  0  0  0  0
   17.0861  -11.1583  -18.5565 C   0  0  0  0  0  0  0  0  0  0  0  0
   15.9855  -11.5997  -18.1646 O   0  0  0  0  0  0  0  0  0  0  0  0
   21.2748  -10.9807  -16.1256 C   0  0  0  0  0  0  0  0  0  0  0  0
   20.8953  -10.7094  -14.9728 O   0  0  0  0  0  0  0  0  0  0  0  0
   17.1500   -9.9149  -19.1741 O   0  0  0  0  0  0  0  0  0  0  0  0
   27.4753  -10.4503  -16.3188 N   0  0  0  0  0  0  0  0  0  0  0  0
   26.6028  -11.4534  -15.8337 C   0  0  0  0  0  0  0  0  0  0  0  0
   27.0663  -12.6000  -15.6297 O   0  0  0  0  0  0  0  0  0  0  0  0
   25.1678  -11.1984  -15.5596 C   0  0  0  0  0  0  0  0  0  0  0  0
   24.7901   -9.7641  -15.8431 C   0  0  0  0  0  0  0  0  0  0  0  0
   23.3333   -9.6090  -15.7100 C   0  0  2  0  0  0  0  0  0  0  0  0
   22.5140  -10.4389  -16.5381 N   0  0  0  0  0  0  0  0  0  0  0  0
   22.8766   -8.1814  -15.8580 C   0  0  0  0  0  0  0  0  0  0  0  0
   22.5584   -7.7420  -16.9922 O   0  0  0  0  0  0  0  0  0  0  0  0
   22.7850   -7.2918  -14.7678 N   0  0  0  0  0  0  0  0  0  0  0  0
   22.2224   -5.9524  -14.8578 C   0  0  1  0  0  0  0  0  0  0  0  0
   20.9139   -5.9323  -15.5665 C   0  0  0  0  0  0  0  0  0  0  0  0
   20.4170   -4.5405  -15.6578 C   0  0  0  0  0  0  0  0  0  0  0  0
   21.1308   -3.3647  -15.4053 C   0  0  0  0  0  0  0  0  0  0  0  0
   20.3528   -2.2914  -15.5909 N   0  0  0  0  0  0  0  0  0  0  0  0
   19.1430   -2.7541  -15.9605 C   0  0  0  0  0  0  0  0  0  0  0  0
   19.1884   -4.0914  -15.9982 N   0  0  0  0  0  0  0  0  0  0  0  0
   22.1892   -5.3719  -13.4999 C   0  0  0  0  0  0  0  0  0  0  0  0
   22.4171   -6.0707  -12.4868 O   0  0  0  0  0  0  0  0  0  0  0  0
   21.9032   -4.0347  -13.3243 O   0  0  0  0  0  0  0  0  0  0  0  0
  2  1  1  1
  2  3  1  0
  4  3  1  0
  4  5  1  0
  5  9  1  0
  5  6  2  0
  7  2  1  0
  8  7  2  0
 11 12  2  0
 11 10  1  0
 13 11  1  0
 14 13  1  0
 15 14  1  6
 15 16  1  0
 16  7  1  0
 17 15  1  0
 18 17  2  0
 19 17  1  0
 20 19  1  0
 20 21  1  1
 22 21  1  0
 22 23  2  0
 24 23  1  0
 25 24  1  0
 26 25  2  0
 26 22  1  0
 27 20  1  0
 27 29  1  0
 28 27  2  0
M  END
$$$$
