EQH.pdb
     RDKit          3D

 29 29  0  0  1  0  0  0  0  0999 V2000
   25.6336   -9.1993  -18.8532 N   0  0  0  0  0  0  0  0  0  0  0  0
   26.3395   -8.3136  -17.9793 C   0  0  1  0  0  0  0  0  0  0  0  0
   26.9504   -7.1241  -18.6879 C   0  0  0  0  0  0  0  0  0  0  0  0
   26.0229   -6.4777  -19.6717 C   0  0  0  0  0  0  0  0  0  0  0  0
   25.3464   -5.3532  -18.9471 C   0  0  0  0  0  0  0  0  0  0  0  0
   24.1895   -5.4349  -18.4837 O   0  0  0  0  0  0  0  0  0  0  0  0
   25.4455   -7.8568  -16.9011 C   0  0  0  0  0  0  0  0  0  0  0  0
   25.7940   -7.0534  -16.0180 O   0  0  0  0  0  0  0  0  0  0  0  0
   26.0669   -4.1740  -18.7992 O   0  0  0  0  0  0  0  0  0  0  0  0
   22.5116   -3.6230  -15.4734 N   0  0  0  0  0  0  0  0  0  0  0  0
   21.7194   -4.5517  -14.7574 C   0  0  0  0  0  0  0  0  0  0  0  0
   20.8464   -4.1117  -13.9729 O   0  0  0  0  0  0  0  0  0  0  0  0
   21.8840   -6.0186  -14.9007 C   0  0  0  0  0  0  0  0  0  0  0  0
   22.9858   -6.3658  -15.8734 C   0  0  0  0  0  0  0  0  0  0  0  0
   23.1252   -7.8282  -15.9490 C   0  0  2  0  0  0  0  0  0  0  0  0
   24.1181   -8.3401  -16.8421 N   0  0  0  0  0  0  0  0  0  0  0  0
   21.8219   -8.5310  -16.2247 C   0  0  0  0  0  0  0  0  0  0  0  0
   21.1486   -8.2220  -17.2407 O   0  0  0  0  0  0  0  0  0  0  0  0
   21.3052   -9.5394  -15.3853 N   0  0  0  0  0  0  0  0  0  0  0  0
   20.1079  -10.3109  -15.6852 C   0  0  1  0  0  0  0  0  0  0  0  0
   20.0791  -11.6159  -14.9703 C   0  0  0  0  0  0  0  0  0  0  0  0
   18.7948  -12.3027  -15.2369 C   0  0  0  0  0  0  0  0  0  0  0  0
   17.7350  -11.8470  -16.0274 C   0  0  0  0  0  0  0  0  0  0  0  0
   16.7360  -12.7378  -16.0362 N   0  0  0  0  0  0  0  0  0  0  0  0
   17.1324  -13.7663  -15.2619 C   0  0  0  0  0  0  0  0  0  0  0  0
   18.3568  -13.5009  -14.7903 N   0  0  0  0  0  0  0  0  0  0  0  0
   18.9306   -9.4539  -15.4371 C   0  0  0  0  0  0  0  0  0  0  0  0
   18.8881   -8.6719  -14.4608 O   0  0  0  0  0  0  0  0  0  0  0  0
   17.8464   -9.5020  -16.2874 O   0  0  0  0  0  0  0  0  0  0  0  0
  2  1  1  6
  2  3  1  0
  4  3  1  0
  4  5  1  0
  5  9  1  0
  5  6  2  0
  7  2  1  0
  8  7  2  0
 11 12  2  0
 11 10  1  0
 13 11  1  0
 14 13  1  0
 15 14  1  6
 15 16  1  0
 16  7  1  0
 17 15  1  0
 18 17  2  0
 19 17  1  0
 20 19  1  0
 20 21  1  1
 22 21  1  0
 22 23  2  0
 24 23  1  0
 25 24  1  0
 26 25  2  0
 26 22  1  0
 27 20  1  0
 27 29  1  0
 28 27  2  0
M  END
$$$$
