TNA.pdb
     RDKit          3D

 21 20  0  0  1  0  0  0  0  0999 V2000
   24.3466  -10.4163  -17.6705 C   0  0  0  0  0  0  0  0  0  0  0  0
   23.3831  -11.1698  -18.5603 C   0  0  1  0  0  0  0  0  0  0  0  0
   24.0115  -12.2946  -19.0927 O   0  0  0  0  0  0  0  0  0  0  0  0
   22.1943  -11.5586  -17.7006 C   0  0  2  0  0  0  0  0  0  0  0  0
   21.3525  -12.3886  -18.5374 N   0  0  0  0  0  0  0  0  0  0  0  0
   21.3921  -10.3425  -17.3207 C   0  0  0  0  0  0  0  0  0  0  0  0
   20.9786   -9.6159  -18.2346 O   0  0  0  0  0  0  0  0  0  0  0  0
   19.0780   -6.7882  -14.1744 N   0  0  0  0  0  0  0  0  0  0  0  0
   18.6635   -8.0980  -13.8135 C   0  0  0  0  0  0  0  0  0  0  0  0
   17.6772   -8.1522  -13.0076 O   0  0  0  0  0  0  0  0  0  0  0  0
   19.3726   -9.2252  -14.3721 C   0  0  0  0  0  0  0  0  0  0  0  0
   20.4678   -8.9587  -15.3591 C   0  0  2  0  0  0  0  0  0  0  0  0
   21.1183  -10.0402  -15.9787 N   0  0  0  0  0  0  0  0  0  0  0  0
   21.3126   -7.8802  -14.8269 C   0  0  0  0  0  0  0  0  0  0  0  0
   21.9705   -8.0042  -13.7484 O   0  0  0  0  0  0  0  0  0  0  0  0
   22.6850   -4.5856  -16.0661 C   0  0  0  0  0  0  0  0  0  0  0  0
   22.4283   -5.6232  -14.9770 C   0  0  2  0  0  0  0  0  0  0  0  0
   21.4709   -6.6040  -15.4715 N   0  0  0  0  0  0  0  0  0  0  0  0
   21.9533   -5.0028  -13.7194 C   0  0  0  0  0  0  0  0  0  0  0  0
   20.7261   -4.9925  -13.4578 O   0  0  0  0  0  0  0  0  0  0  0  0
   22.7921   -4.4144  -12.7835 O   0  0  0  0  0  0  0  0  0  0  0  0
  2  1  1  1
  2  3  1  0
  2  4  1  0
  4  5  1  6
  6  4  1  0
  6 13  1  0
  7  6  2  0
  8  9  1  0
  9 10  2  0
 12 11  1  1
 11  9  1  0
 12 13  1  0
 12 14  1  0
 14 18  1  0
 15 14  2  0
 17 19  1  0
 17 16  1  6
 18 17  1  0
 19 21  1  0
 20 19  2  0
M  END
$$$$
