TNA.pdb
     RDKit          3D

 21 20  0  0  1  0  0  0  0  0999 V2000
   16.9168   -7.3575  -18.8369 C   0  0  0  0  0  0  0  0  0  0  0  0
   16.4745   -8.6234  -18.1371 C   0  0  1  0  0  0  0  0  0  0  0  0
   15.3836   -9.1771  -18.8056 O   0  0  0  0  0  0  0  0  0  0  0  0
   17.6602   -9.5708  -18.1390 C   0  0  2  0  0  0  0  0  0  0  0  0
   17.1912  -10.7965  -17.5265 N   0  0  0  0  0  0  0  0  0  0  0  0
   18.7718   -9.0336  -17.2774 C   0  0  0  0  0  0  0  0  0  0  0  0
   18.5441   -8.8846  -16.0691 O   0  0  0  0  0  0  0  0  0  0  0  0
   24.5803   -7.0910  -18.0373 N   0  0  0  0  0  0  0  0  0  0  0  0
   23.7027   -7.9024  -17.2699 C   0  0  0  0  0  0  0  0  0  0  0  0
   24.0594   -8.0950  -16.0612 O   0  0  0  0  0  0  0  0  0  0  0  0
   22.5156   -8.4265  -17.9036 C   0  0  0  0  0  0  0  0  0  0  0  0
   21.1881   -8.1511  -17.2660 C   0  0  2  0  0  0  0  0  0  0  0  0
   20.0249   -8.7136  -17.8203 N   0  0  0  0  0  0  0  0  0  0  0  0
   21.1403   -6.7280  -16.9022 C   0  0  0  0  0  0  0  0  0  0  0  0
   21.1803   -5.8044  -17.7722 O   0  0  0  0  0  0  0  0  0  0  0  0
   19.6775   -4.5017  -14.5698 C   0  0  0  0  0  0  0  0  0  0  0  0
   21.0063   -4.8330  -15.2431 C   0  0  2  0  0  0  0  0  0  0  0  0
   21.0430   -6.2578  -15.5462 N   0  0  0  0  0  0  0  0  0  0  0  0
   22.1649   -4.4357  -14.4113 C   0  0  0  0  0  0  0  0  0  0  0  0
   22.7855   -5.3071  -13.7555 O   0  0  0  0  0  0  0  0  0  0  0  0
   22.6258   -3.1314  -14.3015 O   0  0  0  0  0  0  0  0  0  0  0  0
  2  1  1  6
  2  3  1  0
  2  4  1  0
  4  5  1  1
  6  4  1  0
  6 13  1  0
  7  6  2  0
  8  9  1  0
  9 10  2  0
 12 11  1  6
 11  9  1  0
 12 13  1  0
 12 14  1  0
 14 18  1  0
 15 14  2  0
 17 19  1  0
 17 16  1  1
 18 17  1  0
 19 21  1  0
 20 19  2  0
M  END
$$$$
