TNA.pdb
     RDKit          3D

 21 20  0  0  1  0  0  0  0  0999 V2000
   14.7985   -9.5061  -13.5120 C   0  0  0  0  0  0  0  0  0  0  0  0
   14.7949   -9.5344  -11.9996 C   0  0  1  0  0  0  0  0  0  0  0  0
   13.8552  -10.4587  -11.5459 O   0  0  0  0  0  0  0  0  0  0  0  0
   16.1969   -9.9125  -11.5581 C   0  0  2  0  0  0  0  0  0  0  0  0
   16.1707   -9.9160  -10.1099 N   0  0  0  0  0  0  0  0  0  0  0  0
   17.1904   -8.8662  -11.9878 C   0  0  0  0  0  0  0  0  0  0  0  0
   17.1360   -7.7584  -11.4364 O   0  0  0  0  0  0  0  0  0  0  0  0
   21.0381   -6.7016  -14.9090 N   0  0  0  0  0  0  0  0  0  0  0  0
   21.2151   -8.1089  -14.9851 C   0  0  0  0  0  0  0  0  0  0  0  0
   22.2651   -8.4913  -15.5987 O   0  0  0  0  0  0  0  0  0  0  0  0
   20.2208   -8.9637  -14.3800 C   0  0  0  0  0  0  0  0  0  0  0  0
   19.0892   -8.3229  -13.6361 C   0  0  2  0  0  0  0  0  0  0  0  0
   18.1481   -9.1334  -12.9771 N   0  0  0  0  0  0  0  0  0  0  0  0
   18.5704   -7.2173  -14.4537 C   0  0  0  0  0  0  0  0  0  0  0  0
   18.0014   -7.4104  -15.5720 O   0  0  0  0  0  0  0  0  0  0  0  0
   16.8679   -4.1910  -14.0823 C   0  0  0  0  0  0  0  0  0  0  0  0
   18.0340   -4.7875  -14.8654 C   0  0  2  0  0  0  0  0  0  0  0  0
   18.6567   -5.8347  -14.0662 N   0  0  0  0  0  0  0  0  0  0  0  0
   19.0233   -3.7586  -15.2587 C   0  0  0  0  0  0  0  0  0  0  0  0
   20.2160   -3.8702  -14.8851 O   0  0  0  0  0  0  0  0  0  0  0  0
   18.7167   -2.6479  -16.0320 O   0  0  0  0  0  0  0  0  0  0  0  0
  2  1  1  6
  2  3  1  0
  2  4  1  0
  4  5  1  1
  6  4  1  0
  6 13  1  0
  7  6  2  0
  8  9  1  0
  9 10  2  0
 12 11  1  6
 11  9  1  0
 12 13  1  0
 12 14  1  0
 14 18  1  0
 15 14  2  0
 17 19  1  0
 17 16  1  1
 18 17  1  0
 19 21  1  0
 20 19  2  0
M  END
$$$$
