TNA.pdb
     RDKit          3D

 21 20  0  0  1  0  0  0  0  0999 V2000
   25.2303  -31.3846   -1.8539 C   0  0  0  0  0  0  0  0  0  0  0  0
   25.7427  -32.6043   -2.5872 C   0  0  1  0  0  0  0  0  0  0  0  0
   26.2162  -32.2357   -3.8454 O   0  0  0  0  0  0  0  0  0  0  0  0
   26.8478  -33.2034   -1.7367 C   0  0  2  0  0  0  0  0  0  0  0  0
   27.3404  -34.3488   -2.4736 N   0  0  0  0  0  0  0  0  0  0  0  0
   26.2980  -33.7111   -0.4304 C   0  0  0  0  0  0  0  0  0  0  0  0
   25.6383  -34.7592   -0.4508 O   0  0  0  0  0  0  0  0  0  0  0  0
   29.0793  -32.0638    3.9378 N   0  0  0  0  0  0  0  0  0  0  0  0
   28.1313  -33.0245    3.4953 C   0  0  0  0  0  0  0  0  0  0  0  0
   28.5789  -34.2118    3.3725 O   0  0  0  0  0  0  0  0  0  0  0  0
   26.7802  -32.5895    3.2289 C   0  0  0  0  0  0  0  0  0  0  0  0
   26.0460  -33.2112    2.0804 C   0  0  2  0  0  0  0  0  0  0  0  0
   26.5246  -33.0246    0.7716 N   0  0  0  0  0  0  0  0  0  0  0  0
   24.6051  -33.0265    2.3031 C   0  0  0  0  0  0  0  0  0  0  0  0
   24.0298  -31.9087    2.1264 O   0  0  0  0  0  0  0  0  0  0  0  0
   21.6124  -35.2048    3.1453 C   0  0  0  0  0  0  0  0  0  0  0  0
   22.2862  -33.8758    2.8157 C   0  0  2  0  0  0  0  0  0  0  0  0
   23.7265  -34.0809    2.7336 N   0  0  0  0  0  0  0  0  0  0  0  0
   21.9537  -32.8243    3.8036 C   0  0  0  0  0  0  0  0  0  0  0  0
   20.8992  -32.1578    3.6687 O   0  0  0  0  0  0  0  0  0  0  0  0
   22.7480  -32.5141    4.8984 O   0  0  0  0  0  0  0  0  0  0  0  0
  2  1  1  1
  2  3  1  0
  2  4  1  0
  4  5  1  6
  6  4  1  0
  6 13  1  0
  7  6  2  0
  8  9  1  0
  9 10  2  0
 12 11  1  1
 11  9  1  0
 12 13  1  0
 12 14  1  0
 14 18  1  0
 15 14  2  0
 17 19  1  0
 17 16  1  1
 18 17  1  0
 19 21  1  0
 20 19  2  0
M  END
$$$$
