TNA.pdb
     RDKit          3D

 21 20  0  0  1  0  0  0  0  0999 V2000
   28.2656  -10.9907  -18.5693 C   0  0  0  0  0  0  0  0  0  0  0  0
   27.5634  -11.5838  -17.3680 C   0  0  1  0  0  0  0  0  0  0  0  0
   28.3774  -12.5453  -16.7711 O   0  0  0  0  0  0  0  0  0  0  0  0
   27.2711  -10.4404  -16.4137 C   0  0  2  0  0  0  0  0  0  0  0  0
   26.7484  -11.0512  -15.2090 N   0  0  0  0  0  0  0  0  0  0  0  0
   26.1945   -9.5462  -16.9687 C   0  0  0  0  0  0  0  0  0  0  0  0
   26.4601   -8.8842  -17.9812 O   0  0  0  0  0  0  0  0  0  0  0  0
   21.4510   -7.4419  -17.6818 N   0  0  0  0  0  0  0  0  0  0  0  0
   21.3133   -8.8118  -17.3327 C   0  0  0  0  0  0  0  0  0  0  0  0
   20.1545   -9.3070  -17.5252 O   0  0  0  0  0  0  0  0  0  0  0  0
   22.4625   -9.5086  -16.8041 C   0  0  0  0  0  0  0  0  0  0  0  0
   23.7587   -8.7649  -16.6977 C   0  0  2  0  0  0  0  0  0  0  0  0
   24.9317   -9.4644  -16.3638 N   0  0  0  0  0  0  0  0  0  0  0  0
   23.5055   -7.5001  -15.9933 C   0  0  0  0  0  0  0  0  0  0  0  0
   23.3496   -7.4448  -14.7347 O   0  0  0  0  0  0  0  0  0  0  0  0
   23.4317   -3.8052  -16.8515 C   0  0  0  0  0  0  0  0  0  0  0  0
   23.2991   -4.9882  -15.8968 C   0  0  2  0  0  0  0  0  0  0  0  0
   23.4145   -6.2266  -16.6560 N   0  0  0  0  0  0  0  0  0  0  0  0
   22.0306   -4.9474  -15.1344 C   0  0  0  0  0  0  0  0  0  0  0  0
   22.0209   -4.4767  -13.9712 O   0  0  0  0  0  0  0  0  0  0  0  0
   20.8176   -5.4064  -15.6281 O   0  0  0  0  0  0  0  0  0  0  0  0
  2  1  1  6
  2  3  1  0
  2  4  1  0
  4  5  1  1
  6  4  1  0
  6 13  1  0
  7  6  2  0
  8  9  1  0
  9 10  2  0
 12 11  1  1
 11  9  1  0
 12 13  1  0
 12 14  1  0
 14 18  1  0
 15 14  2  0
 17 19  1  0
 17 16  1  6
 18 17  1  0
 19 21  1  0
 20 19  2  0
M  END
$$$$
