TNA.pdb
     RDKit          3D

 21 20  0  0  1  0  0  0  0  0999 V2000
   17.9662   -8.4496  -18.3112 C   0  0  0  0  0  0  0  0  0  0  0  0
   17.0442   -9.1543  -17.3412 C   0  0  1  0  0  0  0  0  0  0  0  0
   16.6241  -10.3677  -17.8840 O   0  0  0  0  0  0  0  0  0  0  0  0
   17.8261   -9.3665  -16.0578 C   0  0  2  0  0  0  0  0  0  0  0  0
   16.9418  -10.0903  -15.1680 N   0  0  0  0  0  0  0  0  0  0  0  0
   18.1428   -8.0481  -15.4035 C   0  0  0  0  0  0  0  0  0  0  0  0
   17.1924   -7.3363  -15.0510 O   0  0  0  0  0  0  0  0  0  0  0  0
   21.2206   -3.9470  -14.0293 N   0  0  0  0  0  0  0  0  0  0  0  0
   21.9453   -5.1360  -13.7493 C   0  0  0  0  0  0  0  0  0  0  0  0
   23.0242   -4.9715  -13.0904 O   0  0  0  0  0  0  0  0  0  0  0  0
   21.4162   -6.3944  -14.2205 C   0  0  0  0  0  0  0  0  0  0  0  0
   20.0349   -6.4130  -14.8003 C   0  0  2  0  0  0  0  0  0  0  0  0
   19.4677   -7.6371  -15.1963 N   0  0  0  0  0  0  0  0  0  0  0  0
   19.9125   -5.2820  -15.7308 C   0  0  0  0  0  0  0  0  0  0  0  0
   20.3501   -5.3336  -16.9214 O   0  0  0  0  0  0  0  0  0  0  0  0
   18.0746   -3.5111  -17.4199 C   0  0  0  0  0  0  0  0  0  0  0  0
   19.0705   -2.9962  -16.3846 C   0  0  2  0  0  0  0  0  0  0  0  0
   19.2927   -4.0313  -15.3834 N   0  0  0  0  0  0  0  0  0  0  0  0
   18.6158   -1.7356  -15.7552 C   0  0  0  0  0  0  0  0  0  0  0  0
   18.2740   -1.7333  -14.5478 O   0  0  0  0  0  0  0  0  0  0  0  0
   18.5378   -0.5225  -16.4244 O   0  0  0  0  0  0  0  0  0  0  0  0
  2  1  1  6
  2  3  1  0
  2  4  1  0
  4  5  1  1
  6  4  1  0
  6 13  1  0
  7  6  2  0
  8  9  1  0
  9 10  2  0
 12 11  1  6
 11  9  1  0
 12 13  1  0
 12 14  1  0
 14 18  1  0
 15 14  2  0
 17 19  1  0
 17 16  1  6
 18 17  1  0
 19 21  1  0
 20 19  2  0
M  END
$$$$
