TNA.pdb
     RDKit          3D

 21 20  0  0  1  0  0  0  0  0999 V2000
   11.3059   -8.1172  -10.2648 C   0  0  0  0  0  0  0  0  0  0  0  0
   12.2829   -8.9049   -9.4206 C   0  0  1  0  0  0  0  0  0  0  0  0
   11.6682  -10.0596   -8.9387 O   0  0  0  0  0  0  0  0  0  0  0  0
   13.4676   -9.2412  -10.3077 C   0  0  2  0  0  0  0  0  0  0  0  0
   14.3745  -10.0143   -9.4845 N   0  0  0  0  0  0  0  0  0  0  0  0
   14.1933   -7.9893  -10.7234 C   0  0  0  0  0  0  0  0  0  0  0  0
   13.5858   -6.9137  -10.6329 O   0  0  0  0  0  0  0  0  0  0  0  0
   17.8113   -7.8596   -9.3263 N   0  0  0  0  0  0  0  0  0  0  0  0
   18.5470   -7.7803  -10.5387 C   0  0  0  0  0  0  0  0  0  0  0  0
   19.7748   -8.1118  -10.4511 O   0  0  0  0  0  0  0  0  0  0  0  0
   17.8638   -7.3433  -11.7337 C   0  0  0  0  0  0  0  0  0  0  0  0
   16.3993   -7.0402  -11.6455 C   0  0  2  0  0  0  0  0  0  0  0  0
   15.5132   -8.0349  -11.1956 N   0  0  0  0  0  0  0  0  0  0  0  0
   16.0131   -6.2884  -12.8479 C   0  0  0  0  0  0  0  0  0  0  0  0
   15.7608   -6.8604  -13.9528 O   0  0  0  0  0  0  0  0  0  0  0  0
   14.3878   -3.2110  -13.8580 C   0  0  0  0  0  0  0  0  0  0  0  0
   15.5562   -4.1577  -14.1177 C   0  0  2  0  0  0  0  0  0  0  0  0
   15.8855   -4.8561  -12.8820 N   0  0  0  0  0  0  0  0  0  0  0  0
   16.7372   -3.4474  -14.6587 C   0  0  0  0  0  0  0  0  0  0  0  0
   17.7539   -3.2967  -13.9389 O   0  0  0  0  0  0  0  0  0  0  0  0
   16.8013   -2.9208  -15.9410 O   0  0  0  0  0  0  0  0  0  0  0  0
  2  1  1  6
  2  3  1  0
  2  4  1  0
  4  5  1  1
  6  4  1  0
  6 13  1  0
  7  6  2  0
  8  9  1  0
  9 10  2  0
 12 11  1  6
 11  9  1  0
 12 13  1  0
 12 14  1  0
 14 18  1  0
 15 14  2  0
 17 19  1  0
 17 16  1  1
 18 17  1  0
 19 21  1  0
 20 19  2  0
M  END
$$$$
