TNA.pdb
     RDKit          3D

 21 20  0  0  1  0  0  0  0  0999 V2000
   16.5423   -7.8629  -18.3768 C   0  0  0  0  0  0  0  0  0  0  0  0
   16.2308   -9.1273  -17.6073 C   0  0  1  0  0  0  0  0  0  0  0  0
   15.1070   -9.7475  -18.1510 O   0  0  0  0  0  0  0  0  0  0  0  0
   17.4539  -10.0206  -17.7048 C   0  0  2  0  0  0  0  0  0  0  0  0
   17.1000  -11.2546  -17.0342 N   0  0  0  0  0  0  0  0  0  0  0  0
   18.6136   -9.4185  -16.9570 C   0  0  0  0  0  0  0  0  0  0  0  0
   18.3668   -8.7945  -15.9159 O   0  0  0  0  0  0  0  0  0  0  0  0
   23.6959   -8.2576  -15.9319 N   0  0  0  0  0  0  0  0  0  0  0  0
   23.6886   -9.3293  -16.8640 C   0  0  0  0  0  0  0  0  0  0  0  0
   24.8236   -9.8677  -17.0809 O   0  0  0  0  0  0  0  0  0  0  0  0
   22.4340   -9.7082  -17.4707 C   0  0  0  0  0  0  0  0  0  0  0  0
   21.1697   -9.1333  -16.9092 C   0  0  2  0  0  0  0  0  0  0  0  0
   19.9304   -9.5589  -17.4190 N   0  0  0  0  0  0  0  0  0  0  0  0
   21.3632   -7.6874  -16.7298 C   0  0  0  0  0  0  0  0  0  0  0  0
   21.2055   -6.8597  -17.6794 O   0  0  0  0  0  0  0  0  0  0  0  0
   20.4888   -5.0171  -15.7081 C   0  0  0  0  0  0  0  0  0  0  0  0
   21.8317   -5.6388  -15.3353 C   0  0  2  0  0  0  0  0  0  0  0  0
   21.7415   -7.0860  -15.4792 N   0  0  0  0  0  0  0  0  0  0  0  0
   22.2561   -5.2653  -13.9669 C   0  0  0  0  0  0  0  0  0  0  0  0
   22.2299   -6.1248  -13.0531 O   0  0  0  0  0  0  0  0  0  0  0  0
   22.6922   -3.9964  -13.6128 O   0  0  0  0  0  0  0  0  0  0  0  0
  2  1  1  6
  2  3  1  0
  2  4  1  0
  4  5  1  1
  6  4  1  0
  6 13  1  0
  7  6  2  0
  8  9  1  0
  9 10  2  0
 12 11  1  6
 11  9  1  0
 12 13  1  0
 12 14  1  0
 14 18  1  0
 15 14  2  0
 17 19  1  0
 17 16  1  1
 18 17  1  0
 19 21  1  0
 20 19  2  0
M  END
$$$$
