TNA.pdb
     RDKit          3D

 21 20  0  0  1  0  0  0  0  0999 V2000
   17.5999  -11.2929  -14.4058 C   0  0  0  0  0  0  0  0  0  0  0  0
   16.2114  -11.5763  -13.8771 C   0  0  1  0  0  0  0  0  0  0  0  0
   15.9413  -12.9412  -13.9644 O   0  0  0  0  0  0  0  0  0  0  0  0
   16.1775  -11.0994  -12.4367 C   0  0  2  0  0  0  0  0  0  0  0  0
   14.8428  -11.3871  -11.9535 N   0  0  0  0  0  0  0  0  0  0  0  0
   16.3703   -9.6079  -12.3654 C   0  0  0  0  0  0  0  0  0  0  0  0
   15.6818   -8.9011  -13.1140 O   0  0  0  0  0  0  0  0  0  0  0  0
   15.3048   -7.4093   -9.9165 N   0  0  0  0  0  0  0  0  0  0  0  0
   16.4875   -7.0015   -9.2439 C   0  0  0  0  0  0  0  0  0  0  0  0
   16.3150   -6.5678   -8.0576 O   0  0  0  0  0  0  0  0  0  0  0  0
   17.7489   -7.1084   -9.9388 C   0  0  0  0  0  0  0  0  0  0  0  0
   17.7580   -7.7179  -11.3074 C   0  0  2  0  0  0  0  0  0  0  0  0
   17.2956   -9.0342  -11.4810 N   0  0  0  0  0  0  0  0  0  0  0  0
   19.0234   -7.3570  -11.9620 C   0  0  0  0  0  0  0  0  0  0  0  0
   20.1214   -7.9255  -11.6745 O   0  0  0  0  0  0  0  0  0  0  0  0
   20.0816   -5.3176  -14.9632 C   0  0  0  0  0  0  0  0  0  0  0  0
   20.3729   -6.1422  -13.7126 C   0  0  2  0  0  0  0  0  0  0  0  0
   19.1318   -6.3422  -12.9758 N   0  0  0  0  0  0  0  0  0  0  0  0
   21.4034   -5.5101  -12.8579 C   0  0  0  0  0  0  0  0  0  0  0  0
   21.0520   -4.7862  -11.8951 O   0  0  0  0  0  0  0  0  0  0  0  0
   22.7688   -5.6649  -13.0517 O   0  0  0  0  0  0  0  0  0  0  0  0
  2  1  1  1
  2  3  1  0
  2  4  1  0
  4  5  1  6
  6  4  1  0
  6 13  1  0
  7  6  2  0
  8  9  1  0
  9 10  2  0
 12 11  1  1
 11  9  1  0
 12 13  1  0
 12 14  1  0
 14 18  1  0
 15 14  2  0
 17 19  1  0
 17 16  1  6
 18 17  1  0
 19 21  1  0
 20 19  2  0
M  END
$$$$
