TNA.pdb
     RDKit          3D

 21 20  0  0  1  0  0  0  0  0999 V2000
   16.2624  -11.3406  -14.2743 C   0  0  0  0  0  0  0  0  0  0  0  0
   17.1601  -10.2640  -14.8426 C   0  0  1  0  0  0  0  0  0  0  0  0
   18.3600  -10.2255  -14.1341 O   0  0  0  0  0  0  0  0  0  0  0  0
   17.3937  -10.6042  -16.3032 C   0  0  2  0  0  0  0  0  0  0  0  0
   18.1805  -11.8202  -16.3076 N   0  0  0  0  0  0  0  0  0  0  0  0
   18.2139   -9.5348  -16.9740 C   0  0  0  0  0  0  0  0  0  0  0  0
   18.5252   -9.7061  -18.1605 O   0  0  0  0  0  0  0  0  0  0  0  0
   20.7142   -4.9555  -17.6325 N   0  0  0  0  0  0  0  0  0  0  0  0
   19.5304   -5.3091  -18.3333 C   0  0  0  0  0  0  0  0  0  0  0  0
   19.2444   -4.5629  -19.3266 O   0  0  0  0  0  0  0  0  0  0  0  0
   18.7717   -6.4495  -17.8758 C   0  0  0  0  0  0  0  0  0  0  0  0
   19.2763   -7.2096  -16.6874 C   0  0  2  0  0  0  0  0  0  0  0  0
   18.6122   -8.3810  -16.2830 N   0  0  0  0  0  0  0  0  0  0  0  0
   19.6311   -6.2412  -15.6403 C   0  0  0  0  0  0  0  0  0  0  0  0
   18.7675   -5.4898  -15.0914 O   0  0  0  0  0  0  0  0  0  0  0  0
   22.3821   -5.9198  -13.1750 C   0  0  0  0  0  0  0  0  0  0  0  0
   21.2315   -5.2783  -13.9454 C   0  0  2  0  0  0  0  0  0  0  0  0
   20.9701   -6.0600  -15.1470 N   0  0  0  0  0  0  0  0  0  0  0  0
   21.5084   -3.8631  -14.2809 C   0  0  0  0  0  0  0  0  0  0  0  0
   21.8838   -3.5623  -15.4398 O   0  0  0  0  0  0  0  0  0  0  0  0
   21.3794   -2.8161  -13.3792 O   0  0  0  0  0  0  0  0  0  0  0  0
  2  1  1  1
  2  3  1  0
  2  4  1  0
  4  5  1  1
  6  4  1  0
  6 13  1  0
  7  6  2  0
  8  9  1  0
  9 10  2  0
 12 11  1  6
 11  9  1  0
 12 13  1  0
 12 14  1  0
 14 18  1  0
 15 14  2  0
 17 19  1  0
 17 16  1  6
 18 17  1  0
 19 21  1  0
 20 19  2  0
M  END
$$$$
