MWY.pdb
     RDKit          3D

 35 37  0  0  1  0  0  0  0  0999 V2000
   26.2679  -16.8588  -15.3677 C   0  0  0  0  0  0  0  0  0  0  0  0
   27.9899  -17.1552  -15.9052 S   0  0  0  0  0  0  0  0  0  0  0  0
   28.1443  -18.9123  -16.3107 C   0  0  0  0  0  0  0  0  0  0  0  0
   27.4125  -19.6722  -15.2174 C   0  0  0  0  0  0  0  0  0  0  0  0
   28.3680  -20.6628  -14.5558 C   0  0  2  0  0  0  0  0  0  0  0  0
   28.5688  -21.8039  -15.4659 N   0  0  0  0  0  0  0  0  0  0  0  0
   27.6621  -21.1856  -13.3596 C   0  0  0  0  0  0  0  0  0  0  0  0
   26.8648  -22.1447  -13.4937 O   0  0  0  0  0  0  0  0  0  0  0  0
   27.8754  -20.6296  -12.0811 N   0  0  0  0  0  0  0  0  0  0  0  0
   27.0391  -21.2628  -10.9816 C   0  0  1  0  0  0  0  0  0  0  0  0
   27.8866  -21.0610   -9.7826 C   0  0  0  0  0  0  0  0  0  0  0  0
   27.1178  -20.8687   -8.5542 C   0  0  0  0  0  0  0  0  0  0  0  0
   25.7778  -21.1453   -8.3326 C   0  0  0  0  0  0  0  0  0  0  0  0
   25.5248  -20.8873   -7.0606 N   0  0  0  0  0  0  0  0  0  0  0  0
   26.6377  -20.4557   -6.4418 C   0  0  0  0  0  0  0  0  0  0  0  0
   26.9198  -20.0792   -5.1409 C   0  0  0  0  0  0  0  0  0  0  0  0
   28.2047  -19.7012   -4.8207 C   0  0  0  0  0  0  0  0  0  0  0  0
   29.2426  -19.6794   -5.7524 C   0  0  0  0  0  0  0  0  0  0  0  0
   28.9435  -20.0560   -7.0403 C   0  0  0  0  0  0  0  0  0  0  0  0
   27.6606  -20.4330   -7.3577 C   0  0  0  0  0  0  0  0  0  0  0  0
   25.7786  -20.5588  -10.9956 C   0  0  0  0  0  0  0  0  0  0  0  0
   25.8783  -19.2645  -10.7654 O   0  0  0  0  0  0  0  0  0  0  0  0
   23.0115  -21.8810  -17.3499 O   0  0  0  0  0  0  0  0  0  0  0  0
   23.0981  -21.2375  -16.1290 C   0  0  0  0  0  0  0  0  0  0  0  0
   24.3357  -20.8425  -15.6768 C   0  0  0  0  0  0  0  0  0  0  0  0
   24.4521  -20.2007  -14.4645 C   0  0  0  0  0  0  0  0  0  0  0  0
   23.3658  -19.9266  -13.6592 C   0  0  0  0  0  0  0  0  0  0  0  0
   23.5528  -19.2350  -12.3880 C   0  0  0  0  0  0  0  0  0  0  0  0
   23.3481  -20.1197  -11.1967 C   0  0  2  0  0  0  0  0  0  0  0  0
   24.5101  -21.0416  -11.2108 N   0  0  0  0  0  0  0  0  0  0  0  0
   22.0890  -20.8836  -11.2689 C   0  0  0  0  0  0  0  0  0  0  0  0
   21.9329  -22.2262  -11.4663 O   0  0  0  0  0  0  0  0  0  0  0  0
   22.1299  -20.3232  -14.1141 C   0  0  0  0  0  0  0  0  0  0  0  0
   22.0006  -20.9679  -15.3319 C   0  0  0  0  0  0  0  0  0  0  0  0
   20.9922  -20.2157  -11.1332 O   0  0  0  0  0  0  0  0  0  0  0  0
  2  1  1  0
  3  2  1  0
  4  3  1  0
  5  4  1  0
  5  6  1  6
  7  8  2  0
  7  5  1  0
  9  7  1  0
 10  9  1  0
 10 21  1  0
 10 11  1  1
 12 11  1  0
 13 12  2  0
 14 15  1  0
 14 13  1  0
 15 20  2  0
 16 17  2  0
 16 15  1  0
 17 18  1  0
 18 19  2  0
 20 19  1  0
 20 12  1  0
 21 30  1  0
 22 21  2  0
 23 24  1  0
 24 25  2  0
 24 34  1  0
 25 26  1  0
 26 27  2  0
 27 28  1  0
 29 28  1  6
 29 31  1  0
 30 29  1  0
 31 35  2  0
 31 32  1  0
 33 27  1  0
 34 33  2  0
M  END
$$$$
