MWY.pdb
     RDKit          3D

 35 37  0  0  1  0  0  0  0  0999 V2000
   24.1384  -19.6109  -17.1279 C   0  0  0  0  0  0  0  0  0  0  0  0
   25.7059  -19.9136  -18.0186 S   0  0  0  0  0  0  0  0  0  0  0  0
   26.8414  -20.7308  -16.8705 C   0  0  0  0  0  0  0  0  0  0  0  0
   26.0802  -20.9119  -15.5681 C   0  0  0  0  0  0  0  0  0  0  0  0
   27.0515  -21.3117  -14.4596 C   0  0  2  0  0  0  0  0  0  0  0  0
   27.6218  -22.6306  -14.7854 N   0  0  0  0  0  0  0  0  0  0  0  0
   26.2337  -21.4876  -13.2338 C   0  0  0  0  0  0  0  0  0  0  0  0
   25.5355  -22.5225  -13.1107 O   0  0  0  0  0  0  0  0  0  0  0  0
   26.2324  -20.5194  -12.2082 N   0  0  0  0  0  0  0  0  0  0  0  0
   25.2419  -20.8007  -11.0905 C   0  0  1  0  0  0  0  0  0  0  0  0
   25.7793  -19.9831   -9.9773 C   0  0  0  0  0  0  0  0  0  0  0  0
   27.0751  -20.4500   -9.4873 C   0  0  0  0  0  0  0  0  0  0  0  0
   28.0322  -21.1848  -10.1692 C   0  0  0  0  0  0  0  0  0  0  0  0
   29.0749  -21.3188   -9.3671 N   0  0  0  0  0  0  0  0  0  0  0  0
   28.8427  -20.7048   -8.1937 C   0  0  0  0  0  0  0  0  0  0  0  0
   29.5929  -20.5302   -7.0445 C   0  0  0  0  0  0  0  0  0  0  0  0
   29.0558  -19.8088   -6.0018 C   0  0  0  0  0  0  0  0  0  0  0  0
   27.7821  -19.2421   -6.0492 C   0  0  0  0  0  0  0  0  0  0  0  0
   27.0509  -19.4265   -7.1987 C   0  0  0  0  0  0  0  0  0  0  0  0
   27.5889  -20.1466   -8.2383 C   0  0  0  0  0  0  0  0  0  0  0  0
   23.9515  -20.4063  -11.6042 C   0  0  0  0  0  0  0  0  0  0  0  0
   23.9721  -19.3114  -12.3383 O   0  0  0  0  0  0  0  0  0  0  0  0
   17.3088  -18.7788  -16.5686 O   0  0  0  0  0  0  0  0  0  0  0  0
   18.3764  -19.2513  -15.8275 C   0  0  0  0  0  0  0  0  0  0  0  0
   19.3276  -18.3568  -15.3947 C   0  0  0  0  0  0  0  0  0  0  0  0
   20.4017  -18.7990  -14.6560 C   0  0  0  0  0  0  0  0  0  0  0  0
   20.5789  -20.1252  -14.3191 C   0  0  0  0  0  0  0  0  0  0  0  0
   21.7344  -20.5310  -13.5258 C   0  0  0  0  0  0  0  0  0  0  0  0
   21.5138  -20.4034  -12.0498 C   0  0  2  0  0  0  0  0  0  0  0  0
   22.7246  -21.0024  -11.4370 N   0  0  0  0  0  0  0  0  0  0  0  0
   20.3054  -21.1152  -11.5946 C   0  0  0  0  0  0  0  0  0  0  0  0
   20.1674  -22.4480  -11.3290 O   0  0  0  0  0  0  0  0  0  0  0  0
   19.6262  -21.0171  -14.7536 C   0  0  0  0  0  0  0  0  0  0  0  0
   18.5414  -20.5837  -15.4957 C   0  0  0  0  0  0  0  0  0  0  0  0
   19.2396  -20.4065  -11.4242 O   0  0  0  0  0  0  0  0  0  0  0  0
  2  1  1  0
  3  2  1  0
  4  3  1  0
  5  4  1  0
  5  6  1  6
  7  8  2  0
  7  5  1  0
  9  7  1  0
 10  9  1  0
 10 21  1  0
 10 11  1  1
 12 11  1  0
 13 12  2  0
 14 15  1  0
 14 13  1  0
 15 20  2  0
 16 17  2  0
 16 15  1  0
 17 18  1  0
 18 19  2  0
 20 19  1  0
 20 12  1  0
 21 30  1  0
 22 21  2  0
 23 24  1  0
 24 25  2  0
 24 34  1  0
 25 26  1  0
 26 27  2  0
 27 28  1  0
 29 28  1  6
 29 31  1  0
 30 29  1  0
 31 35  2  0
 31 32  1  0
 33 27  1  0
 34 33  2  0
M  END
$$$$
