MWY.pdb
     RDKit          3D

 35 37  0  0  1  0  0  0  0  0999 V2000
   24.9159  -23.0638  -19.9844 C   0  0  0  0  0  0  0  0  0  0  0  0
   25.8422  -21.5865  -20.5335 S   0  0  0  0  0  0  0  0  0  0  0  0
   27.3686  -21.5033  -19.5646 C   0  0  0  0  0  0  0  0  0  0  0  0
   26.9780  -21.7767  -18.1220 C   0  0  0  0  0  0  0  0  0  0  0  0
   28.1786  -21.5285  -17.2115 C   0  0  2  0  0  0  0  0  0  0  0  0
   29.1834  -22.5770  -17.4597 N   0  0  0  0  0  0  0  0  0  0  0  0
   27.6929  -21.7185  -15.8221 C   0  0  0  0  0  0  0  0  0  0  0  0
   27.3189  -22.8593  -15.4583 O   0  0  0  0  0  0  0  0  0  0  0  0
   27.6502  -20.6459  -14.9072 N   0  0  0  0  0  0  0  0  0  0  0  0
   27.2411  -21.0468  -13.4996 C   0  0  1  0  0  0  0  0  0  0  0  0
   28.0113  -20.0966  -12.6628 C   0  0  0  0  0  0  0  0  0  0  0  0
   28.4130  -20.6535  -11.3723 C   0  0  0  0  0  0  0  0  0  0  0  0
   29.5649  -21.3621  -11.0686 C   0  0  0  0  0  0  0  0  0  0  0  0
   29.5498  -21.6052   -9.7689 N   0  0  0  0  0  0  0  0  0  0  0  0
   28.4418  -21.0874   -9.2103 C   0  0  0  0  0  0  0  0  0  0  0  0
   27.9596  -21.0424   -7.9145 C   0  0  0  0  0  0  0  0  0  0  0  0
   26.7695  -20.3946   -7.6689 C   0  0  0  0  0  0  0  0  0  0  0  0
   26.0215  -19.7777   -8.6717 C   0  0  0  0  0  0  0  0  0  0  0  0
   26.5158  -19.8331   -9.9534 C   0  0  0  0  0  0  0  0  0  0  0  0
   27.7038  -20.4800  -10.1963 C   0  0  0  0  0  0  0  0  0  0  0  0
   25.8042  -20.9116  -13.4575 C   0  0  0  0  0  0  0  0  0  0  0  0
   25.3372  -19.8790  -14.1309 O   0  0  0  0  0  0  0  0  0  0  0  0
   17.0934  -21.8769  -13.0879 O   0  0  0  0  0  0  0  0  0  0  0  0
   18.4618  -22.0686  -13.0330 C   0  0  0  0  0  0  0  0  0  0  0  0
   19.2198  -21.7376  -14.1321 C   0  0  0  0  0  0  0  0  0  0  0  0
   20.5842  -21.9187  -14.1062 C   0  0  0  0  0  0  0  0  0  0  0  0
   21.2475  -22.4278  -13.0086 C   0  0  0  0  0  0  0  0  0  0  0  0
   22.6976  -22.5881  -13.0390 C   0  0  0  0  0  0  0  0  0  0  0  0
   23.4399  -21.3043  -12.8278 C   0  0  2  0  0  0  0  0  0  0  0  0
   24.8708  -21.6955  -12.8230 N   0  0  0  0  0  0  0  0  0  0  0  0
   23.0854  -20.6483  -11.5557 C   0  0  0  0  0  0  0  0  0  0  0  0
   22.1380  -19.6874  -11.3434 O   0  0  0  0  0  0  0  0  0  0  0  0
   20.4867  -22.7580  -11.9115 C   0  0  0  0  0  0  0  0  0  0  0  0
   19.1144  -22.5790  -11.9257 C   0  0  0  0  0  0  0  0  0  0  0  0
   23.7434  -21.0143  -10.5068 O   0  0  0  0  0  0  0  0  0  0  0  0
  2  1  1  0
  3  2  1  0
  4  3  1  0
  5  4  1  0
  5  6  1  6
  7  8  2  0
  7  5  1  0
  9  7  1  0
 10  9  1  0
 10 21  1  0
 10 11  1  1
 12 11  1  0
 13 12  2  0
 14 15  1  0
 14 13  1  0
 15 20  2  0
 16 17  2  0
 16 15  1  0
 17 18  1  0
 18 19  2  0
 20 19  1  0
 20 12  1  0
 21 30  1  0
 22 21  2  0
 23 24  1  0
 24 25  2  0
 24 34  1  0
 25 26  1  0
 26 27  2  0
 27 28  1  0
 29 28  1  1
 29 31  1  0
 30 29  1  0
 31 35  2  0
 31 32  1  0
 33 27  1  0
 34 33  2  0
M  END
$$$$
