MWY.pdb
     RDKit          3D

 35 37  0  0  1  0  0  0  0  0999 V2000
   22.2307  -23.8500  -16.0669 C   0  0  0  0  0  0  0  0  0  0  0  0
   20.7406  -23.8873  -15.0086 S   0  0  0  0  0  0  0  0  0  0  0  0
   20.6877  -22.3354  -14.0789 C   0  0  0  0  0  0  0  0  0  0  0  0
   22.1185  -21.8298  -14.0038 C   0  0  0  0  0  0  0  0  0  0  0  0
   22.5317  -21.6802  -12.5412 C   0  0  2  0  0  0  0  0  0  0  0  0
   21.5549  -20.8114  -11.8618 N   0  0  0  0  0  0  0  0  0  0  0  0
   23.8246  -20.9517  -12.5470 C   0  0  0  0  0  0  0  0  0  0  0  0
   23.8375  -19.7365  -12.8583 O   0  0  0  0  0  0  0  0  0  0  0  0
   25.0312  -21.5969  -12.2049 N   0  0  0  0  0  0  0  0  0  0  0  0
   26.2567  -20.7014  -12.2802 C   0  0  1  0  0  0  0  0  0  0  0  0
   27.1655  -21.3237  -11.2886 C   0  0  0  0  0  0  0  0  0  0  0  0
   26.9374  -20.8601   -9.9212 C   0  0  0  0  0  0  0  0  0  0  0  0
   25.7976  -20.2699   -9.3979 C   0  0  0  0  0  0  0  0  0  0  0  0
   26.0060  -20.0820   -8.1057 N   0  0  0  0  0  0  0  0  0  0  0  0
   27.2286  -20.5229   -7.7614 C   0  0  0  0  0  0  0  0  0  0  0  0
   27.9188  -20.5802   -6.5638 C   0  0  0  0  0  0  0  0  0  0  0  0
   29.1813  -21.1298   -6.5484 C   0  0  0  0  0  0  0  0  0  0  0  0
   29.8020  -21.6347   -7.6910 C   0  0  0  0  0  0  0  0  0  0  0  0
   29.1014  -21.5687   -8.8721 C   0  0  0  0  0  0  0  0  0  0  0  0
   27.8414  -21.0199   -8.8852 C   0  0  0  0  0  0  0  0  0  0  0  0
   26.6897  -20.7475  -13.6569 C   0  0  0  0  0  0  0  0  0  0  0  0
   26.2577  -21.7982  -14.3258 O   0  0  0  0  0  0  0  0  0  0  0  0
   23.2944  -15.6267  -19.3945 O   0  0  0  0  0  0  0  0  0  0  0  0
   23.8697  -16.3773  -18.3856 C   0  0  0  0  0  0  0  0  0  0  0  0
   24.6740  -15.7434  -17.4672 C   0  0  0  0  0  0  0  0  0  0  0  0
   25.2608  -16.4655  -16.4527 C   0  0  0  0  0  0  0  0  0  0  0  0
   25.0803  -17.8255  -16.3054 C   0  0  0  0  0  0  0  0  0  0  0  0
   25.7226  -18.5341  -15.2033 C   0  0  0  0  0  0  0  0  0  0  0  0
   26.9762  -19.2470  -15.6081 C   0  0  2  0  0  0  0  0  0  0  0  0
   27.4770  -19.8642  -14.3556 N   0  0  0  0  0  0  0  0  0  0  0  0
   27.9899  -18.3349  -16.1691 C   0  0  0  0  0  0  0  0  0  0  0  0
   28.7841  -17.4492  -15.4979 O   0  0  0  0  0  0  0  0  0  0  0  0
   24.2758  -18.4564  -17.2255 C   0  0  0  0  0  0  0  0  0  0  0  0
   23.6797  -17.7403  -18.2488 C   0  0  0  0  0  0  0  0  0  0  0  0
   28.1567  -18.3639  -17.4492 O   0  0  0  0  0  0  0  0  0  0  0  0
  2  1  1  0
  3  2  1  0
  4  3  1  0
  5  4  1  0
  5  6  1  1
  7  8  2  0
  7  5  1  0
  9  7  1  0
 10  9  1  0
 10 21  1  0
 10 11  1  1
 12 11  1  0
 13 12  2  0
 14 15  1  0
 14 13  1  0
 15 20  2  0
 16 17  2  0
 16 15  1  0
 17 18  1  0
 18 19  2  0
 20 19  1  0
 20 12  1  0
 21 30  1  0
 22 21  2  0
 23 24  1  0
 24 25  2  0
 24 34  1  0
 25 26  1  0
 26 27  2  0
 27 28  1  0
 29 28  1  1
 29 31  1  0
 30 29  1  0
 31 35  2  0
 31 32  1  0
 33 27  1  0
 34 33  2  0
M  END
$$$$
