MWY.pdb
     RDKit          3D

 35 37  0  0  1  0  0  0  0  0999 V2000
   25.6057  -17.2365  -19.2632 C   0  0  0  0  0  0  0  0  0  0  0  0
   26.8493  -18.2715  -20.1141 S   0  0  0  0  0  0  0  0  0  0  0  0
   26.0755  -19.8642  -20.4885 C   0  0  0  0  0  0  0  0  0  0  0  0
   25.5318  -20.3980  -19.1740 C   0  0  0  0  0  0  0  0  0  0  0  0
   26.6741  -20.9887  -18.3504 C   0  0  2  0  0  0  0  0  0  0  0  0
   27.1483  -22.2158  -19.0138 N   0  0  0  0  0  0  0  0  0  0  0  0
   26.0814  -21.4020  -17.0541 C   0  0  0  0  0  0  0  0  0  0  0  0
   25.1225  -22.2108  -17.0532 O   0  0  0  0  0  0  0  0  0  0  0  0
   26.5787  -20.9085  -15.8300 N   0  0  0  0  0  0  0  0  0  0  0  0
   25.8580  -21.4467  -14.6052 C   0  0  1  0  0  0  0  0  0  0  0  0
   26.8396  -21.1954  -13.5237 C   0  0  0  0  0  0  0  0  0  0  0  0
   26.3223  -21.4940  -12.1895 C   0  0  0  0  0  0  0  0  0  0  0  0
   25.9350  -22.7227  -11.6783 C   0  0  0  0  0  0  0  0  0  0  0  0
   25.6044  -22.5386  -10.4113 N   0  0  0  0  0  0  0  0  0  0  0  0
   25.7586  -21.2468  -10.0718 C   0  0  0  0  0  0  0  0  0  0  0  0
   25.5770  -20.5423   -8.8952 C   0  0  0  0  0  0  0  0  0  0  0  0
   25.8559  -19.1940   -8.8764 C   0  0  0  0  0  0  0  0  0  0  0  0
   26.3156  -18.4996   -9.9955 C   0  0  0  0  0  0  0  0  0  0  0  0
   26.4895  -19.2158  -11.1560 C   0  0  0  0  0  0  0  0  0  0  0  0
   26.2106  -20.5615  -11.1726 C   0  0  0  0  0  0  0  0  0  0  0  0
   24.6199  -20.7081  -14.5250 C   0  0  0  0  0  0  0  0  0  0  0  0
   24.7121  -19.4521  -14.9151 O   0  0  0  0  0  0  0  0  0  0  0  0
   18.6707  -25.2365  -12.6039 O   0  0  0  0  0  0  0  0  0  0  0  0
   19.3101  -24.1506  -13.1734 C   0  0  0  0  0  0  0  0  0  0  0  0
   18.9210  -22.8849  -12.8009 C   0  0  0  0  0  0  0  0  0  0  0  0
   19.5391  -21.7853  -13.3521 C   0  0  0  0  0  0  0  0  0  0  0  0
   20.5533  -21.8889  -14.2819 C   0  0  0  0  0  0  0  0  0  0  0  0
   21.1757  -20.6852  -14.8235 C   0  0  0  0  0  0  0  0  0  0  0  0
   22.2737  -20.1461  -13.9591 C   0  0  2  0  0  0  0  0  0  0  0  0
   23.3795  -21.1241  -14.1048 N   0  0  0  0  0  0  0  0  0  0  0  0
   21.8757  -20.0322  -12.5438 C   0  0  0  0  0  0  0  0  0  0  0  0
   22.3034  -20.7873  -11.4890 O   0  0  0  0  0  0  0  0  0  0  0  0
   20.9398  -23.1557  -14.6525 C   0  0  0  0  0  0  0  0  0  0  0  0
   20.3264  -24.2685  -14.1039 C   0  0  0  0  0  0  0  0  0  0  0  0
   21.0173  -19.1130  -12.2509 O   0  0  0  0  0  0  0  0  0  0  0  0
  2  1  1  0
  3  2  1  0
  4  3  1  0
  5  4  1  0
  5  6  1  6
  7  8  2  0
  7  5  1  0
  9  7  1  0
 10  9  1  0
 10 21  1  0
 10 11  1  1
 12 11  1  0
 13 12  2  0
 14 15  1  0
 14 13  1  0
 15 20  2  0
 16 17  2  0
 16 15  1  0
 17 18  1  0
 18 19  2  0
 20 19  1  0
 20 12  1  0
 21 30  1  0
 22 21  2  0
 23 24  1  0
 24 25  2  0
 24 34  1  0
 25 26  1  0
 26 27  2  0
 27 28  1  0
 29 28  1  6
 29 31  1  0
 30 29  1  0
 31 35  2  0
 31 32  1  0
 33 27  1  0
 34 33  2  0
M  END
$$$$
