MWY.pdb
     RDKit          3D

 35 37  0  0  1  0  0  0  0  0999 V2000
   26.2328  -23.4031  -22.9351 C   0  0  0  0  0  0  0  0  0  0  0  0
   27.9792  -23.0670  -22.5121 S   0  0  0  0  0  0  0  0  0  0  0  0
   28.1894  -23.3945  -20.7446 C   0  0  0  0  0  0  0  0  0  0  0  0
   27.1269  -22.5797  -20.0265 C   0  0  0  0  0  0  0  0  0  0  0  0
   27.7823  -21.7273  -18.9422 C   0  0  2  0  0  0  0  0  0  0  0  0
   28.0657  -22.5829  -17.7768 N   0  0  0  0  0  0  0  0  0  0  0  0
   26.7593  -20.7414  -18.5135 C   0  0  0  0  0  0  0  0  0  0  0  0
   26.2818  -20.8233  -17.3564 O   0  0  0  0  0  0  0  0  0  0  0  0
   26.3215  -19.7163  -19.3777 N   0  0  0  0  0  0  0  0  0  0  0  0
   25.2892  -18.7855  -18.7634 C   0  0  1  0  0  0  0  0  0  0  0  0
   25.4105  -17.5749  -19.6096 C   0  0  0  0  0  0  0  0  0  0  0  0
   24.3608  -16.5876  -19.3640 C   0  0  0  0  0  0  0  0  0  0  0  0
   23.8032  -16.2170  -18.1504 C   0  0  0  0  0  0  0  0  0  0  0  0
   22.9445  -15.2405  -18.3902 N   0  0  0  0  0  0  0  0  0  0  0  0
   22.9165  -14.9561  -19.7040 C   0  0  0  0  0  0  0  0  0  0  0  0
   22.2249  -14.0301  -20.4642 C   0  0  0  0  0  0  0  0  0  0  0  0
   22.4497  -13.9818  -21.8219 C   0  0  0  0  0  0  0  0  0  0  0  0
   23.3476  -14.8286  -22.4719 C   0  0  0  0  0  0  0  0  0  0  0  0
   24.0253  -15.7429  -21.7006 C   0  0  0  0  0  0  0  0  0  0  0  0
   23.7996  -15.7892  -20.3457 C   0  0  0  0  0  0  0  0  0  0  0  0
   24.0323  -19.4919  -18.8398 C   0  0  0  0  0  0  0  0  0  0  0  0
   23.8785  -20.2071  -19.9365 O   0  0  0  0  0  0  0  0  0  0  0  0
   17.0443  -24.5174  -18.4379 O   0  0  0  0  0  0  0  0  0  0  0  0
   18.1835  -23.7723  -18.1942 C   0  0  0  0  0  0  0  0  0  0  0  0
   19.1065  -23.6275  -19.2038 C   0  0  0  0  0  0  0  0  0  0  0  0
   20.2504  -22.8921  -18.9893 C   0  0  0  0  0  0  0  0  0  0  0  0
   20.5264  -22.2780  -17.7850 C   0  0  0  0  0  0  0  0  0  0  0  0
   21.7527  -21.5040  -17.6220 C   0  0  0  0  0  0  0  0  0  0  0  0
   21.7097  -20.1743  -18.3102 C   0  0  2  0  0  0  0  0  0  0  0  0
   22.9904  -19.5216  -17.9442 N   0  0  0  0  0  0  0  0  0  0  0  0
   20.5708  -19.3467  -17.8716 C   0  0  0  0  0  0  0  0  0  0  0  0
   20.5913  -18.2695  -17.0320 O   0  0  0  0  0  0  0  0  0  0  0  0
   19.6016  -22.4249  -16.7776 C   0  0  0  0  0  0  0  0  0  0  0  0
   18.4475  -23.1609  -16.9822 C   0  0  0  0  0  0  0  0  0  0  0  0
   19.4059  -19.6685  -18.3262 O   0  0  0  0  0  0  0  0  0  0  0  0
  2  1  1  0
  3  2  1  0
  4  3  1  0
  5  4  1  0
  5  6  1  1
  7  8  2  0
  7  5  1  0
  9  7  1  0
 10  9  1  0
 10 21  1  0
 10 11  1  6
 12 11  1  0
 13 12  2  0
 14 15  1  0
 14 13  1  0
 15 20  2  0
 16 17  2  0
 16 15  1  0
 17 18  1  0
 18 19  2  0
 20 19  1  0
 20 12  1  0
 21 30  1  0
 22 21  2  0
 23 24  1  0
 24 25  2  0
 24 34  1  0
 25 26  1  0
 26 27  2  0
 27 28  1  0
 29 28  1  1
 29 31  1  0
 30 29  1  0
 31 35  2  0
 31 32  1  0
 33 27  1  0
 34 33  2  0
M  END
$$$$
