MWY.pdb
     RDKit          3D

 35 37  0  0  1  0  0  0  0  0999 V2000
   29.7845  -24.6777  -20.5775 C   0  0  0  0  0  0  0  0  0  0  0  0
   28.7970  -24.3864  -19.0670 S   0  0  0  0  0  0  0  0  0  0  0  0
   29.8228  -23.4414  -17.9135 C   0  0  0  0  0  0  0  0  0  0  0  0
   29.0133  -23.2981  -16.6358 C   0  0  0  0  0  0  0  0  0  0  0  0
   27.7069  -22.5671  -16.9375 C   0  0  2  0  0  0  0  0  0  0  0  0
   28.0242  -21.1994  -17.3839 N   0  0  0  0  0  0  0  0  0  0  0  0
   26.9919  -22.4422  -15.6431 C   0  0  0  0  0  0  0  0  0  0  0  0
   26.7448  -23.4788  -14.9813 O   0  0  0  0  0  0  0  0  0  0  0  0
   26.5929  -21.1847  -15.1442 N   0  0  0  0  0  0  0  0  0  0  0  0
   25.9628  -21.2368  -13.7623 C   0  0  1  0  0  0  0  0  0  0  0  0
   26.5892  -20.0773  -13.0843 C   0  0  0  0  0  0  0  0  0  0  0  0
   27.5572  -20.4588  -12.0575 C   0  0  0  0  0  0  0  0  0  0  0  0
   28.9265  -20.6248  -12.1935 C   0  0  0  0  0  0  0  0  0  0  0  0
   29.4136  -20.8986  -10.9950 N   0  0  0  0  0  0  0  0  0  0  0  0
   28.4257  -20.9183  -10.0832 C   0  0  0  0  0  0  0  0  0  0  0  0
   28.3944  -21.1286   -8.7163 C   0  0  0  0  0  0  0  0  0  0  0  0
   27.1870  -21.0539   -8.0585 C   0  0  0  0  0  0  0  0  0  0  0  0
   25.9853  -20.7749   -8.7096 C   0  0  0  0  0  0  0  0  0  0  0  0
   26.0356  -20.5695  -10.0680 C   0  0  0  0  0  0  0  0  0  0  0  0
   27.2417  -20.6443  -10.7225 C   0  0  0  0  0  0  0  0  0  0  0  0
   24.5379  -21.1532  -13.9798 C   0  0  0  0  0  0  0  0  0  0  0  0
   24.1869  -20.3595  -14.9722 O   0  0  0  0  0  0  0  0  0  0  0  0
   15.8382  -22.3514  -14.4971 O   0  0  0  0  0  0  0  0  0  0  0  0
   17.1785  -22.4300  -14.1660 C   0  0  0  0  0  0  0  0  0  0  0  0
   18.0774  -22.8089  -15.1360 C   0  0  0  0  0  0  0  0  0  0  0  0
   19.4177  -22.8967  -14.8347 C   0  0  0  0  0  0  0  0  0  0  0  0
   19.9191  -22.6181  -13.5798 C   0  0  0  0  0  0  0  0  0  0  0  0
   21.3522  -22.7208  -13.3247 C   0  0  0  0  0  0  0  0  0  0  0  0
   22.1024  -21.4647  -13.6454 C   0  0  2  0  0  0  0  0  0  0  0  0
   23.5131  -21.7743  -13.3072 N   0  0  0  0  0  0  0  0  0  0  0  0
   21.6310  -20.3082  -12.8614 C   0  0  0  0  0  0  0  0  0  0  0  0
   20.7004  -19.3750  -13.2204 O   0  0  0  0  0  0  0  0  0  0  0  0
   19.0178  -22.2399  -12.6123 C   0  0  0  0  0  0  0  0  0  0  0  0
   17.6681  -22.1469  -12.9040 C   0  0  0  0  0  0  0  0  0  0  0  0
   22.1541  -20.1430  -11.6924 O   0  0  0  0  0  0  0  0  0  0  0  0
  2  1  1  0
  3  2  1  0
  4  3  1  0
  5  4  1  0
  5  6  1  1
  7  8  2  0
  7  5  1  0
  9  7  1  0
 10  9  1  0
 10 21  1  0
 10 11  1  1
 12 11  1  0
 13 12  2  0
 14 15  1  0
 14 13  1  0
 15 20  2  0
 16 17  2  0
 16 15  1  0
 17 18  1  0
 18 19  2  0
 20 19  1  0
 20 12  1  0
 21 30  1  0
 22 21  2  0
 23 24  1  0
 24 25  2  0
 24 34  1  0
 25 26  1  0
 26 27  2  0
 27 28  1  0
 29 28  1  1
 29 31  1  0
 30 29  1  0
 31 35  2  0
 31 32  1  0
 33 27  1  0
 34 33  2  0
M  END
$$$$
