MWY.pdb
     RDKit          3D

 35 37  0  0  1  0  0  0  0  0999 V2000
   27.9883  -16.9035  -15.4741 C   0  0  0  0  0  0  0  0  0  0  0  0
   26.6278  -17.8957  -16.1858 S   0  0  0  0  0  0  0  0  0  0  0  0
   26.8920  -19.6190  -15.7002 C   0  0  0  0  0  0  0  0  0  0  0  0
   28.3272  -19.7131  -15.2108 C   0  0  0  0  0  0  0  0  0  0  0  0
   28.6070  -21.1306  -14.7165 C   0  0  2  0  0  0  0  0  0  0  0  0
   28.1090  -22.0870  -15.7205 N   0  0  0  0  0  0  0  0  0  0  0  0
   27.7804  -21.3167  -13.4980 C   0  0  0  0  0  0  0  0  0  0  0  0
   26.7013  -21.9503  -13.5851 O   0  0  0  0  0  0  0  0  0  0  0  0
   28.1878  -20.8012  -12.2500 N   0  0  0  0  0  0  0  0  0  0  0  0
   27.3206  -21.2434  -11.0830 C   0  0  1  0  0  0  0  0  0  0  0  0
   28.1668  -20.9070   -9.9137 C   0  0  0  0  0  0  0  0  0  0  0  0
   27.4055  -20.7280   -8.6787 C   0  0  0  0  0  0  0  0  0  0  0  0
   26.0768  -21.0426   -8.4407 C   0  0  0  0  0  0  0  0  0  0  0  0
   25.8296  -20.7822   -7.1680 N   0  0  0  0  0  0  0  0  0  0  0  0
   26.9356  -20.3130   -6.5644 C   0  0  0  0  0  0  0  0  0  0  0  0
   27.2200  -19.9180   -5.2695 C   0  0  0  0  0  0  0  0  0  0  0  0
   28.4962  -19.4996   -4.9659 C   0  0  0  0  0  0  0  0  0  0  0  0
   29.5232  -19.4542   -5.9088 C   0  0  0  0  0  0  0  0  0  0  0  0
   29.2221  -19.8496   -7.1906 C   0  0  0  0  0  0  0  0  0  0  0  0
   27.9477  -20.2670   -7.4914 C   0  0  0  0  0  0  0  0  0  0  0  0
   26.0878  -20.5028  -11.2103 C   0  0  0  0  0  0  0  0  0  0  0  0
   26.2477  -19.2384  -11.5479 O   0  0  0  0  0  0  0  0  0  0  0  0
   20.1470  -17.8457  -16.4967 O   0  0  0  0  0  0  0  0  0  0  0  0
   21.1090  -18.3744  -15.6555 C   0  0  0  0  0  0  0  0  0  0  0  0
   21.3841  -19.7201  -15.7300 C   0  0  0  0  0  0  0  0  0  0  0  0
   22.3361  -20.2740  -14.9042 C   0  0  0  0  0  0  0  0  0  0  0  0
   23.0459  -19.5318  -13.9827 C   0  0  0  0  0  0  0  0  0  0  0  0
   24.0493  -20.1754  -13.1411 C   0  0  0  0  0  0  0  0  0  0  0  0
   23.6750  -20.2057  -11.6911 C   0  0  2  0  0  0  0  0  0  0  0  0
   24.7922  -20.9243  -11.0308 N   0  0  0  0  0  0  0  0  0  0  0  0
   22.4017  -20.9091  -11.4499 C   0  0  0  0  0  0  0  0  0  0  0  0
   22.2193  -22.1566  -10.9242 O   0  0  0  0  0  0  0  0  0  0  0  0
   22.7682  -18.1867  -13.9105 C   0  0  0  0  0  0  0  0  0  0  0  0
   21.8141  -17.6187  -14.7367 C   0  0  0  0  0  0  0  0  0  0  0  0
   21.3190  -20.2835  -11.7719 O   0  0  0  0  0  0  0  0  0  0  0  0
  2  1  1  0
  3  2  1  0
  4  3  1  0
  5  4  1  0
  5  6  1  6
  7  8  2  0
  7  5  1  0
  9  7  1  0
 10  9  1  0
 10 21  1  0
 10 11  1  1
 12 11  1  0
 13 12  2  0
 14 15  1  0
 14 13  1  0
 15 20  2  0
 16 17  2  0
 16 15  1  0
 17 18  1  0
 18 19  2  0
 20 19  1  0
 20 12  1  0
 21 30  1  0
 22 21  2  0
 23 24  1  0
 24 25  2  0
 24 34  1  0
 25 26  1  0
 26 27  2  0
 27 28  1  0
 29 28  1  6
 29 31  1  0
 30 29  1  0
 31 35  2  0
 31 32  1  0
 33 27  1  0
 34 33  2  0
M  END
$$$$
