MWY.pdb
     RDKit          3D

 35 37  0  0  1  0  0  0  0  0999 V2000
   32.0452  -35.1393  -17.5238 C   0  0  0  0  0  0  0  0  0  0  0  0
   30.4101  -34.8839  -16.7473 S   0  0  0  0  0  0  0  0  0  0  0  0
   30.4318  -33.2641  -15.9402 C   0  0  0  0  0  0  0  0  0  0  0  0
   29.0193  -33.0136  -15.4398 C   0  0  0  0  0  0  0  0  0  0  0  0
   28.1447  -32.5343  -16.5963 C   0  0  2  0  0  0  0  0  0  0  0  0
   28.5538  -31.1669  -16.9615 N   0  0  0  0  0  0  0  0  0  0  0  0
   26.7632  -32.4419  -16.0621 C   0  0  0  0  0  0  0  0  0  0  0  0
   26.3791  -31.3630  -15.5503 O   0  0  0  0  0  0  0  0  0  0  0  0
   25.8781  -33.5382  -16.1248 N   0  0  0  0  0  0  0  0  0  0  0  0
   24.5017  -33.2585  -15.5445 C   0  0  1  0  0  0  0  0  0  0  0  0
   23.6364  -34.1740  -16.3252 C   0  0  0  0  0  0  0  0  0  0  0  0
   23.1494  -33.5889  -17.5732 C   0  0  0  0  0  0  0  0  0  0  0  0
   23.4488  -32.3459  -18.1083 C   0  0  0  0  0  0  0  0  0  0  0  0
   22.8474  -32.2647  -19.2831 N   0  0  0  0  0  0  0  0  0  0  0  0
   22.1702  -33.3974  -19.5398 C   0  0  0  0  0  0  0  0  0  0  0  0
   21.4071  -33.8301  -20.6095 C   0  0  0  0  0  0  0  0  0  0  0  0
   20.8559  -35.0912  -20.5675 C   0  0  0  0  0  0  0  0  0  0  0  0
   21.0311  -35.9594  -19.4898 C   0  0  0  0  0  0  0  0  0  0  0  0
   21.7917  -35.5122  -18.4355 C   0  0  0  0  0  0  0  0  0  0  0  0
   22.3411  -34.2532  -18.4795 C   0  0  0  0  0  0  0  0  0  0  0  0
   24.6102  -33.5358  -14.1317 C   0  0  0  0  0  0  0  0  0  0  0  0
   25.3353  -34.5981  -13.8422 O   0  0  0  0  0  0  0  0  0  0  0  0
   26.0582  -32.9157   -5.5331 O   0  0  0  0  0  0  0  0  0  0  0  0
   25.8927  -32.8102   -6.9020 C   0  0  0  0  0  0  0  0  0  0  0  0
   25.0383  -31.8501   -7.3921 C   0  0  0  0  0  0  0  0  0  0  0  0
   24.8533  -31.7229   -8.7502 C   0  0  0  0  0  0  0  0  0  0  0  0
   25.4956  -32.5282   -9.6683 C   0  0  0  0  0  0  0  0  0  0  0  0
   25.2646  -32.3384  -11.0966 C   0  0  0  0  0  0  0  0  0  0  0  0
   24.3111  -33.3354  -11.6799 C   0  0  2  0  0  0  0  0  0  0  0  0
   24.0714  -32.8588  -13.0641 N   0  0  0  0  0  0  0  0  0  0  0  0
   23.0397  -33.4048  -10.9362 C   0  0  0  0  0  0  0  0  0  0  0  0
   22.7638  -34.1323   -9.8135 O   0  0  0  0  0  0  0  0  0  0  0  0
   26.3489  -33.4874   -9.1750 C   0  0  0  0  0  0  0  0  0  0  0  0
   26.5436  -33.6235   -7.8116 C   0  0  0  0  0  0  0  0  0  0  0  0
   22.0581  -32.6997  -11.3907 O   0  0  0  0  0  0  0  0  0  0  0  0
  2  1  1  0
  3  2  1  0
  4  3  1  0
  5  4  1  0
  5  6  1  1
  7  8  2  0
  7  5  1  0
  9  7  1  0
 10  9  1  0
 10 21  1  0
 10 11  1  6
 12 11  1  0
 13 12  2  0
 14 15  1  0
 14 13  1  0
 15 20  2  0
 16 17  2  0
 16 15  1  0
 17 18  1  0
 18 19  2  0
 20 19  1  0
 20 12  1  0
 21 30  1  0
 22 21  2  0
 23 24  1  0
 24 25  2  0
 24 34  1  0
 25 26  1  0
 26 27  2  0
 27 28  1  0
 29 28  1  1
 29 31  1  0
 30 29  1  0
 31 35  2  0
 31 32  1  0
 33 27  1  0
 34 33  2  0
M  END
$$$$
