MWY.pdb
     RDKit          3D

 35 37  0  0  1  0  0  0  0  0999 V2000
   32.8875  -25.9896  -19.9435 C   0  0  0  0  0  0  0  0  0  0  0  0
   32.1364  -24.6808  -18.9116 S   0  0  0  0  0  0  0  0  0  0  0  0
   31.6399  -23.3314  -20.0108 C   0  0  0  0  0  0  0  0  0  0  0  0
   30.9873  -22.2781  -19.1316 C   0  0  0  0  0  0  0  0  0  0  0  0
   29.8611  -22.9154  -18.3207 C   0  0  2  0  0  0  0  0  0  0  0  0
   28.8220  -23.3919  -19.2502 N   0  0  0  0  0  0  0  0  0  0  0  0
   29.2546  -21.8222  -17.5211 C   0  0  0  0  0  0  0  0  0  0  0  0
   29.9823  -21.1622  -16.7410 O   0  0  0  0  0  0  0  0  0  0  0  0
   27.8831  -21.5105  -17.6269 N   0  0  0  0  0  0  0  0  0  0  0  0
   27.4639  -20.2800  -16.8399 C   0  0  1  0  0  0  0  0  0  0  0  0
   26.6463  -19.5357  -17.8268 C   0  0  0  0  0  0  0  0  0  0  0  0
   27.0878  -18.1561  -18.0236 C   0  0  0  0  0  0  0  0  0  0  0  0
   28.3753  -17.6503  -17.9370 C   0  0  0  0  0  0  0  0  0  0  0  0
   28.3211  -16.3699  -18.2629 N   0  0  0  0  0  0  0  0  0  0  0  0
   27.0579  -16.0169  -18.5588 C   0  0  0  0  0  0  0  0  0  0  0  0
   26.4702  -14.8339  -18.9696 C   0  0  0  0  0  0  0  0  0  0  0  0
   25.1160  -14.8143  -19.2186 C   0  0  0  0  0  0  0  0  0  0  0  0
   24.3027  -15.9384  -19.0748 C   0  0  0  0  0  0  0  0  0  0  0  0
   24.9039  -17.1049  -18.6651 C   0  0  0  0  0  0  0  0  0  0  0  0
   26.2556  -17.1224  -18.4173 C   0  0  0  0  0  0  0  0  0  0  0  0
   26.7632  -20.7785  -15.6800 C   0  0  0  0  0  0  0  0  0  0  0  0
   26.1921  -21.9537  -15.8557 O   0  0  0  0  0  0  0  0  0  0  0  0
   22.4167  -21.3983   -7.9948 O   0  0  0  0  0  0  0  0  0  0  0  0
   23.3266  -21.1083   -8.9950 C   0  0  0  0  0  0  0  0  0  0  0  0
   22.9386  -20.2779  -10.0206 C   0  0  0  0  0  0  0  0  0  0  0  0
   23.8231  -19.9726  -11.0303 C   0  0  0  0  0  0  0  0  0  0  0  0
   25.1101  -20.4686  -11.0685 C   0  0  0  0  0  0  0  0  0  0  0  0
   26.0041  -20.1010  -12.1617 C   0  0  0  0  0  0  0  0  0  0  0  0
   25.7137  -20.8328  -13.4359 C   0  0  2  0  0  0  0  0  0  0  0  0
   26.6101  -20.2082  -14.4392 N   0  0  0  0  0  0  0  0  0  0  0  0
   24.3064  -20.7012  -13.8560 C   0  0  0  0  0  0  0  0  0  0  0  0
   23.3046  -21.6214  -13.7316 O   0  0  0  0  0  0  0  0  0  0  0  0
   25.4949  -21.2988  -10.0417 C   0  0  0  0  0  0  0  0  0  0  0  0
   24.6145  -21.6115   -9.0207 C   0  0  0  0  0  0  0  0  0  0  0  0
   23.9650  -19.5874  -14.4129 O   0  0  0  0  0  0  0  0  0  0  0  0
  2  1  1  0
  3  2  1  0
  4  3  1  0
  5  4  1  0
  5  6  1  6
  7  8  2  0
  7  5  1  0
  9  7  1  0
 10  9  1  0
 10 21  1  0
 10 11  1  6
 12 11  1  0
 13 12  2  0
 14 15  1  0
 14 13  1  0
 15 20  2  0
 16 17  2  0
 16 15  1  0
 17 18  1  0
 18 19  2  0
 20 19  1  0
 20 12  1  0
 21 30  1  0
 22 21  2  0
 23 24  1  0
 24 25  2  0
 24 34  1  0
 25 26  1  0
 26 27  2  0
 27 28  1  0
 29 28  1  1
 29 31  1  0
 30 29  1  0
 31 35  2  0
 31 32  1  0
 33 27  1  0
 34 33  2  0
M  END
$$$$
