MWY.pdb
     RDKit          3D

 35 37  0  0  1  0  0  0  0  0999 V2000
   25.9240  -17.6144  -17.2390 C   0  0  0  0  0  0  0  0  0  0  0  0
   27.3881  -17.2916  -16.1929 S   0  0  0  0  0  0  0  0  0  0  0  0
   28.1251  -18.8897  -15.7706 C   0  0  0  0  0  0  0  0  0  0  0  0
   27.3711  -19.4039  -14.5560 C   0  0  0  0  0  0  0  0  0  0  0  0
   27.9695  -20.7359  -14.1089 C   0  0  2  0  0  0  0  0  0  0  0  0
   27.6244  -21.7656  -15.1044 N   0  0  0  0  0  0  0  0  0  0  0  0
   27.2730  -21.1031  -12.8510 C   0  0  0  0  0  0  0  0  0  0  0  0
   26.2715  -21.8565  -12.9069 O   0  0  0  0  0  0  0  0  0  0  0  0
   27.7186  -20.6270  -11.6003 N   0  0  0  0  0  0  0  0  0  0  0  0
   26.8928  -21.1135  -10.4211 C   0  0  1  0  0  0  0  0  0  0  0  0
   27.8241  -20.9270   -9.2834 C   0  0  0  0  0  0  0  0  0  0  0  0
   27.1481  -20.8192   -7.9917 C   0  0  0  0  0  0  0  0  0  0  0  0
   25.8743  -21.2496   -7.6552 C   0  0  0  0  0  0  0  0  0  0  0  0
   25.7048  -21.0158   -6.3649 N   0  0  0  0  0  0  0  0  0  0  0  0
   26.8092  -20.4534   -5.8435 C   0  0  0  0  0  0  0  0  0  0  0  0
   27.1576  -20.0391   -4.5705 C   0  0  0  0  0  0  0  0  0  0  0  0
   28.4123  -19.5116   -4.3619 C   0  0  0  0  0  0  0  0  0  0  0  0
   29.3553  -19.3735   -5.3805 C   0  0  0  0  0  0  0  0  0  0  0  0
   28.9912  -19.7898   -6.6392 C   0  0  0  0  0  0  0  0  0  0  0  0
   27.7385  -20.3162   -6.8451 C   0  0  0  0  0  0  0  0  0  0  0  0
   25.7047  -20.2931  -10.4117 C   0  0  0  0  0  0  0  0  0  0  0  0
   25.9409  -18.9969  -10.4570 O   0  0  0  0  0  0  0  0  0  0  0  0
   20.6817  -17.7385  -16.5600 O   0  0  0  0  0  0  0  0  0  0  0  0
   21.4567  -18.3639  -15.6005 C   0  0  0  0  0  0  0  0  0  0  0  0
   22.4723  -17.6525  -15.0051 C   0  0  0  0  0  0  0  0  0  0  0  0
   23.2605  -18.2498  -14.0474 C   0  0  0  0  0  0  0  0  0  0  0  0
   23.0809  -19.5569  -13.6439 C   0  0  0  0  0  0  0  0  0  0  0  0
   23.9440  -20.1312  -12.6169 C   0  0  0  0  0  0  0  0  0  0  0  0
   23.3850  -20.0019  -11.2333 C   0  0  2  0  0  0  0  0  0  0  0  0
   24.3836  -20.6684  -10.3622 N   0  0  0  0  0  0  0  0  0  0  0  0
   22.0689  -20.6516  -11.0916 C   0  0  0  0  0  0  0  0  0  0  0  0
   21.8036  -21.9816  -10.9283 O   0  0  0  0  0  0  0  0  0  0  0  0
   22.0648  -20.2655  -14.2414 C   0  0  0  0  0  0  0  0  0  0  0  0
   21.2652  -19.6750  -15.2044 C   0  0  0  0  0  0  0  0  0  0  0  0
   21.0317  -19.8833  -11.1267 O   0  0  0  0  0  0  0  0  0  0  0  0
  2  1  1  0
  3  2  1  0
  4  3  1  0
  5  4  1  0
  5  6  1  6
  7  8  2  0
  7  5  1  0
  9  7  1  0
 10  9  1  0
 10 21  1  0
 10 11  1  1
 12 11  1  0
 13 12  2  0
 14 15  1  0
 14 13  1  0
 15 20  2  0
 16 17  2  0
 16 15  1  0
 17 18  1  0
 18 19  2  0
 20 19  1  0
 20 12  1  0
 21 30  1  0
 22 21  2  0
 23 24  1  0
 24 25  2  0
 24 34  1  0
 25 26  1  0
 26 27  2  0
 27 28  1  0
 29 28  1  6
 29 31  1  0
 30 29  1  0
 31 35  2  0
 31 32  1  0
 33 27  1  0
 34 33  2  0
M  END
$$$$
