YVL.pdb
     RDKit          3D

 28 28  0  0  1  0  0  0  0  0999 V2000
    4.4717  -24.3580   25.9910 O   0  0  0  0  0  0  0  0  0  0  0  0
    5.0605  -23.1324   25.6675 C   0  0  0  0  0  0  0  0  0  0  0  0
    6.3053  -22.7786   26.1417 C   0  0  0  0  0  0  0  0  0  0  0  0
    6.8843  -21.5687   25.8211 C   0  0  0  0  0  0  0  0  0  0  0  0
    6.2439  -20.6494   25.0070 C   0  0  0  0  0  0  0  0  0  0  0  0
    6.8840  -19.3427   24.6741 C   0  0  0  0  0  0  0  0  0  0  0  0
    6.9735  -19.1481   23.1749 C   0  0  2  0  0  0  0  0  0  0  0  0
    7.5923  -20.2600   22.5189 N   0  0  0  0  0  0  0  0  0  0  0  0
    7.6554  -17.9049   22.8070 C   0  0  0  0  0  0  0  0  0  0  0  0
    8.8890  -17.9265   22.5732 O   0  0  0  0  0  0  0  0  0  0  0  0
    4.9983  -21.0119   24.5370 C   0  0  0  0  0  0  0  0  0  0  0  0
    4.4152  -22.2233   24.8562 C   0  0  0  0  0  0  0  0  0  0  0  0
    7.6816  -13.0995   21.6101 C   0  0  0  0  0  0  0  0  0  0  0  0
    6.8601  -14.3497   21.8297 C   0  0  1  0  0  0  0  0  0  0  0  0
    6.3197  -14.7992   20.5123 C   0  0  0  0  0  0  0  0  0  0  0  0
    7.7364  -15.4129   22.4873 C   0  0  2  0  0  0  0  0  0  0  0  0
    6.9851  -16.6320   22.6913 N   0  0  0  0  0  0  0  0  0  0  0  0
    8.4006  -14.8962   23.6922 C   0  0  0  0  0  0  0  0  0  0  0  0
    8.8681  -13.7153   23.6999 O   0  0  0  0  0  0  0  0  0  0  0  0
    6.2689  -11.8885   26.3084 C   0  0  0  0  0  0  0  0  0  0  0  0
    7.5396  -12.6852   26.0742 C   0  0  1  0  0  0  0  0  0  0  0  0
    8.5678  -12.1388   27.0612 C   0  0  0  0  0  0  0  0  0  0  0  0
    7.3685  -14.1348   26.3932 C   0  0  0  0  0  0  0  0  0  0  0  0
    8.6041  -14.9426   26.1857 C   0  0  2  0  0  0  0  0  0  0  0  0
    8.5624  -15.6430   24.8891 N   0  0  0  0  0  0  0  0  0  0  0  0
    8.9278  -15.8892   27.2731 C   0  0  0  0  0  0  0  0  0  0  0  0
    8.4545  -17.1844   27.3727 O   0  0  0  0  0  0  0  0  0  0  0  0
    9.6922  -15.5067   28.1897 O   0  0  0  0  0  0  0  0  0  0  0  0
  2  1  1  0
  3  2  2  0
  4  3  1  0
  5 11  1  0
  5  4  2  0
  6  7  1  0
  6  5  1  0
  7  8  1  6
  7  9  1  0
  9 10  2  0
 11 12  2  0
 12  2  1  0
 14 16  1  0
 14 13  1  6
 15 14  1  0
 17  9  1  0
 16 17  1  1
 18 16  1  0
 18 19  2  0
 21 20  1  1
 21 23  1  0
 21 22  1  0
 24 23  1  1
 24 26  1  0
 24 25  1  0
 25 18  1  0
 26 27  1  0
 28 26  2  0
M  END
$$$$
