YVL.pdb
     RDKit          3D

 28 28  0  0  1  0  0  0  0  0999 V2000
   12.4646  -23.4978   17.7780 O   0  0  0  0  0  0  0  0  0  0  0  0
   12.1733  -22.3209   18.4732 C   0  0  0  0  0  0  0  0  0  0  0  0
   11.4879  -21.2809   17.8830 C   0  0  0  0  0  0  0  0  0  0  0  0
   11.2016  -20.1206   18.5711 C   0  0  0  0  0  0  0  0  0  0  0  0
   11.5884  -19.9427   19.8890 C   0  0  0  0  0  0  0  0  0  0  0  0
   11.2736  -18.6781   20.6168 C   0  0  0  0  0  0  0  0  0  0  0  0
   10.4792  -17.7312   19.7415 C   0  0  2  0  0  0  0  0  0  0  0  0
   11.1236  -17.4805   18.4880 N   0  0  0  0  0  0  0  0  0  0  0  0
   10.1747  -16.4648   20.4118 C   0  0  0  0  0  0  0  0  0  0  0  0
   10.3463  -15.3853   19.7935 O   0  0  0  0  0  0  0  0  0  0  0  0
   12.2740  -20.9887   20.4717 C   0  0  0  0  0  0  0  0  0  0  0  0
   12.5625  -22.1528   19.7852 C   0  0  0  0  0  0  0  0  0  0  0  0
    6.7645  -14.0037   21.8732 C   0  0  0  0  0  0  0  0  0  0  0  0
    7.5817  -15.1799   21.3889 C   0  0  1  0  0  0  0  0  0  0  0  0
    7.8301  -15.0140   19.9258 C   0  0  0  0  0  0  0  0  0  0  0  0
    8.8792  -15.2492   22.1904 C   0  0  2  0  0  0  0  0  0  0  0  0
    9.6773  -16.3777   21.7639 N   0  0  0  0  0  0  0  0  0  0  0  0
    8.6246  -15.1934   23.6367 C   0  0  0  0  0  0  0  0  0  0  0  0
    7.5413  -15.6610   24.1070 O   0  0  0  0  0  0  0  0  0  0  0  0
    6.2161  -11.3793   26.0811 C   0  0  0  0  0  0  0  0  0  0  0  0
    7.5799  -11.9552   26.4166 C   0  0  1  0  0  0  0  0  0  0  0  0
    7.3542  -12.9290   27.5702 C   0  0  0  0  0  0  0  0  0  0  0  0
    8.1531  -12.7521   25.2901 C   0  0  0  0  0  0  0  0  0  0  0  0
    9.0098  -13.8875   25.7361 C   0  0  2  0  0  0  0  0  0  0  0  0
    9.5303  -14.6391   24.5795 N   0  0  0  0  0  0  0  0  0  0  0  0
    8.3820  -14.8065   26.7080 C   0  0  0  0  0  0  0  0  0  0  0  0
    8.8744  -15.0969   27.9668 O   0  0  0  0  0  0  0  0  0  0  0  0
    7.3154  -15.3797   26.3846 O   0  0  0  0  0  0  0  0  0  0  0  0
  2  1  1  0
  3  2  2  0
  4  3  1  0
  5 11  1  0
  5  4  2  0
  6  7  1  0
  6  5  1  0
  7  8  1  6
  7  9  1  0
  9 10  2  0
 11 12  2  0
 12  2  1  0
 14 16  1  0
 14 13  1  1
 15 14  1  0
 17  9  1  0
 16 17  1  1
 18 16  1  0
 18 19  2  0
 21 20  1  6
 21 23  1  0
 21 22  1  0
 24 23  1  6
 24 26  1  0
 24 25  1  0
 25 18  1  0
 26 27  1  0
 28 26  2  0
M  END
$$$$
