YVL.pdb
     RDKit          3D

 28 28  0  0  1  0  0  0  0  0999 V2000
    7.9262  -12.6503   15.1462 O   0  0  0  0  0  0  0  0  0  0  0  0
    7.8641  -13.1383   16.4545 C   0  0  0  0  0  0  0  0  0  0  0  0
    8.9693  -13.6702   17.0830 C   0  0  0  0  0  0  0  0  0  0  0  0
    8.9056  -14.1509   18.3740 C   0  0  0  0  0  0  0  0  0  0  0  0
    7.7281  -14.1232   19.1028 C   0  0  0  0  0  0  0  0  0  0  0  0
    7.6767  -14.6521   20.4977 C   0  0  0  0  0  0  0  0  0  0  0  0
    7.7918  -16.1621   20.5104 C   0  0  2  0  0  0  0  0  0  0  0  0
    6.6300  -16.7999   19.9691 N   0  0  0  0  0  0  0  0  0  0  0  0
    8.0816  -16.6946   21.8439 C   0  0  0  0  0  0  0  0  0  0  0  0
    7.1384  -16.8690   22.6545 O   0  0  0  0  0  0  0  0  0  0  0  0
    6.6270  -13.5891   18.4656 C   0  0  0  0  0  0  0  0  0  0  0  0
    6.6873  -13.1064   17.1722 C   0  0  0  0  0  0  0  0  0  0  0  0
   11.1623  -18.5098   25.2761 C   0  0  0  0  0  0  0  0  0  0  0  0
   10.9511  -18.1620   23.8199 C   0  0  1  0  0  0  0  0  0  0  0  0
   10.9054  -19.4295   23.0318 C   0  0  0  0  0  0  0  0  0  0  0  0
    9.6655  -17.3503   23.6826 C   0  0  2  0  0  0  0  0  0  0  0  0
    9.4088  -17.0409   22.2931 N   0  0  0  0  0  0  0  0  0  0  0  0
    9.6640  -16.1849   24.5778 C   0  0  0  0  0  0  0  0  0  0  0  0
   10.4904  -15.2394   24.3871 O   0  0  0  0  0  0  0  0  0  0  0  0
    8.5134  -11.7985   27.0271 C   0  0  0  0  0  0  0  0  0  0  0  0
    7.6709  -12.9381   27.5709 C   0  0  1  0  0  0  0  0  0  0  0  0
    6.2459  -12.3999   27.6682 C   0  0  0  0  0  0  0  0  0  0  0  0
    7.6247  -14.1054   26.6394 C   0  0  0  0  0  0  0  0  0  0  0  0
    8.9084  -14.8591   26.5610 C   0  0  2  0  0  0  0  0  0  0  0  0
    8.7767  -16.0307   25.6758 N   0  0  0  0  0  0  0  0  0  0  0  0
    9.4853  -15.2577   27.8616 C   0  0  0  0  0  0  0  0  0  0  0  0
   10.3571  -14.4954   28.6168 O   0  0  0  0  0  0  0  0  0  0  0  0
    9.1715  -16.3742   28.3369 O   0  0  0  0  0  0  0  0  0  0  0  0
  2  1  1  0
  3  2  2  0
  4  3  1  0
  5 11  1  0
  5  4  2  0
  6  7  1  0
  6  5  1  0
  7  8  1  1
  7  9  1  0
  9 10  2  0
 11 12  2  0
 12  2  1  0
 14 16  1  0
 14 13  1  1
 15 14  1  0
 17  9  1  0
 16 17  1  6
 18 16  1  0
 18 19  2  0
 21 20  1  6
 21 23  1  0
 21 22  1  0
 24 23  1  1
 24 26  1  0
 24 25  1  0
 25 18  1  0
 26 27  1  0
 28 26  2  0
M  END
$$$$
