YVL.pdb
     RDKit          3D

 28 28  0  0  1  0  0  0  0  0999 V2000
    8.0149  -13.2960   14.7082 O   0  0  0  0  0  0  0  0  0  0  0  0
    8.0695  -13.6740   16.0527 C   0  0  0  0  0  0  0  0  0  0  0  0
    7.3053  -13.0473   17.0135 C   0  0  0  0  0  0  0  0  0  0  0  0
    7.3608  -13.4220   18.3395 C   0  0  0  0  0  0  0  0  0  0  0  0
    8.1869  -14.4464   18.7715 C   0  0  0  0  0  0  0  0  0  0  0  0
    8.2372  -14.8356   20.2116 C   0  0  0  0  0  0  0  0  0  0  0  0
    8.2399  -16.3420   20.3673 C   0  0  2  0  0  0  0  0  0  0  0  0
    7.0277  -16.9390   19.8945 N   0  0  0  0  0  0  0  0  0  0  0  0
    8.5052  -16.7665   21.7440 C   0  0  0  0  0  0  0  0  0  0  0  0
    7.5399  -16.9726   22.5204 O   0  0  0  0  0  0  0  0  0  0  0  0
    8.9481  -15.0678   17.8030 C   0  0  0  0  0  0  0  0  0  0  0  0
    8.8950  -14.6950   16.4734 C   0  0  0  0  0  0  0  0  0  0  0  0
   11.5196  -18.3300   25.3450 C   0  0  0  0  0  0  0  0  0  0  0  0
   11.3683  -17.9804   23.8819 C   0  0  1  0  0  0  0  0  0  0  0  0
   11.4660  -19.2373   23.0817 C   0  0  0  0  0  0  0  0  0  0  0  0
   10.0346  -17.2668   23.6752 C   0  0  2  0  0  0  0  0  0  0  0  0
    9.8321  -16.9694   22.2742 N   0  0  0  0  0  0  0  0  0  0  0  0
    9.8962  -16.1100   24.5710 C   0  0  0  0  0  0  0  0  0  0  0  0
   10.6569  -15.1032   24.4266 O   0  0  0  0  0  0  0  0  0  0  0  0
    8.5394  -11.8513   27.1375 C   0  0  0  0  0  0  0  0  0  0  0  0
    7.6280  -13.0106   27.4975 C   0  0  1  0  0  0  0  0  0  0  0  0
    6.2047  -12.4622   27.4382 C   0  0  0  0  0  0  0  0  0  0  0  0
    7.7003  -14.1213   26.5007 C   0  0  0  0  0  0  0  0  0  0  0  0
    8.9772  -14.8888   26.5523 C   0  0  2  0  0  0  0  0  0  0  0  0
    8.9422  -16.0302   25.6199 N   0  0  0  0  0  0  0  0  0  0  0  0
    9.3897  -15.3355   27.8990 C   0  0  0  0  0  0  0  0  0  0  0  0
   10.1550  -14.6006   28.7854 O   0  0  0  0  0  0  0  0  0  0  0  0
    9.0268  -16.4699   28.2889 O   0  0  0  0  0  0  0  0  0  0  0  0
  2  1  1  0
  3  2  2  0
  4  3  1  0
  5 11  1  0
  5  4  2  0
  6  7  1  0
  6  5  1  0
  7  8  1  1
  7  9  1  0
  9 10  2  0
 11 12  2  0
 12  2  1  0
 14 16  1  0
 14 13  1  1
 15 14  1  0
 17  9  1  0
 16 17  1  6
 18 16  1  0
 18 19  2  0
 21 20  1  6
 21 23  1  0
 21 22  1  0
 24 23  1  1
 24 26  1  0
 24 25  1  0
 25 18  1  0
 26 27  1  0
 28 26  2  0
M  END
$$$$
