YVL.pdb
     RDKit          3D

 28 28  0  0  1  0  0  0  0  0999 V2000
    6.2450  -10.6853   26.3280 O   0  0  0  0  0  0  0  0  0  0  0  0
    6.2565  -12.0829   26.3381 C   0  0  0  0  0  0  0  0  0  0  0  0
    5.1285  -12.8149   26.6403 C   0  0  0  0  0  0  0  0  0  0  0  0
    5.1423  -14.1939   26.6496 C   0  0  0  0  0  0  0  0  0  0  0  0
    6.2900  -14.9114   26.3559 C   0  0  0  0  0  0  0  0  0  0  0  0
    6.2875  -16.4040   26.3751 C   0  0  0  0  0  0  0  0  0  0  0  0
    6.2263  -16.9650   24.9697 C   0  0  2  0  0  0  0  0  0  0  0  0
    5.6727  -18.2848   24.9354 N   0  0  0  0  0  0  0  0  0  0  0  0
    7.5283  -16.9490   24.2987 C   0  0  0  0  0  0  0  0  0  0  0  0
    8.3222  -17.9060   24.4745 O   0  0  0  0  0  0  0  0  0  0  0  0
    7.4142  -14.1704   26.0546 C   0  0  0  0  0  0  0  0  0  0  0  0
    7.4039  -12.7886   26.0443 C   0  0  0  0  0  0  0  0  0  0  0  0
   10.6697  -15.0934   20.9504 C   0  0  0  0  0  0  0  0  0  0  0  0
    9.3645  -14.8962   21.6875 C   0  0  1  0  0  0  0  0  0  0  0  0
    8.2425  -15.0545   20.7151 C   0  0  0  0  0  0  0  0  0  0  0  0
    9.2819  -15.9023   22.8328 C   0  0  2  0  0  0  0  0  0  0  0  0
    7.9640  -15.8829   23.4288 N   0  0  0  0  0  0  0  0  0  0  0  0
   10.3859  -15.7269   23.7869 C   0  0  0  0  0  0  0  0  0  0  0  0
   11.2109  -14.7738   23.6317 O   0  0  0  0  0  0  0  0  0  0  0  0
   10.3567  -14.3386   28.5638 C   0  0  0  0  0  0  0  0  0  0  0  0
   10.7537  -14.7061   27.1455 C   0  0  1  0  0  0  0  0  0  0  0  0
   11.6859  -13.5959   26.6675 C   0  0  0  0  0  0  0  0  0  0  0  0
   11.5366  -15.9773   27.0858 C   0  0  0  0  0  0  0  0  0  0  0  0
   11.8420  -16.4269   25.6977 C   0  0  2  0  0  0  0  0  0  0  0  0
   10.6055  -16.5706   24.9078 N   0  0  0  0  0  0  0  0  0  0  0  0
   12.6627  -17.6515   25.5983 C   0  0  0  0  0  0  0  0  0  0  0  0
   12.2833  -18.8186   24.9615 O   0  0  0  0  0  0  0  0  0  0  0  0
   13.7986  -17.6535   26.1278 O   0  0  0  0  0  0  0  0  0  0  0  0
  2  1  1  0
  3  2  2  0
  4  3  1  0
  5 11  1  0
  5  4  2  0
  6  7  1  0
  6  5  1  0
  7  8  1  1
  7  9  1  0
  9 10  2  0
 11 12  2  0
 12  2  1  0
 14 16  1  0
 14 13  1  6
 15 14  1  0
 17  9  1  0
 16 17  1  1
 18 16  1  0
 18 19  2  0
 21 20  1  1
 21 23  1  0
 21 22  1  0
 24 23  1  1
 24 26  1  0
 24 25  1  0
 25 18  1  0
 26 27  1  0
 28 26  2  0
M  END
$$$$
