YVL.pdb
     RDKit          3D

 28 28  0  0  1  0  0  0  0  0999 V2000
   11.2033  -24.8012   22.0574 O   0  0  0  0  0  0  0  0  0  0  0  0
   11.0927  -23.4126   22.1714 C   0  0  0  0  0  0  0  0  0  0  0  0
    9.8711  -22.7763   22.1235 C   0  0  0  0  0  0  0  0  0  0  0  0
    9.7645  -21.4060   22.2363 C   0  0  0  0  0  0  0  0  0  0  0  0
   10.8795  -20.6014   22.4032 C   0  0  0  0  0  0  0  0  0  0  0  0
   10.7454  -19.1193   22.5191 C   0  0  0  0  0  0  0  0  0  0  0  0
   10.3141  -18.5084   21.2021 C   0  0  2  0  0  0  0  0  0  0  0  0
   11.2671  -18.7383   20.1588 N   0  0  0  0  0  0  0  0  0  0  0  0
   10.0255  -17.0765   21.3120 C   0  0  0  0  0  0  0  0  0  0  0  0
   10.9712  -16.2524   21.2514 O   0  0  0  0  0  0  0  0  0  0  0  0
   12.0980  -21.2469   22.4499 C   0  0  0  0  0  0  0  0  0  0  0  0
   12.2084  -22.6197   22.3373 C   0  0  0  0  0  0  0  0  0  0  0  0
    7.2926  -13.0940   20.9746 C   0  0  0  0  0  0  0  0  0  0  0  0
    7.4078  -14.5894   20.7836 C   0  0  1  0  0  0  0  0  0  0  0  0
    7.7151  -14.8615   19.3479 C   0  0  0  0  0  0  0  0  0  0  0  0
    8.4881  -15.1294   21.7175 C   0  0  2  0  0  0  0  0  0  0  0  0
    8.6962  -16.5421   21.4863 N   0  0  0  0  0  0  0  0  0  0  0  0
    8.2195  -14.7731   23.1177 C   0  0  0  0  0  0  0  0  0  0  0  0
    7.1999  -15.2485   23.7073 O   0  0  0  0  0  0  0  0  0  0  0  0
    7.8452  -11.7446   27.5733 C   0  0  0  0  0  0  0  0  0  0  0  0
    6.9077  -12.5791   26.7196 C   0  0  1  0  0  0  0  0  0  0  0  0
    5.6231  -11.7656   26.5853 C   0  0  0  0  0  0  0  0  0  0  0  0
    7.4308  -12.7843   25.3352 C   0  0  0  0  0  0  0  0  0  0  0  0
    8.6760  -13.6022   25.2815 C   0  0  2  0  0  0  0  0  0  0  0  0
    9.0432  -13.9094   23.8872 N   0  0  0  0  0  0  0  0  0  0  0  0
    8.6542  -14.8367   26.0931 C   0  0  0  0  0  0  0  0  0  0  0  0
    9.6847  -15.2806   26.9010 O   0  0  0  0  0  0  0  0  0  0  0  0
    7.6272  -15.5544   26.0607 O   0  0  0  0  0  0  0  0  0  0  0  0
  2  1  1  0
  3  2  2  0
  4  3  1  0
  5 11  1  0
  5  4  2  0
  6  7  1  0
  6  5  1  0
  7  8  1  6
  7  9  1  0
  9 10  2  0
 11 12  2  0
 12  2  1  0
 14 16  1  0
 14 13  1  6
 15 14  1  0
 17  9  1  0
 16 17  1  1
 18 16  1  0
 18 19  2  0
 21 20  1  1
 21 23  1  0
 21 22  1  0
 24 23  1  6
 24 26  1  0
 24 25  1  0
 25 18  1  0
 26 27  1  0
 28 26  2  0
M  END
$$$$
