YVL.pdb
     RDKit          3D

 28 28  0  0  1  0  0  0  0  0999 V2000
    7.5017  -19.8378   29.4253 O   0  0  0  0  0  0  0  0  0  0  0  0
    7.4962  -19.9752   28.0344 C   0  0  0  0  0  0  0  0  0  0  0  0
    8.5194  -19.4831   27.2532 C   0  0  0  0  0  0  0  0  0  0  0  0
    8.5117  -19.6200   25.8809 C   0  0  0  0  0  0  0  0  0  0  0  0
    7.4756  -20.2586   25.2199 C   0  0  0  0  0  0  0  0  0  0  0  0
    7.4819  -20.3936   23.7334 C   0  0  0  0  0  0  0  0  0  0  0  0
    6.5151  -19.4179   23.0954 C   0  0  2  0  0  0  0  0  0  0  0  0
    5.7648  -20.0138   22.0317 N   0  0  0  0  0  0  0  0  0  0  0  0
    7.1743  -18.1981   22.6228 C   0  0  0  0  0  0  0  0  0  0  0  0
    8.0678  -18.2830   21.7444 O   0  0  0  0  0  0  0  0  0  0  0  0
    6.4557  -20.7479   26.0098 C   0  0  0  0  0  0  0  0  0  0  0  0
    6.4602  -20.6126   27.3850 C   0  0  0  0  0  0  0  0  0  0  0  0
    7.7487  -13.4618   21.8236 C   0  0  0  0  0  0  0  0  0  0  0  0
    6.8592  -14.6507   22.1084 C   0  0  1  0  0  0  0  0  0  0  0  0
    6.2578  -15.1117   20.8217 C   0  0  0  0  0  0  0  0  0  0  0  0
    7.6867  -15.7422   22.7825 C   0  0  2  0  0  0  0  0  0  0  0  0
    6.8536  -16.8782   23.1108 N   0  0  0  0  0  0  0  0  0  0  0  0
    8.4664  -15.2111   23.9093 C   0  0  0  0  0  0  0  0  0  0  0  0
    7.9924  -14.2707   24.6193 O   0  0  0  0  0  0  0  0  0  0  0  0
    9.0960  -13.5847   28.6919 C   0  0  0  0  0  0  0  0  0  0  0  0
   10.1186  -14.1580   27.7278 C   0  0  1  0  0  0  0  0  0  0  0  0
   10.8238  -15.2829   28.4808 C   0  0  0  0  0  0  0  0  0  0  0  0
    9.4820  -14.7800   26.5276 C   0  0  0  0  0  0  0  0  0  0  0  0
   10.4461  -15.0957   25.4354 C   0  0  2  0  0  0  0  0  0  0  0  0
    9.7525  -15.6879   24.2771 N   0  0  0  0  0  0  0  0  0  0  0  0
   11.5954  -15.9350   25.8326 C   0  0  0  0  0  0  0  0  0  0  0  0
   11.5909  -17.3159   25.9016 O   0  0  0  0  0  0  0  0  0  0  0  0
   12.6717  -15.3688   26.1356 O   0  0  0  0  0  0  0  0  0  0  0  0
  2  1  1  0
  3  2  2  0
  4  3  1  0
  5 11  1  0
  5  4  2  0
  6  7  1  0
  6  5  1  0
  7  8  1  6
  7  9  1  0
  9 10  2  0
 11 12  2  0
 12  2  1  0
 14 16  1  0
 14 13  1  6
 15 14  1  0
 17  9  1  0
 16 17  1  1
 18 16  1  0
 18 19  2  0
 21 20  1  1
 21 23  1  0
 21 22  1  0
 24 23  1  1
 24 26  1  0
 24 25  1  0
 25 18  1  0
 26 27  1  0
 28 26  2  0
M  END
$$$$
