YVL.pdb
     RDKit          3D

 28 28  0  0  1  0  0  0  0  0999 V2000
    8.6593  -13.7511   14.6670 O   0  0  0  0  0  0  0  0  0  0  0  0
    8.3793  -13.9818   16.0167 C   0  0  0  0  0  0  0  0  0  0  0  0
    9.0019  -14.9872   16.7247 C   0  0  0  0  0  0  0  0  0  0  0  0
    8.7239  -15.2129   18.0565 C   0  0  0  0  0  0  0  0  0  0  0  0
    7.8056  -14.4408   18.7484 C   0  0  0  0  0  0  0  0  0  0  0  0
    7.5141  -14.7025   20.1888 C   0  0  0  0  0  0  0  0  0  0  0  0
    7.0166  -16.1182   20.3937 C   0  0  2  0  0  0  0  0  0  0  0  0
    5.7553  -16.3482   19.7566 N   0  0  0  0  0  0  0  0  0  0  0  0
    6.9397  -16.4899   21.8085 C   0  0  0  0  0  0  0  0  0  0  0  0
    5.8962  -16.2291   22.4568 O   0  0  0  0  0  0  0  0  0  0  0  0
    7.1872  -13.4370   18.0318 C   0  0  0  0  0  0  0  0  0  0  0  0
    7.4634  -13.2080   16.6974 C   0  0  0  0  0  0  0  0  0  0  0  0
    8.1681  -19.0208   25.7756 C   0  0  0  0  0  0  0  0  0  0  0  0
    8.1907  -18.8400   24.2747 C   0  0  1  0  0  0  0  0  0  0  0  0
    7.1683  -19.7466   23.6727 C   0  0  0  0  0  0  0  0  0  0  0  0
    7.9265  -17.3729   23.9453 C   0  0  2  0  0  0  0  0  0  0  0  0
    8.0077  -17.1526   22.5180 N   0  0  0  0  0  0  0  0  0  0  0  0
    8.7699  -16.4780   24.7500 C   0  0  0  0  0  0  0  0  0  0  0  0
   10.0280  -16.4676   24.5754 O   0  0  0  0  0  0  0  0  0  0  0  0
    7.5508  -11.7229   27.8306 C   0  0  0  0  0  0  0  0  0  0  0  0
    7.4242  -12.9313   26.9208 C   0  0  1  0  0  0  0  0  0  0  0  0
    6.3955  -12.5533   25.8584 C   0  0  0  0  0  0  0  0  0  0  0  0
    8.6958  -13.2332   26.1966 C   0  0  0  0  0  0  0  0  0  0  0  0
    9.1760  -14.6313   26.3889 C   0  0  2  0  0  0  0  0  0  0  0  0
    8.2666  -15.5932   25.7401 N   0  0  0  0  0  0  0  0  0  0  0  0
    9.4269  -15.0239   27.7911 C   0  0  0  0  0  0  0  0  0  0  0  0
    8.7682  -16.0331   28.4687 O   0  0  0  0  0  0  0  0  0  0  0  0
   10.3044  -14.4043   28.4367 O   0  0  0  0  0  0  0  0  0  0  0  0
  2  1  1  0
  3  2  2  0
  4  3  1  0
  5 11  1  0
  5  4  2  0
  6  7  1  0
  6  5  1  0
  7  8  1  1
  7  9  1  0
  9 10  2  0
 11 12  2  0
 12  2  1  0
 14 16  1  0
 14 13  1  1
 15 14  1  0
 17  9  1  0
 16 17  1  6
 18 16  1  0
 18 19  2  0
 21 20  1  1
 21 23  1  0
 21 22  1  0
 24 23  1  1
 24 26  1  0
 24 25  1  0
 25 18  1  0
 26 27  1  0
 28 26  2  0
M  END
$$$$
