YVL.pdb
     RDKit          3D

 28 28  0  0  1  0  0  0  0  0999 V2000
    6.5202  -23.5457   29.1765 O   0  0  0  0  0  0  0  0  0  0  0  0
    6.8233  -22.4125   28.4167 C   0  0  0  0  0  0  0  0  0  0  0  0
    5.8656  -21.7660   27.6654 C   0  0  0  0  0  0  0  0  0  0  0  0
    6.1671  -20.6479   26.9165 C   0  0  0  0  0  0  0  0  0  0  0  0
    7.4468  -20.1193   26.8821 C   0  0  0  0  0  0  0  0  0  0  0  0
    7.7558  -18.9109   26.0622 C   0  0  0  0  0  0  0  0  0  0  0  0
    7.6216  -19.2091   24.5835 C   0  0  2  0  0  0  0  0  0  0  0  0
    8.2891  -20.4194   24.2107 N   0  0  0  0  0  0  0  0  0  0  0  0
    8.0808  -18.1023   23.7408 C   0  0  0  0  0  0  0  0  0  0  0  0
    9.2498  -18.1227   23.2825 O   0  0  0  0  0  0  0  0  0  0  0  0
    8.3989  -20.7729   27.6370 C   0  0  0  0  0  0  0  0  0  0  0  0
    8.1003  -21.8934   28.3886 C   0  0  0  0  0  0  0  0  0  0  0  0
    7.3385  -13.6479   21.6415 C   0  0  0  0  0  0  0  0  0  0  0  0
    6.7239  -14.9255   22.1669 C   0  0  1  0  0  0  0  0  0  0  0  0
    5.9960  -15.5961   21.0487 C   0  0  0  0  0  0  0  0  0  0  0  0
    7.8267  -15.8068   22.7482 C   0  0  2  0  0  0  0  0  0  0  0  0
    7.2572  -16.9687   23.3948 N   0  0  0  0  0  0  0  0  0  0  0  0
    8.7509  -15.0323   23.5883 C   0  0  0  0  0  0  0  0  0  0  0  0
    9.1980  -13.9175   23.1756 O   0  0  0  0  0  0  0  0  0  0  0  0
    7.7414  -12.0596   27.3286 C   0  0  0  0  0  0  0  0  0  0  0  0
    7.1059  -13.4380   27.3124 C   0  0  1  0  0  0  0  0  0  0  0  0
    5.5988  -13.2067   27.2410 C   0  0  0  0  0  0  0  0  0  0  0  0
    7.4767  -14.2205   26.0948 C   0  0  0  0  0  0  0  0  0  0  0  0
    8.9150  -14.6098   26.0492 C   0  0  2  0  0  0  0  0  0  0  0  0
    9.1948  -15.4504   24.8708 N   0  0  0  0  0  0  0  0  0  0  0  0
    9.4329  -15.2517   27.2752 C   0  0  0  0  0  0  0  0  0  0  0  0
    9.0559  -16.4954   27.7469 O   0  0  0  0  0  0  0  0  0  0  0  0
   10.2844  -14.6353   27.9576 O   0  0  0  0  0  0  0  0  0  0  0  0
  2  1  1  0
  3  2  2  0
  4  3  1  0
  5 11  1  0
  5  4  2  0
  6  7  1  0
  6  5  1  0
  7  8  1  6
  7  9  1  0
  9 10  2  0
 11 12  2  0
 12  2  1  0
 14 16  1  0
 14 13  1  6
 15 14  1  0
 17  9  1  0
 16 17  1  1
 18 16  1  0
 18 19  2  0
 21 20  1  6
 21 23  1  0
 21 22  1  0
 24 23  1  1
 24 26  1  0
 24 25  1  0
 25 18  1  0
 26 27  1  0
 28 26  2  0
M  END
$$$$
