YVL.pdb
     RDKit          3D

 28 28  0  0  1  0  0  0  0  0999 V2000
   12.3564  -23.8707   19.0631 O   0  0  0  0  0  0  0  0  0  0  0  0
   12.0804  -22.6668   19.7172 C   0  0  0  0  0  0  0  0  0  0  0  0
   13.0721  -21.9293   20.3273 C   0  0  0  0  0  0  0  0  0  0  0  0
   12.7973  -20.7417   20.9721 C   0  0  0  0  0  0  0  0  0  0  0  0
   11.5115  -20.2312   21.0386 C   0  0  0  0  0  0  0  0  0  0  0  0
   11.2320  -18.9461   21.7446 C   0  0  0  0  0  0  0  0  0  0  0  0
   11.1292  -17.7980   20.7623 C   0  0  2  0  0  0  0  0  0  0  0  0
   12.3786  -17.5172   20.1223 N   0  0  0  0  0  0  0  0  0  0  0  0
   10.5927  -16.5793   21.3730 C   0  0  0  0  0  0  0  0  0  0  0  0
   11.3690  -15.8066   21.9873 O   0  0  0  0  0  0  0  0  0  0  0  0
   10.5253  -20.9760   20.4252 C   0  0  0  0  0  0  0  0  0  0  0  0
   10.7971  -22.1664   19.7783 C   0  0  0  0  0  0  0  0  0  0  0  0
    7.1318  -13.1273   21.9266 C   0  0  0  0  0  0  0  0  0  0  0  0
    7.5243  -14.4262   21.2597 C   0  0  1  0  0  0  0  0  0  0  0  0
    7.8292  -14.1488   19.8245 C   0  0  0  0  0  0  0  0  0  0  0  0
    8.7190  -15.0246   21.9983 C   0  0  2  0  0  0  0  0  0  0  0  0
    9.2011  -16.2017   21.3097 N   0  0  0  0  0  0  0  0  0  0  0  0
    8.4261  -15.2283   23.4239 C   0  0  0  0  0  0  0  0  0  0  0  0
    7.8856  -16.3108   23.8105 O   0  0  0  0  0  0  0  0  0  0  0  0
    6.3697  -11.3006   26.3512 C   0  0  0  0  0  0  0  0  0  0  0  0
    7.5376  -12.1992   25.9870 C   0  0  1  0  0  0  0  0  0  0  0  0
    8.6961  -11.7689   26.8830 C   0  0  0  0  0  0  0  0  0  0  0  0
    7.2677  -13.6357   26.2970 C   0  0  0  0  0  0  0  0  0  0  0  0
    8.3421  -14.5595   25.8337 C   0  0  2  0  0  0  0  0  0  0  0  0
    8.7135  -14.2744   24.4358 N   0  0  0  0  0  0  0  0  0  0  0  0
    8.0541  -15.9982   26.0076 C   0  0  0  0  0  0  0  0  0  0  0  0
    8.4650  -16.7722   27.0770 O   0  0  0  0  0  0  0  0  0  0  0  0
    7.3839  -16.5838   25.1251 O   0  0  0  0  0  0  0  0  0  0  0  0
  2  1  1  0
  3  2  2  0
  4  3  1  0
  5 11  1  0
  5  4  2  0
  6  7  1  0
  6  5  1  0
  7  8  1  1
  7  9  1  0
  9 10  2  0
 11 12  2  0
 12  2  1  0
 14 16  1  0
 14 13  1  1
 15 14  1  0
 17  9  1  0
 16 17  1  6
 18 16  1  0
 18 19  2  0
 21 20  1  1
 21 23  1  0
 21 22  1  0
 24 23  1  6
 24 26  1  0
 24 25  1  0
 25 18  1  0
 26 27  1  0
 28 26  2  0
M  END
$$$$
