WNG.pdb
     RDKit          3D

 27 28  0  0  1  0  0  0  0  0999 V2000
    6.5148  -17.5807   23.6035 N   0  0  0  0  0  0  0  0  0  0  0  0
    7.1208  -16.2880   23.2547 C   0  0  1  0  0  0  0  0  0  0  0  0
    8.0009  -15.9121   24.4533 C   0  0  0  0  0  0  0  0  0  0  0  0
    7.2088  -15.0859   25.4073 C   0  0  0  0  0  0  0  0  0  0  0  0
    6.1609  -15.5239   26.1599 C   0  0  0  0  0  0  0  0  0  0  0  0
    5.7316  -14.4697   26.8782 N   0  0  0  0  0  0  0  0  0  0  0  0
    6.4781  -13.3907   26.5971 C   0  0  0  0  0  0  0  0  0  0  0  0
    6.4554  -12.0968   27.0460 C   0  0  0  0  0  0  0  0  0  0  0  0
    7.3602  -11.1821   26.5739 C   0  0  0  0  0  0  0  0  0  0  0  0
    8.3130  -11.5422   25.6374 C   0  0  0  0  0  0  0  0  0  0  0  0
    8.3491  -12.8285   25.1798 C   0  0  0  0  0  0  0  0  0  0  0  0
    7.4321  -13.7527   25.6593 C   0  0  0  0  0  0  0  0  0  0  0  0
    7.9990  -16.4513   22.0563 C   0  0  0  0  0  0  0  0  0  0  0  0
    8.2355  -17.5971   21.6342 O   0  0  0  0  0  0  0  0  0  0  0  0
    7.2267  -12.7531   18.6656 N   0  0  0  0  0  0  0  0  0  0  0  0
    7.9053  -14.0329   18.6836 C   0  0  0  0  0  0  0  0  0  0  0  0
    7.2730  -14.9448   18.1027 O   0  0  0  0  0  0  0  0  0  0  0  0
    9.2156  -14.1765   19.3422 C   0  0  0  0  0  0  0  0  0  0  0  0
    9.2895  -15.4193   20.1366 C   0  0  2  0  0  0  0  0  0  0  0  0
    8.5657  -15.3522   21.3917 N   0  0  0  0  0  0  0  0  0  0  0  0
   10.6921  -15.7580   20.4494 C   0  0  0  0  0  0  0  0  0  0  0  0
   11.6135  -15.9318   19.6287 O   0  0  0  0  0  0  0  0  0  0  0  0
   11.0981  -15.9175   21.8353 N   0  0  0  0  0  0  0  0  0  0  0  0
   12.4467  -16.3235   22.1539 C   0  0  0  0  0  0  0  0  0  0  0  0
   12.7107  -16.2123   23.6041 C   0  0  0  0  0  0  0  0  0  0  0  0
   13.9395  -15.9191   24.1554 O   0  0  0  0  0  0  0  0  0  0  0  0
   11.7546  -16.3967   24.3973 O   0  0  0  0  0  0  0  0  0  0  0  0
  2  1  1  1
  2 13  1  0
  3  2  1  0
  3  4  1  0
  4 12  1  0
  4  5  2  0
  5  6  1  0
  7  8  2  0
  7  6  1  0
  9  8  1  0
 10  9  2  0
 11 10  1  0
 11 12  2  0
 12  7  1  0
 13 20  1  0
 13 14  2  0
 15 16  1  0
 16 18  1  0
 17 16  2  0
 19 18  1  1
 19 21  1  0
 20 19  1  0
 21 22  2  0
 23 24  1  0
 23 21  1  0
 25 26  1  0
 25 24  1  0
 27 25  2  0
M  END
$$$$
