WNG.pdb
     RDKit          3D

 27 28  0  0  1  0  0  0  0  0999 V2000
    7.3884  -16.7441   22.9862 N   0  0  0  0  0  0  0  0  0  0  0  0
    8.4927  -15.7941   23.1811 C   0  0  1  0  0  0  0  0  0  0  0  0
    8.7568  -15.7781   24.6919 C   0  0  0  0  0  0  0  0  0  0  0  0
    7.6001  -15.1480   25.3884 C   0  0  0  0  0  0  0  0  0  0  0  0
    6.6273  -15.8103   26.0750 C   0  0  0  0  0  0  0  0  0  0  0  0
    5.7797  -14.8762   26.5450 N   0  0  0  0  0  0  0  0  0  0  0  0
    6.1935  -13.6551   26.1732 C   0  0  0  0  0  0  0  0  0  0  0  0
    5.6980  -12.3961   26.3869 C   0  0  0  0  0  0  0  0  0  0  0  0
    6.3428  -11.3002   25.8755 C   0  0  0  0  0  0  0  0  0  0  0  0
    7.5035  -11.4391   25.1351 C   0  0  0  0  0  0  0  0  0  0  0  0
    8.0105  -12.6876   24.9132 C   0  0  0  0  0  0  0  0  0  0  0  0
    7.3560  -13.7955   25.4320 C   0  0  0  0  0  0  0  0  0  0  0  0
    9.7189  -16.3003   22.4923 C   0  0  0  0  0  0  0  0  0  0  0  0
    9.9362  -17.5248   22.4714 O   0  0  0  0  0  0  0  0  0  0  0  0
   11.0010  -13.1067   19.2620 N   0  0  0  0  0  0  0  0  0  0  0  0
   11.5684  -14.4389   19.3083 C   0  0  0  0  0  0  0  0  0  0  0  0
   11.1969  -15.1760   18.3663 O   0  0  0  0  0  0  0  0  0  0  0  0
   12.4903  -14.8229   20.3918 C   0  0  0  0  0  0  0  0  0  0  0  0
   11.8928  -15.8447   21.2750 C   0  0  2  0  0  0  0  0  0  0  0  0
   10.6335  -15.4374   21.8681 N   0  0  0  0  0  0  0  0  0  0  0  0
   12.8137  -16.1871   22.3771 C   0  0  0  0  0  0  0  0  0  0  0  0
   14.0092  -16.5208   22.2676 O   0  0  0  0  0  0  0  0  0  0  0  0
   12.3347  -16.1489   23.7482 N   0  0  0  0  0  0  0  0  0  0  0  0
   13.2300  -16.4577   24.8382 C   0  0  0  0  0  0  0  0  0  0  0  0
   13.1839  -17.8957   25.1777 C   0  0  0  0  0  0  0  0  0  0  0  0
   13.8497  -18.4707   26.2389 O   0  0  0  0  0  0  0  0  0  0  0  0
   12.4926  -18.6546   24.4543 O   0  0  0  0  0  0  0  0  0  0  0  0
  2  1  1  1
  2 13  1  0
  3  2  1  0
  3  4  1  0
  4 12  1  0
  4  5  2  0
  5  6  1  0
  7  8  2  0
  7  6  1  0
  9  8  1  0
 10  9  2  0
 11 10  1  0
 11 12  2  0
 12  7  1  0
 13 20  1  0
 13 14  2  0
 15 16  1  0
 16 18  1  0
 17 16  2  0
 19 18  1  1
 19 21  1  0
 20 19  1  0
 21 22  2  0
 23 24  1  0
 23 21  1  0
 25 26  1  0
 25 24  1  0
 27 25  2  0
M  END
$$$$
