WNG.pdb
     RDKit          3D

 27 28  0  0  1  0  0  0  0  0999 V2000
    7.1459  -17.7067   24.6429 N   0  0  0  0  0  0  0  0  0  0  0  0
    7.9694  -16.6659   24.0114 C   0  0  1  0  0  0  0  0  0  0  0  0
    8.4576  -15.7766   25.1618 C   0  0  0  0  0  0  0  0  0  0  0  0
    7.3138  -14.9813   25.6904 C   0  0  0  0  0  0  0  0  0  0  0  0
    6.1580  -15.4915   26.2005 C   0  0  0  0  0  0  0  0  0  0  0  0
    5.3966  -14.4417   26.5614 N   0  0  0  0  0  0  0  0  0  0  0  0
    6.0410  -13.2959   26.2925 C   0  0  0  0  0  0  0  0  0  0  0  0
    5.7120  -11.9773   26.4635 C   0  0  0  0  0  0  0  0  0  0  0  0
    6.5850  -10.9896   26.0885 C   0  0  0  0  0  0  0  0  0  0  0  0
    7.8130  -11.2996   25.5311 C   0  0  0  0  0  0  0  0  0  0  0  0
    8.1561  -12.6096   25.3541 C   0  0  0  0  0  0  0  0  0  0  0  0
    7.2707  -13.6077   25.7346 C   0  0  0  0  0  0  0  0  0  0  0  0
    9.1601  -17.2928   23.3607 C   0  0  0  0  0  0  0  0  0  0  0  0
    9.4842  -18.4494   23.6837 O   0  0  0  0  0  0  0  0  0  0  0  0
   11.1765  -18.7796   18.6862 N   0  0  0  0  0  0  0  0  0  0  0  0
   11.3106  -17.3711   18.9975 C   0  0  0  0  0  0  0  0  0  0  0  0
   12.2086  -16.7951   18.3415 O   0  0  0  0  0  0  0  0  0  0  0  0
   10.4378  -16.7401   20.0032 C   0  0  0  0  0  0  0  0  0  0  0  0
   10.7120  -17.2566   21.3593 C   0  0  2  0  0  0  0  0  0  0  0  0
    9.9246  -16.6175   22.3962 N   0  0  0  0  0  0  0  0  0  0  0  0
   12.1355  -17.0797   21.7088 C   0  0  0  0  0  0  0  0  0  0  0  0
   13.1060  -17.6540   21.1787 O   0  0  0  0  0  0  0  0  0  0  0  0
   12.5030  -16.1568   22.7691 N   0  0  0  0  0  0  0  0  0  0  0  0
   13.2253  -16.6314   23.9259 C   0  0  0  0  0  0  0  0  0  0  0  0
   14.6494  -16.2395   23.8656 C   0  0  0  0  0  0  0  0  0  0  0  0
   15.2347  -15.5787   22.8070 O   0  0  0  0  0  0  0  0  0  0  0  0
   15.3853  -16.5245   24.8425 O   0  0  0  0  0  0  0  0  0  0  0  0
  2  1  1  1
  2 13  1  0
  3  2  1  0
  3  4  1  0
  4 12  1  0
  4  5  2  0
  5  6  1  0
  7  8  2  0
  7  6  1  0
  9  8  1  0
 10  9  2  0
 11 10  1  0
 11 12  2  0
 12  7  1  0
 13 20  1  0
 13 14  2  0
 15 16  1  0
 16 18  1  0
 17 16  2  0
 19 18  1  6
 19 21  1  0
 20 19  1  0
 21 22  2  0
 23 24  1  0
 23 21  1  0
 25 26  1  0
 25 24  1  0
 27 25  2  0
M  END
$$$$
