WNG.pdb
     RDKit          3D

 27 28  0  0  1  0  0  0  0  0999 V2000
    6.6365  -17.9312   24.3902 N   0  0  0  0  0  0  0  0  0  0  0  0
    7.2578  -16.6511   24.0225 C   0  0  1  0  0  0  0  0  0  0  0  0
    7.9426  -16.1471   25.2991 C   0  0  0  0  0  0  0  0  0  0  0  0
    7.0601  -15.1535   25.9731 C   0  0  0  0  0  0  0  0  0  0  0  0
    5.9561  -15.4447   26.7165 C   0  0  0  0  0  0  0  0  0  0  0  0
    5.4528  -14.2703   27.1400 N   0  0  0  0  0  0  0  0  0  0  0  0
    6.2075  -13.2587   26.6844 C   0  0  0  0  0  0  0  0  0  0  0  0
    6.1297  -11.8984   26.8255 C   0  0  0  0  0  0  0  0  0  0  0  0
    7.0608  -11.0847   26.2347 C   0  0  0  0  0  0  0  0  0  0  0  0
    8.0961  -11.6154   25.4854 C   0  0  0  0  0  0  0  0  0  0  0  0
    8.1878  -12.9696   25.3352 C   0  0  0  0  0  0  0  0  0  0  0  0
    7.2440  -13.7914   25.9344 C   0  0  0  0  0  0  0  0  0  0  0  0
    8.3069  -16.8815   22.9830 C   0  0  0  0  0  0  0  0  0  0  0  0
    8.7525  -18.0314   22.8212 O   0  0  0  0  0  0  0  0  0  0  0  0
    6.9474  -14.1028   19.5974 N   0  0  0  0  0  0  0  0  0  0  0  0
    7.8439  -15.2376   19.5117 C   0  0  0  0  0  0  0  0  0  0  0  0
    7.2923  -16.2833   19.0984 O   0  0  0  0  0  0  0  0  0  0  0  0
    9.2612  -15.1026   19.8916 C   0  0  0  0  0  0  0  0  0  0  0  0
    9.6165  -16.0188   20.9940 C   0  0  2  0  0  0  0  0  0  0  0  0
    8.8055  -15.8410   22.1832 N   0  0  0  0  0  0  0  0  0  0  0  0
   11.0284  -15.8415   21.3876 C   0  0  0  0  0  0  0  0  0  0  0  0
   12.0213  -15.9101   20.6378 O   0  0  0  0  0  0  0  0  0  0  0  0
   11.3546  -15.5566   22.7745 N   0  0  0  0  0  0  0  0  0  0  0  0
   12.1000  -16.5152   23.5559 C   0  0  0  0  0  0  0  0  0  0  0  0
   13.4159  -16.7968   22.9443 C   0  0  0  0  0  0  0  0  0  0  0  0
   14.5560  -16.0540   23.1644 O   0  0  0  0  0  0  0  0  0  0  0  0
   13.5116  -17.7795   22.1681 O   0  0  0  0  0  0  0  0  0  0  0  0
  2  1  1  1
  2 13  1  0
  3  2  1  0
  3  4  1  0
  4 12  1  0
  4  5  2  0
  5  6  1  0
  7  8  2  0
  7  6  1  0
  9  8  1  0
 10  9  2  0
 11 10  1  0
 11 12  2  0
 12  7  1  0
 13 20  1  0
 13 14  2  0
 15 16  1  0
 16 18  1  0
 17 16  2  0
 19 18  1  6
 19 21  1  0
 20 19  1  0
 21 22  2  0
 23 24  1  0
 23 21  1  0
 25 26  1  0
 25 24  1  0
 27 25  2  0
M  END
$$$$
