WNG.pdb
     RDKit          3D

 27 28  0  0  1  0  0  0  0  0999 V2000
    6.5118  -17.7271   24.3341 N   0  0  0  0  0  0  0  0  0  0  0  0
    7.3154  -16.6531   23.7332 C   0  0  1  0  0  0  0  0  0  0  0  0
    8.0898  -16.0217   24.8969 C   0  0  0  0  0  0  0  0  0  0  0  0
    7.2136  -15.0422   25.5989 C   0  0  0  0  0  0  0  0  0  0  0  0
    6.1291  -15.3499   26.3642 C   0  0  0  0  0  0  0  0  0  0  0  0
    5.6247  -14.1839   26.8090 N   0  0  0  0  0  0  0  0  0  0  0  0
    6.3598  -13.1615   26.3456 C   0  0  0  0  0  0  0  0  0  0  0  0
    6.2728  -11.8033   26.5003 C   0  0  0  0  0  0  0  0  0  0  0  0
    7.1831  -10.9760   25.8962 C   0  0  0  0  0  0  0  0  0  0  0  0
    8.2062  -11.4905   25.1195 C   0  0  0  0  0  0  0  0  0  0  0  0
    8.3069  -12.8426   24.9554 C   0  0  0  0  0  0  0  0  0  0  0  0
    7.3842  -13.6782   25.5682 C   0  0  0  0  0  0  0  0  0  0  0  0
    8.2998  -17.2388   22.7729 C   0  0  0  0  0  0  0  0  0  0  0  0
    8.8248  -18.3339   23.0412 O   0  0  0  0  0  0  0  0  0  0  0  0
    7.9825  -18.1271   18.3833 N   0  0  0  0  0  0  0  0  0  0  0  0
    8.3561  -16.7403   18.5726 C   0  0  0  0  0  0  0  0  0  0  0  0
    7.5559  -15.9291   18.0527 O   0  0  0  0  0  0  0  0  0  0  0  0
    9.5776  -16.3889   19.3182 C   0  0  0  0  0  0  0  0  0  0  0  0
    9.6314  -17.0755   20.6246 C   0  0  2  0  0  0  0  0  0  0  0  0
    8.6508  -16.5918   21.5775 N   0  0  0  0  0  0  0  0  0  0  0  0
   10.9641  -16.9232   21.2414 C   0  0  0  0  0  0  0  0  0  0  0  0
   11.3788  -15.9341   21.8759 O   0  0  0  0  0  0  0  0  0  0  0  0
   11.9317  -18.0014   21.1307 N   0  0  0  0  0  0  0  0  0  0  0  0
   13.1705  -17.9432   21.8703 C   0  0  0  0  0  0  0  0  0  0  0  0
   14.2494  -17.3388   21.0605 C   0  0  0  0  0  0  0  0  0  0  0  0
   14.1003  -16.8971   19.7634 O   0  0  0  0  0  0  0  0  0  0  0  0
   15.3851  -17.2152   21.5823 O   0  0  0  0  0  0  0  0  0  0  0  0
  2  1  1  1
  2 13  1  0
  3  2  1  0
  3  4  1  0
  4 12  1  0
  4  5  2  0
  5  6  1  0
  7  8  2  0
  7  6  1  0
  9  8  1  0
 10  9  2  0
 11 10  1  0
 11 12  2  0
 12  7  1  0
 13 20  1  0
 13 14  2  0
 15 16  1  0
 16 18  1  0
 17 16  2  0
 19 18  1  6
 19 21  1  0
 20 19  1  0
 21 22  2  0
 23 24  1  0
 23 21  1  0
 25 26  1  0
 25 24  1  0
 27 25  2  0
M  END
$$$$
