WNG.pdb
     RDKit          3D

 27 28  0  0  1  0  0  0  0  0999 V2000
    6.7161  -17.4352   25.1634 N   0  0  0  0  0  0  0  0  0  0  0  0
    7.5981  -17.2621   24.0006 C   0  0  1  0  0  0  0  0  0  0  0  0
    7.6728  -15.7483   23.7655 C   0  0  0  0  0  0  0  0  0  0  0  0
    6.9129  -15.0445   24.8367 C   0  0  0  0  0  0  0  0  0  0  0  0
    5.8755  -15.5653   25.5501 C   0  0  0  0  0  0  0  0  0  0  0  0
    5.4763  -14.6087   26.4089 N   0  0  0  0  0  0  0  0  0  0  0  0
    6.2314  -13.5105   26.2530 C   0  0  0  0  0  0  0  0  0  0  0  0
    6.2362  -12.2858   26.8664 C   0  0  0  0  0  0  0  0  0  0  0  0
    7.1432  -11.3274   26.4962 C   0  0  0  0  0  0  0  0  0  0  0  0
    8.0706  -11.5731   25.4990 C   0  0  0  0  0  0  0  0  0  0  0  0
    8.0790  -12.7893   24.8777 C   0  0  0  0  0  0  0  0  0  0  0  0
    7.1599  -13.7580   25.2543 C   0  0  0  0  0  0  0  0  0  0  0  0
    8.9691  -17.7572   24.3312 C   0  0  0  0  0  0  0  0  0  0  0  0
    9.2827  -17.9106   25.5250 O   0  0  0  0  0  0  0  0  0  0  0  0
   10.3082  -21.2561   21.4595 N   0  0  0  0  0  0  0  0  0  0  0  0
   11.0506  -20.7681   22.6038 C   0  0  0  0  0  0  0  0  0  0  0  0
   11.0228  -21.5423   23.5878 O   0  0  0  0  0  0  0  0  0  0  0  0
   11.7499  -19.4723   22.5455 C   0  0  0  0  0  0  0  0  0  0  0  0
   11.2576  -18.5437   23.5830 C   0  0  2  0  0  0  0  0  0  0  0  0
    9.9144  -18.0547   23.3369 N   0  0  0  0  0  0  0  0  0  0  0  0
   12.1447  -17.3692   23.6978 C   0  0  0  0  0  0  0  0  0  0  0  0
   12.8353  -17.0555   24.6865 O   0  0  0  0  0  0  0  0  0  0  0  0
   12.2656  -16.4511   22.5782 N   0  0  0  0  0  0  0  0  0  0  0  0
   13.1252  -15.2951   22.6776 C   0  0  0  0  0  0  0  0  0  0  0  0
   14.5469  -15.6707   22.5268 C   0  0  0  0  0  0  0  0  0  0  0  0
   15.4066  -15.1229   21.5990 O   0  0  0  0  0  0  0  0  0  0  0  0
   15.0131  -16.5498   23.2930 O   0  0  0  0  0  0  0  0  0  0  0  0
  2  1  1  1
  2 13  1  0
  3  2  1  0
  3  4  1  0
  4 12  1  0
  4  5  2  0
  5  6  1  0
  7  8  2  0
  7  6  1  0
  9  8  1  0
 10  9  2  0
 11 10  1  0
 11 12  2  0
 12  7  1  0
 13 20  1  0
 13 14  2  0
 15 16  1  0
 16 18  1  0
 17 16  2  0
 19 18  1  6
 19 21  1  0
 20 19  1  0
 21 22  2  0
 23 24  1  0
 23 21  1  0
 25 26  1  0
 25 24  1  0
 27 25  2  0
M  END
$$$$
