IGQ.pdb
     RDKit          3D

 22 21  0  0  1  0  0  0  0  0999 V2000
   14.4918  -12.1715  -16.4369 C   0  0  0  0  0  0  0  0  0  0  0  0
   15.7891  -11.4373  -16.3046 C   0  0  0  0  0  0  0  0  0  0  0  0
   15.9254  -10.7178  -14.9751 C   0  0  2  0  0  0  0  0  0  0  0  0
   14.9457   -9.5982  -14.8269 C   0  0  0  0  0  0  0  0  0  0  0  0
   17.3519  -10.1986  -14.9021 C   0  0  2  0  0  0  0  0  0  0  0  0
   18.2242  -11.2888  -15.2197 N   0  0  0  0  0  0  0  0  0  0  0  0
   17.6504   -9.5865  -13.5829 C   0  0  0  0  0  0  0  0  0  0  0  0
   17.7835  -10.4095  -12.6158 O   0  0  0  0  0  0  0  0  0  0  0  0
   17.7830   -8.1974  -13.3824 N   0  0  0  0  0  0  0  0  0  0  0  0
   18.0557   -7.6851  -12.0663 C   0  0  0  0  0  0  0  0  0  0  0  0
   16.8054   -7.0701  -11.5480 C   0  0  0  0  0  0  0  0  0  0  0  0
   15.8096   -6.8603  -12.2884 O   0  0  0  0  0  0  0  0  0  0  0  0
   13.6242   -9.2897   -8.2408 N   0  0  0  0  0  0  0  0  0  0  0  0
   13.9039   -8.0036   -7.7307 C   0  0  0  0  0  0  0  0  0  0  0  0
   12.9624   -7.3013   -7.3109 O   0  0  0  0  0  0  0  0  0  0  0  0
   15.2895   -7.4823   -7.6882 C   0  0  0  0  0  0  0  0  0  0  0  0
   15.3889   -6.0835   -8.2031 C   0  0  0  0  0  0  0  0  0  0  0  0
   15.4650   -5.9718   -9.7058 C   0  0  2  0  0  0  0  0  0  0  0  0
   16.6618   -6.6820  -10.1808 N   0  0  0  0  0  0  0  0  0  0  0  0
   15.5300   -4.5696  -10.1398 C   0  0  0  0  0  0  0  0  0  0  0  0
   14.4619   -3.6875  -10.1898 O   0  0  0  0  0  0  0  0  0  0  0  0
   16.6728   -4.1206  -10.5057 O   0  0  0  0  0  0  0  0  0  0  0  0
  2  1  1  0
  3  2  1  0
  3  5  1  0
  3  4  1  6
  5  6  1  1
  7  9  1  0
  7  5  1  0
  8  7  2  0
 10 11  1  0
 10  9  1  0
 11 19  1  0
 12 11  2  0
 14 13  1  0
 15 14  2  0
 16 14  1  0
 17 16  1  0
 18 17  1  1
 18 20  1  0
 19 18  1  0
 20 22  2  0
 20 21  1  0
M  END
$$$$
