IGQ.pdb
     RDKit          3D

 22 21  0  0  1  0  0  0  0  0999 V2000
   21.0164  -17.0754  -20.2160 C   0  0  0  0  0  0  0  0  0  0  0  0
   20.0119  -16.6969  -19.1733 C   0  0  0  0  0  0  0  0  0  0  0  0
   20.4224  -15.4709  -18.3781 C   0  0  2  0  0  0  0  0  0  0  0  0
   21.7052  -15.6722  -17.6371 C   0  0  0  0  0  0  0  0  0  0  0  0
   19.2852  -15.1723  -17.4151 C   0  0  2  0  0  0  0  0  0  0  0  0
   18.0839  -15.0642  -18.1869 N   0  0  0  0  0  0  0  0  0  0  0  0
   19.5564  -13.9630  -16.5977 C   0  0  0  0  0  0  0  0  0  0  0  0
   20.3610  -14.1323  -15.6209 O   0  0  0  0  0  0  0  0  0  0  0  0
   18.9801  -12.7031  -16.8583 N   0  0  0  0  0  0  0  0  0  0  0  0
   19.3667  -11.5610  -16.0741 C   0  0  0  0  0  0  0  0  0  0  0  0
   18.6058  -10.3857  -16.5738 C   0  0  0  0  0  0  0  0  0  0  0  0
   17.8812  -10.4488  -17.6008 O   0  0  0  0  0  0  0  0  0  0  0  0
   14.7673   -6.9530  -13.6321 N   0  0  0  0  0  0  0  0  0  0  0  0
   14.5137   -7.9804  -14.5663 C   0  0  0  0  0  0  0  0  0  0  0  0
   13.4075   -8.5564  -14.5467 O   0  0  0  0  0  0  0  0  0  0  0  0
   15.5360   -8.3793  -15.5608 C   0  0  0  0  0  0  0  0  0  0  0  0
   16.8133   -7.6211  -15.4017 C   0  0  0  0  0  0  0  0  0  0  0  0
   17.8793   -7.9685  -16.4113 C   0  0  2  0  0  0  0  0  0  0  0  0
   18.6528   -9.1176  -15.9178 N   0  0  0  0  0  0  0  0  0  0  0  0
   18.7880   -6.8383  -16.6468 C   0  0  0  0  0  0  0  0  0  0  0  0
   18.4827   -5.6891  -17.3592 O   0  0  0  0  0  0  0  0  0  0  0  0
   19.9671   -6.9201  -16.1522 O   0  0  0  0  0  0  0  0  0  0  0  0
  2  1  1  0
  3  2  1  0
  3  5  1  0
  3  4  1  1
  5  6  1  6
  7  9  1  0
  7  5  1  0
  8  7  2  0
 10 11  1  0
 10  9  1  0
 11 19  1  0
 12 11  2  0
 14 13  1  0
 15 14  2  0
 16 14  1  0
 17 16  1  0
 18 17  1  1
 18 20  1  0
 19 18  1  0
 20 22  2  0
 20 21  1  0
M  END
$$$$
