IGQ.pdb
     RDKit          3D

 22 21  0  0  1  0  0  0  0  0999 V2000
   21.0166  -30.1635  -12.8213 C   0  0  0  0  0  0  0  0  0  0  0  0
   22.1176  -30.8961  -12.1208 C   0  0  0  0  0  0  0  0  0  0  0  0
   21.8586  -31.0670  -10.6350 C   0  0  2  0  0  0  0  0  0  0  0  0
   21.8345  -29.7630   -9.9042 C   0  0  0  0  0  0  0  0  0  0  0  0
   22.9612  -31.9649  -10.0985 C   0  0  2  0  0  0  0  0  0  0  0  0
   22.9958  -33.1403  -10.9157 N   0  0  0  0  0  0  0  0  0  0  0  0
   22.7738  -32.2696   -8.6576 C   0  0  0  0  0  0  0  0  0  0  0  0
   23.0713  -31.3220   -7.8551 O   0  0  0  0  0  0  0  0  0  0  0  0
   22.3020  -33.5092   -8.1799 N   0  0  0  0  0  0  0  0  0  0  0  0
   22.0963  -33.7036   -6.7698 C   0  0  0  0  0  0  0  0  0  0  0  0
   23.3336  -34.3055   -6.2068 C   0  0  0  0  0  0  0  0  0  0  0  0
   24.2356  -34.7844   -6.9423 O   0  0  0  0  0  0  0  0  0  0  0  0
   28.4488  -33.2407   -4.9603 N   0  0  0  0  0  0  0  0  0  0  0  0
   27.6532  -33.1416   -3.7985 C   0  0  0  0  0  0  0  0  0  0  0  0
   28.2030  -33.2109   -2.6810 O   0  0  0  0  0  0  0  0  0  0  0  0
   26.1865  -32.9580   -3.8893 C   0  0  0  0  0  0  0  0  0  0  0  0
   25.4305  -34.0869   -3.2681 C   0  0  0  0  0  0  0  0  0  0  0  0
   24.7739  -35.0206   -4.2547 C   0  0  2  0  0  0  0  0  0  0  0  0
   23.5703  -34.3753   -4.7999 N   0  0  0  0  0  0  0  0  0  0  0  0
   24.3977  -36.2933   -3.6245 C   0  0  0  0  0  0  0  0  0  0  0  0
   23.1270  -36.6368   -3.1898 O   0  0  0  0  0  0  0  0  0  0  0  0
   25.3237  -37.1634   -3.4601 O   0  0  0  0  0  0  0  0  0  0  0  0
  2  1  1  0
  3  2  1  0
  3  5  1  0
  3  4  1  1
  5  6  1  6
  7  9  1  0
  7  5  1  0
  8  7  2  0
 10 11  1  0
 10  9  1  0
 11 19  1  0
 12 11  2  0
 14 13  1  0
 15 14  2  0
 16 14  1  0
 17 16  1  0
 18 17  1  1
 18 20  1  0
 19 18  1  0
 20 22  2  0
 20 21  1  0
M  END
$$$$
