IGQ.pdb
     RDKit          3D

 22 21  0  0  1  0  0  0  0  0999 V2000
   28.3713  -19.4537   -6.4570 C   0  0  0  0  0  0  0  0  0  0  0  0
   28.4447  -20.5548   -7.4677 C   0  0  0  0  0  0  0  0  0  0  0  0
   27.4622  -20.3717   -8.6101 C   0  0  2  0  0  0  0  0  0  0  0  0
   26.0414  -20.5393   -8.1758 C   0  0  0  0  0  0  0  0  0  0  0  0
   27.8262  -21.3984   -9.6699 C   0  0  2  0  0  0  0  0  0  0  0  0
   29.2468  -21.3535   -9.8436 N   0  0  0  0  0  0  0  0  0  0  0  0
   27.0830  -21.1737  -10.9353 C   0  0  0  0  0  0  0  0  0  0  0  0
   27.5165  -20.2173  -11.6617 O   0  0  0  0  0  0  0  0  0  0  0  0
   25.9729  -21.9465  -11.3328 N   0  0  0  0  0  0  0  0  0  0  0  0
   25.3400  -21.6950  -12.5996 C   0  0  0  0  0  0  0  0  0  0  0  0
   24.0191  -21.0672  -12.3332 C   0  0  0  0  0  0  0  0  0  0  0  0
   23.6931  -20.6622  -11.1870 O   0  0  0  0  0  0  0  0  0  0  0  0
   19.6123  -17.0509  -12.3818 N   0  0  0  0  0  0  0  0  0  0  0  0
   20.0766  -17.4041  -13.6671 C   0  0  0  0  0  0  0  0  0  0  0  0
   20.5723  -16.5208  -14.3951 O   0  0  0  0  0  0  0  0  0  0  0  0
   19.9832  -18.7983  -14.1577 C   0  0  0  0  0  0  0  0  0  0  0  0
   21.3217  -19.4490  -14.2861 C   0  0  0  0  0  0  0  0  0  0  0  0
   21.7435  -20.2591  -13.0851 C   0  0  2  0  0  0  0  0  0  0  0  0
   23.0440  -20.8872  -13.3614 N   0  0  0  0  0  0  0  0  0  0  0  0
   20.7598  -21.3026  -12.7660 C   0  0  0  0  0  0  0  0  0  0  0  0
   19.6114  -21.1284  -12.0095 O   0  0  0  0  0  0  0  0  0  0  0  0
   20.9810  -22.4781  -13.2252 O   0  0  0  0  0  0  0  0  0  0  0  0
  2  1  1  0
  3  2  1  0
  3  5  1  0
  3  4  1  1
  5  6  1  6
  7  9  1  0
  7  5  1  0
  8  7  2  0
 10 11  1  0
 10  9  1  0
 11 19  1  0
 12 11  2  0
 14 13  1  0
 15 14  2  0
 16 14  1  0
 17 16  1  0
 18 17  1  6
 18 20  1  0
 19 18  1  0
 20 22  2  0
 20 21  1  0
M  END
$$$$
