IGQ.pdb
     RDKit          3D

 22 21  0  0  1  0  0  0  0  0999 V2000
   18.7249  -14.1403  -17.9762 C   0  0  0  0  0  0  0  0  0  0  0  0
   17.7687  -13.1456  -17.3968 C   0  0  0  0  0  0  0  0  0  0  0  0
   18.3633  -12.3620  -16.2408 C   0  0  2  0  0  0  0  0  0  0  0  0
   18.7779  -13.2421  -15.1055 C   0  0  0  0  0  0  0  0  0  0  0  0
   17.3032  -11.3691  -15.7933 C   0  0  2  0  0  0  0  0  0  0  0  0
   17.0176  -10.5131  -16.9051 N   0  0  0  0  0  0  0  0  0  0  0  0
   17.7233  -10.6205  -14.5820 C   0  0  0  0  0  0  0  0  0  0  0  0
   17.7872  -11.3089  -13.5085 O   0  0  0  0  0  0  0  0  0  0  0  0
   18.0360   -9.2459  -14.5869 N   0  0  0  0  0  0  0  0  0  0  0  0
   18.4219   -8.5932  -13.3647 C   0  0  0  0  0  0  0  0  0  0  0  0
   17.2756   -7.7636  -12.9088 C   0  0  0  0  0  0  0  0  0  0  0  0
   16.4284   -7.2978  -13.7145 O   0  0  0  0  0  0  0  0  0  0  0  0
   15.2516   -7.1698   -6.8890 N   0  0  0  0  0  0  0  0  0  0  0  0
   14.4501   -6.2320   -7.5750 C   0  0  0  0  0  0  0  0  0  0  0  0
   13.5793   -5.6024   -6.9416 O   0  0  0  0  0  0  0  0  0  0  0  0
   14.6289   -5.9883   -9.0248 C   0  0  0  0  0  0  0  0  0  0  0  0
   15.7254   -6.8161   -9.6116 C   0  0  0  0  0  0  0  0  0  0  0  0
   15.9310   -6.6255  -11.0940 C   0  0  2  0  0  0  0  0  0  0  0  0
   17.0695   -7.4471  -11.5312 N   0  0  0  0  0  0  0  0  0  0  0  0
   16.1937   -5.2185  -11.4255 C   0  0  0  0  0  0  0  0  0  0  0  0
   15.2328   -4.2609  -11.7102 O   0  0  0  0  0  0  0  0  0  0  0  0
   17.4178   -4.8412  -11.4560 O   0  0  0  0  0  0  0  0  0  0  0  0
  2  1  1  0
  3  2  1  0
  3  5  1  0
  3  4  1  1
  5  6  1  6
  7  9  1  0
  7  5  1  0
  8  7  2  0
 10 11  1  0
 10  9  1  0
 11 19  1  0
 12 11  2  0
 14 13  1  0
 15 14  2  0
 16 14  1  0
 17 16  1  0
 18 17  1  1
 18 20  1  0
 19 18  1  0
 20 22  2  0
 20 21  1  0
M  END
$$$$
