IGQ.pdb
     RDKit          3D

 22 21  0  0  1  0  0  0  0  0999 V2000
   24.3852  -19.7827  -16.3922 C   0  0  0  0  0  0  0  0  0  0  0  0
   24.7618  -18.3821  -16.7608 C   0  0  0  0  0  0  0  0  0  0  0  0
   24.0310  -17.3393  -15.9348 C   0  0  2  0  0  0  0  0  0  0  0  0
   22.5449  -17.4653  -16.0384 C   0  0  0  0  0  0  0  0  0  0  0  0
   24.4926  -15.9808  -16.4362 C   0  0  2  0  0  0  0  0  0  0  0  0
   25.9220  -16.0135  -16.5155 N   0  0  0  0  0  0  0  0  0  0  0  0
   23.9874  -14.8759  -15.5830 C   0  0  0  0  0  0  0  0  0  0  0  0
   22.7340  -14.9011  -15.3410 O   0  0  0  0  0  0  0  0  0  0  0  0
   24.8107  -13.8568  -15.0624 N   0  0  0  0  0  0  0  0  0  0  0  0
   24.2246  -12.7594  -14.3406 C   0  0  0  0  0  0  0  0  0  0  0  0
   23.6383  -11.8212  -15.3336 C   0  0  0  0  0  0  0  0  0  0  0  0
   23.6905  -12.0432  -16.5713 O   0  0  0  0  0  0  0  0  0  0  0  0
   18.8120   -8.0003  -14.1132 N   0  0  0  0  0  0  0  0  0  0  0  0
   19.0854   -7.6954  -15.4641 C   0  0  0  0  0  0  0  0  0  0  0  0
   18.3321   -6.9081  -16.0711 O   0  0  0  0  0  0  0  0  0  0  0  0
   20.2457   -8.2937  -16.1635 C   0  0  0  0  0  0  0  0  0  0  0  0
   21.0432   -9.1947  -15.2781 C   0  0  0  0  0  0  0  0  0  0  0  0
   22.2831   -9.7675  -15.9189 C   0  0  2  0  0  0  0  0  0  0  0  0
   22.9823  -10.6145  -14.9412 N   0  0  0  0  0  0  0  0  0  0  0  0
   23.1912   -8.7080  -16.3786 C   0  0  0  0  0  0  0  0  0  0  0  0
   23.0874   -8.0157  -17.5751 O   0  0  0  0  0  0  0  0  0  0  0  0
   24.1662   -8.3953  -15.6084 O   0  0  0  0  0  0  0  0  0  0  0  0
  2  1  1  0
  3  2  1  0
  3  5  1  0
  3  4  1  6
  5  6  1  1
  7  9  1  0
  7  5  1  0
  8  7  2  0
 10 11  1  0
 10  9  1  0
 11 19  1  0
 12 11  2  0
 14 13  1  0
 15 14  2  0
 16 14  1  0
 17 16  1  0
 18 17  1  1
 18 20  1  0
 19 18  1  0
 20 22  2  0
 20 21  1  0
M  END
$$$$
