IGQ.pdb
     RDKit          3D

 22 21  0  0  1  0  0  0  0  0999 V2000
   14.8813  -23.5753   -3.9439 C   0  0  0  0  0  0  0  0  0  0  0  0
   14.0675  -23.4355   -2.6959 C   0  0  0  0  0  0  0  0  0  0  0  0
   14.9207  -23.2406   -1.4557 C   0  0  2  0  0  0  0  0  0  0  0  0
   15.8451  -24.3897   -1.2102 C   0  0  0  0  0  0  0  0  0  0  0  0
   13.9633  -23.0607   -0.2891 C   0  0  2  0  0  0  0  0  0  0  0  0
   13.1604  -21.9074   -0.5643 N   0  0  0  0  0  0  0  0  0  0  0  0
   14.6822  -22.9673    1.0065 C   0  0  0  0  0  0  0  0  0  0  0  0
   15.3962  -23.9814    1.3101 O   0  0  0  0  0  0  0  0  0  0  0  0
   14.6009  -21.8498    1.8620 N   0  0  0  0  0  0  0  0  0  0  0  0
   15.4345  -21.7795    3.0320 C   0  0  0  0  0  0  0  0  0  0  0  0
   15.0551  -20.5582    3.7899 C   0  0  0  0  0  0  0  0  0  0  0  0
   14.1695  -19.7656    3.3760 O   0  0  0  0  0  0  0  0  0  0  0  0
   14.7051  -18.9212    9.8523 N   0  0  0  0  0  0  0  0  0  0  0  0
   14.5956  -20.1979    9.2604 C   0  0  0  0  0  0  0  0  0  0  0  0
   14.0848  -21.1273    9.9171 O   0  0  0  0  0  0  0  0  0  0  0  0
   15.0755  -20.4454    7.8814 C   0  0  0  0  0  0  0  0  0  0  0  0
   15.6360  -19.2165    7.2431 C   0  0  0  0  0  0  0  0  0  0  0  0
   15.2523  -19.0304    5.7958 C   0  0  2  0  0  0  0  0  0  0  0  0
   15.6731  -20.2136    5.0308 N   0  0  0  0  0  0  0  0  0  0  0  0
   15.8810  -17.8334    5.2209 C   0  0  0  0  0  0  0  0  0  0  0  0
   15.3779  -16.5434    5.2880 O   0  0  0  0  0  0  0  0  0  0  0  0
   16.9912  -17.9933    4.6017 O   0  0  0  0  0  0  0  0  0  0  0  0
  2  1  1  0
  3  2  1  0
  3  5  1  0
  3  4  1  1
  5  6  1  6
  7  9  1  0
  7  5  1  0
  8  7  2  0
 10 11  1  0
 10  9  1  0
 11 19  1  0
 12 11  2  0
 14 13  1  0
 15 14  2  0
 16 14  1  0
 17 16  1  0
 18 17  1  1
 18 20  1  0
 19 18  1  0
 20 22  2  0
 20 21  1  0
M  END
$$$$
