MCN.pdb
     RDKit          3D

 23 22  0  0  1  0  0  0  0  0999 V2000
   18.0703  -12.8652  -14.3857 C   0  0  0  0  0  0  0  0  0  0  0  0
   16.5447  -13.7922  -14.0695 S   0  0  0  0  0  0  0  0  0  0  0  0
   15.6971  -13.0715  -12.6620 C   0  0  0  0  0  0  0  0  0  0  0  0
   15.6892  -11.5381  -12.7192 C   0  0  0  0  0  0  0  0  0  0  0  0
   14.9257  -11.0676  -11.5256 C   0  0  2  0  0  0  0  0  0  0  0  0
   13.5446  -11.4836  -11.6764 N   0  0  0  0  0  0  0  0  0  0  0  0
   15.0286   -9.6304  -11.2584 C   0  0  0  0  0  0  0  0  0  0  0  0
   14.1943   -8.8569  -11.8105 O   0  0  0  0  0  0  0  0  0  0  0  0
   16.0046   -9.0697  -10.4221 N   0  0  0  0  0  0  0  0  0  0  0  0
   16.1705   -7.6359  -10.1783 C   0  0  1  0  0  0  0  0  0  0  0  0
   15.9452   -7.3534   -8.7018 C   0  0  0  0  0  0  0  0  0  0  0  0
   16.4836   -5.7153   -8.2024 S   0  0  0  0  0  0  0  0  0  0  0  0
   17.5457   -7.2085  -10.5180 C   0  0  0  0  0  0  0  0  0  0  0  0
   18.4970   -7.9019  -10.0158 O   0  0  0  0  0  0  0  0  0  0  0  0
   21.8896   -5.4255  -12.5913 N   0  0  0  0  0  0  0  0  0  0  0  0
   21.3567   -6.7333  -12.7534 C   0  0  0  0  0  0  0  0  0  0  0  0
   22.0906   -7.6318  -13.2779 O   0  0  0  0  0  0  0  0  0  0  0  0
   19.9760   -7.0183  -12.3105 C   0  0  0  0  0  0  0  0  0  0  0  0
   19.2970   -5.8445  -11.7051 C   0  0  2  0  0  0  0  0  0  0  0  0
   17.9148   -6.1276  -11.3326 N   0  0  0  0  0  0  0  0  0  0  0  0
   19.3238   -4.6828  -12.6074 C   0  0  0  0  0  0  0  0  0  0  0  0
   18.2509   -4.2533  -13.0964 O   0  0  0  0  0  0  0  0  0  0  0  0
   20.4914   -4.0464  -12.9363 O   0  0  0  0  0  0  0  0  0  0  0  0
  1  2  1  0
  2  3  1  0
  4  5  1  0
  4  3  1  0
  5  7  1  0
  5  6  1  6
  7  9  1  0
  7  8  2  0
  9 10  1  0
 10 13  1  0
 10 11  1  1
 12 11  1  0
 13 20  1  0
 14 13  2  0
 16 17  2  0
 16 15  1  0
 18 16  1  0
 19 21  1  0
 19 18  1  6
 20 19  1  0
 21 22  2  0
 21 23  1  0
M  END
$$$$
