MCN.pdb
     RDKit          3D

 23 22  0  0  1  0  0  0  0  0999 V2000
   16.1575  -14.7875  -14.9866 C   0  0  0  0  0  0  0  0  0  0  0  0
   17.5584  -13.9619  -15.7883 S   0  0  0  0  0  0  0  0  0  0  0  0
   17.6421  -12.2606  -15.2250 C   0  0  0  0  0  0  0  0  0  0  0  0
   16.4434  -11.8877  -14.3425 C   0  0  0  0  0  0  0  0  0  0  0  0
   16.6722  -10.4878  -13.8764 C   0  0  2  0  0  0  0  0  0  0  0  0
   18.0372  -10.3854  -13.3976 N   0  0  0  0  0  0  0  0  0  0  0  0
   15.7138  -10.0094  -12.8763 C   0  0  0  0  0  0  0  0  0  0  0  0
   14.5202  -10.4214  -12.9447 O   0  0  0  0  0  0  0  0  0  0  0  0
   16.0530   -9.1186  -11.8478 N   0  0  0  0  0  0  0  0  0  0  0  0
   15.1323   -8.6547  -10.8087 C   0  0  1  0  0  0  0  0  0  0  0  0
   14.8185   -9.8093   -9.8711 C   0  0  0  0  0  0  0  0  0  0  0  0
   13.9269   -9.3044   -8.3971 S   0  0  0  0  0  0  0  0  0  0  0  0
   15.7546   -7.5764  -10.0092 C   0  0  0  0  0  0  0  0  0  0  0  0
   16.9102   -7.8264   -9.5190 O   0  0  0  0  0  0  0  0  0  0  0  0
   18.4348   -3.9528   -7.6805 N   0  0  0  0  0  0  0  0  0  0  0  0
   17.9295   -3.8006   -9.0005 C   0  0  0  0  0  0  0  0  0  0  0  0
   18.0931   -2.6856   -9.5928 O   0  0  0  0  0  0  0  0  0  0  0  0
   17.2347   -4.9313   -9.6503 C   0  0  0  0  0  0  0  0  0  0  0  0
   15.9387   -5.2728   -9.0109 C   0  0  2  0  0  0  0  0  0  0  0  0
   15.2132   -6.3115   -9.7350 N   0  0  0  0  0  0  0  0  0  0  0  0
   15.0764   -4.0885   -8.8763 C   0  0  0  0  0  0  0  0  0  0  0  0
   14.0541   -3.9814   -9.5962 O   0  0  0  0  0  0  0  0  0  0  0  0
   15.3529   -3.0873   -7.9832 O   0  0  0  0  0  0  0  0  0  0  0  0
  1  2  1  0
  2  3  1  0
  4  5  1  0
  4  3  1  0
  5  7  1  0
  5  6  1  1
  7  9  1  0
  7  8  2  0
  9 10  1  0
 10 13  1  0
 10 11  1  1
 12 11  1  0
 13 20  1  0
 14 13  2  0
 16 17  2  0
 16 15  1  0
 18 16  1  0
 19 21  1  0
 19 18  1  6
 20 19  1  0
 21 22  2  0
 21 23  1  0
M  END
$$$$
