MCN.pdb
     RDKit          3D

 23 22  0  0  1  0  0  0  0  0999 V2000
   28.0661  -18.0594   -5.3102 C   0  0  0  0  0  0  0  0  0  0  0  0
   27.9317  -19.8356   -4.9730 S   0  0  0  0  0  0  0  0  0  0  0  0
   27.4119  -20.6824   -6.4667 C   0  0  0  0  0  0  0  0  0  0  0  0
   27.1355  -19.7036   -7.6158 C   0  0  0  0  0  0  0  0  0  0  0  0
   26.6057  -20.5140   -8.7523 C   0  0  2  0  0  0  0  0  0  0  0  0
   27.5664  -21.5578   -9.0531 N   0  0  0  0  0  0  0  0  0  0  0  0
   26.2589  -19.7411   -9.9482 C   0  0  0  0  0  0  0  0  0  0  0  0
   26.4282  -18.4881   -9.9220 O   0  0  0  0  0  0  0  0  0  0  0  0
   25.7490  -20.3200  -11.1192 N   0  0  0  0  0  0  0  0  0  0  0  0
   26.1211  -19.9206  -12.4774 C   0  0  1  0  0  0  0  0  0  0  0  0
   27.6334  -19.9839  -12.6174 C   0  0  0  0  0  0  0  0  0  0  0  0
   28.2476  -19.1315  -14.0730 S   0  0  0  0  0  0  0  0  0  0  0  0
   25.5338  -20.8484  -13.4692 C   0  0  0  0  0  0  0  0  0  0  0  0
   25.8087  -22.0894  -13.3194 O   0  0  0  0  0  0  0  0  0  0  0  0
   20.0237  -20.9987  -13.6973 N   0  0  0  0  0  0  0  0  0  0  0  0
   21.2201  -21.7554  -13.8270 C   0  0  0  0  0  0  0  0  0  0  0  0
   21.1335  -22.9880  -14.1340 O   0  0  0  0  0  0  0  0  0  0  0  0
   22.5257  -21.0990  -13.6074 C   0  0  0  0  0  0  0  0  0  0  0  0
   23.4148  -21.1426  -14.7959 C   0  0  2  0  0  0  0  0  0  0  0  0
   24.7076  -20.5113  -14.5518 N   0  0  0  0  0  0  0  0  0  0  0  0
   22.7832  -20.5094  -15.9641 C   0  0  0  0  0  0  0  0  0  0  0  0
   22.2597  -21.2271  -16.8503 O   0  0  0  0  0  0  0  0  0  0  0  0
   22.7461  -19.1489  -16.1202 O   0  0  0  0  0  0  0  0  0  0  0  0
  1  2  1  0
  2  3  1  0
  4  5  1  0
  4  3  1  0
  5  7  1  0
  5  6  1  6
  7  9  1  0
  7  8  2  0
  9 10  1  0
 10 13  1  0
 10 11  1  1
 12 11  1  0
 13 20  1  0
 14 13  2  0
 16 17  2  0
 16 15  1  0
 18 16  1  0
 19 21  1  0
 19 18  1  1
 20 19  1  0
 21 22  2  0
 21 23  1  0
M  END
$$$$
