MCN.pdb
     RDKit          3D

 23 22  0  0  1  0  0  0  0  0999 V2000
   24.6454  -16.8131  -21.4741 C   0  0  0  0  0  0  0  0  0  0  0  0
   25.8396  -15.9592  -22.5378 S   0  0  0  0  0  0  0  0  0  0  0  0
   25.7471  -14.1940  -22.2309 C   0  0  0  0  0  0  0  0  0  0  0  0
   25.1997  -13.8819  -20.8317 C   0  0  0  0  0  0  0  0  0  0  0  0
   25.1906  -12.3950  -20.6959 C   0  0  2  0  0  0  0  0  0  0  0  0
   26.5363  -11.9087  -20.9318 N   0  0  0  0  0  0  0  0  0  0  0  0
   24.6537  -11.8978  -19.4261 C   0  0  0  0  0  0  0  0  0  0  0  0
   23.4866  -12.2500  -19.0900 O   0  0  0  0  0  0  0  0  0  0  0  0
   25.3681  -11.0519  -18.5656 N   0  0  0  0  0  0  0  0  0  0  0  0
   24.9061  -10.6232  -17.2444 C   0  0  1  0  0  0  0  0  0  0  0  0
   26.1107  -10.4075  -16.3426 C   0  0  0  0  0  0  0  0  0  0  0  0
   25.6949   -9.6376  -14.7751 S   0  0  0  0  0  0  0  0  0  0  0  0
   24.1762   -9.3399  -17.3423 C   0  0  0  0  0  0  0  0  0  0  0  0
   24.7700   -8.3942  -17.9678 O   0  0  0  0  0  0  0  0  0  0  0  0
   20.8658   -5.3761  -17.2985 N   0  0  0  0  0  0  0  0  0  0  0  0
   20.5647   -6.4320  -18.2014 C   0  0  0  0  0  0  0  0  0  0  0  0
   19.7238   -6.2184  -19.1331 O   0  0  0  0  0  0  0  0  0  0  0  0
   21.2312   -7.7411  -18.0409 C   0  0  0  0  0  0  0  0  0  0  0  0
   22.2589   -7.7519  -16.9691 C   0  0  2  0  0  0  0  0  0  0  0  0
   22.9042   -9.0528  -16.8248 N   0  0  0  0  0  0  0  0  0  0  0  0
   21.6894   -7.3511  -15.6732 C   0  0  0  0  0  0  0  0  0  0  0  0
   21.6939   -8.1633  -14.7167 O   0  0  0  0  0  0  0  0  0  0  0  0
   21.1481   -6.1090  -15.4716 O   0  0  0  0  0  0  0  0  0  0  0  0
  1  2  1  0
  2  3  1  0
  4  5  1  0
  4  3  1  0
  5  7  1  0
  5  6  1  1
  7  9  1  0
  7  8  2  0
  9 10  1  0
 10 13  1  0
 10 11  1  1
 12 11  1  0
 13 20  1  0
 14 13  2  0
 16 17  2  0
 16 15  1  0
 18 16  1  0
 19 21  1  0
 19 18  1  6
 20 19  1  0
 21 22  2  0
 21 23  1  0
M  END
$$$$
