MCN.pdb
     RDKit          3D

 23 22  0  0  1  0  0  0  0  0999 V2000
   20.1951  -15.9483  -16.0819 C   0  0  0  0  0  0  0  0  0  0  0  0
   19.1236  -15.6548  -17.5145 S   0  0  0  0  0  0  0  0  0  0  0  0
   19.4019  -13.9924  -18.1291 C   0  0  0  0  0  0  0  0  0  0  0  0
   20.1061  -13.1068  -17.0925 C   0  0  0  0  0  0  0  0  0  0  0  0
   20.3367  -11.7833  -17.7441 C   0  0  2  0  0  0  0  0  0  0  0  0
   20.9763  -12.0126  -19.0252 N   0  0  0  0  0  0  0  0  0  0  0  0
   21.0877  -10.8219  -16.9321 C   0  0  0  0  0  0  0  0  0  0  0  0
   20.6235  -10.5017  -15.8002 O   0  0  0  0  0  0  0  0  0  0  0  0
   22.2940  -10.2393  -17.3464 N   0  0  0  0  0  0  0  0  0  0  0  0
   23.0710   -9.2806  -16.5590 C   0  0  1  0  0  0  0  0  0  0  0  0
   24.4234   -9.0736  -17.2215 C   0  0  0  0  0  0  0  0  0  0  0  0
   25.4277   -7.8263  -16.4101 S   0  0  0  0  0  0  0  0  0  0  0  0
   22.3831   -7.9714  -16.5116 C   0  0  0  0  0  0  0  0  0  0  0  0
   21.7448   -7.6260  -17.5658 O   0  0  0  0  0  0  0  0  0  0  0  0
   18.8406   -4.1418  -16.6691 N   0  0  0  0  0  0  0  0  0  0  0  0
   19.3694   -4.7747  -15.5113 C   0  0  0  0  0  0  0  0  0  0  0  0
   19.1461   -4.2509  -14.3726 O   0  0  0  0  0  0  0  0  0  0  0  0
   20.1568   -6.0168  -15.6546 C   0  0  0  0  0  0  0  0  0  0  0  0
   21.6156   -5.8155  -15.4629 C   0  0  2  0  0  0  0  0  0  0  0  0
   22.3557   -7.0729  -15.4345 N   0  0  0  0  0  0  0  0  0  0  0  0
   21.8977   -5.0634  -14.2304 C   0  0  0  0  0  0  0  0  0  0  0  0
   21.6894   -3.8263  -14.1981 O   0  0  0  0  0  0  0  0  0  0  0  0
   22.3853   -5.6724  -13.1044 O   0  0  0  0  0  0  0  0  0  0  0  0
  1  2  1  0
  2  3  1  0
  4  5  1  0
  4  3  1  0
  5  7  1  0
  5  6  1  6
  7  9  1  0
  7  8  2  0
  9 10  1  0
 10 13  1  0
 10 11  1  6
 12 11  1  0
 13 20  1  0
 14 13  2  0
 16 17  2  0
 16 15  1  0
 18 16  1  0
 19 21  1  0
 19 18  1  1
 20 19  1  0
 21 22  2  0
 21 23  1  0
M  END
$$$$
