MCN.pdb
     RDKit          3D

 23 22  0  0  1  0  0  0  0  0999 V2000
   33.6092  -13.7015  -20.1340 C   0  0  0  0  0  0  0  0  0  0  0  0
   32.1870  -13.9178  -19.0307 S   0  0  0  0  0  0  0  0  0  0  0  0
   31.1917  -12.4253  -19.0511 C   0  0  0  0  0  0  0  0  0  0  0  0
   29.9695  -12.5368  -18.1300 C   0  0  0  0  0  0  0  0  0  0  0  0
   29.1840  -11.2791  -18.3044 C   0  0  2  0  0  0  0  0  0  0  0  0
   30.0075  -10.1654  -17.8747 N   0  0  0  0  0  0  0  0  0  0  0  0
   27.8794  -11.2726  -17.6369 C   0  0  0  0  0  0  0  0  0  0  0  0
   27.0114  -12.1135  -18.0093 O   0  0  0  0  0  0  0  0  0  0  0  0
   27.5449  -10.3818  -16.6070 N   0  0  0  0  0  0  0  0  0  0  0  0
   26.2437  -10.3305  -15.9383 C   0  0  1  0  0  0  0  0  0  0  0  0
   26.4495   -9.9619  -14.4780 C   0  0  0  0  0  0  0  0  0  0  0  0
   24.9118   -9.7437  -13.5777 S   0  0  0  0  0  0  0  0  0  0  0  0
   25.3864   -9.2926  -16.5525 C   0  0  0  0  0  0  0  0  0  0  0  0
   25.9689   -8.2081  -16.9028 O   0  0  0  0  0  0  0  0  0  0  0  0
   21.8573   -6.2692  -18.6954 N   0  0  0  0  0  0  0  0  0  0  0  0
   22.0033   -7.5035  -19.3852 C   0  0  0  0  0  0  0  0  0  0  0  0
   21.4979   -7.6173  -20.5482 O   0  0  0  0  0  0  0  0  0  0  0  0
   22.7348   -8.6156  -18.7435 C   0  0  0  0  0  0  0  0  0  0  0  0
   23.2343   -8.2860  -17.3844 C   0  0  2  0  0  0  0  0  0  0  0  0
   24.0066   -9.3736  -16.7925 N   0  0  0  0  0  0  0  0  0  0  0  0
   22.1320   -7.9297  -16.4776 C   0  0  0  0  0  0  0  0  0  0  0  0
   21.2164   -8.7596  -16.2594 O   0  0  0  0  0  0  0  0  0  0  0  0
   22.0690   -6.7106  -15.8562 O   0  0  0  0  0  0  0  0  0  0  0  0
  1  2  1  0
  2  3  1  0
  4  5  1  0
  4  3  1  0
  5  7  1  0
  5  6  1  1
  7  9  1  0
  7  8  2  0
  9 10  1  0
 10 13  1  0
 10 11  1  1
 12 11  1  0
 13 20  1  0
 14 13  2  0
 16 17  2  0
 16 15  1  0
 18 16  1  0
 19 21  1  0
 19 18  1  6
 20 19  1  0
 21 22  2  0
 21 23  1  0
M  END
$$$$
