MCN.pdb
     RDKit          3D

 23 22  0  0  1  0  0  0  0  0999 V2000
   28.6751  -19.4244   -6.3827 C   0  0  0  0  0  0  0  0  0  0  0  0
   26.9245  -19.7201   -6.0155 S   0  0  0  0  0  0  0  0  0  0  0  0
   26.1497  -20.5078   -7.4290 C   0  0  0  0  0  0  0  0  0  0  0  0
   26.4560  -19.7685   -8.7383 C   0  0  0  0  0  0  0  0  0  0  0  0
   25.8025  -20.5454   -9.8332 C   0  0  2  0  0  0  0  0  0  0  0  0
   26.2979  -21.9074   -9.7824 N   0  0  0  0  0  0  0  0  0  0  0  0
   25.9543  -19.9672  -11.1712 C   0  0  0  0  0  0  0  0  0  0  0  0
   25.4385  -18.8349  -11.3969 O   0  0  0  0  0  0  0  0  0  0  0  0
   26.6421  -20.6055  -12.2133 N   0  0  0  0  0  0  0  0  0  0  0  0
   26.8036  -20.0611  -13.5625 C   0  0  1  0  0  0  0  0  0  0  0  0
   28.2342  -20.2900  -14.0229 C   0  0  0  0  0  0  0  0  0  0  0  0
   29.4455  -19.3929  -13.0479 S   0  0  0  0  0  0  0  0  0  0  0  0
   25.9045  -20.7542  -14.5116 C   0  0  0  0  0  0  0  0  0  0  0  0
   26.0646  -22.0188  -14.6262 O   0  0  0  0  0  0  0  0  0  0  0  0
   21.0207  -21.8596  -15.2751 N   0  0  0  0  0  0  0  0  0  0  0  0
   21.5560  -21.3978  -14.0419 C   0  0  0  0  0  0  0  0  0  0  0  0
   20.8512  -21.5139  -12.9879 O   0  0  0  0  0  0  0  0  0  0  0  0
   22.9077  -20.8014  -14.0112 C   0  0  0  0  0  0  0  0  0  0  0  0
   23.5330  -20.6891  -15.3534 C   0  0  2  0  0  0  0  0  0  0  0  0
   24.8964  -20.1722  -15.2947 N   0  0  0  0  0  0  0  0  0  0  0  0
   22.7344  -19.8389  -16.2498 C   0  0  0  0  0  0  0  0  0  0  0  0
   22.6796  -18.6021  -16.0447 O   0  0  0  0  0  0  0  0  0  0  0  0
   22.0407  -20.3552  -17.3122 O   0  0  0  0  0  0  0  0  0  0  0  0
  1  2  1  0
  2  3  1  0
  4  5  1  0
  4  3  1  0
  5  7  1  0
  5  6  1  6
  7  9  1  0
  7  8  2  0
  9 10  1  0
 10 13  1  0
 10 11  1  6
 12 11  1  0
 13 20  1  0
 14 13  2  0
 16 17  2  0
 16 15  1  0
 18 16  1  0
 19 21  1  0
 19 18  1  1
 20 19  1  0
 21 22  2  0
 21 23  1  0
M  END
$$$$
