KCT.pdb
     RDKit          3D

 23 22  0  0  1  0  0  0  0  0999 V2000
   28.2718  -22.7733  -15.9318 N   0  0  0  0  0  0  0  0  0  0  0  0
   27.6814  -21.5380  -15.5241 C   0  0  1  0  0  0  0  0  0  0  0  0
   27.1135  -20.7553  -16.6778 C   0  0  0  0  0  0  0  0  0  0  0  0
   28.2200  -20.2194  -17.5364 C   0  0  0  0  0  0  0  0  0  0  0  0
   28.2275  -18.7199  -17.6351 C   0  0  0  0  0  0  0  0  0  0  0  0
   29.3787  -18.2382  -18.5192 C   0  0  0  0  0  0  0  0  0  0  0  0
   29.3550  -16.7724  -18.4308 N   0  0  0  0  0  0  0  0  0  0  0  0
   26.6253  -21.7922  -14.4792 C   0  0  0  0  0  0  0  0  0  0  0  0
   25.6411  -22.5180  -14.7213 O   0  0  0  0  0  0  0  0  0  0  0  0
   26.7110  -21.2134  -13.1757 N   0  0  0  0  0  0  0  0  0  0  0  0
   25.6805  -21.3404  -12.1864 C   0  0  1  0  0  0  0  0  0  0  0  0
   26.1469  -20.9332  -10.8068 C   0  0  0  0  0  0  0  0  0  0  0  0
   24.8236  -21.0219   -9.5876 S   0  0  0  0  0  0  0  0  0  0  0  0
   24.4998  -20.5741  -12.6302 C   0  0  0  0  0  0  0  0  0  0  0  0
   24.6030  -19.3429  -12.8498 O   0  0  0  0  0  0  0  0  0  0  0  0
   22.6347  -20.3504  -15.5538 C   0  0  0  0  0  0  0  0  0  0  0  0
   21.5729  -20.6733  -14.5418 C   0  0  1  0  0  0  0  0  0  0  0  0
   21.2079  -21.9955  -14.7094 O   0  0  0  0  0  0  0  0  0  0  0  0
   22.0490  -20.4103  -13.1110 C   0  0  2  0  0  0  0  0  0  0  0  0
   23.2170  -21.1844  -12.8251 N   0  0  0  0  0  0  0  0  0  0  0  0
   20.9495  -20.6375  -12.1473 C   0  0  0  0  0  0  0  0  0  0  0  0
   21.0674  -21.4916  -11.2344 O   0  0  0  0  0  0  0  0  0  0  0  0
   19.7605  -19.9274  -12.2109 O   0  0  0  0  0  0  0  0  0  0  0  0
  2  8  1  0
  2  1  1  6
  3  2  1  0
  4  3  1  0
  5  4  1  0
  6  5  1  0
  7  6  1  0
  8  9  2  0
 10 11  1  0
 10  8  1  0
 11 12  1  1
 12 13  1  0
 14 11  1  0
 15 14  2  0
 17 16  1  6
 17 19  1  0
 18 17  1  0
 19 20  1  1
 20 14  1  0
 21 23  1  0
 21 19  1  0
 22 21  2  0
M  END
$$$$
