KCT.pdb
     RDKit          3D

 23 22  0  0  1  0  0  0  0  0999 V2000
   21.2492  -21.2120  -11.1505 N   0  0  0  0  0  0  0  0  0  0  0  0
   21.7484  -21.2442  -12.4886 C   0  0  1  0  0  0  0  0  0  0  0  0
   20.7620  -20.7075  -13.4912 C   0  0  0  0  0  0  0  0  0  0  0  0
   20.1996  -21.8263  -14.3165 C   0  0  0  0  0  0  0  0  0  0  0  0
   19.0547  -22.5402  -13.6549 C   0  0  0  0  0  0  0  0  0  0  0  0
   18.5499  -23.6879  -14.5305 C   0  0  0  0  0  0  0  0  0  0  0  0
   17.4906  -24.3407  -13.7502 N   0  0  0  0  0  0  0  0  0  0  0  0
   23.0538  -20.4951  -12.5694 C   0  0  0  0  0  0  0  0  0  0  0  0
   23.1391  -19.3077  -12.1995 O   0  0  0  0  0  0  0  0  0  0  0  0
   24.2396  -21.1146  -13.0710 N   0  0  0  0  0  0  0  0  0  0  0  0
   25.4962  -20.4337  -13.1895 C   0  0  1  0  0  0  0  0  0  0  0  0
   26.6541  -21.2580  -12.6734 C   0  0  0  0  0  0  0  0  0  0  0  0
   26.1141  -22.5679  -11.5607 S   0  0  0  0  0  0  0  0  0  0  0  0
   25.6814  -20.0209  -14.5943 C   0  0  0  0  0  0  0  0  0  0  0  0
   25.1750  -20.7052  -15.5163 O   0  0  0  0  0  0  0  0  0  0  0  0
   26.1562  -16.0596  -16.0303 C   0  0  0  0  0  0  0  0  0  0  0  0
   27.1932  -17.0713  -16.4269 C   0  0  1  0  0  0  0  0  0  0  0  0
   28.2986  -16.8930  -15.6169 O   0  0  0  0  0  0  0  0  0  0  0  0
   26.6617  -18.5032  -16.3263 C   0  0  2  0  0  0  0  0  0  0  0  0
   26.4273  -18.8521  -14.9594 N   0  0  0  0  0  0  0  0  0  0  0  0
   27.5684  -19.4441  -17.0204 C   0  0  0  0  0  0  0  0  0  0  0  0
   28.1988  -20.3168  -16.3740 O   0  0  0  0  0  0  0  0  0  0  0  0
   27.7572  -19.4024  -18.3932 O   0  0  0  0  0  0  0  0  0  0  0  0
  2  8  1  0
  2  1  1  1
  3  2  1  0
  4  3  1  0
  5  4  1  0
  6  5  1  0
  7  6  1  0
  8  9  2  0
 10 11  1  0
 10  8  1  0
 11 12  1  6
 12 13  1  0
 14 11  1  0
 15 14  2  0
 17 16  1  1
 17 19  1  0
 18 17  1  0
 19 20  1  1
 20 14  1  0
 21 23  1  0
 21 19  1  0
 22 21  2  0
M  END
$$$$
