KCT.pdb
     RDKit          3D

 23 22  0  0  1  0  0  0  0  0999 V2000
   26.7565  -19.9720  -16.2489 N   0  0  0  0  0  0  0  0  0  0  0  0
   25.7988  -19.1179  -15.6213 C   0  0  1  0  0  0  0  0  0  0  0  0
   26.2352  -18.6578  -14.2560 C   0  0  0  0  0  0  0  0  0  0  0  0
   25.7720  -19.6265  -13.2090 C   0  0  0  0  0  0  0  0  0  0  0  0
   26.3385  -21.0078  -13.3800 C   0  0  0  0  0  0  0  0  0  0  0  0
   25.7350  -21.9739  -12.3595 C   0  0  0  0  0  0  0  0  0  0  0  0
   26.2324  -23.3036  -12.7356 N   0  0  0  0  0  0  0  0  0  0  0  0
   25.4983  -17.9394  -16.5117 C   0  0  0  0  0  0  0  0  0  0  0  0
   26.3864  -17.4222  -17.2173 O   0  0  0  0  0  0  0  0  0  0  0  0
   24.1890  -17.3716  -16.5813 N   0  0  0  0  0  0  0  0  0  0  0  0
   23.8432  -16.2901  -17.4572 C   0  0  1  0  0  0  0  0  0  0  0  0
   23.3748  -16.7681  -18.8131 C   0  0  0  0  0  0  0  0  0  0  0  0
   22.7041  -15.4278  -19.8127 S   0  0  0  0  0  0  0  0  0  0  0  0
   22.8440  -15.4365  -16.7854 C   0  0  0  0  0  0  0  0  0  0  0  0
   21.8593  -15.9632  -16.2129 O   0  0  0  0  0  0  0  0  0  0  0  0
   23.5746  -12.3316  -14.4178 C   0  0  0  0  0  0  0  0  0  0  0  0
   22.6000  -11.9569  -15.4975 C   0  0  1  0  0  0  0  0  0  0  0  0
   23.2726  -11.2027  -16.4400 O   0  0  0  0  0  0  0  0  0  0  0  0
   21.9543  -13.1889  -16.1365 C   0  0  2  0  0  0  0  0  0  0  0  0
   22.9498  -14.0069  -16.7572 N   0  0  0  0  0  0  0  0  0  0  0  0
   20.8711  -12.7875  -17.0609 C   0  0  0  0  0  0  0  0  0  0  0  0
   21.0400  -12.8422  -18.3040 O   0  0  0  0  0  0  0  0  0  0  0  0
   19.6421  -12.3407  -16.6002 O   0  0  0  0  0  0  0  0  0  0  0  0
  2  8  1  0
  2  1  1  6
  3  2  1  0
  4  3  1  0
  5  4  1  0
  6  5  1  0
  7  6  1  0
  8  9  2  0
 10 11  1  0
 10  8  1  0
 11 12  1  6
 12 13  1  0
 14 11  1  0
 15 14  2  0
 17 16  1  1
 17 19  1  0
 18 17  1  0
 19 20  1  6
 20 14  1  0
 21 23  1  0
 21 19  1  0
 22 21  2  0
M  END
$$$$
