KCT.pdb
     RDKit          3D

 23 22  0  0  1  0  0  0  0  0999 V2000
   26.9813  -23.6656  -16.3350 N   0  0  0  0  0  0  0  0  0  0  0  0
   27.1212  -22.4909  -15.5343 C   0  0  1  0  0  0  0  0  0  0  0  0
   27.1003  -21.2250  -16.3487 C   0  0  0  0  0  0  0  0  0  0  0  0
   28.4576  -20.9576  -16.9276 C   0  0  0  0  0  0  0  0  0  0  0  0
   28.7215  -21.7062  -18.2036 C   0  0  0  0  0  0  0  0  0  0  0  0
   30.0898  -21.3373  -18.7783 C   0  0  0  0  0  0  0  0  0  0  0  0
   30.2940  -22.2413  -19.9177 N   0  0  0  0  0  0  0  0  0  0  0  0
   26.0518  -22.4611  -14.4725 C   0  0  0  0  0  0  0  0  0  0  0  0
   24.9854  -23.0910  -14.6145 O   0  0  0  0  0  0  0  0  0  0  0  0
   26.2182  -21.7127  -13.2668 N   0  0  0  0  0  0  0  0  0  0  0  0
   25.1995  -21.5941  -12.2644 C   0  0  1  0  0  0  0  0  0  0  0  0
   25.7606  -21.2420  -10.9052 C   0  0  0  0  0  0  0  0  0  0  0  0
   24.4640  -20.9268   -9.6947 S   0  0  0  0  0  0  0  0  0  0  0  0
   24.1907  -20.6207  -12.7262 C   0  0  0  0  0  0  0  0  0  0  0  0
   24.4604  -19.3951  -12.7219 O   0  0  0  0  0  0  0  0  0  0  0  0
   22.9859  -19.3765  -15.6411 C   0  0  0  0  0  0  0  0  0  0  0  0
   21.7304  -19.9077  -15.0105 C   0  0  1  0  0  0  0  0  0  0  0  0
   21.4278  -21.1161  -15.6085 O   0  0  0  0  0  0  0  0  0  0  0  0
   21.8748  -20.0639  -13.4946 C   0  0  2  0  0  0  0  0  0  0  0  0
   22.8932  -21.0198  -13.1878 N   0  0  0  0  0  0  0  0  0  0  0  0
   20.5687  -20.3863  -12.8786 C   0  0  0  0  0  0  0  0  0  0  0  0
   20.4152  -21.4490  -12.2275 O   0  0  0  0  0  0  0  0  0  0  0  0
   19.4757  -19.5411  -12.9928 O   0  0  0  0  0  0  0  0  0  0  0  0
  2  8  1  0
  2  1  1  6
  3  2  1  0
  4  3  1  0
  5  4  1  0
  6  5  1  0
  7  6  1  0
  8  9  2  0
 10 11  1  0
 10  8  1  0
 11 12  1  1
 12 13  1  0
 14 11  1  0
 15 14  2  0
 17 16  1  6
 17 19  1  0
 18 17  1  0
 19 20  1  6
 20 14  1  0
 21 23  1  0
 21 19  1  0
 22 21  2  0
M  END
$$$$
