KCT.pdb
     RDKit          3D

 23 22  0  0  1  0  0  0  0  0999 V2000
   24.6087  -29.1047  -17.1589 N   0  0  0  0  0  0  0  0  0  0  0  0
   25.9573  -28.9085  -16.7303 C   0  0  1  0  0  0  0  0  0  0  0  0
   26.8215  -30.1208  -16.9537 C   0  0  0  0  0  0  0  0  0  0  0  0
   26.2362  -31.3116  -16.2550 C   0  0  0  0  0  0  0  0  0  0  0  0
   27.2506  -32.1148  -15.4909 C   0  0  0  0  0  0  0  0  0  0  0  0
   26.6310  -33.4063  -14.9551 C   0  0  0  0  0  0  0  0  0  0  0  0
   27.7292  -34.1246  -14.2954 N   0  0  0  0  0  0  0  0  0  0  0  0
   26.5443  -27.7003  -17.4139 C   0  0  0  0  0  0  0  0  0  0  0  0
   26.3472  -27.4868  -18.6262 O   0  0  0  0  0  0  0  0  0  0  0  0
   27.3462  -26.7563  -16.7017 N   0  0  0  0  0  0  0  0  0  0  0  0
   27.9191  -25.5902  -17.3089 C   0  0  1  0  0  0  0  0  0  0  0  0
   27.9355  -24.3992  -16.3774 C   0  0  0  0  0  0  0  0  0  0  0  0
   26.2840  -23.7419  -16.0844 S   0  0  0  0  0  0  0  0  0  0  0  0
   29.2645  -25.9297  -17.8119 C   0  0  0  0  0  0  0  0  0  0  0  0
   30.1666  -26.2585  -17.0040 O   0  0  0  0  0  0  0  0  0  0  0  0
   30.6118  -28.7206  -19.7622 C   0  0  0  0  0  0  0  0  0  0  0  0
   30.8530  -27.4745  -20.5655 C   0  0  1  0  0  0  0  0  0  0  0  0
   29.8519  -27.3741  -21.5128 O   0  0  0  0  0  0  0  0  0  0  0  0
   30.9021  -26.2259  -19.6814 C   0  0  2  0  0  0  0  0  0  0  0  0
   29.5927  -25.9001  -19.2074 N   0  0  0  0  0  0  0  0  0  0  0  0
   31.5575  -25.1085  -20.3961 C   0  0  0  0  0  0  0  0  0  0  0  0
   32.7668  -25.1839  -20.7260 O   0  0  0  0  0  0  0  0  0  0  0  0
   30.8742  -23.9483  -20.7268 O   0  0  0  0  0  0  0  0  0  0  0  0
  2  8  1  0
  2  1  1  6
  3  2  1  0
  4  3  1  0
  5  4  1  0
  6  5  1  0
  7  6  1  0
  8  9  2  0
 10 11  1  0
 10  8  1  0
 11 12  1  1
 12 13  1  0
 14 11  1  0
 15 14  2  0
 17 16  1  1
 17 19  1  0
 18 17  1  0
 19 20  1  6
 20 14  1  0
 21 23  1  0
 21 19  1  0
 22 21  2  0
M  END
$$$$
