KCT.pdb
     RDKit          3D

 23 22  0  0  1  0  0  0  0  0999 V2000
   18.0132  -12.0836  -17.5910 N   0  0  0  0  0  0  0  0  0  0  0  0
   18.6349  -10.8235  -17.8487 C   0  0  1  0  0  0  0  0  0  0  0  0
   17.6936   -9.8257  -18.4687 C   0  0  0  0  0  0  0  0  0  0  0  0
   17.3282  -10.2513  -19.8595 C   0  0  0  0  0  0  0  0  0  0  0  0
   15.9228  -10.7704  -19.9761 C   0  0  0  0  0  0  0  0  0  0  0  0
   15.5793  -11.0897  -21.4317 C   0  0  0  0  0  0  0  0  0  0  0  0
   14.1763  -11.5238  -21.4181 N   0  0  0  0  0  0  0  0  0  0  0  0
   19.2340  -10.2757  -16.5787 C   0  0  0  0  0  0  0  0  0  0  0  0
   18.6484  -10.3982  -15.4850 O   0  0  0  0  0  0  0  0  0  0  0  0
   20.4915   -9.5973  -16.5792 N   0  0  0  0  0  0  0  0  0  0  0  0
   21.1211   -9.1011  -15.3900 C   0  0  1  0  0  0  0  0  0  0  0  0
   22.3029   -9.9429  -14.9643 C   0  0  0  0  0  0  0  0  0  0  0  0
   23.2058   -9.2033  -13.5919 S   0  0  0  0  0  0  0  0  0  0  0  0
   21.4848   -7.6863  -15.6008 C   0  0  0  0  0  0  0  0  0  0  0  0
   22.2286   -7.3711  -16.5611 O   0  0  0  0  0  0  0  0  0  0  0  0
   19.6255   -4.6655  -16.4708 C   0  0  0  0  0  0  0  0  0  0  0  0
   20.2901   -4.3553  -15.1600 C   0  0  1  0  0  0  0  0  0  0  0  0
   19.3379   -4.4501  -14.1630 O   0  0  0  0  0  0  0  0  0  0  0  0
   21.4716   -5.2884  -14.8839 C   0  0  2  0  0  0  0  0  0  0  0  0
   21.0179   -6.6372  -14.7422 N   0  0  0  0  0  0  0  0  0  0  0  0
   22.2503   -4.8106  -13.7202 C   0  0  0  0  0  0  0  0  0  0  0  0
   22.3853   -5.5336  -12.7023 O   0  0  0  0  0  0  0  0  0  0  0  0
   22.8548   -3.5630  -13.7047 O   0  0  0  0  0  0  0  0  0  0  0  0
  2  8  1  0
  2  1  1  1
  3  2  1  0
  4  3  1  0
  5  4  1  0
  6  5  1  0
  7  6  1  0
  8  9  2  0
 10 11  1  0
 10  8  1  0
 11 12  1  6
 12 13  1  0
 14 11  1  0
 15 14  2  0
 17 16  1  6
 17 19  1  0
 18 17  1  0
 19 20  1  1
 20 14  1  0
 21 23  1  0
 21 19  1  0
 22 21  2  0
M  END
$$$$
