KCT.pdb
     RDKit          3D

 23 22  0  0  1  0  0  0  0  0999 V2000
   26.8653  -21.9231  -10.9856 N   0  0  0  0  0  0  0  0  0  0  0  0
   25.6300  -21.2090  -11.0545 C   0  0  1  0  0  0  0  0  0  0  0  0
   25.6169  -19.9827  -10.1813 C   0  0  0  0  0  0  0  0  0  0  0  0
   25.3097  -20.3589   -8.7625 C   0  0  0  0  0  0  0  0  0  0  0  0
   23.8697  -20.7261   -8.5397 C   0  0  0  0  0  0  0  0  0  0  0  0
   23.6020  -21.0068   -7.0604 C   0  0  0  0  0  0  0  0  0  0  0  0
   22.1615  -21.2773   -6.9662 N   0  0  0  0  0  0  0  0  0  0  0  0
   25.3221  -20.8496  -12.4855 C   0  0  0  0  0  0  0  0  0  0  0  0
   26.0768  -20.1028  -13.1388 O   0  0  0  0  0  0  0  0  0  0  0  0
   24.1577  -21.3488  -13.1461 N   0  0  0  0  0  0  0  0  0  0  0  0
   23.8769  -21.1173  -14.5333 C   0  0  1  0  0  0  0  0  0  0  0  0
   24.4775  -22.1750  -15.4316 C   0  0  0  0  0  0  0  0  0  0  0  0
   23.9575  -21.9867  -17.1461 S   0  0  0  0  0  0  0  0  0  0  0  0
   22.4165  -20.9941  -14.7074 C   0  0  0  0  0  0  0  0  0  0  0  0
   21.6523  -21.8301  -14.1672 O   0  0  0  0  0  0  0  0  0  0  0  0
   20.3572  -17.4233  -14.8564 C   0  0  0  0  0  0  0  0  0  0  0  0
   20.0275  -18.3764  -15.9694 C   0  0  1  0  0  0  0  0  0  0  0  0
   20.6893  -17.9540  -17.1065 O   0  0  0  0  0  0  0  0  0  0  0  0
   20.4031  -19.8178  -15.6167 C   0  0  2  0  0  0  0  0  0  0  0  0
   21.8211  -19.9432  -15.4801 N   0  0  0  0  0  0  0  0  0  0  0  0
   19.8271  -20.7606  -16.6008 C   0  0  0  0  0  0  0  0  0  0  0  0
   20.5747  -21.4752  -17.3132 O   0  0  0  0  0  0  0  0  0  0  0  0
   18.4581  -20.8927  -16.7753 O   0  0  0  0  0  0  0  0  0  0  0  0
  2  8  1  0
  2  1  1  6
  3  2  1  0
  4  3  1  0
  5  4  1  0
  6  5  1  0
  7  6  1  0
  8  9  2  0
 10 11  1  0
 10  8  1  0
 11 12  1  6
 12 13  1  0
 14 11  1  0
 15 14  2  0
 17 16  1  1
 17 19  1  0
 18 17  1  0
 19 20  1  6
 20 14  1  0
 21 23  1  0
 21 19  1  0
 22 21  2  0
M  END
$$$$
