GGV.pdb
     RDKit          3D

 16 15  0  0  1  0  0  0  0  0999 V2000
   19.2655  -21.5378  -12.3330 N   0  0  0  0  0  0  0  0  0  0  0  0
   20.0654  -21.8796  -13.4768 C   0  0  0  0  0  0  0  0  0  0  0  0
   21.4881  -21.9842  -13.0774 C   0  0  0  0  0  0  0  0  0  0  0  0
   22.2687  -22.7242  -13.7323 O   0  0  0  0  0  0  0  0  0  0  0  0
   22.0238  -21.2715  -11.9642 N   0  0  0  0  0  0  0  0  0  0  0  0
   23.4069  -21.4136  -11.6435 C   0  0  0  0  0  0  0  0  0  0  0  0
   24.2550  -20.5391  -12.4994 C   0  0  0  0  0  0  0  0  0  0  0  0
   23.8608  -19.3598  -12.7924 O   0  0  0  0  0  0  0  0  0  0  0  0
   28.5595  -19.0929  -14.1817 C   0  0  0  0  0  0  0  0  0  0  0  0
   27.7495  -20.0219  -13.3053 C   0  0  2  0  0  0  0  0  0  0  0  0
   28.3848  -21.3798  -13.3173 C   0  0  0  0  0  0  0  0  0  0  0  0
   26.3322  -20.0217  -13.8154 C   0  0  2  0  0  0  0  0  0  0  0  0
   25.4946  -20.9373  -13.0201 N   0  0  0  0  0  0  0  0  0  0  0  0
   26.2681  -20.3899  -15.2498 C   0  0  0  0  0  0  0  0  0  0  0  0
   26.3023  -19.4580  -16.2718 O   0  0  0  0  0  0  0  0  0  0  0  0
   26.1788  -21.5978  -15.5635 O   0  0  0  0  0  0  0  0  0  0  0  0
  2  1  1  0
  3  2  1  0
  3  5  1  0
  4  3  2  0
  6  5  1  0
  7  6  1  0
  8  7  2  0
 10  9  1  6
 10 11  1  0
 10 12  1  0
 12 13  1  1
 13  7  1  0
 14 12  1  0
 14 15  1  0
 16 14  2  0
M  END
$$$$
