GGV.pdb
     RDKit          3D

 16 15  0  0  1  0  0  0  0  0999 V2000
   27.1733  -22.9946  -15.3002 N   0  0  0  0  0  0  0  0  0  0  0  0
   26.1644  -22.3818  -14.4809 C   0  0  0  0  0  0  0  0  0  0  0  0
   25.9395  -20.9869  -14.9261 C   0  0  0  0  0  0  0  0  0  0  0  0
   26.9132  -20.1930  -15.0116 O   0  0  0  0  0  0  0  0  0  0  0  0
   24.6460  -20.4931  -15.2687 N   0  0  0  0  0  0  0  0  0  0  0  0
   24.5075  -19.1430  -15.7091 C   0  0  0  0  0  0  0  0  0  0  0  0
   23.1018  -18.6705  -15.5767 C   0  0  0  0  0  0  0  0  0  0  0  0
   22.8161  -17.4482  -15.8141 O   0  0  0  0  0  0  0  0  0  0  0  0
   18.3541  -19.4351  -15.7147 C   0  0  0  0  0  0  0  0  0  0  0  0
   19.7929  -19.5147  -16.1739 C   0  0  2  0  0  0  0  0  0  0  0  0
   20.1036  -20.9298  -16.5592 C   0  0  0  0  0  0  0  0  0  0  0  0
   20.6640  -18.9943  -15.0606 C   0  0  2  0  0  0  0  0  0  0  0  0
   22.0402  -19.5043  -15.1973 N   0  0  0  0  0  0  0  0  0  0  0  0
   20.1192  -19.3509  -13.7290 C   0  0  0  0  0  0  0  0  0  0  0  0
   20.6899  -20.3093  -12.9106 O   0  0  0  0  0  0  0  0  0  0  0  0
   19.0948  -18.7640  -13.3147 O   0  0  0  0  0  0  0  0  0  0  0  0
  2  1  1  0
  3  2  1  0
  3  5  1  0
  4  3  2  0
  6  5  1  0
  7  6  1  0
  8  7  2  0
 10  9  1  1
 10 11  1  0
 10 12  1  0
 12 13  1  6
 13  7  1  0
 14 12  1  0
 14 15  1  0
 16 14  2  0
M  END
$$$$
