GGV.pdb
     RDKit          3D

 16 15  0  0  1  0  0  0  0  0999 V2000
   22.3191  -10.5222  -22.8362 N   0  0  0  0  0  0  0  0  0  0  0  0
   21.7048   -9.2918  -22.4194 C   0  0  0  0  0  0  0  0  0  0  0  0
   22.3345   -8.8200  -21.1642 C   0  0  0  0  0  0  0  0  0  0  0  0
   23.5791   -8.6337  -21.1205 O   0  0  0  0  0  0  0  0  0  0  0  0
   21.5809   -8.5622  -19.9811 N   0  0  0  0  0  0  0  0  0  0  0  0
   22.2264   -7.9639  -18.8580 C   0  0  0  0  0  0  0  0  0  0  0  0
   21.2830   -7.7892  -17.7194 C   0  0  0  0  0  0  0  0  0  0  0  0
   20.2379   -7.0688  -17.8636 O   0  0  0  0  0  0  0  0  0  0  0  0
   19.3092  -10.2221  -15.9611 C   0  0  0  0  0  0  0  0  0  0  0  0
   20.0304   -9.5129  -14.8367 C   0  0  2  0  0  0  0  0  0  0  0  0
   19.1025   -9.3871  -13.6659 C   0  0  0  0  0  0  0  0  0  0  0  0
   20.5136   -8.1858  -15.3605 C   0  0  2  0  0  0  0  0  0  0  0  0
   21.4726   -8.3813  -16.4626 N   0  0  0  0  0  0  0  0  0  0  0  0
   21.1298   -7.3676  -14.2889 C   0  0  0  0  0  0  0  0  0  0  0  0
   22.4929   -7.1523  -14.1915 O   0  0  0  0  0  0  0  0  0  0  0  0
   20.3922   -6.8417  -13.4259 O   0  0  0  0  0  0  0  0  0  0  0  0
  2  1  1  0
  3  2  1  0
  3  5  1  0
  4  3  2  0
  6  5  1  0
  7  6  1  0
  8  7  2  0
 10  9  1  6
 10 11  1  0
 10 12  1  0
 12 13  1  6
 13  7  1  0
 14 12  1  0
 14 15  1  0
 16 14  2  0
M  END
$$$$
