GGV.pdb
     RDKit          3D

 16 15  0  0  1  0  0  0  0  0999 V2000
   17.8759  -13.9083  -16.3171 N   0  0  0  0  0  0  0  0  0  0  0  0
   17.9685  -12.4754  -16.3724 C   0  0  0  0  0  0  0  0  0  0  0  0
   19.3920  -12.0694  -16.4307 C   0  0  0  0  0  0  0  0  0  0  0  0
   20.1258  -12.2147  -15.4176 O   0  0  0  0  0  0  0  0  0  0  0  0
   19.9801  -11.5110  -17.6039 N   0  0  0  0  0  0  0  0  0  0  0  0
   21.3700  -11.1881  -17.6030 C   0  0  0  0  0  0  0  0  0  0  0  0
   21.6039   -9.7983  -17.1227 C   0  0  0  0  0  0  0  0  0  0  0  0
   22.7580   -9.2660  -17.2519 O   0  0  0  0  0  0  0  0  0  0  0  0
   20.1274   -5.2911  -16.2955 C   0  0  0  0  0  0  0  0  0  0  0  0
   19.8889   -6.6903  -16.8177 C   0  0  2  0  0  0  0  0  0  0  0  0
   18.4539   -7.0580  -16.5872 C   0  0  0  0  0  0  0  0  0  0  0  0
   20.8596   -7.6136  -16.1292 C   0  0  2  0  0  0  0  0  0  0  0  0
   20.6108   -9.0128  -16.5202 N   0  0  0  0  0  0  0  0  0  0  0  0
   20.7904   -7.4774  -14.6547 C   0  0  0  0  0  0  0  0  0  0  0  0
   21.3726   -6.4294  -13.9643 O   0  0  0  0  0  0  0  0  0  0  0  0
   20.1792   -8.3453  -13.9925 O   0  0  0  0  0  0  0  0  0  0  0  0
  2  1  1  0
  3  2  1  0
  3  5  1  0
  4  3  2  0
  6  5  1  0
  7  6  1  0
  8  7  2  0
 10  9  1  1
 10 11  1  0
 10 12  1  0
 12 13  1  1
 13  7  1  0
 14 12  1  0
 14 15  1  0
 16 14  2  0
M  END
$$$$
