GGV.pdb
     RDKit          3D

 16 15  0  0  1  0  0  0  0  0999 V2000
   24.9558  -27.3494  -17.3996 N   0  0  0  0  0  0  0  0  0  0  0  0
   24.2568  -26.2383  -16.8149 C   0  0  0  0  0  0  0  0  0  0  0  0
   25.2233  -25.3380  -16.1441 C   0  0  0  0  0  0  0  0  0  0  0  0
   25.3986  -25.4240  -14.9000 O   0  0  0  0  0  0  0  0  0  0  0  0
   25.9783  -24.3600  -16.8566 N   0  0  0  0  0  0  0  0  0  0  0  0
   26.8743  -23.5111  -16.1407 C   0  0  0  0  0  0  0  0  0  0  0  0
   26.1388  -22.4602  -15.3847 C   0  0  0  0  0  0  0  0  0  0  0  0
   25.0971  -21.9224  -15.8922 O   0  0  0  0  0  0  0  0  0  0  0  0
   25.5409  -22.2943  -11.4359 C   0  0  0  0  0  0  0  0  0  0  0  0
   26.0625  -20.9692  -11.9452 C   0  0  2  0  0  0  0  0  0  0  0  0
   25.3932  -19.8600  -11.1907 C   0  0  0  0  0  0  0  0  0  0  0  0
   25.8161  -20.9142  -13.4302 C   0  0  2  0  0  0  0  0  0  0  0  0
   26.5264  -22.0095  -14.1147 N   0  0  0  0  0  0  0  0  0  0  0  0
   26.2217  -19.6085  -14.0030 C   0  0  0  0  0  0  0  0  0  0  0  0
   25.3289  -18.5802  -14.2473 O   0  0  0  0  0  0  0  0  0  0  0  0
   27.4258  -19.4156  -14.2827 O   0  0  0  0  0  0  0  0  0  0  0  0
  2  1  1  0
  3  2  1  0
  3  5  1  0
  4  3  2  0
  6  5  1  0
  7  6  1  0
  8  7  2  0
 10  9  1  1
 10 11  1  0
 10 12  1  0
 12 13  1  6
 13  7  1  0
 14 12  1  0
 14 15  1  0
 16 14  2  0
M  END
$$$$
