GGV.pdb
     RDKit          3D

 16 15  0  0  1  0  0  0  0  0999 V2000
   15.8323  -11.7553  -18.0606 N   0  0  0  0  0  0  0  0  0  0  0  0
   17.2041  -11.5888  -17.6666 C   0  0  0  0  0  0  0  0  0  0  0  0
   17.2671  -11.1382  -16.2568 C   0  0  0  0  0  0  0  0  0  0  0  0
   16.8338  -11.8862  -15.3411 O   0  0  0  0  0  0  0  0  0  0  0  0
   17.8063   -9.8719  -15.8826 N   0  0  0  0  0  0  0  0  0  0  0  0
   17.8738   -9.5219  -14.5010 C   0  0  0  0  0  0  0  0  0  0  0  0
   19.2082   -8.9642  -14.1471 C   0  0  0  0  0  0  0  0  0  0  0  0
   19.3862   -8.4132  -13.0084 O   0  0  0  0  0  0  0  0  0  0  0  0
   22.7384   -9.8669  -16.2741 C   0  0  0  0  0  0  0  0  0  0  0  0
   22.7048   -9.5057  -14.8059 C   0  0  2  0  0  0  0  0  0  0  0  0
   22.4849  -10.7523  -14.0027 C   0  0  0  0  0  0  0  0  0  0  0  0
   21.6286   -8.4706  -14.6079 C   0  0  2  0  0  0  0  0  0  0  0  0
   20.3146   -9.0056  -15.0076 N   0  0  0  0  0  0  0  0  0  0  0  0
   21.9219   -7.2273  -15.3598 C   0  0  0  0  0  0  0  0  0  0  0  0
   22.8454   -6.2881  -14.9367 O   0  0  0  0  0  0  0  0  0  0  0  0
   21.3115   -7.0058  -16.4293 O   0  0  0  0  0  0  0  0  0  0  0  0
  2  1  1  0
  3  2  1  0
  3  5  1  0
  4  3  2  0
  6  5  1  0
  7  6  1  0
  8  7  2  0
 10  9  1  6
 10 11  1  0
 10 12  1  0
 12 13  1  6
 13  7  1  0
 14 12  1  0
 14 15  1  0
 16 14  2  0
M  END
$$$$
