GGV.pdb
     RDKit          3D

 16 15  0  0  1  0  0  0  0  0999 V2000
   26.8504  -25.0707  -16.0212 N   0  0  0  0  0  0  0  0  0  0  0  0
   26.3871  -24.3239  -17.1581 C   0  0  0  0  0  0  0  0  0  0  0  0
   25.8170  -23.0327  -16.7082 C   0  0  0  0  0  0  0  0  0  0  0  0
   25.6017  -22.1181  -17.5466 O   0  0  0  0  0  0  0  0  0  0  0  0
   25.4949  -22.7738  -15.3432 N   0  0  0  0  0  0  0  0  0  0  0  0
   24.8934  -21.5286  -14.9912 C   0  0  0  0  0  0  0  0  0  0  0  0
   23.6050  -21.7322  -14.2732 C   0  0  0  0  0  0  0  0  0  0  0  0
   23.1825  -22.9163  -14.0470 O   0  0  0  0  0  0  0  0  0  0  0  0
   22.6199  -20.2567  -10.9687 C   0  0  0  0  0  0  0  0  0  0  0  0
   21.4546  -19.9794  -11.8919 C   0  0  2  0  0  0  0  0  0  0  0  0
   20.1770  -20.1277  -11.1216 C   0  0  0  0  0  0  0  0  0  0  0  0
   21.5576  -20.9203  -13.0637 C   0  0  2  0  0  0  0  0  0  0  0  0
   22.8017  -20.6777  -13.8158 N   0  0  0  0  0  0  0  0  0  0  0  0
   20.3867  -20.8004  -13.9647 C   0  0  0  0  0  0  0  0  0  0  0  0
   19.2744  -21.6179  -13.8718 O   0  0  0  0  0  0  0  0  0  0  0  0
   20.3931  -19.9218  -14.8555 O   0  0  0  0  0  0  0  0  0  0  0  0
  2  1  1  0
  3  2  1  0
  3  5  1  0
  4  3  2  0
  6  5  1  0
  7  6  1  0
  8  7  2  0
 10  9  1  1
 10 11  1  0
 10 12  1  0
 12 13  1  6
 13  7  1  0
 14 12  1  0
 14 15  1  0
 16 14  2  0
M  END
$$$$
