GGV.pdb
     RDKit          3D

 16 15  0  0  1  0  0  0  0  0999 V2000
   33.1785  -32.8578  -16.2303 N   0  0  0  0  0  0  0  0  0  0  0  0
   33.0552  -31.4444  -16.4579 C   0  0  0  0  0  0  0  0  0  0  0  0
   32.1028  -31.1987  -17.5657 C   0  0  0  0  0  0  0  0  0  0  0  0
   32.2161  -31.8422  -18.6422 O   0  0  0  0  0  0  0  0  0  0  0  0
   31.0436  -30.2488  -17.4664 N   0  0  0  0  0  0  0  0  0  0  0  0
   30.1249  -30.1107  -18.5494 C   0  0  0  0  0  0  0  0  0  0  0  0
   28.9584  -31.0222  -18.3911 C   0  0  0  0  0  0  0  0  0  0  0  0
   28.7612  -31.9569  -19.2392 O   0  0  0  0  0  0  0  0  0  0  0  0
   27.4080  -32.0834  -14.7321 C   0  0  0  0  0  0  0  0  0  0  0  0
   27.3676  -32.8725  -16.0217 C   0  0  2  0  0  0  0  0  0  0  0  0
   28.6997  -33.5267  -16.2342 C   0  0  0  0  0  0  0  0  0  0  0  0
   26.9826  -31.9286  -17.1306 C   0  0  2  0  0  0  0  0  0  0  0  0
   28.0351  -30.9185  -17.3407 N   0  0  0  0  0  0  0  0  0  0  0  0
   25.6866  -31.2635  -16.8561 C   0  0  0  0  0  0  0  0  0  0  0  0
   24.4634  -31.8728  -17.0726 O   0  0  0  0  0  0  0  0  0  0  0  0
   25.6861  -30.0957  -16.4071 O   0  0  0  0  0  0  0  0  0  0  0  0
  2  1  1  0
  3  2  1  0
  3  5  1  0
  4  3  2  0
  6  5  1  0
  7  6  1  0
  8  7  2  0
 10  9  1  1
 10 11  1  0
 10 12  1  0
 12 13  1  1
 13  7  1  0
 14 12  1  0
 14 15  1  0
 16 14  2  0
M  END
$$$$
