GGV.pdb
     RDKit          3D

 16 15  0  0  1  0  0  0  0  0999 V2000
   24.7398  -22.0357  -19.2419 N   0  0  0  0  0  0  0  0  0  0  0  0
   25.3143  -20.7201  -19.1772 C   0  0  0  0  0  0  0  0  0  0  0  0
   24.8225  -20.0199  -17.9679 C   0  0  0  0  0  0  0  0  0  0  0  0
   23.6128  -19.6785  -17.8913 O   0  0  0  0  0  0  0  0  0  0  0  0
   25.6729  -19.7090  -16.8659 N   0  0  0  0  0  0  0  0  0  0  0  0
   25.1103  -19.1236  -15.6926 C   0  0  0  0  0  0  0  0  0  0  0  0
   24.8256  -20.1532  -14.6555 C   0  0  0  0  0  0  0  0  0  0  0  0
   24.4042  -21.3078  -15.0037 O   0  0  0  0  0  0  0  0  0  0  0  0
   25.5287  -22.0483  -10.2340 C   0  0  0  0  0  0  0  0  0  0  0  0
   25.5982  -20.7872  -11.0659 C   0  0  2  0  0  0  0  0  0  0  0  0
   25.1666  -19.6241  -10.2242 C   0  0  0  0  0  0  0  0  0  0  0  0
   24.7410  -20.9903  -12.2877 C   0  0  2  0  0  0  0  0  0  0  0  0
   24.9949  -19.9316  -13.2813 N   0  0  0  0  0  0  0  0  0  0  0  0
   23.2998  -21.0295  -11.9431 C   0  0  0  0  0  0  0  0  0  0  0  0
   22.6312  -22.1970  -11.6207 O   0  0  0  0  0  0  0  0  0  0  0  0
   22.6466  -19.9624  -11.9403 O   0  0  0  0  0  0  0  0  0  0  0  0
  2  1  1  0
  3  2  1  0
  3  5  1  0
  4  3  2  0
  6  5  1  0
  7  6  1  0
  8  7  2  0
 10  9  1  1
 10 11  1  0
 10 12  1  0
 12 13  1  6
 13  7  1  0
 14 12  1  0
 14 15  1  0
 16 14  2  0
M  END
$$$$
