GGV.pdb
     RDKit          3D

 16 15  0  0  1  0  0  0  0  0999 V2000
   19.3755  -13.5977  -18.8030 N   0  0  0  0  0  0  0  0  0  0  0  0
   18.8843  -12.3341  -19.2796 C   0  0  0  0  0  0  0  0  0  0  0  0
   18.2568  -11.5896  -18.1631 C   0  0  0  0  0  0  0  0  0  0  0  0
   17.5894  -12.2106  -17.2943 O   0  0  0  0  0  0  0  0  0  0  0  0
   18.3764  -10.1752  -18.0249 N   0  0  0  0  0  0  0  0  0  0  0  0
   17.7770   -9.5294  -16.9026 C   0  0  0  0  0  0  0  0  0  0  0  0
   18.7884   -9.2045  -15.8594 C   0  0  0  0  0  0  0  0  0  0  0  0
   18.4458   -8.5334  -14.8278 O   0  0  0  0  0  0  0  0  0  0  0  0
   22.9854  -10.2719  -13.5821 C   0  0  0  0  0  0  0  0  0  0  0  0
   22.0709  -10.5241  -14.7600 C   0  0  2  0  0  0  0  0  0  0  0  0
   22.8994  -10.6369  -16.0043 C   0  0  0  0  0  0  0  0  0  0  0  0
   21.0641   -9.4049  -14.8129 C   0  0  2  0  0  0  0  0  0  0  0  0
   20.1318   -9.5988  -15.9380 N   0  0  0  0  0  0  0  0  0  0  0  0
   21.7237   -8.0818  -14.9209 C   0  0  0  0  0  0  0  0  0  0  0  0
   22.1628   -7.3642  -13.8226 O   0  0  0  0  0  0  0  0  0  0  0  0
   21.8971   -7.5801  -16.0538 O   0  0  0  0  0  0  0  0  0  0  0  0
  2  1  1  0
  3  2  1  0
  3  5  1  0
  4  3  2  0
  6  5  1  0
  7  6  1  0
  8  7  2  0
 10  9  1  1
 10 11  1  0
 10 12  1  0
 12 13  1  6
 13  7  1  0
 14 12  1  0
 14 15  1  0
 16 14  2  0
M  END
$$$$
