QSS.pdb
     RDKit          3D

 22 21  0  0  1  0  0  0  0  0999 V2000
   15.3864  -10.0169  -18.8402 N   0  0  0  0  0  0  0  0  0  0  0  0
   15.7017  -11.4042  -18.8072 C   0  0  0  0  0  0  0  0  0  0  0  0
   14.9032  -12.1702  -19.3789 O   0  0  0  0  0  0  0  0  0  0  0  0
   16.8892  -11.8891  -18.1391 C   0  0  0  0  0  0  0  0  0  0  0  0
   17.8141  -10.9239  -17.5175 C   0  0  0  0  0  0  0  0  0  0  0  0
   19.0357  -11.4398  -16.8515 C   0  0  2  0  0  0  0  0  0  0  0  0
   18.9486  -12.7809  -16.3675 N   0  0  0  0  0  0  0  0  0  0  0  0
   19.3633  -10.4705  -15.7501 C   0  0  0  0  0  0  0  0  0  0  0  0
   18.4959  -10.2289  -14.8567 O   0  0  0  0  0  0  0  0  0  0  0  0
   23.2154   -9.5523  -15.0129 O   0  0  0  0  0  0  0  0  0  0  0  0
   22.2567   -9.3309  -14.0233 C   0  0  0  0  0  0  0  0  0  0  0  0
   20.9614   -8.8659  -14.6424 C   0  0  2  0  0  0  0  0  0  0  0  0
   20.5887   -9.8203  -15.6684 N   0  0  0  0  0  0  0  0  0  0  0  0
   21.1191   -7.5086  -15.1322 C   0  0  0  0  0  0  0  0  0  0  0  0
   21.4449   -7.2864  -16.3144 O   0  0  0  0  0  0  0  0  0  0  0  0
   20.1306   -2.8795  -14.6498 O   0  0  0  0  0  0  0  0  0  0  0  0
   19.9029   -4.1795  -14.2208 C   0  0  0  0  0  0  0  0  0  0  0  0
   21.0768   -5.0352  -14.6641 C   0  0  2  0  0  0  0  0  0  0  0  0
   20.9020   -6.4175  -14.2632 N   0  0  0  0  0  0  0  0  0  0  0  0
   22.3066   -4.4591  -14.0981 C   0  0  0  0  0  0  0  0  0  0  0  0
   23.0451   -3.5774  -14.8713 O   0  0  0  0  0  0  0  0  0  0  0  0
   22.6259   -4.8015  -12.9289 O   0  0  0  0  0  0  0  0  0  0  0  0
  1  2  1  0
  2  3  2  0
  4  2  1  0
  4  5  1  0
  6  5  1  0
  6  8  1  0
  6  7  1  1
  8  9  2  0
  8 13  1  0
 10 11  1  0
 12 11  1  6
 12 14  1  0
 13 12  1  0
 14 19  1  0
 14 15  2  0
 16 17  1  0
 18 17  1  1
 18 20  1  0
 19 18  1  0
 20 21  1  0
 22 20  2  0
M  END
$$$$
