QSS.pdb
     RDKit          3D

 22 21  0  0  1  0  0  0  0  0999 V2000
   27.1441  -18.2784  -17.7136 N   0  0  0  0  0  0  0  0  0  0  0  0
   28.0458  -17.5442  -16.8932 C   0  0  0  0  0  0  0  0  0  0  0  0
   28.7650  -16.7057  -17.4685 O   0  0  0  0  0  0  0  0  0  0  0  0
   28.1172  -17.7699  -15.4665 C   0  0  0  0  0  0  0  0  0  0  0  0
   27.1607  -18.6952  -14.8321 C   0  0  0  0  0  0  0  0  0  0  0  0
   27.6249  -20.0576  -14.4706 C   0  0  2  0  0  0  0  0  0  0  0  0
   28.2917  -20.7730  -15.5118 N   0  0  0  0  0  0  0  0  0  0  0  0
   26.4182  -20.8007  -13.9689 C   0  0  0  0  0  0  0  0  0  0  0  0
   25.7815  -21.5588  -14.7617 O   0  0  0  0  0  0  0  0  0  0  0  0
   24.9315  -19.9787  -10.1709 O   0  0  0  0  0  0  0  0  0  0  0  0
   24.8611  -21.2965  -10.6246 C   0  0  0  0  0  0  0  0  0  0  0  0
   24.7755  -21.3288  -12.1309 C   0  0  2  0  0  0  0  0  0  0  0  0
   25.9654  -20.6908  -12.6598 N   0  0  0  0  0  0  0  0  0  0  0  0
   23.5359  -20.7062  -12.5586 C   0  0  0  0  0  0  0  0  0  0  0  0
   23.4375  -19.4672  -12.6491 O   0  0  0  0  0  0  0  0  0  0  0  0
   19.5572  -21.0880  -15.0875 O   0  0  0  0  0  0  0  0  0  0  0  0
   20.6897  -21.7263  -14.6021 C   0  0  0  0  0  0  0  0  0  0  0  0
   21.1691  -20.9691  -13.3757 C   0  0  2  0  0  0  0  0  0  0  0  0
   22.4197  -21.5089  -12.8791 N   0  0  0  0  0  0  0  0  0  0  0  0
   20.1110  -21.0282  -12.3550 C   0  0  0  0  0  0  0  0  0  0  0  0
   20.2566  -21.9110  -11.2966 O   0  0  0  0  0  0  0  0  0  0  0  0
   19.1193  -20.2654  -12.4991 O   0  0  0  0  0  0  0  0  0  0  0  0
  1  2  1  0
  2  3  2  0
  4  2  1  0
  4  5  1  0
  6  5  1  0
  6  8  1  0
  6  7  1  6
  8  9  2  0
  8 13  1  0
 10 11  1  0
 12 11  1  1
 12 14  1  0
 13 12  1  0
 14 19  1  0
 14 15  2  0
 16 17  1  0
 18 17  1  6
 18 20  1  0
 19 18  1  0
 20 21  1  0
 22 20  2  0
M  END
$$$$
