QSS.pdb
     RDKit          3D

 22 21  0  0  1  0  0  0  0  0999 V2000
   12.4304   -7.7140  -10.6127 N   0  0  0  0  0  0  0  0  0  0  0  0
   12.3573   -8.4078   -9.3724 C   0  0  0  0  0  0  0  0  0  0  0  0
   11.2265   -8.5180   -8.8621 O   0  0  0  0  0  0  0  0  0  0  0  0
   13.5415   -8.9506   -8.7442 C   0  0  0  0  0  0  0  0  0  0  0  0
   14.8407   -8.8382   -9.4319 C   0  0  0  0  0  0  0  0  0  0  0  0
   15.1625   -9.8123  -10.5041 C   0  0  2  0  0  0  0  0  0  0  0  0
   15.2353  -11.1772  -10.0890 N   0  0  0  0  0  0  0  0  0  0  0  0
   16.4500   -9.3507  -11.1281 C   0  0  0  0  0  0  0  0  0  0  0  0
   17.5288   -9.4431  -10.4674 O   0  0  0  0  0  0  0  0  0  0  0  0
   17.5416   -9.7452  -15.0434 O   0  0  0  0  0  0  0  0  0  0  0  0
   17.4648   -8.4342  -14.5713 C   0  0  0  0  0  0  0  0  0  0  0  0
   17.7212   -8.3960  -13.0847 C   0  0  2  0  0  0  0  0  0  0  0  0
   16.5093   -8.8208  -12.4113 N   0  0  0  0  0  0  0  0  0  0  0  0
   18.1696   -7.0687  -12.7049 C   0  0  0  0  0  0  0  0  0  0  0  0
   17.3667   -6.1193  -12.6209 O   0  0  0  0  0  0  0  0  0  0  0  0
   20.6965   -6.2483   -9.9313 O   0  0  0  0  0  0  0  0  0  0  0  0
   19.9690   -5.2698  -10.5937 C   0  0  0  0  0  0  0  0  0  0  0  0
   20.0688   -5.5363  -12.0857 C   0  0  2  0  0  0  0  0  0  0  0  0
   19.5342   -6.8407  -12.4246 N   0  0  0  0  0  0  0  0  0  0  0  0
   21.4798   -5.4100  -12.4829 C   0  0  0  0  0  0  0  0  0  0  0  0
   22.0950   -4.1734  -12.3676 O   0  0  0  0  0  0  0  0  0  0  0  0
   22.0593   -6.4430  -12.9110 O   0  0  0  0  0  0  0  0  0  0  0  0
  1  2  1  0
  2  3  2  0
  4  2  1  0
  4  5  1  0
  6  5  1  0
  6  8  1  0
  6  7  1  1
  8  9  2  0
  8 13  1  0
 10 11  1  0
 12 11  1  6
 12 14  1  0
 13 12  1  0
 14 19  1  0
 14 15  2  0
 16 17  1  0
 18 17  1  1
 18 20  1  0
 19 18  1  0
 20 21  1  0
 22 20  2  0
M  END
$$$$
