QSS.pdb
     RDKit          3D

 22 21  0  0  1  0  0  0  0  0999 V2000
   15.3603  -10.8145  -20.6320 N   0  0  0  0  0  0  0  0  0  0  0  0
   16.2909  -10.8090  -19.5552 C   0  0  0  0  0  0  0  0  0  0  0  0
   17.4978  -10.7996  -19.8627 O   0  0  0  0  0  0  0  0  0  0  0  0
   15.8472  -10.8170  -18.1788 C   0  0  0  0  0  0  0  0  0  0  0  0
   16.6861  -10.1835  -17.1451 C   0  0  0  0  0  0  0  0  0  0  0  0
   17.7599  -10.9882  -16.5115 C   0  0  2  0  0  0  0  0  0  0  0  0
   17.3173  -12.1387  -15.7898 N   0  0  0  0  0  0  0  0  0  0  0  0
   18.5385  -10.0469  -15.6354 C   0  0  0  0  0  0  0  0  0  0  0  0
   17.9735   -9.5270  -14.6258 O   0  0  0  0  0  0  0  0  0  0  0  0
   22.8752   -8.6935  -14.1389 O   0  0  0  0  0  0  0  0  0  0  0  0
   22.0742   -9.4286  -15.0137 C   0  0  0  0  0  0  0  0  0  0  0  0
   20.6816   -8.8492  -15.0623 C   0  0  2  0  0  0  0  0  0  0  0  0
   19.8648   -9.7178  -15.8875 N   0  0  0  0  0  0  0  0  0  0  0  0
   20.7441   -7.4782  -15.5353 C   0  0  0  0  0  0  0  0  0  0  0  0
   20.9537   -7.2225  -16.7368 O   0  0  0  0  0  0  0  0  0  0  0  0
   19.7045   -4.4380  -12.9756 O   0  0  0  0  0  0  0  0  0  0  0  0
   19.7763   -4.1116  -14.3224 C   0  0  0  0  0  0  0  0  0  0  0  0
   20.7998   -5.0243  -14.9754 C   0  0  2  0  0  0  0  0  0  0  0  0
   20.5659   -6.4121  -14.6273 N   0  0  0  0  0  0  0  0  0  0  0  0
   22.1411   -4.5817  -14.5632 C   0  0  0  0  0  0  0  0  0  0  0  0
   22.9333   -5.4528  -13.8321 O   0  0  0  0  0  0  0  0  0  0  0  0
   22.5014   -3.4229  -14.9002 O   0  0  0  0  0  0  0  0  0  0  0  0
  1  2  1  0
  2  3  2  0
  4  2  1  0
  4  5  1  0
  6  5  1  0
  6  8  1  0
  6  7  1  1
  8  9  2  0
  8 13  1  0
 10 11  1  0
 12 11  1  6
 12 14  1  0
 13 12  1  0
 14 19  1  0
 14 15  2  0
 16 17  1  0
 18 17  1  1
 18 20  1  0
 19 18  1  0
 20 21  1  0
 22 20  2  0
M  END
$$$$
