QSS.pdb
     RDKit          3D

 22 21  0  0  1  0  0  0  0  0999 V2000
   20.6433  -14.8654  -16.1462 N   0  0  0  0  0  0  0  0  0  0  0  0
   19.3210  -15.0966  -15.6737 C   0  0  0  0  0  0  0  0  0  0  0  0
   19.0492  -16.2619  -15.3283 O   0  0  0  0  0  0  0  0  0  0  0  0
   18.3500  -14.0270  -15.6049 C   0  0  0  0  0  0  0  0  0  0  0  0
   18.7464  -12.6640  -16.0029 C   0  0  0  0  0  0  0  0  0  0  0  0
   17.7403  -11.5771  -15.9107 C   0  0  2  0  0  0  0  0  0  0  0  0
   16.4970  -11.8373  -16.5642 N   0  0  0  0  0  0  0  0  0  0  0  0
   18.4012  -10.3369  -16.4448 C   0  0  0  0  0  0  0  0  0  0  0  0
   18.8411  -10.3306  -17.6345 O   0  0  0  0  0  0  0  0  0  0  0  0
   17.3297   -6.8009  -15.0855 O   0  0  0  0  0  0  0  0  0  0  0  0
   18.0175   -6.9336  -16.2925 C   0  0  0  0  0  0  0  0  0  0  0  0
   19.1318   -7.9417  -16.1533 C   0  0  2  0  0  0  0  0  0  0  0  0
   18.5530   -9.1851  -15.6825 N   0  0  0  0  0  0  0  0  0  0  0  0
   20.1623   -7.4067  -15.2823 C   0  0  0  0  0  0  0  0  0  0  0  0
   20.1935   -7.6970  -14.0708 O   0  0  0  0  0  0  0  0  0  0  0  0
   24.0909   -4.5528  -15.0076 O   0  0  0  0  0  0  0  0  0  0  0  0
   23.0993   -5.0595  -15.8356 C   0  0  0  0  0  0  0  0  0  0  0  0
   22.1892   -5.9406  -14.9975 C   0  0  2  0  0  0  0  0  0  0  0  0
   21.1485   -6.5435  -15.8070 N   0  0  0  0  0  0  0  0  0  0  0  0
   21.6250   -5.1210  -13.9136 C   0  0  0  0  0  0  0  0  0  0  0  0
   22.3002   -5.0610  -12.7048 O   0  0  0  0  0  0  0  0  0  0  0  0
   20.5474   -4.5114  -14.1446 O   0  0  0  0  0  0  0  0  0  0  0  0
  1  2  1  0
  2  3  2  0
  4  2  1  0
  4  5  1  0
  6  5  1  0
  6  8  1  0
  6  7  1  6
  8  9  2  0
  8 13  1  0
 10 11  1  0
 12 11  1  1
 12 14  1  0
 13 12  1  0
 14 19  1  0
 14 15  2  0
 16 17  1  0
 18 17  1  6
 18 20  1  0
 19 18  1  0
 20 21  1  0
 22 20  2  0
M  END
$$$$
