QSS.pdb
     RDKit          3D

 22 21  0  0  1  0  0  0  0  0999 V2000
    8.1623  -12.6715   -8.5821 N   0  0  0  0  0  0  0  0  0  0  0  0
    8.7453  -11.3805   -8.7183 C   0  0  0  0  0  0  0  0  0  0  0  0
    8.8343  -10.6976   -7.6805 O   0  0  0  0  0  0  0  0  0  0  0  0
    9.2049  -10.8951  -10.0008 C   0  0  0  0  0  0  0  0  0  0  0  0
   10.5567  -10.3179  -10.1132 C   0  0  0  0  0  0  0  0  0  0  0  0
   11.6455  -11.1629  -10.6634 C   0  0  2  0  0  0  0  0  0  0  0  0
   11.7538  -12.4684  -10.0939 N   0  0  0  0  0  0  0  0  0  0  0  0
   12.9176  -10.3782  -10.5030 C   0  0  0  0  0  0  0  0  0  0  0  0
   13.6343  -10.5605   -9.4724 O   0  0  0  0  0  0  0  0  0  0  0  0
   14.2731   -8.1876  -13.7055 O   0  0  0  0  0  0  0  0  0  0  0  0
   15.1829   -8.7590  -12.8149 C   0  0  0  0  0  0  0  0  0  0  0  0
   14.6189   -8.7567  -11.4153 C   0  0  2  0  0  0  0  0  0  0  0  0
   13.3463   -9.4512  -11.4452 N   0  0  0  0  0  0  0  0  0  0  0  0
   14.5313   -7.3910  -10.9311 C   0  0  0  0  0  0  0  0  0  0  0  0
   13.5136   -6.7014  -11.1354 O   0  0  0  0  0  0  0  0  0  0  0  0
   17.1307   -6.0859   -8.0717 O   0  0  0  0  0  0  0  0  0  0  0  0
   15.9788   -5.3461   -8.2989 C   0  0  0  0  0  0  0  0  0  0  0  0
   15.6368   -5.4467   -9.7753 C   0  0  2  0  0  0  0  0  0  0  0  0
   15.6107   -6.8273  -10.2170 N   0  0  0  0  0  0  0  0  0  0  0  0
   16.6205   -4.6554  -10.5310 C   0  0  0  0  0  0  0  0  0  0  0  0
   16.6989   -3.2918  -10.2960 O   0  0  0  0  0  0  0  0  0  0  0  0
   17.3463   -5.2659  -11.3598 O   0  0  0  0  0  0  0  0  0  0  0  0
  1  2  1  0
  2  3  2  0
  4  2  1  0
  4  5  1  0
  6  5  1  0
  6  8  1  0
  6  7  1  1
  8  9  2  0
  8 13  1  0
 10 11  1  0
 12 11  1  6
 12 14  1  0
 13 12  1  0
 14 19  1  0
 14 15  2  0
 16 17  1  0
 18 17  1  1
 18 20  1  0
 19 18  1  0
 20 21  1  0
 22 20  2  0
M  END
$$$$
