QSS.pdb
     RDKit          3D

 22 21  0  0  1  0  0  0  0  0999 V2000
   17.4234  -13.9391  -17.2683 N   0  0  0  0  0  0  0  0  0  0  0  0
   18.2783  -14.2629  -18.3590 C   0  0  0  0  0  0  0  0  0  0  0  0
   18.2722  -15.4493  -18.7378 O   0  0  0  0  0  0  0  0  0  0  0  0
   19.1092  -13.2589  -18.9861 C   0  0  0  0  0  0  0  0  0  0  0  0
   18.9883  -11.8523  -18.5616 C   0  0  0  0  0  0  0  0  0  0  0  0
   20.1845  -11.1744  -18.0034 C   0  0  2  0  0  0  0  0  0  0  0  0
   20.8822  -11.9005  -16.9903 N   0  0  0  0  0  0  0  0  0  0  0  0
   19.7227   -9.8321  -17.5084 C   0  0  0  0  0  0  0  0  0  0  0  0
   19.1776   -9.0244  -18.3204 O   0  0  0  0  0  0  0  0  0  0  0  0
   19.4812   -9.1290  -13.4856 O   0  0  0  0  0  0  0  0  0  0  0  0
   18.7234   -8.3667  -14.3755 C   0  0  0  0  0  0  0  0  0  0  0  0
   19.4897   -8.1387  -15.6553 C   0  0  2  0  0  0  0  0  0  0  0  0
   19.8697   -9.4339  -16.1853 N   0  0  0  0  0  0  0  0  0  0  0  0
   20.6137   -7.2576  -15.3959 C   0  0  0  0  0  0  0  0  0  0  0  0
   21.7661   -7.7109  -15.2563 O   0  0  0  0  0  0  0  0  0  0  0  0
   22.0978   -2.6446  -15.1373 O   0  0  0  0  0  0  0  0  0  0  0  0
   21.0016   -3.4865  -15.2605 C   0  0  0  0  0  0  0  0  0  0  0  0
   21.4810   -4.9158  -15.0757 C   0  0  2  0  0  0  0  0  0  0  0  0
   20.4075   -5.8644  -15.2988 N   0  0  0  0  0  0  0  0  0  0  0  0
   22.0418   -5.0422  -13.7213 C   0  0  0  0  0  0  0  0  0  0  0  0
   23.3550   -4.6548  -13.5065 O   0  0  0  0  0  0  0  0  0  0  0  0
   21.2907   -5.5003  -12.8201 O   0  0  0  0  0  0  0  0  0  0  0  0
  1  2  1  0
  2  3  2  0
  4  2  1  0
  4  5  1  0
  6  5  1  0
  6  8  1  0
  6  7  1  1
  8  9  2  0
  8 13  1  0
 10 11  1  0
 12 11  1  1
 12 14  1  0
 13 12  1  0
 14 19  1  0
 14 15  2  0
 16 17  1  0
 18 17  1  1
 18 20  1  0
 19 18  1  0
 20 21  1  0
 22 20  2  0
M  END
$$$$
