QSS.pdb
     RDKit          3D

 22 21  0  0  1  0  0  0  0  0999 V2000
   28.9333  -17.8917  -17.1677 N   0  0  0  0  0  0  0  0  0  0  0  0
   28.4434  -16.5820  -16.9036 C   0  0  0  0  0  0  0  0  0  0  0  0
   28.9306  -15.6582  -17.5822 O   0  0  0  0  0  0  0  0  0  0  0  0
   27.4339  -16.3466  -15.8951 C   0  0  0  0  0  0  0  0  0  0  0  0
   26.7994  -17.4963  -15.2251 C   0  0  0  0  0  0  0  0  0  0  0  0
   25.6544  -18.1634  -15.8930 C   0  0  2  0  0  0  0  0  0  0  0  0
   24.6337  -17.2886  -16.3761 N   0  0  0  0  0  0  0  0  0  0  0  0
   25.1113  -19.1642  -14.9114 C   0  0  0  0  0  0  0  0  0  0  0  0
   25.9150  -19.9221  -14.2881 O   0  0  0  0  0  0  0  0  0  0  0  0
   22.9528  -20.8856  -11.4928 O   0  0  0  0  0  0  0  0  0  0  0  0
   23.3990  -19.8912  -12.3643 C   0  0  0  0  0  0  0  0  0  0  0  0
   23.1573  -20.3016  -13.7962 C   0  0  2  0  0  0  0  0  0  0  0  0
   23.7519  -19.2963  -14.6555 N   0  0  0  0  0  0  0  0  0  0  0  0
   21.7343  -20.4911  -14.0116 C   0  0  0  0  0  0  0  0  0  0  0  0
   20.9668  -19.5160  -14.1265 O   0  0  0  0  0  0  0  0  0  0  0  0
   20.5638  -24.2126  -14.9659 O   0  0  0  0  0  0  0  0  0  0  0  0
   19.5181  -23.5614  -14.3271 C   0  0  0  0  0  0  0  0  0  0  0  0
   19.8035  -22.0698  -14.3552 C   0  0  2  0  0  0  0  0  0  0  0  0
   21.2031  -21.7964  -14.0936 N   0  0  0  0  0  0  0  0  0  0  0  0
   18.9306  -21.4151  -13.3681 C   0  0  0  0  0  0  0  0  0  0  0  0
   19.5145  -20.7519  -12.3004 O   0  0  0  0  0  0  0  0  0  0  0  0
   17.6866  -21.4930  -13.5482 O   0  0  0  0  0  0  0  0  0  0  0  0
  1  2  1  0
  2  3  2  0
  4  2  1  0
  4  5  1  0
  6  5  1  0
  6  8  1  0
  6  7  1  1
  8  9  2  0
  8 13  1  0
 10 11  1  0
 12 11  1  1
 12 14  1  0
 13 12  1  0
 14 19  1  0
 14 15  2  0
 16 17  1  0
 18 17  1  1
 18 20  1  0
 19 18  1  0
 20 21  1  0
 22 20  2  0
M  END
$$$$
