QSS.pdb
     RDKit          3D

 22 21  0  0  1  0  0  0  0  0999 V2000
   27.0359  -13.4691  -15.6355 N   0  0  0  0  0  0  0  0  0  0  0  0
   26.0784  -12.7905  -16.4404 C   0  0  0  0  0  0  0  0  0  0  0  0
   26.5279  -12.0672  -17.3493 O   0  0  0  0  0  0  0  0  0  0  0  0
   24.6592  -12.9377  -16.2047 C   0  0  0  0  0  0  0  0  0  0  0  0
   23.7929  -11.7453  -16.2396 C   0  0  0  0  0  0  0  0  0  0  0  0
   22.3317  -11.9242  -16.0526 C   0  0  2  0  0  0  0  0  0  0  0  0
   21.7088  -12.8468  -16.9477 N   0  0  0  0  0  0  0  0  0  0  0  0
   21.7182  -10.5551  -16.1481 C   0  0  0  0  0  0  0  0  0  0  0  0
   21.6030  -10.0039  -17.2847 O   0  0  0  0  0  0  0  0  0  0  0  0
   18.4961   -9.5850  -14.5083 O   0  0  0  0  0  0  0  0  0  0  0  0
   19.4357   -8.6418  -14.0901 C   0  0  0  0  0  0  0  0  0  0  0  0
   20.5865   -8.5802  -15.0643 C   0  0  2  0  0  0  0  0  0  0  0  0
   21.2678   -9.8599  -15.0325 N   0  0  0  0  0  0  0  0  0  0  0  0
   21.4393   -7.4526  -14.7351 C   0  0  0  0  0  0  0  0  0  0  0  0
   22.4387   -7.5952  -14.0044 O   0  0  0  0  0  0  0  0  0  0  0  0
   21.6069   -4.3352  -17.2178 O   0  0  0  0  0  0  0  0  0  0  0  0
   21.5897   -3.8565  -15.9154 C   0  0  0  0  0  0  0  0  0  0  0  0
   21.9558   -5.0014  -14.9869 C   0  0  2  0  0  0  0  0  0  0  0  0
   21.1396   -6.1713  -15.2461 N   0  0  0  0  0  0  0  0  0  0  0  0
   21.8076   -4.5348  -13.5995 C   0  0  0  0  0  0  0  0  0  0  0  0
   22.6075   -3.4922  -13.1594 O   0  0  0  0  0  0  0  0  0  0  0  0
   20.9527   -5.1139  -12.8783 O   0  0  0  0  0  0  0  0  0  0  0  0
  1  2  1  0
  2  3  2  0
  4  2  1  0
  4  5  1  0
  6  5  1  0
  6  8  1  0
  6  7  1  6
  8  9  2  0
  8 13  1  0
 10 11  1  0
 12 11  1  1
 12 14  1  0
 13 12  1  0
 14 19  1  0
 14 15  2  0
 16 17  1  0
 18 17  1  6
 18 20  1  0
 19 18  1  0
 20 21  1  0
 22 20  2  0
M  END
$$$$
