EEI.pdb
     RDKit          3D

 27 26  0  0  1  0  0  0  0  0999 V2000
   19.9956   -8.9269  -21.6308 N   0  0  0  0  0  0  0  0  0  0  0  0
   20.8226   -9.2820  -20.5156 C   0  0  1  0  0  0  0  0  0  0  0  0
   22.1788   -8.6619  -20.5603 C   0  0  0  0  0  0  0  0  0  0  0  0
   22.2364   -7.3176  -21.2251 C   0  0  0  0  0  0  0  0  0  0  0  0
   22.1945   -6.1697  -20.3042 C   0  0  0  0  0  0  0  0  0  0  0  0
   21.4509   -5.1985  -20.5154 O   0  0  0  0  0  0  0  0  0  0  0  0
   20.1739   -8.8409  -19.2515 C   0  0  0  0  0  0  0  0  0  0  0  0
   19.3318   -7.9253  -19.2886 O   0  0  0  0  0  0  0  0  0  0  0  0
   23.0047   -6.1730  -19.1737 O   0  0  0  0  0  0  0  0  0  0  0  0
   20.5363   -9.4754  -18.0599 N   0  0  0  0  0  0  0  0  0  0  0  0
   19.8216   -9.1393  -16.8160 C   0  0  1  0  0  0  0  0  0  0  0  0
   19.3288  -10.3945  -16.1924 C   0  0  0  0  0  0  0  0  0  0  0  0
   18.7098  -10.1685  -14.8517 C   0  0  0  0  0  0  0  0  0  0  0  0
   17.2214  -10.3714  -14.9396 C   0  0  0  0  0  0  0  0  0  0  0  0
   16.7173  -11.3080  -15.5945 O   0  0  0  0  0  0  0  0  0  0  0  0
   20.7297   -8.2969  -16.0280 C   0  0  0  0  0  0  0  0  0  0  0  0
   21.9698   -8.6257  -15.8997 O   0  0  0  0  0  0  0  0  0  0  0  0
   16.3947   -9.4882  -14.2713 O   0  0  0  0  0  0  0  0  0  0  0  0
   19.4094   -3.4691  -15.9486 C   0  0  0  0  0  0  0  0  0  0  0  0
   20.6953   -4.1663  -15.7467 C   0  0  0  0  0  0  0  0  0  0  0  0
   20.9095   -4.9330  -14.5100 C   0  0  2  0  0  0  0  0  0  0  0  0
   21.6253   -4.1056  -13.4498 C   0  0  0  0  0  0  0  0  0  0  0  0
   21.3860   -6.3324  -14.5745 C   0  0  2  0  0  0  0  0  0  0  0  0
   20.3872   -7.1022  -15.3641 N   0  0  0  0  0  0  0  0  0  0  0  0
   21.4601   -6.9946  -13.2659 C   0  0  0  0  0  0  0  0  0  0  0  0
   20.3858   -7.6743  -12.7154 O   0  0  0  0  0  0  0  0  0  0  0  0
   22.5052   -6.9968  -12.5335 O   0  0  0  0  0  0  0  0  0  0  0  0
  2  1  1  6
  3  4  1  0
  3  2  1  0
  5  4  1  0
  5  6  2  0
  7  2  1  0
  7  8  2  0
  9  5  1  0
 10 11  1  0
 10  7  1  0
 11 12  1  1
 13 12  1  0
 14 13  1  0
 15 14  2  0
 16 11  1  0
 17 16  2  0
 18 14  1  0
 20 19  1  0
 21 20  1  0
 21 22  1  1
 23 24  1  6
 23 21  1  0
 24 16  1  0
 25 23  1  0
 26 25  1  0
 27 25  2  0
M  END
$$$$
