EEI.pdb
     RDKit          3D

 27 26  0  0  1  0  0  0  0  0999 V2000
   22.5784  -39.1336   -7.4268 N   0  0  0  0  0  0  0  0  0  0  0  0
   23.8500  -38.5401   -7.7171 C   0  0  1  0  0  0  0  0  0  0  0  0
   23.7491  -37.2634   -8.4823 C   0  0  0  0  0  0  0  0  0  0  0  0
   23.3281  -37.4177   -9.9146 C   0  0  0  0  0  0  0  0  0  0  0  0
   24.3747  -37.9282  -10.8155 C   0  0  0  0  0  0  0  0  0  0  0  0
   24.1764  -38.0463  -12.0351 O   0  0  0  0  0  0  0  0  0  0  0  0
   24.5641  -38.2414   -6.4467 C   0  0  0  0  0  0  0  0  0  0  0  0
   23.9025  -37.9999   -5.4206 O   0  0  0  0  0  0  0  0  0  0  0  0
   25.6116  -38.2858  -10.2896 O   0  0  0  0  0  0  0  0  0  0  0  0
   25.9619  -38.2428   -6.4517 N   0  0  0  0  0  0  0  0  0  0  0  0
   26.6892  -38.0367   -5.1869 C   0  0  1  0  0  0  0  0  0  0  0  0
   27.9411  -38.8362   -5.2186 C   0  0  0  0  0  0  0  0  0  0  0  0
   28.7702  -38.6589   -3.9885 C   0  0  0  0  0  0  0  0  0  0  0  0
   30.0209  -39.4887   -4.0959 C   0  0  0  0  0  0  0  0  0  0  0  0
   30.2912  -40.1514   -5.1196 O   0  0  0  0  0  0  0  0  0  0  0  0
   26.8114  -36.5848   -5.0081 C   0  0  0  0  0  0  0  0  0  0  0  0
   27.4218  -35.8726   -5.8926 O   0  0  0  0  0  0  0  0  0  0  0  0
   30.8913  -39.5117   -3.0226 O   0  0  0  0  0  0  0  0  0  0  0  0
   23.5893  -31.8670   -3.7090 C   0  0  0  0  0  0  0  0  0  0  0  0
   24.8488  -32.3652   -4.2974 C   0  0  0  0  0  0  0  0  0  0  0  0
   25.1015  -33.8137   -4.3312 C   0  0  2  0  0  0  0  0  0  0  0  0
   23.9144  -34.6062   -3.7981 C   0  0  0  0  0  0  0  0  0  0  0  0
   26.4062  -34.3525   -3.8876 C   0  0  2  0  0  0  0  0  0  0  0  0
   26.3064  -35.8364   -3.9261 N   0  0  0  0  0  0  0  0  0  0  0  0
   26.7495  -34.0089   -2.5018 C   0  0  0  0  0  0  0  0  0  0  0  0
   27.2659  -32.7728   -2.1491 O   0  0  0  0  0  0  0  0  0  0  0  0
   26.6064  -34.8104   -1.5190 O   0  0  0  0  0  0  0  0  0  0  0  0
  2  1  1  1
  3  4  1  0
  3  2  1  0
  5  4  1  0
  5  6  2  0
  7  2  1  0
  7  8  2  0
  9  5  1  0
 10 11  1  0
 10  7  1  0
 11 12  1  6
 13 12  1  0
 14 13  1  0
 15 14  2  0
 16 11  1  0
 17 16  2  0
 18 14  1  0
 20 19  1  0
 21 20  1  0
 21 22  1  1
 23 24  1  1
 23 21  1  0
 24 16  1  0
 25 23  1  0
 26 25  1  0
 27 25  2  0
M  END
$$$$
