EEI.pdb
     RDKit          3D

 27 26  0  0  1  0  0  0  0  0999 V2000
   15.0879   -8.9226  -15.0978 N   0  0  0  0  0  0  0  0  0  0  0  0
   15.6192   -9.1518  -13.7868 C   0  0  1  0  0  0  0  0  0  0  0  0
   16.3822  -10.4285  -13.6696 C   0  0  0  0  0  0  0  0  0  0  0  0
   16.9136  -10.9672  -14.9657 C   0  0  0  0  0  0  0  0  0  0  0  0
   17.6010  -12.2650  -14.8608 C   0  0  0  0  0  0  0  0  0  0  0  0
   17.6825  -12.8674  -13.7786 O   0  0  0  0  0  0  0  0  0  0  0  0
   16.5450   -8.0459  -13.4220 C   0  0  0  0  0  0  0  0  0  0  0  0
   17.0270   -7.3354  -14.3230 O   0  0  0  0  0  0  0  0  0  0  0  0
   18.1710  -12.8281  -15.9976 O   0  0  0  0  0  0  0  0  0  0  0  0
   16.8418   -7.8435  -12.0712 N   0  0  0  0  0  0  0  0  0  0  0  0
   17.5565   -6.6211  -11.6637 C   0  0  1  0  0  0  0  0  0  0  0  0
   17.1796   -6.2894  -10.2654 C   0  0  0  0  0  0  0  0  0  0  0  0
   15.8537   -5.6075  -10.1714 C   0  0  0  0  0  0  0  0  0  0  0  0
   15.5142   -5.3556   -8.7273 C   0  0  0  0  0  0  0  0  0  0  0  0
   16.2090   -5.8093   -7.7937 O   0  0  0  0  0  0  0  0  0  0  0  0
   18.9774   -6.8538  -11.9503 C   0  0  0  0  0  0  0  0  0  0  0  0
   19.6165   -7.7907  -11.3370 O   0  0  0  0  0  0  0  0  0  0  0  0
   14.3962   -4.5972   -8.4353 O   0  0  0  0  0  0  0  0  0  0  0  0
   21.2110   -6.5455  -17.0105 C   0  0  0  0  0  0  0  0  0  0  0  0
   20.9804   -6.0763  -15.6295 C   0  0  0  0  0  0  0  0  0  0  0  0
   21.2985   -6.9699  -14.5054 C   0  0  2  0  0  0  0  0  0  0  0  0
   20.6981   -8.3567  -14.6995 C   0  0  0  0  0  0  0  0  0  0  0  0
   21.1937   -6.4810  -13.1128 C   0  0  2  0  0  0  0  0  0  0  0  0
   19.7662   -6.1376  -12.8724 N   0  0  0  0  0  0  0  0  0  0  0  0
   21.9516   -5.2492  -12.8581 C   0  0  0  0  0  0  0  0  0  0  0  0
   21.3336   -4.0404  -12.5825 O   0  0  0  0  0  0  0  0  0  0  0  0
   23.2263   -5.1883  -12.8724 O   0  0  0  0  0  0  0  0  0  0  0  0
  2  1  1  6
  3  4  1  0
  3  2  1  0
  5  4  1  0
  5  6  2  0
  7  2  1  0
  7  8  2  0
  9  5  1  0
 10 11  1  0
 10  7  1  0
 11 12  1  1
 13 12  1  0
 14 13  1  0
 15 14  2  0
 16 11  1  0
 17 16  2  0
 18 14  1  0
 20 19  1  0
 21 20  1  0
 21 22  1  1
 23 24  1  6
 23 21  1  0
 24 16  1  0
 25 23  1  0
 26 25  1  0
 27 25  2  0
M  END
$$$$
