EEI.pdb
     RDKit          3D

 27 26  0  0  1  0  0  0  0  0999 V2000
   28.7204  -18.7942  -18.6016 N   0  0  0  0  0  0  0  0  0  0  0  0
   27.5089  -19.5259  -18.3777 C   0  0  1  0  0  0  0  0  0  0  0  0
   27.7118  -21.0020  -18.3007 C   0  0  0  0  0  0  0  0  0  0  0  0
   28.6206  -21.4573  -17.1965 C   0  0  0  0  0  0  0  0  0  0  0  0
   28.7912  -22.9163  -17.0977 C   0  0  0  0  0  0  0  0  0  0  0  0
   28.2725  -23.6849  -17.9229 O   0  0  0  0  0  0  0  0  0  0  0  0
   26.8941  -19.0945  -17.0934 C   0  0  0  0  0  0  0  0  0  0  0  0
   27.5457  -18.3658  -16.3230 O   0  0  0  0  0  0  0  0  0  0  0  0
   29.5492  -23.4450  -16.0583 O   0  0  0  0  0  0  0  0  0  0  0  0
   25.5982  -19.5261  -16.7967 N   0  0  0  0  0  0  0  0  0  0  0  0
   24.8800  -18.9270  -15.6582 C   0  0  1  0  0  0  0  0  0  0  0  0
   23.6458  -18.2711  -16.1620 C   0  0  0  0  0  0  0  0  0  0  0  0
   22.4920  -19.2144  -16.2653 C   0  0  0  0  0  0  0  0  0  0  0  0
   21.3166  -18.5117  -16.8889 C   0  0  0  0  0  0  0  0  0  0  0  0
   20.2413  -18.3457  -16.2752 O   0  0  0  0  0  0  0  0  0  0  0  0
   24.7277  -19.9888  -14.6560 C   0  0  0  0  0  0  0  0  0  0  0  0
   24.3317  -21.1631  -15.0119 O   0  0  0  0  0  0  0  0  0  0  0  0
   21.4406  -18.0390  -18.1816 O   0  0  0  0  0  0  0  0  0  0  0  0
   25.4871  -21.2872   -8.6496 C   0  0  0  0  0  0  0  0  0  0  0  0
   25.6322  -21.7367  -10.0487 C   0  0  0  0  0  0  0  0  0  0  0  0
   25.5742  -20.7429  -11.1314 C   0  0  2  0  0  0  0  0  0  0  0  0
   25.4087  -19.3282  -10.5907 C   0  0  0  0  0  0  0  0  0  0  0  0
   24.7581  -21.0030  -12.3380 C   0  0  2  0  0  0  0  0  0  0  0  0
   24.9837  -19.8699  -13.2754 N   0  0  0  0  0  0  0  0  0  0  0  0
   23.3124  -21.0303  -12.0815 C   0  0  0  0  0  0  0  0  0  0  0  0
   22.5099  -19.9113  -12.2328 O   0  0  0  0  0  0  0  0  0  0  0  0
   22.6823  -22.0722  -11.6992 O   0  0  0  0  0  0  0  0  0  0  0  0
  2  1  1  1
  3  4  1  0
  3  2  1  0
  5  4  1  0
  5  6  2  0
  7  2  1  0
  7  8  2  0
  9  5  1  0
 10 11  1  0
 10  7  1  0
 11 12  1  6
 13 12  1  0
 14 13  1  0
 15 14  2  0
 16 11  1  0
 17 16  2  0
 18 14  1  0
 20 19  1  0
 21 20  1  0
 21 22  1  1
 23 24  1  6
 23 21  1  0
 24 16  1  0
 25 23  1  0
 26 25  1  0
 27 25  2  0
M  END
$$$$
