EEI.pdb
     RDKit          3D

 27 26  0  0  1  0  0  0  0  0999 V2000
   16.6087  -13.7124  -16.5212 N   0  0  0  0  0  0  0  0  0  0  0  0
   16.4300  -12.2907  -16.5364 C   0  0  1  0  0  0  0  0  0  0  0  0
   15.6667  -11.7752  -15.3628 C   0  0  0  0  0  0  0  0  0  0  0  0
   14.1918  -12.0506  -15.3989 C   0  0  0  0  0  0  0  0  0  0  0  0
   13.4218  -11.4425  -14.3012 C   0  0  0  0  0  0  0  0  0  0  0  0
   12.4594  -12.0312  -13.7835 O   0  0  0  0  0  0  0  0  0  0  0  0
   17.7577  -11.6196  -16.5324 C   0  0  0  0  0  0  0  0  0  0  0  0
   18.6782  -12.0989  -15.8454 O   0  0  0  0  0  0  0  0  0  0  0  0
   13.7799  -10.1824  -13.8340 O   0  0  0  0  0  0  0  0  0  0  0  0
   17.9243  -10.4673  -17.3058 N   0  0  0  0  0  0  0  0  0  0  0  0
   19.2418   -9.8087  -17.3466 C   0  0  1  0  0  0  0  0  0  0  0  0
   19.2867   -8.8997  -18.5209 C   0  0  0  0  0  0  0  0  0  0  0  0
   20.5872   -8.1742  -18.6396 C   0  0  0  0  0  0  0  0  0  0  0  0
   20.5580   -7.2746  -19.8455 C   0  0  0  0  0  0  0  0  0  0  0  0
   21.5042   -7.2257  -20.6595 O   0  0  0  0  0  0  0  0  0  0  0  0
   19.4545   -9.2192  -16.0191 C   0  0  0  0  0  0  0  0  0  0  0  0
   18.4450   -8.8893  -15.2880 O   0  0  0  0  0  0  0  0  0  0  0  0
   19.4448   -6.4814  -20.0497 O   0  0  0  0  0  0  0  0  0  0  0  0
   22.4994  -10.0909  -10.9743 C   0  0  0  0  0  0  0  0  0  0  0  0
   21.8813   -9.0524  -11.8227 C   0  0  0  0  0  0  0  0  0  0  0  0
   21.5007   -9.3865  -13.2035 C   0  0  2  0  0  0  0  0  0  0  0  0
   22.6214  -10.1115  -13.9381 C   0  0  0  0  0  0  0  0  0  0  0  0
   20.8036   -8.3895  -14.0458 C   0  0  2  0  0  0  0  0  0  0  0  0
   20.7014   -8.9633  -15.4147 N   0  0  0  0  0  0  0  0  0  0  0  0
   21.5340   -7.1241  -14.1943 C   0  0  0  0  0  0  0  0  0  0  0  0
   22.1667   -6.7656  -15.3733 O   0  0  0  0  0  0  0  0  0  0  0  0
   21.6491   -6.2612  -13.2611 O   0  0  0  0  0  0  0  0  0  0  0  0
  2  1  1  1
  3  4  1  0
  3  2  1  0
  5  4  1  0
  5  6  2  0
  7  2  1  0
  7  8  2  0
  9  5  1  0
 10 11  1  0
 10  7  1  0
 11 12  1  6
 13 12  1  0
 14 13  1  0
 15 14  2  0
 16 11  1  0
 17 16  2  0
 18 14  1  0
 20 19  1  0
 21 20  1  0
 21 22  1  6
 23 24  1  6
 23 21  1  0
 24 16  1  0
 25 23  1  0
 26 25  1  0
 27 25  2  0
M  END
$$$$
