EEI.pdb
     RDKit          3D

 27 26  0  0  1  0  0  0  0  0999 V2000
   17.0619  -13.9494  -17.1328 N   0  0  0  0  0  0  0  0  0  0  0  0
   16.5753  -12.6025  -17.0810 C   0  0  1  0  0  0  0  0  0  0  0  0
   15.8213  -12.2907  -15.8320 C   0  0  0  0  0  0  0  0  0  0  0  0
   14.5642  -13.0874  -15.6383 C   0  0  0  0  0  0  0  0  0  0  0  0
   13.7746  -12.7184  -14.4517 C   0  0  0  0  0  0  0  0  0  0  0  0
   14.1162  -11.7801  -13.7144 O   0  0  0  0  0  0  0  0  0  0  0  0
   17.7191  -11.6543  -17.1578 C   0  0  0  0  0  0  0  0  0  0  0  0
   18.8426  -12.0256  -16.7720 O   0  0  0  0  0  0  0  0  0  0  0  0
   12.6219  -13.4358  -14.1501 O   0  0  0  0  0  0  0  0  0  0  0  0
   17.4888  -10.3720  -17.6642 N   0  0  0  0  0  0  0  0  0  0  0  0
   18.6359   -9.4985  -17.9684 C   0  0  1  0  0  0  0  0  0  0  0  0
   18.2199   -8.4985  -18.9855 C   0  0  0  0  0  0  0  0  0  0  0  0
   19.3123   -7.5407  -19.3334 C   0  0  0  0  0  0  0  0  0  0  0  0
   18.8140   -6.5511  -20.3515 C   0  0  0  0  0  0  0  0  0  0  0  0
   18.3338   -5.4460  -20.0225 O   0  0  0  0  0  0  0  0  0  0  0  0
   19.1307   -8.9965  -16.6807 C   0  0  0  0  0  0  0  0  0  0  0  0
   18.3222   -8.8581  -15.6859 O   0  0  0  0  0  0  0  0  0  0  0  0
   18.8945   -6.8851  -21.6903 O   0  0  0  0  0  0  0  0  0  0  0  0
   23.1955  -11.2336  -14.3500 C   0  0  0  0  0  0  0  0  0  0  0  0
   21.9739  -10.4536  -14.6328 C   0  0  0  0  0  0  0  0  0  0  0  0
   22.0445   -8.9845  -14.6332 C   0  0  2  0  0  0  0  0  0  0  0  0
   22.7392   -8.4526  -13.3859 C   0  0  0  0  0  0  0  0  0  0  0  0
   20.8654   -8.1825  -15.0282 C   0  0  2  0  0  0  0  0  0  0  0  0
   20.4603   -8.6341  -16.3867 N   0  0  0  0  0  0  0  0  0  0  0  0
   21.1393   -6.7447  -15.1480 C   0  0  0  0  0  0  0  0  0  0  0  0
   21.2631   -6.1117  -16.3739 O   0  0  0  0  0  0  0  0  0  0  0  0
   21.2880   -5.9681  -14.1462 O   0  0  0  0  0  0  0  0  0  0  0  0
  2  1  1  1
  3  4  1  0
  3  2  1  0
  5  4  1  0
  5  6  2  0
  7  2  1  0
  7  8  2  0
  9  5  1  0
 10 11  1  0
 10  7  1  0
 11 12  1  6
 13 12  1  0
 14 13  1  0
 15 14  2  0
 16 11  1  0
 17 16  2  0
 18 14  1  0
 20 19  1  0
 21 20  1  0
 21 22  1  1
 23 24  1  6
 23 21  1  0
 24 16  1  0
 25 23  1  0
 26 25  1  0
 27 25  2  0
M  END
$$$$
