EEI.pdb
     RDKit          3D

 27 26  0  0  1  0  0  0  0  0999 V2000
   13.8845  -22.6996   -3.1248 N   0  0  0  0  0  0  0  0  0  0  0  0
   14.2149  -23.2719   -1.8533 C   0  0  1  0  0  0  0  0  0  0  0  0
   15.6009  -23.8203   -1.7906 C   0  0  0  0  0  0  0  0  0  0  0  0
   15.9036  -24.8877   -2.8013 C   0  0  0  0  0  0  0  0  0  0  0  0
   15.4098  -26.2296   -2.4506 C   0  0  0  0  0  0  0  0  0  0  0  0
   15.5303  -26.6825   -1.3012 O   0  0  0  0  0  0  0  0  0  0  0  0
   14.0989  -22.2350   -0.7928 C   0  0  0  0  0  0  0  0  0  0  0  0
   13.9983  -21.0389   -1.1215 O   0  0  0  0  0  0  0  0  0  0  0  0
   14.7956  -27.0065   -3.4271 O   0  0  0  0  0  0  0  0  0  0  0  0
   14.1072  -22.6448    0.5435 N   0  0  0  0  0  0  0  0  0  0  0  0
   13.8833  -21.6488    1.6061 C   0  0  1  0  0  0  0  0  0  0  0  0
   12.8051  -22.1393    2.5029 C   0  0  0  0  0  0  0  0  0  0  0  0
   12.5455  -21.2186    3.6503 C   0  0  0  0  0  0  0  0  0  0  0  0
   11.3990  -21.7427    4.4719 C   0  0  0  0  0  0  0  0  0  0  0  0
   11.5682  -22.2420    5.6043 O   0  0  0  0  0  0  0  0  0  0  0  0
   15.1958  -21.3747    2.2039 C   0  0  0  0  0  0  0  0  0  0  0  0
   16.0435  -22.3316    2.3715 O   0  0  0  0  0  0  0  0  0  0  0  0
   10.1224  -21.6647    3.9480 O   0  0  0  0  0  0  0  0  0  0  0  0
   18.6894  -17.3256    1.0466 C   0  0  0  0  0  0  0  0  0  0  0  0
   18.1847  -18.6253    1.5332 C   0  0  0  0  0  0  0  0  0  0  0  0
   17.5771  -18.7042    2.8703 C   0  0  2  0  0  0  0  0  0  0  0  0
   18.4467  -18.0328    3.9258 C   0  0  0  0  0  0  0  0  0  0  0  0
   16.9680  -19.9690    3.3379 C   0  0  2  0  0  0  0  0  0  0  0  0
   15.6657  -20.1178    2.6339 N   0  0  0  0  0  0  0  0  0  0  0  0
   16.6528  -19.9807    4.7722 C   0  0  0  0  0  0  0  0  0  0  0  0
   17.5791  -20.3512    5.7333 O   0  0  0  0  0  0  0  0  0  0  0  0
   15.5132  -19.6582    5.2477 O   0  0  0  0  0  0  0  0  0  0  0  0
  2  1  1  6
  3  4  1  0
  3  2  1  0
  5  4  1  0
  5  6  2  0
  7  2  1  0
  7  8  2  0
  9  5  1  0
 10 11  1  0
 10  7  1  0
 11 12  1  1
 13 12  1  0
 14 13  1  0
 15 14  2  0
 16 11  1  0
 17 16  2  0
 18 14  1  0
 20 19  1  0
 21 20  1  0
 21 22  1  1
 23 24  1  6
 23 21  1  0
 24 16  1  0
 25 23  1  0
 26 25  1  0
 27 25  2  0
M  END
$$$$
