EEI.pdb
     RDKit          3D

 27 26  0  0  1  0  0  0  0  0999 V2000
   13.8397  -21.7276    1.0915 N   0  0  0  0  0  0  0  0  0  0  0  0
   14.0631  -21.6365    2.5040 C   0  0  1  0  0  0  0  0  0  0  0  0
   15.2563  -22.4029    2.9675 C   0  0  0  0  0  0  0  0  0  0  0  0
   15.3017  -23.8335    2.5160 C   0  0  0  0  0  0  0  0  0  0  0  0
   16.5030  -24.5758    2.9325 C   0  0  0  0  0  0  0  0  0  0  0  0
   16.4781  -25.3565    3.8972 O   0  0  0  0  0  0  0  0  0  0  0  0
   14.2727  -20.2142    2.8865 C   0  0  0  0  0  0  0  0  0  0  0  0
   14.5524  -19.3829    2.0035 O   0  0  0  0  0  0  0  0  0  0  0  0
   17.6908  -24.3990    2.2308 O   0  0  0  0  0  0  0  0  0  0  0  0
   14.1470  -19.8607    4.2330 N   0  0  0  0  0  0  0  0  0  0  0  0
   14.0751  -18.4361    4.6024 C   0  0  1  0  0  0  0  0  0  0  0  0
   13.1892  -18.2924    5.7865 C   0  0  0  0  0  0  0  0  0  0  0  0
   13.1018  -16.8830    6.2741 C   0  0  0  0  0  0  0  0  0  0  0  0
   12.1487  -16.8065    7.4360 C   0  0  0  0  0  0  0  0  0  0  0  0
   12.5314  -16.9399    8.6175 O   0  0  0  0  0  0  0  0  0  0  0  0
   15.4607  -17.9671    4.7261 C   0  0  0  0  0  0  0  0  0  0  0  0
   16.3966  -18.7917    5.0523 O   0  0  0  0  0  0  0  0  0  0  0  0
   10.8099  -16.5813    7.1771 O   0  0  0  0  0  0  0  0  0  0  0  0
   18.3282  -14.5682    1.3564 C   0  0  0  0  0  0  0  0  0  0  0  0
   18.0460  -15.6209    2.3527 C   0  0  0  0  0  0  0  0  0  0  0  0
   17.6649  -15.2323    3.7191 C   0  0  2  0  0  0  0  0  0  0  0  0
   18.5684  -14.1342    4.2662 C   0  0  0  0  0  0  0  0  0  0  0  0
   17.3355  -16.2679    4.7233 C   0  0  2  0  0  0  0  0  0  0  0  0
   15.9132  -16.6498    4.5124 N   0  0  0  0  0  0  0  0  0  0  0  0
   17.4233  -15.7969    6.1115 C   0  0  0  0  0  0  0  0  0  0  0  0
   18.5421  -16.0120    6.8996 O   0  0  0  0  0  0  0  0  0  0  0  0
   16.4876  -15.1613    6.7024 O   0  0  0  0  0  0  0  0  0  0  0  0
  2  1  1  6
  3  4  1  0
  3  2  1  0
  5  4  1  0
  5  6  2  0
  7  2  1  0
  7  8  2  0
  9  5  1  0
 10 11  1  0
 10  7  1  0
 11 12  1  1
 13 12  1  0
 14 13  1  0
 15 14  2  0
 16 11  1  0
 17 16  2  0
 18 14  1  0
 20 19  1  0
 21 20  1  0
 21 22  1  1
 23 24  1  6
 23 21  1  0
 24 16  1  0
 25 23  1  0
 26 25  1  0
 27 25  2  0
M  END
$$$$
