GQW.pdb
     RDKit          3D

 28 29  0  0  1  0  0  0  0  0999 V2000
   22.3068  -26.2126  -16.0437 N   0  0  0  0  0  0  0  0  0  0  0  0
   22.7159  -26.4667  -14.6817 C   0  0  0  0  0  0  0  0  0  0  0  0
   21.6242  -27.1574  -13.9532 C   0  0  0  0  0  0  0  0  0  0  0  0
   20.5462  -27.3827  -14.5837 O   0  0  0  0  0  0  0  0  0  0  0  0
   23.2069  -29.1376   -9.2953 N   0  0  0  0  0  0  0  0  0  0  0  0
   23.0509  -30.2660  -10.1267 C   0  0  0  0  0  0  0  0  0  0  0  0
   23.8710  -31.2034  -10.1727 O   0  0  0  0  0  0  0  0  0  0  0  0
   21.7898  -30.2642  -10.9821 C   0  0  0  0  0  0  0  0  0  0  0  0
   21.0901  -28.9791  -10.7585 C   0  0  0  0  0  0  0  0  0  0  0  0
   20.6075  -28.3567  -12.0493 C   0  0  2  0  0  0  0  0  0  0  0  0
   21.7344  -27.5687  -12.6063 N   0  0  0  0  0  0  0  0  0  0  0  0
   19.5255  -27.4136  -11.7907 C   0  0  0  0  0  0  0  0  0  0  0  0
   19.8112  -26.3226  -11.1772 O   0  0  0  0  0  0  0  0  0  0  0  0
   18.1652  -27.5470  -12.1443 N   0  0  0  0  0  0  0  0  0  0  0  0
   17.2068  -26.4638  -11.9163 C   0  0  1  0  0  0  0  0  0  0  0  0
   16.2540  -26.3668  -13.0692 C   0  0  0  0  0  0  0  0  0  0  0  0
   15.2711  -25.2855  -12.8839 C   0  0  0  0  0  0  0  0  0  0  0  0
   15.4752  -23.9142  -13.0949 C   0  0  0  0  0  0  0  0  0  0  0  0
   14.3735  -23.2157  -12.7895 N   0  0  0  0  0  0  0  0  0  0  0  0
   13.4187  -24.0855  -12.3739 C   0  0  0  0  0  0  0  0  0  0  0  0
   12.1075  -23.8713  -11.9667 C   0  0  0  0  0  0  0  0  0  0  0  0
   11.3659  -24.9714  -11.6210 C   0  0  0  0  0  0  0  0  0  0  0  0
   11.8816  -26.2559  -11.6678 C   0  0  0  0  0  0  0  0  0  0  0  0
   13.1695  -26.4482  -12.0686 C   0  0  0  0  0  0  0  0  0  0  0  0
   13.9524  -25.3570  -12.4261 C   0  0  0  0  0  0  0  0  0  0  0  0
   16.6302  -26.5939  -10.5922 C   0  0  0  0  0  0  0  0  0  0  0  0
   16.6040  -27.7791   -9.8378 O   0  0  0  0  0  0  0  0  0  0  0  0
   16.0870  -25.6031  -10.0154 O   0  0  0  0  0  0  0  0  0  0  0  0
  1  2  1  0
  2  3  1  0
  3  4  2  0
  5  6  1  0
  6  8  1  0
  7  6  2  0
  8  9  1  0
 10  9  1  1
 11 10  1  0
 11  3  1  0
 12 14  1  0
 12 10  1  0
 13 12  2  0
 15 14  1  0
 15 16  1  6
 17 18  2  0
 17 16  1  0
 19 18  1  0
 20 25  2  0
 20 19  1  0
 21 20  1  0
 22 21  2  0
 22 23  1  0
 23 24  2  0
 24 25  1  0
 25 17  1  0
 26 27  1  0
 26 15  1  0
 28 26  2  0
M  END
$$$$
