GQW.pdb
     RDKit          3D

 28 29  0  0  1  0  0  0  0  0999 V2000
   29.0401  -18.1759  -16.5562 N   0  0  0  0  0  0  0  0  0  0  0  0
   28.1502  -19.3071  -16.4328 C   0  0  0  0  0  0  0  0  0  0  0  0
   27.2164  -19.0866  -15.3018 C   0  0  0  0  0  0  0  0  0  0  0  0
   27.1434  -17.9155  -14.8185 O   0  0  0  0  0  0  0  0  0  0  0  0
   21.7091  -19.5383  -13.3802 N   0  0  0  0  0  0  0  0  0  0  0  0
   22.0884  -18.9215  -14.5903 C   0  0  0  0  0  0  0  0  0  0  0  0
   21.3590  -18.1257  -15.2133 O   0  0  0  0  0  0  0  0  0  0  0  0
   23.4754  -19.2987  -15.0965 C   0  0  0  0  0  0  0  0  0  0  0  0
   24.0967  -20.1953  -14.0958 C   0  0  0  0  0  0  0  0  0  0  0  0
   25.4701  -19.7220  -13.6761 C   0  0  2  0  0  0  0  0  0  0  0  0
   26.4170  -20.1120  -14.7494 N   0  0  0  0  0  0  0  0  0  0  0  0
   25.9024  -20.4118  -12.4660 C   0  0  0  0  0  0  0  0  0  0  0  0
   25.9696  -21.6936  -12.4948 O   0  0  0  0  0  0  0  0  0  0  0  0
   26.2740  -19.8342  -11.2326 N   0  0  0  0  0  0  0  0  0  0  0  0
   26.5419  -20.6586  -10.0527 C   0  0  1  0  0  0  0  0  0  0  0  0
   27.5178  -19.9662   -9.1501 C   0  0  0  0  0  0  0  0  0  0  0  0
   27.1863  -20.1574   -7.7278 C   0  0  0  0  0  0  0  0  0  0  0  0
   26.0101  -20.7117   -7.2025 C   0  0  0  0  0  0  0  0  0  0  0  0
   26.0318  -20.6945   -5.8630 N   0  0  0  0  0  0  0  0  0  0  0  0
   27.2030  -20.1388   -5.4626 C   0  0  0  0  0  0  0  0  0  0  0  0
   27.7142  -19.9106   -4.1909 C   0  0  0  0  0  0  0  0  0  0  0  0
   28.9592  -19.3431   -4.1031 C   0  0  0  0  0  0  0  0  0  0  0  0
   29.6973  -19.0017   -5.2241 C   0  0  0  0  0  0  0  0  0  0  0  0
   29.1809  -19.2315   -6.4638 C   0  0  0  0  0  0  0  0  0  0  0  0
   27.9213  -19.8047   -6.5925 C   0  0  0  0  0  0  0  0  0  0  0  0
   25.2885  -21.0889   -9.4640 C   0  0  0  0  0  0  0  0  0  0  0  0
   25.1140  -22.2598   -8.7069 O   0  0  0  0  0  0  0  0  0  0  0  0
   24.2292  -20.4062   -9.6099 O   0  0  0  0  0  0  0  0  0  0  0  0
  1  2  1  0
  2  3  1  0
  3  4  2  0
  5  6  1  0
  6  8  1  0
  7  6  2  0
  8  9  1  0
 10  9  1  6
 11 10  1  0
 11  3  1  0
 12 14  1  0
 12 10  1  0
 13 12  2  0
 15 14  1  0
 15 16  1  1
 17 18  2  0
 17 16  1  0
 19 18  1  0
 20 25  2  0
 20 19  1  0
 21 20  1  0
 22 21  2  0
 22 23  1  0
 23 24  2  0
 24 25  1  0
 25 17  1  0
 26 27  1  0
 26 15  1  0
 28 26  2  0
M  END
$$$$
