GQW.pdb
     RDKit          3D

 28 29  0  0  1  0  0  0  0  0999 V2000
   29.6794  -22.9299  -16.6928 N   0  0  0  0  0  0  0  0  0  0  0  0
   28.4259  -22.2164  -16.7734 C   0  0  0  0  0  0  0  0  0  0  0  0
   28.2786  -21.3310  -15.5927 C   0  0  0  0  0  0  0  0  0  0  0  0
   29.3314  -20.8095  -15.1131 O   0  0  0  0  0  0  0  0  0  0  0  0
   26.0298  -16.4458  -13.9091 N   0  0  0  0  0  0  0  0  0  0  0  0
   26.3650  -16.8046  -15.2312 C   0  0  0  0  0  0  0  0  0  0  0  0
   26.6803  -15.9769  -16.1081 O   0  0  0  0  0  0  0  0  0  0  0  0
   26.3154  -18.2993  -15.5233 C   0  0  0  0  0  0  0  0  0  0  0  0
   25.9910  -18.9994  -14.2601 C   0  0  0  0  0  0  0  0  0  0  0  0
   27.0254  -20.0421  -13.9003 C   0  0  2  0  0  0  0  0  0  0  0  0
   27.0327  -21.0490  -14.9898 N   0  0  0  0  0  0  0  0  0  0  0  0
   26.6412  -20.7465  -12.6824 C   0  0  0  0  0  0  0  0  0  0  0  0
   25.7610  -21.6764  -12.7766 O   0  0  0  0  0  0  0  0  0  0  0  0
   27.1319  -20.5358  -11.3755 N   0  0  0  0  0  0  0  0  0  0  0  0
   26.6627  -21.3385  -10.2445 C   0  0  1  0  0  0  0  0  0  0  0  0
   27.7693  -21.5274   -9.2515 C   0  0  0  0  0  0  0  0  0  0  0  0
   27.6594  -20.5937   -8.1177 C   0  0  0  0  0  0  0  0  0  0  0  0
   26.7092  -19.5757   -7.9520 C   0  0  0  0  0  0  0  0  0  0  0  0
   26.9324  -18.8949   -6.8198 N   0  0  0  0  0  0  0  0  0  0  0  0
   28.0185  -19.4302   -6.2075 C   0  0  0  0  0  0  0  0  0  0  0  0
   28.6421  -19.1018   -5.0100 C   0  0  0  0  0  0  0  0  0  0  0  0
   29.7263  -19.8530   -4.6358 C   0  0  0  0  0  0  0  0  0  0  0  0
   30.1998  -20.9029   -5.4049 C   0  0  0  0  0  0  0  0  0  0  0  0
   29.5771  -21.2112   -6.5768 C   0  0  0  0  0  0  0  0  0  0  0  0
   28.4752  -20.4715   -6.9894 C   0  0  0  0  0  0  0  0  0  0  0  0
   25.4139  -20.7954   -9.7463 C   0  0  0  0  0  0  0  0  0  0  0  0
   24.5001  -21.4896   -8.9353 O   0  0  0  0  0  0  0  0  0  0  0  0
   25.0555  -19.6124  -10.0313 O   0  0  0  0  0  0  0  0  0  0  0  0
  1  2  1  0
  2  3  1  0
  3  4  2  0
  5  6  1  0
  6  8  1  0
  7  6  2  0
  8  9  1  0
 10  9  1  6
 11 10  1  0
 11  3  1  0
 12 14  1  0
 12 10  1  0
 13 12  2  0
 15 14  1  0
 15 16  1  1
 17 18  2  0
 17 16  1  0
 19 18  1  0
 20 25  2  0
 20 19  1  0
 21 20  1  0
 22 21  2  0
 22 23  1  0
 23 24  2  0
 24 25  1  0
 25 17  1  0
 26 27  1  0
 26 15  1  0
 28 26  2  0
M  END
$$$$
