GQW.pdb
     RDKit          3D

 28 29  0  0  1  0  0  0  0  0999 V2000
   29.5261  -23.5822  -17.5670 N   0  0  0  0  0  0  0  0  0  0  0  0
   28.2330  -22.9450  -17.6609 C   0  0  0  0  0  0  0  0  0  0  0  0
   28.0710  -21.9781  -16.5480 C   0  0  0  0  0  0  0  0  0  0  0  0
   29.0765  -21.7627  -15.8043 O   0  0  0  0  0  0  0  0  0  0  0  0
   29.1473  -17.9560  -15.9677 N   0  0  0  0  0  0  0  0  0  0  0  0
   27.8260  -17.4813  -15.8346 C   0  0  0  0  0  0  0  0  0  0  0  0
   27.5201  -16.4851  -15.1510 O   0  0  0  0  0  0  0  0  0  0  0  0
   26.7762  -18.2816  -16.5959 C   0  0  0  0  0  0  0  0  0  0  0  0
   26.0511  -19.1255  -15.6196 C   0  0  0  0  0  0  0  0  0  0  0  0
   26.8681  -20.3170  -15.1731 C   0  0  2  0  0  0  0  0  0  0  0  0
   26.8611  -21.2975  -16.2865 N   0  0  0  0  0  0  0  0  0  0  0  0
   26.2370  -20.9735  -14.0339 C   0  0  0  0  0  0  0  0  0  0  0  0
   25.1025  -21.5448  -14.2205 O   0  0  0  0  0  0  0  0  0  0  0  0
   26.7308  -21.0702  -12.7148 N   0  0  0  0  0  0  0  0  0  0  0  0
   25.9771  -21.7590  -11.6655 C   0  0  1  0  0  0  0  0  0  0  0  0
   26.8651  -22.0380  -10.4908 C   0  0  0  0  0  0  0  0  0  0  0  0
   26.7478  -21.0012   -9.4512 C   0  0  0  0  0  0  0  0  0  0  0  0
   25.6807  -20.1108   -9.2639 C   0  0  0  0  0  0  0  0  0  0  0  0
   25.9283  -19.2774   -8.2446 N   0  0  0  0  0  0  0  0  0  0  0  0
   27.1463  -19.5827   -7.7305 C   0  0  0  0  0  0  0  0  0  0  0  0
   27.8479  -19.0331   -6.6644 C   0  0  0  0  0  0  0  0  0  0  0  0
   29.0690  -19.5791   -6.3634 C   0  0  0  0  0  0  0  0  0  0  0  0
   29.6031  -20.6373   -7.0797 C   0  0  0  0  0  0  0  0  0  0  0  0
   28.9023  -21.1639   -8.1227 C   0  0  0  0  0  0  0  0  0  0  0  0
   27.6611  -20.6362   -8.4580 C   0  0  0  0  0  0  0  0  0  0  0  0
   24.7416  -21.0460  -11.4048 C   0  0  0  0  0  0  0  0  0  0  0  0
   24.5745  -19.6555  -11.5191 O   0  0  0  0  0  0  0  0  0  0  0  0
   23.6960  -21.6627  -11.0364 O   0  0  0  0  0  0  0  0  0  0  0  0
  1  2  1  0
  2  3  1  0
  3  4  2  0
  5  6  1  0
  6  8  1  0
  7  6  2  0
  8  9  1  0
 10  9  1  6
 11 10  1  0
 11  3  1  0
 12 14  1  0
 12 10  1  0
 13 12  2  0
 15 14  1  0
 15 16  1  1
 17 18  2  0
 17 16  1  0
 19 18  1  0
 20 25  2  0
 20 19  1  0
 21 20  1  0
 22 21  2  0
 22 23  1  0
 23 24  2  0
 24 25  1  0
 25 17  1  0
 26 27  1  0
 26 15  1  0
 28 26  2  0
M  END
$$$$
