GQW.pdb
     RDKit          3D

 28 29  0  0  1  0  0  0  0  0999 V2000
   30.7419  -24.1053  -16.0119 N   0  0  0  0  0  0  0  0  0  0  0  0
   29.7106  -23.2776  -16.5934 C   0  0  0  0  0  0  0  0  0  0  0  0
   29.1944  -22.3328  -15.5733 C   0  0  0  0  0  0  0  0  0  0  0  0
   29.6657  -22.4201  -14.3983 O   0  0  0  0  0  0  0  0  0  0  0  0
   27.7425  -15.9733  -16.0995 N   0  0  0  0  0  0  0  0  0  0  0  0
   27.7823  -17.1727  -16.8401 C   0  0  0  0  0  0  0  0  0  0  0  0
   27.3166  -17.2847  -17.9908 O   0  0  0  0  0  0  0  0  0  0  0  0
   28.4445  -18.3459  -16.1279 C   0  0  0  0  0  0  0  0  0  0  0  0
   27.3833  -19.1258  -15.4522 C   0  0  0  0  0  0  0  0  0  0  0  0
   27.9236  -20.3692  -14.7824 C   0  0  2  0  0  0  0  0  0  0  0  0
   28.2144  -21.3546  -15.8526 N   0  0  0  0  0  0  0  0  0  0  0  0
   26.9096  -20.9710  -13.9242 C   0  0  0  0  0  0  0  0  0  0  0  0
   26.0908  -21.8062  -14.4537 O   0  0  0  0  0  0  0  0  0  0  0  0
   26.7106  -20.7520  -12.5437 N   0  0  0  0  0  0  0  0  0  0  0  0
   25.8676  -21.6416  -11.7427 C   0  0  1  0  0  0  0  0  0  0  0  0
   26.5865  -22.0448  -10.4909 C   0  0  0  0  0  0  0  0  0  0  0  0
   26.6994  -20.9296   -9.5353 C   0  0  0  0  0  0  0  0  0  0  0  0
   25.7883  -19.8793   -9.3526 C   0  0  0  0  0  0  0  0  0  0  0  0
   26.2307  -19.0205   -8.4244 N   0  0  0  0  0  0  0  0  0  0  0  0
   27.4285  -19.4655   -7.9680 C   0  0  0  0  0  0  0  0  0  0  0  0
   28.2818  -18.9507   -6.9997 C   0  0  0  0  0  0  0  0  0  0  0  0
   29.4317  -19.6490   -6.7355 C   0  0  0  0  0  0  0  0  0  0  0  0
   29.7519  -20.8239   -7.3952 C   0  0  0  0  0  0  0  0  0  0  0  0
   28.9046  -21.3144   -8.3426 C   0  0  0  0  0  0  0  0  0  0  0  0
   27.7295  -20.6337   -8.6381 C   0  0  0  0  0  0  0  0  0  0  0  0
   24.5501  -21.0561  -11.5882 C   0  0  0  0  0  0  0  0  0  0  0  0
   23.3915  -21.7637  -11.2255 O   0  0  0  0  0  0  0  0  0  0  0  0
   24.3576  -19.8179  -11.7862 O   0  0  0  0  0  0  0  0  0  0  0  0
  1  2  1  0
  2  3  1  0
  3  4  2  0
  5  6  1  0
  6  8  1  0
  7  6  2  0
  8  9  1  0
 10  9  1  6
 11 10  1  0
 11  3  1  0
 12 14  1  0
 12 10  1  0
 13 12  2  0
 15 14  1  0
 15 16  1  1
 17 18  2  0
 17 16  1  0
 19 18  1  0
 20 25  2  0
 20 19  1  0
 21 20  1  0
 22 21  2  0
 22 23  1  0
 23 24  2  0
 24 25  1  0
 25 17  1  0
 26 27  1  0
 26 15  1  0
 28 26  2  0
M  END
$$$$
