GQW.pdb
     RDKit          3D

 28 29  0  0  1  0  0  0  0  0999 V2000
   29.2522  -24.2616  -16.9646 N   0  0  0  0  0  0  0  0  0  0  0  0
   29.7111  -22.9037  -17.1447 C   0  0  0  0  0  0  0  0  0  0  0  0
   29.2566  -22.0680  -16.0069 C   0  0  0  0  0  0  0  0  0  0  0  0
   29.8754  -22.1866  -14.9054 O   0  0  0  0  0  0  0  0  0  0  0  0
   26.5994  -16.7474  -16.6200 N   0  0  0  0  0  0  0  0  0  0  0  0
   26.5742  -16.6992  -15.2108 C   0  0  0  0  0  0  0  0  0  0  0  0
   26.2292  -15.6909  -14.5645 O   0  0  0  0  0  0  0  0  0  0  0  0
   27.0049  -17.9854  -14.5162 C   0  0  0  0  0  0  0  0  0  0  0  0
   27.5564  -18.8955  -15.5452 C   0  0  0  0  0  0  0  0  0  0  0  0
   27.9916  -20.2218  -14.9639 C   0  0  2  0  0  0  0  0  0  0  0  0
   28.1790  -21.1592  -16.0984 N   0  0  0  0  0  0  0  0  0  0  0  0
   26.9388  -20.7845  -14.1261 C   0  0  0  0  0  0  0  0  0  0  0  0
   25.9086  -21.2838  -14.7074 O   0  0  0  0  0  0  0  0  0  0  0  0
   26.9086  -20.8591  -12.7166 N   0  0  0  0  0  0  0  0  0  0  0  0
   25.8422  -21.5731  -12.0120 C   0  0  1  0  0  0  0  0  0  0  0  0
   26.3759  -22.1851  -10.7522 C   0  0  0  0  0  0  0  0  0  0  0  0
   26.5445  -21.1874   -9.6818 C   0  0  0  0  0  0  0  0  0  0  0  0
   25.6430  -20.1754   -9.3219 C   0  0  0  0  0  0  0  0  0  0  0  0
   26.1396  -19.4255   -8.3289 N   0  0  0  0  0  0  0  0  0  0  0  0
   27.3652  -19.9076   -8.0025 C   0  0  0  0  0  0  0  0  0  0  0  0
   28.2756  -19.4996   -7.0353 C   0  0  0  0  0  0  0  0  0  0  0  0
   29.4423  -20.2114   -6.9260 C   0  0  0  0  0  0  0  0  0  0  0  0
   29.7247  -21.2981   -7.7368 C   0  0  0  0  0  0  0  0  0  0  0  0
   28.8214  -21.6844   -8.6808 C   0  0  0  0  0  0  0  0  0  0  0  0
   27.6277  -20.9866   -8.8216 C   0  0  0  0  0  0  0  0  0  0  0  0
   24.6801  -20.7146  -11.8883 C   0  0  0  0  0  0  0  0  0  0  0  0
   23.3617  -21.1649  -11.7044 O   0  0  0  0  0  0  0  0  0  0  0  0
   24.7906  -19.4523  -11.9474 O   0  0  0  0  0  0  0  0  0  0  0  0
  1  2  1  0
  2  3  1  0
  3  4  2  0
  5  6  1  0
  6  8  1  0
  7  6  2  0
  8  9  1  0
 10  9  1  6
 11 10  1  0
 11  3  1  0
 12 14  1  0
 12 10  1  0
 13 12  2  0
 15 14  1  0
 15 16  1  1
 17 18  2  0
 17 16  1  0
 19 18  1  0
 20 25  2  0
 20 19  1  0
 21 20  1  0
 22 21  2  0
 22 23  1  0
 23 24  2  0
 24 25  1  0
 25 17  1  0
 26 27  1  0
 26 15  1  0
 28 26  2  0
M  END
$$$$
