LAN.pdb
     RDKit          3D

 22 21  0  0  1  0  0  0  0  0999 V2000
   26.2603  -20.8082   -6.6930 C   0  0  0  0  0  0  0  0  0  0  0  0
   27.2563  -20.1491   -7.6616 C   0  0  2  0  0  0  0  0  0  0  0  0
   27.8148  -18.9427   -6.9470 C   0  0  0  0  0  0  0  0  0  0  0  0
   26.5090  -19.8503   -8.9014 C   0  0  0  0  0  0  0  0  0  0  0  0
   26.1093  -20.9833   -9.7659 C   0  0  2  0  0  0  0  0  0  0  0  0
   27.1250  -21.9952   -9.9228 N   0  0  0  0  0  0  0  0  0  0  0  0
   25.5994  -20.6236  -11.1046 C   0  0  0  0  0  0  0  0  0  0  0  0
   24.7155  -19.7241  -11.2554 O   0  0  0  0  0  0  0  0  0  0  0  0
   26.3736  -21.5453  -14.6474 C   0  0  0  0  0  0  0  0  0  0  0  0
   25.4719  -20.8660  -13.5936 C   0  0  2  0  0  0  0  0  0  0  0  0
   26.0537  -21.2473  -12.3218 N   0  0  0  0  0  0  0  0  0  0  0  0
   24.0798  -21.2988  -13.7602 C   0  0  0  0  0  0  0  0  0  0  0  0
   23.7149  -22.4451  -13.3272 O   0  0  0  0  0  0  0  0  0  0  0  0
   19.1590  -22.1772  -12.9645 N   0  0  0  0  0  0  0  0  0  0  0  0
   19.5289  -20.8115  -13.2319 C   0  0  0  0  0  0  0  0  0  0  0  0
   18.5855  -20.0110  -13.4504 O   0  0  0  0  0  0  0  0  0  0  0  0
   20.9518  -20.4460  -13.2331 C   0  0  0  0  0  0  0  0  0  0  0  0
   21.6677  -20.9605  -14.4632 C   0  0  2  0  0  0  0  0  0  0  0  0
   23.0500  -20.5413  -14.3798 N   0  0  0  0  0  0  0  0  0  0  0  0
   21.0413  -20.3983  -15.7030 C   0  0  0  0  0  0  0  0  0  0  0  0
   21.2313  -21.0092  -16.9264 O   0  0  0  0  0  0  0  0  0  0  0  0
   20.3420  -19.3679  -15.6238 O   0  0  0  0  0  0  0  0  0  0  0  0
  2  4  1  0
  2  1  1  1
  3  2  1  0
  4  5  1  0
  5  6  1  6
  7  5  1  0
  7  8  2  0
 10  9  1  6
 10 11  1  0
 10 12  1  0
 11  7  1  0
 12 13  2  0
 12 19  1  0
 14 15  1  0
 15 16  2  0
 18 17  1  1
 17 15  1  0
 18 20  1  0
 19 18  1  0
 20 22  2  0
 20 21  1  0
M  END
$$$$
