LAN.pdb
     RDKit          3D

 22 21  0  0  1  0  0  0  0  0999 V2000
   24.9152  -12.7648  -15.2771 C   0  0  0  0  0  0  0  0  0  0  0  0
   23.5100  -12.1404  -15.2833 C   0  0  2  0  0  0  0  0  0  0  0  0
   23.0388  -12.1309  -13.8494 C   0  0  0  0  0  0  0  0  0  0  0  0
   22.6883  -12.9522  -16.2056 C   0  0  0  0  0  0  0  0  0  0  0  0
   21.2811  -12.5493  -16.4253 C   0  0  2  0  0  0  0  0  0  0  0  0
   20.5346  -13.4448  -17.2744 N   0  0  0  0  0  0  0  0  0  0  0  0
   21.0739  -11.1689  -16.9078 C   0  0  0  0  0  0  0  0  0  0  0  0
   21.6401  -10.7456  -17.9630 O   0  0  0  0  0  0  0  0  0  0  0  0
   18.4764   -8.8069  -16.9802 C   0  0  0  0  0  0  0  0  0  0  0  0
   20.0097   -8.9038  -16.8238 C   0  0  2  0  0  0  0  0  0  0  0  0
   20.2303  -10.2114  -16.2381 N   0  0  0  0  0  0  0  0  0  0  0  0
   20.5082   -7.7959  -16.0008 C   0  0  0  0  0  0  0  0  0  0  0  0
   20.5154   -7.9041  -14.7269 O   0  0  0  0  0  0  0  0  0  0  0  0
   22.8486   -2.0226  -16.5200 N   0  0  0  0  0  0  0  0  0  0  0  0
   22.4434   -3.2073  -15.8087 C   0  0  0  0  0  0  0  0  0  0  0  0
   22.5966   -3.1886  -14.5619 O   0  0  0  0  0  0  0  0  0  0  0  0
   21.8892   -4.3380  -16.5655 C   0  0  0  0  0  0  0  0  0  0  0  0
   21.4809   -5.4798  -15.6599 C   0  0  2  0  0  0  0  0  0  0  0  0
   21.0063   -6.5611  -16.4961 N   0  0  0  0  0  0  0  0  0  0  0  0
   20.3906   -5.0419  -14.7299 C   0  0  0  0  0  0  0  0  0  0  0  0
   19.0897   -4.9239  -15.1771 O   0  0  0  0  0  0  0  0  0  0  0  0
   20.6659   -4.7826  -13.5409 O   0  0  0  0  0  0  0  0  0  0  0  0
  2  4  1  0
  2  1  1  1
  3  2  1  0
  4  5  1  0
  5  6  1  6
  7  5  1  0
  7  8  2  0
 10  9  1  1
 10 11  1  0
 10 12  1  0
 11  7  1  0
 12 13  2  0
 12 19  1  0
 14 15  1  0
 15 16  2  0
 18 17  1  6
 17 15  1  0
 18 20  1  0
 19 18  1  0
 20 22  2  0
 20 21  1  0
M  END
$$$$
