LAN.pdb
     RDKit          3D

 22 21  0  0  1  0  0  0  0  0999 V2000
   21.8769  -16.0973  -17.1601 C   0  0  0  0  0  0  0  0  0  0  0  0
   23.1842  -16.5581  -16.4943 C   0  0  2  0  0  0  0  0  0  0  0  0
   22.8543  -17.8150  -15.7265 C   0  0  0  0  0  0  0  0  0  0  0  0
   23.6616  -15.4289  -15.6686 C   0  0  0  0  0  0  0  0  0  0  0  0
   23.9347  -14.1389  -16.3410 C   0  0  2  0  0  0  0  0  0  0  0  0
   24.8344  -14.2355  -17.4641 N   0  0  0  0  0  0  0  0  0  0  0  0
   24.3971  -13.0419  -15.4668 C   0  0  0  0  0  0  0  0  0  0  0  0
   23.7867  -12.7518  -14.3914 O   0  0  0  0  0  0  0  0  0  0  0  0
   27.3652  -10.7938  -15.2527 C   0  0  0  0  0  0  0  0  0  0  0  0
   25.9076  -11.1349  -14.8734 C   0  0  2  0  0  0  0  0  0  0  0  0
   25.5531  -12.2308  -15.7538 N   0  0  0  0  0  0  0  0  0  0  0  0
   25.0519   -9.9529  -15.0271 C   0  0  0  0  0  0  0  0  0  0  0  0
   25.2822   -8.9068  -14.3290 O   0  0  0  0  0  0  0  0  0  0  0  0
   24.9553   -7.5227  -17.8045 N   0  0  0  0  0  0  0  0  0  0  0  0
   23.7163   -7.9659  -18.3894 C   0  0  0  0  0  0  0  0  0  0  0  0
   23.5865   -7.7825  -19.6256 O   0  0  0  0  0  0  0  0  0  0  0  0
   22.7044   -8.5902  -17.5267 C   0  0  0  0  0  0  0  0  0  0  0  0
   23.1505   -8.6494  -16.0817 C   0  0  2  0  0  0  0  0  0  0  0  0
   23.9453   -9.8464  -15.9116 N   0  0  0  0  0  0  0  0  0  0  0  0
   21.9610   -8.6968  -15.1716 C   0  0  0  0  0  0  0  0  0  0  0  0
   21.5545   -7.5696  -14.4859 O   0  0  0  0  0  0  0  0  0  0  0  0
   21.3352   -9.7677  -15.0354 O   0  0  0  0  0  0  0  0  0  0  0  0
  2  4  1  0
  2  1  1  1
  3  2  1  0
  4  5  1  0
  5  6  1  6
  7  5  1  0
  7  8  2  0
 10  9  1  6
 10 11  1  0
 10 12  1  0
 11  7  1  0
 12 13  2  0
 12 19  1  0
 14 15  1  0
 15 16  2  0
 18 17  1  6
 17 15  1  0
 18 20  1  0
 19 18  1  0
 20 22  2  0
 20 21  1  0
M  END
$$$$
