LAN.pdb
     RDKit          3D

 22 21  0  0  1  0  0  0  0  0999 V2000
   19.2961  -15.6029    2.5795 C   0  0  0  0  0  0  0  0  0  0  0  0
   17.8861  -15.0005    2.4637 C   0  0  2  0  0  0  0  0  0  0  0  0
   18.0302  -13.5200    2.7193 C   0  0  0  0  0  0  0  0  0  0  0  0
   17.0348  -15.7219    3.4330 C   0  0  0  0  0  0  0  0  0  0  0  0
   16.9747  -17.1982    3.3462 C   0  0  2  0  0  0  0  0  0  0  0  0
   16.5678  -17.6993    2.0565 N   0  0  0  0  0  0  0  0  0  0  0  0
   16.1680  -17.8723    4.3836 C   0  0  0  0  0  0  0  0  0  0  0  0
   16.3206  -17.6063    5.6161 O   0  0  0  0  0  0  0  0  0  0  0  0
   13.1583  -20.0648    4.4577 C   0  0  0  0  0  0  0  0  0  0  0  0
   14.3858  -19.4487    5.1639 C   0  0  2  0  0  0  0  0  0  0  0  0
   15.1630  -18.8625    4.0898 N   0  0  0  0  0  0  0  0  0  0  0  0
   15.1067  -20.4781    5.9213 C   0  0  0  0  0  0  0  0  0  0  0  0
   14.5215  -21.0872    6.8811 O   0  0  0  0  0  0  0  0  0  0  0  0
   17.9942  -24.2418    7.5471 N   0  0  0  0  0  0  0  0  0  0  0  0
   18.3808  -23.9855    6.1839 C   0  0  0  0  0  0  0  0  0  0  0  0
   19.0504  -24.8842    5.6160 O   0  0  0  0  0  0  0  0  0  0  0  0
   17.9787  -22.7200    5.5553 C   0  0  0  0  0  0  0  0  0  0  0  0
   17.1545  -21.8605    6.4892 C   0  0  2  0  0  0  0  0  0  0  0  0
   16.4471  -20.8861    5.6869 N   0  0  0  0  0  0  0  0  0  0  0  0
   18.0430  -21.1597    7.4714 C   0  0  0  0  0  0  0  0  0  0  0  0
   18.3003  -19.8089    7.3482 O   0  0  0  0  0  0  0  0  0  0  0  0
   18.5529  -21.8075    8.4081 O   0  0  0  0  0  0  0  0  0  0  0  0
  2  4  1  0
  2  1  1  1
  3  2  1  0
  4  5  1  0
  5  6  1  6
  7  5  1  0
  7  8  2  0
 10  9  1  6
 10 11  1  0
 10 12  1  0
 11  7  1  0
 12 13  2  0
 12 19  1  0
 14 15  1  0
 15 16  2  0
 18 17  1  6
 17 15  1  0
 18 20  1  0
 19 18  1  0
 20 22  2  0
 20 21  1  0
M  END
$$$$
