LAN.pdb
     RDKit          3D

 22 21  0  0  1  0  0  0  0  0999 V2000
   24.3165  -15.0156  -15.1779 C   0  0  0  0  0  0  0  0  0  0  0  0
   25.1172  -14.6521  -16.4393 C   0  0  2  0  0  0  0  0  0  0  0  0
   26.5522  -15.0262  -16.1587 C   0  0  0  0  0  0  0  0  0  0  0  0
   24.8842  -13.2142  -16.6908 C   0  0  0  0  0  0  0  0  0  0  0  0
   23.5024  -12.7717  -16.9836 C   0  0  2  0  0  0  0  0  0  0  0  0
   22.8546  -13.5121  -18.0382 N   0  0  0  0  0  0  0  0  0  0  0  0
   23.3314  -11.3298  -17.2537 C   0  0  0  0  0  0  0  0  0  0  0  0
   23.7828  -10.4499  -16.4568 O   0  0  0  0  0  0  0  0  0  0  0  0
   21.8787   -9.2224  -19.9866 C   0  0  0  0  0  0  0  0  0  0  0  0
   22.4291   -9.3888  -18.5534 C   0  0  2  0  0  0  0  0  0  0  0  0
   22.6560  -10.8142  -18.4177 N   0  0  0  0  0  0  0  0  0  0  0  0
   21.4779   -8.8463  -17.5768 C   0  0  0  0  0  0  0  0  0  0  0  0
   20.3689   -9.4474  -17.3686 O   0  0  0  0  0  0  0  0  0  0  0  0
   20.1147   -9.3859  -14.4518 N   0  0  0  0  0  0  0  0  0  0  0  0
   20.9415   -8.4110  -13.7886 C   0  0  0  0  0  0  0  0  0  0  0  0
   21.3175   -8.6984  -12.6248 O   0  0  0  0  0  0  0  0  0  0  0  0
   21.2866   -7.1704  -14.4957 C   0  0  0  0  0  0  0  0  0  0  0  0
   20.6926   -7.1274  -15.8870 C   0  0  2  0  0  0  0  0  0  0  0  0
   21.6714   -7.6700  -16.8041 N   0  0  0  0  0  0  0  0  0  0  0  0
   20.3666   -5.7158  -16.2700 C   0  0  0  0  0  0  0  0  0  0  0  0
   19.2573   -5.0829  -15.7456 O   0  0  0  0  0  0  0  0  0  0  0  0
   21.1078   -5.1108  -17.0710 O   0  0  0  0  0  0  0  0  0  0  0  0
  2  4  1  0
  2  1  1  1
  3  2  1  0
  4  5  1  0
  5  6  1  6
  7  5  1  0
  7  8  2  0
 10  9  1  6
 10 11  1  0
 10 12  1  0
 11  7  1  0
 12 13  2  0
 12 19  1  0
 14 15  1  0
 15 16  2  0
 18 17  1  1
 17 15  1  0
 18 20  1  0
 19 18  1  0
 20 22  2  0
 20 21  1  0
M  END
$$$$
