LAN.pdb
     RDKit          3D

 22 21  0  0  1  0  0  0  0  0999 V2000
   17.4867  -13.9487  -17.2968 C   0  0  0  0  0  0  0  0  0  0  0  0
   18.6565  -14.8446  -16.8568 C   0  0  2  0  0  0  0  0  0  0  0  0
   18.0456  -16.0347  -16.1579 C   0  0  0  0  0  0  0  0  0  0  0  0
   19.5376  -14.0094  -16.0137 C   0  0  0  0  0  0  0  0  0  0  0  0
   20.1649  -12.8170  -16.6264 C   0  0  2  0  0  0  0  0  0  0  0  0
   20.9175  -13.0941  -17.8251 N   0  0  0  0  0  0  0  0  0  0  0  0
   21.0037  -11.9972  -15.7288 C   0  0  0  0  0  0  0  0  0  0  0  0
   20.5397  -11.5125  -14.6504 O   0  0  0  0  0  0  0  0  0  0  0  0
   24.6047  -11.0548  -15.4705 C   0  0  0  0  0  0  0  0  0  0  0  0
   23.1248  -10.8289  -15.0914 C   0  0  2  0  0  0  0  0  0  0  0  0
   22.3860  -11.6888  -15.9949 N   0  0  0  0  0  0  0  0  0  0  0  0
   22.7796   -9.4080  -15.2132 C   0  0  0  0  0  0  0  0  0  0  0  0
   23.3579   -8.5474  -14.4651 O   0  0  0  0  0  0  0  0  0  0  0  0
   21.4461   -4.9118  -18.4943 N   0  0  0  0  0  0  0  0  0  0  0  0
   20.5561   -5.8272  -17.8282 C   0  0  0  0  0  0  0  0  0  0  0  0
   19.4533   -5.3578  -17.4515 O   0  0  0  0  0  0  0  0  0  0  0  0
   20.9812   -7.2200  -17.6343 C   0  0  0  0  0  0  0  0  0  0  0  0
   21.5374   -7.4545  -16.2465 C   0  0  2  0  0  0  0  0  0  0  0  0
   21.8272   -8.8662  -16.1175 N   0  0  0  0  0  0  0  0  0  0  0  0
   20.5366   -7.0454  -15.2090 C   0  0  0  0  0  0  0  0  0  0  0  0
   19.8152   -7.9955  -14.5142 O   0  0  0  0  0  0  0  0  0  0  0  0
   20.3570   -5.8331  -14.9743 O   0  0  0  0  0  0  0  0  0  0  0  0
  2  4  1  0
  2  1  1  1
  3  2  1  0
  4  5  1  0
  5  6  1  6
  7  5  1  0
  7  8  2  0
 10  9  1  6
 10 11  1  0
 10 12  1  0
 11  7  1  0
 12 13  2  0
 12 19  1  0
 14 15  1  0
 15 16  2  0
 18 17  1  6
 17 15  1  0
 18 20  1  0
 19 18  1  0
 20 22  2  0
 20 21  1  0
M  END
$$$$
