WQA.pdb
     RDKit          3D

 29 30  0  0  1  0  0  0  0  0999 V2000
   31.0330  -30.9011  -20.3697 N   0  0  0  0  0  0  0  0  0  0  0  0
   30.4255  -30.6816  -19.0938 C   0  0  1  0  0  0  0  0  0  0  0  0
   30.3187  -29.2161  -18.7149 C   0  0  0  0  0  0  0  0  0  0  0  0
   31.6625  -28.5952  -18.7766 C   0  0  0  0  0  0  0  0  0  0  0  0
   32.8307  -29.0616  -18.1917 C   0  0  0  0  0  0  0  0  0  0  0  0
   33.8486  -28.2150  -18.4440 N   0  0  0  0  0  0  0  0  0  0  0  0
   33.3840  -27.1953  -19.1847 C   0  0  0  0  0  0  0  0  0  0  0  0
   34.0100  -26.0773  -19.7107 C   0  0  0  0  0  0  0  0  0  0  0  0
   33.3051  -25.1565  -20.4619 C   0  0  0  0  0  0  0  0  0  0  0  0
   31.9634  -25.3633  -20.6844 C   0  0  0  0  0  0  0  0  0  0  0  0
   31.3405  -26.4914  -20.1510 C   0  0  0  0  0  0  0  0  0  0  0  0
   32.0203  -27.4222  -19.3989 C   0  0  0  0  0  0  0  0  0  0  0  0
   29.1049  -31.3551  -18.9968 C   0  0  0  0  0  0  0  0  0  0  0  0
   28.2864  -31.3352  -19.9761 O   0  0  0  0  0  0  0  0  0  0  0  0
   27.3634  -36.2430  -19.0647 N   0  0  0  0  0  0  0  0  0  0  0  0
   26.4143  -36.1516  -18.0205 C   0  0  0  0  0  0  0  0  0  0  0  0
   25.4518  -36.9503  -17.9883 O   0  0  0  0  0  0  0  0  0  0  0  0
   26.6576  -35.0740  -17.0212 C   0  0  0  0  0  0  0  0  0  0  0  0
   27.8157  -34.2092  -17.2854 C   0  0  0  0  0  0  0  0  0  0  0  0
   27.4875  -32.8288  -17.7740 C   0  0  2  0  0  0  0  0  0  0  0  0
   28.7350  -32.0355  -17.8073 N   0  0  0  0  0  0  0  0  0  0  0  0
   26.5596  -32.0818  -16.9298 C   0  0  0  0  0  0  0  0  0  0  0  0
   26.9434  -31.6498  -15.7950 O   0  0  0  0  0  0  0  0  0  0  0  0
   23.0556  -30.5912  -16.9524 C   0  0  0  0  0  0  0  0  0  0  0  0
   24.3745  -30.9890  -16.3289 C   0  0  2  0  0  0  0  0  0  0  0  0
   25.2081  -31.7572  -17.2392 N   0  0  0  0  0  0  0  0  0  0  0  0
   24.0658  -31.7996  -15.1223 C   0  0  0  0  0  0  0  0  0  0  0  0
   23.5532  -31.2374  -13.9561 O   0  0  0  0  0  0  0  0  0  0  0  0
   24.2816  -33.0410  -15.1727 O   0  0  0  0  0  0  0  0  0  0  0  0
  2 13  1  0
  2  1  1  6
  3  2  1  0
  3  4  1  0
  4  5  2  0
  4 12  1  0
  5  6  1  0
  6  7  1  0
  7  8  2  0
  8  9  1  0
 10  9  2  0
 11 10  1  0
 12 11  2  0
 12  7  1  0
 13 21  1  0
 14 13  2  0
 16 15  1  0
 17 16  2  0
 18 16  1  0
 19 18  1  0
 20 19  1  1
 21 20  1  0
 22 26  1  0
 22 20  1  0
 23 22  2  0
 25 24  1  6
 25 26  1  0
 25 27  1  0
 27 29  2  0
 27 28  1  0
M  END
$$$$
