WQA.pdb
     RDKit          3D

 29 30  0  0  1  0  0  0  0  0999 V2000
   26.0602  -18.8082  -11.0077 N   0  0  0  0  0  0  0  0  0  0  0  0
   26.0913  -20.1670  -11.4527 C   0  0  1  0  0  0  0  0  0  0  0  0
   25.8408  -21.1753  -10.3467 C   0  0  0  0  0  0  0  0  0  0  0  0
   26.7092  -20.8580   -9.1890 C   0  0  0  0  0  0  0  0  0  0  0  0
   26.3413  -20.2213   -8.0127 C   0  0  0  0  0  0  0  0  0  0  0  0
   27.4098  -20.0842   -7.2028 N   0  0  0  0  0  0  0  0  0  0  0  0
   28.4812  -20.6163   -7.8137 C   0  0  0  0  0  0  0  0  0  0  0  0
   29.8028  -20.7383   -7.4173 C   0  0  0  0  0  0  0  0  0  0  0  0
   30.7363  -21.3448   -8.2357 C   0  0  0  0  0  0  0  0  0  0  0  0
   30.3364  -21.8307   -9.4591 C   0  0  0  0  0  0  0  0  0  0  0  0
   29.0040  -21.7035   -9.8508 C   0  0  0  0  0  0  0  0  0  0  0  0
   28.0558  -21.1029   -9.0543 C   0  0  0  0  0  0  0  0  0  0  0  0
   25.1665  -20.3869  -12.5944 C   0  0  0  0  0  0  0  0  0  0  0  0
   24.0235  -19.8197  -12.6298 O   0  0  0  0  0  0  0  0  0  0  0  0
   28.5296  -21.3085  -15.2239 N   0  0  0  0  0  0  0  0  0  0  0  0
   28.1415  -20.1823  -15.9857 C   0  0  0  0  0  0  0  0  0  0  0  0
   28.9762  -19.2821  -16.2277 O   0  0  0  0  0  0  0  0  0  0  0  0
   26.7245  -20.1722  -16.4449 C   0  0  0  0  0  0  0  0  0  0  0  0
   25.9193  -21.3375  -16.0540 C   0  0  0  0  0  0  0  0  0  0  0  0
   24.8952  -21.0811  -14.9875 C   0  0  2  0  0  0  0  0  0  0  0  0
   25.5454  -21.2342  -13.6683 N   0  0  0  0  0  0  0  0  0  0  0  0
   23.7638  -22.0040  -14.9866 C   0  0  0  0  0  0  0  0  0  0  0  0
   23.9253  -23.2035  -14.5904 O   0  0  0  0  0  0  0  0  0  0  0  0
   20.0022  -22.1004  -15.2412 C   0  0  0  0  0  0  0  0  0  0  0  0
   21.3795  -22.7126  -15.3641 C   0  0  2  0  0  0  0  0  0  0  0  0
   22.4311  -21.7092  -15.3922 N   0  0  0  0  0  0  0  0  0  0  0  0
   21.4013  -23.5014  -16.6233 C   0  0  0  0  0  0  0  0  0  0  0  0
   20.9470  -24.8160  -16.6890 O   0  0  0  0  0  0  0  0  0  0  0  0
   21.8507  -22.9450  -17.6619 O   0  0  0  0  0  0  0  0  0  0  0  0
  2 13  1  0
  2  1  1  1
  3  2  1  0
  3  4  1  0
  4  5  2  0
  4 12  1  0
  5  6  1  0
  6  7  1  0
  7  8  2  0
  8  9  1  0
 10  9  2  0
 11 10  1  0
 12 11  2  0
 12  7  1  0
 13 21  1  0
 14 13  2  0
 16 15  1  0
 17 16  2  0
 18 16  1  0
 19 18  1  0
 20 19  1  6
 21 20  1  0
 22 26  1  0
 22 20  1  0
 23 22  2  0
 25 24  1  6
 25 26  1  0
 25 27  1  0
 27 29  2  0
 27 28  1  0
M  END
$$$$
