WQA.pdb
     RDKit          3D

 29 30  0  0  1  0  0  0  0  0999 V2000
   25.1875  -21.9808  -10.9963 N   0  0  0  0  0  0  0  0  0  0  0  0
   25.9599  -20.8140  -11.2917 C   0  0  1  0  0  0  0  0  0  0  0  0
   27.1601  -20.6323  -10.3812 C   0  0  0  0  0  0  0  0  0  0  0  0
   26.6929  -20.2858   -9.0185 C   0  0  0  0  0  0  0  0  0  0  0  0
   25.3925  -20.0113   -8.6211 C   0  0  0  0  0  0  0  0  0  0  0  0
   25.3600  -19.7113   -7.3075 N   0  0  0  0  0  0  0  0  0  0  0  0
   26.6102  -19.7805   -6.8214 C   0  0  0  0  0  0  0  0  0  0  0  0
   27.1178  -19.5732   -5.5494 C   0  0  0  0  0  0  0  0  0  0  0  0
   28.4678  -19.7156   -5.2919 C   0  0  0  0  0  0  0  0  0  0  0  0
   29.3101  -20.0688   -6.3207 C   0  0  0  0  0  0  0  0  0  0  0  0
   28.7911  -20.2754   -7.5985 C   0  0  0  0  0  0  0  0  0  0  0  0
   27.4509  -20.1388   -7.8804 C   0  0  0  0  0  0  0  0  0  0  0  0
   26.3641  -20.7765  -12.7208 C   0  0  0  0  0  0  0  0  0  0  0  0
   27.1468  -21.6619  -13.2033 O   0  0  0  0  0  0  0  0  0  0  0  0
   23.4602  -22.3449  -16.5263 N   0  0  0  0  0  0  0  0  0  0  0  0
   22.9217  -21.1918  -15.9100 C   0  0  0  0  0  0  0  0  0  0  0  0
   21.6893  -21.1175  -15.7074 O   0  0  0  0  0  0  0  0  0  0  0  0
   23.9073  -20.1354  -15.5472 C   0  0  0  0  0  0  0  0  0  0  0  0
   25.3156  -20.4583  -15.8149 C   0  0  0  0  0  0  0  0  0  0  0  0
   26.3151  -19.7055  -14.9865 C   0  0  2  0  0  0  0  0  0  0  0  0
   25.8803  -19.7503  -13.5739 N   0  0  0  0  0  0  0  0  0  0  0  0
   26.4495  -18.2905  -15.3201 C   0  0  0  0  0  0  0  0  0  0  0  0
   25.5653  -17.4611  -14.9299 O   0  0  0  0  0  0  0  0  0  0  0  0
   28.8690  -15.8005  -16.8617 C   0  0  0  0  0  0  0  0  0  0  0  0
   27.5148  -16.2752  -16.3849 C   0  0  2  0  0  0  0  0  0  0  0  0
   27.5065  -17.6933  -16.0643 N   0  0  0  0  0  0  0  0  0  0  0  0
   26.5416  -15.9986  -17.4732 C   0  0  0  0  0  0  0  0  0  0  0  0
   26.1615  -14.7058  -17.8243 O   0  0  0  0  0  0  0  0  0  0  0  0
   26.0511  -16.9818  -18.0921 O   0  0  0  0  0  0  0  0  0  0  0  0
  2 13  1  0
  2  1  1  1
  3  2  1  0
  3  4  1  0
  4  5  2  0
  4 12  1  0
  5  6  1  0
  6  7  1  0
  7  8  2  0
  8  9  1  0
 10  9  2  0
 11 10  1  0
 12 11  2  0
 12  7  1  0
 13 21  1  0
 14 13  2  0
 16 15  1  0
 17 16  2  0
 18 16  1  0
 19 18  1  0
 20 19  1  6
 21 20  1  0
 22 26  1  0
 22 20  1  0
 23 22  2  0
 25 24  1  6
 25 26  1  0
 25 27  1  0
 27 29  2  0
 27 28  1  0
M  END
$$$$
