WQA.pdb
     RDKit          3D

 29 30  0  0  1  0  0  0  0  0999 V2000
   22.3193  -22.4749  -14.1091 N   0  0  0  0  0  0  0  0  0  0  0  0
   21.0393  -22.4304  -14.7454 C   0  0  1  0  0  0  0  0  0  0  0  0
   21.1098  -22.5003  -16.2596 C   0  0  0  0  0  0  0  0  0  0  0  0
   21.7985  -21.2936  -16.7739 C   0  0  0  0  0  0  0  0  0  0  0  0
   23.1660  -21.0678  -16.8322 C   0  0  0  0  0  0  0  0  0  0  0  0
   23.4152  -19.8435  -17.3377 N   0  0  0  0  0  0  0  0  0  0  0  0
   22.2437  -19.2492  -17.6179 C   0  0  0  0  0  0  0  0  0  0  0  0
   21.9443  -18.0069  -18.1523 C   0  0  0  0  0  0  0  0  0  0  0  0
   20.6340  -17.6195  -18.3576 C   0  0  0  0  0  0  0  0  0  0  0  0
   19.6207  -18.4878  -18.0231 C   0  0  0  0  0  0  0  0  0  0  0  0
   19.9307  -19.7367  -17.4853 C   0  0  0  0  0  0  0  0  0  0  0  0
   21.2272  -20.1453  -17.2704 C   0  0  0  0  0  0  0  0  0  0  0  0
   20.1268  -23.4710  -14.2054 C   0  0  0  0  0  0  0  0  0  0  0  0
   20.5204  -24.6769  -14.0629 O   0  0  0  0  0  0  0  0  0  0  0  0
   19.0617  -25.7266   -9.6281 N   0  0  0  0  0  0  0  0  0  0  0  0
   18.7531  -24.3468   -9.6451 C   0  0  0  0  0  0  0  0  0  0  0  0
   18.8560  -23.6773   -8.5931 O   0  0  0  0  0  0  0  0  0  0  0  0
   18.3182  -23.8000  -10.9607 C   0  0  0  0  0  0  0  0  0  0  0  0
   18.3558  -24.7430  -12.0870 C   0  0  0  0  0  0  0  0  0  0  0  0
   17.8681  -24.1975  -13.3971 C   0  0  2  0  0  0  0  0  0  0  0  0
   18.7980  -23.1350  -13.8365 N   0  0  0  0  0  0  0  0  0  0  0  0
   16.5458  -23.5800  -13.3524 C   0  0  0  0  0  0  0  0  0  0  0  0
   16.3618  -22.5268  -12.6605 O   0  0  0  0  0  0  0  0  0  0  0  0
   13.6421  -23.3186  -12.4287 C   0  0  0  0  0  0  0  0  0  0  0  0
   14.0930  -23.3696  -13.8712 C   0  0  2  0  0  0  0  0  0  0  0  0
   15.3768  -24.0339  -14.0270 N   0  0  0  0  0  0  0  0  0  0  0  0
   14.1889  -21.9674  -14.3536 C   0  0  0  0  0  0  0  0  0  0  0  0
   15.3962  -21.3920  -14.7412 O   0  0  0  0  0  0  0  0  0  0  0  0
   13.1286  -21.2869  -14.4081 O   0  0  0  0  0  0  0  0  0  0  0  0
  2 13  1  0
  2  1  1  1
  3  2  1  0
  3  4  1  0
  4  5  2  0
  4 12  1  0
  5  6  1  0
  6  7  1  0
  7  8  2  0
  8  9  1  0
 10  9  2  0
 11 10  1  0
 12 11  2  0
 12  7  1  0
 13 21  1  0
 14 13  2  0
 16 15  1  0
 17 16  2  0
 18 16  1  0
 19 18  1  0
 20 19  1  1
 21 20  1  0
 22 26  1  0
 22 20  1  0
 23 22  2  0
 25 24  1  1
 25 26  1  0
 25 27  1  0
 27 29  2  0
 27 28  1  0
M  END
$$$$
