WQA.pdb
     RDKit          3D

 29 30  0  0  1  0  0  0  0  0999 V2000
   25.1886  -18.8096  -11.4371 N   0  0  0  0  0  0  0  0  0  0  0  0
   25.9967  -19.9560  -11.7167 C   0  0  1  0  0  0  0  0  0  0  0  0
   25.6689  -21.1574  -10.8496 C   0  0  0  0  0  0  0  0  0  0  0  0
   25.9012  -20.8129   -9.4275 C   0  0  0  0  0  0  0  0  0  0  0  0
   24.9496  -20.4544   -8.4840 C   0  0  0  0  0  0  0  0  0  0  0  0
   25.5416  -20.1867   -7.3031 N   0  0  0  0  0  0  0  0  0  0  0  0
   26.8666  -20.3597   -7.4394 C   0  0  0  0  0  0  0  0  0  0  0  0
   27.9118  -20.2229   -6.5408 C   0  0  0  0  0  0  0  0  0  0  0  0
   29.2156  -20.4703   -6.9254 C   0  0  0  0  0  0  0  0  0  0  0  0
   29.4675  -20.8575   -8.2212 C   0  0  0  0  0  0  0  0  0  0  0  0
   28.4096  -20.9926   -9.1199 C   0  0  0  0  0  0  0  0  0  0  0  0
   27.1029  -20.7511   -8.7615 C   0  0  0  0  0  0  0  0  0  0  0  0
   25.9560  -20.3118  -13.1584 C   0  0  0  0  0  0  0  0  0  0  0  0
   24.8880  -20.1588  -13.8407 O   0  0  0  0  0  0  0  0  0  0  0  0
   29.3323  -18.1180  -16.6280 N   0  0  0  0  0  0  0  0  0  0  0  0
   29.2664  -19.1852  -17.5532 C   0  0  0  0  0  0  0  0  0  0  0  0
   29.3153  -18.9438  -18.7800 O   0  0  0  0  0  0  0  0  0  0  0  0
   29.1399  -20.5456  -16.9597 C   0  0  0  0  0  0  0  0  0  0  0  0
   28.7768  -20.5891  -15.5366 C   0  0  0  0  0  0  0  0  0  0  0  0
   27.3038  -20.6108  -15.2505 C   0  0  2  0  0  0  0  0  0  0  0  0
   27.1122  -20.8275  -13.8004 N   0  0  0  0  0  0  0  0  0  0  0  0
   26.5634  -21.6782  -15.9169 C   0  0  0  0  0  0  0  0  0  0  0  0
   26.7605  -22.8908  -15.5811 O   0  0  0  0  0  0  0  0  0  0  0  0
   23.6112  -22.3594  -18.1470 C   0  0  0  0  0  0  0  0  0  0  0  0
   24.9979  -22.6601  -17.6242 C   0  0  2  0  0  0  0  0  0  0  0  0
   25.5940  -21.5196  -16.9478 N   0  0  0  0  0  0  0  0  0  0  0  0
   25.8342  -23.0492  -18.7892 C   0  0  0  0  0  0  0  0  0  0  0  0
   25.7143  -24.2878  -19.4141 O   0  0  0  0  0  0  0  0  0  0  0  0
   26.6788  -22.2155  -19.2157 O   0  0  0  0  0  0  0  0  0  0  0  0
  2 13  1  0
  2  1  1  6
  3  2  1  0
  3  4  1  0
  4  5  2  0
  4 12  1  0
  5  6  1  0
  6  7  1  0
  7  8  2  0
  8  9  1  0
 10  9  2  0
 11 10  1  0
 12 11  2  0
 12  7  1  0
 13 21  1  0
 14 13  2  0
 16 15  1  0
 17 16  2  0
 18 16  1  0
 19 18  1  0
 20 19  1  1
 21 20  1  0
 22 26  1  0
 22 20  1  0
 23 22  2  0
 25 24  1  6
 25 26  1  0
 25 27  1  0
 27 29  2  0
 27 28  1  0
M  END
$$$$
