WQA.pdb
     RDKit          3D

 29 30  0  0  1  0  0  0  0  0999 V2000
   28.1555  -21.7809  -10.3846 N   0  0  0  0  0  0  0  0  0  0  0  0
   27.0322  -21.0014   -9.9649 C   0  0  1  0  0  0  0  0  0  0  0  0
   27.4064  -19.8102   -9.1026 C   0  0  0  0  0  0  0  0  0  0  0  0
   28.3980  -20.2335   -8.0864 C   0  0  0  0  0  0  0  0  0  0  0  0
   29.5585  -20.9633   -8.2985 C   0  0  0  0  0  0  0  0  0  0  0  0
   30.1932  -21.1799   -7.1294 N   0  0  0  0  0  0  0  0  0  0  0  0
   29.4811  -20.6097   -6.1435 C   0  0  0  0  0  0  0  0  0  0  0  0
   29.6931  -20.5359   -4.7766 C   0  0  0  0  0  0  0  0  0  0  0  0
   28.8021  -19.8726   -3.9549 C   0  0  0  0  0  0  0  0  0  0  0  0
   27.6926  -19.2808   -4.5129 C   0  0  0  0  0  0  0  0  0  0  0  0
   27.4863  -19.3600   -5.8899 C   0  0  0  0  0  0  0  0  0  0  0  0
   28.3583  -20.0154   -6.7291 C   0  0  0  0  0  0  0  0  0  0  0  0
   26.1985  -20.5823  -11.1208 C   0  0  0  0  0  0  0  0  0  0  0  0
   26.6436  -19.7521  -11.9823 O   0  0  0  0  0  0  0  0  0  0  0  0
   24.4638  -24.7020  -14.7078 N   0  0  0  0  0  0  0  0  0  0  0  0
   23.2306  -24.4617  -14.0589 C   0  0  0  0  0  0  0  0  0  0  0  0
   22.3075  -25.3008  -14.1552 O   0  0  0  0  0  0  0  0  0  0  0  0
   23.1427  -23.1862  -13.2944 C   0  0  0  0  0  0  0  0  0  0  0  0
   24.3632  -22.3681  -13.2766 C   0  0  0  0  0  0  0  0  0  0  0  0
   24.2303  -21.0321  -12.6063 C   0  0  2  0  0  0  0  0  0  0  0  0
   24.8888  -21.1045  -11.2843 N   0  0  0  0  0  0  0  0  0  0  0  0
   22.8575  -20.6073  -12.3480 C   0  0  0  0  0  0  0  0  0  0  0  0
   22.0596  -20.4167  -13.3220 O   0  0  0  0  0  0  0  0  0  0  0  0
   20.8197  -18.4008  -11.3636 C   0  0  0  0  0  0  0  0  0  0  0  0
   20.9223  -19.8463  -10.9317 C   0  0  2  0  0  0  0  0  0  0  0  0
   22.2706  -20.3718  -11.0721 N   0  0  0  0  0  0  0  0  0  0  0  0
   19.9855  -20.6281  -11.7798 C   0  0  0  0  0  0  0  0  0  0  0  0
   18.6065  -20.4392  -11.7392 O   0  0  0  0  0  0  0  0  0  0  0  0
   20.4733  -21.4906  -12.5598 O   0  0  0  0  0  0  0  0  0  0  0  0
  2 13  1  0
  2  1  1  6
  3  2  1  0
  3  4  1  0
  4  5  2  0
  4 12  1  0
  5  6  1  0
  6  7  1  0
  7  8  2  0
  8  9  1  0
 10  9  2  0
 11 10  1  0
 12 11  2  0
 12  7  1  0
 13 21  1  0
 14 13  2  0
 16 15  1  0
 17 16  2  0
 18 16  1  0
 19 18  1  0
 20 19  1  1
 21 20  1  0
 22 26  1  0
 22 20  1  0
 23 22  2  0
 25 24  1  6
 25 26  1  0
 25 27  1  0
 27 29  2  0
 27 28  1  0
M  END
$$$$
