WQA.pdb
     RDKit          3D

 29 30  0  0  1  0  0  0  0  0999 V2000
   20.7630  -11.7190  -19.3845 N   0  0  0  0  0  0  0  0  0  0  0  0
   20.9521  -11.3853  -18.0068 C   0  0  1  0  0  0  0  0  0  0  0  0
   22.3034  -11.8054  -17.4590 C   0  0  0  0  0  0  0  0  0  0  0  0
   22.4212  -13.2808  -17.5248 C   0  0  0  0  0  0  0  0  0  0  0  0
   23.1049  -14.0272  -18.4734 C   0  0  0  0  0  0  0  0  0  0  0  0
   22.9644  -15.3436  -18.2206 N   0  0  0  0  0  0  0  0  0  0  0  0
   22.2028  -15.4903  -17.1240 C   0  0  0  0  0  0  0  0  0  0  0  0
   21.7683  -16.6178  -16.4470 C   0  0  0  0  0  0  0  0  0  0  0  0
   20.9837  -16.5078  -15.3150 C   0  0  0  0  0  0  0  0  0  0  0  0
   20.6355  -15.2560  -14.8630 C   0  0  0  0  0  0  0  0  0  0  0  0
   21.0768  -14.1258  -15.5506 C   0  0  0  0  0  0  0  0  0  0  0  0
   21.8580  -14.2091  -16.6806 C   0  0  0  0  0  0  0  0  0  0  0  0
   20.7003   -9.9427  -17.7569 C   0  0  0  0  0  0  0  0  0  0  0  0
   20.8892   -9.0764  -18.6751 O   0  0  0  0  0  0  0  0  0  0  0  0
   16.5464   -6.1020  -15.8534 N   0  0  0  0  0  0  0  0  0  0  0  0
   16.3874   -7.1969  -16.7340 C   0  0  0  0  0  0  0  0  0  0  0  0
   15.3963   -7.2381  -17.4966 O   0  0  0  0  0  0  0  0  0  0  0  0
   17.4525   -8.2362  -16.6686 C   0  0  0  0  0  0  0  0  0  0  0  0
   18.5368   -7.9786  -15.7110 C   0  0  0  0  0  0  0  0  0  0  0  0
   19.9252   -8.0783  -16.2716 C   0  0  2  0  0  0  0  0  0  0  0  0
   20.2414   -9.5067  -16.4863 N   0  0  0  0  0  0  0  0  0  0  0  0
   20.9782   -7.5606  -15.4027 C   0  0  0  0  0  0  0  0  0  0  0  0
   21.3224   -8.2150  -14.3659 O   0  0  0  0  0  0  0  0  0  0  0  0
   23.3856   -4.6278  -15.0479 C   0  0  0  0  0  0  0  0  0  0  0  0
   22.6293   -5.8504  -14.5788 C   0  0  2  0  0  0  0  0  0  0  0  0
   21.7079   -6.3516  -15.5855 N   0  0  0  0  0  0  0  0  0  0  0  0
   21.8787   -5.4632  -13.3563 C   0  0  0  0  0  0  0  0  0  0  0  0
   22.4569   -5.4756  -12.0896 O   0  0  0  0  0  0  0  0  0  0  0  0
   20.6744   -5.1128  -13.4878 O   0  0  0  0  0  0  0  0  0  0  0  0
  2 13  1  0
  2  1  1  6
  3  2  1  0
  3  4  1  0
  4  5  2  0
  4 12  1  0
  5  6  1  0
  6  7  1  0
  7  8  2  0
  8  9  1  0
 10  9  2  0
 11 10  1  0
 12 11  2  0
 12  7  1  0
 13 21  1  0
 14 13  2  0
 16 15  1  0
 17 16  2  0
 18 16  1  0
 19 18  1  0
 20 19  1  1
 21 20  1  0
 22 26  1  0
 22 20  1  0
 23 22  2  0
 25 24  1  6
 25 26  1  0
 25 27  1  0
 27 29  2  0
 27 28  1  0
M  END
$$$$
