WQA.pdb
     RDKit          3D

 29 30  0  0  1  0  0  0  0  0999 V2000
   27.9768  -20.7872   -9.7038 N   0  0  0  0  0  0  0  0  0  0  0  0
   26.5866  -21.1047   -9.5937 C   0  0  1  0  0  0  0  0  0  0  0  0
   25.9306  -20.5403   -8.3472 C   0  0  0  0  0  0  0  0  0  0  0  0
   26.9537  -19.8558   -7.5226 C   0  0  0  0  0  0  0  0  0  0  0  0
   27.7024  -18.7404   -7.8686 C   0  0  0  0  0  0  0  0  0  0  0  0
   28.5513  -18.4212   -6.8715 N   0  0  0  0  0  0  0  0  0  0  0  0
   28.3837  -19.2992   -5.8689 C   0  0  0  0  0  0  0  0  0  0  0  0
   28.9946  -19.4129   -4.6309 C   0  0  0  0  0  0  0  0  0  0  0  0
   28.6369  -20.4176   -3.7525 C   0  0  0  0  0  0  0  0  0  0  0  0
   27.6592  -21.3116   -4.1229 C   0  0  0  0  0  0  0  0  0  0  0  0
   27.0493  -21.1904   -5.3712 C   0  0  0  0  0  0  0  0  0  0  0  0
   27.3885  -20.1993   -6.2639 C   0  0  0  0  0  0  0  0  0  0  0  0
   25.8397  -20.7089  -10.8153 C   0  0  0  0  0  0  0  0  0  0  0  0
   25.8545  -19.5015  -11.2293 O   0  0  0  0  0  0  0  0  0  0  0  0
   25.5350  -21.2178  -16.2515 N   0  0  0  0  0  0  0  0  0  0  0  0
   26.6110  -21.7518  -15.5054 C   0  0  0  0  0  0  0  0  0  0  0  0
   27.7769  -21.6613  -15.9503 O   0  0  0  0  0  0  0  0  0  0  0  0
   26.2425  -22.3955  -14.2136 C   0  0  0  0  0  0  0  0  0  0  0  0
   24.8195  -22.3324  -13.8529 C   0  0  0  0  0  0  0  0  0  0  0  0
   24.4632  -21.2983  -12.8254 C   0  0  2  0  0  0  0  0  0  0  0  0
   25.0972  -21.6748  -11.5437 N   0  0  0  0  0  0  0  0  0  0  0  0
   23.0355  -21.1753  -12.5458 C   0  0  0  0  0  0  0  0  0  0  0  0
   22.4623  -22.0261  -11.7912 O   0  0  0  0  0  0  0  0  0  0  0  0
   20.0946  -18.8213  -13.0648 C   0  0  0  0  0  0  0  0  0  0  0  0
   20.7519  -20.1281  -12.6816 C   0  0  2  0  0  0  0  0  0  0  0  0
   22.1612  -20.1643  -13.0368 N   0  0  0  0  0  0  0  0  0  0  0  0
   20.0250  -21.2126  -13.3913 C   0  0  0  0  0  0  0  0  0  0  0  0
   18.8086  -21.7168  -12.9385 O   0  0  0  0  0  0  0  0  0  0  0  0
   20.5423  -21.6828  -14.4409 O   0  0  0  0  0  0  0  0  0  0  0  0
  2 13  1  0
  2  1  1  6
  3  2  1  0
  3  4  1  0
  4  5  2  0
  4 12  1  0
  5  6  1  0
  6  7  1  0
  7  8  2  0
  8  9  1  0
 10  9  2  0
 11 10  1  0
 12 11  2  0
 12  7  1  0
 13 21  1  0
 14 13  2  0
 16 15  1  0
 17 16  2  0
 18 16  1  0
 19 18  1  0
 20 19  1  6
 21 20  1  0
 22 26  1  0
 22 20  1  0
 23 22  2  0
 25 24  1  6
 25 26  1  0
 25 27  1  0
 27 29  2  0
 27 28  1  0
M  END
$$$$
