WQA.pdb
     RDKit          3D

 29 30  0  0  1  0  0  0  0  0999 V2000
   23.4425  -10.0587  -14.1333 N   0  0  0  0  0  0  0  0  0  0  0  0
   22.4987   -9.4612  -15.0264 C   0  0  1  0  0  0  0  0  0  0  0  0
   21.3724  -10.3929  -15.4337 C   0  0  0  0  0  0  0  0  0  0  0  0
   21.9243  -11.5029  -16.2452 C   0  0  0  0  0  0  0  0  0  0  0  0
   22.4029  -12.7214  -15.7863 C   0  0  0  0  0  0  0  0  0  0  0  0
   22.8488  -13.4655  -16.8178 N   0  0  0  0  0  0  0  0  0  0  0  0
   22.6771  -12.7695  -17.9536 C   0  0  0  0  0  0  0  0  0  0  0  0
   22.9589  -13.0761  -19.2747 C   0  0  0  0  0  0  0  0  0  0  0  0
   22.6770  -12.1793  -20.2873 C   0  0  0  0  0  0  0  0  0  0  0  0
   22.1083  -10.9682  -19.9675 C   0  0  0  0  0  0  0  0  0  0  0  0
   21.8280  -10.6670  -18.6349 C   0  0  0  0  0  0  0  0  0  0  0  0
   22.1002  -11.5427  -17.6086 C   0  0  0  0  0  0  0  0  0  0  0  0
   21.9655   -8.1863  -14.4813 C   0  0  0  0  0  0  0  0  0  0  0  0
   21.6541   -8.0810  -13.2478 O   0  0  0  0  0  0  0  0  0  0  0  0
   23.6115   -2.5386  -16.0894 N   0  0  0  0  0  0  0  0  0  0  0  0
   22.5640   -2.2024  -15.2010 C   0  0  0  0  0  0  0  0  0  0  0  0
   22.4037   -1.0100  -14.8571 O   0  0  0  0  0  0  0  0  0  0  0  0
   21.7195   -3.3399  -14.7407 C   0  0  0  0  0  0  0  0  0  0  0  0
   22.1186   -4.6678  -15.2270 C   0  0  0  0  0  0  0  0  0  0  0  0
   21.2461   -5.8038  -14.7796 C   0  0  2  0  0  0  0  0  0  0  0  0
   21.7965   -7.0611  -15.3299 N   0  0  0  0  0  0  0  0  0  0  0  0
   19.8626   -5.7357  -15.2412 C   0  0  0  0  0  0  0  0  0  0  0  0
   19.5102   -6.3781  -16.2829 O   0  0  0  0  0  0  0  0  0  0  0  0
   16.8195   -6.3599  -15.1813 C   0  0  0  0  0  0  0  0  0  0  0  0
   17.4602   -4.9902  -15.1910 C   0  0  2  0  0  0  0  0  0  0  0  0
   18.8032   -5.0031  -14.6342 N   0  0  0  0  0  0  0  0  0  0  0  0
   16.5907   -4.0904  -14.3895 C   0  0  0  0  0  0  0  0  0  0  0  0
   15.2652   -3.8343  -14.7306 O   0  0  0  0  0  0  0  0  0  0  0  0
   17.0866   -3.5465  -13.3655 O   0  0  0  0  0  0  0  0  0  0  0  0
  2 13  1  0
  2  1  1  1
  3  2  1  0
  3  4  1  0
  4  5  2  0
  4 12  1  0
  5  6  1  0
  6  7  1  0
  7  8  2  0
  8  9  1  0
 10  9  2  0
 11 10  1  0
 12 11  2  0
 12  7  1  0
 13 21  1  0
 14 13  2  0
 16 15  1  0
 17 16  2  0
 18 16  1  0
 19 18  1  0
 20 19  1  6
 21 20  1  0
 22 26  1  0
 22 20  1  0
 23 22  2  0
 25 24  1  1
 25 26  1  0
 25 27  1  0
 27 29  2  0
 27 28  1  0
M  END
$$$$
