TVR.pdb
     RDKit          3D

 26 25  0  0  1  0  0  0  0  0999 V2000
    6.8052  -17.3756   20.9945 C   0  0  0  0  0  0  0  0  0  0  0  0
    7.4052  -16.6811   22.1981 C   0  0  1  0  0  0  0  0  0  0  0  0
    8.6279  -17.2687   22.4973 O   0  0  0  0  0  0  0  0  0  0  0  0
    7.5225  -15.1857   21.9691 C   0  0  2  0  0  0  0  0  0  0  0  0
    8.2660  -14.8935   20.7811 N   0  0  0  0  0  0  0  0  0  0  0  0
    8.0638  -14.4949   23.1692 C   0  0  0  0  0  0  0  0  0  0  0  0
    9.2746  -14.1578   23.2352 O   0  0  0  0  0  0  0  0  0  0  0  0
    7.1379  -12.4148   27.6146 C   0  0  0  0  0  0  0  0  0  0  0  0
    6.6881  -12.8814   26.2652 C   0  0  1  0  0  0  0  0  0  0  0  0
    6.0568  -11.7177   25.5302 C   0  0  0  0  0  0  0  0  0  0  0  0
    7.8036  -13.5088   25.4944 C   0  0  2  0  0  0  0  0  0  0  0  0
    7.2605  -14.1776   24.2974 N   0  0  0  0  0  0  0  0  0  0  0  0
    8.3983  -14.5974   26.3427 C   0  0  0  0  0  0  0  0  0  0  0  0
    7.7296  -15.6590   26.4191 O   0  0  0  0  0  0  0  0  0  0  0  0
   11.6259  -18.6924   23.5648 N   0  0  0  0  0  0  0  0  0  0  0  0
   11.7356  -19.6115   24.6460 C   0  0  0  0  0  0  0  0  0  0  0  0
   10.9652  -20.6570   24.5837 N   0  0  0  0  0  0  0  0  0  0  0  0
   12.6355  -19.3927   25.7250 N   0  0  0  0  0  0  0  0  0  0  0  0
   12.8345  -17.9595   26.0881 C   0  0  0  0  0  0  0  0  0  0  0  0
   11.8762  -17.5439   27.1215 C   0  0  0  0  0  0  0  0  0  0  0  0
   11.1428  -16.3016   26.8568 C   0  0  0  0  0  0  0  0  0  0  0  0
   10.1415  -15.7022   27.7297 C   0  0  2  0  0  0  0  0  0  0  0  0
    9.6102  -14.4944   27.0208 N   0  0  0  0  0  0  0  0  0  0  0  0
   10.3638  -15.2825   29.0884 C   0  0  0  0  0  0  0  0  0  0  0  0
   10.4980  -16.0562   30.2344 O   0  0  0  0  0  0  0  0  0  0  0  0
   10.4518  -14.0214   29.3519 O   0  0  0  0  0  0  0  0  0  0  0  0
  2  1  1  6
  2  4  1  0
  3  2  1  0
  4  6  1  0
  4  5  1  6
  6  7  2  0
  9  8  1  1
 10  9  1  0
 11  9  1  0
 11 12  1  6
 12  6  1  0
 13 14  2  0
 13 11  1  0
 15 16  1  0
 16 17  2  0
 18 16  1  0
 19 18  1  0
 20 19  1  0
 20 21  1  0
 22 21  1  6
 22 23  1  0
 23 13  1  0
 24 22  1  0
 24 25  1  0
 26 24  2  0
M  END
$$$$
