TVR.pdb
     RDKit          3D

 26 25  0  0  1  0  0  0  0  0999 V2000
    7.3736  -10.7950   26.7708 C   0  0  0  0  0  0  0  0  0  0  0  0
    7.6260  -12.0266   25.9279 C   0  0  1  0  0  0  0  0  0  0  0  0
    8.0398  -13.0640   26.7541 O   0  0  0  0  0  0  0  0  0  0  0  0
    6.4028  -12.3928   25.1080 C   0  0  2  0  0  0  0  0  0  0  0  0
    5.2383  -12.5196   25.9309 N   0  0  0  0  0  0  0  0  0  0  0  0
    6.6507  -13.5988   24.2746 C   0  0  0  0  0  0  0  0  0  0  0  0
    6.3281  -14.7463   24.6785 O   0  0  0  0  0  0  0  0  0  0  0  0
    6.1971  -14.0176   20.2767 C   0  0  0  0  0  0  0  0  0  0  0  0
    7.5665  -14.3969   20.7475 C   0  0  1  0  0  0  0  0  0  0  0  0
    8.5296  -13.2807   20.4020 C   0  0  0  0  0  0  0  0  0  0  0  0
    7.5795  -14.7350   22.2028 C   0  0  2  0  0  0  0  0  0  0  0  0
    7.2571  -13.5314   22.9915 N   0  0  0  0  0  0  0  0  0  0  0  0
    8.9848  -15.1120   22.5786 C   0  0  0  0  0  0  0  0  0  0  0  0
    9.5560  -14.3484   23.3976 O   0  0  0  0  0  0  0  0  0  0  0  0
    6.7343  -20.3536   27.2364 N   0  0  0  0  0  0  0  0  0  0  0  0
    7.6031  -21.0617   26.3589 C   0  0  0  0  0  0  0  0  0  0  0  0
    7.3978  -22.3424   26.2672 N   0  0  0  0  0  0  0  0  0  0  0  0
    8.6304  -20.4017   25.6304 N   0  0  0  0  0  0  0  0  0  0  0  0
    8.7685  -18.9468   25.9294 C   0  0  0  0  0  0  0  0  0  0  0  0
    9.9123  -18.3710   25.2089 C   0  0  0  0  0  0  0  0  0  0  0  0
    9.5870  -17.4303   24.1316 C   0  0  0  0  0  0  0  0  0  0  0  0
   10.4708  -17.0524   23.0362 C   0  0  2  0  0  0  0  0  0  0  0  0
    9.6604  -16.2256   22.0860 N   0  0  0  0  0  0  0  0  0  0  0  0
   11.2136  -17.9680   22.2105 C   0  0  0  0  0  0  0  0  0  0  0  0
   11.0204  -18.2989   20.8752 O   0  0  0  0  0  0  0  0  0  0  0  0
   12.2076  -18.6138   22.7226 O   0  0  0  0  0  0  0  0  0  0  0  0
  2  1  1  1
  2  4  1  0
  3  2  1  0
  4  6  1  0
  4  5  1  1
  6  7  2  0
  9  8  1  1
 10  9  1  0
 11  9  1  0
 11 12  1  1
 12  6  1  0
 13 14  2  0
 13 11  1  0
 15 16  1  0
 16 17  2  0
 18 16  1  0
 19 18  1  0
 20 19  1  0
 20 21  1  0
 22 21  1  1
 22 23  1  0
 23 13  1  0
 24 22  1  0
 24 25  1  0
 26 24  2  0
M  END
$$$$
