TVR.pdb
     RDKit          3D

 26 25  0  0  1  0  0  0  0  0999 V2000
    6.3642  -16.0664   19.9678 C   0  0  0  0  0  0  0  0  0  0  0  0
    6.9817  -15.6420   21.2829 C   0  0  1  0  0  0  0  0  0  0  0  0
    8.2008  -16.2891   21.4407 O   0  0  0  0  0  0  0  0  0  0  0  0
    7.1125  -14.1327   21.3681 C   0  0  2  0  0  0  0  0  0  0  0  0
    7.7588  -13.5958   20.2091 N   0  0  0  0  0  0  0  0  0  0  0  0
    7.7689  -13.7167   22.6356 C   0  0  0  0  0  0  0  0  0  0  0  0
    8.9801  -13.3755   22.6597 O   0  0  0  0  0  0  0  0  0  0  0  0
    7.2643  -12.3825   27.4088 C   0  0  0  0  0  0  0  0  0  0  0  0
    6.6793  -12.7449   26.0794 C   0  0  1  0  0  0  0  0  0  0  0  0
    5.9111  -11.5558   25.5420 C   0  0  0  0  0  0  0  0  0  0  0  0
    7.7231  -13.2307   25.1272 C   0  0  2  0  0  0  0  0  0  0  0  0
    7.0805  -13.6792   23.8780 N   0  0  0  0  0  0  0  0  0  0  0  0
    8.3634  -14.4519   25.7248 C   0  0  0  0  0  0  0  0  0  0  0  0
    8.9175  -14.2888   26.8412 O   0  0  0  0  0  0  0  0  0  0  0  0
    5.5770  -21.6861   28.0684 N   0  0  0  0  0  0  0  0  0  0  0  0
    6.9015  -22.1834   27.9124 C   0  0  0  0  0  0  0  0  0  0  0  0
    7.1184  -23.3783   28.3769 N   0  0  0  0  0  0  0  0  0  0  0  0
    7.9200  -21.4143   27.2855 N   0  0  0  0  0  0  0  0  0  0  0  0
    7.5190  -20.0218   26.9316 C   0  0  0  0  0  0  0  0  0  0  0  0
    8.5342  -19.3852   26.0813 C   0  0  0  0  0  0  0  0  0  0  0  0
    8.2241  -18.0301   25.6133 C   0  0  0  0  0  0  0  0  0  0  0  0
    9.0359  -16.8427   25.8470 C   0  0  2  0  0  0  0  0  0  0  0  0
    8.3707  -15.7098   25.1275 N   0  0  0  0  0  0  0  0  0  0  0  0
   10.4377  -16.7184   25.5450 C   0  0  0  0  0  0  0  0  0  0  0  0
   11.5358  -17.0998   26.3057 O   0  0  0  0  0  0  0  0  0  0  0  0
   10.7961  -16.1762   24.4292 O   0  0  0  0  0  0  0  0  0  0  0  0
  2  1  1  6
  2  4  1  0
  3  2  1  0
  4  6  1  0
  4  5  1  6
  6  7  2  0
  9  8  1  1
 10  9  1  0
 11  9  1  0
 11 12  1  6
 12  6  1  0
 13 14  2  0
 13 11  1  0
 15 16  1  0
 16 17  2  0
 18 16  1  0
 19 18  1  0
 20 19  1  0
 20 21  1  0
 22 21  1  6
 22 23  1  0
 23 13  1  0
 24 22  1  0
 24 25  1  0
 26 24  2  0
M  END
$$$$
