TVR.pdb
     RDKit          3D

 26 25  0  0  1  0  0  0  0  0999 V2000
    7.0304  -16.1957   21.3791 C   0  0  0  0  0  0  0  0  0  0  0  0
    7.8049  -15.1556   20.5983 C   0  0  1  0  0  0  0  0  0  0  0  0
    7.5422  -15.3176   19.2438 O   0  0  0  0  0  0  0  0  0  0  0  0
    7.4892  -13.7537   21.0853 C   0  0  2  0  0  0  0  0  0  0  0  0
    7.9281  -12.7622   20.1505 N   0  0  0  0  0  0  0  0  0  0  0  0
    8.0183  -13.5244   22.4557 C   0  0  0  0  0  0  0  0  0  0  0  0
    9.2347  -13.2654   22.6487 O   0  0  0  0  0  0  0  0  0  0  0  0
    7.1017  -12.7134   27.2758 C   0  0  0  0  0  0  0  0  0  0  0  0
    6.6573  -12.8166   25.8500 C   0  0  1  0  0  0  0  0  0  0  0  0
    6.1832  -11.4556   25.3853 C   0  0  0  0  0  0  0  0  0  0  0  0
    7.7283  -13.3802   24.9739 C   0  0  2  0  0  0  0  0  0  0  0  0
    7.1966  -13.5827   23.6134 N   0  0  0  0  0  0  0  0  0  0  0  0
    8.0771  -14.7479   25.4897 C   0  0  0  0  0  0  0  0  0  0  0  0
    7.3658  -15.6920   25.0622 O   0  0  0  0  0  0  0  0  0  0  0  0
   12.9291  -18.4143   21.1364 N   0  0  0  0  0  0  0  0  0  0  0  0
   12.9746  -19.4475   22.1145 C   0  0  0  0  0  0  0  0  0  0  0  0
   13.5092  -20.5692   21.7318 N   0  0  0  0  0  0  0  0  0  0  0  0
   12.4645  -19.2567   23.4279 N   0  0  0  0  0  0  0  0  0  0  0  0
   11.8318  -17.9263   23.6623 C   0  0  0  0  0  0  0  0  0  0  0  0
   11.1209  -17.9043   24.9481 C   0  0  0  0  0  0  0  0  0  0  0  0
   10.4227  -16.6569   25.2763 C   0  0  0  0  0  0  0  0  0  0  0  0
    9.6368  -16.4128   26.4790 C   0  0  2  0  0  0  0  0  0  0  0  0
    9.1127  -15.0130   26.3821 N   0  0  0  0  0  0  0  0  0  0  0  0
   10.1148  -16.5506   27.8296 C   0  0  0  0  0  0  0  0  0  0  0  0
   10.3766  -17.7071   28.5534 O   0  0  0  0  0  0  0  0  0  0  0  0
   10.3449  -15.4891   28.5279 O   0  0  0  0  0  0  0  0  0  0  0  0
  2  1  1  1
  2  4  1  0
  3  2  1  0
  4  6  1  0
  4  5  1  6
  6  7  2  0
  9  8  1  1
 10  9  1  0
 11  9  1  0
 11 12  1  6
 12  6  1  0
 13 14  2  0
 13 11  1  0
 15 16  1  0
 16 17  2  0
 18 16  1  0
 19 18  1  0
 20 19  1  0
 20 21  1  0
 22 21  1  6
 22 23  1  0
 23 13  1  0
 24 22  1  0
 24 25  1  0
 26 24  2  0
M  END
$$$$
