TVR.pdb
     RDKit          3D

 26 25  0  0  1  0  0  0  0  0999 V2000
   10.3220  -17.5787   27.1954 C   0  0  0  0  0  0  0  0  0  0  0  0
    9.2784  -18.5657   27.6729 C   0  0  1  0  0  0  0  0  0  0  0  0
    9.7970  -19.2944   28.7359 O   0  0  0  0  0  0  0  0  0  0  0  0
    7.9807  -17.8651   28.0302 C   0  0  2  0  0  0  0  0  0  0  0  0
    7.0271  -18.7777   28.5844 N   0  0  0  0  0  0  0  0  0  0  0  0
    7.4406  -17.1029   26.8736 C   0  0  0  0  0  0  0  0  0  0  0  0
    6.6376  -17.6334   26.0626 O   0  0  0  0  0  0  0  0  0  0  0  0
    6.9123  -12.7716   24.4902 C   0  0  0  0  0  0  0  0  0  0  0  0
    7.2079  -13.5751   25.7181 C   0  0  1  0  0  0  0  0  0  0  0  0
    6.1382  -13.2984   26.7536 C   0  0  0  0  0  0  0  0  0  0  0  0
    7.3442  -15.0307   25.4098 C   0  0  2  0  0  0  0  0  0  0  0  0
    7.7919  -15.7504   26.6165 N   0  0  0  0  0  0  0  0  0  0  0  0
    8.4462  -15.1895   24.4004 C   0  0  0  0  0  0  0  0  0  0  0  0
    9.4845  -14.5136   24.6126 O   0  0  0  0  0  0  0  0  0  0  0  0
    8.5043  -12.0378   17.9508 N   0  0  0  0  0  0  0  0  0  0  0  0
    7.9278  -13.3071   17.6631 C   0  0  0  0  0  0  0  0  0  0  0  0
    8.2217  -13.8150   16.5029 N   0  0  0  0  0  0  0  0  0  0  0  0
    7.0831  -13.9727   18.5933 N   0  0  0  0  0  0  0  0  0  0  0  0
    7.5585  -13.9298   20.0066 C   0  0  0  0  0  0  0  0  0  0  0  0
    8.8178  -14.6715   20.1576 C   0  0  0  0  0  0  0  0  0  0  0  0
    9.3521  -14.7619   21.5205 C   0  0  0  0  0  0  0  0  0  0  0  0
    9.5034  -15.9866   22.2957 C   0  0  2  0  0  0  0  0  0  0  0  0
    8.3788  -16.0198   23.2846 N   0  0  0  0  0  0  0  0  0  0  0  0
   10.6776  -16.3642   23.0375 C   0  0  0  0  0  0  0  0  0  0  0  0
   10.8087  -16.6343   24.3939 O   0  0  0  0  0  0  0  0  0  0  0  0
   11.8049  -16.4772   22.4180 O   0  0  0  0  0  0  0  0  0  0  0  0
  2  1  1  1
  2  4  1  0
  3  2  1  0
  4  6  1  0
  4  5  1  6
  6  7  2  0
  9  8  1  6
 10  9  1  0
 11  9  1  0
 11 12  1  1
 12  6  1  0
 13 14  2  0
 13 11  1  0
 15 16  1  0
 16 17  2  0
 18 16  1  0
 19 18  1  0
 20 19  1  0
 20 21  1  0
 22 21  1  1
 22 23  1  0
 23 13  1  0
 24 22  1  0
 24 25  1  0
 26 24  2  0
M  END
$$$$
