TVR.pdb
     RDKit          3D

 26 25  0  0  1  0  0  0  0  0999 V2000
    6.3450  -15.7364   21.1136 C   0  0  0  0  0  0  0  0  0  0  0  0
    7.2786  -14.8200   20.3522 C   0  0  1  0  0  0  0  0  0  0  0  0
    6.8926  -14.7870   19.0181 O   0  0  0  0  0  0  0  0  0  0  0  0
    7.3228  -13.4375   20.9760 C   0  0  2  0  0  0  0  0  0  0  0  0
    7.8328  -12.4640   20.0586 N   0  0  0  0  0  0  0  0  0  0  0  0
    8.0587  -13.4496   22.2678 C   0  0  0  0  0  0  0  0  0  0  0  0
    9.3161  -13.4937   22.3000 O   0  0  0  0  0  0  0  0  0  0  0  0
    7.2203  -11.3286   25.7132 C   0  0  0  0  0  0  0  0  0  0  0  0
    7.2967  -12.8150   25.8733 C   0  0  1  0  0  0  0  0  0  0  0  0
    5.8908  -13.3753   25.9205 C   0  0  0  0  0  0  0  0  0  0  0  0
    8.1297  -13.4463   24.8058 C   0  0  2  0  0  0  0  0  0  0  0  0
    7.3987  -13.4126   23.5254 N   0  0  0  0  0  0  0  0  0  0  0  0
    8.2981  -14.8999   25.1480 C   0  0  0  0  0  0  0  0  0  0  0  0
    7.4226  -15.6757   24.6879 O   0  0  0  0  0  0  0  0  0  0  0  0
   13.9286  -18.3876   21.0335 N   0  0  0  0  0  0  0  0  0  0  0  0
   13.5310  -19.5879   21.6872 C   0  0  0  0  0  0  0  0  0  0  0  0
   14.0716  -20.6834   21.2421 N   0  0  0  0  0  0  0  0  0  0  0  0
   12.5988  -19.5810   22.7610 N   0  0  0  0  0  0  0  0  0  0  0  0
   12.0293  -18.2401   23.0816 C   0  0  0  0  0  0  0  0  0  0  0  0
   11.1632  -18.3094   24.2666 C   0  0  0  0  0  0  0  0  0  0  0  0
   10.5702  -17.0418   24.7054 C   0  0  0  0  0  0  0  0  0  0  0  0
    9.6501  -16.8746   25.8231 C   0  0  2  0  0  0  0  0  0  0  0  0
    9.3388  -15.4126   25.9182 N   0  0  0  0  0  0  0  0  0  0  0  0
    9.8941  -17.3035   27.1752 C   0  0  0  0  0  0  0  0  0  0  0  0
   10.0144  -18.5929   27.6779 O   0  0  0  0  0  0  0  0  0  0  0  0
   10.0201  -16.4160   28.1046 O   0  0  0  0  0  0  0  0  0  0  0  0
  2  1  1  1
  2  4  1  0
  3  2  1  0
  4  6  1  0
  4  5  1  6
  6  7  2  0
  9  8  1  6
 10  9  1  0
 11  9  1  0
 11 12  1  6
 12  6  1  0
 13 14  2  0
 13 11  1  0
 15 16  1  0
 16 17  2  0
 18 16  1  0
 19 18  1  0
 20 19  1  0
 20 21  1  0
 22 21  1  6
 22 23  1  0
 23 13  1  0
 24 22  1  0
 24 25  1  0
 26 24  2  0
M  END
$$$$
