TVR.pdb
     RDKit          3D

 26 25  0  0  1  0  0  0  0  0999 V2000
    7.9287  -20.6280   27.1954 C   0  0  0  0  0  0  0  0  0  0  0  0
    7.9152  -19.3663   26.3594 C   0  0  1  0  0  0  0  0  0  0  0  0
    8.5440  -19.6196   25.1468 O   0  0  0  0  0  0  0  0  0  0  0  0
    6.5036  -18.8396   26.1801 C   0  0  2  0  0  0  0  0  0  0  0  0
    5.6323  -19.8437   25.6491 N   0  0  0  0  0  0  0  0  0  0  0  0
    6.4906  -17.5868   25.3796 C   0  0  0  0  0  0  0  0  0  0  0  0
    5.9300  -17.5399   24.2537 O   0  0  0  0  0  0  0  0  0  0  0  0
    7.7082  -12.7516   25.0669 C   0  0  0  0  0  0  0  0  0  0  0  0
    7.4368  -13.9836   25.8728 C   0  0  1  0  0  0  0  0  0  0  0  0
    6.3152  -13.6936   26.8479 C   0  0  0  0  0  0  0  0  0  0  0  0
    7.1491  -15.1638   25.0030 C   0  0  2  0  0  0  0  0  0  0  0  0
    7.1002  -16.3846   25.8289 N   0  0  0  0  0  0  0  0  0  0  0  0
    8.3108  -15.3438   24.0668 C   0  0  0  0  0  0  0  0  0  0  0  0
    9.3306  -15.8900   24.5584 O   0  0  0  0  0  0  0  0  0  0  0  0
    7.7768  -12.4891   16.4153 N   0  0  0  0  0  0  0  0  0  0  0  0
    8.4851  -13.7148   16.5636 C   0  0  0  0  0  0  0  0  0  0  0  0
    8.5976  -14.4397   15.4901 N   0  0  0  0  0  0  0  0  0  0  0  0
    9.0333  -14.1151   17.8130 N   0  0  0  0  0  0  0  0  0  0  0  0
    8.6831  -13.2269   18.9592 C   0  0  0  0  0  0  0  0  0  0  0  0
    8.1466  -14.0086   20.0817 C   0  0  0  0  0  0  0  0  0  0  0  0
    8.8979  -15.2153   20.4430 C   0  0  0  0  0  0  0  0  0  0  0  0
    9.2831  -15.6055   21.7932 C   0  0  2  0  0  0  0  0  0  0  0  0
    8.3133  -14.9535   22.7301 N   0  0  0  0  0  0  0  0  0  0  0  0
   10.5808  -15.4018   22.3817 C   0  0  0  0  0  0  0  0  0  0  0  0
   11.7296  -16.1733   22.2602 O   0  0  0  0  0  0  0  0  0  0  0  0
   10.7710  -14.3814   23.1499 O   0  0  0  0  0  0  0  0  0  0  0  0
  2  1  1  1
  2  4  1  0
  3  2  1  0
  4  6  1  0
  4  5  1  6
  6  7  2  0
  9  8  1  6
 10  9  1  0
 11  9  1  0
 11 12  1  1
 12  6  1  0
 13 14  2  0
 13 11  1  0
 15 16  1  0
 16 17  2  0
 18 16  1  0
 19 18  1  0
 20 19  1  0
 20 21  1  0
 22 21  1  6
 22 23  1  0
 23 13  1  0
 24 22  1  0
 24 25  1  0
 26 24  2  0
M  END
$$$$
