TVR.pdb
     RDKit          3D

 26 25  0  0  1  0  0  0  0  0999 V2000
    7.1738  -18.0069   21.1382 C   0  0  0  0  0  0  0  0  0  0  0  0
    7.7203  -17.2151   22.3067 C   0  0  1  0  0  0  0  0  0  0  0  0
    8.8728  -17.8343   22.7740 O   0  0  0  0  0  0  0  0  0  0  0  0
    7.9559  -15.7650   21.9271 C   0  0  2  0  0  0  0  0  0  0  0  0
    8.8307  -15.6533   20.7994 N   0  0  0  0  0  0  0  0  0  0  0  0
    8.4189  -14.9682   23.0937 C   0  0  0  0  0  0  0  0  0  0  0  0
    9.6435  -14.7548   23.2912 O   0  0  0  0  0  0  0  0  0  0  0  0
    7.1903  -12.2143   27.0783 C   0  0  0  0  0  0  0  0  0  0  0  0
    6.8464  -12.8349   25.7602 C   0  0  1  0  0  0  0  0  0  0  0  0
    6.3821  -11.7481   24.8136 C   0  0  0  0  0  0  0  0  0  0  0  0
    7.9844  -13.6292   25.2067 C   0  0  2  0  0  0  0  0  0  0  0  0
    7.5221  -14.4075   24.0425 N   0  0  0  0  0  0  0  0  0  0  0  0
    8.3930  -14.6379   26.2430 C   0  0  0  0  0  0  0  0  0  0  0  0
    7.5545  -15.5416   26.4879 O   0  0  0  0  0  0  0  0  0  0  0  0
   13.8105  -18.3927   29.8238 N   0  0  0  0  0  0  0  0  0  0  0  0
   13.2807  -19.6710   29.4900 C   0  0  0  0  0  0  0  0  0  0  0  0
   13.5502  -20.6329   30.3222 N   0  0  0  0  0  0  0  0  0  0  0  0
   12.5048  -19.8755   28.3161 N   0  0  0  0  0  0  0  0  0  0  0  0
   12.2148  -18.6360   27.5385 C   0  0  0  0  0  0  0  0  0  0  0  0
   11.2198  -17.8051   28.2304 C   0  0  0  0  0  0  0  0  0  0  0  0
   10.8049  -16.5832   27.5332 C   0  0  0  0  0  0  0  0  0  0  0  0
    9.8316  -15.6143   28.0207 C   0  0  2  0  0  0  0  0  0  0  0  0
    9.6106  -14.6243   26.9186 N   0  0  0  0  0  0  0  0  0  0  0  0
    9.9651  -14.8296   29.2199 C   0  0  0  0  0  0  0  0  0  0  0  0
    9.9453  -15.2440   30.5457 O   0  0  0  0  0  0  0  0  0  0  0  0
   10.1187  -13.5512   29.1225 O   0  0  0  0  0  0  0  0  0  0  0  0
  2  1  1  6
  2  4  1  0
  3  2  1  0
  4  6  1  0
  4  5  1  6
  6  7  2  0
  9  8  1  1
 10  9  1  0
 11  9  1  0
 11 12  1  6
 12  6  1  0
 13 14  2  0
 13 11  1  0
 15 16  1  0
 16 17  2  0
 18 16  1  0
 19 18  1  0
 20 19  1  0
 20 21  1  0
 22 21  1  6
 22 23  1  0
 23 13  1  0
 24 22  1  0
 24 25  1  0
 26 24  2  0
M  END
$$$$
