DEI.pdb
     RDKit          3D

 26 25  0  0  1  0  0  0  0  0999 V2000
   19.7775  -26.4076  -12.1179 N   0  0  0  0  0  0  0  0  0  0  0  0
   19.5405  -25.1858  -11.4170 C   0  0  1  0  0  0  0  0  0  0  0  0
   19.0446  -24.0957  -12.3294 C   0  0  0  0  0  0  0  0  0  0  0  0
   20.1469  -23.6473  -13.1978 C   0  0  0  0  0  0  0  0  0  0  0  0
   21.1335  -24.3887  -13.4866 O   0  0  0  0  0  0  0  0  0  0  0  0
   18.6090  -25.3817  -10.2532 C   0  0  0  0  0  0  0  0  0  0  0  0
   17.4970  -25.9486  -10.4031 O   0  0  0  0  0  0  0  0  0  0  0  0
   20.1180  -22.3717  -13.7252 O   0  0  0  0  0  0  0  0  0  0  0  0
   18.9348  -24.9411   -8.9405 N   0  0  0  0  0  0  0  0  0  0  0  0
   18.0058  -25.0562   -7.8331 C   0  0  1  0  0  0  0  0  0  0  0  0
   18.6481  -24.6792   -6.5171 C   0  0  0  0  0  0  0  0  0  0  0  0
   17.6771  -24.7085   -5.3757 C   0  0  0  0  0  0  0  0  0  0  0  0
   18.0857  -25.7691   -4.4267 C   0  0  0  0  0  0  0  0  0  0  0  0
   19.2412  -26.2532   -4.4770 O   0  0  0  0  0  0  0  0  0  0  0  0
   16.7632  -24.2841   -8.0716 C   0  0  0  0  0  0  0  0  0  0  0  0
   16.8994  -23.0873   -8.4346 O   0  0  0  0  0  0  0  0  0  0  0  0
   17.2211  -26.2606   -3.4612 O   0  0  0  0  0  0  0  0  0  0  0  0
   11.6945  -26.9681   -7.8505 C   0  0  0  0  0  0  0  0  0  0  0  0
   12.8052  -26.0177   -7.5021 C   0  0  0  0  0  0  0  0  0  0  0  0
   13.1128  -25.0167   -8.5692 C   0  0  2  0  0  0  0  0  0  0  0  0
   13.5049  -25.7780   -9.8164 C   0  0  0  0  0  0  0  0  0  0  0  0
   14.2420  -24.0828   -8.2240 C   0  0  2  0  0  0  0  0  0  0  0  0
   15.4671  -24.7951   -7.9204 N   0  0  0  0  0  0  0  0  0  0  0  0
   13.8328  -23.3418   -7.0082 C   0  0  0  0  0  0  0  0  0  0  0  0
   14.3956  -23.5890   -5.9189 O   0  0  0  0  0  0  0  0  0  0  0  0
   12.8474  -22.3780   -7.0173 O   0  0  0  0  0  0  0  0  0  0  0  0
  2  1  1  6
  3  2  1  0
  3  4  1  0
  4  8  1  0
  4  5  2  0
  6  2  1  0
  6  7  2  0
  9  6  1  0
 10  9  1  0
 10 11  1  1
 12 11  1  0
 12 13  1  0
 13 14  2  0
 15 10  1  0
 15 23  1  0
 16 15  2  0
 17 13  1  0
 19 18  1  0
 20 19  1  0
 20 21  1  6
 22 23  1  1
 22 20  1  0
 24 22  1  0
 25 24  2  0
 26 24  1  0
M  END
$$$$
