DEI.pdb
     RDKit          3D

 26 25  0  0  1  0  0  0  0  0999 V2000
   17.8195  -14.8371  -17.3128 N   0  0  0  0  0  0  0  0  0  0  0  0
   17.3872  -13.7220  -16.5319 C   0  0  1  0  0  0  0  0  0  0  0  0
   17.3401  -14.0433  -15.0619 C   0  0  0  0  0  0  0  0  0  0  0  0
   16.2978  -15.0553  -14.8169 C   0  0  0  0  0  0  0  0  0  0  0  0
   16.5027  -16.0905  -14.1151 O   0  0  0  0  0  0  0  0  0  0  0  0
   18.2248  -12.5006  -16.7915 C   0  0  0  0  0  0  0  0  0  0  0  0
   19.4630  -12.5952  -16.9870 O   0  0  0  0  0  0  0  0  0  0  0  0
   15.0434  -14.8827  -15.3671 O   0  0  0  0  0  0  0  0  0  0  0  0
   17.6655  -11.1933  -16.8283 N   0  0  0  0  0  0  0  0  0  0  0  0
   18.4658  -10.0174  -17.1101 C   0  0  1  0  0  0  0  0  0  0  0  0
   17.6067   -8.8095  -17.4096 C   0  0  0  0  0  0  0  0  0  0  0  0
   18.4184   -7.6095  -17.7941 C   0  0  0  0  0  0  0  0  0  0  0  0
   17.5027   -6.4745  -18.0510 C   0  0  0  0  0  0  0  0  0  0  0  0
   17.9570   -5.3640  -18.4149 O   0  0  0  0  0  0  0  0  0  0  0  0
   19.4372   -9.7372  -16.0261 C   0  0  0  0  0  0  0  0  0  0  0  0
   19.0934  -10.0573  -14.8590 O   0  0  0  0  0  0  0  0  0  0  0  0
   16.1297   -6.5930  -17.9017 O   0  0  0  0  0  0  0  0  0  0  0  0
   24.2412  -11.7810  -14.9802 C   0  0  0  0  0  0  0  0  0  0  0  0
   22.9722  -11.0093  -14.7522 C   0  0  0  0  0  0  0  0  0  0  0  0
   22.9488   -9.6625  -15.4010 C   0  0  2  0  0  0  0  0  0  0  0  0
   24.0848   -8.8504  -14.8190 C   0  0  0  0  0  0  0  0  0  0  0  0
   21.6717   -8.8978  -15.1759 C   0  0  2  0  0  0  0  0  0  0  0  0
   20.6942   -9.1477  -16.2164 N   0  0  0  0  0  0  0  0  0  0  0  0
   22.0184   -7.4580  -15.2130 C   0  0  0  0  0  0  0  0  0  0  0  0
   22.5272   -6.9219  -14.2040 O   0  0  0  0  0  0  0  0  0  0  0  0
   21.8053   -6.6668  -16.3214 O   0  0  0  0  0  0  0  0  0  0  0  0
  2  1  1  6
  3  2  1  0
  3  4  1  0
  4  8  1  0
  4  5  2  0
  6  2  1  0
  6  7  2  0
  9  6  1  0
 10  9  1  0
 10 11  1  1
 12 11  1  0
 12 13  1  0
 13 14  2  0
 15 10  1  0
 15 23  1  0
 16 15  2  0
 17 13  1  0
 19 18  1  0
 20 19  1  0
 20 21  1  1
 22 23  1  6
 22 20  1  0
 24 22  1  0
 25 24  2  0
 26 24  1  0
M  END
$$$$
