DEI.pdb
     RDKit          3D

 26 25  0  0  1  0  0  0  0  0999 V2000
   19.2510  -18.9833  -14.1210 N   0  0  0  0  0  0  0  0  0  0  0  0
   19.6988  -20.2031  -13.5280 C   0  0  1  0  0  0  0  0  0  0  0  0
   18.7116  -21.3233  -13.7210 C   0  0  0  0  0  0  0  0  0  0  0  0
   17.4080  -20.9265  -13.1611 C   0  0  0  0  0  0  0  0  0  0  0  0
   17.2607  -20.5846  -11.9496 O   0  0  0  0  0  0  0  0  0  0  0  0
   21.0640  -20.5951  -14.0212 C   0  0  0  0  0  0  0  0  0  0  0  0
   21.6476  -21.6125  -13.5689 O   0  0  0  0  0  0  0  0  0  0  0  0
   16.2936  -20.9221  -13.9762 O   0  0  0  0  0  0  0  0  0  0  0  0
   21.7552  -19.8439  -15.0119 N   0  0  0  0  0  0  0  0  0  0  0  0
   23.0573  -20.2387  -15.5131 C   0  0  1  0  0  0  0  0  0  0  0  0
   23.3060  -19.7151  -16.9098 C   0  0  0  0  0  0  0  0  0  0  0  0
   22.3021  -20.2233  -17.9000 C   0  0  0  0  0  0  0  0  0  0  0  0
   22.6219  -19.6668  -19.2345 C   0  0  0  0  0  0  0  0  0  0  0  0
   23.5893  -20.1167  -19.8930 O   0  0  0  0  0  0  0  0  0  0  0  0
   24.1471  -19.8511  -14.5862 C   0  0  0  0  0  0  0  0  0  0  0  0
   24.1746  -18.6500  -14.2130 O   0  0  0  0  0  0  0  0  0  0  0  0
   21.8767  -18.6433  -19.7988 O   0  0  0  0  0  0  0  0  0  0  0  0
   25.0308  -21.4558   -9.7668 C   0  0  0  0  0  0  0  0  0  0  0  0
   25.0970  -20.6835  -11.0542 C   0  0  0  0  0  0  0  0  0  0  0  0
   26.2343  -21.0715  -11.9439 C   0  0  2  0  0  0  0  0  0  0  0  0
   27.5204  -20.7422  -11.2185 C   0  0  0  0  0  0  0  0  0  0  0  0
   26.2509  -20.3491  -13.2646 C   0  0  2  0  0  0  0  0  0  0  0  0
   25.1329  -20.7243  -14.1071 N   0  0  0  0  0  0  0  0  0  0  0  0
   27.4978  -20.7470  -13.9585 C   0  0  0  0  0  0  0  0  0  0  0  0
   27.5193  -21.8044  -14.6262 O   0  0  0  0  0  0  0  0  0  0  0  0
   28.6540  -19.9984  -13.9046 O   0  0  0  0  0  0  0  0  0  0  0  0
  2  1  1  6
  3  2  1  0
  3  4  1  0
  4  8  1  0
  4  5  2  0
  6  2  1  0
  6  7  2  0
  9  6  1  0
 10  9  1  0
 10 11  1  6
 12 11  1  0
 12 13  1  0
 13 14  2  0
 15 10  1  0
 15 23  1  0
 16 15  2  0
 17 13  1  0
 19 18  1  0
 20 19  1  0
 20 21  1  1
 22 23  1  6
 22 20  1  0
 24 22  1  0
 25 24  2  0
 26 24  1  0
M  END
$$$$
