DEI.pdb
     RDKit          3D

 26 25  0  0  1  0  0  0  0  0999 V2000
   19.8624   -8.7195  -13.6124 N   0  0  0  0  0  0  0  0  0  0  0  0
   18.4899   -8.6495  -14.0017 C   0  0  1  0  0  0  0  0  0  0  0  0
   18.0802   -9.8244  -14.8491 C   0  0  0  0  0  0  0  0  0  0  0  0
   18.8629   -9.8221  -16.0973 C   0  0  0  0  0  0  0  0  0  0  0  0
   18.8874   -8.8303  -16.8860 O   0  0  0  0  0  0  0  0  0  0  0  0
   17.5802   -8.4964  -12.8143 C   0  0  0  0  0  0  0  0  0  0  0  0
   17.7372   -9.1998  -11.7844 O   0  0  0  0  0  0  0  0  0  0  0  0
   19.6039  -10.9372  -16.4344 O   0  0  0  0  0  0  0  0  0  0  0  0
   16.5098   -7.5598  -12.7970 N   0  0  0  0  0  0  0  0  0  0  0  0
   15.7388   -7.2885  -11.5992 C   0  0  1  0  0  0  0  0  0  0  0  0
   15.3869   -5.8232  -11.4753 C   0  0  0  0  0  0  0  0  0  0  0  0
   16.5692   -4.9783  -11.1081 C   0  0  0  0  0  0  0  0  0  0  0  0
   16.8572   -5.1584   -9.6668 C   0  0  0  0  0  0  0  0  0  0  0  0
   16.1843   -5.9653   -8.9826 O   0  0  0  0  0  0  0  0  0  0  0  0
   14.5327   -8.1457  -11.5123 C   0  0  0  0  0  0  0  0  0  0  0  0
   13.9477   -8.4136  -12.5933 O   0  0  0  0  0  0  0  0  0  0  0  0
   17.8654   -4.4539   -9.0279 O   0  0  0  0  0  0  0  0  0  0  0  0
   11.3584  -12.1728   -9.1567 C   0  0  0  0  0  0  0  0  0  0  0  0
   11.3262  -10.7608   -8.6436 C   0  0  0  0  0  0  0  0  0  0  0  0
   12.6078  -10.0129   -8.8263 C   0  0  2  0  0  0  0  0  0  0  0  0
   12.6207   -8.8708   -7.8342 C   0  0  0  0  0  0  0  0  0  0  0  0
   12.7846   -9.4305  -10.2033 C   0  0  2  0  0  0  0  0  0  0  0  0
   14.0114   -8.6679  -10.3210 N   0  0  0  0  0  0  0  0  0  0  0  0
   11.6498   -8.5055  -10.4297 C   0  0  0  0  0  0  0  0  0  0  0  0
   10.5353   -8.9686  -10.7582 O   0  0  0  0  0  0  0  0  0  0  0  0
   11.7621   -7.1384  -10.2942 O   0  0  0  0  0  0  0  0  0  0  0  0
  2  1  1  1
  3  2  1  0
  3  4  1  0
  4  8  1  0
  4  5  2  0
  6  2  1  0
  6  7  2  0
  9  6  1  0
 10  9  1  0
 10 11  1  6
 12 11  1  0
 12 13  1  0
 13 14  2  0
 15 10  1  0
 15 23  1  0
 16 15  2  0
 17 13  1  0
 19 18  1  0
 20 19  1  0
 20 21  1  1
 22 23  1  1
 22 20  1  0
 24 22  1  0
 25 24  2  0
 26 24  1  0
M  END
$$$$
