DEI.pdb
     RDKit          3D

 26 25  0  0  1  0  0  0  0  0999 V2000
   17.7252  -12.0047  -16.7053 N   0  0  0  0  0  0  0  0  0  0  0  0
   17.2428  -11.0356  -15.7735 C   0  0  1  0  0  0  0  0  0  0  0  0
   16.5279  -11.6726  -14.6118 C   0  0  0  0  0  0  0  0  0  0  0  0
   15.1640  -12.0469  -15.0242 C   0  0  0  0  0  0  0  0  0  0  0  0
   14.3651  -12.6661  -14.2596 O   0  0  0  0  0  0  0  0  0  0  0  0
   18.3400  -10.1237  -15.2985 C   0  0  0  0  0  0  0  0  0  0  0  0
   18.4060   -9.7632  -14.0961 O   0  0  0  0  0  0  0  0  0  0  0  0
   14.7247  -11.7167  -16.2908 O   0  0  0  0  0  0  0  0  0  0  0  0
   19.3456   -9.6294  -16.1748 N   0  0  0  0  0  0  0  0  0  0  0  0
   20.4980   -8.8933  -15.6924 C   0  0  1  0  0  0  0  0  0  0  0  0
   21.4947   -8.6203  -16.7963 C   0  0  0  0  0  0  0  0  0  0  0  0
   22.7277   -7.9290  -16.2977 C   0  0  0  0  0  0  0  0  0  0  0  0
   23.6200   -7.6536  -17.4470 C   0  0  0  0  0  0  0  0  0  0  0  0
   23.9560   -8.5787  -18.2238 O   0  0  0  0  0  0  0  0  0  0  0  0
   20.1047   -7.6457  -14.9954 C   0  0  0  0  0  0  0  0  0  0  0  0
   19.2032   -6.9540  -15.5351 O   0  0  0  0  0  0  0  0  0  0  0  0
   24.1109   -6.3833  -17.7050 O   0  0  0  0  0  0  0  0  0  0  0  0
   18.1732   -4.7191  -10.8148 C   0  0  0  0  0  0  0  0  0  0  0  0
   19.6489   -4.9973  -10.8697 C   0  0  0  0  0  0  0  0  0  0  0  0
   20.0123   -6.2290  -11.6354 C   0  0  2  0  0  0  0  0  0  0  0  0
   21.2652   -6.8057  -11.0136 C   0  0  0  0  0  0  0  0  0  0  0  0
   20.2921   -5.9816  -13.0938 C   0  0  2  0  0  0  0  0  0  0  0  0
   20.6651   -7.1954  -13.7924 N   0  0  0  0  0  0  0  0  0  0  0  0
   21.4394   -5.0468  -13.1606 C   0  0  0  0  0  0  0  0  0  0  0  0
   21.2646   -3.8386  -12.8884 O   0  0  0  0  0  0  0  0  0  0  0  0
   22.7102   -5.4479  -13.5131 O   0  0  0  0  0  0  0  0  0  0  0  0
  2  1  1  6
  3  2  1  0
  3  4  1  0
  4  8  1  0
  4  5  2  0
  6  2  1  0
  6  7  2  0
  9  6  1  0
 10  9  1  0
 10 11  1  6
 12 11  1  0
 12 13  1  0
 13 14  2  0
 15 10  1  0
 15 23  1  0
 16 15  2  0
 17 13  1  0
 19 18  1  0
 20 19  1  0
 20 21  1  1
 22 23  1  6
 22 20  1  0
 24 22  1  0
 25 24  2  0
 26 24  1  0
M  END
$$$$
