DEI.pdb
     RDKit          3D

 26 25  0  0  1  0  0  0  0  0999 V2000
   27.3599  -22.7593  -16.8038 N   0  0  0  0  0  0  0  0  0  0  0  0
   28.1770  -21.7361  -16.2332 C   0  0  1  0  0  0  0  0  0  0  0  0
   28.7725  -20.8351  -17.2821 C   0  0  0  0  0  0  0  0  0  0  0  0
   29.4759  -21.6531  -18.2854 C   0  0  0  0  0  0  0  0  0  0  0  0
   29.2440  -22.8890  -18.4431 O   0  0  0  0  0  0  0  0  0  0  0  0
   27.4327  -20.9406  -15.1969 C   0  0  0  0  0  0  0  0  0  0  0  0
   27.9121  -19.8757  -14.7317 O   0  0  0  0  0  0  0  0  0  0  0  0
   30.4280  -21.0637  -19.0931 O   0  0  0  0  0  0  0  0  0  0  0  0
   26.1648  -21.3478  -14.6971 N   0  0  0  0  0  0  0  0  0  0  0  0
   25.4290  -20.5640  -13.7239 C   0  0  1  0  0  0  0  0  0  0  0  0
   23.9961  -20.3372  -14.1502 C   0  0  0  0  0  0  0  0  0  0  0  0
   23.1984  -19.6049  -13.1138 C   0  0  0  0  0  0  0  0  0  0  0  0
   21.7912  -19.5172  -13.5665 C   0  0  0  0  0  0  0  0  0  0  0  0
   21.4629  -19.9415  -14.6997 O   0  0  0  0  0  0  0  0  0  0  0  0
   25.5045  -21.1555  -12.3669 C   0  0  0  0  0  0  0  0  0  0  0  0
   25.1630  -22.3609  -12.2533 O   0  0  0  0  0  0  0  0  0  0  0  0
   20.7979  -18.9717  -12.7684 O   0  0  0  0  0  0  0  0  0  0  0  0
   27.8244  -19.9658   -6.6569 C   0  0  0  0  0  0  0  0  0  0  0  0
   26.9684  -20.7797   -7.5859 C   0  0  0  0  0  0  0  0  0  0  0  0
   26.8336  -20.2028   -8.9586 C   0  0  2  0  0  0  0  0  0  0  0  0
   26.2182  -18.8275   -8.8224 C   0  0  0  0  0  0  0  0  0  0  0  0
   25.9580  -21.0116   -9.8781 C   0  0  2  0  0  0  0  0  0  0  0  0
   25.9255  -20.4674  -11.2209 N   0  0  0  0  0  0  0  0  0  0  0  0
   24.5835  -20.9514   -9.3288 C   0  0  0  0  0  0  0  0  0  0  0  0
   24.2748  -21.6835   -8.3628 O   0  0  0  0  0  0  0  0  0  0  0  0
   23.6121  -20.1158   -9.8370 O   0  0  0  0  0  0  0  0  0  0  0  0
  2  1  1  6
  3  2  1  0
  3  4  1  0
  4  8  1  0
  4  5  2  0
  6  2  1  0
  6  7  2  0
  9  6  1  0
 10  9  1  0
 10 11  1  6
 12 11  1  0
 12 13  1  0
 13 14  2  0
 15 10  1  0
 15 23  1  0
 16 15  2  0
 17 13  1  0
 19 18  1  0
 20 19  1  0
 20 21  1  1
 22 23  1  6
 22 20  1  0
 24 22  1  0
 25 24  2  0
 26 24  1  0
M  END
$$$$
