DEI.pdb
     RDKit          3D

 26 25  0  0  1  0  0  0  0  0999 V2000
   14.1130  -14.4177  -12.9788 N   0  0  0  0  0  0  0  0  0  0  0  0
   13.6400  -13.0772  -12.8395 C   0  0  1  0  0  0  0  0  0  0  0  0
   12.4457  -12.9892  -11.9271 C   0  0  0  0  0  0  0  0  0  0  0  0
   11.3536  -13.8141  -12.4722 C   0  0  0  0  0  0  0  0  0  0  0  0
   10.5336  -14.4366  -11.7330 O   0  0  0  0  0  0  0  0  0  0  0  0
   14.7310  -12.1440  -12.3928 C   0  0  0  0  0  0  0  0  0  0  0  0
   15.4599  -12.4255  -11.4080 O   0  0  0  0  0  0  0  0  0  0  0  0
   11.2050  -13.9230  -13.8405 O   0  0  0  0  0  0  0  0  0  0  0  0
   14.9902  -10.9114  -13.0537 N   0  0  0  0  0  0  0  0  0  0  0  0
   16.0730  -10.0330  -12.6554 C   0  0  1  0  0  0  0  0  0  0  0  0
   16.9984   -9.7200  -13.8096 C   0  0  0  0  0  0  0  0  0  0  0  0
   17.7042  -10.9376  -14.3253 C   0  0  0  0  0  0  0  0  0  0  0  0
   18.4943  -10.5627  -15.5203 C   0  0  0  0  0  0  0  0  0  0  0  0
   18.5520   -9.3666  -15.8917 O   0  0  0  0  0  0  0  0  0  0  0  0
   15.5723   -8.7959  -12.0103 C   0  0  0  0  0  0  0  0  0  0  0  0
   14.5088   -8.3062  -12.4705 O   0  0  0  0  0  0  0  0  0  0  0  0
   19.1898  -11.5039  -16.2631 O   0  0  0  0  0  0  0  0  0  0  0  0
   13.7667   -8.1463   -7.1692 C   0  0  0  0  0  0  0  0  0  0  0  0
   14.0522   -7.8066   -8.6049 C   0  0  0  0  0  0  0  0  0  0  0  0
   15.3919   -7.1832   -8.8325 C   0  0  2  0  0  0  0  0  0  0  0  0
   15.4020   -5.8428   -8.1309 C   0  0  0  0  0  0  0  0  0  0  0  0
   15.7177   -6.9476  -10.2833 C   0  0  2  0  0  0  0  0  0  0  0  0
   16.1990   -8.1479  -10.9374 N   0  0  0  0  0  0  0  0  0  0  0  0
   16.8033   -5.9403  -10.3238 C   0  0  0  0  0  0  0  0  0  0  0  0
   16.5263   -4.7311  -10.1641 O   0  0  0  0  0  0  0  0  0  0  0  0
   18.1244   -6.2740  -10.5318 O   0  0  0  0  0  0  0  0  0  0  0  0
  2  1  1  1
  3  2  1  0
  3  4  1  0
  4  8  1  0
  4  5  2  0
  6  2  1  0
  6  7  2  0
  9  6  1  0
 10  9  1  0
 10 11  1  6
 12 11  1  0
 12 13  1  0
 13 14  2  0
 15 10  1  0
 15 23  1  0
 16 15  2  0
 17 13  1  0
 19 18  1  0
 20 19  1  0
 20 21  1  1
 22 23  1  1
 22 20  1  0
 24 22  1  0
 25 24  2  0
 26 24  1  0
M  END
$$$$
