DEI.pdb
     RDKit          3D

 26 25  0  0  1  0  0  0  0  0999 V2000
   15.0567  -10.2456  -16.6405 N   0  0  0  0  0  0  0  0  0  0  0  0
   15.7902  -10.1395  -15.4195 C   0  0  1  0  0  0  0  0  0  0  0  0
   16.5634  -11.3941  -15.1116 C   0  0  0  0  0  0  0  0  0  0  0  0
   15.6668  -12.3763  -14.4775 C   0  0  0  0  0  0  0  0  0  0  0  0
   14.4442  -12.1353  -14.2464 O   0  0  0  0  0  0  0  0  0  0  0  0
   16.6899   -8.9348  -15.4118 C   0  0  0  0  0  0  0  0  0  0  0  0
   17.6792   -8.8616  -16.1839 O   0  0  0  0  0  0  0  0  0  0  0  0
   16.1639  -13.6123  -14.1153 O   0  0  0  0  0  0  0  0  0  0  0  0
   16.4696   -7.8314  -14.5416 N   0  0  0  0  0  0  0  0  0  0  0  0
   17.3086   -6.6489  -14.5645 C   0  0  1  0  0  0  0  0  0  0  0  0
   16.5483   -5.4103  -14.1469 C   0  0  0  0  0  0  0  0  0  0  0  0
   15.5277   -4.9941  -15.1626 C   0  0  0  0  0  0  0  0  0  0  0  0
   14.8196   -3.7925  -14.6652 C   0  0  0  0  0  0  0  0  0  0  0  0
   15.4668   -2.8100  -14.2318 O   0  0  0  0  0  0  0  0  0  0  0  0
   18.5389   -6.8285  -13.7574 C   0  0  0  0  0  0  0  0  0  0  0  0
   18.3957   -7.3079  -12.6032 O   0  0  0  0  0  0  0  0  0  0  0  0
   13.4361   -3.7079  -14.6590 O   0  0  0  0  0  0  0  0  0  0  0  0
   23.7418   -9.4569  -13.3741 C   0  0  0  0  0  0  0  0  0  0  0  0
   23.0669   -8.1461  -13.0835 C   0  0  0  0  0  0  0  0  0  0  0  0
   21.7697   -7.9521  -13.8012 C   0  0  2  0  0  0  0  0  0  0  0  0
   22.0669   -7.8945  -15.2835 C   0  0  0  0  0  0  0  0  0  0  0  0
   21.0468   -6.6861  -13.4256 C   0  0  2  0  0  0  0  0  0  0  0  0
   19.8307   -6.5029  -14.1923 N   0  0  0  0  0  0  0  0  0  0  0  0
   21.9570   -5.5601  -13.7392 C   0  0  0  0  0  0  0  0  0  0  0  0
   21.8081   -4.9287  -14.8086 O   0  0  0  0  0  0  0  0  0  0  0  0
   22.9760   -5.1669  -12.8983 O   0  0  0  0  0  0  0  0  0  0  0  0
  2  1  1  6
  3  2  1  0
  3  4  1  0
  4  8  1  0
  4  5  2  0
  6  2  1  0
  6  7  2  0
  9  6  1  0
 10  9  1  0
 10 11  1  1
 12 11  1  0
 12 13  1  0
 13 14  2  0
 15 10  1  0
 15 23  1  0
 16 15  2  0
 17 13  1  0
 19 18  1  0
 20 19  1  0
 20 21  1  6
 22 23  1  6
 22 20  1  0
 24 22  1  0
 25 24  2  0
 26 24  1  0
M  END
$$$$
