DEI.pdb
     RDKit          3D

 26 25  0  0  1  0  0  0  0  0999 V2000
   29.5255  -34.7487   -4.5651 N   0  0  0  0  0  0  0  0  0  0  0  0
   29.4668  -35.2226   -3.2190 C   0  0  1  0  0  0  0  0  0  0  0  0
   30.8350  -35.3620   -2.6067 C   0  0  0  0  0  0  0  0  0  0  0  0
   31.1927  -36.7892   -2.5314 C   0  0  0  0  0  0  0  0  0  0  0  0
   30.3640  -37.7149   -2.7818 O   0  0  0  0  0  0  0  0  0  0  0  0
   28.5769  -34.3642   -2.3635 C   0  0  0  0  0  0  0  0  0  0  0  0
   29.0573  -33.6331   -1.4608 O   0  0  0  0  0  0  0  0  0  0  0  0
   32.4775  -37.1478   -2.1753 O   0  0  0  0  0  0  0  0  0  0  0  0
   27.1645  -34.3366   -2.5304 N   0  0  0  0  0  0  0  0  0  0  0  0
   26.3056  -33.4996   -1.7153 C   0  0  1  0  0  0  0  0  0  0  0  0
   24.9084  -33.4019   -2.2853 C   0  0  0  0  0  0  0  0  0  0  0  0
   24.0253  -32.4917   -1.4863 C   0  0  0  0  0  0  0  0  0  0  0  0
   22.6830  -32.4578   -2.1105 C   0  0  0  0  0  0  0  0  0  0  0  0
   21.6883  -32.9140   -1.4986 O   0  0  0  0  0  0  0  0  0  0  0  0
   26.2851  -33.9408   -0.3004 C   0  0  0  0  0  0  0  0  0  0  0  0
   26.1964  -35.1785   -0.0931 O   0  0  0  0  0  0  0  0  0  0  0  0
   22.4765  -31.9291   -3.3751 O   0  0  0  0  0  0  0  0  0  0  0  0
   27.9422  -32.0888    5.4071 C   0  0  0  0  0  0  0  0  0  0  0  0
   27.0632  -32.9341    4.5290 C   0  0  0  0  0  0  0  0  0  0  0  0
   27.1308  -32.5855    3.0767 C   0  0  2  0  0  0  0  0  0  0  0  0
   26.6028  -31.1769    2.9154 C   0  0  0  0  0  0  0  0  0  0  0  0
   26.3133  -33.4892    2.1926 C   0  0  2  0  0  0  0  0  0  0  0  0
   26.3570  -33.0800    0.8030 N   0  0  0  0  0  0  0  0  0  0  0  0
   24.9089  -33.3883    2.6532 C   0  0  0  0  0  0  0  0  0  0  0  0
   24.5571  -33.9927    3.6902 O   0  0  0  0  0  0  0  0  0  0  0  0
   23.9552  -32.6501    1.9858 O   0  0  0  0  0  0  0  0  0  0  0  0
  2  1  1  6
  3  2  1  0
  3  4  1  0
  4  8  1  0
  4  5  2  0
  6  2  1  0
  6  7  2  0
  9  6  1  0
 10  9  1  0
 10 11  1  6
 12 11  1  0
 12 13  1  0
 13 14  2  0
 15 10  1  0
 15 23  1  0
 16 15  2  0
 17 13  1  0
 19 18  1  0
 20 19  1  0
 20 21  1  1
 22 23  1  6
 22 20  1  0
 24 22  1  0
 25 24  2  0
 26 24  1  0
M  END
$$$$
