DEI.pdb
     RDKit          3D

 26 25  0  0  1  0  0  0  0  0999 V2000
   15.0020  -11.7034  -14.8071 N   0  0  0  0  0  0  0  0  0  0  0  0
   14.6177  -11.7856  -13.4340 C   0  0  1  0  0  0  0  0  0  0  0  0
   14.6033  -13.2052  -12.9331 C   0  0  0  0  0  0  0  0  0  0  0  0
   13.5316  -13.9520  -13.6145 C   0  0  0  0  0  0  0  0  0  0  0  0
   12.3263  -13.5604  -13.6244 O   0  0  0  0  0  0  0  0  0  0  0  0
   15.4767  -10.9133  -12.5609 C   0  0  0  0  0  0  0  0  0  0  0  0
   15.4757  -11.0485  -11.3111 O   0  0  0  0  0  0  0  0  0  0  0  0
   13.8372  -15.1266  -14.2726 O   0  0  0  0  0  0  0  0  0  0  0  0
   16.3228   -9.9041  -13.0984 N   0  0  0  0  0  0  0  0  0  0  0  0
   17.1262   -9.0392  -12.2564 C   0  0  1  0  0  0  0  0  0  0  0  0
   18.3817   -8.5755  -12.9600 C   0  0  0  0  0  0  0  0  0  0  0  0
   19.2134   -7.6647  -12.1084 C   0  0  0  0  0  0  0  0  0  0  0  0
   20.3172   -7.1169  -12.9297 C   0  0  0  0  0  0  0  0  0  0  0  0
   20.3679   -7.3519  -14.1602 O   0  0  0  0  0  0  0  0  0  0  0  0
   16.3431   -7.8946  -11.7331 C   0  0  0  0  0  0  0  0  0  0  0  0
   15.7089   -7.2083  -12.5754 O   0  0  0  0  0  0  0  0  0  0  0  0
   21.3214   -6.3357  -12.3795 O   0  0  0  0  0  0  0  0  0  0  0  0
   12.4925   -5.8233   -8.5352 C   0  0  0  0  0  0  0  0  0  0  0  0
   13.8859   -5.8196   -7.9727 C   0  0  0  0  0  0  0  0  0  0  0  0
   14.7810   -6.8712   -8.5459 C   0  0  2  0  0  0  0  0  0  0  0  0
   15.8716   -7.1495   -7.5350 C   0  0  0  0  0  0  0  0  0  0  0  0
   15.4407   -6.4735   -9.8393 C   0  0  2  0  0  0  0  0  0  0  0  0
   16.2659   -7.5346  -10.3810 N   0  0  0  0  0  0  0  0  0  0  0  0
   16.3208   -5.3205   -9.5383 C   0  0  0  0  0  0  0  0  0  0  0  0
   17.5488   -5.5065   -9.3905 O   0  0  0  0  0  0  0  0  0  0  0  0
   15.8470   -4.0324   -9.4110 O   0  0  0  0  0  0  0  0  0  0  0  0
  2  1  1  6
  3  2  1  0
  3  4  1  0
  4  8  1  0
  4  5  2  0
  6  2  1  0
  6  7  2  0
  9  6  1  0
 10  9  1  0
 10 11  1  6
 12 11  1  0
 12 13  1  0
 13 14  2  0
 15 10  1  0
 15 23  1  0
 16 15  2  0
 17 13  1  0
 19 18  1  0
 20 19  1  0
 20 21  1  1
 22 23  1  1
 22 20  1  0
 24 22  1  0
 25 24  2  0
 26 24  1  0
M  END
$$$$
