FCT.pdb
     RDKit          3D

 25 25  0  0  1  0  0  0  0  0999 V2000
    7.0049  -17.3169   20.4316 N   0  0  0  0  0  0  0  0  0  0  0  0
    8.2896  -16.9125   20.9115 C   0  0  1  0  0  0  0  0  0  0  0  0
    8.0713  -15.6488   21.7470 C   0  0  0  0  0  0  0  0  0  0  0  0
    7.8016  -14.4693   20.8976 C   0  0  0  0  0  0  0  0  0  0  0  0
    6.5211  -14.0786   20.5886 C   0  0  0  0  0  0  0  0  0  0  0  0
    6.2787  -12.9604   19.7827 C   0  0  0  0  0  0  0  0  0  0  0  0
    7.3275  -12.2280   19.2825 C   0  0  0  0  0  0  0  0  0  0  0  0
    8.6153  -12.6138   19.5881 C   0  0  0  0  0  0  0  0  0  0  0  0
    8.8475  -13.7339   20.3952 C   0  0  0  0  0  0  0  0  0  0  0  0
    8.9573  -17.9000   21.7720 C   0  0  0  0  0  0  0  0  0  0  0  0
    8.2155  -18.6268   22.4926 O   0  0  0  0  0  0  0  0  0  0  0  0
   10.3710  -18.0592   21.8184 N   0  0  0  0  0  0  0  0  0  0  0  0
   10.9285  -19.0975   22.6205 C   0  0  1  0  0  0  0  0  0  0  0  0
   10.4443  -20.4419   22.0807 C   0  0  0  0  0  0  0  0  0  0  0  0
   11.2060  -21.7475   23.0997 S   0  0  0  0  0  0  0  0  0  0  0  0
   12.4144  -19.0548   22.6740 C   0  0  0  0  0  0  0  0  0  0  0  0
   13.0981  -19.3941   21.6742 O   0  0  0  0  0  0  0  0  0  0  0  0
   14.3656  -16.0393   23.3264 C   0  0  0  0  0  0  0  0  0  0  0  0
   14.9992  -17.0750   24.1941 C   0  0  1  0  0  0  0  0  0  0  0  0
   14.6075  -16.8208   25.5234 O   0  0  0  0  0  0  0  0  0  0  0  0
   14.5559  -18.4816   23.8777 C   0  0  2  0  0  0  0  0  0  0  0  0
   13.1353  -18.6387   23.8279 N   0  0  0  0  0  0  0  0  0  0  0  0
   15.2022  -19.4448   24.8126 C   0  0  0  0  0  0  0  0  0  0  0  0
   16.5670  -19.7052   24.6643 O   0  0  0  0  0  0  0  0  0  0  0  0
   14.6002  -20.0333   25.7197 O   0  0  0  0  0  0  0  0  0  0  0  0
  2  1  1  1
  2 10  1  0
  3  2  1  0
  4  5  2  0
  4  3  1  0
  6  5  1  0
  7  6  2  0
  8  7  1  0
  8  9  2  0
  9  4  1  0
 10 12  1  0
 10 11  2  0
 12 13  1  0
 13 14  1  6
 14 15  1  0
 16 13  1  0
 16 17  2  0
 19 18  1  6
 19 20  1  0
 19 21  1  0
 21 22  1  1
 22 16  1  0
 23 21  1  0
 24 23  1  0
 25 23  2  0
M  END
$$$$
