FCT.pdb
     RDKit          3D

 25 25  0  0  1  0  0  0  0  0999 V2000
    5.8483  -18.1356   25.4611 N   0  0  0  0  0  0  0  0  0  0  0  0
    6.2056  -16.7685   25.2431 C   0  0  1  0  0  0  0  0  0  0  0  0
    6.6561  -16.2088   26.5945 C   0  0  0  0  0  0  0  0  0  0  0  0
    6.8968  -14.7515   26.5321 C   0  0  0  0  0  0  0  0  0  0  0  0
    8.1648  -14.2252   26.5880 C   0  0  0  0  0  0  0  0  0  0  0  0
    8.3796  -12.8435   26.5289 C   0  0  0  0  0  0  0  0  0  0  0  0
    7.3158  -11.9826   26.4130 C   0  0  0  0  0  0  0  0  0  0  0  0
    6.0404  -12.5030   26.3564 C   0  0  0  0  0  0  0  0  0  0  0  0
    5.8358  -13.8868   26.4163 C   0  0  0  0  0  0  0  0  0  0  0  0
    7.3107  -16.5713   24.2938 C   0  0  0  0  0  0  0  0  0  0  0  0
    8.2571  -17.4083   24.3341 O   0  0  0  0  0  0  0  0  0  0  0  0
    7.3482  -15.4993   23.3581 N   0  0  0  0  0  0  0  0  0  0  0  0
    8.4072  -15.4439   22.4053 C   0  0  1  0  0  0  0  0  0  0  0  0
    8.1160  -14.3134   21.4201 C   0  0  0  0  0  0  0  0  0  0  0  0
    6.6577  -14.8020   20.4416 S   0  0  0  0  0  0  0  0  0  0  0  0
    9.7437  -15.2652   23.0333 C   0  0  0  0  0  0  0  0  0  0  0  0
    9.9941  -14.2404   23.7183 O   0  0  0  0  0  0  0  0  0  0  0  0
   11.5313  -17.2036   25.7055 C   0  0  0  0  0  0  0  0  0  0  0  0
   12.3938  -17.2054   24.4876 C   0  0  1  0  0  0  0  0  0  0  0  0
   12.1622  -18.4122   23.7984 O   0  0  0  0  0  0  0  0  0  0  0  0
   12.0766  -16.0916   23.5211 C   0  0  2  0  0  0  0  0  0  0  0  0
   10.7936  -16.2164   22.9018 N   0  0  0  0  0  0  0  0  0  0  0  0
   13.1766  -15.9478   22.5266 C   0  0  0  0  0  0  0  0  0  0  0  0
   12.9002  -16.2136   21.1829 O   0  0  0  0  0  0  0  0  0  0  0  0
   14.3290  -15.6046   22.8193 O   0  0  0  0  0  0  0  0  0  0  0  0
  2  1  1  1
  2 10  1  0
  3  2  1  0
  4  5  2  0
  4  3  1  0
  6  5  1  0
  7  6  2  0
  8  7  1  0
  8  9  2  0
  9  4  1  0
 10 12  1  0
 10 11  2  0
 12 13  1  0
 13 14  1  6
 14 15  1  0
 16 13  1  0
 16 17  2  0
 19 18  1  1
 19 20  1  0
 19 21  1  0
 21 22  1  6
 22 16  1  0
 23 21  1  0
 24 23  1  0
 25 23  2  0
M  END
$$$$
