FCT.pdb
     RDKit          3D

 25 25  0  0  1  0  0  0  0  0999 V2000
    5.8264  -17.8705   25.5116 N   0  0  0  0  0  0  0  0  0  0  0  0
    6.3801  -16.6125   25.1177 C   0  0  1  0  0  0  0  0  0  0  0  0
    7.1255  -16.0578   26.3339 C   0  0  0  0  0  0  0  0  0  0  0  0
    7.0403  -14.5836   26.4042 C   0  0  0  0  0  0  0  0  0  0  0  0
    5.8748  -13.9424   26.7487 C   0  0  0  0  0  0  0  0  0  0  0  0
    5.8066  -12.5460   26.8108 C   0  0  0  0  0  0  0  0  0  0  0  0
    6.9146  -11.7861   26.5257 C   0  0  0  0  0  0  0  0  0  0  0  0
    8.0877  -12.4220   26.1793 C   0  0  0  0  0  0  0  0  0  0  0  0
    8.1459  -13.8196   26.1198 C   0  0  0  0  0  0  0  0  0  0  0  0
    7.3422  -16.6905   24.0089 C   0  0  0  0  0  0  0  0  0  0  0  0
    8.1519  -17.6612   24.0198 O   0  0  0  0  0  0  0  0  0  0  0  0
    7.3899  -15.7359   22.9540 N   0  0  0  0  0  0  0  0  0  0  0  0
    8.3457  -15.9004   21.9091 C   0  0  1  0  0  0  0  0  0  0  0  0
    8.0768  -14.8489   20.8343 C   0  0  0  0  0  0  0  0  0  0  0  0
    7.1531  -13.4874   21.6193 S   0  0  0  0  0  0  0  0  0  0  0  0
    9.7509  -15.8162   22.3898 C   0  0  0  0  0  0  0  0  0  0  0  0
   10.2653  -14.7013   22.6623 O   0  0  0  0  0  0  0  0  0  0  0  0
   11.6459  -17.2809   25.4717 C   0  0  0  0  0  0  0  0  0  0  0  0
   12.2230  -17.7943   24.1948 C   0  0  1  0  0  0  0  0  0  0  0  0
   11.6239  -19.0400   23.9222 O   0  0  0  0  0  0  0  0  0  0  0  0
   11.9382  -16.9117   23.0052 C   0  0  2  0  0  0  0  0  0  0  0  0
   10.5779  -16.9603   22.5664 N   0  0  0  0  0  0  0  0  0  0  0  0
   12.9009  -17.2059   21.9070 C   0  0  0  0  0  0  0  0  0  0  0  0
   14.2481  -16.8870   22.0973 O   0  0  0  0  0  0  0  0  0  0  0  0
   12.5788  -17.7192   20.8280 O   0  0  0  0  0  0  0  0  0  0  0  0
  2  1  1  1
  2 10  1  0
  3  2  1  0
  4  5  2  0
  4  3  1  0
  6  5  1  0
  7  6  2  0
  8  7  1  0
  8  9  2  0
  9  4  1  0
 10 12  1  0
 10 11  2  0
 12 13  1  0
 13 14  1  6
 14 15  1  0
 16 13  1  0
 16 17  2  0
 19 18  1  1
 19 20  1  0
 19 21  1  0
 21 22  1  6
 22 16  1  0
 23 21  1  0
 24 23  1  0
 25 23  2  0
M  END
$$$$
