FCT.pdb
     RDKit          3D

 25 25  0  0  1  0  0  0  0  0999 V2000
    6.5819  -16.0121   23.3286 N   0  0  0  0  0  0  0  0  0  0  0  0
    7.8043  -15.5869   23.9362 C   0  0  1  0  0  0  0  0  0  0  0  0
    7.5287  -15.4522   25.4356 C   0  0  0  0  0  0  0  0  0  0  0  0
    7.2279  -14.0554   25.8150 C   0  0  0  0  0  0  0  0  0  0  0  0
    8.2138  -13.1025   25.9054 C   0  0  0  0  0  0  0  0  0  0  0  0
    7.9164  -11.7835   26.2664 C   0  0  0  0  0  0  0  0  0  0  0  0
    6.6212  -11.4164   26.5390 C   0  0  0  0  0  0  0  0  0  0  0  0
    5.6265  -12.3667   26.4504 C   0  0  0  0  0  0  0  0  0  0  0  0
    5.9341  -13.6837   26.0884 C   0  0  0  0  0  0  0  0  0  0  0  0
    8.9235  -16.5267   23.7764 C   0  0  0  0  0  0  0  0  0  0  0  0
    8.6325  -17.7526   23.6752 O   0  0  0  0  0  0  0  0  0  0  0  0
   10.2846  -16.1125   23.7332 N   0  0  0  0  0  0  0  0  0  0  0  0
   11.3011  -17.0851   23.5028 C   0  0  1  0  0  0  0  0  0  0  0  0
   12.3585  -16.4751   22.5846 C   0  0  0  0  0  0  0  0  0  0  0  0
   11.6066  -16.2837   20.9351 S   0  0  0  0  0  0  0  0  0  0  0  0
   11.9194  -17.5868   24.7593 C   0  0  0  0  0  0  0  0  0  0  0  0
   12.3445  -16.7808   25.6263 O   0  0  0  0  0  0  0  0  0  0  0  0
   10.5635  -20.7963   26.9903 C   0  0  0  0  0  0  0  0  0  0  0  0
   12.0185  -20.8320   26.6603 C   0  0  1  0  0  0  0  0  0  0  0  0
   12.1848  -21.6691   25.5392 O   0  0  0  0  0  0  0  0  0  0  0  0
   12.5847  -19.4869   26.2793 C   0  0  2  0  0  0  0  0  0  0  0  0
   12.0645  -18.9718   25.0507 N   0  0  0  0  0  0  0  0  0  0  0  0
   14.0737  -19.5362   26.2902 C   0  0  0  0  0  0  0  0  0  0  0  0
   14.7237  -19.8003   27.4987 O   0  0  0  0  0  0  0  0  0  0  0  0
   14.7760  -19.3563   25.2873 O   0  0  0  0  0  0  0  0  0  0  0  0
  2  1  1  6
  2 10  1  0
  3  2  1  0
  4  5  2  0
  4  3  1  0
  6  5  1  0
  7  6  2  0
  8  7  1  0
  8  9  2  0
  9  4  1  0
 10 12  1  0
 10 11  2  0
 12 13  1  0
 13 14  1  6
 14 15  1  0
 16 13  1  0
 16 17  2  0
 19 18  1  6
 19 20  1  0
 19 21  1  0
 21 22  1  6
 22 16  1  0
 23 21  1  0
 24 23  1  0
 25 23  2  0
M  END
$$$$
