FCT.pdb
     RDKit          3D

 25 25  0  0  1  0  0  0  0  0999 V2000
    5.8389  -18.1675   25.4806 N   0  0  0  0  0  0  0  0  0  0  0  0
    6.2295  -16.8055   25.2896 C   0  0  1  0  0  0  0  0  0  0  0  0
    6.7077  -16.2884   26.6485 C   0  0  0  0  0  0  0  0  0  0  0  0
    6.9298  -14.8270   26.6323 C   0  0  0  0  0  0  0  0  0  0  0  0
    8.1930  -14.2873   26.6678 C   0  0  0  0  0  0  0  0  0  0  0  0
    8.3903  -12.9019   26.6529 C   0  0  0  0  0  0  0  0  0  0  0  0
    7.3136  -12.0506   26.6019 C   0  0  0  0  0  0  0  0  0  0  0  0
    6.0431  -12.5844   26.5660 C   0  0  0  0  0  0  0  0  0  0  0  0
    5.8561  -13.9718   26.5814 C   0  0  0  0  0  0  0  0  0  0  0  0
    7.3301  -16.6154   24.3336 C   0  0  0  0  0  0  0  0  0  0  0  0
    8.2693  -17.4609   24.3655 O   0  0  0  0  0  0  0  0  0  0  0  0
    7.3710  -15.5413   23.4005 N   0  0  0  0  0  0  0  0  0  0  0  0
    8.4207  -15.4959   22.4370 C   0  0  1  0  0  0  0  0  0  0  0  0
    8.1335  -14.3586   21.4586 C   0  0  0  0  0  0  0  0  0  0  0  0
    6.6230  -14.7973   20.5372 S   0  0  0  0  0  0  0  0  0  0  0  0
    9.7657  -15.3360   23.0517 C   0  0  0  0  0  0  0  0  0  0  0  0
   10.0221  -14.3381   23.7732 O   0  0  0  0  0  0  0  0  0  0  0  0
   11.5852  -16.6283   25.8193 C   0  0  0  0  0  0  0  0  0  0  0  0
   12.3802  -17.0161   24.6173 C   0  0  1  0  0  0  0  0  0  0  0  0
   11.9920  -18.3189   24.2470 O   0  0  0  0  0  0  0  0  0  0  0  0
   12.1297  -16.1364   23.4179 C   0  0  2  0  0  0  0  0  0  0  0  0
   10.8174  -16.2762   22.8670 N   0  0  0  0  0  0  0  0  0  0  0  0
   13.1985  -16.3413   22.4004 C   0  0  0  0  0  0  0  0  0  0  0  0
   14.5014  -15.9435   22.7118 O   0  0  0  0  0  0  0  0  0  0  0  0
   13.0022  -16.8459   21.2876 O   0  0  0  0  0  0  0  0  0  0  0  0
  2  1  1  1
  2 10  1  0
  3  2  1  0
  4  5  2  0
  4  3  1  0
  6  5  1  0
  7  6  2  0
  8  7  1  0
  8  9  2  0
  9  4  1  0
 10 12  1  0
 10 11  2  0
 12 13  1  0
 13 14  1  6
 14 15  1  0
 16 13  1  0
 16 17  2  0
 19 18  1  1
 19 20  1  0
 19 21  1  0
 21 22  1  6
 22 16  1  0
 23 21  1  0
 24 23  1  0
 25 23  2  0
M  END
$$$$
