FCT.pdb
     RDKit          3D

 25 25  0  0  1  0  0  0  0  0999 V2000
    5.9451  -16.8075   24.9805 N   0  0  0  0  0  0  0  0  0  0  0  0
    7.0904  -15.9627   24.8435 C   0  0  1  0  0  0  0  0  0  0  0  0
    7.1519  -15.0943   26.1023 C   0  0  0  0  0  0  0  0  0  0  0  0
    6.6240  -13.7353   25.8576 C   0  0  0  0  0  0  0  0  0  0  0  0
    5.4265  -13.3187   26.3873 C   0  0  0  0  0  0  0  0  0  0  0  0
    4.9369  -12.0297   26.1476 C   0  0  0  0  0  0  0  0  0  0  0  0
    5.6527  -11.1513   25.3713 C   0  0  0  0  0  0  0  0  0  0  0  0
    6.8551  -11.5619   24.8363 C   0  0  0  0  0  0  0  0  0  0  0  0
    7.3365  -12.8535   25.0819 C   0  0  0  0  0  0  0  0  0  0  0  0
    8.3689  -16.6813   24.7410 C   0  0  0  0  0  0  0  0  0  0  0  0
    8.5125  -17.7028   25.4716 O   0  0  0  0  0  0  0  0  0  0  0  0
    9.4197  -16.2756   23.8707 N   0  0  0  0  0  0  0  0  0  0  0  0
   10.6812  -16.9351   23.9479 C   0  0  1  0  0  0  0  0  0  0  0  0
   11.5019  -16.5603   22.7154 C   0  0  0  0  0  0  0  0  0  0  0  0
   10.6496  -17.2506   21.2593 S   0  0  0  0  0  0  0  0  0  0  0  0
   11.4268  -16.6168   25.1951 C   0  0  0  0  0  0  0  0  0  0  0  0
   12.1285  -15.5756   25.2698 O   0  0  0  0  0  0  0  0  0  0  0  0
   11.1152  -14.8242   27.8083 C   0  0  0  0  0  0  0  0  0  0  0  0
   11.3003  -16.1612   28.4450 C   0  0  1  0  0  0  0  0  0  0  0  0
   10.0230  -16.7151   28.6611 O   0  0  0  0  0  0  0  0  0  0  0  0
   12.0530  -17.1425   27.5815 C   0  0  2  0  0  0  0  0  0  0  0  0
   11.3935  -17.4475   26.3496 N   0  0  0  0  0  0  0  0  0  0  0  0
   12.3863  -18.3645   28.3659 C   0  0  0  0  0  0  0  0  0  0  0  0
   13.2825  -18.2494   29.4318 O   0  0  0  0  0  0  0  0  0  0  0  0
   11.9146  -19.4840   28.1300 O   0  0  0  0  0  0  0  0  0  0  0  0
  2  1  1  1
  2 10  1  0
  3  2  1  0
  4  5  2  0
  4  3  1  0
  6  5  1  0
  7  6  2  0
  8  7  1  0
  8  9  2  0
  9  4  1  0
 10 12  1  0
 10 11  2  0
 12 13  1  0
 13 14  1  6
 14 15  1  0
 16 13  1  0
 16 17  2  0
 19 18  1  6
 19 20  1  0
 19 21  1  0
 21 22  1  6
 22 16  1  0
 23 21  1  0
 24 23  1  0
 25 23  2  0
M  END
$$$$
