GFI.pdb
     RDKit          3D

 24 24  0  0  1  0  0  0  0  0999 V2000
    6.6379  -20.7786   25.3256 N   0  0  0  0  0  0  0  0  0  0  0  0
    6.1863  -19.4025   25.4450 C   0  0  0  0  0  0  0  0  0  0  0  0
    7.1523  -18.5423   24.6868 C   0  0  0  0  0  0  0  0  0  0  0  0
    8.1697  -19.0321   24.1188 O   0  0  0  0  0  0  0  0  0  0  0  0
    6.9729  -17.1413   24.5698 N   0  0  0  0  0  0  0  0  0  0  0  0
    7.8740  -16.3021   23.8010 C   0  0  1  0  0  0  0  0  0  0  0  0
    7.2087  -15.0597   23.3734 C   0  0  0  0  0  0  0  0  0  0  0  0
    6.8727  -14.0624   24.3675 C   0  0  0  0  0  0  0  0  0  0  0  0
    7.5114  -12.8401   24.3364 C   0  0  0  0  0  0  0  0  0  0  0  0
    7.2425  -11.8255   25.2509 C   0  0  0  0  0  0  0  0  0  0  0  0
    6.3036  -12.0412   26.2290 C   0  0  0  0  0  0  0  0  0  0  0  0
    5.6528  -13.2581   26.2779 C   0  0  0  0  0  0  0  0  0  0  0  0
    5.9341  -14.2317   25.3727 C   0  0  0  0  0  0  0  0  0  0  0  0
    9.0858  -15.9906   24.6534 C   0  0  0  0  0  0  0  0  0  0  0  0
   10.0360  -15.4075   24.1039 O   0  0  0  0  0  0  0  0  0  0  0  0
    8.9689  -13.2292   29.1041 C   0  0  0  0  0  0  0  0  0  0  0  0
    9.5094  -13.9414   27.8848 C   0  0  0  0  0  0  0  0  0  0  0  0
    9.7870  -15.3970   28.1695 C   0  0  2  0  0  0  0  0  0  0  0  0
   10.9384  -15.4143   29.1735 C   0  0  0  0  0  0  0  0  0  0  0  0
   10.2500  -16.0884   26.8885 C   0  0  2  0  0  0  0  0  0  0  0  0
    9.1367  -16.3437   26.0061 N   0  0  0  0  0  0  0  0  0  0  0  0
   11.0385  -17.2869   27.1581 C   0  0  0  0  0  0  0  0  0  0  0  0
   12.2719  -17.2366   27.4351 O   0  0  0  0  0  0  0  0  0  0  0  0
   10.4568  -18.5441   27.1201 O   0  0  0  0  0  0  0  0  0  0  0  0
  1  2  1  0
  3  2  1  0
  4  3  2  0
  5  3  1  0
  6 14  1  0
  6  5  1  0
  6  7  1  1
  8  7  1  0
  9  8  2  0
 10 11  2  0
 10  9  1  0
 11 12  1  0
 12 13  2  0
 13  8  1  0
 14 21  1  0
 15 14  2  0
 17 16  1  0
 18 17  1  0
 18 19  1  1
 20 18  1  0
 20 22  1  0
 20 21  1  6
 22 23  2  0
 22 24  1  0
M  END
$$$$
