GFI.pdb
     RDKit          3D

 24 24  0  0  1  0  0  0  0  0999 V2000
   11.4998  -17.0758   19.4666 N   0  0  0  0  0  0  0  0  0  0  0  0
   10.3157  -17.5021   20.1931 C   0  0  0  0  0  0  0  0  0  0  0  0
   10.1528  -16.5865   21.3691 C   0  0  0  0  0  0  0  0  0  0  0  0
   11.1035  -15.8621   21.7804 O   0  0  0  0  0  0  0  0  0  0  0  0
    8.9281  -16.4881   22.0757 N   0  0  0  0  0  0  0  0  0  0  0  0
    8.7171  -15.5211   23.1376 C   0  0  1  0  0  0  0  0  0  0  0  0
    7.2931  -15.1643   23.2564 C   0  0  0  0  0  0  0  0  0  0  0  0
    6.9043  -14.1137   24.1734 C   0  0  0  0  0  0  0  0  0  0  0  0
    7.1463  -12.7993   23.8317 C   0  0  0  0  0  0  0  0  0  0  0  0
    6.7984  -11.7306   24.6531 C   0  0  0  0  0  0  0  0  0  0  0  0
    6.1884  -11.9855   25.8563 C   0  0  0  0  0  0  0  0  0  0  0  0
    5.9373  -13.2944   26.2175 C   0  0  0  0  0  0  0  0  0  0  0  0
    6.2871  -14.3194   25.3968 C   0  0  0  0  0  0  0  0  0  0  0  0
    9.2275  -16.1121   24.4346 C   0  0  0  0  0  0  0  0  0  0  0  0
    9.3365  -17.3488   24.4950 O   0  0  0  0  0  0  0  0  0  0  0  0
   10.7308  -14.2942   30.2133 C   0  0  0  0  0  0  0  0  0  0  0  0
   10.9895  -15.1651   29.0049 C   0  0  0  0  0  0  0  0  0  0  0  0
   10.2349  -14.6735   27.7942 C   0  0  2  0  0  0  0  0  0  0  0  0
    8.7916  -14.4741   28.2538 C   0  0  0  0  0  0  0  0  0  0  0  0
   10.2544  -15.7487   26.7092 C   0  0  2  0  0  0  0  0  0  0  0  0
    9.5640  -15.3009   25.5235 N   0  0  0  0  0  0  0  0  0  0  0  0
    9.7621  -17.0349   27.1930 C   0  0  0  0  0  0  0  0  0  0  0  0
    8.5429  -17.3638   27.1179 O   0  0  0  0  0  0  0  0  0  0  0  0
   10.6251  -17.9582   27.7614 O   0  0  0  0  0  0  0  0  0  0  0  0
  1  2  1  0
  3  2  1  0
  4  3  2  0
  5  3  1  0
  6 14  1  0
  6  5  1  0
  6  7  1  1
  8  7  1  0
  9  8  2  0
 10 11  2  0
 10  9  1  0
 11 12  1  0
 12 13  2  0
 13  8  1  0
 14 21  1  0
 15 14  2  0
 17 16  1  0
 18 17  1  0
 18 19  1  1
 20 18  1  0
 20 22  1  0
 20 21  1  6
 22 23  2  0
 22 24  1  0
M  END
$$$$
