GFI.pdb
     RDKit          3D

 24 24  0  0  1  0  0  0  0  0999 V2000
   11.4023  -16.8623   19.6155 N   0  0  0  0  0  0  0  0  0  0  0  0
   10.4830  -17.5308   20.5210 C   0  0  0  0  0  0  0  0  0  0  0  0
   10.2670  -16.6249   21.6959 C   0  0  0  0  0  0  0  0  0  0  0  0
   11.2178  -15.9694   22.2098 O   0  0  0  0  0  0  0  0  0  0  0  0
    8.9895  -16.4592   22.2870 N   0  0  0  0  0  0  0  0  0  0  0  0
    8.7716  -15.6141   23.4470 C   0  0  1  0  0  0  0  0  0  0  0  0
    7.3617  -15.2003   23.5460 C   0  0  0  0  0  0  0  0  0  0  0  0
    6.9740  -14.2608   24.5769 C   0  0  0  0  0  0  0  0  0  0  0  0
    7.3163  -12.9316   24.4388 C   0  0  0  0  0  0  0  0  0  0  0  0
    6.9771  -11.9640   25.3803 C   0  0  0  0  0  0  0  0  0  0  0  0
    6.2721  -12.3388   26.4972 C   0  0  0  0  0  0  0  0  0  0  0  0
    5.9197  -13.6645   26.6548 C   0  0  0  0  0  0  0  0  0  0  0  0
    6.2634  -14.5892   25.7203 C   0  0  0  0  0  0  0  0  0  0  0  0
    9.1897  -16.3792   24.6847 C   0  0  0  0  0  0  0  0  0  0  0  0
    8.8901  -17.5843   24.7396 O   0  0  0  0  0  0  0  0  0  0  0  0
   11.1699  -13.5329   29.2959 C   0  0  0  0  0  0  0  0  0  0  0  0
   10.3658  -14.5182   28.4783 C   0  0  0  0  0  0  0  0  0  0  0  0
   11.2580  -15.4832   27.7370 C   0  0  2  0  0  0  0  0  0  0  0  0
   12.1059  -14.6297   26.7953 C   0  0  0  0  0  0  0  0  0  0  0  0
   10.4010  -16.4278   26.8961 C   0  0  2  0  0  0  0  0  0  0  0  0
    9.8857  -15.7572   25.7266 N   0  0  0  0  0  0  0  0  0  0  0  0
    9.3526  -17.0731   27.6805 C   0  0  0  0  0  0  0  0  0  0  0  0
    9.6083  -17.9288   28.5765 O   0  0  0  0  0  0  0  0  0  0  0  0
    8.0175  -16.7678   27.4701 O   0  0  0  0  0  0  0  0  0  0  0  0
  1  2  1  0
  3  2  1  0
  4  3  2  0
  5  3  1  0
  6 14  1  0
  6  5  1  0
  6  7  1  1
  8  7  1  0
  9  8  2  0
 10 11  2  0
 10  9  1  0
 11 12  1  0
 12 13  2  0
 13  8  1  0
 14 21  1  0
 15 14  2  0
 17 16  1  0
 18 17  1  0
 18 19  1  6
 20 18  1  0
 20 22  1  0
 20 21  1  6
 22 23  2  0
 22 24  1  0
M  END
$$$$
