GFI.pdb
     RDKit          3D

 24 24  0  0  1  0  0  0  0  0999 V2000
   11.2057  -17.1345   19.4700 N   0  0  0  0  0  0  0  0  0  0  0  0
   10.1506  -17.6565   20.3220 C   0  0  0  0  0  0  0  0  0  0  0  0
   10.0800  -16.7847   21.5398 C   0  0  0  0  0  0  0  0  0  0  0  0
   11.1025  -16.1943   21.9910 O   0  0  0  0  0  0  0  0  0  0  0  0
    8.8667  -16.5801   22.2432 N   0  0  0  0  0  0  0  0  0  0  0  0
    8.7678  -15.6847   23.3815 C   0  0  1  0  0  0  0  0  0  0  0  0
    7.3851  -15.2133   23.5685 C   0  0  0  0  0  0  0  0  0  0  0  0
    7.1338  -14.1058   24.4663 C   0  0  0  0  0  0  0  0  0  0  0  0
    6.4992  -14.3447   25.6677 C   0  0  0  0  0  0  0  0  0  0  0  0
    6.2257  -13.3377   26.5891 C   0  0  0  0  0  0  0  0  0  0  0  0
    6.5993  -12.0489   26.2987 C   0  0  0  0  0  0  0  0  0  0  0  0
    7.2355  -11.7882   25.1013 C   0  0  0  0  0  0  0  0  0  0  0  0
    7.4908  -12.7899   24.2192 C   0  0  0  0  0  0  0  0  0  0  0  0
    9.2510  -16.4189   24.6142 C   0  0  0  0  0  0  0  0  0  0  0  0
    9.1389  -17.6567   24.6224 O   0  0  0  0  0  0  0  0  0  0  0  0
   10.0980  -13.6525   29.5467 C   0  0  0  0  0  0  0  0  0  0  0  0
    9.6909  -14.6761   28.5111 C   0  0  0  0  0  0  0  0  0  0  0  0
   10.8926  -15.3097   27.8543 C   0  0  2  0  0  0  0  0  0  0  0  0
   11.5976  -14.1846   27.0984 C   0  0  0  0  0  0  0  0  0  0  0  0
   10.4289  -16.3570   26.8434 C   0  0  2  0  0  0  0  0  0  0  0  0
    9.8021  -15.7338   25.7023 N   0  0  0  0  0  0  0  0  0  0  0  0
    9.5897  -17.3841   27.4531 C   0  0  0  0  0  0  0  0  0  0  0  0
    8.3516  -17.4773   27.2107 O   0  0  0  0  0  0  0  0  0  0  0  0
   10.1260  -18.3098   28.3337 O   0  0  0  0  0  0  0  0  0  0  0  0
  1  2  1  0
  3  2  1  0
  4  3  2  0
  5  3  1  0
  6 14  1  0
  6  5  1  0
  6  7  1  1
  8  7  1  0
  9  8  2  0
 10 11  2  0
 10  9  1  0
 11 12  1  0
 12 13  2  0
 13  8  1  0
 14 21  1  0
 15 14  2  0
 17 16  1  0
 18 17  1  0
 18 19  1  6
 20 18  1  0
 20 22  1  0
 20 21  1  6
 22 23  2  0
 22 24  1  0
M  END
$$$$
