GFI.pdb
     RDKit          3D

 24 24  0  0  1  0  0  0  0  0999 V2000
   11.7594  -17.2551   19.8687 N   0  0  0  0  0  0  0  0  0  0  0  0
   10.5859  -17.6806   20.6126 C   0  0  0  0  0  0  0  0  0  0  0  0
   10.3171  -16.6456   21.6636 C   0  0  0  0  0  0  0  0  0  0  0  0
   11.1605  -15.7445   21.9359 O   0  0  0  0  0  0  0  0  0  0  0  0
    9.1072  -16.6266   22.4016 N   0  0  0  0  0  0  0  0  0  0  0  0
    8.8211  -15.6148   23.4024 C   0  0  1  0  0  0  0  0  0  0  0  0
    7.3886  -15.2731   23.4186 C   0  0  0  0  0  0  0  0  0  0  0  0
    6.9132  -14.2739   24.3520 C   0  0  0  0  0  0  0  0  0  0  0  0
    7.2386  -12.9497   24.1432 C   0  0  0  0  0  0  0  0  0  0  0  0
    6.8172  -11.9274   24.9888 C   0  0  0  0  0  0  0  0  0  0  0  0
    6.0447  -12.2404   26.0797 C   0  0  0  0  0  0  0  0  0  0  0  0
    5.7079  -13.5601   26.3071 C   0  0  0  0  0  0  0  0  0  0  0  0
    6.1325  -14.5390   25.4657 C   0  0  0  0  0  0  0  0  0  0  0  0
    9.2587  -16.1380   24.7540 C   0  0  0  0  0  0  0  0  0  0  0  0
    9.2260  -17.3683   24.9281 O   0  0  0  0  0  0  0  0  0  0  0  0
   12.0865  -14.9828   29.6015 C   0  0  0  0  0  0  0  0  0  0  0  0
   10.5893  -15.0764   29.4132 C   0  0  0  0  0  0  0  0  0  0  0  0
   10.1661  -14.5580   28.0608 C   0  0  2  0  0  0  0  0  0  0  0  0
    8.7081  -14.1284   28.2153 C   0  0  0  0  0  0  0  0  0  0  0  0
   10.2325  -15.6895   27.0368 C   0  0  2  0  0  0  0  0  0  0  0  0
    9.6833  -15.2734   25.7685 N   0  0  0  0  0  0  0  0  0  0  0  0
    9.6289  -16.9229   27.5320 C   0  0  0  0  0  0  0  0  0  0  0  0
   10.3092  -17.8322   28.0895 O   0  0  0  0  0  0  0  0  0  0  0  0
    8.2671  -17.1476   27.4083 O   0  0  0  0  0  0  0  0  0  0  0  0
  1  2  1  0
  3  2  1  0
  4  3  2  0
  5  3  1  0
  6 14  1  0
  6  5  1  0
  6  7  1  1
  8  7  1  0
  9  8  2  0
 10 11  2  0
 10  9  1  0
 11 12  1  0
 12 13  2  0
 13  8  1  0
 14 21  1  0
 15 14  2  0
 17 16  1  0
 18 17  1  0
 18 19  1  1
 20 18  1  0
 20 22  1  0
 20 21  1  6
 22 23  2  0
 22 24  1  0
M  END
$$$$
