GFI.pdb
     RDKit          3D

 24 24  0  0  1  0  0  0  0  0999 V2000
    9.7416  -17.9297   19.9165 N   0  0  0  0  0  0  0  0  0  0  0  0
    8.5814  -17.9618   20.7909 C   0  0  0  0  0  0  0  0  0  0  0  0
    8.8387  -17.0080   21.9187 C   0  0  0  0  0  0  0  0  0  0  0  0
    9.9786  -16.4942   22.1038 O   0  0  0  0  0  0  0  0  0  0  0  0
    7.8192  -16.6363   22.8305 N   0  0  0  0  0  0  0  0  0  0  0  0
    8.0270  -15.6432   23.8687 C   0  0  1  0  0  0  0  0  0  0  0  0
    6.7726  -14.9431   24.1934 C   0  0  0  0  0  0  0  0  0  0  0  0
    6.7910  -13.8874   25.1837 C   0  0  0  0  0  0  0  0  0  0  0  0
    7.2501  -12.6369   24.8250 C   0  0  0  0  0  0  0  0  0  0  0  0
    7.2949  -11.5667   25.7142 C   0  0  0  0  0  0  0  0  0  0  0  0
    6.8665  -11.7540   27.0050 C   0  0  0  0  0  0  0  0  0  0  0  0
    6.4034  -12.9982   27.3846 C   0  0  0  0  0  0  0  0  0  0  0  0
    6.3701  -14.0262   26.4965 C   0  0  0  0  0  0  0  0  0  0  0  0
    8.5815  -16.3375   25.0944 C   0  0  0  0  0  0  0  0  0  0  0  0
    8.0211  -17.3850   25.4600 O   0  0  0  0  0  0  0  0  0  0  0  0
   14.3070  -16.4509   27.4236 C   0  0  0  0  0  0  0  0  0  0  0  0
   12.8674  -16.9104   27.4731 C   0  0  0  0  0  0  0  0  0  0  0  0
   11.9874  -16.0779   26.5736 C   0  0  2  0  0  0  0  0  0  0  0  0
   12.0302  -14.6606   27.1423 C   0  0  0  0  0  0  0  0  0  0  0  0
   10.5498  -16.5885   26.6511 C   0  0  2  0  0  0  0  0  0  0  0  0
    9.6808  -15.8228   25.7898 N   0  0  0  0  0  0  0  0  0  0  0  0
   10.0588  -16.6592   28.0239 C   0  0  0  0  0  0  0  0  0  0  0  0
    9.2997  -15.7753   28.5169 O   0  0  0  0  0  0  0  0  0  0  0  0
   10.4110  -17.7134   28.8515 O   0  0  0  0  0  0  0  0  0  0  0  0
  1  2  1  0
  3  2  1  0
  4  3  2  0
  5  3  1  0
  6 14  1  0
  6  5  1  0
  6  7  1  1
  8  7  1  0
  9  8  2  0
 10 11  2  0
 10  9  1  0
 11 12  1  0
 12 13  2  0
 13  8  1  0
 14 21  1  0
 15 14  2  0
 17 16  1  0
 18 17  1  0
 18 19  1  1
 20 18  1  0
 20 22  1  0
 20 21  1  6
 22 23  2  0
 22 24  1  0
M  END
$$$$
