GFI.pdb
     RDKit          3D

 24 24  0  0  1  0  0  0  0  0999 V2000
    6.7187  -20.6934   24.6961 N   0  0  0  0  0  0  0  0  0  0  0  0
    6.0453  -19.4085   24.6100 C   0  0  0  0  0  0  0  0  0  0  0  0
    6.8777  -18.5197   23.7353 C   0  0  0  0  0  0  0  0  0  0  0  0
    8.0297  -18.8650   23.3464 O   0  0  0  0  0  0  0  0  0  0  0  0
    6.4151  -17.2518   23.3024 N   0  0  0  0  0  0  0  0  0  0  0  0
    7.2547  -16.3276   22.5621 C   0  0  1  0  0  0  0  0  0  0  0  0
    6.4426  -15.3355   21.8372 C   0  0  0  0  0  0  0  0  0  0  0  0
    7.1072  -14.3444   21.0177 C   0  0  0  0  0  0  0  0  0  0  0  0
    7.5324  -14.6934   19.7526 C   0  0  0  0  0  0  0  0  0  0  0  0
    8.1734  -13.7995   18.8994 C   0  0  0  0  0  0  0  0  0  0  0  0
    8.3965  -12.5139   19.3262 C   0  0  0  0  0  0  0  0  0  0  0  0
    7.9789  -12.1441   20.5893 C   0  0  0  0  0  0  0  0  0  0  0  0
    7.3552  -13.0365   21.4024 C   0  0  0  0  0  0  0  0  0  0  0  0
    8.1891  -15.6412   23.5356 C   0  0  0  0  0  0  0  0  0  0  0  0
    9.2485  -15.1774   23.0800 O   0  0  0  0  0  0  0  0  0  0  0  0
    6.1274  -12.0489   26.5224 C   0  0  0  0  0  0  0  0  0  0  0  0
    7.0659  -12.9606   25.7647 C   0  0  0  0  0  0  0  0  0  0  0  0
    7.8262  -13.8727   26.6957 C   0  0  2  0  0  0  0  0  0  0  0  0
    8.7596  -12.9674   27.4978 C   0  0  0  0  0  0  0  0  0  0  0  0
    8.6765  -14.8432   25.8778 C   0  0  2  0  0  0  0  0  0  0  0  0
    7.8753  -15.5319   24.8944 N   0  0  0  0  0  0  0  0  0  0  0  0
    9.4400  -15.7585   26.7204 C   0  0  0  0  0  0  0  0  0  0  0  0
   10.3736  -15.3620   27.4764 O   0  0  0  0  0  0  0  0  0  0  0  0
    9.1667  -17.1170   26.7239 O   0  0  0  0  0  0  0  0  0  0  0  0
  1  2  1  0
  3  2  1  0
  4  3  2  0
  5  3  1  0
  6 14  1  0
  6  5  1  0
  6  7  1  1
  8  7  1  0
  9  8  2  0
 10 11  2  0
 10  9  1  0
 11 12  1  0
 12 13  2  0
 13  8  1  0
 14 21  1  0
 15 14  2  0
 17 16  1  0
 18 17  1  0
 18 19  1  1
 20 18  1  0
 20 22  1  0
 20 21  1  6
 22 23  2  0
 22 24  1  0
M  END
$$$$
