GFI.pdb
     RDKit          3D

 24 24  0  0  1  0  0  0  0  0999 V2000
   10.5168  -17.8282   19.6160 N   0  0  0  0  0  0  0  0  0  0  0  0
    9.5441  -18.2118   20.6251 C   0  0  0  0  0  0  0  0  0  0  0  0
    9.5493  -17.1509   21.6845 C   0  0  0  0  0  0  0  0  0  0  0  0
   10.5174  -16.3484   21.8125 O   0  0  0  0  0  0  0  0  0  0  0  0
    8.4720  -16.9957   22.5923 N   0  0  0  0  0  0  0  0  0  0  0  0
    8.4612  -15.9711   23.6205 C   0  0  1  0  0  0  0  0  0  0  0  0
    7.0979  -15.4639   23.8513 C   0  0  0  0  0  0  0  0  0  0  0  0
    6.9152  -14.2779   24.6610 C   0  0  0  0  0  0  0  0  0  0  0  0
    6.1879  -14.3671   25.8299 C   0  0  0  0  0  0  0  0  0  0  0  0
    5.9708  -13.2769   26.6678 C   0  0  0  0  0  0  0  0  0  0  0  0
    6.4987  -12.0568   26.3248 C   0  0  0  0  0  0  0  0  0  0  0  0
    7.2298  -11.9459   25.1586 C   0  0  0  0  0  0  0  0  0  0  0  0
    7.4270  -13.0263   24.3583 C   0  0  0  0  0  0  0  0  0  0  0  0
    9.0321  -16.5603   24.8928 C   0  0  0  0  0  0  0  0  0  0  0  0
    8.7271  -17.7340   25.1658 O   0  0  0  0  0  0  0  0  0  0  0  0
    9.9200  -13.6470   29.5783 C   0  0  0  0  0  0  0  0  0  0  0  0
    9.6202  -14.6831   28.5188 C   0  0  0  0  0  0  0  0  0  0  0  0
   10.8827  -15.1984   27.8730 C   0  0  2  0  0  0  0  0  0  0  0  0
   11.4501  -14.0279   27.0717 C   0  0  0  0  0  0  0  0  0  0  0  0
   10.5363  -16.3272   26.9036 C   0  0  2  0  0  0  0  0  0  0  0  0
    9.8700  -15.8159   25.7298 N   0  0  0  0  0  0  0  0  0  0  0  0
    9.7900  -17.4034   27.5483 C   0  0  0  0  0  0  0  0  0  0  0  0
   10.3128  -18.1655   28.4122 O   0  0  0  0  0  0  0  0  0  0  0  0
    8.4604  -17.6343   27.2335 O   0  0  0  0  0  0  0  0  0  0  0  0
  1  2  1  0
  3  2  1  0
  4  3  2  0
  5  3  1  0
  6 14  1  0
  6  5  1  0
  6  7  1  1
  8  7  1  0
  9  8  2  0
 10 11  2  0
 10  9  1  0
 11 12  1  0
 12 13  2  0
 13  8  1  0
 14 21  1  0
 15 14  2  0
 17 16  1  0
 18 17  1  0
 18 19  1  6
 20 18  1  0
 20 22  1  0
 20 21  1  6
 22 23  2  0
 22 24  1  0
M  END
$$$$
