PEH.pdb
     RDKit          3D

 27 28  0  0  1  0  0  0  0  0999 V2000
   32.8673  -35.6116   -5.8482 N   0  0  0  0  0  0  0  0  0  0  0  0
   33.0935  -35.2158   -7.2026 C   0  0  0  0  0  0  0  0  0  0  0  0
   33.8412  -33.9142   -7.2231 C   0  0  0  0  0  0  0  0  0  0  0  0
   33.7837  -33.4337   -5.8126 C   0  0  0  0  0  0  0  0  0  0  0  0
   33.5373  -34.6636   -5.0069 C   0  0  1  0  0  0  0  0  0  0  0  0
   32.6816  -34.2792   -3.8265 C   0  0  0  0  0  0  0  0  0  0  0  0
   33.0749  -33.4596   -2.9601 O   0  0  0  0  0  0  0  0  0  0  0  0
   31.3853  -34.8369   -3.6495 N   0  0  0  0  0  0  0  0  0  0  0  0
   30.4547  -34.4009   -2.6052 C   0  0  1  0  0  0  0  0  0  0  0  0
   29.0969  -34.1794   -3.1547 C   0  0  0  0  0  0  0  0  0  0  0  0
   28.0724  -33.6460   -2.1988 C   0  0  0  0  0  0  0  0  0  0  0  0
   26.7589  -33.4602   -2.8934 C   0  0  0  0  0  0  0  0  0  0  0  0
   25.7552  -34.0187   -2.4055 O   0  0  0  0  0  0  0  0  0  0  0  0
   30.4314  -35.3693   -1.4926 C   0  0  0  0  0  0  0  0  0  0  0  0
   29.5377  -35.2650   -0.6212 O   0  0  0  0  0  0  0  0  0  0  0  0
   26.6680  -32.7023   -4.0251 O   0  0  0  0  0  0  0  0  0  0  0  0
   31.3522  -36.4131   -1.3393 N   0  0  0  0  0  0  0  0  0  0  0  0
   30.9007  -37.6791   -0.7688 C   0  0  1  0  0  0  0  0  0  0  0  0
   29.7601  -38.2538   -1.5350 C   0  0  0  0  0  0  0  0  0  0  0  0
   29.3109  -39.5153   -0.9290 C   0  0  0  0  0  0  0  0  0  0  0  0
   29.7884  -40.0281    0.2824 C   0  0  0  0  0  0  0  0  0  0  0  0
   29.1727  -41.1887    0.5461 N   0  0  0  0  0  0  0  0  0  0  0  0
   28.3175  -41.4405   -0.4504 C   0  0  0  0  0  0  0  0  0  0  0  0
   28.4086  -40.4154   -1.3447 N   0  0  0  0  0  0  0  0  0  0  0  0
   32.0172  -38.6469   -0.7157 C   0  0  0  0  0  0  0  0  0  0  0  0
   33.1114  -38.3964   -1.2329 O   0  0  0  0  0  0  0  0  0  0  0  0
   31.8114  -39.8758   -0.0577 O   0  0  0  0  0  0  0  0  0  0  0  0
  1  2  1  0
  1  5  1  0
  2  3  1  0
  3  4  1  0
  5  4  1  0
  5  6  1  1
  6  7  2  0
  8  6  1  0
  9  8  1  0
  9 10  1  6
 11 10  1  0
 12 11  1  0
 12 13  2  0
 14  9  1  0
 15 14  2  0
 16 12  1  0
 17 14  1  0
 18 25  1  0
 18 17  1  0
 19 20  1  0
 18 19  1  6
 20 21  2  0
 22 21  1  0
 23 22  1  0
 24 23  2  0
 24 20  1  0
 25 27  1  0
 26 25  2  0
M  END
$$$$
