PEH.pdb
     RDKit          3D

 27 28  0  0  1  0  0  0  0  0999 V2000
   30.4319  -22.5549  -10.7876 N   0  0  0  0  0  0  0  0  0  0  0  0
   31.7425  -22.4209  -10.2339 C   0  0  0  0  0  0  0  0  0  0  0  0
   31.6711  -21.6039   -8.9765 C   0  0  0  0  0  0  0  0  0  0  0  0
   30.2944  -21.0308   -8.9868 C   0  0  0  0  0  0  0  0  0  0  0  0
   29.5147  -21.9434   -9.8709 C   0  0  1  0  0  0  0  0  0  0  0  0
   28.4856  -21.1151  -10.5977 C   0  0  0  0  0  0  0  0  0  0  0  0
   27.6713  -20.3808   -9.9855 O   0  0  0  0  0  0  0  0  0  0  0  0
   28.3986  -21.1361  -12.0171 N   0  0  0  0  0  0  0  0  0  0  0  0
   27.5600  -20.2148  -12.7882 C   0  0  1  0  0  0  0  0  0  0  0  0
   28.1020  -20.0088  -14.1514 C   0  0  0  0  0  0  0  0  0  0  0  0
   27.3429  -19.0623  -15.0320 C   0  0  0  0  0  0  0  0  0  0  0  0
   28.0016  -18.9563  -16.3726 C   0  0  0  0  0  0  0  0  0  0  0  0
   28.8719  -18.0756  -16.5285 O   0  0  0  0  0  0  0  0  0  0  0  0
   26.1656  -20.6944  -12.8323 C   0  0  0  0  0  0  0  0  0  0  0  0
   25.9536  -21.9161  -13.0097 O   0  0  0  0  0  0  0  0  0  0  0  0
   27.6569  -19.7996  -17.3892 O   0  0  0  0  0  0  0  0  0  0  0  0
   25.0448  -19.8675  -12.6880 N   0  0  0  0  0  0  0  0  0  0  0  0
   23.7220  -20.4773  -12.5865 C   0  0  1  0  0  0  0  0  0  0  0  0
   22.9274  -19.8889  -11.4726 C   0  0  0  0  0  0  0  0  0  0  0  0
   21.5905  -20.4966  -11.4113 C   0  0  0  0  0  0  0  0  0  0  0  0
   21.1681  -21.5674  -12.2073 C   0  0  0  0  0  0  0  0  0  0  0  0
   19.9010  -21.8760  -11.8995 N   0  0  0  0  0  0  0  0  0  0  0  0
   19.4937  -21.0438  -10.9354 C   0  0  0  0  0  0  0  0  0  0  0  0
   20.5298  -20.2067  -10.6445 N   0  0  0  0  0  0  0  0  0  0  0  0
   22.9905  -20.3355  -13.8635 C   0  0  0  0  0  0  0  0  0  0  0  0
   22.3491  -21.2754  -14.3458 O   0  0  0  0  0  0  0  0  0  0  0  0
   23.0369  -19.0955  -14.5312 O   0  0  0  0  0  0  0  0  0  0  0  0
  1  2  1  0
  1  5  1  0
  2  3  1  0
  3  4  1  0
  5  4  1  0
  5  6  1  6
  6  7  2  0
  8  6  1  0
  9  8  1  0
  9 10  1  6
 11 10  1  0
 12 11  1  0
 12 13  2  0
 14  9  1  0
 15 14  2  0
 16 12  1  0
 17 14  1  0
 18 25  1  0
 18 17  1  0
 19 20  1  0
 18 19  1  1
 20 21  2  0
 22 21  1  0
 23 22  1  0
 24 23  2  0
 24 20  1  0
 25 27  1  0
 26 25  2  0
M  END
$$$$
