PEH.pdb
     RDKit          3D

 27 28  0  0  1  0  0  0  0  0999 V2000
   21.3306  -17.8977  -15.0585 N   0  0  0  0  0  0  0  0  0  0  0  0
   22.3555  -18.8693  -15.2777 C   0  0  0  0  0  0  0  0  0  0  0  0
   22.7382  -18.8713  -16.7293 C   0  0  0  0  0  0  0  0  0  0  0  0
   21.6809  -18.0534  -17.3904 C   0  0  0  0  0  0  0  0  0  0  0  0
   21.1230  -17.2068  -16.2975 C   0  0  1  0  0  0  0  0  0  0  0  0
   19.6542  -17.0060  -16.5723 C   0  0  0  0  0  0  0  0  0  0  0  0
   19.2431  -16.4877  -17.6398 O   0  0  0  0  0  0  0  0  0  0  0  0
   18.6713  -17.3996  -15.6228 N   0  0  0  0  0  0  0  0  0  0  0  0
   17.2299  -17.2743  -15.8538 C   0  0  1  0  0  0  0  0  0  0  0  0
   16.4882  -18.4012  -15.2417 C   0  0  0  0  0  0  0  0  0  0  0  0
   16.4843  -19.6889  -16.0095 C   0  0  0  0  0  0  0  0  0  0  0  0
   15.7103  -20.7348  -15.2683 C   0  0  0  0  0  0  0  0  0  0  0  0
   14.5134  -20.9055  -15.5778 O   0  0  0  0  0  0  0  0  0  0  0  0
   16.7353  -15.9754  -15.3593 C   0  0  0  0  0  0  0  0  0  0  0  0
   17.0812  -15.5935  -14.2177 O   0  0  0  0  0  0  0  0  0  0  0  0
   16.3006  -21.4757  -14.2854 O   0  0  0  0  0  0  0  0  0  0  0  0
   15.8931  -15.1260  -16.0874 N   0  0  0  0  0  0  0  0  0  0  0  0
   15.5300  -13.8305  -15.5201 C   0  0  1  0  0  0  0  0  0  0  0  0
   15.9920  -12.7038  -16.3777 C   0  0  0  0  0  0  0  0  0  0  0  0
   17.4502  -12.5451  -16.2851 C   0  0  0  0  0  0  0  0  0  0  0  0
   18.1079  -11.8203  -15.2847 C   0  0  0  0  0  0  0  0  0  0  0  0
   19.4304  -11.8767  -15.4929 N   0  0  0  0  0  0  0  0  0  0  0  0
   19.6470  -12.6107  -16.5893 C   0  0  0  0  0  0  0  0  0  0  0  0
   18.4346  -13.0137  -17.0653 N   0  0  0  0  0  0  0  0  0  0  0  0
   14.0677  -13.7491  -15.3171 C   0  0  0  0  0  0  0  0  0  0  0  0
   13.3179  -14.6694  -15.6612 O   0  0  0  0  0  0  0  0  0  0  0  0
   13.5353  -12.5905  -14.7175 O   0  0  0  0  0  0  0  0  0  0  0  0
  1  2  1  0
  1  5  1  0
  2  3  1  0
  3  4  1  0
  5  4  1  0
  5  6  1  6
  6  7  2  0
  8  6  1  0
  9  8  1  0
  9 10  1  1
 11 10  1  0
 12 11  1  0
 12 13  2  0
 14  9  1  0
 15 14  2  0
 16 12  1  0
 17 14  1  0
 18 25  1  0
 18 17  1  0
 19 20  1  0
 18 19  1  6
 20 21  2  0
 22 21  1  0
 23 22  1  0
 24 23  2  0
 24 20  1  0
 25 27  1  0
 26 25  2  0
M  END
$$$$
