PEH.pdb
     RDKit          3D

 27 28  0  0  1  0  0  0  0  0999 V2000
   22.7300  -10.7638  -16.6022 N   0  0  0  0  0  0  0  0  0  0  0  0
   23.7869  -11.3594  -17.3574 C   0  0  0  0  0  0  0  0  0  0  0  0
   24.8899  -11.7761  -16.4282 C   0  0  0  0  0  0  0  0  0  0  0  0
   24.5415  -11.1309  -15.1296 C   0  0  0  0  0  0  0  0  0  0  0  0
   23.0738  -10.8834  -15.2154 C   0  0  1  0  0  0  0  0  0  0  0  0
   22.7753   -9.6096  -14.4661 C   0  0  0  0  0  0  0  0  0  0  0  0
   23.0470   -9.4770  -13.2472 O   0  0  0  0  0  0  0  0  0  0  0  0
   22.1686   -8.5013  -15.1189 N   0  0  0  0  0  0  0  0  0  0  0  0
   21.8257   -7.2510  -14.4363 C   0  0  1  0  0  0  0  0  0  0  0  0
   21.9089   -6.0952  -15.3593 C   0  0  0  0  0  0  0  0  0  0  0  0
   21.4732   -4.7714  -14.8068 C   0  0  0  0  0  0  0  0  0  0  0  0
   21.6395   -3.6971  -15.8367 C   0  0  0  0  0  0  0  0  0  0  0  0
   20.6483   -2.9896  -16.1090 O   0  0  0  0  0  0  0  0  0  0  0  0
   20.4906   -7.3468  -13.8160 C   0  0  0  0  0  0  0  0  0  0  0  0
   19.5661   -7.8976  -14.4570 O   0  0  0  0  0  0  0  0  0  0  0  0
   22.8407   -3.5022  -16.4553 O   0  0  0  0  0  0  0  0  0  0  0  0
   20.1788   -6.8577  -12.5415 N   0  0  0  0  0  0  0  0  0  0  0  0
   18.8315   -7.0570  -12.0154 C   0  0  1  0  0  0  0  0  0  0  0  0
   18.8517   -7.4273  -10.5729 C   0  0  0  0  0  0  0  0  0  0  0  0
   17.4859   -7.4875  -10.0333 C   0  0  0  0  0  0  0  0  0  0  0  0
   16.6548   -8.6116  -10.1004 C   0  0  0  0  0  0  0  0  0  0  0  0
   15.4822   -8.3317   -9.5153 N   0  0  0  0  0  0  0  0  0  0  0  0
   15.5290   -7.0701   -9.0747 C   0  0  0  0  0  0  0  0  0  0  0  0
   16.7537   -6.5637   -9.3949 N   0  0  0  0  0  0  0  0  0  0  0  0
   18.0151   -5.8408  -12.2171 C   0  0  0  0  0  0  0  0  0  0  0  0
   18.5228   -4.7142  -12.1974 O   0  0  0  0  0  0  0  0  0  0  0  0
   16.6308   -5.9883  -12.4347 O   0  0  0  0  0  0  0  0  0  0  0  0
  1  2  1  0
  1  5  1  0
  2  3  1  0
  3  4  1  0
  5  4  1  0
  5  6  1  1
  6  7  2  0
  8  6  1  0
  9  8  1  0
  9 10  1  6
 11 10  1  0
 12 11  1  0
 12 13  2  0
 14  9  1  0
 15 14  2  0
 16 12  1  0
 17 14  1  0
 18 25  1  0
 18 17  1  0
 19 20  1  0
 18 19  1  1
 20 21  2  0
 22 21  1  0
 23 22  1  0
 24 23  2  0
 24 20  1  0
 25 27  1  0
 26 25  2  0
M  END
$$$$
