PEH.pdb
     RDKit          3D

 27 28  0  0  1  0  0  0  0  0999 V2000
   21.1278  -13.8094  -16.8587 N   0  0  0  0  0  0  0  0  0  0  0  0
   21.2094  -15.2036  -17.1617 C   0  0  0  0  0  0  0  0  0  0  0  0
   20.7551  -15.4341  -18.5739 C   0  0  0  0  0  0  0  0  0  0  0  0
   20.1348  -14.1394  -18.9776 C   0  0  0  0  0  0  0  0  0  0  0  0
   20.7399  -13.1314  -18.0609 C   0  0  1  0  0  0  0  0  0  0  0  0
   19.6994  -12.0764  -17.7824 C   0  0  0  0  0  0  0  0  0  0  0  0
   19.4101  -11.1904  -18.6241 O   0  0  0  0  0  0  0  0  0  0  0  0
   19.0012  -12.0457  -16.5437 N   0  0  0  0  0  0  0  0  0  0  0  0
   17.9909  -11.0381  -16.2113 C   0  0  1  0  0  0  0  0  0  0  0  0
   16.9162  -11.6130  -15.3691 C   0  0  0  0  0  0  0  0  0  0  0  0
   15.9559  -12.5364  -16.0566 C   0  0  0  0  0  0  0  0  0  0  0  0
   14.9560  -13.0705  -15.0781 C   0  0  0  0  0  0  0  0  0  0  0  0
   14.0916  -12.2854  -14.6380 O   0  0  0  0  0  0  0  0  0  0  0  0
   18.6156   -9.8708  -15.5604 C   0  0  0  0  0  0  0  0  0  0  0  0
   19.6218  -10.0509  -14.8366 O   0  0  0  0  0  0  0  0  0  0  0  0
   14.9937  -14.3767  -14.6832 O   0  0  0  0  0  0  0  0  0  0  0  0
   18.1558   -8.5552  -15.6965 N   0  0  0  0  0  0  0  0  0  0  0  0
   18.9411   -7.4665  -15.1221 C   0  0  1  0  0  0  0  0  0  0  0  0
   20.3246   -7.4340  -15.6728 C   0  0  0  0  0  0  0  0  0  0  0  0
   21.0650   -6.2778  -15.1481 C   0  0  0  0  0  0  0  0  0  0  0  0
   21.5483   -6.1724  -13.8389 C   0  0  0  0  0  0  0  0  0  0  0  0
   22.1752   -4.9973  -13.6909 N   0  0  0  0  0  0  0  0  0  0  0  0
   22.1129   -4.3441  -14.8560 C   0  0  0  0  0  0  0  0  0  0  0  0
   21.4345   -5.1320  -15.7379 N   0  0  0  0  0  0  0  0  0  0  0  0
   18.2702   -6.1696  -15.3548 C   0  0  0  0  0  0  0  0  0  0  0  0
   18.1980   -5.3137  -14.4662 O   0  0  0  0  0  0  0  0  0  0  0  0
   17.7070   -5.9215  -16.6223 O   0  0  0  0  0  0  0  0  0  0  0  0
  1  2  1  0
  1  5  1  0
  2  3  1  0
  3  4  1  0
  5  4  1  0
  5  6  1  1
  6  7  2  0
  8  6  1  0
  9  8  1  0
  9 10  1  1
 11 10  1  0
 12 11  1  0
 12 13  2  0
 14  9  1  0
 15 14  2  0
 16 12  1  0
 17 14  1  0
 18 25  1  0
 18 17  1  0
 19 20  1  0
 18 19  1  6
 20 21  2  0
 22 21  1  0
 23 22  1  0
 24 23  2  0
 24 20  1  0
 25 27  1  0
 26 25  2  0
M  END
$$$$
