PEH.pdb
     RDKit          3D

 27 28  0  0  1  0  0  0  0  0999 V2000
   28.4796  -21.7212  -11.7017 N   0  0  0  0  0  0  0  0  0  0  0  0
   29.7123  -21.4911  -11.0164 C   0  0  0  0  0  0  0  0  0  0  0  0
   29.4506  -20.6854   -9.7771 C   0  0  0  0  0  0  0  0  0  0  0  0
   28.0433  -20.2169   -9.9322 C   0  0  0  0  0  0  0  0  0  0  0  0
   27.4294  -21.1828  -10.8876 C   0  0  1  0  0  0  0  0  0  0  0  0
   26.4219  -20.4318  -11.7207 C   0  0  0  0  0  0  0  0  0  0  0  0
   25.5014  -19.7550  -11.1993 O   0  0  0  0  0  0  0  0  0  0  0  0
   26.4777  -20.4633  -13.1415 N   0  0  0  0  0  0  0  0  0  0  0  0
   25.7608  -19.5158  -13.9987 C   0  0  1  0  0  0  0  0  0  0  0  0
   26.4056  -19.4001  -15.3275 C   0  0  0  0  0  0  0  0  0  0  0  0
   25.7849  -18.4272  -16.2845 C   0  0  0  0  0  0  0  0  0  0  0  0
   26.5708  -18.3761  -17.5581 C   0  0  0  0  0  0  0  0  0  0  0  0
   26.4557  -19.3295  -18.3550 O   0  0  0  0  0  0  0  0  0  0  0  0
   24.3415  -19.8984  -14.1230 C   0  0  0  0  0  0  0  0  0  0  0  0
   24.0538  -21.1091  -14.2656 O   0  0  0  0  0  0  0  0  0  0  0  0
   27.3866  -17.3168  -17.8338 O   0  0  0  0  0  0  0  0  0  0  0  0
   23.2766  -18.9897  -14.0926 N   0  0  0  0  0  0  0  0  0  0  0  0
   21.9106  -19.5000  -14.0194 C   0  0  1  0  0  0  0  0  0  0  0  0
   20.9460  -18.4387  -13.6175 C   0  0  0  0  0  0  0  0  0  0  0  0
   19.5913  -18.9928  -13.4823 C   0  0  0  0  0  0  0  0  0  0  0  0
   19.2865  -20.3585  -13.5043 C   0  0  0  0  0  0  0  0  0  0  0  0
   17.9647  -20.5204  -13.3553 N   0  0  0  0  0  0  0  0  0  0  0  0
   17.4090  -19.3098  -13.2381 C   0  0  0  0  0  0  0  0  0  0  0  0
   18.4079  -18.3852  -13.3167 N   0  0  0  0  0  0  0  0  0  0  0  0
   21.5102  -20.0869  -15.3160 C   0  0  0  0  0  0  0  0  0  0  0  0
   20.8856  -21.1517  -15.3752 O   0  0  0  0  0  0  0  0  0  0  0  0
   21.8568  -19.4043  -16.4990 O   0  0  0  0  0  0  0  0  0  0  0  0
  1  2  1  0
  1  5  1  0
  2  3  1  0
  3  4  1  0
  5  4  1  0
  5  6  1  6
  6  7  2  0
  8  6  1  0
  9  8  1  0
  9 10  1  6
 11 10  1  0
 12 11  1  0
 12 13  2  0
 14  9  1  0
 15 14  2  0
 16 12  1  0
 17 14  1  0
 18 25  1  0
 18 17  1  0
 19 20  1  0
 18 19  1  6
 20 21  2  0
 22 21  1  0
 23 22  1  0
 24 23  2  0
 24 20  1  0
 25 27  1  0
 26 25  2  0
M  END
$$$$
