PEH.pdb
     RDKit          3D

 27 28  0  0  1  0  0  0  0  0999 V2000
   18.1181  -13.2890    6.5769 N   0  0  0  0  0  0  0  0  0  0  0  0
   18.5560  -11.9503    6.3354 C   0  0  0  0  0  0  0  0  0  0  0  0
   19.2240  -11.8789    4.9929 C   0  0  0  0  0  0  0  0  0  0  0  0
   19.4051  -13.3046    4.5949 C   0  0  0  0  0  0  0  0  0  0  0  0
   18.3879  -14.0487    5.3912 C   0  0  1  0  0  0  0  0  0  0  0  0
   18.9629  -15.4013    5.7273 C   0  0  0  0  0  0  0  0  0  0  0  0
   19.4025  -16.1749    4.8410 O   0  0  0  0  0  0  0  0  0  0  0  0
   19.0285  -15.8549    7.0737 N   0  0  0  0  0  0  0  0  0  0  0  0
   19.6318  -17.1308    7.4672 C   0  0  1  0  0  0  0  0  0  0  0  0
   20.5558  -16.9572    8.6120 C   0  0  0  0  0  0  0  0  0  0  0  0
   21.9825  -16.6453    8.2728 C   0  0  0  0  0  0  0  0  0  0  0  0
   22.7756  -16.4119    9.5213 C   0  0  0  0  0  0  0  0  0  0  0  0
   22.8284  -17.3332   10.3614 O   0  0  0  0  0  0  0  0  0  0  0  0
   18.5876  -18.1287    7.7675 C   0  0  0  0  0  0  0  0  0  0  0  0
   17.5765  -17.7678    8.4127 O   0  0  0  0  0  0  0  0  0  0  0  0
   23.4191  -15.2260    9.7289 O   0  0  0  0  0  0  0  0  0  0  0  0
   18.6480  -19.4719    7.3764 N   0  0  0  0  0  0  0  0  0  0  0  0
   17.5870  -20.3819    7.7985 C   0  0  1  0  0  0  0  0  0  0  0  0
   16.8944  -20.9999    6.6338 C   0  0  0  0  0  0  0  0  0  0  0  0
   15.7631  -21.8250    7.0806 C   0  0  0  0  0  0  0  0  0  0  0  0
   14.6405  -21.3337    7.7567 C   0  0  0  0  0  0  0  0  0  0  0  0
   13.8011  -22.3455    8.0160 N   0  0  0  0  0  0  0  0  0  0  0  0
   14.3422  -23.4682    7.5318 C   0  0  0  0  0  0  0  0  0  0  0  0
   15.5378  -23.1414    6.9636 N   0  0  0  0  0  0  0  0  0  0  0  0
   18.1328  -21.4338    8.6827 C   0  0  0  0  0  0  0  0  0  0  0  0
   19.3498  -21.5616    8.8559 O   0  0  0  0  0  0  0  0  0  0  0  0
   17.2317  -22.2998    9.3334 O   0  0  0  0  0  0  0  0  0  0  0  0
  1  2  1  0
  1  5  1  0
  2  3  1  0
  3  4  1  0
  5  4  1  0
  5  6  1  1
  6  7  2  0
  8  6  1  0
  9  8  1  0
  9 10  1  1
 11 10  1  0
 12 11  1  0
 12 13  2  0
 14  9  1  0
 15 14  2  0
 16 12  1  0
 17 14  1  0
 18 25  1  0
 18 17  1  0
 19 20  1  0
 18 19  1  6
 20 21  2  0
 22 21  1  0
 23 22  1  0
 24 23  2  0
 24 20  1  0
 25 27  1  0
 26 25  2  0
M  END
$$$$
