PEH.pdb
     RDKit          3D

 27 28  0  0  1  0  0  0  0  0999 V2000
   37.9833   -8.2073  -11.6294 N   0  0  0  0  0  0  0  0  0  0  0  0
   38.5692   -9.5056  -11.5126 C   0  0  0  0  0  0  0  0  0  0  0  0
   39.8313   -9.5576  -12.3238 C   0  0  0  0  0  0  0  0  0  0  0  0
   39.7930   -8.3137  -13.1454 C   0  0  0  0  0  0  0  0  0  0  0  0
   38.8831   -7.3987  -12.3989 C   0  0  1  0  0  0  0  0  0  0  0  0
   38.1390   -6.5619  -13.4086 C   0  0  0  0  0  0  0  0  0  0  0  0
   38.6938   -5.6225  -14.0306 O   0  0  0  0  0  0  0  0  0  0  0  0
   36.7679   -6.8082  -13.6955 N   0  0  0  0  0  0  0  0  0  0  0  0
   36.0085   -6.0659  -14.7049 C   0  0  1  0  0  0  0  0  0  0  0  0
   34.8063   -6.8184  -15.1329 C   0  0  0  0  0  0  0  0  0  0  0  0
   33.9535   -6.1678  -16.1803 C   0  0  0  0  0  0  0  0  0  0  0  0
   32.8141   -7.0644  -16.5549 C   0  0  0  0  0  0  0  0  0  0  0  0
   32.5774   -8.0464  -15.8221 O   0  0  0  0  0  0  0  0  0  0  0  0
   35.6515   -4.7248  -14.2044 C   0  0  0  0  0  0  0  0  0  0  0  0
   34.9715   -4.6336  -13.1565 O   0  0  0  0  0  0  0  0  0  0  0  0
   32.0610   -6.8107  -17.6648 O   0  0  0  0  0  0  0  0  0  0  0  0
   36.0248   -3.5278  -14.8280 N   0  0  0  0  0  0  0  0  0  0  0  0
   35.6424   -2.2593  -14.2144 C   0  0  1  0  0  0  0  0  0  0  0  0
   36.8008   -1.5935  -13.5562 C   0  0  0  0  0  0  0  0  0  0  0  0
   36.3831   -0.3380  -12.9164 C   0  0  0  0  0  0  0  0  0  0  0  0
   37.1623    0.8234  -12.8633 C   0  0  0  0  0  0  0  0  0  0  0  0
   36.4876    1.7807  -12.2121 N   0  0  0  0  0  0  0  0  0  0  0  0
   35.3043    1.2779  -11.8451 C   0  0  0  0  0  0  0  0  0  0  0  0
   35.2495   -0.0137  -12.2785 N   0  0  0  0  0  0  0  0  0  0  0  0
   35.0442   -1.3592  -15.2234 C   0  0  0  0  0  0  0  0  0  0  0  0
   34.5632   -0.2658  -14.9061 O   0  0  0  0  0  0  0  0  0  0  0  0
   35.0308   -1.7730  -16.5702 O   0  0  0  0  0  0  0  0  0  0  0  0
  1  2  1  0
  1  5  1  0
  2  3  1  0
  3  4  1  0
  5  4  1  0
  5  6  1  6
  6  7  2  0
  8  6  1  0
  9  8  1  0
  9 10  1  1
 11 10  1  0
 12 11  1  0
 12 13  2  0
 14  9  1  0
 15 14  2  0
 16 12  1  0
 17 14  1  0
 18 25  1  0
 18 17  1  0
 19 20  1  0
 18 19  1  6
 20 21  2  0
 22 21  1  0
 23 22  1  0
 24 23  2  0
 24 20  1  0
 25 27  1  0
 26 25  2  0
M  END
$$$$
