PEH.pdb
     RDKit          3D

 27 28  0  0  1  0  0  0  0  0999 V2000
   26.8286  -19.4479  -17.5166 N   0  0  0  0  0  0  0  0  0  0  0  0
   27.6589  -19.0866  -18.6223 C   0  0  0  0  0  0  0  0  0  0  0  0
   28.3961  -17.8195  -18.2987 C   0  0  0  0  0  0  0  0  0  0  0  0
   27.7324  -17.3119  -17.0636 C   0  0  0  0  0  0  0  0  0  0  0  0
   27.0919  -18.5153  -16.4600 C   0  0  1  0  0  0  0  0  0  0  0  0
   25.8156  -18.0728  -15.7905 C   0  0  0  0  0  0  0  0  0  0  0  0
   25.8092  -17.2120  -14.8761 O   0  0  0  0  0  0  0  0  0  0  0  0
   24.5601  -18.6203  -16.1735 N   0  0  0  0  0  0  0  0  0  0  0  0
   23.2867  -18.2193  -15.5698 C   0  0  1  0  0  0  0  0  0  0  0  0
   22.3489  -17.6981  -16.5914 C   0  0  0  0  0  0  0  0  0  0  0  0
   22.4721  -16.2416  -16.9246 C   0  0  0  0  0  0  0  0  0  0  0  0
   21.4561  -15.8553  -17.9545 C   0  0  0  0  0  0  0  0  0  0  0  0
   21.8690  -15.4617  -19.0645 O   0  0  0  0  0  0  0  0  0  0  0  0
   22.6918  -19.3409  -14.8185 C   0  0  0  0  0  0  0  0  0  0  0  0
   22.6614  -20.4744  -15.3507 O   0  0  0  0  0  0  0  0  0  0  0  0
   20.1207  -15.9331  -17.6823 O   0  0  0  0  0  0  0  0  0  0  0  0
   22.1499  -19.2261  -13.5324 N   0  0  0  0  0  0  0  0  0  0  0  0
   21.7248  -20.4343  -12.8314 C   0  0  1  0  0  0  0  0  0  0  0  0
   22.1156  -20.4049  -11.3945 C   0  0  0  0  0  0  0  0  0  0  0  0
   23.5500  -20.6859  -11.2408 C   0  0  0  0  0  0  0  0  0  0  0  0
   24.4223  -20.9634  -12.2995 C   0  0  0  0  0  0  0  0  0  0  0  0
   25.6547  -21.1711  -11.8159 N   0  0  0  0  0  0  0  0  0  0  0  0
   25.6067  -21.0372  -10.4864 C   0  0  0  0  0  0  0  0  0  0  0  0
   24.3202  -20.7416  -10.1450 N   0  0  0  0  0  0  0  0  0  0  0  0
   20.2627  -20.6149  -12.9575 C   0  0  0  0  0  0  0  0  0  0  0  0
   19.5229  -19.6762  -13.2718 O   0  0  0  0  0  0  0  0  0  0  0  0
   19.7188  -21.8911  -12.7103 O   0  0  0  0  0  0  0  0  0  0  0  0
  1  2  1  0
  1  5  1  0
  2  3  1  0
  3  4  1  0
  5  4  1  0
  5  6  1  6
  6  7  2  0
  8  6  1  0
  9  8  1  0
  9 10  1  6
 11 10  1  0
 12 11  1  0
 12 13  2  0
 14  9  1  0
 15 14  2  0
 16 12  1  0
 17 14  1  0
 18 25  1  0
 18 17  1  0
 19 20  1  0
 18 19  1  1
 20 21  2  0
 22 21  1  0
 23 22  1  0
 24 23  2  0
 24 20  1  0
 25 27  1  0
 26 25  2  0
M  END
$$$$
