PEH.pdb
     RDKit          3D

 27 28  0  0  1  0  0  0  0  0999 V2000
   19.2637   -9.8093  -15.8611 N   0  0  0  0  0  0  0  0  0  0  0  0
   19.9270  -10.5169  -16.9107 C   0  0  0  0  0  0  0  0  0  0  0  0
   21.0701  -11.3029  -16.3369 C   0  0  0  0  0  0  0  0  0  0  0  0
   21.2102  -10.7871  -14.9447 C   0  0  0  0  0  0  0  0  0  0  0  0
   19.8771  -10.2008  -14.6258 C   0  0  1  0  0  0  0  0  0  0  0  0
   20.0984   -9.0127  -13.7243 C   0  0  0  0  0  0  0  0  0  0  0  0
   20.6668   -9.1216  -12.6097 O   0  0  0  0  0  0  0  0  0  0  0  0
   19.6666   -7.7128  -14.1071 N   0  0  0  0  0  0  0  0  0  0  0  0
   19.9780   -6.5015  -13.3440 C   0  0  1  0  0  0  0  0  0  0  0  0
   20.8228   -5.5735  -14.1313 C   0  0  0  0  0  0  0  0  0  0  0  0
   21.2507   -4.3148  -13.4383 C   0  0  0  0  0  0  0  0  0  0  0  0
   21.9897   -3.4231  -14.3876 C   0  0  0  0  0  0  0  0  0  0  0  0
   21.5874   -2.2494  -14.5208 O   0  0  0  0  0  0  0  0  0  0  0  0
   18.7398   -5.8424  -12.8871 C   0  0  0  0  0  0  0  0  0  0  0  0
   17.8078   -5.6753  -13.7070 O   0  0  0  0  0  0  0  0  0  0  0  0
   23.0696   -3.8852  -15.0833 O   0  0  0  0  0  0  0  0  0  0  0  0
   18.5295   -5.3831  -11.5811 N   0  0  0  0  0  0  0  0  0  0  0  0
   17.2823   -4.6933  -11.2641 C   0  0  1  0  0  0  0  0  0  0  0  0
   16.8819   -4.9018   -9.8447 C   0  0  0  0  0  0  0  0  0  0  0  0
   16.2444   -6.2150   -9.6728 C   0  0  0  0  0  0  0  0  0  0  0  0
   15.9128   -7.0798  -10.7220 C   0  0  0  0  0  0  0  0  0  0  0  0
   15.3492   -8.1879  -10.2221 N   0  0  0  0  0  0  0  0  0  0  0  0
   15.3065   -8.0675   -8.8911 C   0  0  0  0  0  0  0  0  0  0  0  0
   15.8541   -6.8621   -8.5655 N   0  0  0  0  0  0  0  0  0  0  0  0
   17.4062   -3.2481  -11.5507 C   0  0  0  0  0  0  0  0  0  0  0  0
   18.4644   -2.7624  -11.9650 O   0  0  0  0  0  0  0  0  0  0  0  0
   16.2839   -2.4222  -11.3413 O   0  0  0  0  0  0  0  0  0  0  0  0
  1  2  1  0
  1  5  1  0
  2  3  1  0
  3  4  1  0
  5  4  1  0
  5  6  1  1
  6  7  2  0
  8  6  1  0
  9  8  1  0
  9 10  1  6
 11 10  1  0
 12 11  1  0
 12 13  2  0
 14  9  1  0
 15 14  2  0
 16 12  1  0
 17 14  1  0
 18 25  1  0
 18 17  1  0
 19 20  1  0
 18 19  1  1
 20 21  2  0
 22 21  1  0
 23 22  1  0
 24 23  2  0
 24 20  1  0
 25 27  1  0
 26 25  2  0
M  END
$$$$
