GGL.pdb
     RDKit          3D

 17 16  0  0  1  0  0  0  0  0999 V2000
   26.7817  -18.7836  -18.1961 N   0  0  0  0  0  0  0  0  0  0  0  0
   26.0112  -19.8112  -18.8612 C   0  0  0  0  0  0  0  0  0  0  0  0
   24.6968  -19.9265  -18.1745 C   0  0  0  0  0  0  0  0  0  0  0  0
   23.8138  -20.7192  -18.5776 O   0  0  0  0  0  0  0  0  0  0  0  0
   24.4051  -19.1227  -17.0197 N   0  0  0  0  0  0  0  0  0  0  0  0
   23.1801  -19.3062  -16.3073 C   0  0  0  0  0  0  0  0  0  0  0  0
   23.4281  -20.1695  -15.1245 C   0  0  0  0  0  0  0  0  0  0  0  0
   23.6734  -21.3862  -15.2631 O   0  0  0  0  0  0  0  0  0  0  0  0
   24.3070  -20.9106   -9.6517 C   0  0  0  0  0  0  0  0  0  0  0  0
   25.3722  -20.8123  -10.7371 C   0  0  1  0  0  0  0  0  0  0  0  0
   25.8080  -22.1485  -11.2532 C   0  0  0  0  0  0  0  0  0  0  0  0
   24.8595  -19.9175  -11.8271 C   0  0  0  0  0  0  0  0  0  0  0  0
   23.8010  -20.4967  -12.6883 C   0  0  2  0  0  0  0  0  0  0  0  0
   23.4004  -19.6667  -13.7931 N   0  0  0  0  0  0  0  0  0  0  0  0
   22.5929  -20.9120  -11.8789 C   0  0  0  0  0  0  0  0  0  0  0  0
   22.4099  -22.2169  -11.4458 O   0  0  0  0  0  0  0  0  0  0  0  0
   21.7056  -20.0784  -11.5690 O   0  0  0  0  0  0  0  0  0  0  0  0
  1  2  1  0
  3  5  1  0
  3  2  1  0
  4  3  2  0
  6  5  1  0
  7  6  1  0
  7  8  2  0
 10  9  1  1
 10 12  1  0
 11 10  1  0
 13 12  1  1
 13 14  1  0
 13 15  1  0
 14  7  1  0
 15 16  1  0
 17 15  2  0
M  END
$$$$
