GGL.pdb
     RDKit          3D

 17 16  0  0  1  0  0  0  0  0999 V2000
   26.5648  -23.1509  -17.1697 N   0  0  0  0  0  0  0  0  0  0  0  0
   25.6959  -21.9989  -17.0713 C   0  0  0  0  0  0  0  0  0  0  0  0
   26.0645  -21.2399  -15.8463 C   0  0  0  0  0  0  0  0  0  0  0  0
   25.5779  -20.1108  -15.6033 O   0  0  0  0  0  0  0  0  0  0  0  0
   26.9977  -21.7896  -14.9019 N   0  0  0  0  0  0  0  0  0  0  0  0
   27.2933  -21.0882  -13.6925 C   0  0  0  0  0  0  0  0  0  0  0  0
   26.2652  -21.4188  -12.6730 C   0  0  0  0  0  0  0  0  0  0  0  0
   25.7122  -22.5385  -12.6646 O   0  0  0  0  0  0  0  0  0  0  0  0
   26.5232  -19.4297   -7.6074 C   0  0  0  0  0  0  0  0  0  0  0  0
   26.3179  -20.4925   -8.6801 C   0  0  1  0  0  0  0  0  0  0  0  0
   26.4020  -21.8885   -8.1456 C   0  0  0  0  0  0  0  0  0  0  0  0
   25.0148  -20.2229   -9.3735 C   0  0  0  0  0  0  0  0  0  0  0  0
   24.8542  -20.8532  -10.7056 C   0  0  2  0  0  0  0  0  0  0  0  0
   25.8615  -20.4947  -11.6683 N   0  0  0  0  0  0  0  0  0  0  0  0
   23.4744  -20.6064  -11.2733 C   0  0  0  0  0  0  0  0  0  0  0  0
   22.3354  -21.1589  -10.7065 O   0  0  0  0  0  0  0  0  0  0  0  0
   23.3135  -19.8844  -12.2887 O   0  0  0  0  0  0  0  0  0  0  0  0
  1  2  1  0
  3  5  1  0
  3  2  1  0
  4  3  2  0
  6  5  1  0
  7  6  1  0
  7  8  2  0
 10  9  1  1
 10 12  1  0
 11 10  1  0
 13 12  1  1
 13 14  1  0
 13 15  1  0
 14  7  1  0
 15 16  1  0
 17 15  2  0
M  END
$$$$
