GGL.pdb
     RDKit          3D

 17 16  0  0  1  0  0  0  0  0999 V2000
   24.3886  -19.6776  -17.3293 N   0  0  0  0  0  0  0  0  0  0  0  0
   24.9048  -19.1589  -16.0819 C   0  0  0  0  0  0  0  0  0  0  0  0
   25.6439  -20.2506  -15.3930 C   0  0  0  0  0  0  0  0  0  0  0  0
   25.3857  -21.4572  -15.6123 O   0  0  0  0  0  0  0  0  0  0  0  0
   26.6832  -19.9441  -14.4492 N   0  0  0  0  0  0  0  0  0  0  0  0
   27.3054  -20.9902  -13.7006 C   0  0  0  0  0  0  0  0  0  0  0  0
   26.4171  -21.3802  -12.5761 C   0  0  0  0  0  0  0  0  0  0  0  0
   26.1421  -22.5804  -12.3673 O   0  0  0  0  0  0  0  0  0  0  0  0
   26.4871  -19.3697   -7.6153 C   0  0  0  0  0  0  0  0  0  0  0  0
   26.2945  -20.4459   -8.6770 C   0  0  1  0  0  0  0  0  0  0  0  0
   26.3700  -21.8350   -8.1237 C   0  0  0  0  0  0  0  0  0  0  0  0
   25.0010  -20.1838   -9.3908 C   0  0  0  0  0  0  0  0  0  0  0  0
   24.8594  -20.8262  -10.7192 C   0  0  2  0  0  0  0  0  0  0  0  0
   25.8414  -20.4253  -11.6913 N   0  0  0  0  0  0  0  0  0  0  0  0
   23.4652  -20.6461  -11.2767 C   0  0  0  0  0  0  0  0  0  0  0  0
   22.3390  -21.0945  -10.6026 O   0  0  0  0  0  0  0  0  0  0  0  0
   23.2800  -20.0776  -12.3815 O   0  0  0  0  0  0  0  0  0  0  0  0
  1  2  1  0
  3  5  1  0
  3  2  1  0
  4  3  2  0
  6  5  1  0
  7  6  1  0
  7  8  2  0
 10  9  1  1
 10 12  1  0
 11 10  1  0
 13 12  1  1
 13 14  1  0
 13 15  1  0
 14  7  1  0
 15 16  1  0
 17 15  2  0
M  END
$$$$
