GGL.pdb
     RDKit          3D

 17 16  0  0  1  0  0  0  0  0999 V2000
   18.2588   -7.9696  -20.2439 N   0  0  0  0  0  0  0  0  0  0  0  0
   17.7552   -7.1454  -19.1675 C   0  0  0  0  0  0  0  0  0  0  0  0
   17.7535   -7.9564  -17.9205 C   0  0  0  0  0  0  0  0  0  0  0  0
   17.7095   -9.2085  -17.9528 O   0  0  0  0  0  0  0  0  0  0  0  0
   17.8029   -7.3162  -16.6350 N   0  0  0  0  0  0  0  0  0  0  0  0
   17.6944   -8.0932  -15.4407 C   0  0  0  0  0  0  0  0  0  0  0  0
   19.0151   -8.1326  -14.7626 C   0  0  0  0  0  0  0  0  0  0  0  0
   19.1002   -8.4088  -13.5476 O   0  0  0  0  0  0  0  0  0  0  0  0
   23.6466   -9.9206  -13.6422 C   0  0  0  0  0  0  0  0  0  0  0  0
   23.8194   -9.0241  -14.8624 C   0  0  1  0  0  0  0  0  0  0  0  0
   24.8677   -9.5194  -15.8097 C   0  0  0  0  0  0  0  0  0  0  0  0
   22.4828   -8.8582  -15.5239 C   0  0  0  0  0  0  0  0  0  0  0  0
   21.4992   -8.0313  -14.7847 C   0  0  2  0  0  0  0  0  0  0  0  0
   20.2334   -7.8626  -15.4475 N   0  0  0  0  0  0  0  0  0  0  0  0
   22.0776   -6.6858  -14.4077 C   0  0  0  0  0  0  0  0  0  0  0  0
   22.6246   -6.4440  -13.1563 O   0  0  0  0  0  0  0  0  0  0  0  0
   22.0812   -5.7324  -15.2258 O   0  0  0  0  0  0  0  0  0  0  0  0
  1  2  1  0
  3  5  1  0
  3  2  1  0
  4  3  2  0
  6  5  1  0
  7  6  1  0
  7  8  2  0
 10  9  1  1
 10 12  1  0
 11 10  1  0
 13 12  1  6
 13 14  1  0
 13 15  1  0
 14  7  1  0
 15 16  1  0
 17 15  2  0
M  END
$$$$
