GGL.pdb
     RDKit          3D

 17 16  0  0  1  0  0  0  0  0999 V2000
   25.5889  -21.4991  -17.2950 N   0  0  0  0  0  0  0  0  0  0  0  0
   25.6789  -20.4349  -16.3198 C   0  0  0  0  0  0  0  0  0  0  0  0
   26.6413  -20.8498  -15.2642 C   0  0  0  0  0  0  0  0  0  0  0  0
   27.7397  -20.2657  -15.1121 O   0  0  0  0  0  0  0  0  0  0  0  0
   26.3308  -21.9423  -14.3840 N   0  0  0  0  0  0  0  0  0  0  0  0
   27.0000  -22.0651  -13.1274 C   0  0  0  0  0  0  0  0  0  0  0  0
   26.0048  -21.9482  -12.0312 C   0  0  0  0  0  0  0  0  0  0  0  0
   25.0727  -22.7725  -11.9255 O   0  0  0  0  0  0  0  0  0  0  0  0
   26.8440  -19.1837   -7.1526 C   0  0  0  0  0  0  0  0  0  0  0  0
   26.4200  -20.3403   -8.0497 C   0  0  1  0  0  0  0  0  0  0  0  0
   26.0314  -21.5654   -7.2819 C   0  0  0  0  0  0  0  0  0  0  0  0
   25.3244  -19.8619   -8.9566 C   0  0  0  0  0  0  0  0  0  0  0  0
   25.0004  -20.7523  -10.0967 C   0  0  2  0  0  0  0  0  0  0  0  0
   26.0581  -20.9096  -11.0592 N   0  0  0  0  0  0  0  0  0  0  0  0
   23.7226  -20.3285  -10.7857 C   0  0  0  0  0  0  0  0  0  0  0  0
   22.4721  -20.6119  -10.2570 O   0  0  0  0  0  0  0  0  0  0  0  0
   23.7532  -19.6986  -11.8722 O   0  0  0  0  0  0  0  0  0  0  0  0
  1  2  1  0
  3  5  1  0
  3  2  1  0
  4  3  2  0
  6  5  1  0
  7  6  1  0
  7  8  2  0
 10  9  1  1
 10 12  1  0
 11 10  1  0
 13 12  1  1
 13 14  1  0
 13 15  1  0
 14  7  1  0
 15 16  1  0
 17 15  2  0
M  END
$$$$
