GGL.pdb
     RDKit          3D

 17 16  0  0  1  0  0  0  0  0999 V2000
   22.2290  -21.4347  -13.4152 N   0  0  0  0  0  0  0  0  0  0  0  0
   23.3981  -20.7373  -12.9267 C   0  0  0  0  0  0  0  0  0  0  0  0
   23.3447  -20.7215  -11.4402 C   0  0  0  0  0  0  0  0  0  0  0  0
   22.2599  -20.6009  -10.8244 O   0  0  0  0  0  0  0  0  0  0  0  0
   24.5493  -20.8457  -10.6667 N   0  0  0  0  0  0  0  0  0  0  0  0
   24.5450  -20.5258   -9.2740 C   0  0  0  0  0  0  0  0  0  0  0  0
   25.8832  -20.0105   -8.8876 C   0  0  0  0  0  0  0  0  0  0  0  0
   26.2570  -18.8741   -9.2463 O   0  0  0  0  0  0  0  0  0  0  0  0
   28.4082  -20.0865   -4.0599 C   0  0  0  0  0  0  0  0  0  0  0  0
   27.9063  -19.6548   -5.4325 C   0  0  1  0  0  0  0  0  0  0  0  0
   28.0361  -18.1819   -5.6673 C   0  0  0  0  0  0  0  0  0  0  0  0
   28.6179  -20.4653   -6.4757 C   0  0  0  0  0  0  0  0  0  0  0  0
   28.1322  -20.2912   -7.8654 C   0  0  2  0  0  0  0  0  0  0  0  0
   26.7960  -20.7695   -8.1021 N   0  0  0  0  0  0  0  0  0  0  0  0
   29.0906  -20.8945   -8.8677 C   0  0  0  0  0  0  0  0  0  0  0  0
   28.7395  -21.9740   -9.6646 O   0  0  0  0  0  0  0  0  0  0  0  0
   30.2495  -20.4318   -9.0124 O   0  0  0  0  0  0  0  0  0  0  0  0
  1  2  1  0
  3  5  1  0
  3  2  1  0
  4  3  2  0
  6  5  1  0
  7  6  1  0
  7  8  2  0
 10  9  1  1
 10 12  1  0
 11 10  1  0
 13 12  1  1
 13 14  1  0
 13 15  1  0
 14  7  1  0
 15 16  1  0
 17 15  2  0
M  END
$$$$
