GGL.pdb
     RDKit          3D

 17 16  0  0  1  0  0  0  0  0999 V2000
   22.7081  -21.2007  -13.9897 N   0  0  0  0  0  0  0  0  0  0  0  0
   22.7462  -20.1253  -13.0235 C   0  0  0  0  0  0  0  0  0  0  0  0
   23.0709  -20.7051  -11.6927 C   0  0  0  0  0  0  0  0  0  0  0  0
   22.3284  -21.5560  -11.1494 O   0  0  0  0  0  0  0  0  0  0  0  0
   24.2571  -20.2988  -10.9908 N   0  0  0  0  0  0  0  0  0  0  0  0
   24.5222  -20.7983   -9.6786 C   0  0  0  0  0  0  0  0  0  0  0  0
   25.8538  -20.3153   -9.2323 C   0  0  0  0  0  0  0  0  0  0  0  0
   26.4012  -19.3439   -9.7949 O   0  0  0  0  0  0  0  0  0  0  0  0
   27.4698  -18.6534   -5.7295 C   0  0  0  0  0  0  0  0  0  0  0  0
   28.6579  -19.6037   -5.6423 C   0  0  1  0  0  0  0  0  0  0  0  0
   29.0203  -19.9612   -4.2343 C   0  0  0  0  0  0  0  0  0  0  0  0
   28.3631  -20.8121   -6.4816 C   0  0  0  0  0  0  0  0  0  0  0  0
   27.9215  -20.5372   -7.8698 C   0  0  2  0  0  0  0  0  0  0  0  0
   26.5657  -20.9217   -8.1592 N   0  0  0  0  0  0  0  0  0  0  0  0
   28.8666  -21.1436   -8.8828 C   0  0  0  0  0  0  0  0  0  0  0  0
   29.9959  -20.4737   -9.3295 O   0  0  0  0  0  0  0  0  0  0  0  0
   28.6565  -22.2874   -9.3580 O   0  0  0  0  0  0  0  0  0  0  0  0
  1  2  1  0
  3  5  1  0
  3  2  1  0
  4  3  2  0
  6  5  1  0
  7  6  1  0
  7  8  2  0
 10  9  1  1
 10 12  1  0
 11 10  1  0
 13 12  1  1
 13 14  1  0
 13 15  1  0
 14  7  1  0
 15 16  1  0
 17 15  2  0
M  END
$$$$
