GGL.pdb
     RDKit          3D

 17 16  0  0  1  0  0  0  0  0999 V2000
   20.4439  -21.4963  -14.4850 N   0  0  0  0  0  0  0  0  0  0  0  0
   21.8615  -21.3482  -14.2395 C   0  0  0  0  0  0  0  0  0  0  0  0
   22.0821  -21.3429  -12.7685 C   0  0  0  0  0  0  0  0  0  0  0  0
   22.0096  -22.3946  -12.0908 O   0  0  0  0  0  0  0  0  0  0  0  0
   22.3870  -20.1179  -12.0820 N   0  0  0  0  0  0  0  0  0  0  0  0
   22.7659  -20.1414  -10.7044 C   0  0  0  0  0  0  0  0  0  0  0  0
   24.2367  -19.9637  -10.5998 C   0  0  0  0  0  0  0  0  0  0  0  0
   24.7328  -19.2806   -9.6795 O   0  0  0  0  0  0  0  0  0  0  0  0
   29.3605  -21.7575  -11.1473 C   0  0  0  0  0  0  0  0  0  0  0  0
   28.5982  -21.1004  -10.0030 C   0  0  1  0  0  0  0  0  0  0  0  0
   28.9846  -19.6702   -9.7864 C   0  0  0  0  0  0  0  0  0  0  0  0
   27.1281  -21.2640  -10.2550 C   0  0  0  0  0  0  0  0  0  0  0  0
   26.5654  -20.4241  -11.3392 C   0  0  2  0  0  0  0  0  0  0  0  0
   25.1444  -20.5513  -11.5256 N   0  0  0  0  0  0  0  0  0  0  0  0
   27.2886  -20.6501  -12.6480 C   0  0  0  0  0  0  0  0  0  0  0  0
   28.3022  -19.8097  -13.0839 O   0  0  0  0  0  0  0  0  0  0  0  0
   26.9910  -21.6180  -13.3914 O   0  0  0  0  0  0  0  0  0  0  0  0
  1  2  1  0
  3  5  1  0
  3  2  1  0
  4  3  2  0
  6  5  1  0
  7  6  1  0
  7  8  2  0
 10  9  1  6
 10 12  1  0
 11 10  1  0
 13 12  1  1
 13 14  1  0
 13 15  1  0
 14  7  1  0
 15 16  1  0
 17 15  2  0
M  END
$$$$
