VQN.pdb
     RDKit          3D

 25 24  0  0  1  0  0  0  0  0999 V2000
    7.8298  -13.4220   17.0797 C   0  0  0  0  0  0  0  0  0  0  0  0
    8.2770  -13.3164   18.5357 C   0  0  1  0  0  0  0  0  0  0  0  0
    7.3387  -12.4543   19.3329 C   0  0  0  0  0  0  0  0  0  0  0  0
    8.3707  -14.6785   19.1760 C   0  0  2  0  0  0  0  0  0  0  0  0
    7.8301  -14.6215   20.4946 N   0  0  0  0  0  0  0  0  0  0  0  0
    9.8171  -15.0720   19.1723 C   0  0  0  0  0  0  0  0  0  0  0  0
   10.3301  -15.5354   18.1226 O   0  0  0  0  0  0  0  0  0  0  0  0
   13.8641  -14.0777   17.7941 N   0  0  0  0  0  0  0  0  0  0  0  0
   14.7065  -14.4150   18.8809 C   0  0  0  0  0  0  0  0  0  0  0  0
   15.8996  -14.7674   18.6499 O   0  0  0  0  0  0  0  0  0  0  0  0
   14.2592  -14.3772   20.2938 C   0  0  0  0  0  0  0  0  0  0  0  0
   12.8071  -13.9777   20.3508 C   0  0  0  0  0  0  0  0  0  0  0  0
   11.9231  -15.2068   20.4569 C   0  0  2  0  0  0  0  0  0  0  0  0
   10.5344  -14.8936   20.3812 N   0  0  0  0  0  0  0  0  0  0  0  0
   12.2247  -15.8580   21.7704 C   0  0  0  0  0  0  0  0  0  0  0  0
   11.6885  -15.4827   22.8409 O   0  0  0  0  0  0  0  0  0  0  0  0
   11.1168  -20.6177   24.0673 N   0  0  0  0  0  0  0  0  0  0  0  0
   11.6446  -19.3185   24.2536 C   0  0  0  0  0  0  0  0  0  0  0  0
   12.0104  -18.9497   25.3953 O   0  0  0  0  0  0  0  0  0  0  0  0
   11.7622  -18.4094   23.1146 C   0  0  0  0  0  0  0  0  0  0  0  0
   13.1486  -17.7538   23.0431 C   0  0  2  0  0  0  0  0  0  0  0  0
   13.1410  -16.9363   21.8463 N   0  0  0  0  0  0  0  0  0  0  0  0
   14.1611  -18.8224   22.9842 C   0  0  0  0  0  0  0  0  0  0  0  0
   14.3085  -19.4509   21.9119 O   0  0  0  0  0  0  0  0  0  0  0  0
   14.9537  -19.1581   24.0630 O   0  0  0  0  0  0  0  0  0  0  0  0
  2  1  1  6
  2  3  1  0
  4  6  1  0
  4  2  1  0
  4  5  1  1
  6  7  2  0
  9  8  1  0
 10  9  2  0
 11  9  1  0
 12 11  1  0
 13 12  1  1
 14 13  1  0
 14  6  1  0
 15 13  1  0
 16 15  2  0
 18 17  1  0
 18 19  2  0
 20 18  1  0
 21 20  1  6
 21 22  1  0
 22 15  1  0
 23 21  1  0
 23 25  1  0
 24 23  2  0
M  END
$$$$
