VQN.pdb
     RDKit          3D

 25 24  0  0  1  0  0  0  0  0999 V2000
    8.4668  -13.0477   21.3471 C   0  0  0  0  0  0  0  0  0  0  0  0
    7.6192  -13.6390   20.2233 C   0  0  1  0  0  0  0  0  0  0  0  0
    8.0953  -13.1702   18.8770 C   0  0  0  0  0  0  0  0  0  0  0  0
    7.6381  -15.1464   20.2634 C   0  0  2  0  0  0  0  0  0  0  0  0
    6.8944  -15.6600   19.1601 N   0  0  0  0  0  0  0  0  0  0  0  0
    7.0581  -15.5624   21.5816 C   0  0  0  0  0  0  0  0  0  0  0  0
    5.8443  -15.3412   21.8215 O   0  0  0  0  0  0  0  0  0  0  0  0
    7.5338  -20.8381   24.4801 N   0  0  0  0  0  0  0  0  0  0  0  0
    6.8698  -19.9857   25.3951 C   0  0  0  0  0  0  0  0  0  0  0  0
    6.2688  -20.4936   26.3860 O   0  0  0  0  0  0  0  0  0  0  0  0
    6.8404  -18.5105   25.2519 C   0  0  0  0  0  0  0  0  0  0  0  0
    7.4805  -18.1194   23.9448 C   0  0  0  0  0  0  0  0  0  0  0  0
    7.4707  -16.6107   23.7804 C   0  0  2  0  0  0  0  0  0  0  0  0
    7.9346  -16.1942   22.4983 N   0  0  0  0  0  0  0  0  0  0  0  0
    8.3530  -16.0425   24.8476 C   0  0  0  0  0  0  0  0  0  0  0  0
    9.6047  -16.0744   24.7666 O   0  0  0  0  0  0  0  0  0  0  0  0
    5.9716  -12.3563   26.9832 N   0  0  0  0  0  0  0  0  0  0  0  0
    7.3212  -12.7645   26.8686 C   0  0  0  0  0  0  0  0  0  0  0  0
    8.0679  -12.2245   26.0175 O   0  0  0  0  0  0  0  0  0  0  0  0
    7.8417  -13.8145   27.7425 C   0  0  0  0  0  0  0  0  0  0  0  0
    8.6856  -14.8390   26.9708 C   0  0  2  0  0  0  0  0  0  0  0  0
    7.7920  -15.4416   26.0018 N   0  0  0  0  0  0  0  0  0  0  0  0
    9.2114  -15.8220   27.9341 C   0  0  0  0  0  0  0  0  0  0  0  0
    9.9341  -15.4158   28.8718 O   0  0  0  0  0  0  0  0  0  0  0  0
    8.9392  -17.1720   27.8446 O   0  0  0  0  0  0  0  0  0  0  0  0
  2  1  1  1
  2  3  1  0
  4  6  1  0
  4  2  1  0
  4  5  1  6
  6  7  2  0
  9  8  1  0
 10  9  2  0
 11  9  1  0
 12 11  1  0
 13 12  1  6
 14 13  1  0
 14  6  1  0
 15 13  1  0
 16 15  2  0
 18 17  1  0
 18 19  2  0
 20 18  1  0
 21 20  1  1
 21 22  1  0
 22 15  1  0
 23 21  1  0
 23 25  1  0
 24 23  2  0
M  END
$$$$
