VQN.pdb
     RDKit          3D

 25 24  0  0  1  0  0  0  0  0999 V2000
    8.3463  -12.8223   21.8318 C   0  0  0  0  0  0  0  0  0  0  0  0
    7.8131  -13.3898   20.5185 C   0  0  1  0  0  0  0  0  0  0  0  0
    7.7420  -12.3296   19.4555 C   0  0  0  0  0  0  0  0  0  0  0  0
    8.6710  -14.5302   20.0309 C   0  0  2  0  0  0  0  0  0  0  0  0
    8.1693  -15.0013   18.7816 N   0  0  0  0  0  0  0  0  0  0  0  0
    8.6431  -15.5907   21.0898 C   0  0  0  0  0  0  0  0  0  0  0  0
    7.6527  -16.3603   21.1695 O   0  0  0  0  0  0  0  0  0  0  0  0
   12.0305  -19.9734   22.0003 N   0  0  0  0  0  0  0  0  0  0  0  0
   11.6356  -19.0894   20.9673 C   0  0  0  0  0  0  0  0  0  0  0  0
   12.1040  -19.2529   19.8033 O   0  0  0  0  0  0  0  0  0  0  0  0
   10.6902  -17.9674   21.1795 C   0  0  0  0  0  0  0  0  0  0  0  0
   10.2029  -17.9835   22.6056 C   0  0  0  0  0  0  0  0  0  0  0  0
    9.7859  -16.5901   23.0389 C   0  0  2  0  0  0  0  0  0  0  0  0
    9.7614  -15.6620   21.9571 N   0  0  0  0  0  0  0  0  0  0  0  0
   10.7666  -16.1356   24.0743 C   0  0  0  0  0  0  0  0  0  0  0  0
   11.4527  -15.0946   23.9332 O   0  0  0  0  0  0  0  0  0  0  0  0
   10.0771  -13.1647   27.9238 N   0  0  0  0  0  0  0  0  0  0  0  0
    9.8646  -14.5632   27.9404 C   0  0  0  0  0  0  0  0  0  0  0  0
    9.6855  -15.1559   29.0313 O   0  0  0  0  0  0  0  0  0  0  0  0
    9.8543  -15.3137   26.6857 C   0  0  0  0  0  0  0  0  0  0  0  0
   11.1236  -16.1596   26.5113 C   0  0  2  0  0  0  0  0  0  0  0  0
   10.9537  -16.8802   25.2654 N   0  0  0  0  0  0  0  0  0  0  0  0
   11.2378  -17.0633   27.6693 C   0  0  0  0  0  0  0  0  0  0  0  0
   10.4661  -18.0461   27.7417 O   0  0  0  0  0  0  0  0  0  0  0  0
   12.1612  -16.8706   28.6767 O   0  0  0  0  0  0  0  0  0  0  0  0
  2  1  1  1
  2  3  1  0
  4  6  1  0
  4  2  1  0
  4  5  1  6
  6  7  2  0
  9  8  1  0
 10  9  2  0
 11  9  1  0
 12 11  1  0
 13 12  1  6
 14 13  1  0
 14  6  1  0
 15 13  1  0
 16 15  2  0
 18 17  1  0
 18 19  2  0
 20 18  1  0
 21 20  1  1
 21 22  1  0
 22 15  1  0
 23 21  1  0
 23 25  1  0
 24 23  2  0
M  END
$$$$
