VQN.pdb
     RDKit          3D

 25 24  0  0  1  0  0  0  0  0999 V2000
    4.9450  -23.6147   19.1874 C   0  0  0  0  0  0  0  0  0  0  0  0
    4.2358  -23.4408   20.5282 C   0  0  1  0  0  0  0  0  0  0  0  0
    3.0475  -24.3545   20.6389 C   0  0  0  0  0  0  0  0  0  0  0  0
    5.1758  -23.7014   21.6783 C   0  0  2  0  0  0  0  0  0  0  0  0
    5.6335  -25.0510   21.6211 N   0  0  0  0  0  0  0  0  0  0  0  0
    4.4226  -23.4107   22.9414 C   0  0  0  0  0  0  0  0  0  0  0  0
    4.0544  -22.2342   23.1860 O   0  0  0  0  0  0  0  0  0  0  0  0
   -0.4687  -26.0253   25.1322 N   0  0  0  0  0  0  0  0  0  0  0  0
   -0.3182  -24.6230   25.0085 C   0  0  0  0  0  0  0  0  0  0  0  0
   -1.3514  -23.8944   24.9553 O   0  0  0  0  0  0  0  0  0  0  0  0
    1.0027  -23.9539   24.9366 C   0  0  0  0  0  0  0  0  0  0  0  0
    2.0955  -24.9883   25.0213 C   0  0  0  0  0  0  0  0  0  0  0  0
    3.4583  -24.3203   25.0262 C   0  0  2  0  0  0  0  0  0  0  0  0
    4.1662  -24.5061   23.8029 N   0  0  0  0  0  0  0  0  0  0  0  0
    4.2384  -24.9125   26.1580 C   0  0  0  0  0  0  0  0  0  0  0  0
    4.8614  -25.9957   26.0453 O   0  0  0  0  0  0  0  0  0  0  0  0
    5.4994  -28.4802   29.4763 N   0  0  0  0  0  0  0  0  0  0  0  0
    5.3434  -27.0774   29.5717 C   0  0  0  0  0  0  0  0  0  0  0  0
    5.7830  -26.4660   30.5749 O   0  0  0  0  0  0  0  0  0  0  0  0
    4.6703  -26.3445   28.5007 C   0  0  0  0  0  0  0  0  0  0  0  0
    5.0763  -24.8641   28.4738 C   0  0  2  0  0  0  0  0  0  0  0  0
    4.2975  -24.2569   27.4130 N   0  0  0  0  0  0  0  0  0  0  0  0
    6.5252  -24.7882   28.2178 C   0  0  0  0  0  0  0  0  0  0  0  0
    7.3095  -25.2881   29.0555 O   0  0  0  0  0  0  0  0  0  0  0  0
    7.0526  -24.1891   27.0920 O   0  0  0  0  0  0  0  0  0  0  0  0
  2  1  1  6
  2  3  1  0
  4  6  1  0
  4  2  1  0
  4  5  1  1
  6  7  2  0
  9  8  1  0
 10  9  2  0
 11  9  1  0
 12 11  1  0
 13 12  1  6
 14 13  1  0
 14  6  1  0
 15 13  1  0
 16 15  2  0
 18 17  1  0
 18 19  2  0
 20 18  1  0
 21 20  1  6
 21 22  1  0
 22 15  1  0
 23 21  1  0
 23 25  1  0
 24 23  2  0
M  END
$$$$
