VQN.pdb
     RDKit          3D

 25 24  0  0  1  0  0  0  0  0999 V2000
    9.4597  -12.3601   20.2157 C   0  0  0  0  0  0  0  0  0  0  0  0
    8.4902  -13.3977   19.6549 C   0  0  1  0  0  0  0  0  0  0  0  0
    7.1617  -12.7785   19.3220 C   0  0  0  0  0  0  0  0  0  0  0  0
    9.0555  -14.0606   18.4240 C   0  0  2  0  0  0  0  0  0  0  0  0
    8.0780  -14.9359   17.8648 N   0  0  0  0  0  0  0  0  0  0  0  0
   10.2964  -14.7896   18.8430 C   0  0  0  0  0  0  0  0  0  0  0  0
   10.1988  -15.9272   19.3683 O   0  0  0  0  0  0  0  0  0  0  0  0
   16.1867  -13.1130   16.9139 N   0  0  0  0  0  0  0  0  0  0  0  0
   16.3356  -14.2788   17.7034 C   0  0  0  0  0  0  0  0  0  0  0  0
   17.4887  -14.7770   17.8557 O   0  0  0  0  0  0  0  0  0  0  0  0
   15.1976  -14.9561   18.3696 C   0  0  0  0  0  0  0  0  0  0  0  0
   13.9343  -14.1700   18.1293 C   0  0  0  0  0  0  0  0  0  0  0  0
   12.7669  -14.8065   18.8611 C   0  0  2  0  0  0  0  0  0  0  0  0
   11.5330  -14.1359   18.6162 N   0  0  0  0  0  0  0  0  0  0  0  0
   13.0844  -14.7655   20.3231 C   0  0  0  0  0  0  0  0  0  0  0  0
   13.1957  -13.6858   20.9526 O   0  0  0  0  0  0  0  0  0  0  0  0
   10.6305  -17.8628   22.3395 N   0  0  0  0  0  0  0  0  0  0  0  0
   11.4003  -16.9328   23.0768 C   0  0  0  0  0  0  0  0  0  0  0  0
   10.8328  -15.9954   23.6873 O   0  0  0  0  0  0  0  0  0  0  0  0
   12.8554  -17.0670   23.1250 C   0  0  0  0  0  0  0  0  0  0  0  0
   13.5649  -15.8734   22.4700 C   0  0  2  0  0  0  0  0  0  0  0  0
   13.2728  -15.9652   21.0534 N   0  0  0  0  0  0  0  0  0  0  0  0
   15.0067  -15.9830   22.7522 C   0  0  0  0  0  0  0  0  0  0  0  0
   15.7639  -16.4086   21.8509 O   0  0  0  0  0  0  0  0  0  0  0  0
   15.5563  -15.6350   23.9694 O   0  0  0  0  0  0  0  0  0  0  0  0
  2  1  1  6
  2  3  1  0
  4  6  1  0
  4  2  1  0
  4  5  1  1
  6  7  2  0
  9  8  1  0
 10  9  2  0
 11  9  1  0
 12 11  1  0
 13 12  1  6
 14 13  1  0
 14  6  1  0
 15 13  1  0
 16 15  2  0
 18 17  1  0
 18 19  2  0
 20 18  1  0
 21 20  1  1
 21 22  1  0
 22 15  1  0
 23 21  1  0
 23 25  1  0
 24 23  2  0
M  END
$$$$
