VQN.pdb
     RDKit          3D

 25 24  0  0  1  0  0  0  0  0999 V2000
    8.5299  -12.4754   25.7629 C   0  0  0  0  0  0  0  0  0  0  0  0
    7.2116  -12.8228   26.4503 C   0  0  1  0  0  0  0  0  0  0  0  0
    6.4914  -11.5845   26.9054 C   0  0  0  0  0  0  0  0  0  0  0  0
    6.3134  -13.6158   25.5347 C   0  0  2  0  0  0  0  0  0  0  0  0
    5.1196  -13.9696   26.2304 N   0  0  0  0  0  0  0  0  0  0  0  0
    7.0871  -14.8191   25.0872 C   0  0  0  0  0  0  0  0  0  0  0  0
    7.1035  -15.8482   25.8085 O   0  0  0  0  0  0  0  0  0  0  0  0
    6.3025  -17.5167   21.0439 N   0  0  0  0  0  0  0  0  0  0  0  0
    7.6129  -17.0588   20.7651 C   0  0  0  0  0  0  0  0  0  0  0  0
    8.4824  -17.8857   20.3634 O   0  0  0  0  0  0  0  0  0  0  0  0
    8.0261  -15.6437   20.9209 C   0  0  0  0  0  0  0  0  0  0  0  0
    9.1051  -15.5475   21.9688 C   0  0  0  0  0  0  0  0  0  0  0  0
    8.5303  -15.8163   23.3475 C   0  0  2  0  0  0  0  0  0  0  0  0
    7.7692  -14.7203   23.8491 N   0  0  0  0  0  0  0  0  0  0  0  0
    9.6823  -16.0938   24.2618 C   0  0  0  0  0  0  0  0  0  0  0  0
   10.4100  -15.1783   24.7164 O   0  0  0  0  0  0  0  0  0  0  0  0
   11.0404  -18.2767   29.2454 N   0  0  0  0  0  0  0  0  0  0  0  0
   11.2559  -18.6537   27.8990 C   0  0  0  0  0  0  0  0  0  0  0  0
   12.2578  -19.3449   27.5957 O   0  0  0  0  0  0  0  0  0  0  0  0
   10.3103  -18.2364   26.8651 C   0  0  0  0  0  0  0  0  0  0  0  0
   11.0209  -17.6285   25.6475 C   0  0  2  0  0  0  0  0  0  0  0  0
    9.9918  -17.4216   24.6482 N   0  0  0  0  0  0  0  0  0  0  0  0
   12.0555  -18.5759   25.1973 C   0  0  0  0  0  0  0  0  0  0  0  0
   13.1074  -18.6789   25.8677 O   0  0  0  0  0  0  0  0  0  0  0  0
   11.9116  -19.3547   24.0670 O   0  0  0  0  0  0  0  0  0  0  0  0
  2  1  1  6
  2  3  1  0
  4  6  1  0
  4  2  1  0
  4  5  1  1
  6  7  2  0
  9  8  1  0
 10  9  2  0
 11  9  1  0
 12 11  1  0
 13 12  1  6
 14 13  1  0
 14  6  1  0
 15 13  1  0
 16 15  2  0
 18 17  1  0
 18 19  2  0
 20 18  1  0
 21 20  1  1
 21 22  1  0
 22 15  1  0
 23 21  1  0
 23 25  1  0
 24 23  2  0
M  END
$$$$
