VQN.pdb
     RDKit          3D

 25 24  0  0  1  0  0  0  0  0999 V2000
    6.8927  -15.6140   19.7944 C   0  0  0  0  0  0  0  0  0  0  0  0
    7.7675  -14.6224   19.0311 C   0  0  1  0  0  0  0  0  0  0  0  0
    7.2380  -14.3829   17.6450 C   0  0  0  0  0  0  0  0  0  0  0  0
    7.8651  -13.3076   19.7633 C   0  0  2  0  0  0  0  0  0  0  0  0
    8.6562  -12.3976   19.0016 N   0  0  0  0  0  0  0  0  0  0  0  0
    8.4637  -13.5919   21.1078 C   0  0  0  0  0  0  0  0  0  0  0  0
    9.6905  -13.8502   21.1974 O   0  0  0  0  0  0  0  0  0  0  0  0
    5.4012  -12.6010   26.6864 N   0  0  0  0  0  0  0  0  0  0  0  0
    6.7247  -12.9931   27.0011 C   0  0  0  0  0  0  0  0  0  0  0  0
    7.1127  -12.9432   28.2044 O   0  0  0  0  0  0  0  0  0  0  0  0
    7.6930  -13.4648   25.9826 C   0  0  0  0  0  0  0  0  0  0  0  0
    7.0883  -13.3213   24.6096 C   0  0  0  0  0  0  0  0  0  0  0  0
    8.0858  -13.7393   23.5449 C   0  0  2  0  0  0  0  0  0  0  0  0
    7.5891  -13.5515   22.2219 N   0  0  0  0  0  0  0  0  0  0  0  0
    8.3940  -15.1866   23.7696 C   0  0  0  0  0  0  0  0  0  0  0  0
    7.8793  -16.0951   23.0740 O   0  0  0  0  0  0  0  0  0  0  0  0
    9.8765  -17.8468   21.2442 N   0  0  0  0  0  0  0  0  0  0  0  0
    9.9556  -18.1206   22.6299 C   0  0  0  0  0  0  0  0  0  0  0  0
    9.4979  -19.1975   23.0819 O   0  0  0  0  0  0  0  0  0  0  0  0
   10.5706  -17.1474   23.5311 C   0  0  0  0  0  0  0  0  0  0  0  0
    9.7517  -16.9557   24.8156 C   0  0  2  0  0  0  0  0  0  0  0  0
    9.2913  -15.5817   24.7928 N   0  0  0  0  0  0  0  0  0  0  0  0
   10.6286  -17.2329   25.9666 C   0  0  0  0  0  0  0  0  0  0  0  0
   11.0290  -18.4050   26.1473 O   0  0  0  0  0  0  0  0  0  0  0  0
   11.0267  -16.2530   26.8531 O   0  0  0  0  0  0  0  0  0  0  0  0
  2  1  1  1
  2  3  1  0
  4  6  1  0
  4  2  1  0
  4  5  1  6
  6  7  2  0
  9  8  1  0
 10  9  2  0
 11  9  1  0
 12 11  1  0
 13 12  1  1
 14 13  1  0
 14  6  1  0
 15 13  1  0
 16 15  2  0
 18 17  1  0
 18 19  2  0
 20 18  1  0
 21 20  1  6
 21 22  1  0
 22 15  1  0
 23 21  1  0
 23 25  1  0
 24 23  2  0
M  END
$$$$
