VQN.pdb
     RDKit          3D

 25 24  0  0  1  0  0  0  0  0999 V2000
    9.2116  -12.7012   20.4658 C   0  0  0  0  0  0  0  0  0  0  0  0
    8.3373  -13.6428   19.6411 C   0  0  1  0  0  0  0  0  0  0  0  0
    7.0859  -12.9544   19.1728 C   0  0  0  0  0  0  0  0  0  0  0  0
    9.0893  -14.1787   18.4489 C   0  0  2  0  0  0  0  0  0  0  0  0
    8.2089  -14.9612   17.6448 N   0  0  0  0  0  0  0  0  0  0  0  0
   10.2411  -14.9811   18.9750 C   0  0  0  0  0  0  0  0  0  0  0  0
   10.1263  -16.2274   19.0899 O   0  0  0  0  0  0  0  0  0  0  0  0
   16.6546  -14.0538   18.1730 N   0  0  0  0  0  0  0  0  0  0  0  0
   15.7350  -14.9818   17.6273 C   0  0  0  0  0  0  0  0  0  0  0  0
   16.1698  -16.0621   17.1325 O   0  0  0  0  0  0  0  0  0  0  0  0
   14.2707  -14.7520   17.6040 C   0  0  0  0  0  0  0  0  0  0  0  0
   13.8325  -14.1677   18.9223 C   0  0  0  0  0  0  0  0  0  0  0  0
   12.6584  -14.9484   19.4839 C   0  0  2  0  0  0  0  0  0  0  0  0
   11.4165  -14.2684   19.3190 N   0  0  0  0  0  0  0  0  0  0  0  0
   12.9270  -15.1669   20.9400 C   0  0  0  0  0  0  0  0  0  0  0  0
   13.3651  -14.2555   21.6827 O   0  0  0  0  0  0  0  0  0  0  0  0
   10.2208  -18.5866   22.2341 N   0  0  0  0  0  0  0  0  0  0  0  0
   10.8860  -17.8742   23.2593 C   0  0  0  0  0  0  0  0  0  0  0  0
   10.2236  -17.1980   24.0824 O   0  0  0  0  0  0  0  0  0  0  0  0
   12.3438  -17.9280   23.3564 C   0  0  0  0  0  0  0  0  0  0  0  0
   12.9970  -16.6022   22.9406 C   0  0  2  0  0  0  0  0  0  0  0  0
   12.6912  -16.4316   21.5343 N   0  0  0  0  0  0  0  0  0  0  0  0
   14.4455  -16.7042   23.1898 C   0  0  0  0  0  0  0  0  0  0  0  0
   15.1649  -17.2584   22.3285 O   0  0  0  0  0  0  0  0  0  0  0  0
   15.0411  -16.2132   24.3338 O   0  0  0  0  0  0  0  0  0  0  0  0
  2  1  1  6
  2  3  1  0
  4  6  1  0
  4  2  1  0
  4  5  1  1
  6  7  2  0
  9  8  1  0
 10  9  2  0
 11  9  1  0
 12 11  1  0
 13 12  1  1
 14 13  1  0
 14  6  1  0
 15 13  1  0
 16 15  2  0
 18 17  1  0
 18 19  2  0
 20 18  1  0
 21 20  1  6
 21 22  1  0
 22 15  1  0
 23 21  1  0
 23 25  1  0
 24 23  2  0
M  END
$$$$
