IFP.pdb
     RDKit          3D

 27 28  0  0  1  0  0  0  0  0999 V2000
   26.1687  -15.2562  -20.4681 C   0  0  0  0  0  0  0  0  0  0  0  0
   25.4266  -15.4814  -19.1891 C   0  0  0  0  0  0  0  0  0  0  0  0
   25.6465  -16.8630  -18.6107 C   0  0  2  0  0  0  0  0  0  0  0  0
   24.3303  -17.2593  -17.9378 C   0  0  0  0  0  0  0  0  0  0  0  0
   26.7223  -16.7482  -17.5684 C   0  0  2  0  0  0  0  0  0  0  0  0
   27.9898  -16.5870  -18.2111 N   0  0  0  0  0  0  0  0  0  0  0  0
   26.7143  -17.9313  -16.6415 C   0  0  0  0  0  0  0  0  0  0  0  0
   27.1565  -19.0343  -17.0323 O   0  0  0  0  0  0  0  0  0  0  0  0
   26.2146  -17.8290  -15.3254 N   0  0  0  0  0  0  0  0  0  0  0  0
   26.0474  -18.8717  -14.3506 C   0  0  1  0  0  0  0  0  0  0  0  0
   26.6544  -18.4821  -13.0254 C   0  0  0  0  0  0  0  0  0  0  0  0
   26.5255  -19.4952  -11.9588 C   0  0  0  0  0  0  0  0  0  0  0  0
   25.4974  -19.3750  -11.0575 C   0  0  0  0  0  0  0  0  0  0  0  0
   25.3158  -20.2862  -10.0214 C   0  0  0  0  0  0  0  0  0  0  0  0
   26.1872  -21.3403   -9.8899 C   0  0  0  0  0  0  0  0  0  0  0  0
   27.2325  -21.4690  -10.8000 C   0  0  0  0  0  0  0  0  0  0  0  0
   27.3906  -20.5480  -11.8219 C   0  0  0  0  0  0  0  0  0  0  0  0
   24.7123  -19.4559  -14.3023 C   0  0  0  0  0  0  0  0  0  0  0  0
   23.7316  -18.7679  -13.9602 O   0  0  0  0  0  0  0  0  0  0  0  0
   24.4298  -20.8446  -14.6450 N   0  0  0  0  0  0  0  0  0  0  0  0
   25.3828  -21.7982  -15.1708 C   0  0  0  0  0  0  0  0  0  0  0  0
   25.0047  -23.0398  -14.3520 C   0  0  0  0  0  0  0  0  0  0  0  0
   23.4819  -22.9888  -14.4437 C   0  0  0  0  0  0  0  0  0  0  0  0
   23.1742  -21.4903  -14.5166 C   0  0  1  0  0  0  0  0  0  0  0  0
   22.4161  -21.0989  -13.3099 C   0  0  0  0  0  0  0  0  0  0  0  0
   23.0584  -20.5063  -12.3803 O   0  0  0  0  0  0  0  0  0  0  0  0
   21.0841  -21.3200  -13.1167 O   0  0  0  0  0  0  0  0  0  0  0  0
  1  2  1  0
  3  2  1  0
  3  4  1  1
  5  3  1  0
  5  6  1  6
  7  8  2  0
  7  5  1  0
  9  7  1  0
 10  9  1  0
 11 12  1  0
 10 11  1  1
 12 13  2  0
 13 14  1  0
 15 14  2  0
 16 15  1  0
 17 12  1  0
 17 16  2  0
 18 10  1  0
 18 19  2  0
 20 18  1  0
 21 20  1  0
 22 21  1  0
 23 22  1  0
 23 24  1  0
 24 20  1  0
 25 27  1  0
 24 25  1  1
 26 25  2  0
M  END
$$$$
