IFP.pdb
     RDKit          3D

 27 28  0  0  1  0  0  0  0  0999 V2000
   24.2627  -14.5875  -17.3118 C   0  0  0  0  0  0  0  0  0  0  0  0
   24.1322  -15.2299  -15.9673 C   0  0  0  0  0  0  0  0  0  0  0  0
   25.0212  -16.4440  -15.8009 C   0  0  2  0  0  0  0  0  0  0  0  0
   24.6080  -17.4298  -16.8962 C   0  0  0  0  0  0  0  0  0  0  0  0
   24.7197  -17.0411  -14.4558 C   0  0  2  0  0  0  0  0  0  0  0  0
   24.9205  -16.0521  -13.4423 N   0  0  0  0  0  0  0  0  0  0  0  0
   25.5467  -18.2709  -14.2055 C   0  0  0  0  0  0  0  0  0  0  0  0
   26.7905  -18.1786  -14.1095 O   0  0  0  0  0  0  0  0  0  0  0  0
   24.9491  -19.5428  -14.0743 N   0  0  0  0  0  0  0  0  0  0  0  0
   25.5916  -20.8227  -13.9537 C   0  0  1  0  0  0  0  0  0  0  0  0
   25.0405  -21.6018  -12.7850 C   0  0  0  0  0  0  0  0  0  0  0  0
   25.3462  -21.0330  -11.4570 C   0  0  0  0  0  0  0  0  0  0  0  0
   24.3321  -20.4446  -10.7436 C   0  0  0  0  0  0  0  0  0  0  0  0
   24.5447  -19.8808   -9.4891 C   0  0  0  0  0  0  0  0  0  0  0  0
   25.8044  -19.9102   -8.9414 C   0  0  0  0  0  0  0  0  0  0  0  0
   26.8383  -20.5051   -9.6588 C   0  0  0  0  0  0  0  0  0  0  0  0
   26.5995  -21.0587  -10.9053 C   0  0  0  0  0  0  0  0  0  0  0  0
   25.7375  -21.5546  -15.2063 C   0  0  0  0  0  0  0  0  0  0  0  0
   24.7498  -22.0866  -15.7481 O   0  0  0  0  0  0  0  0  0  0  0  0
   27.0090  -21.7109  -15.9024 N   0  0  0  0  0  0  0  0  0  0  0  0
   28.2567  -21.0733  -15.5410 C   0  0  0  0  0  0  0  0  0  0  0  0
   29.2270  -22.2467  -15.7326 C   0  0  0  0  0  0  0  0  0  0  0  0
   28.7361  -22.8077  -17.0646 C   0  0  0  0  0  0  0  0  0  0  0  0
   27.2327  -22.5162  -17.0475 C   0  0  1  0  0  0  0  0  0  0  0  0
   26.4976  -23.7982  -17.0354 C   0  0  0  0  0  0  0  0  0  0  0  0
   25.9676  -24.1600  -15.9325 O   0  0  0  0  0  0  0  0  0  0  0  0
   26.3403  -24.6204  -18.1123 O   0  0  0  0  0  0  0  0  0  0  0  0
  1  2  1  0
  3  2  1  0
  3  4  1  6
  5  3  1  0
  5  6  1  1
  7  8  2  0
  7  5  1  0
  9  7  1  0
 10  9  1  0
 11 12  1  0
 10 11  1  1
 12 13  2  0
 13 14  1  0
 15 14  2  0
 16 15  1  0
 17 12  1  0
 17 16  2  0
 18 10  1  0
 18 19  2  0
 20 18  1  0
 21 20  1  0
 22 21  1  0
 23 22  1  0
 23 24  1  0
 24 20  1  0
 25 27  1  0
 24 25  1  1
 26 25  2  0
M  END
$$$$
