IFP.pdb
     RDKit          3D

 27 28  0  0  1  0  0  0  0  0999 V2000
   19.2243  -19.7672  -16.6490 C   0  0  0  0  0  0  0  0  0  0  0  0
   19.8076  -20.6419  -15.5851 C   0  0  0  0  0  0  0  0  0  0  0  0
   21.1165  -20.1157  -15.0357 C   0  0  2  0  0  0  0  0  0  0  0  0
   22.2235  -20.9003  -15.7436 C   0  0  0  0  0  0  0  0  0  0  0  0
   21.1464  -20.4300  -13.5669 C   0  0  2  0  0  0  0  0  0  0  0  0
   20.0679  -19.7534  -12.9154 N   0  0  0  0  0  0  0  0  0  0  0  0
   22.4745  -20.0759  -12.9588 C   0  0  0  0  0  0  0  0  0  0  0  0
   22.7955  -18.8755  -12.8144 O   0  0  0  0  0  0  0  0  0  0  0  0
   23.3801  -21.0748  -12.5413 N   0  0  0  0  0  0  0  0  0  0  0  0
   24.7380  -20.9192  -12.0971 C   0  0  1  0  0  0  0  0  0  0  0  0
   24.9576  -21.5959  -10.7665 C   0  0  0  0  0  0  0  0  0  0  0  0
   26.0969  -21.0766   -9.9836 C   0  0  0  0  0  0  0  0  0  0  0  0
   25.8663  -20.0834   -9.0650 C   0  0  0  0  0  0  0  0  0  0  0  0
   26.8904  -19.5392   -8.2956 C   0  0  0  0  0  0  0  0  0  0  0  0
   28.1733  -20.0047   -8.4544 C   0  0  0  0  0  0  0  0  0  0  0  0
   28.4153  -21.0118   -9.3842 C   0  0  0  0  0  0  0  0  0  0  0  0
   27.3780  -21.5358  -10.1371 C   0  0  0  0  0  0  0  0  0  0  0  0
   25.7482  -21.1631  -13.1199 C   0  0  0  0  0  0  0  0  0  0  0  0
   26.0144  -22.3247  -13.4833 O   0  0  0  0  0  0  0  0  0  0  0  0
   26.4972  -20.1002  -13.7793 N   0  0  0  0  0  0  0  0  0  0  0  0
   26.3849  -18.6850  -13.4988 C   0  0  0  0  0  0  0  0  0  0  0  0
   27.8663  -18.2849  -13.5227 C   0  0  0  0  0  0  0  0  0  0  0  0
   28.3415  -19.0259  -14.7697 C   0  0  0  0  0  0  0  0  0  0  0  0
   27.4616  -20.2789  -14.8030 C   0  0  1  0  0  0  0  0  0  0  0  0
   28.3184  -21.4694  -14.6223 C   0  0  0  0  0  0  0  0  0  0  0  0
   28.3984  -21.9616  -13.4478 O   0  0  0  0  0  0  0  0  0  0  0  0
   29.0258  -22.0822  -15.6144 O   0  0  0  0  0  0  0  0  0  0  0  0
  1  2  1  0
  3  2  1  0
  3  4  1  6
  5  3  1  0
  5  6  1  1
  7  8  2  0
  7  5  1  0
  9  7  1  0
 10  9  1  0
 11 12  1  0
 10 11  1  1
 12 13  2  0
 13 14  1  0
 15 14  2  0
 16 15  1  0
 17 12  1  0
 17 16  2  0
 18 10  1  0
 18 19  2  0
 20 18  1  0
 21 20  1  0
 22 21  1  0
 23 22  1  0
 23 24  1  0
 24 20  1  0
 25 27  1  0
 24 25  1  1
 26 25  2  0
M  END
$$$$
