IFP.pdb
     RDKit          3D

 27 28  0  0  1  0  0  0  0  0999 V2000
   24.3546  -19.7788  -13.3131 C   0  0  0  0  0  0  0  0  0  0  0  0
   25.1964  -20.8731  -12.7376 C   0  0  0  0  0  0  0  0  0  0  0  0
   26.2361  -20.3698  -11.7590 C   0  0  2  0  0  0  0  0  0  0  0  0
   27.5684  -20.9812  -12.1987 C   0  0  0  0  0  0  0  0  0  0  0  0
   25.8701  -20.9001  -10.4019 C   0  0  2  0  0  0  0  0  0  0  0  0
   24.6203  -20.3370   -9.9942 N   0  0  0  0  0  0  0  0  0  0  0  0
   26.9561  -20.6307   -9.3984 C   0  0  0  0  0  0  0  0  0  0  0  0
   28.1106  -21.0710   -9.5936 O   0  0  0  0  0  0  0  0  0  0  0  0
   26.7042  -19.8846   -8.2270 N   0  0  0  0  0  0  0  0  0  0  0  0
   27.5709  -19.6719   -7.1005 C   0  0  1  0  0  0  0  0  0  0  0  0
   27.2706  -18.3585   -6.4214 C   0  0  0  0  0  0  0  0  0  0  0  0
   28.1791  -18.0088   -5.3110 C   0  0  0  0  0  0  0  0  0  0  0  0
   27.8242  -18.3629   -4.0335 C   0  0  0  0  0  0  0  0  0  0  0  0
   28.6251  -18.0615   -2.9360 C   0  0  0  0  0  0  0  0  0  0  0  0
   29.8080  -17.3897   -3.1287 C   0  0  0  0  0  0  0  0  0  0  0  0
   30.1749  -17.0269   -4.4215 C   0  0  0  0  0  0  0  0  0  0  0  0
   29.3593  -17.3391   -5.4961 C   0  0  0  0  0  0  0  0  0  0  0  0
   27.7340  -20.8280   -6.2270 C   0  0  0  0  0  0  0  0  0  0  0  0
   26.7392  -21.4391   -5.7923 O   0  0  0  0  0  0  0  0  0  0  0  0
   29.0326  -21.3450   -5.8121 N   0  0  0  0  0  0  0  0  0  0  0  0
   30.3153  -20.9414   -6.3467 C   0  0  0  0  0  0  0  0  0  0  0  0
   31.1325  -20.8484   -5.0512 C   0  0  0  0  0  0  0  0  0  0  0  0
   30.6977  -22.1312   -4.3473 C   0  0  0  0  0  0  0  0  0  0  0  0
   29.2523  -22.3274   -4.8140 C   0  0  1  0  0  0  0  0  0  0  0  0
   28.3535  -22.2117   -3.6466 C   0  0  0  0  0  0  0  0  0  0  0  0
   27.6480  -21.1527   -3.5523 O   0  0  0  0  0  0  0  0  0  0  0  0
   28.2190  -23.1505   -2.6663 O   0  0  0  0  0  0  0  0  0  0  0  0
  1  2  1  0
  3  2  1  0
  3  4  1  6
  5  3  1  0
  5  6  1  1
  7  8  2  0
  7  5  1  0
  9  7  1  0
 10  9  1  0
 11 12  1  0
 10 11  1  1
 12 13  2  0
 13 14  1  0
 15 14  2  0
 16 15  1  0
 17 12  1  0
 17 16  2  0
 18 10  1  0
 18 19  2  0
 20 18  1  0
 21 20  1  0
 22 21  1  0
 23 22  1  0
 23 24  1  0
 24 20  1  0
 25 27  1  0
 24 25  1  1
 26 25  2  0
M  END
$$$$
