IFP.pdb
     RDKit          3D

 27 28  0  0  1  0  0  0  0  0999 V2000
   20.9643  -18.8829  -18.7025 C   0  0  0  0  0  0  0  0  0  0  0  0
   22.0250  -17.8344  -18.8168 C   0  0  0  0  0  0  0  0  0  0  0  0
   23.1488  -18.0158  -17.8188 C   0  0  2  0  0  0  0  0  0  0  0  0
   23.5073  -19.5034  -17.8444 C   0  0  0  0  0  0  0  0  0  0  0  0
   22.6086  -17.6583  -16.4633 C   0  0  2  0  0  0  0  0  0  0  0  0
   22.1439  -16.3058  -16.4799 N   0  0  0  0  0  0  0  0  0  0  0  0
   23.6358  -17.8811  -15.3891 C   0  0  0  0  0  0  0  0  0  0  0  0
   24.7228  -17.2632  -15.4260 O   0  0  0  0  0  0  0  0  0  0  0  0
   23.4030  -18.7806  -14.3265 N   0  0  0  0  0  0  0  0  0  0  0  0
   24.3301  -19.2461  -13.3318 C   0  0  1  0  0  0  0  0  0  0  0  0
   23.6799  -19.3203  -11.9723 C   0  0  0  0  0  0  0  0  0  0  0  0
   24.5762  -19.7354  -10.8746 C   0  0  0  0  0  0  0  0  0  0  0  0
   25.2648  -18.7686  -10.1856 C   0  0  0  0  0  0  0  0  0  0  0  0
   26.1327  -19.0831   -9.1442 C   0  0  0  0  0  0  0  0  0  0  0  0
   26.3110  -20.3983   -8.7890 C   0  0  0  0  0  0  0  0  0  0  0  0
   25.6163  -21.3847   -9.4830 C   0  0  0  0  0  0  0  0  0  0  0  0
   24.7587  -21.0444  -10.5155 C   0  0  0  0  0  0  0  0  0  0  0  0
   25.1267  -20.4005  -13.7304 C   0  0  0  0  0  0  0  0  0  0  0  0
   24.5917  -21.5136  -13.8937 O   0  0  0  0  0  0  0  0  0  0  0  0
   26.5643  -20.3421  -13.9663 N   0  0  0  0  0  0  0  0  0  0  0  0
   27.3976  -19.1666  -13.8333 C   0  0  0  0  0  0  0  0  0  0  0  0
   28.6167  -19.7761  -13.1280 C   0  0  0  0  0  0  0  0  0  0  0  0
   28.8069  -21.0539  -13.9411 C   0  0  0  0  0  0  0  0  0  0  0  0
   27.3833  -21.4293  -14.3627 C   0  0  1  0  0  0  0  0  0  0  0  0
   27.0222  -22.7165  -13.7327 C   0  0  0  0  0  0  0  0  0  0  0  0
   27.5314  -23.7757  -14.2294 O   0  0  0  0  0  0  0  0  0  0  0  0
   26.1903  -22.8571  -12.6611 O   0  0  0  0  0  0  0  0  0  0  0  0
  1  2  1  0
  3  2  1  0
  3  4  1  1
  5  3  1  0
  5  6  1  6
  7  8  2  0
  7  5  1  0
  9  7  1  0
 10  9  1  0
 11 12  1  0
 10 11  1  1
 12 13  2  0
 13 14  1  0
 15 14  2  0
 16 15  1  0
 17 12  1  0
 17 16  2  0
 18 10  1  0
 18 19  2  0
 20 18  1  0
 21 20  1  0
 22 21  1  0
 23 22  1  0
 23 24  1  0
 24 20  1  0
 25 27  1  0
 24 25  1  1
 26 25  2  0
M  END
$$$$
