IFP.pdb
     RDKit          3D

 27 28  0  0  1  0  0  0  0  0999 V2000
   21.6717  -22.4625  -16.5219 C   0  0  0  0  0  0  0  0  0  0  0  0
   21.4467  -22.0374  -15.1056 C   0  0  0  0  0  0  0  0  0  0  0  0
   22.6314  -21.3069  -14.5099 C   0  0  2  0  0  0  0  0  0  0  0  0
   23.7972  -22.2981  -14.5262 C   0  0  0  0  0  0  0  0  0  0  0  0
   22.2840  -20.9720  -13.0872 C   0  0  2  0  0  0  0  0  0  0  0  0
   21.1357  -20.1197  -13.0676 N   0  0  0  0  0  0  0  0  0  0  0  0
   23.4506  -20.3513  -12.3710 C   0  0  0  0  0  0  0  0  0  0  0  0
   23.8720  -19.2267  -12.7209 O   0  0  0  0  0  0  0  0  0  0  0  0
   24.0908  -21.0125  -11.3009 N   0  0  0  0  0  0  0  0  0  0  0  0
   25.3063  -20.6485  -10.6260 C   0  0  1  0  0  0  0  0  0  0  0  0
   25.1198  -20.6479   -9.1287 C   0  0  0  0  0  0  0  0  0  0  0  0
   26.2596  -20.1105   -8.3588 C   0  0  0  0  0  0  0  0  0  0  0  0
   27.1719  -20.9905   -7.8324 C   0  0  0  0  0  0  0  0  0  0  0  0
   28.2672  -20.5597   -7.0899 C   0  0  0  0  0  0  0  0  0  0  0  0
   28.4479  -19.2151   -6.8728 C   0  0  0  0  0  0  0  0  0  0  0  0
   27.5270  -18.3163   -7.4033 C   0  0  0  0  0  0  0  0  0  0  0  0
   26.4456  -18.7717   -8.1385 C   0  0  0  0  0  0  0  0  0  0  0  0
   26.5057  -21.3092  -11.1269 C   0  0  0  0  0  0  0  0  0  0  0  0
   26.8409  -22.4280  -10.6933 O   0  0  0  0  0  0  0  0  0  0  0  0
   27.3750  -20.7324  -12.1455 N   0  0  0  0  0  0  0  0  0  0  0  0
   27.1422  -19.4929  -12.8551 C   0  0  0  0  0  0  0  0  0  0  0  0
   28.5564  -18.8975  -12.8332 C   0  0  0  0  0  0  0  0  0  0  0  0
   29.3875  -20.1237  -13.2019 C   0  0  0  0  0  0  0  0  0  0  0  0
   28.5939  -21.2904  -12.6067 C   0  0  1  0  0  0  0  0  0  0  0  0
   29.4036  -21.9278  -11.5473 C   0  0  0  0  0  0  0  0  0  0  0  0
   29.0964  -21.6661  -10.3369 O   0  0  0  0  0  0  0  0  0  0  0  0
   30.4498  -22.7753  -11.7651 O   0  0  0  0  0  0  0  0  0  0  0  0
  1  2  1  0
  3  2  1  0
  3  4  1  1
  5  3  1  0
  5  6  1  6
  7  8  2  0
  7  5  1  0
  9  7  1  0
 10  9  1  0
 11 12  1  0
 10 11  1  1
 12 13  2  0
 13 14  1  0
 15 14  2  0
 16 15  1  0
 17 12  1  0
 17 16  2  0
 18 10  1  0
 18 19  2  0
 20 18  1  0
 21 20  1  0
 22 21  1  0
 23 22  1  0
 23 24  1  0
 24 20  1  0
 25 27  1  0
 24 25  1  1
 26 25  2  0
M  END
$$$$
