IFP.pdb
     RDKit          3D

 27 28  0  0  1  0  0  0  0  0999 V2000
   23.8501  -15.4641  -19.7828 C   0  0  0  0  0  0  0  0  0  0  0  0
   24.9690  -14.6893  -19.1624 C   0  0  0  0  0  0  0  0  0  0  0  0
   25.7275  -15.4772  -18.1155 C   0  0  2  0  0  0  0  0  0  0  0  0
   26.1070  -16.8063  -18.7724 C   0  0  0  0  0  0  0  0  0  0  0  0
   24.7828  -15.7378  -16.9769 C   0  0  2  0  0  0  0  0  0  0  0  0
   24.3224  -14.4912  -16.4481 N   0  0  0  0  0  0  0  0  0  0  0  0
   25.4247  -16.5890  -15.9175 C   0  0  0  0  0  0  0  0  0  0  0  0
   26.6709  -16.6231  -15.8134 O   0  0  0  0  0  0  0  0  0  0  0  0
   24.6486  -17.3605  -15.0260 N   0  0  0  0  0  0  0  0  0  0  0  0
   25.0929  -18.3453  -14.0783 C   0  0  1  0  0  0  0  0  0  0  0  0
   24.1873  -18.3894  -12.8723 C   0  0  0  0  0  0  0  0  0  0  0  0
   24.6223  -19.3061  -11.7994 C   0  0  0  0  0  0  0  0  0  0  0  0
   25.4565  -18.8259  -10.8211 C   0  0  0  0  0  0  0  0  0  0  0  0
   25.9140  -19.6312   -9.7824 C   0  0  0  0  0  0  0  0  0  0  0  0
   25.5235  -20.9473   -9.7274 C   0  0  0  0  0  0  0  0  0  0  0  0
   24.6776  -21.4419  -10.7159 C   0  0  0  0  0  0  0  0  0  0  0  0
   24.2370  -20.6189  -11.7387 C   0  0  0  0  0  0  0  0  0  0  0  0
   25.4581  -19.6321  -14.6588 C   0  0  0  0  0  0  0  0  0  0  0  0
   24.6025  -20.3359  -15.2286 O   0  0  0  0  0  0  0  0  0  0  0  0
   26.8108  -20.1750  -14.6232 N   0  0  0  0  0  0  0  0  0  0  0  0
   27.9841  -19.4937  -14.1199 C   0  0  0  0  0  0  0  0  0  0  0  0
   28.6508  -20.6378  -13.3443 C   0  0  0  0  0  0  0  0  0  0  0  0
   28.5068  -21.7819  -14.3445 C   0  0  0  0  0  0  0  0  0  0  0  0
   27.1989  -21.4618  -15.0739 C   0  0  1  0  0  0  0  0  0  0  0  0
   26.2153  -22.5250  -14.7799 C   0  0  0  0  0  0  0  0  0  0  0  0
   26.3725  -23.6476  -15.3655 O   0  0  0  0  0  0  0  0  0  0  0  0
   25.1566  -22.3982  -13.9294 O   0  0  0  0  0  0  0  0  0  0  0  0
  1  2  1  0
  3  2  1  0
  3  4  1  6
  5  3  1  0
  5  6  1  1
  7  8  2  0
  7  5  1  0
  9  7  1  0
 10  9  1  0
 11 12  1  0
 10 11  1  1
 12 13  2  0
 13 14  1  0
 15 14  2  0
 16 15  1  0
 17 12  1  0
 17 16  2  0
 18 10  1  0
 18 19  2  0
 20 18  1  0
 21 20  1  0
 22 21  1  0
 23 22  1  0
 23 24  1  0
 24 20  1  0
 25 27  1  0
 24 25  1  1
 26 25  2  0
M  END
$$$$
