NHS.pdb
     RDKit          3D

 25 25  0  0  1  0  0  0  0  0999 V2000
   23.4207  -11.2440  -20.7778 N   0  0  0  0  0  0  0  0  0  0  0  0
   22.1263  -11.7434  -20.4988 C   0  0  0  0  0  0  0  0  0  0  0  0
   21.6761  -12.7282  -21.1411 O   0  0  0  0  0  0  0  0  0  0  0  0
   21.3071  -11.1061  -19.4530 C   0  0  0  0  0  0  0  0  0  0  0  0
   22.0918   -9.9809  -18.8327 C   0  0  2  0  0  0  0  0  0  0  0  0
   23.0968  -10.4872  -17.9215 N   0  0  0  0  0  0  0  0  0  0  0  0
   21.1439   -9.1461  -18.0631 C   0  0  0  0  0  0  0  0  0  0  0  0
   20.1443   -8.5909  -18.6238 O   0  0  0  0  0  0  0  0  0  0  0  0
   21.3136   -8.9358  -16.6830 N   0  0  0  0  0  0  0  0  0  0  0  0
   20.2691   -8.1553  -15.9105 C   0  0  1  0  0  0  0  0  0  0  0  0
   19.8144   -9.0735  -14.8693 C   0  0  0  0  0  0  0  0  0  0  0  0
   18.5380   -9.7622  -14.9653 C   0  0  0  0  0  0  0  0  0  0  0  0
   17.5696   -9.9111  -15.9196 C   0  0  0  0  0  0  0  0  0  0  0  0
   16.5993  -10.7377  -15.4997 N   0  0  0  0  0  0  0  0  0  0  0  0
   16.9391  -11.1277  -14.2699 C   0  0  0  0  0  0  0  0  0  0  0  0
   18.0964  -10.5582  -13.9259 N   0  0  0  0  0  0  0  0  0  0  0  0
   21.0221   -6.9540  -15.5100 C   0  0  0  0  0  0  0  0  0  0  0  0
   22.3073   -7.1220  -15.4232 O   0  0  0  0  0  0  0  0  0  0  0  0
   21.5459   -2.1971  -14.8091 O   0  0  0  0  0  0  0  0  0  0  0  0
   20.7855   -3.2929  -15.1904 C   0  0  0  0  0  0  0  0  0  0  0  0
   21.5168   -4.5948  -14.9225 C   0  0  2  0  0  0  0  0  0  0  0  0
   20.5522   -5.6700  -15.2152 N   0  0  0  0  0  0  0  0  0  0  0  0
   21.9260   -4.7287  -13.5095 C   0  0  0  0  0  0  0  0  0  0  0  0
   23.0672   -4.1155  -12.9980 O   0  0  0  0  0  0  0  0  0  0  0  0
   21.2556   -5.4103  -12.6920 O   0  0  0  0  0  0  0  0  0  0  0  0
  1  2  1  0
  2  4  1  0
  3  2  2  0
  4  5  1  0
  5  7  1  0
  5  6  1  1
  7  8  2  0
  9 10  1  0
  9  7  1  0
 10 17  1  0
 11 12  1  0
 10 11  1  1
 12 16  1  0
 13 12  2  0
 13 14  1  0
 14 15  1  0
 16 15  2  0
 17 18  2  0
 19 20  1  0
 21 20  1  1
 21 23  1  0
 22 17  1  0
 22 21  1  0
 23 25  2  0
 23 24  1  0
M  END
$$$$
