NHS.pdb
     RDKit          3D

 25 25  0  0  1  0  0  0  0  0999 V2000
   19.3457  -14.7426  -15.7193 N   0  0  0  0  0  0  0  0  0  0  0  0
   20.0348  -13.7761  -16.4898 C   0  0  0  0  0  0  0  0  0  0  0  0
   19.9826  -13.8148  -17.7471 O   0  0  0  0  0  0  0  0  0  0  0  0
   20.8140  -12.7236  -15.8144 C   0  0  0  0  0  0  0  0  0  0  0  0
   22.1611  -12.6090  -16.4767 C   0  0  2  0  0  0  0  0  0  0  0  0
   22.9049  -13.8461  -16.3620 N   0  0  0  0  0  0  0  0  0  0  0  0
   22.9145  -11.5462  -15.7765 C   0  0  0  0  0  0  0  0  0  0  0  0
   23.5315  -11.7796  -14.6871 O   0  0  0  0  0  0  0  0  0  0  0  0
   22.9760  -10.2384  -16.2900 N   0  0  0  0  0  0  0  0  0  0  0  0
   23.8755   -9.2149  -15.6264 C   0  0  1  0  0  0  0  0  0  0  0  0
   25.1235   -9.2711  -16.3835 C   0  0  0  0  0  0  0  0  0  0  0  0
   26.1441  -10.2658  -16.0973 C   0  0  0  0  0  0  0  0  0  0  0  0
   26.4068  -11.1413  -15.0799 C   0  0  0  0  0  0  0  0  0  0  0  0
   27.4719  -11.9070  -15.3633 N   0  0  0  0  0  0  0  0  0  0  0  0
   27.9011  -11.5288  -16.5686 C   0  0  0  0  0  0  0  0  0  0  0  0
   27.1231  -10.5474  -17.0307 N   0  0  0  0  0  0  0  0  0  0  0  0
   23.0570   -7.9926  -15.7080 C   0  0  0  0  0  0  0  0  0  0  0  0
   22.3041   -7.9122  -16.7636 O   0  0  0  0  0  0  0  0  0  0  0  0
   21.1771   -3.8469  -14.0627 O   0  0  0  0  0  0  0  0  0  0  0  0
   21.9403   -4.9880  -13.8635 C   0  0  0  0  0  0  0  0  0  0  0  0
   22.1387   -5.7544  -15.1578 C   0  0  2  0  0  0  0  0  0  0  0  0
   22.9760   -6.9183  -14.8161 N   0  0  0  0  0  0  0  0  0  0  0  0
   22.8609   -4.9626  -16.1743 C   0  0  0  0  0  0  0  0  0  0  0  0
   24.2512   -4.9286  -16.2497 O   0  0  0  0  0  0  0  0  0  0  0  0
   22.2476   -4.2737  -17.0297 O   0  0  0  0  0  0  0  0  0  0  0  0
  1  2  1  0
  2  4  1  0
  3  2  2  0
  4  5  1  0
  5  7  1  0
  5  6  1  1
  7  8  2  0
  9 10  1  0
  9  7  1  0
 10 17  1  0
 11 12  1  0
 10 11  1  6
 12 16  1  0
 13 12  2  0
 13 14  1  0
 14 15  1  0
 16 15  2  0
 17 18  2  0
 19 20  1  0
 21 20  1  1
 21 23  1  0
 22 17  1  0
 22 21  1  0
 23 25  2  0
 23 24  1  0
M  END
$$$$
