NHS.pdb
     RDKit          3D

 25 25  0  0  1  0  0  0  0  0999 V2000
   19.6935  -15.2695  -18.0202 N   0  0  0  0  0  0  0  0  0  0  0  0
   19.4795  -13.9033  -17.7193 C   0  0  0  0  0  0  0  0  0  0  0  0
   18.4694  -13.3058  -18.1749 O   0  0  0  0  0  0  0  0  0  0  0  0
   20.4441  -13.1825  -16.8701 C   0  0  0  0  0  0  0  0  0  0  0  0
   20.2719  -11.7017  -17.0801 C   0  0  2  0  0  0  0  0  0  0  0  0
   20.6515  -11.3184  -18.4238 N   0  0  0  0  0  0  0  0  0  0  0  0
   21.1664  -11.0083  -16.1279 C   0  0  0  0  0  0  0  0  0  0  0  0
   21.1744  -11.3061  -14.8897 O   0  0  0  0  0  0  0  0  0  0  0  0
   22.0410   -9.9941  -16.5573 N   0  0  0  0  0  0  0  0  0  0  0  0
   22.9030   -9.2696  -15.5428 C   0  0  1  0  0  0  0  0  0  0  0  0
   24.2739   -9.4863  -15.9983 C   0  0  0  0  0  0  0  0  0  0  0  0
   24.9602  -10.7481  -15.7757 C   0  0  0  0  0  0  0  0  0  0  0  0
   24.6442  -11.9542  -15.2132 C   0  0  0  0  0  0  0  0  0  0  0  0
   25.6562  -12.8267  -15.3388 N   0  0  0  0  0  0  0  0  0  0  0  0
   26.6314  -12.1860  -15.9858 C   0  0  0  0  0  0  0  0  0  0  0  0
   26.2402  -10.9394  -16.2594 N   0  0  0  0  0  0  0  0  0  0  0  0
   22.3512   -7.9045  -15.5950 C   0  0  0  0  0  0  0  0  0  0  0  0
   22.0704   -7.4771  -16.7891 O   0  0  0  0  0  0  0  0  0  0  0  0
   19.4333   -4.5563  -14.9241 O   0  0  0  0  0  0  0  0  0  0  0  0
   20.0478   -5.7878  -14.7500 C   0  0  0  0  0  0  0  0  0  0  0  0
   21.5569   -5.6734  -14.8554 C   0  0  2  0  0  0  0  0  0  0  0  0
   22.0880   -7.0138  -14.5492 N   0  0  0  0  0  0  0  0  0  0  0  0
   22.1190   -4.7296  -13.8678 C   0  0  0  0  0  0  0  0  0  0  0  0
   22.2134   -3.3609  -14.1082 O   0  0  0  0  0  0  0  0  0  0  0  0
   22.5437   -5.1216  -12.7506 O   0  0  0  0  0  0  0  0  0  0  0  0
  1  2  1  0
  2  4  1  0
  3  2  2  0
  4  5  1  0
  5  7  1  0
  5  6  1  6
  7  8  2  0
  9 10  1  0
  9  7  1  0
 10 17  1  0
 11 12  1  0
 10 11  1  6
 12 16  1  0
 13 12  2  0
 13 14  1  0
 14 15  1  0
 16 15  2  0
 17 18  2  0
 19 20  1  0
 21 20  1  1
 21 23  1  0
 22 17  1  0
 22 21  1  0
 23 25  2  0
 23 24  1  0
M  END
$$$$
