NHS.pdb
     RDKit          3D

 25 25  0  0  1  0  0  0  0  0999 V2000
   24.6253  -36.0283  -13.0046 N   0  0  0  0  0  0  0  0  0  0  0  0
   25.6326  -35.0807  -13.3050 C   0  0  0  0  0  0  0  0  0  0  0  0
   26.2929  -35.1762  -14.3727 O   0  0  0  0  0  0  0  0  0  0  0  0
   25.9057  -33.9813  -12.3628 C   0  0  0  0  0  0  0  0  0  0  0  0
   25.0001  -34.1223  -11.1684 C   0  0  2  0  0  0  0  0  0  0  0  0
   23.7605  -33.4007  -11.3665 N   0  0  0  0  0  0  0  0  0  0  0  0
   25.6998  -33.5350  -10.0052 C   0  0  0  0  0  0  0  0  0  0  0  0
   25.6180  -32.2918   -9.7415 O   0  0  0  0  0  0  0  0  0  0  0  0
   26.4813  -34.3304   -9.1481 N   0  0  0  0  0  0  0  0  0  0  0  0
   26.8212  -33.8249   -7.7604 C   0  0  1  0  0  0  0  0  0  0  0  0
   25.5279  -33.5685   -7.1315 C   0  0  0  0  0  0  0  0  0  0  0  0
   25.4190  -33.2406   -5.7196 C   0  0  0  0  0  0  0  0  0  0  0  0
   26.2925  -33.0160   -4.6913 C   0  0  0  0  0  0  0  0  0  0  0  0
   25.6415  -32.6685   -3.5704 N   0  0  0  0  0  0  0  0  0  0  0  0
   24.3417  -32.6660   -3.8719 C   0  0  0  0  0  0  0  0  0  0  0  0
   24.1811  -33.0049   -5.1530 N   0  0  0  0  0  0  0  0  0  0  0  0
   27.6554  -34.9194   -7.2342 C   0  0  0  0  0  0  0  0  0  0  0  0
   27.2108  -36.1128   -7.4901 O   0  0  0  0  0  0  0  0  0  0  0  0
   31.6734  -35.3182   -6.5950 O   0  0  0  0  0  0  0  0  0  0  0  0
   30.8588  -35.7123   -5.5436 C   0  0  0  0  0  0  0  0  0  0  0  0
   29.4752  -36.1003   -6.0303 C   0  0  2  0  0  0  0  0  0  0  0  0
   28.8482  -34.8544   -6.5067 N   0  0  0  0  0  0  0  0  0  0  0  0
   28.6309  -36.6442   -4.9472 C   0  0  0  0  0  0  0  0  0  0  0  0
   28.5982  -38.0003   -4.6311 O   0  0  0  0  0  0  0  0  0  0  0  0
   27.8930  -35.9002   -4.2513 O   0  0  0  0  0  0  0  0  0  0  0  0
  1  2  1  0
  2  4  1  0
  3  2  2  0
  4  5  1  0
  5  7  1  0
  5  6  1  6
  7  8  2  0
  9 10  1  0
  9  7  1  0
 10 17  1  0
 11 12  1  0
 10 11  1  1
 12 16  1  0
 13 12  2  0
 13 14  1  0
 14 15  1  0
 16 15  2  0
 17 18  2  0
 19 20  1  0
 21 20  1  1
 21 23  1  0
 22 17  1  0
 22 21  1  0
 23 25  2  0
 23 24  1  0
M  END
$$$$
