NHS.pdb
     RDKit          3D

 25 25  0  0  1  0  0  0  0  0999 V2000
   15.1349  -11.0360  -17.2364 N   0  0  0  0  0  0  0  0  0  0  0  0
   15.2499  -10.2806  -16.0453 C   0  0  0  0  0  0  0  0  0  0  0  0
   14.2326   -9.7387  -15.5389 O   0  0  0  0  0  0  0  0  0  0  0  0
   16.5658  -10.1308  -15.3994 C   0  0  0  0  0  0  0  0  0  0  0  0
   17.6103  -10.7990  -16.2532 C   0  0  2  0  0  0  0  0  0  0  0  0
   17.5571  -12.2389  -16.1100 N   0  0  0  0  0  0  0  0  0  0  0  0
   18.9342  -10.3333  -15.7862 C   0  0  0  0  0  0  0  0  0  0  0  0
   19.4437  -10.7657  -14.7020 O   0  0  0  0  0  0  0  0  0  0  0  0
   19.6779   -9.3953  -16.5242 N   0  0  0  0  0  0  0  0  0  0  0  0
   21.0220   -8.9279  -16.0025 C   0  0  1  0  0  0  0  0  0  0  0  0
   21.9832   -9.3588  -17.0145 C   0  0  0  0  0  0  0  0  0  0  0  0
   22.4830  -10.7230  -17.0586 C   0  0  0  0  0  0  0  0  0  0  0  0
   22.3579  -11.7899  -17.9054 C   0  0  0  0  0  0  0  0  0  0  0  0
   23.1119  -12.8225  -17.4975 N   0  0  0  0  0  0  0  0  0  0  0  0
   23.7293  -12.4247  -16.3836 C   0  0  0  0  0  0  0  0  0  0  0  0
   23.3703  -11.1709  -16.0989 N   0  0  0  0  0  0  0  0  0  0  0  0
   20.7916   -7.4842  -15.8198 C   0  0  0  0  0  0  0  0  0  0  0  0
   20.1997   -6.8979  -16.8165 O   0  0  0  0  0  0  0  0  0  0  0  0
   19.6406   -5.5571  -12.7321 O   0  0  0  0  0  0  0  0  0  0  0  0
   19.5350   -5.0269  -14.0097 C   0  0  0  0  0  0  0  0  0  0  0  0
   20.8160   -5.2233  -14.7984 C   0  0  2  0  0  0  0  0  0  0  0  0
   21.1158   -6.6649  -14.7335 N   0  0  0  0  0  0  0  0  0  0  0  0
   21.9579   -4.4984  -14.2046 C   0  0  0  0  0  0  0  0  0  0  0  0
   22.0406   -3.1081  -14.1959 O   0  0  0  0  0  0  0  0  0  0  0  0
   22.9204   -5.1091  -13.6728 O   0  0  0  0  0  0  0  0  0  0  0  0
  1  2  1  0
  2  4  1  0
  3  2  2  0
  4  5  1  0
  5  7  1  0
  5  6  1  1
  7  8  2  0
  9 10  1  0
  9  7  1  0
 10 17  1  0
 11 12  1  0
 10 11  1  6
 12 16  1  0
 13 12  2  0
 13 14  1  0
 14 15  1  0
 16 15  2  0
 17 18  2  0
 19 20  1  0
 21 20  1  1
 21 23  1  0
 22 17  1  0
 22 21  1  0
 23 25  2  0
 23 24  1  0
M  END
$$$$
