NHS.pdb
     RDKit          3D

 25 25  0  0  1  0  0  0  0  0999 V2000
   20.6192  -20.3093  -19.2420 N   0  0  0  0  0  0  0  0  0  0  0  0
   20.7944  -18.9088  -19.1398 C   0  0  0  0  0  0  0  0  0  0  0  0
   20.0567  -18.1291  -19.7978 O   0  0  0  0  0  0  0  0  0  0  0  0
   21.8443  -18.3662  -18.2597 C   0  0  0  0  0  0  0  0  0  0  0  0
   21.2279  -17.9780  -16.9422 C   0  0  2  0  0  0  0  0  0  0  0  0
   20.6163  -16.6678  -17.0191 N   0  0  0  0  0  0  0  0  0  0  0  0
   22.3133  -17.9270  -15.9387 C   0  0  0  0  0  0  0  0  0  0  0  0
   22.8998  -16.8334  -15.6526 O   0  0  0  0  0  0  0  0  0  0  0  0
   22.7363  -19.0863  -15.2643 N   0  0  0  0  0  0  0  0  0  0  0  0
   23.8024  -18.9820  -14.1922 C   0  0  1  0  0  0  0  0  0  0  0  0
   23.2815  -19.7635  -13.0733 C   0  0  0  0  0  0  0  0  0  0  0  0
   24.1198  -20.1283  -11.9433 C   0  0  0  0  0  0  0  0  0  0  0  0
   25.3876  -19.8338  -11.5230 C   0  0  0  0  0  0  0  0  0  0  0  0
   25.6471  -20.3998  -10.3342 N   0  0  0  0  0  0  0  0  0  0  0  0
   24.5444  -21.0627   -9.9809 C   0  0  0  0  0  0  0  0  0  0  0  0
   23.6143  -20.9161  -10.9270 N   0  0  0  0  0  0  0  0  0  0  0  0
   24.9956  -19.4762  -14.9012 C   0  0  0  0  0  0  0  0  0  0  0  0
   24.7483  -20.3129  -15.8636 O   0  0  0  0  0  0  0  0  0  0  0  0
   29.7568  -19.7577  -15.8028 O   0  0  0  0  0  0  0  0  0  0  0  0
   28.6949  -19.1958  -15.1093 C   0  0  0  0  0  0  0  0  0  0  0  0
   27.3737  -19.8184  -15.5201 C   0  0  2  0  0  0  0  0  0  0  0  0
   26.3439  -19.1722  -14.6868 N   0  0  0  0  0  0  0  0  0  0  0  0
   27.3282  -21.2696  -15.2481 C   0  0  0  0  0  0  0  0  0  0  0  0
   27.5137  -22.2253  -16.2442 O   0  0  0  0  0  0  0  0  0  0  0  0
   27.1174  -21.7161  -14.0912 O   0  0  0  0  0  0  0  0  0  0  0  0
  1  2  1  0
  2  4  1  0
  3  2  2  0
  4  5  1  0
  5  7  1  0
  5  6  1  6
  7  8  2  0
  9 10  1  0
  9  7  1  0
 10 17  1  0
 11 12  1  0
 10 11  1  1
 12 16  1  0
 13 12  2  0
 13 14  1  0
 14 15  1  0
 16 15  2  0
 17 18  2  0
 19 20  1  0
 21 20  1  1
 21 23  1  0
 22 17  1  0
 22 21  1  0
 23 25  2  0
 23 24  1  0
M  END
$$$$
