NHS.pdb
     RDKit          3D

 25 25  0  0  1  0  0  0  0  0999 V2000
   18.7864  -11.5521  -19.0415 N   0  0  0  0  0  0  0  0  0  0  0  0
   18.0720  -10.7929  -18.0844 C   0  0  0  0  0  0  0  0  0  0  0  0
   16.8363  -10.5977  -18.2259 O   0  0  0  0  0  0  0  0  0  0  0  0
   18.7806  -10.2312  -16.9209 C   0  0  0  0  0  0  0  0  0  0  0  0
   20.2451  -10.5615  -17.0319 C   0  0  2  0  0  0  0  0  0  0  0  0
   20.5273  -11.8701  -16.4799 N   0  0  0  0  0  0  0  0  0  0  0  0
   20.9913   -9.5543  -16.2469 C   0  0  0  0  0  0  0  0  0  0  0  0
   20.8823   -9.4887  -14.9797 O   0  0  0  0  0  0  0  0  0  0  0  0
   21.8486   -8.6322  -16.8733 N   0  0  0  0  0  0  0  0  0  0  0  0
   22.5792   -7.6011  -16.0366 C   0  0  1  0  0  0  0  0  0  0  0  0
   23.9945   -7.8322  -16.3151 C   0  0  0  0  0  0  0  0  0  0  0  0
   24.6837   -9.0152  -15.8270 C   0  0  0  0  0  0  0  0  0  0  0  0
   24.3483  -10.1122  -15.0820 C   0  0  0  0  0  0  0  0  0  0  0  0
   25.3806  -10.9640  -14.9831 N   0  0  0  0  0  0  0  0  0  0  0  0
   26.3887  -10.4194  -15.6667 C   0  0  0  0  0  0  0  0  0  0  0  0
   25.9976   -9.2520  -16.1825 N   0  0  0  0  0  0  0  0  0  0  0  0
   21.9665   -6.3441  -16.5005 C   0  0  0  0  0  0  0  0  0  0  0  0
   22.7990   -5.4935  -17.0211 O   0  0  0  0  0  0  0  0  0  0  0  0
   18.5781   -3.7870  -18.5554 O   0  0  0  0  0  0  0  0  0  0  0  0
   19.0795   -4.9475  -17.9843 C   0  0  0  0  0  0  0  0  0  0  0  0
   20.2403   -4.6501  -17.0539 C   0  0  2  0  0  0  0  0  0  0  0  0
   20.6272   -5.9429  -16.4612 N   0  0  0  0  0  0  0  0  0  0  0  0
   19.8583   -3.7449  -15.9509 C   0  0  0  0  0  0  0  0  0  0  0  0
   20.0475   -2.3664  -16.0125 O   0  0  0  0  0  0  0  0  0  0  0  0
   19.3384   -4.1810  -14.8917 O   0  0  0  0  0  0  0  0  0  0  0  0
  1  2  1  0
  2  4  1  0
  3  2  2  0
  4  5  1  0
  5  7  1  0
  5  6  1  1
  7  8  2  0
  9 10  1  0
  9  7  1  0
 10 17  1  0
 11 12  1  0
 10 11  1  6
 12 16  1  0
 13 12  2  0
 13 14  1  0
 14 15  1  0
 16 15  2  0
 17 18  2  0
 19 20  1  0
 21 20  1  6
 21 23  1  0
 22 17  1  0
 22 21  1  0
 23 25  2  0
 23 24  1  0
M  END
$$$$
