NHS.pdb
     RDKit          3D

 25 25  0  0  1  0  0  0  0  0999 V2000
   10.3304  -11.3516  -11.4312 N   0  0  0  0  0  0  0  0  0  0  0  0
   10.8131  -11.1137  -10.1223 C   0  0  0  0  0  0  0  0  0  0  0  0
   10.0061  -10.9681   -9.1670 O   0  0  0  0  0  0  0  0  0  0  0  0
   12.2648  -11.0370   -9.8817 C   0  0  0  0  0  0  0  0  0  0  0  0
   12.9909  -11.3007  -11.1738 C   0  0  2  0  0  0  0  0  0  0  0  0
   13.1710  -12.7211  -11.3897 N   0  0  0  0  0  0  0  0  0  0  0  0
   14.3259  -10.6722  -11.0726 C   0  0  0  0  0  0  0  0  0  0  0  0
   15.2254  -11.1477  -10.3066 O   0  0  0  0  0  0  0  0  0  0  0  0
   14.6494   -9.5257  -11.8200 N   0  0  0  0  0  0  0  0  0  0  0  0
   16.0142   -8.8869  -11.6584 C   0  0  1  0  0  0  0  0  0  0  0  0
   16.5591   -8.8277  -13.0124 C   0  0  0  0  0  0  0  0  0  0  0  0
   17.2448   -9.9625  -13.6080 C   0  0  0  0  0  0  0  0  0  0  0  0
   17.6112  -11.2155  -13.2000 C   0  0  0  0  0  0  0  0  0  0  0  0
   18.1757  -11.9054  -14.2032 N   0  0  0  0  0  0  0  0  0  0  0  0
   18.1748  -11.0987  -15.2660 C   0  0  0  0  0  0  0  0  0  0  0  0
   17.6225   -9.9289  -14.9366 N   0  0  0  0  0  0  0  0  0  0  0  0
   15.6798   -7.6235  -10.9781 C   0  0  0  0  0  0  0  0  0  0  0  0
   14.4456   -7.2422  -11.1160 O   0  0  0  0  0  0  0  0  0  0  0  0
   14.8395   -4.9042   -7.5788 O   0  0  0  0  0  0  0  0  0  0  0  0
   15.2862   -5.9961   -8.3086 C   0  0  0  0  0  0  0  0  0  0  0  0
   15.9253   -5.5649   -9.6153 C   0  0  2  0  0  0  0  0  0  0  0  0
   16.4961   -6.7864  -10.2106 N   0  0  0  0  0  0  0  0  0  0  0  0
   17.0292   -4.6050   -9.4107 C   0  0  0  0  0  0  0  0  0  0  0  0
   16.8122   -3.2429   -9.2172 O   0  0  0  0  0  0  0  0  0  0  0  0
   18.2310   -4.9764   -9.4013 O   0  0  0  0  0  0  0  0  0  0  0  0
  1  2  1  0
  2  4  1  0
  3  2  2  0
  4  5  1  0
  5  7  1  0
  5  6  1  1
  7  8  2  0
  9 10  1  0
  9  7  1  0
 10 17  1  0
 11 12  1  0
 10 11  1  6
 12 16  1  0
 13 12  2  0
 13 14  1  0
 14 15  1  0
 16 15  2  0
 17 18  2  0
 19 20  1  0
 21 20  1  1
 21 23  1  0
 22 17  1  0
 22 21  1  0
 23 25  2  0
 23 24  1  0
M  END
$$$$
