NHS.pdb
     RDKit          3D

 25 25  0  0  1  0  0  0  0  0999 V2000
   21.3671   -9.8429  -22.4354 N   0  0  0  0  0  0  0  0  0  0  0  0
   20.3072  -10.5794  -21.8548 C   0  0  0  0  0  0  0  0  0  0  0  0
   19.6261  -11.3702  -22.5589 O   0  0  0  0  0  0  0  0  0  0  0  0
   20.0036  -10.4170  -20.4221 C   0  0  0  0  0  0  0  0  0  0  0  0
   20.9807   -9.4421  -19.8210 C   0  0  2  0  0  0  0  0  0  0  0  0
   22.2397  -10.0884  -19.5145 N   0  0  0  0  0  0  0  0  0  0  0  0
   20.3943   -8.9427  -18.5583 C   0  0  0  0  0  0  0  0  0  0  0  0
   19.2730   -8.3391  -18.5421 O   0  0  0  0  0  0  0  0  0  0  0  0
   21.0555   -9.1171  -17.3295 N   0  0  0  0  0  0  0  0  0  0  0  0
   20.3730   -8.6916  -16.0449 C   0  0  1  0  0  0  0  0  0  0  0  0
   20.2676   -9.9171  -15.2569 C   0  0  0  0  0  0  0  0  0  0  0  0
   19.0908  -10.7675  -15.3247 C   0  0  0  0  0  0  0  0  0  0  0  0
   17.9027  -10.7513  -16.0022 C   0  0  0  0  0  0  0  0  0  0  0  0
   17.1820  -11.8531  -15.7419 N   0  0  0  0  0  0  0  0  0  0  0  0
   17.9046  -12.5875  -14.8942 C   0  0  0  0  0  0  0  0  0  0  0  0
   19.0525  -11.9602  -14.6283 N   0  0  0  0  0  0  0  0  0  0  0  0
   21.2657   -7.6216  -15.5665 C   0  0  0  0  0  0  0  0  0  0  0  0
   22.5195   -7.7866  -15.8634 O   0  0  0  0  0  0  0  0  0  0  0  0
   22.7512   -3.3099  -15.0594 O   0  0  0  0  0  0  0  0  0  0  0  0
   21.8769   -4.3309  -15.4025 C   0  0  0  0  0  0  0  0  0  0  0  0
   22.0329   -5.5264  -14.4815 C   0  0  2  0  0  0  0  0  0  0  0  0
   20.9553   -6.4633  -14.8465 N   0  0  0  0  0  0  0  0  0  0  0  0
   21.8554   -5.1671  -13.0598 C   0  0  0  0  0  0  0  0  0  0  0  0
   22.8740   -4.6018  -12.2965 O   0  0  0  0  0  0  0  0  0  0  0  0
   20.7636   -5.3567  -12.4645 O   0  0  0  0  0  0  0  0  0  0  0  0
  1  2  1  0
  2  4  1  0
  3  2  2  0
  4  5  1  0
  5  7  1  0
  5  6  1  1
  7  8  2  0
  9 10  1  0
  9  7  1  0
 10 17  1  0
 11 12  1  0
 10 11  1  1
 12 16  1  0
 13 12  2  0
 13 14  1  0
 14 15  1  0
 16 15  2  0
 17 18  2  0
 19 20  1  0
 21 20  1  6
 21 23  1  0
 22 17  1  0
 22 21  1  0
 23 25  2  0
 23 24  1  0
M  END
$$$$
