HGD.pdb
     RDKit          3D

 23 23  0  0  1  0  0  0  0  0999 V2000
    7.9915  -16.5730   20.2246 N   0  0  0  0  0  0  0  0  0  0  0  0
    8.3280  -15.7432   21.3647 C   0  0  1  0  0  0  0  0  0  0  0  0
    7.3915  -14.5336   21.3016 C   0  0  0  0  0  0  0  0  0  0  0  0
    7.7056  -13.8328   20.0286 C   0  0  0  0  0  0  0  0  0  0  0  0
    8.5302  -12.7094   19.9030 C   0  0  0  0  0  0  0  0  0  0  0  0
    8.5857  -12.3480   18.6096 N   0  0  0  0  0  0  0  0  0  0  0  0
    7.8257  -13.2009   17.9051 C   0  0  0  0  0  0  0  0  0  0  0  0
    7.2937  -14.1016   18.7770 N   0  0  0  0  0  0  0  0  0  0  0  0
    8.1998  -16.4664   22.6416 C   0  0  0  0  0  0  0  0  0  0  0  0
    7.0881  -16.8913   22.9923 O   0  0  0  0  0  0  0  0  0  0  0  0
    9.3635  -16.6555   23.4373 N   0  0  0  0  0  0  0  0  0  0  0  0
    9.2516  -17.4306   24.6362 C   0  0  0  0  0  0  0  0  0  0  0  0
   10.5924  -17.6352   25.2465 C   0  0  0  0  0  0  0  0  0  0  0  0
   11.5606  -16.9083   24.8693 O   0  0  0  0  0  0  0  0  0  0  0  0
   10.8591  -18.6002   26.2321 N   0  0  0  0  0  0  0  0  0  0  0  0
   12.1848  -19.1889   26.4249 C   0  0  1  0  0  0  0  0  0  0  0  0
   11.9391  -20.4336   27.2508 C   0  0  0  0  0  0  0  0  0  0  0  0
   11.4501  -20.1103   28.5878 C   0  0  0  0  0  0  0  0  0  0  0  0
   11.9690  -19.2149   29.2912 O   0  0  0  0  0  0  0  0  0  0  0  0
   12.7910  -19.5884   25.1473 C   0  0  0  0  0  0  0  0  0  0  0  0
   13.7081  -18.8661   24.4226 O   0  0  0  0  0  0  0  0  0  0  0  0
   10.3761  -20.8084   29.1116 O   0  0  0  0  0  0  0  0  0  0  0  0
   12.4325  -20.7149   24.6601 O   0  0  0  0  0  0  0  0  0  0  0  0
  2  1  1  6
  2  3  1  0
  4  3  1  0
  4  5  2  0
  6  5  1  0
  7  6  1  0
  8  7  2  0
  8  4  1  0
  9  2  1  0
  9 10  2  0
 11  9  1  0
 12 11  1  0
 12 13  1  0
 13 15  1  0
 14 13  2  0
 15 16  1  0
 16 17  1  1
 17 18  1  0
 18 22  1  0
 19 18  2  0
 20 16  1  0
 20 21  1  0
 23 20  2  0
M  END
$$$$
