HGD.pdb
     RDKit          3D

 23 23  0  0  1  0  0  0  0  0999 V2000
    8.9539  -16.6800   18.4211 N   0  0  0  0  0  0  0  0  0  0  0  0
    9.3193  -16.1250   19.7095 C   0  0  1  0  0  0  0  0  0  0  0  0
    8.0281  -15.5668   20.3140 C   0  0  0  0  0  0  0  0  0  0  0  0
    7.6317  -14.4192   19.4561 C   0  0  0  0  0  0  0  0  0  0  0  0
    8.4254  -13.3002   19.1805 C   0  0  0  0  0  0  0  0  0  0  0  0
    7.7460  -12.4685   18.3722 N   0  0  0  0  0  0  0  0  0  0  0  0
    6.5468  -13.0169   18.1222 C   0  0  0  0  0  0  0  0  0  0  0  0
    6.4858  -14.2043   18.7861 N   0  0  0  0  0  0  0  0  0  0  0  0
    9.9477  -17.1233   20.5919 C   0  0  0  0  0  0  0  0  0  0  0  0
    9.4102  -18.2320   20.7377 O   0  0  0  0  0  0  0  0  0  0  0  0
   11.1596  -16.7812   21.2532 N   0  0  0  0  0  0  0  0  0  0  0  0
   11.7658  -17.7533   22.1125 C   0  0  0  0  0  0  0  0  0  0  0  0
   13.0172  -17.2105   22.7053 C   0  0  0  0  0  0  0  0  0  0  0  0
   13.3834  -16.0340   22.4055 O   0  0  0  0  0  0  0  0  0  0  0  0
   13.8340  -17.9314   23.5922 N   0  0  0  0  0  0  0  0  0  0  0  0
   15.0338  -17.3603   24.2049 C   0  0  1  0  0  0  0  0  0  0  0  0
   15.5101  -18.4157   25.1802 C   0  0  0  0  0  0  0  0  0  0  0  0
   14.6633  -18.4796   26.3675 C   0  0  0  0  0  0  0  0  0  0  0  0
   13.7379  -17.6629   26.5736 O   0  0  0  0  0  0  0  0  0  0  0  0
   16.0922  -17.1306   23.2117 C   0  0  0  0  0  0  0  0  0  0  0  0
   17.1569  -16.2721   23.3434 O   0  0  0  0  0  0  0  0  0  0  0  0
   14.8772  -19.4713   27.3088 O   0  0  0  0  0  0  0  0  0  0  0  0
   16.0181  -17.7904   22.1191 O   0  0  0  0  0  0  0  0  0  0  0  0
  2  1  1  6
  2  3  1  0
  4  3  1  0
  4  5  2  0
  6  5  1  0
  7  6  1  0
  8  7  2  0
  8  4  1  0
  9  2  1  0
  9 10  2  0
 11  9  1  0
 12 11  1  0
 12 13  1  0
 13 15  1  0
 14 13  2  0
 15 16  1  0
 16 17  1  1
 17 18  1  0
 18 22  1  0
 19 18  2  0
 20 16  1  0
 20 21  1  0
 23 20  2  0
M  END
$$$$
