HGD.pdb
     RDKit          3D

 23 23  0  0  1  0  0  0  0  0999 V2000
    9.7152  -15.5880   21.0897 N   0  0  0  0  0  0  0  0  0  0  0  0
   10.1066  -16.1590   19.8160 C   0  0  1  0  0  0  0  0  0  0  0  0
   10.1552  -14.9936   18.8242 C   0  0  0  0  0  0  0  0  0  0  0  0
    8.8023  -14.3778   18.8425 C   0  0  0  0  0  0  0  0  0  0  0  0
    7.7332  -14.7920   19.6447 C   0  0  0  0  0  0  0  0  0  0  0  0
    6.6695  -14.0084   19.3973 N   0  0  0  0  0  0  0  0  0  0  0  0
    7.0217  -13.1088   18.4658 C   0  0  0  0  0  0  0  0  0  0  0  0
    8.3218  -13.3410   18.1337 N   0  0  0  0  0  0  0  0  0  0  0  0
   11.3971  -16.8654   19.8914 C   0  0  0  0  0  0  0  0  0  0  0  0
   11.7760  -17.5470   18.9263 O   0  0  0  0  0  0  0  0  0  0  0  0
   12.1730  -16.7423   21.0770 N   0  0  0  0  0  0  0  0  0  0  0  0
   13.4405  -17.4061   21.1350 C   0  0  0  0  0  0  0  0  0  0  0  0
   13.6203  -18.0628   22.4573 C   0  0  0  0  0  0  0  0  0  0  0  0
   13.7093  -17.3431   23.4977 O   0  0  0  0  0  0  0  0  0  0  0  0
   13.6992  -19.4547   22.6300 N   0  0  0  0  0  0  0  0  0  0  0  0
   13.8582  -20.0815   23.9427 C   0  0  1  0  0  0  0  0  0  0  0  0
   13.3716  -21.5026   23.7545 C   0  0  0  0  0  0  0  0  0  0  0  0
   13.3720  -22.2474   25.0100 C   0  0  0  0  0  0  0  0  0  0  0  0
   13.6422  -21.7091   26.1068 O   0  0  0  0  0  0  0  0  0  0  0  0
   15.2675  -20.1214   24.3568 C   0  0  0  0  0  0  0  0  0  0  0  0
   15.7336  -20.1563   25.6489 O   0  0  0  0  0  0  0  0  0  0  0  0
   13.0652  -23.5969   25.0059 O   0  0  0  0  0  0  0  0  0  0  0  0
   16.1470  -20.1232   23.4286 O   0  0  0  0  0  0  0  0  0  0  0  0
  2  1  1  1
  2  3  1  0
  4  3  1  0
  4  5  2  0
  6  5  1  0
  7  6  1  0
  8  7  2  0
  8  4  1  0
  9  2  1  0
  9 10  2  0
 11  9  1  0
 12 11  1  0
 12 13  1  0
 13 15  1  0
 14 13  2  0
 15 16  1  0
 16 17  1  6
 17 18  1  0
 18 22  1  0
 19 18  2  0
 20 16  1  0
 20 21  1  0
 23 20  2  0
M  END
$$$$
