HGD.pdb
     RDKit          3D

 23 23  0  0  1  0  0  0  0  0999 V2000
    9.9851  -16.3156   20.7277 N   0  0  0  0  0  0  0  0  0  0  0  0
    8.8268  -15.7234   21.3674 C   0  0  1  0  0  0  0  0  0  0  0  0
    7.7218  -15.6987   20.3079 C   0  0  0  0  0  0  0  0  0  0  0  0
    7.8610  -14.4018   19.5947 C   0  0  0  0  0  0  0  0  0  0  0  0
    8.8480  -13.4414   19.8427 C   0  0  0  0  0  0  0  0  0  0  0  0
    8.6660  -12.4005   19.0121 N   0  0  0  0  0  0  0  0  0  0  0  0
    7.5979  -12.6623   18.2428 C   0  0  0  0  0  0  0  0  0  0  0  0
    7.1140  -13.8828   18.6043 N   0  0  0  0  0  0  0  0  0  0  0  0
    8.4118  -16.4638   22.5714 C   0  0  0  0  0  0  0  0  0  0  0  0
    8.9056  -17.5784   22.8018 O   0  0  0  0  0  0  0  0  0  0  0  0
    7.4511  -15.8723   23.4375 N   0  0  0  0  0  0  0  0  0  0  0  0
    7.7927  -15.6971   24.8172 C   0  0  0  0  0  0  0  0  0  0  0  0
    8.0696  -17.0130   25.4524 C   0  0  0  0  0  0  0  0  0  0  0  0
    7.1273  -17.6272   26.0380 O   0  0  0  0  0  0  0  0  0  0  0  0
    9.3318  -17.6299   25.4448 N   0  0  0  0  0  0  0  0  0  0  0  0
    9.6669  -18.7570   26.3157 C   0  0  1  0  0  0  0  0  0  0  0  0
   11.0208  -19.2309   25.8317 C   0  0  0  0  0  0  0  0  0  0  0  0
   10.9579  -19.7554   24.4709 C   0  0  0  0  0  0  0  0  0  0  0  0
    9.8731  -20.0159   23.9041 O   0  0  0  0  0  0  0  0  0  0  0  0
    9.7928  -18.3386   27.7188 C   0  0  0  0  0  0  0  0  0  0  0  0
    9.9370  -17.0494   28.1719 O   0  0  0  0  0  0  0  0  0  0  0  0
   12.1289  -19.9784   23.7680 O   0  0  0  0  0  0  0  0  0  0  0  0
    9.7668  -19.2596   28.6053 O   0  0  0  0  0  0  0  0  0  0  0  0
  2  1  1  6
  2  3  1  0
  4  3  1  0
  4  5  2  0
  6  5  1  0
  7  6  1  0
  8  7  2  0
  8  4  1  0
  9  2  1  0
  9 10  2  0
 11  9  1  0
 12 11  1  0
 12 13  1  0
 13 15  1  0
 14 13  2  0
 15 16  1  0
 16 17  1  6
 17 18  1  0
 18 22  1  0
 19 18  2  0
 20 16  1  0
 20 21  1  0
 23 20  2  0
M  END
$$$$
