HGD.pdb
     RDKit          3D

 23 23  0  0  1  0  0  0  0  0999 V2000
    9.5566  -16.3477   18.4914 N   0  0  0  0  0  0  0  0  0  0  0  0
   10.1940  -15.6621   17.3845 C   0  0  1  0  0  0  0  0  0  0  0  0
    9.1363  -14.7212   16.8011 C   0  0  0  0  0  0  0  0  0  0  0  0
    8.5738  -13.9665   17.9518 C   0  0  0  0  0  0  0  0  0  0  0  0
    9.0903  -12.7740   18.4704 C   0  0  0  0  0  0  0  0  0  0  0  0
    8.3285  -12.3788   19.5048 N   0  0  0  0  0  0  0  0  0  0  0  0
    7.3441  -13.2767   19.6650 C   0  0  0  0  0  0  0  0  0  0  0  0
    7.5011  -14.2400   18.7152 N   0  0  0  0  0  0  0  0  0  0  0  0
   11.4043  -14.9320   17.7995 C   0  0  0  0  0  0  0  0  0  0  0  0
   12.0533  -14.2975   16.9536 O   0  0  0  0  0  0  0  0  0  0  0  0
   11.7927  -14.9786   19.1669 N   0  0  0  0  0  0  0  0  0  0  0  0
   12.7078  -13.9889   19.6503 C   0  0  0  0  0  0  0  0  0  0  0  0
   13.8102  -14.6327   20.4133 C   0  0  0  0  0  0  0  0  0  0  0  0
   14.5842  -13.9093   21.1103 O   0  0  0  0  0  0  0  0  0  0  0  0
   14.0528  -16.0165   20.4109 N   0  0  0  0  0  0  0  0  0  0  0  0
   14.4581  -16.7510   21.6098 C   0  0  1  0  0  0  0  0  0  0  0  0
   13.3554  -16.4914   22.6140 C   0  0  0  0  0  0  0  0  0  0  0  0
   13.6590  -17.0752   23.9170 C   0  0  0  0  0  0  0  0  0  0  0  0
   14.6757  -17.7776   24.1145 O   0  0  0  0  0  0  0  0  0  0  0  0
   14.5313  -18.1972   21.3601 C   0  0  0  0  0  0  0  0  0  0  0  0
   13.9726  -18.8673   20.2985 O   0  0  0  0  0  0  0  0  0  0  0  0
   12.8039  -16.8547   24.9824 O   0  0  0  0  0  0  0  0  0  0  0  0
   15.1749  -18.9028   22.2102 O   0  0  0  0  0  0  0  0  0  0  0  0
  2  1  1  1
  2  3  1  0
  4  3  1  0
  4  5  2  0
  6  5  1  0
  7  6  1  0
  8  7  2  0
  8  4  1  0
  9  2  1  0
  9 10  2  0
 11  9  1  0
 12 11  1  0
 12 13  1  0
 13 15  1  0
 14 13  2  0
 15 16  1  0
 16 17  1  1
 17 18  1  0
 18 22  1  0
 19 18  2  0
 20 16  1  0
 20 21  1  0
 23 20  2  0
M  END
$$$$
