HGD.pdb
     RDKit          3D

 23 23  0  0  1  0  0  0  0  0999 V2000
    9.8656  -16.1825   20.2084 N   0  0  0  0  0  0  0  0  0  0  0  0
    9.5139  -15.8536   21.5758 C   0  0  1  0  0  0  0  0  0  0  0  0
    8.0136  -15.5481   21.5674 C   0  0  0  0  0  0  0  0  0  0  0  0
    7.8300  -14.4010   20.6398 C   0  0  0  0  0  0  0  0  0  0  0  0
    7.1032  -14.4325   19.4444 C   0  0  0  0  0  0  0  0  0  0  0  0
    7.1521  -13.2188   18.8690 N   0  0  0  0  0  0  0  0  0  0  0  0
    7.8841  -12.4137   19.6545 C   0  0  0  0  0  0  0  0  0  0  0  0
    8.2929  -13.1417   20.7304 N   0  0  0  0  0  0  0  0  0  0  0  0
    9.8444  -16.9384   22.5160 C   0  0  0  0  0  0  0  0  0  0  0  0
    9.6722  -18.1176   22.1707 O   0  0  0  0  0  0  0  0  0  0  0  0
   10.3542  -16.5964   23.7989 N   0  0  0  0  0  0  0  0  0  0  0  0
   10.7897  -17.6515   24.6636 C   0  0  0  0  0  0  0  0  0  0  0  0
   12.1470  -18.1153   24.2705 C   0  0  0  0  0  0  0  0  0  0  0  0
   12.2587  -19.1022   23.4820 O   0  0  0  0  0  0  0  0  0  0  0  0
   13.3347  -17.5186   24.7255 N   0  0  0  0  0  0  0  0  0  0  0  0
   14.5667  -17.5057   23.9360 C   0  0  1  0  0  0  0  0  0  0  0  0
   14.2553  -16.6217   22.7472 C   0  0  0  0  0  0  0  0  0  0  0  0
   15.3909  -16.5173   21.8359 C   0  0  0  0  0  0  0  0  0  0  0  0
   16.4882  -17.0722   22.0685 O   0  0  0  0  0  0  0  0  0  0  0  0
   15.6823  -16.9082   24.6828 C   0  0  0  0  0  0  0  0  0  0  0  0
   16.9997  -17.2940   24.6215 O   0  0  0  0  0  0  0  0  0  0  0  0
   15.2678  -15.7831   20.6693 O   0  0  0  0  0  0  0  0  0  0  0  0
   15.4042  -15.9367   25.4662 O   0  0  0  0  0  0  0  0  0  0  0  0
  2  1  1  6
  2  3  1  0
  4  3  1  0
  4  5  2  0
  6  5  1  0
  7  6  1  0
  8  7  2  0
  8  4  1  0
  9  2  1  0
  9 10  2  0
 11  9  1  0
 12 11  1  0
 12 13  1  0
 13 15  1  0
 14 13  2  0
 15 16  1  0
 16 17  1  6
 17 18  1  0
 18 22  1  0
 19 18  2  0
 20 16  1  0
 20 21  1  0
 23 20  2  0
M  END
$$$$
