HGD.pdb
     RDKit          3D

 23 23  0  0  1  0  0  0  0  0999 V2000
    6.3862  -17.7960   20.5920 N   0  0  0  0  0  0  0  0  0  0  0  0
    6.8058  -16.6447   21.3665 C   0  0  1  0  0  0  0  0  0  0  0  0
    6.0001  -15.4568   20.8336 C   0  0  0  0  0  0  0  0  0  0  0  0
    6.9963  -14.4425   20.3991 C   0  0  0  0  0  0  0  0  0  0  0  0
    8.3861  -14.5958   20.4520 C   0  0  0  0  0  0  0  0  0  0  0  0
    8.9690  -13.4810   19.9786 N   0  0  0  0  0  0  0  0  0  0  0  0
    8.0006  -12.6216   19.6253 C   0  0  0  0  0  0  0  0  0  0  0  0
    6.8027  -13.2152   19.8847 N   0  0  0  0  0  0  0  0  0  0  0  0
    6.6017  -16.8374   22.8126 C   0  0  0  0  0  0  0  0  0  0  0  0
    5.4479  -16.9425   23.2566 O   0  0  0  0  0  0  0  0  0  0  0  0
    7.7427  -16.8974   23.6597 N   0  0  0  0  0  0  0  0  0  0  0  0
    7.5396  -17.0705   25.0666 C   0  0  0  0  0  0  0  0  0  0  0  0
    8.8333  -16.9639   25.7927 C   0  0  0  0  0  0  0  0  0  0  0  0
    9.9063  -16.8390   25.1285 O   0  0  0  0  0  0  0  0  0  0  0  0
    8.9439  -16.9933   27.1929 N   0  0  0  0  0  0  0  0  0  0  0  0
   10.2214  -16.8378   27.8892 C   0  0  1  0  0  0  0  0  0  0  0  0
    9.9543  -15.8031   28.9615 C   0  0  0  0  0  0  0  0  0  0  0  0
    9.9361  -14.4489   28.4169 C   0  0  0  0  0  0  0  0  0  0  0  0
   10.0702  -14.2179   27.1943 O   0  0  0  0  0  0  0  0  0  0  0  0
   10.6394  -18.0873   28.5398 C   0  0  0  0  0  0  0  0  0  0  0  0
   11.9049  -18.3887   28.9822 O   0  0  0  0  0  0  0  0  0  0  0  0
    9.7657  -13.3707   29.2676 O   0  0  0  0  0  0  0  0  0  0  0  0
    9.7425  -18.9823   28.7115 O   0  0  0  0  0  0  0  0  0  0  0  0
  2  1  1  6
  2  3  1  0
  4  3  1  0
  4  5  2  0
  6  5  1  0
  7  6  1  0
  8  7  2  0
  8  4  1  0
  9  2  1  0
  9 10  2  0
 11  9  1  0
 12 11  1  0
 12 13  1  0
 13 15  1  0
 14 13  2  0
 15 16  1  0
 16 17  1  1
 17 18  1  0
 18 22  1  0
 19 18  2  0
 20 16  1  0
 20 21  1  0
 23 20  2  0
M  END
$$$$
