HGD.pdb
     RDKit          3D

 23 23  0  0  1  0  0  0  0  0999 V2000
   10.0039  -15.7433   19.9490 N   0  0  0  0  0  0  0  0  0  0  0  0
    9.6538  -16.2164   18.6241 C   0  0  1  0  0  0  0  0  0  0  0  0
    9.6097  -14.9762   17.7274 C   0  0  0  0  0  0  0  0  0  0  0  0
    8.6647  -14.0297   18.3762 C   0  0  0  0  0  0  0  0  0  0  0  0
    7.2699  -14.1408   18.3655 C   0  0  0  0  0  0  0  0  0  0  0  0
    6.7423  -13.1112   19.0497 N   0  0  0  0  0  0  0  0  0  0  0  0
    7.7507  -12.3468   19.4967 C   0  0  0  0  0  0  0  0  0  0  0  0
    8.9176  -12.9134   19.0821 N   0  0  0  0  0  0  0  0  0  0  0  0
   10.6047  -17.2216   18.1186 C   0  0  0  0  0  0  0  0  0  0  0  0
   10.3980  -17.7569   17.0185 O   0  0  0  0  0  0  0  0  0  0  0  0
   11.7376  -17.5483   18.9139 N   0  0  0  0  0  0  0  0  0  0  0  0
   12.6860  -18.4886   18.3969 C   0  0  0  0  0  0  0  0  0  0  0  0
   14.0725  -18.0446   18.7008 C   0  0  0  0  0  0  0  0  0  0  0  0
   15.0400  -18.8263   18.4534 O   0  0  0  0  0  0  0  0  0  0  0  0
   14.3841  -16.7917   19.2546 N   0  0  0  0  0  0  0  0  0  0  0  0
   15.7536  -16.3851   19.5718 C   0  0  1  0  0  0  0  0  0  0  0  0
   15.7896  -14.8973   19.2948 C   0  0  0  0  0  0  0  0  0  0  0  0
   17.1137  -14.3320   19.5358 C   0  0  0  0  0  0  0  0  0  0  0  0
   17.3683  -13.6296   20.5397 O   0  0  0  0  0  0  0  0  0  0  0  0
   16.0687  -16.6039   20.9903 C   0  0  0  0  0  0  0  0  0  0  0  0
   17.3200  -16.7980   21.5236 O   0  0  0  0  0  0  0  0  0  0  0  0
   18.1351  -14.5708   18.6331 O   0  0  0  0  0  0  0  0  0  0  0  0
   15.0869  -16.6161   21.8094 O   0  0  0  0  0  0  0  0  0  0  0  0
  2  1  1  1
  2  3  1  0
  4  3  1  0
  4  5  2  0
  6  5  1  0
  7  6  1  0
  8  7  2  0
  8  4  1  0
  9  2  1  0
  9 10  2  0
 11  9  1  0
 12 11  1  0
 12 13  1  0
 13 15  1  0
 14 13  2  0
 15 16  1  0
 16 17  1  1
 17 18  1  0
 18 22  1  0
 19 18  2  0
 20 16  1  0
 20 21  1  0
 23 20  2  0
M  END
$$$$
