HGD.pdb
     RDKit          3D

 23 23  0  0  1  0  0  0  0  0999 V2000
    8.9878  -15.5474   19.2239 N   0  0  0  0  0  0  0  0  0  0  0  0
    8.7874  -14.1389   19.5024 C   0  0  1  0  0  0  0  0  0  0  0  0
    7.3762  -13.8048   19.0114 C   0  0  0  0  0  0  0  0  0  0  0  0
    7.3840  -14.0337   17.5425 C   0  0  0  0  0  0  0  0  0  0  0  0
    7.8833  -13.1435   16.5853 C   0  0  0  0  0  0  0  0  0  0  0  0
    7.7257  -13.6796   15.3629 N   0  0  0  0  0  0  0  0  0  0  0  0
    7.1436  -14.8804   15.5057 C   0  0  0  0  0  0  0  0  0  0  0  0
    6.9391  -15.0879   16.8360 N   0  0  0  0  0  0  0  0  0  0  0  0
    8.9578  -13.8201   20.9305 C   0  0  0  0  0  0  0  0  0  0  0  0
    8.6868  -12.6795   21.3368 O   0  0  0  0  0  0  0  0  0  0  0  0
    9.4310  -14.8379   21.8040 N   0  0  0  0  0  0  0  0  0  0  0  0
    9.6201  -14.5168   23.1867 C   0  0  0  0  0  0  0  0  0  0  0  0
   10.1907  -15.6815   23.9146 C   0  0  0  0  0  0  0  0  0  0  0  0
   10.5030  -15.5537   25.1371 O   0  0  0  0  0  0  0  0  0  0  0  0
   10.4098  -16.9368   23.3232 N   0  0  0  0  0  0  0  0  0  0  0  0
   10.9989  -18.0620   24.0500 C   0  0  1  0  0  0  0  0  0  0  0  0
   10.5251  -19.2931   23.3073 C   0  0  0  0  0  0  0  0  0  0  0  0
   11.0607  -20.5191   23.8911 C   0  0  0  0  0  0  0  0  0  0  0  0
   11.8623  -21.2578   23.2765 O   0  0  0  0  0  0  0  0  0  0  0  0
   12.4673  -18.0261   24.0056 C   0  0  0  0  0  0  0  0  0  0  0  0
   13.2361  -17.4232   23.0394 O   0  0  0  0  0  0  0  0  0  0  0  0
   10.6796  -20.8933   25.1678 O   0  0  0  0  0  0  0  0  0  0  0  0
   13.0926  -18.6115   24.9549 O   0  0  0  0  0  0  0  0  0  0  0  0
  2  1  1  1
  2  3  1  0
  4  3  1  0
  4  5  2  0
  6  5  1  0
  7  6  1  0
  8  7  2  0
  8  4  1  0
  9  2  1  0
  9 10  2  0
 11  9  1  0
 12 11  1  0
 12 13  1  0
 13 15  1  0
 14 13  2  0
 15 16  1  0
 16 17  1  6
 17 18  1  0
 18 22  1  0
 19 18  2  0
 20 16  1  0
 20 21  1  0
 23 20  2  0
M  END
$$$$
