HGD.pdb
     RDKit          3D

 23 23  0  0  1  0  0  0  0  0999 V2000
   10.2624  -15.3225   17.6210 N   0  0  0  0  0  0  0  0  0  0  0  0
   11.2296  -14.4314   18.2310 C   0  0  1  0  0  0  0  0  0  0  0  0
   10.8174  -14.2971   19.6994 C   0  0  0  0  0  0  0  0  0  0  0  0
    9.4250  -13.7764   19.6925 C   0  0  0  0  0  0  0  0  0  0  0  0
    8.7163  -13.3704   18.5563 C   0  0  0  0  0  0  0  0  0  0  0  0
    7.4913  -12.9594   18.9267 N   0  0  0  0  0  0  0  0  0  0  0  0
    7.3929  -13.0886   20.2589 C   0  0  0  0  0  0  0  0  0  0  0  0
    8.5747  -13.5867   20.7169 N   0  0  0  0  0  0  0  0  0  0  0  0
   12.6107  -14.9257   18.0951 C   0  0  0  0  0  0  0  0  0  0  0  0
   12.8070  -16.1260   17.8503 O   0  0  0  0  0  0  0  0  0  0  0  0
   13.6826  -14.0037   18.2501 N   0  0  0  0  0  0  0  0  0  0  0  0
   14.9998  -14.4190   17.8719 C   0  0  0  0  0  0  0  0  0  0  0  0
   15.5680  -15.3339   18.8977 C   0  0  0  0  0  0  0  0  0  0  0  0
   16.7161  -15.8381   18.7082 O   0  0  0  0  0  0  0  0  0  0  0  0
   14.9016  -15.6811   20.0846 N   0  0  0  0  0  0  0  0  0  0  0  0
   15.3946  -16.7146   20.9957 C   0  0  1  0  0  0  0  0  0  0  0  0
   15.3086  -16.0903   22.3721 C   0  0  0  0  0  0  0  0  0  0  0  0
   16.4355  -15.2009   22.6364 C   0  0  0  0  0  0  0  0  0  0  0  0
   17.3353  -14.9927   21.7920 O   0  0  0  0  0  0  0  0  0  0  0  0
   14.5408  -17.9104   20.9711 C   0  0  0  0  0  0  0  0  0  0  0  0
   14.8209  -19.1204   21.5589 O   0  0  0  0  0  0  0  0  0  0  0  0
   16.5282  -14.5571   23.8579 O   0  0  0  0  0  0  0  0  0  0  0  0
   13.4308  -17.8201   20.3430 O   0  0  0  0  0  0  0  0  0  0  0  0
  2  1  1  6
  2  3  1  0
  4  3  1  0
  4  5  2  0
  6  5  1  0
  7  6  1  0
  8  7  2  0
  8  4  1  0
  9  2  1  0
  9 10  2  0
 11  9  1  0
 12 11  1  0
 12 13  1  0
 13 15  1  0
 14 13  2  0
 15 16  1  0
 16 17  1  1
 17 18  1  0
 18 22  1  0
 19 18  2  0
 20 16  1  0
 20 21  1  0
 23 20  2  0
M  END
$$$$
