KRH.pdb
     RDKit          3D

 31 31  0  0  1  0  0  0  0  0999 V2000
   27.3925  -23.0991  -17.0551 N   0  0  0  0  0  0  0  0  0  0  0  0
   27.3830  -21.8125  -16.4237 C   0  0  1  0  0  0  0  0  0  0  0  0
   26.7402  -20.7489  -17.2833 C   0  0  0  0  0  0  0  0  0  0  0  0
   26.7235  -21.2191  -18.7120 C   0  0  0  0  0  0  0  0  0  0  0  0
   26.0438  -20.1984  -19.6068 C   0  0  0  0  0  0  0  0  0  0  0  0
   26.1483  -20.7188  -21.0322 C   0  0  0  0  0  0  0  0  0  0  0  0
   25.4093  -19.8234  -21.8819 N   0  0  0  0  0  0  0  0  0  0  0  0
   26.5992  -21.8353  -15.1450 C   0  0  0  0  0  0  0  0  0  0  0  0
   25.4543  -22.3503  -15.1197 O   0  0  0  0  0  0  0  0  0  0  0  0
   30.6115  -21.9260   -8.0776 N   0  0  0  0  0  0  0  0  0  0  0  0
   31.2258  -22.2926   -9.3117 C   0  0  0  0  0  0  0  0  0  0  0  0
   32.2688  -23.0254   -9.3246 N   0  0  0  0  0  0  0  0  0  0  0  0
   30.6646  -21.8339  -10.5227 N   0  0  0  0  0  0  0  0  0  0  0  0
   29.4021  -21.1090  -10.4711 C   0  0  0  0  0  0  0  0  0  0  0  0
   28.4876  -21.6435  -11.5593 C   0  0  0  0  0  0  0  0  0  0  0  0
   27.1914  -20.9218  -11.6073 C   0  0  0  0  0  0  0  0  0  0  0  0
   26.2552  -21.2542  -12.7157 C   0  0  2  0  0  0  0  0  0  0  0  0
   27.0963  -21.2933  -13.9372 N   0  0  0  0  0  0  0  0  0  0  0  0
   25.1941  -20.2708  -12.9783 C   0  0  0  0  0  0  0  0  0  0  0  0
   25.1531  -19.6389  -14.1027 O   0  0  0  0  0  0  0  0  0  0  0  0
   32.7331  -23.2600  -10.2329 N   0  0  0  0  0  0  0  0  0  0  0  0
   24.1568  -19.9295  -12.0786 C   0  0  2  0  0  0  0  0  0  0  0  0
   22.7519  -20.2095  -12.4024 C   0  0  0  0  0  0  0  0  0  0  0  0
   22.7322  -21.4372  -13.2871 C   0  0  0  0  0  0  0  0  0  0  0  0
   22.4944  -21.1140  -14.7089 C   0  0  0  0  0  0  0  0  0  0  0  0
   22.2409  -19.8648  -15.2101 N   0  0  0  0  0  0  0  0  0  0  0  0
   22.0719  -19.9555  -16.5395 C   0  0  0  0  0  0  0  0  0  0  0  0
   22.2210  -21.2484  -16.8453 N   0  0  0  0  0  0  0  0  0  0  0  0
   22.4786  -21.9727  -15.7486 C   0  0  0  0  0  0  0  0  0  0  0  0
   21.9526  -20.3711  -11.1722 O   0  0  0  0  0  0  0  0  0  0  0  0
   20.6804  -19.8240  -11.0304 O   0  0  0  0  0  0  0  0  0  0  0  0
  2  3  1  0
  2  1  1  6
  3  4  1  0
  4  5  1  0
  5  6  1  0
  7  6  1  0
  8  9  2  0
  8  2  1  0
 10 11  1  0
 11 12  2  0
 13 11  1  0
 13 14  1  0
 15 14  1  0
 15 16  1  0
 17 16  1  1
 17 19  1  0
 17 18  1  0
 18  8  1  0
 19 20  2  0
 21 22  1  0
 21 19  1  0
 22 23  1  6
 23 24  1  0
 24 25  2  0
 25 26  1  0
 27 26  1  0
 28 24  1  0
 28 27  2  0
 29 30  1  0
 29 22  1  0
 31 29  2  0
M  END
$$$$
