KRH.pdb
     RDKit          3D

 31 31  0  0  1  0  0  0  0  0999 V2000
   21.3935  -14.5589  -18.0819 N   0  0  0  0  0  0  0  0  0  0  0  0
   22.0222  -13.6015  -18.9435 C   0  0  1  0  0  0  0  0  0  0  0  0
   21.7713  -13.8846  -20.4066 C   0  0  0  0  0  0  0  0  0  0  0  0
   22.0771  -15.3309  -20.6841 C   0  0  0  0  0  0  0  0  0  0  0  0
   21.7666  -15.6793  -22.1286 C   0  0  0  0  0  0  0  0  0  0  0  0
   21.9892  -17.1761  -22.2816 C   0  0  0  0  0  0  0  0  0  0  0  0
   21.6551  -17.5338  -23.6345 N   0  0  0  0  0  0  0  0  0  0  0  0
   21.4995  -12.2171  -18.6982 C   0  0  0  0  0  0  0  0  0  0  0  0
   21.9498  -11.2497  -19.3600 O   0  0  0  0  0  0  0  0  0  0  0  0
   13.5738  -10.2384  -15.6554 N   0  0  0  0  0  0  0  0  0  0  0  0
   14.0966   -8.9409  -15.9342 C   0  0  0  0  0  0  0  0  0  0  0  0
   13.3618   -7.9061  -15.8148 N   0  0  0  0  0  0  0  0  0  0  0  0
   15.4409   -8.8143  -16.3451 N   0  0  0  0  0  0  0  0  0  0  0  0
   16.2501  -10.0210  -16.4506 C   0  0  0  0  0  0  0  0  0  0  0  0
   17.6289   -9.6408  -16.9611 C   0  0  0  0  0  0  0  0  0  0  0  0
   18.4968  -10.8269  -17.1691 C   0  0  0  0  0  0  0  0  0  0  0  0
   19.8892  -10.5913  -17.6393 C   0  0  2  0  0  0  0  0  0  0  0  0
   20.5008  -11.9394  -17.7363 N   0  0  0  0  0  0  0  0  0  0  0  0
   20.7501   -9.8130  -16.7365 C   0  0  0  0  0  0  0  0  0  0  0  0
   21.2041  -10.3416  -15.6504 O   0  0  0  0  0  0  0  0  0  0  0  0
   13.7588   -6.9566  -16.0062 N   0  0  0  0  0  0  0  0  0  0  0  0
   21.1557   -8.4741  -16.9481 C   0  0  2  0  0  0  0  0  0  0  0  0
   21.9309   -7.7492  -15.9330 C   0  0  0  0  0  0  0  0  0  0  0  0
   22.8690   -6.8162  -16.6677 C   0  0  0  0  0  0  0  0  0  0  0  0
   23.9845   -7.5275  -17.3250 C   0  0  0  0  0  0  0  0  0  0  0  0
   24.2416   -8.8693  -17.2267 N   0  0  0  0  0  0  0  0  0  0  0  0
   25.3352   -9.1569  -17.9515 C   0  0  0  0  0  0  0  0  0  0  0  0
   25.7407   -8.0007  -18.4865 N   0  0  0  0  0  0  0  0  0  0  0  0
   24.9350   -6.9956  -18.1199 C   0  0  0  0  0  0  0  0  0  0  0  0
   21.0360   -7.0462  -14.9931 O   0  0  0  0  0  0  0  0  0  0  0  0
   21.4841   -6.5253  -13.7825 O   0  0  0  0  0  0  0  0  0  0  0  0
  2  3  1  0
  2  1  1  1
  3  4  1  0
  4  5  1  0
  5  6  1  0
  7  6  1  0
  8  9  2  0
  8  2  1  0
 10 11  1  0
 11 12  2  0
 13 11  1  0
 13 14  1  0
 15 14  1  0
 15 16  1  0
 17 16  1  1
 17 19  1  0
 17 18  1  0
 18  8  1  0
 19 20  2  0
 21 22  1  0
 21 19  1  0
 22 23  1  6
 23 24  1  0
 24 25  2  0
 25 26  1  0
 27 26  1  0
 28 24  1  0
 28 27  2  0
 29 30  1  0
 29 22  1  0
 31 29  2  0
M  END
$$$$
