KRH.pdb
     RDKit          3D

 31 31  0  0  1  0  0  0  0  0999 V2000
   26.8856  -16.5117  -16.8175 N   0  0  0  0  0  0  0  0  0  0  0  0
   26.2948  -16.3920  -15.5172 C   0  0  1  0  0  0  0  0  0  0  0  0
   25.2182  -15.3329  -15.4642 C   0  0  0  0  0  0  0  0  0  0  0  0
   25.7132  -14.0972  -16.1644 C   0  0  0  0  0  0  0  0  0  0  0  0
   25.0675  -13.9578  -17.5313 C   0  0  0  0  0  0  0  0  0  0  0  0
   25.6892  -12.7376  -18.1931 C   0  0  0  0  0  0  0  0  0  0  0  0
   25.0306  -12.5401  -19.4569 N   0  0  0  0  0  0  0  0  0  0  0  0
   25.6332  -17.6706  -15.0960 C   0  0  0  0  0  0  0  0  0  0  0  0
   25.3452  -18.5407  -15.9542 O   0  0  0  0  0  0  0  0  0  0  0  0
   28.7967  -22.8774  -10.8348 N   0  0  0  0  0  0  0  0  0  0  0  0
   28.4096  -22.0107  -11.8994 C   0  0  0  0  0  0  0  0  0  0  0  0
   29.0931  -21.9581  -12.9742 N   0  0  0  0  0  0  0  0  0  0  0  0
   27.2576  -21.2091  -11.7501 N   0  0  0  0  0  0  0  0  0  0  0  0
   26.0449  -21.8280  -11.2319 C   0  0  0  0  0  0  0  0  0  0  0  0
   24.8922  -20.8524  -11.3927 C   0  0  0  0  0  0  0  0  0  0  0  0
   25.3145  -19.5877  -12.0449 C   0  0  0  0  0  0  0  0  0  0  0  0
   24.7117  -19.2551  -13.3645 C   0  0  2  0  0  0  0  0  0  0  0  0
   25.3097  -17.9528  -13.7486 N   0  0  0  0  0  0  0  0  0  0  0  0
   23.2547  -19.0576  -13.3749 C   0  0  0  0  0  0  0  0  0  0  0  0
   22.6346  -18.7144  -12.2965 O   0  0  0  0  0  0  0  0  0  0  0  0
   28.8891  -21.2216  -13.6894 N   0  0  0  0  0  0  0  0  0  0  0  0
   22.4183  -19.2108  -14.5057 C   0  0  2  0  0  0  0  0  0  0  0  0
   21.2142  -20.0498  -14.4479 C   0  0  0  0  0  0  0  0  0  0  0  0
   21.4292  -21.2080  -15.3979 C   0  0  0  0  0  0  0  0  0  0  0  0
   21.4865  -20.7848  -16.8121 C   0  0  0  0  0  0  0  0  0  0  0  0
   21.2364  -19.5205  -17.2759 N   0  0  0  0  0  0  0  0  0  0  0  0
   21.3784  -19.5111  -18.6115 C   0  0  0  0  0  0  0  0  0  0  0  0
   21.7119  -20.7585  -18.9582 N   0  0  0  0  0  0  0  0  0  0  0  0
   21.7839  -21.5512  -17.8811 C   0  0  0  0  0  0  0  0  0  0  0  0
   20.9421  -20.4815  -13.0629 O   0  0  0  0  0  0  0  0  0  0  0  0
   19.8165  -20.0649  -12.3578 O   0  0  0  0  0  0  0  0  0  0  0  0
  2  3  1  0
  2  1  1  6
  3  4  1  0
  4  5  1  0
  5  6  1  0
  7  6  1  0
  8  9  2  0
  8  2  1  0
 10 11  1  0
 11 12  2  0
 13 11  1  0
 13 14  1  0
 15 14  1  0
 15 16  1  0
 17 16  1  1
 17 19  1  0
 17 18  1  0
 18  8  1  0
 19 20  2  0
 21 22  1  0
 21 19  1  0
 22 23  1  6
 23 24  1  0
 24 25  2  0
 25 26  1  0
 27 26  1  0
 28 24  1  0
 28 27  2  0
 29 30  1  0
 29 22  1  0
 31 29  2  0
M  END
$$$$
