FVI.pdb
     RDKit          3D

 27 27  0  0  1  0  0  0  0  0999 V2000
    9.7087  -17.8335   20.3376 N   0  0  0  0  0  0  0  0  0  0  0  0
    9.3377  -16.4569   20.6225 C   0  0  1  0  0  0  0  0  0  0  0  0
    8.1803  -16.1298   19.6706 C   0  0  0  0  0  0  0  0  0  0  0  0
    7.8952  -14.6857   19.8258 C   0  0  0  0  0  0  0  0  0  0  0  0
    6.8697  -14.2221   20.6128 C   0  0  0  0  0  0  0  0  0  0  0  0
    6.5914  -12.8828   20.7677 C   0  0  0  0  0  0  0  0  0  0  0  0
    7.3896  -11.9895   20.0946 C   0  0  0  0  0  0  0  0  0  0  0  0
    8.4249  -12.4303   19.2987 C   0  0  0  0  0  0  0  0  0  0  0  0
    8.6871  -13.7832   19.1572 C   0  0  0  0  0  0  0  0  0  0  0  0
    8.8466  -16.3834   22.0299 C   0  0  0  0  0  0  0  0  0  0  0  0
    8.5027  -15.2877   22.5375 O   0  0  0  0  0  0  0  0  0  0  0  0
    6.1513  -18.7890   23.8977 C   0  0  0  0  0  0  0  0  0  0  0  0
    7.3871  -18.5362   24.6953 C   0  0  2  0  0  0  0  0  0  0  0  0
    7.1011  -18.4290   26.1918 C   0  0  0  0  0  0  0  0  0  0  0  0
    8.2388  -17.4209   24.2113 C   0  0  2  0  0  0  0  0  0  0  0  0
    8.7286  -17.4863   22.8815 N   0  0  0  0  0  0  0  0  0  0  0  0
    9.4195  -17.2987   25.1239 C   0  0  0  0  0  0  0  0  0  0  0  0
   10.4918  -17.9658   24.9168 O   0  0  0  0  0  0  0  0  0  0  0  0
    9.8923  -13.1647   29.2501 C   0  0  0  0  0  0  0  0  0  0  0  0
    9.6991  -14.5774   28.7234 C   0  0  0  0  0  0  0  0  0  0  0  0
   10.7392  -14.9938   27.7417 C   0  0  2  0  0  0  0  0  0  0  0  0
   10.7509  -13.9743   26.6222 C   0  0  0  0  0  0  0  0  0  0  0  0
   10.5684  -16.3729   27.1777 C   0  0  2  0  0  0  0  0  0  0  0  0
    9.4487  -16.4588   26.2602 N   0  0  0  0  0  0  0  0  0  0  0  0
   10.5749  -17.4539   28.1655 C   0  0  0  0  0  0  0  0  0  0  0  0
    9.5888  -18.1439   28.4826 O   0  0  0  0  0  0  0  0  0  0  0  0
   11.7793  -17.7618   28.8279 O   0  0  0  0  0  0  0  0  0  0  0  0
  2  1  1  6
  3  2  1  0
  4  3  1  0
  4  9  2  0
  5  4  1  0
  6  5  2  0
  6  7  1  0
  7  8  2  0
  8  9  1  0
 10  2  1  0
 11 10  2  0
 13 15  1  0
 13 12  1  6
 14 13  1  0
 15 16  1  6
 16 10  1  0
 17 18  2  0
 17 15  1  0
 19 20  1  0
 20 21  1  0
 21 23  1  0
 21 22  1  6
 23 24  1  1
 24 17  1  0
 25 27  1  0
 25 23  1  0
 26 25  2  0
M  END
$$$$
