FVI.pdb
     RDKit          3D

 27 27  0  0  1  0  0  0  0  0999 V2000
    5.4977  -18.0647   20.3423 N   0  0  0  0  0  0  0  0  0  0  0  0
    6.3677  -17.0143   20.8457 C   0  0  1  0  0  0  0  0  0  0  0  0
    5.5705  -15.7107   20.7120 C   0  0  0  0  0  0  0  0  0  0  0  0
    6.5589  -14.6110   20.6455 C   0  0  0  0  0  0  0  0  0  0  0  0
    7.2447  -14.3113   19.4940 C   0  0  0  0  0  0  0  0  0  0  0  0
    8.1668  -13.2921   19.4155 C   0  0  0  0  0  0  0  0  0  0  0  0
    8.3938  -12.5562   20.5536 C   0  0  0  0  0  0  0  0  0  0  0  0
    7.7180  -12.8377   21.7213 C   0  0  0  0  0  0  0  0  0  0  0  0
    6.7939  -13.8683   21.7777 C   0  0  0  0  0  0  0  0  0  0  0  0
    6.6345  -17.2762   22.2905 C   0  0  0  0  0  0  0  0  0  0  0  0
    5.6907  -17.4032   23.1089 O   0  0  0  0  0  0  0  0  0  0  0  0
    8.5526  -20.1770   23.9105 C   0  0  0  0  0  0  0  0  0  0  0  0
    9.0153  -18.8891   24.5060 C   0  0  2  0  0  0  0  0  0  0  0  0
    9.3154  -19.0136   25.9983 C   0  0  0  0  0  0  0  0  0  0  0  0
    8.1657  -17.7091   24.2068 C   0  0  2  0  0  0  0  0  0  0  0  0
    7.9120  -17.3997   22.8458 N   0  0  0  0  0  0  0  0  0  0  0  0
    8.7933  -16.5043   24.8363 C   0  0  0  0  0  0  0  0  0  0  0  0
    9.8163  -15.9386   24.3154 O   0  0  0  0  0  0  0  0  0  0  0  0
    6.3406  -12.0791   26.2987 C   0  0  0  0  0  0  0  0  0  0  0  0
    7.4062  -13.0880   25.9023 C   0  0  0  0  0  0  0  0  0  0  0  0
    8.1117  -13.6959   27.0650 C   0  0  2  0  0  0  0  0  0  0  0  0
    8.8997  -12.5997   27.7506 C   0  0  0  0  0  0  0  0  0  0  0  0
    9.0151  -14.8460   26.7327 C   0  0  2  0  0  0  0  0  0  0  0  0
    8.3216  -15.9060   26.0267 N   0  0  0  0  0  0  0  0  0  0  0  0
    9.8241  -15.3433   27.8473 C   0  0  0  0  0  0  0  0  0  0  0  0
    9.4655  -16.2103   28.6652 O   0  0  0  0  0  0  0  0  0  0  0  0
   11.1173  -14.8177   28.0358 O   0  0  0  0  0  0  0  0  0  0  0  0
  2  1  1  1
  3  2  1  0
  4  3  1  0
  4  9  2  0
  5  4  1  0
  6  5  2  0
  6  7  1  0
  7  8  2  0
  8  9  1  0
 10  2  1  0
 11 10  2  0
 13 15  1  0
 13 12  1  1
 14 13  1  0
 15 16  1  6
 16 10  1  0
 17 18  2  0
 17 15  1  0
 19 20  1  0
 20 21  1  0
 21 23  1  0
 21 22  1  6
 23 24  1  1
 24 17  1  0
 25 27  1  0
 25 23  1  0
 26 25  2  0
M  END
$$$$
