FVI.pdb
     RDKit          3D

 27 27  0  0  1  0  0  0  0  0999 V2000
    6.1945  -20.1720   22.6242 N   0  0  0  0  0  0  0  0  0  0  0  0
    6.6799  -19.4217   23.7711 C   0  0  1  0  0  0  0  0  0  0  0  0
    7.5059  -20.4129   24.6005 C   0  0  0  0  0  0  0  0  0  0  0  0
    7.9202  -19.6996   25.8294 C   0  0  0  0  0  0  0  0  0  0  0  0
    9.2119  -19.2794   26.0320 C   0  0  0  0  0  0  0  0  0  0  0  0
    9.6135  -18.6150   27.1690 C   0  0  0  0  0  0  0  0  0  0  0  0
    8.6609  -18.3732   28.1293 C   0  0  0  0  0  0  0  0  0  0  0  0
    7.3580  -18.7851   27.9490 C   0  0  0  0  0  0  0  0  0  0  0  0
    6.9758  -19.4524   26.7967 C   0  0  0  0  0  0  0  0  0  0  0  0
    7.5752  -18.3345   23.2776 C   0  0  0  0  0  0  0  0  0  0  0  0
    8.6525  -18.6017   22.6904 O   0  0  0  0  0  0  0  0  0  0  0  0
    6.2197  -14.3836   22.1060 C   0  0  0  0  0  0  0  0  0  0  0  0
    7.4341  -15.1584   21.7160 C   0  0  2  0  0  0  0  0  0  0  0  0
    7.2059  -16.0064   20.4664 C   0  0  0  0  0  0  0  0  0  0  0  0
    8.0681  -15.9384   22.8084 C   0  0  2  0  0  0  0  0  0  0  0  0
    7.3076  -16.9692   23.4181 N   0  0  0  0  0  0  0  0  0  0  0  0
    8.4876  -14.9867   23.8855 C   0  0  0  0  0  0  0  0  0  0  0  0
    8.4467  -13.7202   23.7066 O   0  0  0  0  0  0  0  0  0  0  0  0
    6.1192  -11.9845   25.8198 C   0  0  0  0  0  0  0  0  0  0  0  0
    7.3949  -12.7555   25.5218 C   0  0  0  0  0  0  0  0  0  0  0  0
    7.7129  -13.7957   26.5395 C   0  0  2  0  0  0  0  0  0  0  0  0
    7.7252  -13.1242   27.8966 C   0  0  0  0  0  0  0  0  0  0  0  0
    9.0015  -14.5307   26.3192 C   0  0  2  0  0  0  0  0  0  0  0  0
    8.9513  -15.3956   25.1563 N   0  0  0  0  0  0  0  0  0  0  0  0
    9.5439  -15.2029   27.5017 C   0  0  0  0  0  0  0  0  0  0  0  0
   10.0699  -14.6326   28.4749 O   0  0  0  0  0  0  0  0  0  0  0  0
    9.4802  -16.6083   27.5734 O   0  0  0  0  0  0  0  0  0  0  0  0
  2  1  1  6
  3  2  1  0
  4  3  1  0
  4  9  2  0
  5  4  1  0
  6  5  2  0
  6  7  1  0
  7  8  2  0
  8  9  1  0
 10  2  1  0
 11 10  2  0
 13 15  1  0
 13 12  1  1
 14 13  1  0
 15 16  1  1
 16 10  1  0
 17 18  2  0
 17 15  1  0
 19 20  1  0
 20 21  1  0
 21 23  1  0
 21 22  1  1
 23 24  1  6
 24 17  1  0
 25 27  1  0
 25 23  1  0
 26 25  2  0
M  END
$$$$
