FVI.pdb
     RDKit          3D

 27 27  0  0  1  0  0  0  0  0999 V2000
    7.9663  -18.0670   18.2823 N   0  0  0  0  0  0  0  0  0  0  0  0
    8.2466  -16.8615   19.0452 C   0  0  1  0  0  0  0  0  0  0  0  0
    7.4590  -15.7389   18.3581 C   0  0  0  0  0  0  0  0  0  0  0  0
    7.6254  -14.5281   19.1930 C   0  0  0  0  0  0  0  0  0  0  0  0
    8.6440  -13.6304   18.9864 C   0  0  0  0  0  0  0  0  0  0  0  0
    8.8127  -12.4999   19.7536 C   0  0  0  0  0  0  0  0  0  0  0  0
    7.9087  -12.2819   20.7652 C   0  0  0  0  0  0  0  0  0  0  0  0
    6.8779  -13.1683   20.9923 C   0  0  0  0  0  0  0  0  0  0  0  0
    6.7270  -14.3000   20.2077 C   0  0  0  0  0  0  0  0  0  0  0  0
    7.7220  -17.0479   20.4297 C   0  0  0  0  0  0  0  0  0  0  0  0
    6.5498  -17.4526   20.6272 O   0  0  0  0  0  0  0  0  0  0  0  0
    7.7025  -18.6103   24.8614 C   0  0  0  0  0  0  0  0  0  0  0  0
    8.2222  -18.4045   23.4776 C   0  0  2  0  0  0  0  0  0  0  0  0
    9.6774  -18.8448   23.3320 C   0  0  0  0  0  0  0  0  0  0  0  0
    7.9907  -17.0542   22.9061 C   0  0  2  0  0  0  0  0  0  0  0  0
    8.4591  -16.7986   21.5916 N   0  0  0  0  0  0  0  0  0  0  0  0
    8.6176  -16.0433   23.8154 C   0  0  0  0  0  0  0  0  0  0  0  0
    9.8573  -15.7407   23.7192 O   0  0  0  0  0  0  0  0  0  0  0  0
    5.6875  -12.0535   26.9232 C   0  0  0  0  0  0  0  0  0  0  0  0
    6.4087  -13.3586   26.6276 C   0  0  0  0  0  0  0  0  0  0  0  0
    7.7093  -13.1737   25.9253 C   0  0  2  0  0  0  0  0  0  0  0  0
    7.4197  -12.5536   24.5745 C   0  0  0  0  0  0  0  0  0  0  0  0
    8.5242  -14.4209   25.7530 C   0  0  2  0  0  0  0  0  0  0  0  0
    7.9122  -15.3564   24.8293 N   0  0  0  0  0  0  0  0  0  0  0  0
    8.9580  -15.0571   26.9985 C   0  0  0  0  0  0  0  0  0  0  0  0
    9.7224  -14.5469   27.8380 O   0  0  0  0  0  0  0  0  0  0  0  0
    8.4900  -16.3511   27.2995 O   0  0  0  0  0  0  0  0  0  0  0  0
  2  1  1  6
  3  2  1  0
  4  3  1  0
  4  9  2  0
  5  4  1  0
  6  5  2  0
  6  7  1  0
  7  8  2  0
  8  9  1  0
 10  2  1  0
 11 10  2  0
 13 15  1  0
 13 12  1  1
 14 13  1  0
 15 16  1  6
 16 10  1  0
 17 18  2  0
 17 15  1  0
 19 20  1  0
 20 21  1  0
 21 23  1  0
 21 22  1  6
 23 24  1  1
 24 17  1  0
 25 27  1  0
 25 23  1  0
 26 25  2  0
M  END
$$$$
