FVI.pdb
     RDKit          3D

 27 27  0  0  1  0  0  0  0  0999 V2000
    5.6734  -18.6331   24.7827 N   0  0  0  0  0  0  0  0  0  0  0  0
    5.9369  -17.2074   24.8920 C   0  0  1  0  0  0  0  0  0  0  0  0
    6.1462  -16.9339   26.3867 C   0  0  0  0  0  0  0  0  0  0  0  0
    6.2996  -15.4693   26.5351 C   0  0  0  0  0  0  0  0  0  0  0  0
    5.2230  -14.6165   26.5361 C   0  0  0  0  0  0  0  0  0  0  0  0
    5.3485  -13.2525   26.6730 C   0  0  0  0  0  0  0  0  0  0  0  0
    6.6179  -12.7455   26.8136 C   0  0  0  0  0  0  0  0  0  0  0  0
    7.7141  -13.5810   26.8157 C   0  0  0  0  0  0  0  0  0  0  0  0
    7.5646  -14.9512   26.6764 C   0  0  0  0  0  0  0  0  0  0  0  0
    7.2015  -16.9050   24.1596 C   0  0  0  0  0  0  0  0  0  0  0  0
    8.1209  -17.7565   24.0794 O   0  0  0  0  0  0  0  0  0  0  0  0
    7.3529  -14.0923   20.9649 C   0  0  0  0  0  0  0  0  0  0  0  0
    8.5714  -14.2555   21.8110 C   0  0  2  0  0  0  0  0  0  0  0  0
    9.8613  -14.1125   21.0059 C   0  0  0  0  0  0  0  0  0  0  0  0
    8.5875  -15.4618   22.6760 C   0  0  2  0  0  0  0  0  0  0  0  0
    7.4698  -15.6912   23.5191 N   0  0  0  0  0  0  0  0  0  0  0  0
    9.8059  -15.4035   23.5442 C   0  0  0  0  0  0  0  0  0  0  0  0
   10.9783  -15.3121   23.0395 O   0  0  0  0  0  0  0  0  0  0  0  0
   10.0133  -12.6878   28.3549 C   0  0  0  0  0  0  0  0  0  0  0  0
   10.3634  -13.3192   27.0172 C   0  0  0  0  0  0  0  0  0  0  0  0
   10.7092  -14.7649   27.1140 C   0  0  2  0  0  0  0  0  0  0  0  0
   11.9387  -14.8871   27.9894 C   0  0  0  0  0  0  0  0  0  0  0  0
   10.9427  -15.4541   25.8026 C   0  0  2  0  0  0  0  0  0  0  0  0
    9.7652  -15.4431   24.9564 N   0  0  0  0  0  0  0  0  0  0  0  0
   11.5591  -16.7790   25.8976 C   0  0  0  0  0  0  0  0  0  0  0  0
   10.9451  -17.8613   25.8689 O   0  0  0  0  0  0  0  0  0  0  0  0
   12.9583  -16.8693   26.0333 O   0  0  0  0  0  0  0  0  0  0  0  0
  2  1  1  1
  3  2  1  0
  4  3  1  0
  4  9  2  0
  5  4  1  0
  6  5  2  0
  6  7  1  0
  7  8  2  0
  8  9  1  0
 10  2  1  0
 11 10  2  0
 13 15  1  0
 13 12  1  6
 14 13  1  0
 15 16  1  1
 16 10  1  0
 17 18  2  0
 17 15  1  0
 19 20  1  0
 20 21  1  0
 21 23  1  0
 21 22  1  1
 23 24  1  1
 24 17  1  0
 25 27  1  0
 25 23  1  0
 26 25  2  0
M  END
$$$$
