FVI.pdb
     RDKit          3D

 27 27  0  0  1  0  0  0  0  0999 V2000
    5.6276  -18.2252   24.4893 N   0  0  0  0  0  0  0  0  0  0  0  0
    6.3346  -16.9550   24.5075 C   0  0  1  0  0  0  0  0  0  0  0  0
    6.0771  -16.3524   25.8943 C   0  0  0  0  0  0  0  0  0  0  0  0
    6.2267  -14.8863   25.7571 C   0  0  0  0  0  0  0  0  0  0  0  0
    7.3252  -14.3147   25.1633 C   0  0  0  0  0  0  0  0  0  0  0  0
    7.4796  -12.9534   25.0278 C   0  0  0  0  0  0  0  0  0  0  0  0
    6.4761  -12.1518   25.5164 C   0  0  0  0  0  0  0  0  0  0  0  0
    5.3639  -12.7019   26.1165 C   0  0  0  0  0  0  0  0  0  0  0  0
    5.2292  -14.0750   26.2422 C   0  0  0  0  0  0  0  0  0  0  0  0
    7.7944  -17.2266   24.3577 C   0  0  0  0  0  0  0  0  0  0  0  0
    8.3023  -18.2878   24.7968 O   0  0  0  0  0  0  0  0  0  0  0  0
   10.8515  -14.4434   22.5909 C   0  0  0  0  0  0  0  0  0  0  0  0
   10.7955  -15.9298   22.4695 C   0  0  2  0  0  0  0  0  0  0  0  0
   10.3159  -16.3827   21.0920 C   0  0  0  0  0  0  0  0  0  0  0  0
   10.0792  -16.6302   23.5650 C   0  0  2  0  0  0  0  0  0  0  0  0
    8.6978  -16.3576   23.7379 N   0  0  0  0  0  0  0  0  0  0  0  0
   10.7686  -16.3154   24.8562 C   0  0  0  0  0  0  0  0  0  0  0  0
   11.4850  -15.2632   24.9882 O   0  0  0  0  0  0  0  0  0  0  0  0
    9.9230  -13.0907   27.5895 C   0  0  0  0  0  0  0  0  0  0  0  0
   10.7564  -14.2665   27.1064 C   0  0  0  0  0  0  0  0  0  0  0  0
   10.4920  -15.5291   27.8513 C   0  0  2  0  0  0  0  0  0  0  0  0
   10.8872  -15.3037   29.2955 C   0  0  0  0  0  0  0  0  0  0  0  0
   11.1864  -16.7446   27.3132 C   0  0  2  0  0  0  0  0  0  0  0  0
   10.6885  -17.1315   26.0073 N   0  0  0  0  0  0  0  0  0  0  0  0
   11.2746  -17.8728   28.2424 C   0  0  0  0  0  0  0  0  0  0  0  0
   10.6094  -18.9220   28.1645 O   0  0  0  0  0  0  0  0  0  0  0  0
   12.1758  -17.7949   29.3222 O   0  0  0  0  0  0  0  0  0  0  0  0
  2  1  1  1
  3  2  1  0
  4  3  1  0
  4  9  2  0
  5  4  1  0
  6  5  2  0
  6  7  1  0
  7  8  2  0
  8  9  1  0
 10  2  1  0
 11 10  2  0
 13 15  1  0
 13 12  1  1
 14 13  1  0
 15 16  1  1
 16 10  1  0
 17 18  2  0
 17 15  1  0
 19 20  1  0
 20 21  1  0
 21 23  1  0
 21 22  1  1
 23 24  1  6
 24 17  1  0
 25 27  1  0
 25 23  1  0
 26 25  2  0
M  END
$$$$
