MCK.pdb
     RDKit          3D

 24 23  0  0  1  0  0  0  0  0999 V2000
    2.4980  -20.1909   22.4930 C   0  0  0  0  0  0  0  0  0  0  0  0
    2.0675  -18.8600   21.3344 S   0  0  0  0  0  0  0  0  0  0  0  0
    3.1443  -18.9600   19.9035 C   0  0  0  0  0  0  0  0  0  0  0  0
    4.6027  -18.9074   20.2301 C   0  0  0  0  0  0  0  0  0  0  0  0
    5.3328  -17.8026   19.5248 C   0  0  2  0  0  0  0  0  0  0  0  0
    5.7512  -18.1875   18.2031 N   0  0  0  0  0  0  0  0  0  0  0  0
    6.4668  -17.2590   20.3213 C   0  0  0  0  0  0  0  0  0  0  0  0
    7.5489  -17.8758   20.4698 O   0  0  0  0  0  0  0  0  0  0  0  0
    6.3273  -15.9981   20.9387 N   0  0  0  0  0  0  0  0  0  0  0  0
    7.3958  -15.5194   21.7900 C   0  0  1  0  0  0  0  0  0  0  0  0
    6.9655  -14.1319   22.2850 C   0  0  0  0  0  0  0  0  0  0  0  0
    8.2029  -13.5277   23.4422 S   0  0  0  0  0  0  0  0  0  0  0  0
    7.5128  -16.3730   23.0232 C   0  0  0  0  0  0  0  0  0  0  0  0
    6.4889  -16.5684   23.6838 O   0  0  0  0  0  0  0  0  0  0  0  0
    8.7608  -16.9187   23.3891 N   0  0  0  0  0  0  0  0  0  0  0  0
    8.9884  -17.7019   24.6120 C   0  0  1  0  0  0  0  0  0  0  0  0
    9.2582  -19.0885   24.1954 C   0  0  0  0  0  0  0  0  0  0  0  0
    9.6547  -20.1073   25.1806 C   0  0  0  0  0  0  0  0  0  0  0  0
    9.8363  -21.5035   24.8151 C   0  0  0  0  0  0  0  0  0  0  0  0
   10.2124  -22.5515   25.7658 C   0  0  0  0  0  0  0  0  0  0  0  0
   10.2773  -23.8831   25.3024 N   0  0  0  0  0  0  0  0  0  0  0  0
   10.1595  -17.0703   25.2949 C   0  0  0  0  0  0  0  0  0  0  0  0
   10.3637  -17.3085   26.6315 O   0  0  0  0  0  0  0  0  0  0  0  0
   10.9870  -16.3232   24.7168 O   0  0  0  0  0  0  0  0  0  0  0  0
  1  2  1  0
  2  3  1  0
  4  3  1  0
  5  4  1  0
  5  6  1  6
  7  8  2  0
  7  5  1  0
  9  7  1  0
 10  9  1  0
 10 11  1  1
 12 11  1  0
 13 15  1  0
 13 10  1  0
 14 13  2  0
 16 15  1  0
 16 22  1  0
 16 17  1  6
 17 18  1  0
 19 18  1  0
 20 19  1  0
 20 21  1  0
 22 23  1  0
 24 22  2  0
M  END
$$$$
