MCK.pdb
     RDKit          3D

 24 23  0  0  1  0  0  0  0  0999 V2000
    8.5824  -11.4434   18.8760 C   0  0  0  0  0  0  0  0  0  0  0  0
    7.0205  -12.2904   18.4989 S   0  0  0  0  0  0  0  0  0  0  0  0
    6.9941  -13.8715   19.3453 C   0  0  0  0  0  0  0  0  0  0  0  0
    8.3287  -14.3167   19.8522 C   0  0  0  0  0  0  0  0  0  0  0  0
    8.2631  -15.5529   20.7000 C   0  0  2  0  0  0  0  0  0  0  0  0
    6.9078  -15.9559   20.9659 N   0  0  0  0  0  0  0  0  0  0  0  0
    9.0554  -15.4356   21.9547 C   0  0  0  0  0  0  0  0  0  0  0  0
   10.3075  -15.5082   21.9759 O   0  0  0  0  0  0  0  0  0  0  0  0
    8.3780  -15.2342   23.1758 N   0  0  0  0  0  0  0  0  0  0  0  0
    9.1077  -15.4143   24.4130 C   0  0  1  0  0  0  0  0  0  0  0  0
    8.2266  -14.8269   25.5239 C   0  0  0  0  0  0  0  0  0  0  0  0
    6.6436  -15.6811   25.5107 S   0  0  0  0  0  0  0  0  0  0  0  0
    9.2491  -16.8766   24.7361 C   0  0  0  0  0  0  0  0  0  0  0  0
    8.5897  -17.6773   24.0677 O   0  0  0  0  0  0  0  0  0  0  0  0
   10.1120  -17.2912   25.7718 N   0  0  0  0  0  0  0  0  0  0  0  0
   11.1827  -18.2839   25.6014 C   0  0  1  0  0  0  0  0  0  0  0  0
   12.1429  -17.7249   24.6346 C   0  0  0  0  0  0  0  0  0  0  0  0
   13.4218  -18.4017   24.3661 C   0  0  0  0  0  0  0  0  0  0  0  0
   14.1009  -18.2863   23.0850 C   0  0  0  0  0  0  0  0  0  0  0  0
   15.3380  -18.9954   22.7527 C   0  0  0  0  0  0  0  0  0  0  0  0
   15.9117  -18.7798   21.4813 N   0  0  0  0  0  0  0  0  0  0  0  0
   11.7830  -18.4807   26.9571 C   0  0  0  0  0  0  0  0  0  0  0  0
   12.1075  -17.3807   27.7117 O   0  0  0  0  0  0  0  0  0  0  0  0
   12.0134  -19.6066   27.4633 O   0  0  0  0  0  0  0  0  0  0  0  0
  1  2  1  0
  2  3  1  0
  4  3  1  0
  5  4  1  0
  5  6  1  1
  7  8  2  0
  7  5  1  0
  9  7  1  0
 10  9  1  0
 10 11  1  1
 12 11  1  0
 13 15  1  0
 13 10  1  0
 14 13  2  0
 16 15  1  0
 16 22  1  0
 16 17  1  6
 17 18  1  0
 19 18  1  0
 20 19  1  0
 20 21  1  0
 22 23  1  0
 24 22  2  0
M  END
$$$$
