MCK.pdb
     RDKit          3D

 24 23  0  0  1  0  0  0  0  0999 V2000
    7.5828  -11.4482   19.2454 C   0  0  0  0  0  0  0  0  0  0  0  0
    8.2496  -13.0553   19.7664 S   0  0  0  0  0  0  0  0  0  0  0  0
    7.0160  -14.3233   19.4708 C   0  0  0  0  0  0  0  0  0  0  0  0
    7.4317  -15.6938   19.9011 C   0  0  0  0  0  0  0  0  0  0  0  0
    8.9178  -15.8534   20.0314 C   0  0  2  0  0  0  0  0  0  0  0  0
    9.5304  -16.2523   18.7922 N   0  0  0  0  0  0  0  0  0  0  0  0
    9.3060  -16.7563   21.1494 C   0  0  0  0  0  0  0  0  0  0  0  0
    8.8541  -16.6291   22.3126 O   0  0  0  0  0  0  0  0  0  0  0  0
   10.2199  -17.8017   20.8993 N   0  0  0  0  0  0  0  0  0  0  0  0
   10.5341  -18.7213   21.9723 C   0  0  1  0  0  0  0  0  0  0  0  0
   11.4875  -19.7677   21.3793 C   0  0  0  0  0  0  0  0  0  0  0  0
   11.9459  -20.9253   22.6776 S   0  0  0  0  0  0  0  0  0  0  0  0
   11.3149  -18.0260   23.0538 C   0  0  0  0  0  0  0  0  0  0  0  0
   12.3072  -17.3751   22.7156 O   0  0  0  0  0  0  0  0  0  0  0  0
   10.9055  -18.1305   24.3994 N   0  0  0  0  0  0  0  0  0  0  0  0
   11.6025  -17.4878   25.5227 C   0  0  1  0  0  0  0  0  0  0  0  0
   10.5828  -16.7897   26.3239 C   0  0  0  0  0  0  0  0  0  0  0  0
   10.9144  -15.5572   27.0566 C   0  0  0  0  0  0  0  0  0  0  0  0
    9.9345  -14.8591   27.8740 C   0  0  0  0  0  0  0  0  0  0  0  0
   10.2360  -13.6627   28.6624 C   0  0  0  0  0  0  0  0  0  0  0  0
    9.1865  -13.0554   29.3846 N   0  0  0  0  0  0  0  0  0  0  0  0
   12.2702  -18.5911   26.2801 C   0  0  0  0  0  0  0  0  0  0  0  0
   13.4806  -18.3526   26.8825 O   0  0  0  0  0  0  0  0  0  0  0  0
   11.7884  -19.7439   26.4069 O   0  0  0  0  0  0  0  0  0  0  0  0
  1  2  1  0
  2  3  1  0
  4  3  1  0
  5  4  1  0
  5  6  1  6
  7  8  2  0
  7  5  1  0
  9  7  1  0
 10  9  1  0
 10 11  1  6
 12 11  1  0
 13 15  1  0
 13 10  1  0
 14 13  2  0
 16 15  1  0
 16 22  1  0
 16 17  1  1
 17 18  1  0
 19 18  1  0
 20 19  1  0
 20 21  1  0
 22 23  1  0
 24 22  2  0
M  END
$$$$
