MCK.pdb
     RDKit          3D

 24 23  0  0  1  0  0  0  0  0999 V2000
    6.5697  -10.7466   26.1443 C   0  0  0  0  0  0  0  0  0  0  0  0
    5.5109  -12.1937   25.8549 S   0  0  0  0  0  0  0  0  0  0  0  0
    6.5376  -13.5800   25.3638 C   0  0  0  0  0  0  0  0  0  0  0  0
    7.1752  -13.4237   24.0202 C   0  0  0  0  0  0  0  0  0  0  0  0
    7.9822  -14.6167   23.6000 C   0  0  2  0  0  0  0  0  0  0  0  0
    7.1725  -15.7986   23.4672 N   0  0  0  0  0  0  0  0  0  0  0  0
    9.1598  -14.8559   24.4785 C   0  0  0  0  0  0  0  0  0  0  0  0
   10.3410  -14.6904   24.0900 O   0  0  0  0  0  0  0  0  0  0  0  0
    8.9480  -15.2871   25.8051 N   0  0  0  0  0  0  0  0  0  0  0  0
   10.0969  -15.4824   26.6639 C   0  0  1  0  0  0  0  0  0  0  0  0
    9.8517  -14.6275   27.9147 C   0  0  0  0  0  0  0  0  0  0  0  0
   11.1973  -14.9108   29.0744 S   0  0  0  0  0  0  0  0  0  0  0  0
   10.1594  -16.9049   27.1491 C   0  0  0  0  0  0  0  0  0  0  0  0
    9.1099  -17.4236   27.5393 O   0  0  0  0  0  0  0  0  0  0  0  0
   11.3873  -17.5986   27.1478 N   0  0  0  0  0  0  0  0  0  0  0  0
   11.5351  -19.0084   27.5371 C   0  0  1  0  0  0  0  0  0  0  0  0
   12.6076  -19.5785   26.7042 C   0  0  0  0  0  0  0  0  0  0  0  0
   13.0428  -20.9725   26.8870 C   0  0  0  0  0  0  0  0  0  0  0  0
   14.0778  -21.5717   26.0591 C   0  0  0  0  0  0  0  0  0  0  0  0
   14.4902  -22.9730   26.1587 C   0  0  0  0  0  0  0  0  0  0  0  0
   15.5570  -23.4157   25.3475 N   0  0  0  0  0  0  0  0  0  0  0  0
   11.8818  -19.0009   28.9920 C   0  0  0  0  0  0  0  0  0  0  0  0
   12.6616  -17.9863   29.4892 O   0  0  0  0  0  0  0  0  0  0  0  0
   11.4988  -19.8763   29.8069 O   0  0  0  0  0  0  0  0  0  0  0  0
  1  2  1  0
  2  3  1  0
  4  3  1  0
  5  4  1  0
  5  6  1  1
  7  8  2  0
  7  5  1  0
  9  7  1  0
 10  9  1  0
 10 11  1  1
 12 11  1  0
 13 15  1  0
 13 10  1  0
 14 13  2  0
 16 15  1  0
 16 22  1  0
 16 17  1  6
 17 18  1  0
 19 18  1  0
 20 19  1  0
 20 21  1  0
 22 23  1  0
 24 22  2  0
M  END
$$$$
