MCK.pdb
     RDKit          3D

 24 23  0  0  1  0  0  0  0  0999 V2000
    6.2518  -11.1829   27.8477 C   0  0  0  0  0  0  0  0  0  0  0  0
    6.9135  -12.1847   26.4848 S   0  0  0  0  0  0  0  0  0  0  0  0
    5.7142  -13.4459   26.0510 C   0  0  0  0  0  0  0  0  0  0  0  0
    6.0793  -14.2479   24.8427 C   0  0  0  0  0  0  0  0  0  0  0  0
    6.6385  -15.6009   25.1710 C   0  0  2  0  0  0  0  0  0  0  0  0
    7.3147  -15.6138   26.4409 N   0  0  0  0  0  0  0  0  0  0  0  0
    7.4991  -16.1487   24.0870 C   0  0  0  0  0  0  0  0  0  0  0  0
    7.3955  -17.3265   23.6681 O   0  0  0  0  0  0  0  0  0  0  0  0
    8.4748  -15.3153   23.5005 N   0  0  0  0  0  0  0  0  0  0  0  0
    9.1544  -15.7744   22.3075 C   0  0  1  0  0  0  0  0  0  0  0  0
    9.3019  -14.5489   21.3955 C   0  0  0  0  0  0  0  0  0  0  0  0
    7.7258  -14.2472   20.5828 S   0  0  0  0  0  0  0  0  0  0  0  0
   10.5568  -16.2113   22.6321 C   0  0  0  0  0  0  0  0  0  0  0  0
   11.1975  -15.5292   23.4365 O   0  0  0  0  0  0  0  0  0  0  0  0
   11.0964  -17.3638   22.0242 N   0  0  0  0  0  0  0  0  0  0  0  0
   12.3752  -17.9756   22.4129 C   0  0  1  0  0  0  0  0  0  0  0  0
   12.4312  -19.3039   21.7792 C   0  0  0  0  0  0  0  0  0  0  0  0
   13.3544  -20.3369   22.2757 C   0  0  0  0  0  0  0  0  0  0  0  0
   13.2552  -20.8761   23.6230 C   0  0  0  0  0  0  0  0  0  0  0  0
   14.1511  -21.9040   24.1564 C   0  0  0  0  0  0  0  0  0  0  0  0
   14.1123  -22.1718   25.5416 N   0  0  0  0  0  0  0  0  0  0  0  0
   13.4425  -17.0557   21.9113 C   0  0  0  0  0  0  0  0  0  0  0  0
   14.5786  -16.8764   22.6609 O   0  0  0  0  0  0  0  0  0  0  0  0
   13.3696  -16.4247   20.8279 O   0  0  0  0  0  0  0  0  0  0  0  0
  1  2  1  0
  2  3  1  0
  4  3  1  0
  5  4  1  0
  5  6  1  1
  7  8  2  0
  7  5  1  0
  9  7  1  0
 10  9  1  0
 10 11  1  6
 12 11  1  0
 13 15  1  0
 13 10  1  0
 14 13  2  0
 16 15  1  0
 16 22  1  0
 16 17  1  6
 17 18  1  0
 19 18  1  0
 20 19  1  0
 20 21  1  0
 22 23  1  0
 24 22  2  0
M  END
$$$$
