HWG.pdb
     RDKit          3D

 29 31  0  0  1  0  0  0  0  0999 V2000
   10.0438  -16.0588   20.3412 N   0  0  0  0  0  0  0  0  0  0  0  0
    9.7841  -17.0410   21.3442 C   0  0  1  0  0  0  0  0  0  0  0  0
   10.6832  -18.2533   21.0675 C   0  0  0  0  0  0  0  0  0  0  0  0
   10.4480  -18.6355   19.6473 C   0  0  0  0  0  0  0  0  0  0  0  0
   10.3814  -17.8426   18.5237 C   0  0  0  0  0  0  0  0  0  0  0  0
   10.1490  -18.6405   17.4574 N   0  0  0  0  0  0  0  0  0  0  0  0
   10.0696  -19.9025   17.8824 C   0  0  0  0  0  0  0  0  0  0  0  0
   10.2500  -19.9003   19.2045 N   0  0  0  0  0  0  0  0  0  0  0  0
   10.1564  -16.5662   22.7145 C   0  0  0  0  0  0  0  0  0  0  0  0
   11.0021  -15.6531   22.8850 O   0  0  0  0  0  0  0  0  0  0  0  0
    9.5146  -17.1915   23.8080 N   0  0  0  0  0  0  0  0  0  0  0  0
    9.7220  -16.6434   25.1653 C   0  0  1  0  0  0  0  0  0  0  0  0
    8.3739  -16.4835   25.7526 C   0  0  0  0  0  0  0  0  0  0  0  0
    7.5561  -15.3644   25.2875 C   0  0  0  0  0  0  0  0  0  0  0  0
    6.7548  -15.3617   24.1575 C   0  0  0  0  0  0  0  0  0  0  0  0
    6.2226  -14.1600   24.0246 N   0  0  0  0  0  0  0  0  0  0  0  0
    6.6243  -13.3358   25.0182 C   0  0  0  0  0  0  0  0  0  0  0  0
    6.3705  -12.0310   25.3652 C   0  0  0  0  0  0  0  0  0  0  0  0
    6.9375  -11.4828   26.4877 C   0  0  0  0  0  0  0  0  0  0  0  0
    7.7747  -12.1944   27.3123 C   0  0  0  0  0  0  0  0  0  0  0  0
    8.0221  -13.5136   26.9463 C   0  0  0  0  0  0  0  0  0  0  0  0
    7.4674  -14.1017   25.8160 C   0  0  0  0  0  0  0  0  0  0  0  0
   10.7102  -17.5001   25.8261 C   0  0  0  0  0  0  0  0  0  0  0  0
   11.0286  -17.3720   27.0481 O   0  0  0  0  0  0  0  0  0  0  0  0
   11.4024  -18.5471   25.1360 N   0  0  0  0  0  0  0  0  0  0  0  0
   12.3562  -19.4338   25.6870 C   0  0  0  0  0  0  0  0  0  0  0  0
   13.6735  -18.8037   25.8653 C   0  0  0  0  0  0  0  0  0  0  0  0
   13.8038  -17.7518   26.5656 O   0  0  0  0  0  0  0  0  0  0  0  0
   14.8020  -19.3263   25.2840 O   0  0  0  0  0  0  0  0  0  0  0  0
  2  1  1  6
  3  2  1  0
  3  4  1  0
  4  5  2  0
  5  6  1  0
  7  6  1  0
  8  4  1  0
  8  7  2  0
  9 10  2  0
  9  2  1  0
 11  9  1  0
 12 13  1  1
 12 11  1  0
 13 14  1  0
 14 15  2  0
 15 16  1  0
 17 18  2  0
 17 16  1  0
 19 18  1  0
 20 19  2  0
 21 20  1  0
 21 22  2  0
 22 14  1  0
 22 17  1  0
 23 12  1  0
 24 23  2  0
 25 23  1  0
 26 27  1  0
 26 25  1  0
 27 29  1  0
 28 27  2  0
M  END
$$$$
