HWG.pdb
     RDKit          3D

 29 31  0  0  1  0  0  0  0  0999 V2000
    8.8887  -16.2964   20.9815 N   0  0  0  0  0  0  0  0  0  0  0  0
    9.1730  -14.9471   21.3513 C   0  0  1  0  0  0  0  0  0  0  0  0
    7.9560  -14.0868   20.9863 C   0  0  0  0  0  0  0  0  0  0  0  0
    7.9018  -14.0450   19.4985 C   0  0  0  0  0  0  0  0  0  0  0  0
    8.3824  -13.0923   18.6285 C   0  0  0  0  0  0  0  0  0  0  0  0
    8.0975  -13.4899   17.3681 N   0  0  0  0  0  0  0  0  0  0  0  0
    7.4563  -14.6582   17.4276 C   0  0  0  0  0  0  0  0  0  0  0  0
    7.3377  -14.9940   18.7135 N   0  0  0  0  0  0  0  0  0  0  0  0
    9.3514  -14.7884   22.8294 C   0  0  0  0  0  0  0  0  0  0  0  0
    9.5084  -13.6574   23.3533 O   0  0  0  0  0  0  0  0  0  0  0  0
    9.3361  -15.9674   23.6092 N   0  0  0  0  0  0  0  0  0  0  0  0
    9.6703  -15.8764   25.0465 C   0  0  1  0  0  0  0  0  0  0  0  0
    8.4509  -16.2852   25.7770 C   0  0  0  0  0  0  0  0  0  0  0  0
    7.3353  -15.3413   25.8230 C   0  0  0  0  0  0  0  0  0  0  0  0
    6.0194  -15.6264   25.4975 C   0  0  0  0  0  0  0  0  0  0  0  0
    5.3132  -14.5143   25.5963 N   0  0  0  0  0  0  0  0  0  0  0  0
    6.0898  -13.4755   25.9778 C   0  0  0  0  0  0  0  0  0  0  0  0
    5.8767  -12.1444   26.2423 C   0  0  0  0  0  0  0  0  0  0  0  0
    6.9098  -11.3375   26.6469 C   0  0  0  0  0  0  0  0  0  0  0  0
    8.1910  -11.8064   26.8075 C   0  0  0  0  0  0  0  0  0  0  0  0
    8.3900  -13.1561   26.5347 C   0  0  0  0  0  0  0  0  0  0  0  0
    7.3686  -14.0028   26.1212 C   0  0  0  0  0  0  0  0  0  0  0  0
   10.9212  -16.6141   25.2422 C   0  0  0  0  0  0  0  0  0  0  0  0
   11.4847  -16.7310   26.3735 O   0  0  0  0  0  0  0  0  0  0  0  0
   11.6116  -17.2548   24.1631 N   0  0  0  0  0  0  0  0  0  0  0  0
   12.7856  -18.0370   24.2588 C   0  0  0  0  0  0  0  0  0  0  0  0
   12.5656  -19.2958   24.9876 C   0  0  0  0  0  0  0  0  0  0  0  0
   11.4256  -19.5785   25.4715 O   0  0  0  0  0  0  0  0  0  0  0  0
   13.5786  -20.2042   25.1702 O   0  0  0  0  0  0  0  0  0  0  0  0
  2  1  1  1
  3  2  1  0
  3  4  1  0
  4  5  2  0
  5  6  1  0
  7  6  1  0
  8  4  1  0
  8  7  2  0
  9 10  2  0
  9  2  1  0
 11  9  1  0
 12 13  1  1
 12 11  1  0
 13 14  1  0
 14 15  2  0
 15 16  1  0
 17 18  2  0
 17 16  1  0
 19 18  1  0
 20 19  2  0
 21 20  1  0
 21 22  2  0
 22 14  1  0
 22 17  1  0
 23 12  1  0
 24 23  2  0
 25 23  1  0
 26 27  1  0
 26 25  1  0
 27 29  1  0
 28 27  2  0
M  END
$$$$
