HWG.pdb
     RDKit          3D

 29 31  0  0  1  0  0  0  0  0999 V2000
    8.5382  -16.8385   21.3279 N   0  0  0  0  0  0  0  0  0  0  0  0
    9.3081  -15.6392   21.4123 C   0  0  1  0  0  0  0  0  0  0  0  0
    8.4065  -14.4652   21.0082 C   0  0  0  0  0  0  0  0  0  0  0  0
    8.1932  -14.5854   19.5391 C   0  0  0  0  0  0  0  0  0  0  0  0
    8.7309  -15.4826   18.6439 C   0  0  0  0  0  0  0  0  0  0  0  0
    8.2412  -15.1986   17.4162 N   0  0  0  0  0  0  0  0  0  0  0  0
    7.4170  -14.1548   17.5203 C   0  0  0  0  0  0  0  0  0  0  0  0
    7.3875  -13.7839   18.8017 N   0  0  0  0  0  0  0  0  0  0  0  0
    9.7511  -15.3454   22.8120 C   0  0  0  0  0  0  0  0  0  0  0  0
   10.3253  -14.2674   23.1055 O   0  0  0  0  0  0  0  0  0  0  0  0
    9.4951  -16.3351   23.7885 N   0  0  0  0  0  0  0  0  0  0  0  0
    9.9262  -16.0911   25.1815 C   0  0  1  0  0  0  0  0  0  0  0  0
    8.7679  -16.4349   26.0347 C   0  0  0  0  0  0  0  0  0  0  0  0
    7.6071  -15.5468   25.9982 C   0  0  0  0  0  0  0  0  0  0  0  0
    6.3412  -15.8869   25.5502 C   0  0  0  0  0  0  0  0  0  0  0  0
    5.5745  -14.8125   25.6064 N   0  0  0  0  0  0  0  0  0  0  0  0
    6.2614  -13.7470   26.0761 C   0  0  0  0  0  0  0  0  0  0  0  0
    5.9596  -12.4342   26.3459 C   0  0  0  0  0  0  0  0  0  0  0  0
    6.9111  -11.5886   26.8572 C   0  0  0  0  0  0  0  0  0  0  0  0
    8.1947  -11.9992   27.1234 C   0  0  0  0  0  0  0  0  0  0  0  0
    8.4841  -13.3310   26.8437 C   0  0  0  0  0  0  0  0  0  0  0  0
    7.5471  -14.2157   26.3238 C   0  0  0  0  0  0  0  0  0  0  0  0
   11.2010  -16.7904   25.3633 C   0  0  0  0  0  0  0  0  0  0  0  0
   12.1191  -16.3652   26.1297 O   0  0  0  0  0  0  0  0  0  0  0  0
   11.5126  -18.0092   24.6784 N   0  0  0  0  0  0  0  0  0  0  0  0
   12.6237  -18.8506   24.9169 C   0  0  0  0  0  0  0  0  0  0  0  0
   12.5664  -20.0943   24.1334 C   0  0  0  0  0  0  0  0  0  0  0  0
   12.2976  -20.0713   22.8920 O   0  0  0  0  0  0  0  0  0  0  0  0
   12.7992  -21.3171   24.7125 O   0  0  0  0  0  0  0  0  0  0  0  0
  2  1  1  1
  3  2  1  0
  3  4  1  0
  4  5  2  0
  5  6  1  0
  7  6  1  0
  8  4  1  0
  8  7  2  0
  9 10  2  0
  9  2  1  0
 11  9  1  0
 12 13  1  1
 12 11  1  0
 13 14  1  0
 14 15  2  0
 15 16  1  0
 17 18  2  0
 17 16  1  0
 19 18  1  0
 20 19  2  0
 21 20  1  0
 21 22  2  0
 22 14  1  0
 22 17  1  0
 23 12  1  0
 24 23  2  0
 25 23  1  0
 26 27  1  0
 26 25  1  0
 27 29  1  0
 28 27  2  0
M  END
$$$$
