HWG.pdb
     RDKit          3D

 29 31  0  0  1  0  0  0  0  0999 V2000
    9.2945  -15.7922   20.6848 N   0  0  0  0  0  0  0  0  0  0  0  0
    9.2239  -16.7207   21.7670 C   0  0  1  0  0  0  0  0  0  0  0  0
   10.1534  -17.8984   21.4453 C   0  0  0  0  0  0  0  0  0  0  0  0
    9.6989  -18.4475   20.1376 C   0  0  0  0  0  0  0  0  0  0  0  0
    8.7616  -17.9564   19.2567 C   0  0  0  0  0  0  0  0  0  0  0  0
    8.6897  -18.8006   18.2031 N   0  0  0  0  0  0  0  0  0  0  0  0
    9.5518  -19.7991   18.4013 C   0  0  0  0  0  0  0  0  0  0  0  0
   10.1614  -19.5868   19.5690 N   0  0  0  0  0  0  0  0  0  0  0  0
    9.7360  -16.1400   23.0485 C   0  0  0  0  0  0  0  0  0  0  0  0
   10.4529  -15.1085   23.0609 O   0  0  0  0  0  0  0  0  0  0  0  0
    9.3777  -16.8043   24.2438 N   0  0  0  0  0  0  0  0  0  0  0  0
    9.8555  -16.2604   25.5329 C   0  0  1  0  0  0  0  0  0  0  0  0
    8.6782  -16.2348   26.4280 C   0  0  0  0  0  0  0  0  0  0  0  0
    7.5617  -15.3651   26.0609 C   0  0  0  0  0  0  0  0  0  0  0  0
    6.3541  -15.7806   25.5242 C   0  0  0  0  0  0  0  0  0  0  0  0
    5.6224  -14.7123   25.2628 N   0  0  0  0  0  0  0  0  0  0  0  0
    6.2772  -13.5782   25.5990 C   0  0  0  0  0  0  0  0  0  0  0  0
    5.9862  -12.2362   25.5597 C   0  0  0  0  0  0  0  0  0  0  0  0
    6.8906  -11.3108   26.0154 C   0  0  0  0  0  0  0  0  0  0  0  0
    8.1147  -11.6673   26.5271 C   0  0  0  0  0  0  0  0  0  0  0  0
    8.3940  -13.0299   26.5589 C   0  0  0  0  0  0  0  0  0  0  0  0
    7.5037  -13.9953   26.1046 C   0  0  0  0  0  0  0  0  0  0  0  0
   11.0428  -17.0324   25.9091 C   0  0  0  0  0  0  0  0  0  0  0  0
   11.7040  -16.8103   26.9695 O   0  0  0  0  0  0  0  0  0  0  0  0
   11.5553  -18.0963   25.0986 N   0  0  0  0  0  0  0  0  0  0  0  0
   12.6289  -18.9590   25.4189 C   0  0  0  0  0  0  0  0  0  0  0  0
   12.2801  -19.9244   26.4727 C   0  0  0  0  0  0  0  0  0  0  0  0
   11.0781  -20.0603   26.8607 O   0  0  0  0  0  0  0  0  0  0  0  0
   13.2356  -20.7076   27.0713 O   0  0  0  0  0  0  0  0  0  0  0  0
  2  1  1  6
  3  2  1  0
  3  4  1  0
  4  5  2  0
  5  6  1  0
  7  6  1  0
  8  4  1  0
  8  7  2  0
  9 10  2  0
  9  2  1  0
 11  9  1  0
 12 13  1  1
 12 11  1  0
 13 14  1  0
 14 15  2  0
 15 16  1  0
 17 18  2  0
 17 16  1  0
 19 18  1  0
 20 19  2  0
 21 20  1  0
 21 22  2  0
 22 14  1  0
 22 17  1  0
 23 12  1  0
 24 23  2  0
 25 23  1  0
 26 27  1  0
 26 25  1  0
 27 29  1  0
 28 27  2  0
M  END
$$$$
