HWG.pdb
     RDKit          3D

 29 31  0  0  1  0  0  0  0  0999 V2000
    8.8207  -13.2800   21.0599 N   0  0  0  0  0  0  0  0  0  0  0  0
    8.5510  -14.5793   21.5865 C   0  0  1  0  0  0  0  0  0  0  0  0
    9.0834  -15.6171   20.5893 C   0  0  0  0  0  0  0  0  0  0  0  0
    8.5192  -15.2511   19.2605 C   0  0  0  0  0  0  0  0  0  0  0  0
    7.8643  -14.1048   18.8697 C   0  0  0  0  0  0  0  0  0  0  0  0
    7.5377  -14.2297   17.5638 N   0  0  0  0  0  0  0  0  0  0  0  0
    7.9688  -15.4158   17.1313 C   0  0  0  0  0  0  0  0  0  0  0  0
    8.5614  -16.0331   18.1551 N   0  0  0  0  0  0  0  0  0  0  0  0
    9.2829  -14.8369   22.8671 C   0  0  0  0  0  0  0  0  0  0  0  0
   10.1997  -14.0748   23.2631 O   0  0  0  0  0  0  0  0  0  0  0  0
    8.8970  -15.9758   23.6103 N   0  0  0  0  0  0  0  0  0  0  0  0
    9.5249  -16.2144   24.9274 C   0  0  1  0  0  0  0  0  0  0  0  0
    8.4121  -16.3630   25.8904 C   0  0  0  0  0  0  0  0  0  0  0  0
    7.3917  -15.3163   25.9198 C   0  0  0  0  0  0  0  0  0  0  0  0
    6.0882  -15.4432   25.4685 C   0  0  0  0  0  0  0  0  0  0  0  0
    5.4852  -14.2747   25.5964 N   0  0  0  0  0  0  0  0  0  0  0  0
    6.3208  -13.3490   26.1185 C   0  0  0  0  0  0  0  0  0  0  0  0
    6.2131  -12.0247   26.4675 C   0  0  0  0  0  0  0  0  0  0  0  0
    7.2789  -11.3568   27.0152 C   0  0  0  0  0  0  0  0  0  0  0  0
    8.4907  -11.9632   27.2412 C   0  0  0  0  0  0  0  0  0  0  0  0
    8.5833  -13.3039   26.8813 C   0  0  0  0  0  0  0  0  0  0  0  0
    7.5262  -14.0119   26.3227 C   0  0  0  0  0  0  0  0  0  0  0  0
   10.4887  -17.3039   24.7506 C   0  0  0  0  0  0  0  0  0  0  0  0
   11.0060  -17.9334   25.7238 O   0  0  0  0  0  0  0  0  0  0  0  0
   10.9296  -17.7368   23.4584 N   0  0  0  0  0  0  0  0  0  0  0  0
   11.8351  -18.7877   23.1843 C   0  0  0  0  0  0  0  0  0  0  0  0
   13.2384  -18.3806   23.3551 C   0  0  0  0  0  0  0  0  0  0  0  0
   13.5337  -17.2204   23.7799 O   0  0  0  0  0  0  0  0  0  0  0  0
   14.2726  -19.2347   23.0626 O   0  0  0  0  0  0  0  0  0  0  0  0
  2  1  1  6
  3  2  1  0
  3  4  1  0
  4  5  2  0
  5  6  1  0
  7  6  1  0
  8  4  1  0
  8  7  2  0
  9 10  2  0
  9  2  1  0
 11  9  1  0
 12 13  1  1
 12 11  1  0
 13 14  1  0
 14 15  2  0
 15 16  1  0
 17 18  2  0
 17 16  1  0
 19 18  1  0
 20 19  2  0
 21 20  1  0
 21 22  2  0
 22 14  1  0
 22 17  1  0
 23 12  1  0
 24 23  2  0
 25 23  1  0
 26 27  1  0
 26 25  1  0
 27 29  1  0
 28 27  2  0
M  END
$$$$
