HWG.pdb
     RDKit          3D

 29 31  0  0  1  0  0  0  0  0999 V2000
    6.9922  -15.4522   21.4049 N   0  0  0  0  0  0  0  0  0  0  0  0
    8.3685  -15.0734   21.3837 C   0  0  1  0  0  0  0  0  0  0  0  0
    8.4755  -13.7058   20.6961 C   0  0  0  0  0  0  0  0  0  0  0  0
    8.3273  -13.9571   19.2355 C   0  0  0  0  0  0  0  0  0  0  0  0
    7.4742  -13.3736   18.3260 C   0  0  0  0  0  0  0  0  0  0  0  0
    7.7061  -13.9272   17.1146 N   0  0  0  0  0  0  0  0  0  0  0  0
    8.6755  -14.8348   17.2427 C   0  0  0  0  0  0  0  0  0  0  0  0
    9.0509  -14.8535   18.5229 N   0  0  0  0  0  0  0  0  0  0  0  0
    8.9257  -14.8785   22.7597 C   0  0  0  0  0  0  0  0  0  0  0  0
    9.1788  -13.7328   23.2085 O   0  0  0  0  0  0  0  0  0  0  0  0
    9.1549  -16.0407   23.5312 N   0  0  0  0  0  0  0  0  0  0  0  0
    9.7783  -15.9004   24.8644 C   0  0  1  0  0  0  0  0  0  0  0  0
    8.7222  -16.2285   25.8467 C   0  0  0  0  0  0  0  0  0  0  0  0
    7.5614  -15.3427   25.9209 C   0  0  0  0  0  0  0  0  0  0  0  0
    6.2541  -15.6947   25.6274 C   0  0  0  0  0  0  0  0  0  0  0  0
    5.4948  -14.6200   25.7445 N   0  0  0  0  0  0  0  0  0  0  0  0
    6.2266  -13.5428   26.1079 C   0  0  0  0  0  0  0  0  0  0  0  0
    5.9524  -12.2242   26.3787 C   0  0  0  0  0  0  0  0  0  0  0  0
    6.9526  -11.3656   26.7586 C   0  0  0  0  0  0  0  0  0  0  0  0
    8.2596  -11.7685   26.8873 C   0  0  0  0  0  0  0  0  0  0  0  0
    8.5204  -13.1063   26.6085 C   0  0  0  0  0  0  0  0  0  0  0  0
    7.5337  -14.0041   26.2194 C   0  0  0  0  0  0  0  0  0  0  0  0
   11.0203  -16.6776   24.8397 C   0  0  0  0  0  0  0  0  0  0  0  0
   11.7162  -16.9010   25.8774 O   0  0  0  0  0  0  0  0  0  0  0  0
   11.5507  -17.2392   23.6336 N   0  0  0  0  0  0  0  0  0  0  0  0
   12.7139  -18.0340   23.5133 C   0  0  0  0  0  0  0  0  0  0  0  0
   13.9344  -17.2266   23.3626 C   0  0  0  0  0  0  0  0  0  0  0  0
   13.9492  -15.9995   23.6911 O   0  0  0  0  0  0  0  0  0  0  0  0
   15.0936  -17.7670   22.8638 O   0  0  0  0  0  0  0  0  0  0  0  0
  2  1  1  1
  3  2  1  0
  3  4  1  0
  4  5  2  0
  5  6  1  0
  7  6  1  0
  8  4  1  0
  8  7  2  0
  9 10  2  0
  9  2  1  0
 11  9  1  0
 12 13  1  1
 12 11  1  0
 13 14  1  0
 14 15  2  0
 15 16  1  0
 17 18  2  0
 17 16  1  0
 19 18  1  0
 20 19  2  0
 21 20  1  0
 21 22  2  0
 22 14  1  0
 22 17  1  0
 23 12  1  0
 24 23  2  0
 25 23  1  0
 26 27  1  0
 26 25  1  0
 27 29  1  0
 28 27  2  0
M  END
$$$$
