HWG.pdb
     RDKit          3D

 29 31  0  0  1  0  0  0  0  0999 V2000
   10.1582  -18.2486   21.9031 N   0  0  0  0  0  0  0  0  0  0  0  0
   10.7842  -16.9793   22.0909 C   0  0  1  0  0  0  0  0  0  0  0  0
   10.2579  -16.0244   21.0111 C   0  0  0  0  0  0  0  0  0  0  0  0
   10.6732  -16.6006   19.7020 C   0  0  0  0  0  0  0  0  0  0  0  0
   11.9306  -16.9241   19.2439 C   0  0  0  0  0  0  0  0  0  0  0  0
   11.8092  -17.4184   17.9914 N   0  0  0  0  0  0  0  0  0  0  0  0
   10.5176  -17.4126   17.6576 C   0  0  0  0  0  0  0  0  0  0  0  0
    9.8311  -16.9189   18.6898 N   0  0  0  0  0  0  0  0  0  0  0  0
   10.4157  -16.3519   23.3995 C   0  0  0  0  0  0  0  0  0  0  0  0
   10.8491  -15.2197   23.7290 O   0  0  0  0  0  0  0  0  0  0  0  0
    9.5594  -17.0901   24.2480 N   0  0  0  0  0  0  0  0  0  0  0  0
    9.3675  -16.6327   25.6408 C   0  0  1  0  0  0  0  0  0  0  0  0
    7.9185  -16.3768   25.7917 C   0  0  0  0  0  0  0  0  0  0  0  0
    7.3723  -15.1676   25.1778 C   0  0  0  0  0  0  0  0  0  0  0  0
    6.9114  -15.0576   23.8761 C   0  0  0  0  0  0  0  0  0  0  0  0
    6.5569  -13.8031   23.6621 N   0  0  0  0  0  0  0  0  0  0  0  0
    6.7542  -13.0455   24.7644 C   0  0  0  0  0  0  0  0  0  0  0  0
    6.5466  -11.7274   25.0915 C   0  0  0  0  0  0  0  0  0  0  0  0
    6.8398  -11.2644   26.3492 C   0  0  0  0  0  0  0  0  0  0  0  0
    7.3476  -12.0773   27.3333 C   0  0  0  0  0  0  0  0  0  0  0  0
    7.5528  -13.4086   26.9855 C   0  0  0  0  0  0  0  0  0  0  0  0
    7.2695  -13.9125   25.7218 C   0  0  0  0  0  0  0  0  0  0  0  0
   10.0311  -17.6105   26.5073 C   0  0  0  0  0  0  0  0  0  0  0  0
    9.9903  -17.5506   27.7745 O   0  0  0  0  0  0  0  0  0  0  0  0
   10.7884  -18.7090   25.9862 N   0  0  0  0  0  0  0  0  0  0  0  0
   11.3820  -19.7535   26.7318 C   0  0  0  0  0  0  0  0  0  0  0  0
   12.7348  -19.4133   27.1990 C   0  0  0  0  0  0  0  0  0  0  0  0
   13.2794  -18.3126   26.8738 O   0  0  0  0  0  0  0  0  0  0  0  0
   13.4529  -20.2683   27.9977 O   0  0  0  0  0  0  0  0  0  0  0  0
  2  1  1  6
  3  2  1  0
  3  4  1  0
  4  5  2  0
  5  6  1  0
  7  6  1  0
  8  4  1  0
  8  7  2  0
  9 10  2  0
  9  2  1  0
 11  9  1  0
 12 13  1  1
 12 11  1  0
 13 14  1  0
 14 15  2  0
 15 16  1  0
 17 18  2  0
 17 16  1  0
 19 18  1  0
 20 19  2  0
 21 20  1  0
 21 22  2  0
 22 14  1  0
 22 17  1  0
 23 12  1  0
 24 23  2  0
 25 23  1  0
 26 27  1  0
 26 25  1  0
 27 29  1  0
 28 27  2  0
M  END
$$$$
