TLC.pdb
     RDKit          3D

 22 21  0  0  1  0  0  0  0  0999 V2000
   21.8559   -4.9832  -13.1841 C   0  0  0  0  0  0  0  0  0  0  0  0
   22.6168   -5.2446  -14.4872 C   0  0  1  0  0  0  0  0  0  0  0  0
   23.9653   -5.1276  -14.1888 O   0  0  0  0  0  0  0  0  0  0  0  0
   22.3740   -6.6298  -14.9954 C   0  0  2  0  0  0  0  0  0  0  0  0
   23.3006   -7.0129  -16.0324 N   0  0  0  0  0  0  0  0  0  0  0  0
   20.9654   -6.7519  -15.4051 C   0  0  0  0  0  0  0  0  0  0  0  0
   20.5021   -6.1664  -16.4081 O   0  0  0  0  0  0  0  0  0  0  0  0
   17.7388   -9.6772  -16.8078 C   0  0  0  0  0  0  0  0  0  0  0  0
   18.3161  -10.0138  -15.4174 C   0  0  2  0  0  0  0  0  0  0  0  0
   17.6925  -11.3138  -15.0060 C   0  0  0  0  0  0  0  0  0  0  0  0
   18.0468   -8.8921  -14.4589 C   0  0  0  0  0  0  0  0  0  0  0  0
   18.6661   -7.6319  -14.9050 C   0  0  2  0  0  0  0  0  0  0  0  0
   20.0942   -7.5612  -14.6423 N   0  0  0  0  0  0  0  0  0  0  0  0
   18.0245   -6.4653  -14.2887 C   0  0  0  0  0  0  0  0  0  0  0  0
   18.0527   -6.1757  -13.0679 O   0  0  0  0  0  0  0  0  0  0  0  0
   17.2872   -5.5479  -15.1311 N   0  0  0  0  0  0  0  0  0  0  0  0
   16.6649   -4.3655  -14.6043 C   0  0  1  0  0  0  0  0  0  0  0  0
   16.9951   -3.2145  -15.5433 C   0  0  0  0  0  0  0  0  0  0  0  0
   16.2813   -1.6620  -14.9520 S   0  0  0  0  0  0  0  0  0  0  0  0
   15.2194   -4.4830  -14.4401 C   0  0  0  0  0  0  0  0  0  0  0  0
   14.5373   -5.1195  -15.2723 O   0  0  0  0  0  0  0  0  0  0  0  0
   14.5945   -3.8897  -13.3611 O   0  0  0  0  0  0  0  0  0  0  0  0
  2  1  1  1
  2  4  1  0
  2  3  1  0
  4  6  1  0
  4  5  1  6
  6  7  2  0
  9  8  1  6
  9 11  1  0
  9 10  1  0
 12 11  1  1
 12 14  1  0
 13 12  1  0
 13  6  1  0
 14 15  2  0
 16 14  1  0
 16 17  1  0
 17 20  1  0
 17 18  1  6
 19 18  1  0
 20 21  2  0
 20 22  1  0
M  END
$$$$
