TLC.pdb
     RDKit          3D

 22 21  0  0  1  0  0  0  0  0999 V2000
   16.8762  -11.6844  -18.2152 C   0  0  0  0  0  0  0  0  0  0  0  0
   17.9226  -11.1788  -17.2177 C   0  0  1  0  0  0  0  0  0  0  0  0
   18.4572  -12.2999  -16.6023 O   0  0  0  0  0  0  0  0  0  0  0  0
   19.0343  -10.4559  -17.9085 C   0  0  2  0  0  0  0  0  0  0  0  0
   19.6863  -11.2639  -18.9100 N   0  0  0  0  0  0  0  0  0  0  0  0
   19.9646   -9.9259  -16.8983 C   0  0  0  0  0  0  0  0  0  0  0  0
   19.5747   -9.4073  -15.8294 O   0  0  0  0  0  0  0  0  0  0  0  0
   23.1442  -11.9686  -14.6079 C   0  0  0  0  0  0  0  0  0  0  0  0
   23.5495  -11.6814  -16.0683 C   0  0  2  0  0  0  0  0  0  0  0  0
   24.8405  -12.4085  -16.2978 C   0  0  0  0  0  0  0  0  0  0  0  0
   23.6475  -10.2025  -16.2978 C   0  0  0  0  0  0  0  0  0  0  0  0
   22.3373   -9.5415  -16.1677 C   0  0  2  0  0  0  0  0  0  0  0  0
   21.3552  -10.0022  -17.1354 N   0  0  0  0  0  0  0  0  0  0  0  0
   22.4523   -8.0835  -16.2843 C   0  0  0  0  0  0  0  0  0  0  0  0
   22.7111   -7.4529  -17.3380 O   0  0  0  0  0  0  0  0  0  0  0  0
   22.2565   -7.2711  -15.1025 N   0  0  0  0  0  0  0  0  0  0  0  0
   22.3105   -5.8366  -15.1491 C   0  0  1  0  0  0  0  0  0  0  0  0
   21.2040   -5.3646  -16.0809 C   0  0  0  0  0  0  0  0  0  0  0  0
   21.0400   -3.5642  -16.0429 S   0  0  0  0  0  0  0  0  0  0  0  0
   22.1758   -5.1987  -13.8432 C   0  0  0  0  0  0  0  0  0  0  0  0
   21.6411   -5.8093  -12.8923 O   0  0  0  0  0  0  0  0  0  0  0  0
   22.6398   -3.9126  -13.6496 O   0  0  0  0  0  0  0  0  0  0  0  0
  2  1  1  6
  2  4  1  0
  2  3  1  0
  4  6  1  0
  4  5  1  6
  6  7  2  0
  9  8  1  1
  9 11  1  0
  9 10  1  0
 12 11  1  6
 12 14  1  0
 13 12  1  0
 13  6  1  0
 14 15  2  0
 16 14  1  0
 16 17  1  0
 17 20  1  0
 17 18  1  6
 19 18  1  0
 20 21  2  0
 20 22  1  0
M  END
$$$$
