TLC.pdb
     RDKit          3D

 22 21  0  0  1  0  0  0  0  0999 V2000
   26.9263  -16.1082  -15.6132 C   0  0  0  0  0  0  0  0  0  0  0  0
   26.1236  -17.3800  -15.3237 C   0  0  1  0  0  0  0  0  0  0  0  0
   25.4506  -17.6983  -16.4929 O   0  0  0  0  0  0  0  0  0  0  0  0
   27.0189  -18.5267  -14.9784 C   0  0  2  0  0  0  0  0  0  0  0  0
   27.9037  -18.8874  -16.0591 N   0  0  0  0  0  0  0  0  0  0  0  0
   26.1976  -19.6524  -14.5039 C   0  0  0  0  0  0  0  0  0  0  0  0
   26.0811  -20.7192  -15.1456 O   0  0  0  0  0  0  0  0  0  0  0  0
   26.5876  -22.0100  -10.8529 C   0  0  0  0  0  0  0  0  0  0  0  0
   25.9313  -20.6356  -10.6074 C   0  0  2  0  0  0  0  0  0  0  0  0
   25.8789  -20.4538   -9.1200 C   0  0  0  0  0  0  0  0  0  0  0  0
   24.5842  -20.5797  -11.2643 C   0  0  0  0  0  0  0  0  0  0  0  0
   24.6914  -20.6054  -12.7334 C   0  0  2  0  0  0  0  0  0  0  0  0
   25.5104  -19.5335  -13.2752 N   0  0  0  0  0  0  0  0  0  0  0  0
   23.3725  -20.5480  -13.3737 C   0  0  0  0  0  0  0  0  0  0  0  0
   22.7277  -19.5013  -13.6261 O   0  0  0  0  0  0  0  0  0  0  0  0
   22.7302  -21.7858  -13.7610 N   0  0  0  0  0  0  0  0  0  0  0  0
   21.4342  -21.8082  -14.3798 C   0  0  1  0  0  0  0  0  0  0  0  0
   21.3126  -23.1174  -15.1457 C   0  0  0  0  0  0  0  0  0  0  0  0
   19.6565  -23.3155  -15.8443 S   0  0  0  0  0  0  0  0  0  0  0  0
   20.3282  -21.6711  -13.4373 C   0  0  0  0  0  0  0  0  0  0  0  0
   20.4997  -21.9058  -12.2213 O   0  0  0  0  0  0  0  0  0  0  0  0
   19.0816  -21.2803  -13.8845 O   0  0  0  0  0  0  0  0  0  0  0  0
  2  1  1  6
  2  4  1  0
  2  3  1  0
  4  6  1  0
  4  5  1  6
  6  7  2  0
  9  8  1  1
  9 11  1  0
  9 10  1  0
 12 11  1  1
 12 14  1  0
 13 12  1  0
 13  6  1  0
 14 15  2  0
 16 14  1  0
 16 17  1  0
 17 20  1  0
 17 18  1  1
 19 18  1  0
 20 21  2  0
 20 22  1  0
M  END
$$$$
