TLC.pdb
     RDKit          3D

 22 21  0  0  1  0  0  0  0  0999 V2000
   17.3233  -10.6820  -19.7467 C   0  0  0  0  0  0  0  0  0  0  0  0
   17.8561  -10.1105  -18.4295 C   0  0  1  0  0  0  0  0  0  0  0  0
   17.9616  -11.1761  -17.5493 O   0  0  0  0  0  0  0  0  0  0  0  0
   19.2171   -9.5154  -18.6007 C   0  0  2  0  0  0  0  0  0  0  0  0
   20.1712  -10.4535  -19.1399 N   0  0  0  0  0  0  0  0  0  0  0  0
   19.6475   -8.9231  -17.3237 C   0  0  0  0  0  0  0  0  0  0  0  0
   18.8723   -8.2770  -16.5854 O   0  0  0  0  0  0  0  0  0  0  0  0
   21.5048  -10.5394  -13.5283 C   0  0  0  0  0  0  0  0  0  0  0  0
   22.4390  -10.5202  -14.7558 C   0  0  2  0  0  0  0  0  0  0  0  0
   23.6697  -11.2798  -14.3600 C   0  0  0  0  0  0  0  0  0  0  0  0
   22.7174   -9.1068  -15.1732 C   0  0  0  0  0  0  0  0  0  0  0  0
   21.5137   -8.4487  -15.7102 C   0  0  2  0  0  0  0  0  0  0  0  0
   20.9871   -9.0863  -16.9058 N   0  0  0  0  0  0  0  0  0  0  0  0
   21.7586   -7.0337  -16.0107 C   0  0  0  0  0  0  0  0  0  0  0  0
   22.1329   -6.5759  -17.1178 O   0  0  0  0  0  0  0  0  0  0  0  0
   21.5615   -6.0535  -14.9642 N   0  0  0  0  0  0  0  0  0  0  0  0
   21.6830   -4.6438  -15.2108 C   0  0  1  0  0  0  0  0  0  0  0  0
   20.6095   -4.2587  -16.2182 C   0  0  0  0  0  0  0  0  0  0  0  0
   20.5049   -2.4636  -16.4092 S   0  0  0  0  0  0  0  0  0  0  0  0
   21.5649   -3.8227  -14.0099 C   0  0  0  0  0  0  0  0  0  0  0  0
   22.3365   -2.8566  -13.8249 O   0  0  0  0  0  0  0  0  0  0  0  0
   20.5968   -4.1090  -13.0677 O   0  0  0  0  0  0  0  0  0  0  0  0
  2  1  1  6
  2  4  1  0
  2  3  1  0
  4  6  1  0
  4  5  1  1
  6  7  2  0
  9  8  1  1
  9 11  1  0
  9 10  1  0
 12 11  1  6
 12 14  1  0
 13 12  1  0
 13  6  1  0
 14 15  2  0
 16 14  1  0
 16 17  1  0
 17 20  1  0
 17 18  1  6
 19 18  1  0
 20 21  2  0
 20 22  1  0
M  END
$$$$
