TLC.pdb
     RDKit          3D

 22 21  0  0  1  0  0  0  0  0999 V2000
   17.5582  -13.4838  -20.2051 C   0  0  0  0  0  0  0  0  0  0  0  0
   18.3364  -12.7492  -19.1095 C   0  0  1  0  0  0  0  0  0  0  0  0
   17.4208  -11.9532  -18.4392 O   0  0  0  0  0  0  0  0  0  0  0  0
   18.9284  -13.7045  -18.1231 C   0  0  2  0  0  0  0  0  0  0  0  0
   17.9394  -14.5601  -17.5141 N   0  0  0  0  0  0  0  0  0  0  0  0
   19.7236  -12.9502  -17.1405 C   0  0  0  0  0  0  0  0  0  0  0  0
   19.2502  -12.5508  -16.0543 O   0  0  0  0  0  0  0  0  0  0  0  0
   25.6253  -11.7567  -15.8545 C   0  0  0  0  0  0  0  0  0  0  0  0
   24.1124  -11.7180  -15.5555 C   0  0  2  0  0  0  0  0  0  0  0  0
   23.8599  -12.7764  -14.5239 C   0  0  0  0  0  0  0  0  0  0  0  0
   23.3291  -11.9161  -16.8191 C   0  0  0  0  0  0  0  0  0  0  0  0
   21.8798  -11.7846  -16.5895 C   0  0  2  0  0  0  0  0  0  0  0  0
   21.0769  -12.6617  -17.4258 N   0  0  0  0  0  0  0  0  0  0  0  0
   21.4222  -10.4055  -16.7931 C   0  0  0  0  0  0  0  0  0  0  0  0
   21.1508   -9.8817  -17.9009 O   0  0  0  0  0  0  0  0  0  0  0  0
   21.2584   -9.5469  -15.6396 N   0  0  0  0  0  0  0  0  0  0  0  0
   20.8639   -8.1716  -15.7659 C   0  0  1  0  0  0  0  0  0  0  0  0
   19.4050   -8.1492  -16.1978 C   0  0  0  0  0  0  0  0  0  0  0  0
   18.6907   -6.4992  -16.0054 S   0  0  0  0  0  0  0  0  0  0  0  0
   21.0396   -7.3931  -14.5439 C   0  0  0  0  0  0  0  0  0  0  0  0
   20.9182   -6.1489  -14.5627 O   0  0  0  0  0  0  0  0  0  0  0  0
   21.3422   -8.0282  -13.3557 O   0  0  0  0  0  0  0  0  0  0  0  0
  2  1  1  6
  2  4  1  0
  2  3  1  0
  4  6  1  0
  4  5  1  1
  6  7  2  0
  9  8  1  6
  9 11  1  0
  9 10  1  0
 12 11  1  6
 12 14  1  0
 13 12  1  0
 13  6  1  0
 14 15  2  0
 16 14  1  0
 16 17  1  0
 17 20  1  0
 17 18  1  1
 19 18  1  0
 20 21  2  0
 20 22  1  0
M  END
$$$$
