QWG.pdb
     RDKit          3D

 28 29  0  0  1  0  0  0  0  0999 V2000
    7.8014  -12.4351   18.2171 N   0  0  0  0  0  0  0  0  0  0  0  0
    7.7032  -13.8586   18.0888 C   0  0  0  0  0  0  0  0  0  0  0  0
    8.0120  -14.4167   17.0076 O   0  0  0  0  0  0  0  0  0  0  0  0
    7.2364  -14.5930   19.2688 C   0  0  0  0  0  0  0  0  0  0  0  0
    8.2432  -14.5891   20.3496 C   0  0  0  0  0  0  0  0  0  0  0  0
    8.4379  -15.8253   21.1398 C   0  0  2  0  0  0  0  0  0  0  0  0
    7.3389  -16.6863   21.3329 N   0  0  0  0  0  0  0  0  0  0  0  0
    9.2147  -15.5025   22.3904 C   0  0  0  0  0  0  0  0  0  0  0  0
   10.0517  -14.5778   22.2537 O   0  0  0  0  0  0  0  0  0  0  0  0
    9.0685  -16.1374   23.6216 N   0  0  0  0  0  0  0  0  0  0  0  0
    9.8645  -15.8517   24.7966 C   0  0  1  0  0  0  0  0  0  0  0  0
    9.0202  -15.9788   26.0162 C   0  0  0  0  0  0  0  0  0  0  0  0
    7.7912  -15.1847   25.9749 C   0  0  0  0  0  0  0  0  0  0  0  0
    6.5101  -15.6399   25.7576 C   0  0  0  0  0  0  0  0  0  0  0  0
    5.6701  -14.5826   25.7990 N   0  0  0  0  0  0  0  0  0  0  0  0
    6.3560  -13.4561   26.0350 C   0  0  0  0  0  0  0  0  0  0  0  0
    5.9365  -12.1498   26.1611 C   0  0  0  0  0  0  0  0  0  0  0  0
    6.9112  -11.1929   26.4091 C   0  0  0  0  0  0  0  0  0  0  0  0
    8.2532  -11.5590   26.5224 C   0  0  0  0  0  0  0  0  0  0  0  0
    8.6539  -12.8692   26.3935 C   0  0  0  0  0  0  0  0  0  0  0  0
    7.6936  -13.8250   26.1474 C   0  0  0  0  0  0  0  0  0  0  0  0
   11.0416  -16.7584   24.8165 C   0  0  0  0  0  0  0  0  0  0  0  0
   11.1096  -17.8565   25.4062 O   0  0  0  0  0  0  0  0  0  0  0  0
   12.2052  -16.3303   24.0904 N   0  0  0  0  0  0  0  0  0  0  0  0
   13.3700  -17.1798   24.1027 C   0  0  0  0  0  0  0  0  0  0  0  0
   14.4530  -16.5292   23.3594 C   0  0  0  0  0  0  0  0  0  0  0  0
   14.2149  -15.7940   22.3643 O   0  0  0  0  0  0  0  0  0  0  0  0
   15.7624  -16.7118   23.7390 O   0  0  0  0  0  0  0  0  0  0  0  0
  1  2  1  0
  2  4  1  0
  3  2  2  0
  4  5  1  0
  5  6  1  0
  6  8  1  0
  6  7  1  1
  8  9  2  0
 10  8  1  0
 11 10  1  0
 11 12  1  1
 13 12  1  0
 13 21  1  0
 14 15  1  0
 14 13  2  0
 15 16  1  0
 16 21  2  0
 16 17  1  0
 17 18  2  0
 18 19  1  0
 20 19  2  0
 21 20  1  0
 22 11  1  0
 23 22  2  0
 24 22  1  0
 25 24  1  0
 25 26  1  0
 26 28  1  0
 27 26  2  0
M  END
$$$$
