QWG.pdb
     RDKit          3D

 28 29  0  0  1  0  0  0  0  0999 V2000
    7.4144  -12.6811   18.5354 N   0  0  0  0  0  0  0  0  0  0  0  0
    7.8872  -13.9389   18.0388 C   0  0  0  0  0  0  0  0  0  0  0  0
    7.4989  -14.3620   16.9226 O   0  0  0  0  0  0  0  0  0  0  0  0
    8.8265  -14.6707   18.8943 C   0  0  0  0  0  0  0  0  0  0  0  0
    8.3197  -14.8033   20.2754 C   0  0  0  0  0  0  0  0  0  0  0  0
    8.7060  -15.9978   21.0593 C   0  0  2  0  0  0  0  0  0  0  0  0
    7.8040  -17.0780   21.1372 N   0  0  0  0  0  0  0  0  0  0  0  0
    9.2861  -15.5629   22.3806 C   0  0  0  0  0  0  0  0  0  0  0  0
    9.9301  -14.4872   22.3324 O   0  0  0  0  0  0  0  0  0  0  0  0
    9.1590  -16.2487   23.5864 N   0  0  0  0  0  0  0  0  0  0  0  0
    9.7646  -15.8392   24.8360 C   0  0  1  0  0  0  0  0  0  0  0  0
    8.8018  -16.0505   25.9517 C   0  0  0  0  0  0  0  0  0  0  0  0
    7.5770  -15.2568   25.8394 C   0  0  0  0  0  0  0  0  0  0  0  0
    6.3232  -15.7021   25.4852 C   0  0  0  0  0  0  0  0  0  0  0  0
    5.4769  -14.6493   25.5033 N   0  0  0  0  0  0  0  0  0  0  0  0
    6.1323  -13.5352   25.8560 C   0  0  0  0  0  0  0  0  0  0  0  0
    5.6957  -12.2374   26.0087 C   0  0  0  0  0  0  0  0  0  0  0  0
    6.6386  -11.2929   26.3908 C   0  0  0  0  0  0  0  0  0  0  0  0
    7.9670  -11.6626   26.6062 C   0  0  0  0  0  0  0  0  0  0  0  0
    8.3852  -12.9641   26.4489 C   0  0  0  0  0  0  0  0  0  0  0  0
    7.4565  -13.9076   26.0699 C   0  0  0  0  0  0  0  0  0  0  0  0
   11.0356  -16.5852   25.0258 C   0  0  0  0  0  0  0  0  0  0  0  0
   11.8178  -16.4647   25.9911 O   0  0  0  0  0  0  0  0  0  0  0  0
   11.3942  -17.5303   24.0047 N   0  0  0  0  0  0  0  0  0  0  0  0
   12.6978  -18.1430   24.0669 C   0  0  0  0  0  0  0  0  0  0  0  0
   12.6013  -19.4176   24.7843 C   0  0  0  0  0  0  0  0  0  0  0  0
   11.5506  -19.7464   25.3970 O   0  0  0  0  0  0  0  0  0  0  0  0
   13.6674  -20.2865   24.8015 O   0  0  0  0  0  0  0  0  0  0  0  0
  1  2  1  0
  2  4  1  0
  3  2  2  0
  4  5  1  0
  5  6  1  0
  6  8  1  0
  6  7  1  1
  8  9  2  0
 10  8  1  0
 11 10  1  0
 11 12  1  1
 13 12  1  0
 13 21  1  0
 14 15  1  0
 14 13  2  0
 15 16  1  0
 16 21  2  0
 16 17  1  0
 17 18  2  0
 18 19  1  0
 20 19  2  0
 21 20  1  0
 22 11  1  0
 23 22  2  0
 24 22  1  0
 25 24  1  0
 25 26  1  0
 26 28  1  0
 27 26  2  0
M  END
$$$$
