QWG.pdb
     RDKit          3D

 28 29  0  0  1  0  0  0  0  0999 V2000
    8.8414  -14.5211   16.9803 N   0  0  0  0  0  0  0  0  0  0  0  0
    7.9151  -14.2330   18.0345 C   0  0  0  0  0  0  0  0  0  0  0  0
    7.3571  -13.1101   18.0939 O   0  0  0  0  0  0  0  0  0  0  0  0
    7.6701  -15.3056   19.0037 C   0  0  0  0  0  0  0  0  0  0  0  0
    8.7624  -15.4097   19.9926 C   0  0  0  0  0  0  0  0  0  0  0  0
    8.6903  -16.4755   21.0170 C   0  0  2  0  0  0  0  0  0  0  0  0
    7.4476  -17.0915   21.2677 N   0  0  0  0  0  0  0  0  0  0  0  0
    9.4373  -16.0357   22.2499 C   0  0  0  0  0  0  0  0  0  0  0  0
   10.3533  -15.2068   22.0301 O   0  0  0  0  0  0  0  0  0  0  0  0
    9.1866  -16.4732   23.5485 N   0  0  0  0  0  0  0  0  0  0  0  0
    9.9855  -16.1253   24.7046 C   0  0  1  0  0  0  0  0  0  0  0  0
    9.1196  -16.0757   25.9146 C   0  0  0  0  0  0  0  0  0  0  0  0
    7.8613  -15.3542   25.7171 C   0  0  0  0  0  0  0  0  0  0  0  0
    6.6435  -15.8838   25.3538 C   0  0  0  0  0  0  0  0  0  0  0  0
    5.7460  -14.8766   25.2816 N   0  0  0  0  0  0  0  0  0  0  0  0
    6.3335  -13.7112   25.5844 C   0  0  0  0  0  0  0  0  0  0  0  0
    5.8284  -12.4307   25.6437 C   0  0  0  0  0  0  0  0  0  0  0  0
    6.7103  -11.4178   25.9949 C   0  0  0  0  0  0  0  0  0  0  0  0
    8.0476  -11.7051   26.2722 C   0  0  0  0  0  0  0  0  0  0  0  0
    8.5346  -12.9906   26.2080 C   0  0  0  0  0  0  0  0  0  0  0  0
    7.6667  -14.0016   25.8603 C   0  0  0  0  0  0  0  0  0  0  0  0
   11.0989  -17.1006   24.8354 C   0  0  0  0  0  0  0  0  0  0  0  0
   11.0139  -18.3350   24.6694 O   0  0  0  0  0  0  0  0  0  0  0  0
   12.3889  -16.5728   25.1842 N   0  0  0  0  0  0  0  0  0  0  0  0
   13.5399  -17.0402   24.4527 C   0  0  0  0  0  0  0  0  0  0  0  0
   14.0501  -18.2628   25.0799 C   0  0  0  0  0  0  0  0  0  0  0  0
   13.5717  -19.3933   24.7960 O   0  0  0  0  0  0  0  0  0  0  0  0
   15.0709  -18.1970   25.9995 O   0  0  0  0  0  0  0  0  0  0  0  0
  1  2  1  0
  2  4  1  0
  3  2  2  0
  4  5  1  0
  5  6  1  0
  6  8  1  0
  6  7  1  1
  8  9  2  0
 10  8  1  0
 11 10  1  0
 11 12  1  1
 13 12  1  0
 13 21  1  0
 14 15  1  0
 14 13  2  0
 15 16  1  0
 16 21  2  0
 16 17  1  0
 17 18  2  0
 18 19  1  0
 20 19  2  0
 21 20  1  0
 22 11  1  0
 23 22  2  0
 24 22  1  0
 25 24  1  0
 25 26  1  0
 26 28  1  0
 27 26  2  0
M  END
$$$$
