QWG.pdb
     RDKit          3D

 28 29  0  0  1  0  0  0  0  0999 V2000
    8.5855  -12.6775   18.6752 N   0  0  0  0  0  0  0  0  0  0  0  0
    7.8838  -13.7862   18.1003 C   0  0  0  0  0  0  0  0  0  0  0  0
    7.4451  -13.7142   16.9264 O   0  0  0  0  0  0  0  0  0  0  0  0
    7.7223  -14.9713   18.9483 C   0  0  0  0  0  0  0  0  0  0  0  0
    8.3334  -14.7794   20.2794 C   0  0  0  0  0  0  0  0  0  0  0  0
    8.5942  -15.9715   21.1169 C   0  0  2  0  0  0  0  0  0  0  0  0
    7.5833  -16.9455   21.2427 N   0  0  0  0  0  0  0  0  0  0  0  0
    9.2220  -15.5412   22.4177 C   0  0  0  0  0  0  0  0  0  0  0  0
    9.9245  -14.5050   22.3339 O   0  0  0  0  0  0  0  0  0  0  0  0
    9.0787  -16.1921   23.6410 N   0  0  0  0  0  0  0  0  0  0  0  0
    9.8708  -15.9147   24.8206 C   0  0  1  0  0  0  0  0  0  0  0  0
    8.9999  -15.9488   26.0276 C   0  0  0  0  0  0  0  0  0  0  0  0
    7.7730  -15.1608   25.8989 C   0  0  0  0  0  0  0  0  0  0  0  0
    6.5295  -15.6091   25.5139 C   0  0  0  0  0  0  0  0  0  0  0  0
    5.6768  -14.5613   25.5263 N   0  0  0  0  0  0  0  0  0  0  0  0
    6.3182  -13.4476   25.9048 C   0  0  0  0  0  0  0  0  0  0  0  0
    5.8710  -12.1541   26.0629 C   0  0  0  0  0  0  0  0  0  0  0  0
    6.8003  -11.2087   26.4750 C   0  0  0  0  0  0  0  0  0  0  0  0
    8.1261  -11.5732   26.7137 C   0  0  0  0  0  0  0  0  0  0  0  0
    8.5551  -12.8706   26.5505 C   0  0  0  0  0  0  0  0  0  0  0  0
    7.6399  -13.8150   26.1419 C   0  0  0  0  0  0  0  0  0  0  0  0
   10.9900  -16.8895   24.8929 C   0  0  0  0  0  0  0  0  0  0  0  0
   10.9055  -18.0736   25.2789 O   0  0  0  0  0  0  0  0  0  0  0  0
   12.2855  -16.4247   24.4805 N   0  0  0  0  0  0  0  0  0  0  0  0
   13.4512  -17.0555   25.0480 C   0  0  0  0  0  0  0  0  0  0  0  0
   13.8664  -18.1692   24.1902 C   0  0  0  0  0  0  0  0  0  0  0  0
   13.2177  -18.4751   23.1542 O   0  0  0  0  0  0  0  0  0  0  0  0
   14.9834  -18.9079   24.5042 O   0  0  0  0  0  0  0  0  0  0  0  0
  1  2  1  0
  2  4  1  0
  3  2  2  0
  4  5  1  0
  5  6  1  0
  6  8  1  0
  6  7  1  1
  8  9  2  0
 10  8  1  0
 11 10  1  0
 11 12  1  1
 13 12  1  0
 13 21  1  0
 14 15  1  0
 14 13  2  0
 15 16  1  0
 16 21  2  0
 16 17  1  0
 17 18  2  0
 18 19  1  0
 20 19  2  0
 21 20  1  0
 22 11  1  0
 23 22  2  0
 24 22  1  0
 25 24  1  0
 25 26  1  0
 26 28  1  0
 27 26  2  0
M  END
$$$$
