QWG.pdb
     RDKit          3D

 28 29  0  0  1  0  0  0  0  0999 V2000
    9.0206  -12.8519   18.8789 N   0  0  0  0  0  0  0  0  0  0  0  0
    8.0385  -13.7669   18.3785 C   0  0  0  0  0  0  0  0  0  0  0  0
    7.6694  -13.7025   17.1804 O   0  0  0  0  0  0  0  0  0  0  0  0
    7.5150  -14.7523   19.3297 C   0  0  0  0  0  0  0  0  0  0  0  0
    8.1458  -14.6188   20.6588 C   0  0  0  0  0  0  0  0  0  0  0  0
    8.6274  -15.8416   21.3395 C   0  0  2  0  0  0  0  0  0  0  0  0
    7.7838  -16.9699   21.3828 N   0  0  0  0  0  0  0  0  0  0  0  0
    9.2493  -15.4669   22.6602 C   0  0  0  0  0  0  0  0  0  0  0  0
    9.8980  -14.3931   22.6390 O   0  0  0  0  0  0  0  0  0  0  0  0
    9.1542  -16.2036   23.8387 N   0  0  0  0  0  0  0  0  0  0  0  0
    9.8011  -15.8525   25.0853 C   0  0  1  0  0  0  0  0  0  0  0  0
    8.8190  -15.9398   26.2007 C   0  0  0  0  0  0  0  0  0  0  0  0
    7.5718  -15.2142   25.9541 C   0  0  0  0  0  0  0  0  0  0  0  0
    6.3454  -15.7486   25.6287 C   0  0  0  0  0  0  0  0  0  0  0  0
    5.4635  -14.7350   25.4872 N   0  0  0  0  0  0  0  0  0  0  0  0
    6.0695  -13.5606   25.7082 C   0  0  0  0  0  0  0  0  0  0  0  0
    5.5845  -12.2714   25.6787 C   0  0  0  0  0  0  0  0  0  0  0  0
    6.4826  -11.2505   25.9586 C   0  0  0  0  0  0  0  0  0  0  0  0
    7.8156  -11.5387   26.2548 C   0  0  0  0  0  0  0  0  0  0  0  0
    8.2825  -12.8330   26.2797 C   0  0  0  0  0  0  0  0  0  0  0  0
    7.3984  -13.8520   26.0032 C   0  0  0  0  0  0  0  0  0  0  0  0
   10.9779  -16.7371   25.2863 C   0  0  0  0  0  0  0  0  0  0  0  0
   11.6102  -16.8830   26.3528 O   0  0  0  0  0  0  0  0  0  0  0  0
   11.4265  -17.4919   24.1490 N   0  0  0  0  0  0  0  0  0  0  0  0
   12.5466  -18.3838   24.3185 C   0  0  0  0  0  0  0  0  0  0  0  0
   13.7852  -17.6776   23.9785 C   0  0  0  0  0  0  0  0  0  0  0  0
   13.7698  -16.4809   23.5846 O   0  0  0  0  0  0  0  0  0  0  0  0
   14.9992  -18.3156   24.0843 O   0  0  0  0  0  0  0  0  0  0  0  0
  1  2  1  0
  2  4  1  0
  3  2  2  0
  4  5  1  0
  5  6  1  0
  6  8  1  0
  6  7  1  1
  8  9  2  0
 10  8  1  0
 11 10  1  0
 11 12  1  1
 13 12  1  0
 13 21  1  0
 14 15  1  0
 14 13  2  0
 15 16  1  0
 16 21  2  0
 16 17  1  0
 17 18  2  0
 18 19  1  0
 20 19  2  0
 21 20  1  0
 22 11  1  0
 23 22  2  0
 24 22  1  0
 25 24  1  0
 25 26  1  0
 26 28  1  0
 27 26  2  0
M  END
$$$$
