QWG.pdb
     RDKit          3D

 28 29  0  0  1  0  0  0  0  0999 V2000
    9.3187  -13.1055   18.5542 N   0  0  0  0  0  0  0  0  0  0  0  0
    7.9830  -13.5448   18.2805 C   0  0  0  0  0  0  0  0  0  0  0  0
    7.5639  -13.5892   17.0980 O   0  0  0  0  0  0  0  0  0  0  0  0
    7.1686  -13.9289   19.4376 C   0  0  0  0  0  0  0  0  0  0  0  0
    7.9704  -13.9848   20.6769 C   0  0  0  0  0  0  0  0  0  0  0  0
    8.4569  -15.3015   21.1462 C   0  0  2  0  0  0  0  0  0  0  0  0
    7.5748  -16.4004   21.1145 N   0  0  0  0  0  0  0  0  0  0  0  0
    9.2007  -15.1260   22.4452 C   0  0  0  0  0  0  0  0  0  0  0  0
    9.9225  -14.1007   22.4922 O   0  0  0  0  0  0  0  0  0  0  0  0
    9.1399  -15.9893   23.5368 N   0  0  0  0  0  0  0  0  0  0  0  0
    9.8253  -15.7782   24.7944 C   0  0  1  0  0  0  0  0  0  0  0  0
    8.8959  -16.0560   25.9237 C   0  0  0  0  0  0  0  0  0  0  0  0
    7.6675  -15.2605   25.8933 C   0  0  0  0  0  0  0  0  0  0  0  0
    6.3947  -15.7007   25.6076 C   0  0  0  0  0  0  0  0  0  0  0  0
    5.5521  -14.6478   25.6883 N   0  0  0  0  0  0  0  0  0  0  0  0
    6.2283  -13.5385   26.0158 C   0  0  0  0  0  0  0  0  0  0  0  0
    5.8029  -12.2425   26.2099 C   0  0  0  0  0  0  0  0  0  0  0  0
    6.7677  -11.3033   26.5479 C   0  0  0  0  0  0  0  0  0  0  0  0
    8.1060  -11.6762   26.6806 C   0  0  0  0  0  0  0  0  0  0  0  0
    8.5128  -12.9759   26.4828 C   0  0  0  0  0  0  0  0  0  0  0  0
    7.5623  -13.9142   26.1472 C   0  0  0  0  0  0  0  0  0  0  0  0
   11.0432  -16.6288   24.8310 C   0  0  0  0  0  0  0  0  0  0  0  0
   11.8147  -16.7608   25.8035 O   0  0  0  0  0  0  0  0  0  0  0  0
   11.3590  -17.3650   23.6383 N   0  0  0  0  0  0  0  0  0  0  0  0
   12.5325  -18.2025   23.6418 C   0  0  0  0  0  0  0  0  0  0  0  0
   13.6077  -17.5345   22.9026 C   0  0  0  0  0  0  0  0  0  0  0  0
   13.9248  -17.8966   21.7381 O   0  0  0  0  0  0  0  0  0  0  0  0
   14.2968  -16.4897   23.4729 O   0  0  0  0  0  0  0  0  0  0  0  0
  1  2  1  0
  2  4  1  0
  3  2  2  0
  4  5  1  0
  5  6  1  0
  6  8  1  0
  6  7  1  1
  8  9  2  0
 10  8  1  0
 11 10  1  0
 11 12  1  1
 13 12  1  0
 13 21  1  0
 14 15  1  0
 14 13  2  0
 15 16  1  0
 16 21  2  0
 16 17  1  0
 17 18  2  0
 18 19  1  0
 20 19  2  0
 21 20  1  0
 22 11  1  0
 23 22  2  0
 24 22  1  0
 25 24  1  0
 25 26  1  0
 26 28  1  0
 27 26  2  0
M  END
$$$$
