QWG.pdb
     RDKit          3D

 28 29  0  0  1  0  0  0  0  0999 V2000
    8.0900  -12.6272   18.1186 N   0  0  0  0  0  0  0  0  0  0  0  0
    8.4023  -13.9937   17.8233 C   0  0  0  0  0  0  0  0  0  0  0  0
    8.9695  -14.2915   16.7438 O   0  0  0  0  0  0  0  0  0  0  0  0
    8.0292  -14.9857   18.8365 C   0  0  0  0  0  0  0  0  0  0  0  0
    9.0380  -15.0761   19.9116 C   0  0  0  0  0  0  0  0  0  0  0  0
    9.0139  -16.2541   20.8074 C   0  0  2  0  0  0  0  0  0  0  0  0
    7.8567  -17.0580   20.8386 N   0  0  0  0  0  0  0  0  0  0  0  0
    9.5486  -15.8638   22.1614 C   0  0  0  0  0  0  0  0  0  0  0  0
   10.3133  -14.8693   22.1472 O   0  0  0  0  0  0  0  0  0  0  0  0
    9.2618  -16.5087   23.3624 N   0  0  0  0  0  0  0  0  0  0  0  0
    9.7675  -16.1038   24.6571 C   0  0  1  0  0  0  0  0  0  0  0  0
    8.6660  -16.1396   25.6581 C   0  0  0  0  0  0  0  0  0  0  0  0
    7.5644  -15.2216   25.3641 C   0  0  0  0  0  0  0  0  0  0  0  0
    6.4722  -15.4586   24.5599 C   0  0  0  0  0  0  0  0  0  0  0  0
    5.6969  -14.3523   24.5583 N   0  0  0  0  0  0  0  0  0  0  0  0
    6.2430  -13.4038   25.3312 C   0  0  0  0  0  0  0  0  0  0  0  0
    5.8218  -12.1270   25.6321 C   0  0  0  0  0  0  0  0  0  0  0  0
    6.6260  -11.3784   26.4806 C   0  0  0  0  0  0  0  0  0  0  0  0
    7.8069  -11.9146   26.9962 C   0  0  0  0  0  0  0  0  0  0  0  0
    8.2120  -13.1923   26.6846 C   0  0  0  0  0  0  0  0  0  0  0  0
    7.4202  -13.9420   25.8435 C   0  0  0  0  0  0  0  0  0  0  0  0
   10.9081  -16.9811   25.0276 C   0  0  0  0  0  0  0  0  0  0  0  0
   11.5188  -16.9670   26.1162 O   0  0  0  0  0  0  0  0  0  0  0  0
   11.3457  -17.9307   24.0421 N   0  0  0  0  0  0  0  0  0  0  0  0
   12.3868  -18.8605   24.4029 C   0  0  0  0  0  0  0  0  0  0  0  0
   13.6583  -18.4129   23.8272 C   0  0  0  0  0  0  0  0  0  0  0  0
   13.7041  -17.4660   22.9971 O   0  0  0  0  0  0  0  0  0  0  0  0
   14.8365  -19.0250   24.1865 O   0  0  0  0  0  0  0  0  0  0  0  0
  1  2  1  0
  2  4  1  0
  3  2  2  0
  4  5  1  0
  5  6  1  0
  6  8  1  0
  6  7  1  1
  8  9  2  0
 10  8  1  0
 11 10  1  0
 11 12  1  1
 13 12  1  0
 13 21  1  0
 14 15  1  0
 14 13  2  0
 15 16  1  0
 16 21  2  0
 16 17  1  0
 17 18  2  0
 18 19  1  0
 20 19  2  0
 21 20  1  0
 22 11  1  0
 23 22  2  0
 24 22  1  0
 25 24  1  0
 25 26  1  0
 26 28  1  0
 27 26  2  0
M  END
$$$$
