QWG.pdb
     RDKit          3D

 28 29  0  0  1  0  0  0  0  0999 V2000
    8.9204  -18.3250   17.7556 N   0  0  0  0  0  0  0  0  0  0  0  0
    9.3339  -17.1178   18.4067 C   0  0  0  0  0  0  0  0  0  0  0  0
   10.3901  -16.5399   18.0515 O   0  0  0  0  0  0  0  0  0  0  0  0
    8.4654  -16.6196   19.4778 C   0  0  0  0  0  0  0  0  0  0  0  0
    9.2369  -16.2572   20.6842 C   0  0  0  0  0  0  0  0  0  0  0  0
    9.3344  -17.2425   21.7843 C   0  0  2  0  0  0  0  0  0  0  0  0
    8.2418  -18.0997   22.0250 N   0  0  0  0  0  0  0  0  0  0  0  0
    9.8904  -16.5680   23.0121 C   0  0  0  0  0  0  0  0  0  0  0  0
   10.7150  -15.6538   22.7700 O   0  0  0  0  0  0  0  0  0  0  0  0
    9.5631  -16.8841   24.3287 N   0  0  0  0  0  0  0  0  0  0  0  0
   10.1103  -16.2248   25.4956 C   0  0  1  0  0  0  0  0  0  0  0  0
    9.0470  -16.0665   26.5256 C   0  0  0  0  0  0  0  0  0  0  0  0
    7.8473  -15.3810   26.0422 C   0  0  0  0  0  0  0  0  0  0  0  0
    6.7085  -15.9562   25.5248 C   0  0  0  0  0  0  0  0  0  0  0  0
    5.8438  -14.9704   25.1996 N   0  0  0  0  0  0  0  0  0  0  0  0
    6.3767  -13.7749   25.4858 C   0  0  0  0  0  0  0  0  0  0  0  0
    5.8773  -12.5002   25.3315 C   0  0  0  0  0  0  0  0  0  0  0  0
    6.6906  -11.4487   25.7314 C   0  0  0  0  0  0  0  0  0  0  0  0
    7.9569  -11.6935   26.2647 C   0  0  0  0  0  0  0  0  0  0  0  0
    8.4394  -12.9738   26.4116 C   0  0  0  0  0  0  0  0  0  0  0  0
    7.6392  -14.0230   26.0173 C   0  0  0  0  0  0  0  0  0  0  0  0
   11.2761  -17.0027   25.9894 C   0  0  0  0  0  0  0  0  0  0  0  0
   12.0018  -16.6981   26.9584 O   0  0  0  0  0  0  0  0  0  0  0  0
   11.5947  -18.2146   25.2865 N   0  0  0  0  0  0  0  0  0  0  0  0
   12.7403  -18.9754   25.7192 C   0  0  0  0  0  0  0  0  0  0  0  0
   12.3772  -19.7743   26.8934 C   0  0  0  0  0  0  0  0  0  0  0  0
   11.4540  -20.6302   26.8431 O   0  0  0  0  0  0  0  0  0  0  0  0
   13.0449  -19.6017   28.0835 O   0  0  0  0  0  0  0  0  0  0  0  0
  1  2  1  0
  2  4  1  0
  3  2  2  0
  4  5  1  0
  5  6  1  0
  6  8  1  0
  6  7  1  1
  8  9  2  0
 10  8  1  0
 11 10  1  0
 11 12  1  1
 13 12  1  0
 13 21  1  0
 14 15  1  0
 14 13  2  0
 15 16  1  0
 16 21  2  0
 16 17  1  0
 17 18  2  0
 18 19  1  0
 20 19  2  0
 21 20  1  0
 22 11  1  0
 23 22  2  0
 24 22  1  0
 25 24  1  0
 25 26  1  0
 26 28  1  0
 27 26  2  0
M  END
$$$$
