KEL.pdb
     RDKit          3D

 27 26  0  0  1  0  0  0  0  0999 V2000
   28.2256  -21.5966  -16.7532 N   0  0  0  0  0  0  0  0  0  0  0  0
   27.6432  -22.8638  -17.1040 C   0  0  1  0  0  0  0  0  0  0  0  0
   28.3853  -23.9605  -16.3652 C   0  0  0  0  0  0  0  0  0  0  0  0
   29.8512  -23.8694  -16.5585 C   0  0  0  0  0  0  0  0  0  0  0  0
   30.3493  -24.2254  -17.9155 C   0  0  0  0  0  0  0  0  0  0  0  0
   31.8329  -24.2294  -18.1000 C   0  0  0  0  0  0  0  0  0  0  0  0
   32.2295  -24.5781  -19.4258 N   0  0  0  0  0  0  0  0  0  0  0  0
   26.2095  -22.9219  -16.7877 C   0  0  0  0  0  0  0  0  0  0  0  0
   25.5893  -24.0147  -17.0309 O   0  0  0  0  0  0  0  0  0  0  0  0
   25.5035  -21.8058  -16.2309 N   0  0  0  0  0  0  0  0  0  0  0  0
   24.1272  -21.8930  -15.8950 C   0  0  1  0  0  0  0  0  0  0  0  0
   23.6228  -21.3197  -14.6446 C   0  0  0  0  0  0  0  0  0  0  0  0
   22.2246  -21.4641  -14.2347 C   0  0  0  0  0  0  0  0  0  0  0  0
   21.8882  -20.8300  -12.9709 C   0  0  0  0  0  0  0  0  0  0  0  0
   22.6696  -20.1937  -12.2403 O   0  0  0  0  0  0  0  0  0  0  0  0
   23.2653  -21.3665  -17.0190 C   0  0  0  0  0  0  0  0  0  0  0  0
   23.5235  -20.2176  -17.4433 O   0  0  0  0  0  0  0  0  0  0  0  0
   20.5627  -20.9005  -12.4571 O   0  0  0  0  0  0  0  0  0  0  0  0
   23.2268  -21.4524  -21.2183 C   0  0  0  0  0  0  0  0  0  0  0  0
   22.5458  -22.6446  -20.6391 C   0  0  2  0  0  0  0  0  0  0  0  0
   22.1549  -23.5640  -21.8124 C   0  0  0  0  0  0  0  0  0  0  0  0
   21.3015  -22.4094  -19.8731 C   0  0  0  0  0  0  0  0  0  0  0  0
   21.3729  -21.5557  -18.6637 C   0  0  2  0  0  0  0  0  0  0  0  0
   22.2145  -22.1009  -17.5913 N   0  0  0  0  0  0  0  0  0  0  0  0
   20.0506  -21.2118  -18.1012 C   0  0  0  0  0  0  0  0  0  0  0  0
   19.2803  -20.4569  -18.7433 O   0  0  0  0  0  0  0  0  0  0  0  0
   19.5943  -21.6829  -16.8762 O   0  0  0  0  0  0  0  0  0  0  0  0
  2  8  1  0
  2  1  1  1
  3  2  1  0
  4  3  1  0
  5  4  1  0
  6  5  1  0
  7  6  1  0
  8  9  2  0
 10 11  1  0
 10  8  1  0
 12 13  1  0
 11 12  1  1
 13 14  1  0
 14 18  1  0
 14 15  2  0
 16 17  2  0
 16 11  1  0
 20 21  1  6
 20 19  1  0
 20 22  1  0
 23 22  1  6
 23 25  1  0
 23 24  1  0
 24 16  1  0
 25 27  1  0
 26 25  2  0
M  END
$$$$
