KEL.pdb
     RDKit          3D

 27 26  0  0  1  0  0  0  0  0999 V2000
   22.9966  -21.8232  -12.4949 N   0  0  0  0  0  0  0  0  0  0  0  0
   23.5434  -20.5503  -12.1087 C   0  0  1  0  0  0  0  0  0  0  0  0
   23.9882  -20.6319  -10.6614 C   0  0  0  0  0  0  0  0  0  0  0  0
   22.8398  -20.6668   -9.7263 C   0  0  0  0  0  0  0  0  0  0  0  0
   22.9489  -21.6363   -8.6018 C   0  0  0  0  0  0  0  0  0  0  0  0
   21.8267  -21.6388   -7.6140 C   0  0  0  0  0  0  0  0  0  0  0  0
   22.0066  -22.5922   -6.5675 N   0  0  0  0  0  0  0  0  0  0  0  0
   24.6701  -20.1487  -12.9621 C   0  0  0  0  0  0  0  0  0  0  0  0
   25.3127  -19.0894  -12.6413 O   0  0  0  0  0  0  0  0  0  0  0  0
   25.0539  -20.8958  -14.1234 N   0  0  0  0  0  0  0  0  0  0  0  0
   26.1644  -20.5099  -14.9185 C   0  0  1  0  0  0  0  0  0  0  0  0
   26.9267  -21.5060  -15.6759 C   0  0  0  0  0  0  0  0  0  0  0  0
   28.1446  -21.1559  -16.4092 C   0  0  0  0  0  0  0  0  0  0  0  0
   28.7373  -22.2449  -17.1676 C   0  0  0  0  0  0  0  0  0  0  0  0
   28.5221  -22.5045  -18.3657 O   0  0  0  0  0  0  0  0  0  0  0  0
   25.7824  -19.4039  -15.8747 C   0  0  0  0  0  0  0  0  0  0  0  0
   24.6486  -19.4731  -16.4004 O   0  0  0  0  0  0  0  0  0  0  0  0
   29.6579  -23.1382  -16.5508 O   0  0  0  0  0  0  0  0  0  0  0  0
   25.3735  -14.8687  -15.3544 C   0  0  0  0  0  0  0  0  0  0  0  0
   26.7661  -15.2694  -15.7018 C   0  0  2  0  0  0  0  0  0  0  0  0
   27.5975  -13.9776  -15.8242 C   0  0  0  0  0  0  0  0  0  0  0  0
   26.9639  -16.0035  -16.9715 C   0  0  0  0  0  0  0  0  0  0  0  0
   26.2547  -17.2920  -17.1548 C   0  0  2  0  0  0  0  0  0  0  0  0
   26.6298  -18.3283  -16.1848 N   0  0  0  0  0  0  0  0  0  0  0  0
   26.3796  -17.8494  -18.5174 C   0  0  0  0  0  0  0  0  0  0  0  0
   25.4507  -17.6805  -19.3446 O   0  0  0  0  0  0  0  0  0  0  0  0
   27.4876  -18.5666  -18.9520 O   0  0  0  0  0  0  0  0  0  0  0  0
  2  8  1  0
  2  1  1  6
  3  2  1  0
  4  3  1  0
  5  4  1  0
  6  5  1  0
  7  6  1  0
  8  9  2  0
 10 11  1  0
 10  8  1  0
 12 13  1  0
 11 12  1  6
 13 14  1  0
 14 18  1  0
 14 15  2  0
 16 17  2  0
 16 11  1  0
 20 21  1  6
 20 19  1  0
 20 22  1  0
 23 22  1  6
 23 25  1  0
 23 24  1  0
 24 16  1  0
 25 27  1  0
 26 25  2  0
M  END
$$$$
