KEL.pdb
     RDKit          3D

 27 26  0  0  1  0  0  0  0  0999 V2000
   26.3524  -23.3678  -15.4966 N   0  0  0  0  0  0  0  0  0  0  0  0
   25.0231  -23.4259  -16.0421 C   0  0  1  0  0  0  0  0  0  0  0  0
   24.8160  -24.7892  -16.6727 C   0  0  0  0  0  0  0  0  0  0  0  0
   25.9260  -25.7205  -16.3643 C   0  0  0  0  0  0  0  0  0  0  0  0
   25.9163  -27.0095  -17.1090 C   0  0  0  0  0  0  0  0  0  0  0  0
   27.0456  -27.9484  -16.8290 C   0  0  0  0  0  0  0  0  0  0  0  0
   26.9766  -29.1491  -17.5972 N   0  0  0  0  0  0  0  0  0  0  0  0
   23.9940  -23.1789  -15.0227 C   0  0  0  0  0  0  0  0  0  0  0  0
   24.1847  -23.6635  -13.8536 O   0  0  0  0  0  0  0  0  0  0  0  0
   22.8049  -22.4294  -15.3028 N   0  0  0  0  0  0  0  0  0  0  0  0
   21.8477  -22.1543  -14.2915 C   0  0  1  0  0  0  0  0  0  0  0  0
   21.1279  -20.8783  -14.2675 C   0  0  0  0  0  0  0  0  0  0  0  0
   21.7411  -19.6341  -14.7363 C   0  0  0  0  0  0  0  0  0  0  0  0
   20.9087  -18.4508  -14.5974 C   0  0  0  0  0  0  0  0  0  0  0  0
   20.5489  -17.6966  -15.5197 O   0  0  0  0  0  0  0  0  0  0  0  0
   20.8204  -23.2594  -14.2089 C   0  0  0  0  0  0  0  0  0  0  0  0
   20.3215  -23.6537  -15.2870 O   0  0  0  0  0  0  0  0  0  0  0  0
   20.4222  -18.0552  -13.3196 O   0  0  0  0  0  0  0  0  0  0  0  0
   21.0470  -27.6593  -13.4392 C   0  0  0  0  0  0  0  0  0  0  0  0
   20.9925  -26.7683  -12.2461 C   0  0  2  0  0  0  0  0  0  0  0  0
   21.1883  -27.6562  -11.0019 C   0  0  0  0  0  0  0  0  0  0  0  0
   19.7383  -26.0168  -12.0176 C   0  0  0  0  0  0  0  0  0  0  0  0
   19.4056  -24.9086  -12.9438 C   0  0  2  0  0  0  0  0  0  0  0  0
   20.4176  -23.8463  -12.9988 N   0  0  0  0  0  0  0  0  0  0  0  0
   18.0866  -24.2950  -12.6855 C   0  0  0  0  0  0  0  0  0  0  0  0
   17.0468  -24.9896  -12.7947 O   0  0  0  0  0  0  0  0  0  0  0  0
   17.9200  -22.9647  -12.3201 O   0  0  0  0  0  0  0  0  0  0  0  0
  2  8  1  0
  2  1  1  1
  3  2  1  0
  4  3  1  0
  5  4  1  0
  6  5  1  0
  7  6  1  0
  8  9  2  0
 10 11  1  0
 10  8  1  0
 12 13  1  0
 11 12  1  6
 13 14  1  0
 14 18  1  0
 14 15  2  0
 16 17  2  0
 16 11  1  0
 20 21  1  1
 20 19  1  0
 20 22  1  0
 23 22  1  1
 23 25  1  0
 23 24  1  0
 24 16  1  0
 25 27  1  0
 26 25  2  0
M  END
$$$$
