KEL.pdb
     RDKit          3D

 27 26  0  0  1  0  0  0  0  0999 V2000
   22.3261  -19.2993  -13.1045 N   0  0  0  0  0  0  0  0  0  0  0  0
   21.8421  -19.9161  -11.8989 C   0  0  1  0  0  0  0  0  0  0  0  0
   20.8249  -20.9772  -12.2708 C   0  0  0  0  0  0  0  0  0  0  0  0
   20.9290  -21.3748  -13.6940 C   0  0  0  0  0  0  0  0  0  0  0  0
   19.6872  -21.2249  -14.5013 C   0  0  0  0  0  0  0  0  0  0  0  0
   19.7176  -21.7979  -15.8818 C   0  0  0  0  0  0  0  0  0  0  0  0
   18.5719  -21.4471  -16.6570 N   0  0  0  0  0  0  0  0  0  0  0  0
   22.9269  -20.5114  -11.1064 C   0  0  0  0  0  0  0  0  0  0  0  0
   22.6055  -21.3294  -10.1760 O   0  0  0  0  0  0  0  0  0  0  0  0
   24.3057  -20.1995  -11.3419 N   0  0  0  0  0  0  0  0  0  0  0  0
   25.3484  -20.9603  -10.7514 C   0  0  1  0  0  0  0  0  0  0  0  0
   26.4214  -21.5263  -11.5729 C   0  0  0  0  0  0  0  0  0  0  0  0
   27.2388  -20.6956  -12.4592 C   0  0  0  0  0  0  0  0  0  0  0  0
   28.2123  -21.4238  -13.2557 C   0  0  0  0  0  0  0  0  0  0  0  0
   27.9586  -22.3141  -14.0876 O   0  0  0  0  0  0  0  0  0  0  0  0
   25.9949  -20.1975   -9.6184 C   0  0  0  0  0  0  0  0  0  0  0  0
   26.0154  -18.9495   -9.7119 O   0  0  0  0  0  0  0  0  0  0  0  0
   29.6028  -21.1480  -13.1273 O   0  0  0  0  0  0  0  0  0  0  0  0
   29.0726  -19.1503   -5.3127 C   0  0  0  0  0  0  0  0  0  0  0  0
   27.7727  -19.8065   -4.9967 C   0  0  2  0  0  0  0  0  0  0  0  0
   28.0418  -20.8492   -3.8943 C   0  0  0  0  0  0  0  0  0  0  0  0
   27.0975  -20.5367   -6.0927 C   0  0  0  0  0  0  0  0  0  0  0  0
   27.3175  -20.0746   -7.4836 C   0  0  2  0  0  0  0  0  0  0  0  0
   26.5566  -20.8213   -8.4930 N   0  0  0  0  0  0  0  0  0  0  0  0
   28.7399  -20.0506   -7.8829 C   0  0  0  0  0  0  0  0  0  0  0  0
   29.2962  -21.1102   -8.2614 O   0  0  0  0  0  0  0  0  0  0  0  0
   29.5201  -18.9009   -7.8658 O   0  0  0  0  0  0  0  0  0  0  0  0
  2  8  1  0
  2  1  1  6
  3  2  1  0
  4  3  1  0
  5  4  1  0
  6  5  1  0
  7  6  1  0
  8  9  2  0
 10 11  1  0
 10  8  1  0
 12 13  1  0
 11 12  1  6
 13 14  1  0
 14 18  1  0
 14 15  2  0
 16 17  2  0
 16 11  1  0
 20 21  1  1
 20 19  1  0
 20 22  1  0
 23 22  1  1
 23 25  1  0
 23 24  1  0
 24 16  1  0
 25 27  1  0
 26 25  2  0
M  END
$$$$
