KEL.pdb
     RDKit          3D

 27 26  0  0  1  0  0  0  0  0999 V2000
   27.6489  -23.2608  -16.7890 N   0  0  0  0  0  0  0  0  0  0  0  0
   26.9189  -24.4929  -16.9192 C   0  0  1  0  0  0  0  0  0  0  0  0
   25.5358  -24.1833  -17.4582 C   0  0  0  0  0  0  0  0  0  0  0  0
   24.7590  -23.3209  -16.5377 C   0  0  0  0  0  0  0  0  0  0  0  0
   24.5782  -23.8454  -15.1561 C   0  0  0  0  0  0  0  0  0  0  0  0
   23.6864  -23.0531  -14.2549 C   0  0  0  0  0  0  0  0  0  0  0  0
   23.5535  -23.6277  -12.9554 N   0  0  0  0  0  0  0  0  0  0  0  0
   27.6013  -25.4517  -17.7990 C   0  0  0  0  0  0  0  0  0  0  0  0
   27.6098  -25.2064  -19.0551 O   0  0  0  0  0  0  0  0  0  0  0  0
   28.2385  -26.6323  -17.2949 N   0  0  0  0  0  0  0  0  0  0  0  0
   28.9691  -27.5009  -18.1473 C   0  0  1  0  0  0  0  0  0  0  0  0
   30.4031  -27.7208  -17.9426 C   0  0  0  0  0  0  0  0  0  0  0  0
   31.1809  -28.6125  -18.8050 C   0  0  0  0  0  0  0  0  0  0  0  0
   32.6033  -28.6621  -18.5107 C   0  0  0  0  0  0  0  0  0  0  0  0
   33.1131  -28.8519  -17.3912 O   0  0  0  0  0  0  0  0  0  0  0  0
   28.3064  -28.8565  -18.2289 C   0  0  0  0  0  0  0  0  0  0  0  0
   27.9709  -29.3914  -17.1482 O   0  0  0  0  0  0  0  0  0  0  0  0
   33.5626  -28.4861  -19.5475 O   0  0  0  0  0  0  0  0  0  0  0  0
   25.1147  -32.5754  -22.0813 C   0  0  0  0  0  0  0  0  0  0  0  0
   25.6820  -32.2377  -20.7454 C   0  0  2  0  0  0  0  0  0  0  0  0
   24.4998  -32.1062  -19.7656 C   0  0  0  0  0  0  0  0  0  0  0  0
   26.4473  -30.9759  -20.6329 C   0  0  0  0  0  0  0  0  0  0  0  0
   27.3855  -30.8235  -19.4957 C   0  0  2  0  0  0  0  0  0  0  0  0
   28.0578  -29.5193  -19.4413 N   0  0  0  0  0  0  0  0  0  0  0  0
   28.4076  -31.8880  -19.4229 C   0  0  0  0  0  0  0  0  0  0  0  0
   29.4568  -31.7888  -20.1048 O   0  0  0  0  0  0  0  0  0  0  0  0
   28.2779  -33.0200  -18.6275 O   0  0  0  0  0  0  0  0  0  0  0  0
  2  8  1  0
  2  1  1  6
  3  2  1  0
  4  3  1  0
  5  4  1  0
  6  5  1  0
  7  6  1  0
  8  9  2  0
 10 11  1  0
 10  8  1  0
 12 13  1  0
 11 12  1  1
 13 14  1  0
 14 18  1  0
 14 15  2  0
 16 17  2  0
 16 11  1  0
 20 21  1  1
 20 19  1  0
 20 22  1  0
 23 22  1  6
 23 25  1  0
 23 24  1  0
 24 16  1  0
 25 27  1  0
 26 25  2  0
M  END
$$$$
