KEL.pdb
     RDKit          3D

 27 26  0  0  1  0  0  0  0  0999 V2000
   27.6838  -21.1999  -14.8530 N   0  0  0  0  0  0  0  0  0  0  0  0
   28.0533  -19.9280  -14.2926 C   0  0  1  0  0  0  0  0  0  0  0  0
   27.8976  -18.8630  -15.3606 C   0  0  0  0  0  0  0  0  0  0  0  0
   26.8221  -19.1933  -16.3244 C   0  0  0  0  0  0  0  0  0  0  0  0
   26.6069  -18.2067  -17.4184 C   0  0  0  0  0  0  0  0  0  0  0  0
   25.5371  -18.5351  -18.4097 C   0  0  0  0  0  0  0  0  0  0  0  0
   25.3892  -17.5396  -19.4215 N   0  0  0  0  0  0  0  0  0  0  0  0
   27.2447  -19.5849  -13.1147 C   0  0  0  0  0  0  0  0  0  0  0  0
   27.3418  -18.3960  -12.6509 O   0  0  0  0  0  0  0  0  0  0  0  0
   26.3734  -20.5316  -12.4833 N   0  0  0  0  0  0  0  0  0  0  0  0
   25.4947  -20.1463  -11.4373 C   0  0  1  0  0  0  0  0  0  0  0  0
   24.0420  -20.2032  -11.6193 C   0  0  0  0  0  0  0  0  0  0  0  0
   23.4262  -20.1799  -12.9474 C   0  0  0  0  0  0  0  0  0  0  0  0
   21.9734  -20.2211  -12.9497 C   0  0  0  0  0  0  0  0  0  0  0  0
   21.2315  -19.9358  -11.9919 O   0  0  0  0  0  0  0  0  0  0  0  0
   25.8239  -20.8835  -10.1600 C   0  0  0  0  0  0  0  0  0  0  0  0
   25.7820  -22.1339  -10.1981 O   0  0  0  0  0  0  0  0  0  0  0  0
   21.2632  -20.6142  -14.1189 O   0  0  0  0  0  0  0  0  0  0  0  0
   29.3159  -20.5564   -7.0065 C   0  0  0  0  0  0  0  0  0  0  0  0
   28.1673  -19.6154   -6.8818 C   0  0  2  0  0  0  0  0  0  0  0  0
   28.4840  -18.6577   -5.7168 C   0  0  0  0  0  0  0  0  0  0  0  0
   26.8414  -20.1998   -6.5804 C   0  0  0  0  0  0  0  0  0  0  0  0
   26.1273  -20.9154   -7.6642 C   0  0  2  0  0  0  0  0  0  0  0  0
   26.1685  -20.2339   -8.9640 N   0  0  0  0  0  0  0  0  0  0  0  0
   24.7216  -21.2337   -7.3393 C   0  0  0  0  0  0  0  0  0  0  0  0
   23.7955  -20.6774   -7.9784 O   0  0  0  0  0  0  0  0  0  0  0  0
   24.3504  -22.1323   -6.3465 O   0  0  0  0  0  0  0  0  0  0  0  0
  2  8  1  0
  2  1  1  6
  3  2  1  0
  4  3  1  0
  5  4  1  0
  6  5  1  0
  7  6  1  0
  8  9  2  0
 10 11  1  0
 10  8  1  0
 12 13  1  0
 11 12  1  6
 13 14  1  0
 14 18  1  0
 14 15  2  0
 16 17  2  0
 16 11  1  0
 20 21  1  1
 20 19  1  0
 20 22  1  0
 23 22  1  1
 23 25  1  0
 23 24  1  0
 24 16  1  0
 25 27  1  0
 26 25  2  0
M  END
$$$$
