KEL.pdb
     RDKit          3D

 27 26  0  0  1  0  0  0  0  0999 V2000
   18.2225  -12.4428  -18.9915 N   0  0  0  0  0  0  0  0  0  0  0  0
   19.4931  -12.5129  -18.3217 C   0  0  1  0  0  0  0  0  0  0  0  0
   20.3748  -13.5046  -19.0554 C   0  0  0  0  0  0  0  0  0  0  0  0
   19.7008  -14.8087  -19.2549 C   0  0  0  0  0  0  0  0  0  0  0  0
   19.9540  -15.8359  -18.2075 C   0  0  0  0  0  0  0  0  0  0  0  0
   19.2954  -17.1635  -18.4045 C   0  0  0  0  0  0  0  0  0  0  0  0
   19.6777  -18.1271  -17.4237 N   0  0  0  0  0  0  0  0  0  0  0  0
   20.1557  -11.2034  -18.2506 C   0  0  0  0  0  0  0  0  0  0  0  0
   21.3071  -11.1474  -17.6946 O   0  0  0  0  0  0  0  0  0  0  0  0
   19.5532  -10.0124  -18.7727 N   0  0  0  0  0  0  0  0  0  0  0  0
   20.1281   -8.7336  -18.5518 C   0  0  1  0  0  0  0  0  0  0  0  0
   19.5626   -7.5381  -19.1825 C   0  0  0  0  0  0  0  0  0  0  0  0
   20.1559   -6.2120  -19.0006 C   0  0  0  0  0  0  0  0  0  0  0  0
   20.2816   -5.4253  -20.2161 C   0  0  0  0  0  0  0  0  0  0  0  0
   19.3421   -4.9775  -20.8987 O   0  0  0  0  0  0  0  0  0  0  0  0
   20.2586   -8.4512  -17.0731 C   0  0  0  0  0  0  0  0  0  0  0  0
   19.4723   -9.0532  -16.3076 O   0  0  0  0  0  0  0  0  0  0  0  0
   21.5657   -5.0965  -20.7348 O   0  0  0  0  0  0  0  0  0  0  0  0
   23.1772   -9.1449  -12.9986 C   0  0  0  0  0  0  0  0  0  0  0  0
   23.5691   -9.6456  -14.3462 C   0  0  2  0  0  0  0  0  0  0  0  0
   25.0125   -9.1736  -14.6085 C   0  0  0  0  0  0  0  0  0  0  0  0
   22.7710   -9.1786  -15.5018 C   0  0  0  0  0  0  0  0  0  0  0  0
   22.0263   -7.9039  -15.3708 C   0  0  2  0  0  0  0  0  0  0  0  0
   21.2066   -7.5632  -16.5403 N   0  0  0  0  0  0  0  0  0  0  0  0
   22.8836   -6.7472  -15.0386 C   0  0  0  0  0  0  0  0  0  0  0  0
   23.2008   -6.5329  -13.8432 O   0  0  0  0  0  0  0  0  0  0  0  0
   23.3730   -5.8597  -15.9891 O   0  0  0  0  0  0  0  0  0  0  0  0
  2  8  1  0
  2  1  1  6
  3  2  1  0
  4  3  1  0
  5  4  1  0
  6  5  1  0
  7  6  1  0
  8  9  2  0
 10 11  1  0
 10  8  1  0
 12 13  1  0
 11 12  1  1
 13 14  1  0
 14 18  1  0
 14 15  2  0
 16 17  2  0
 16 11  1  0
 20 21  1  6
 20 19  1  0
 20 22  1  0
 23 22  1  6
 23 25  1  0
 23 24  1  0
 24 16  1  0
 25 27  1  0
 26 25  2  0
M  END
$$$$
