KEL.pdb
     RDKit          3D

 27 26  0  0  1  0  0  0  0  0999 V2000
   22.5089  -18.5972  -14.9940 N   0  0  0  0  0  0  0  0  0  0  0  0
   22.1772  -19.7517  -14.2032 C   0  0  1  0  0  0  0  0  0  0  0  0
   20.9804  -20.4412  -14.8286 C   0  0  0  0  0  0  0  0  0  0  0  0
   19.7145  -19.7248  -14.5475 C   0  0  0  0  0  0  0  0  0  0  0  0
   18.9392  -20.2148  -13.3748 C   0  0  0  0  0  0  0  0  0  0  0  0
   17.6505  -19.5130  -13.0887 C   0  0  0  0  0  0  0  0  0  0  0  0
   16.9699  -20.0382  -11.9497 N   0  0  0  0  0  0  0  0  0  0  0  0
   23.3019  -20.6910  -14.0941 C   0  0  0  0  0  0  0  0  0  0  0  0
   23.0315  -21.9408  -14.0403 O   0  0  0  0  0  0  0  0  0  0  0  0
   24.6644  -20.2495  -14.0415 N   0  0  0  0  0  0  0  0  0  0  0  0
   25.7402  -21.1733  -13.9787 C   0  0  1  0  0  0  0  0  0  0  0  0
   26.9652  -20.9512  -14.7512 C   0  0  0  0  0  0  0  0  0  0  0  0
   28.0520  -21.9319  -14.7789 C   0  0  0  0  0  0  0  0  0  0  0  0
   29.1776  -21.5750  -15.6261 C   0  0  0  0  0  0  0  0  0  0  0  0
   29.2867  -20.5329  -16.2980 O   0  0  0  0  0  0  0  0  0  0  0  0
   26.1446  -21.4306  -12.5456 C   0  0  0  0  0  0  0  0  0  0  0  0
   27.0670  -22.2548  -12.3544 O   0  0  0  0  0  0  0  0  0  0  0  0
   30.2954  -22.4477  -15.7489 O   0  0  0  0  0  0  0  0  0  0  0  0
   26.5621  -20.0297   -7.1484 C   0  0  0  0  0  0  0  0  0  0  0  0
   27.5048  -20.5829   -8.1611 C   0  0  2  0  0  0  0  0  0  0  0  0
   28.8447  -19.8402   -7.9936 C   0  0  0  0  0  0  0  0  0  0  0  0
   27.1325  -20.4360   -9.5859 C   0  0  0  0  0  0  0  0  0  0  0  0
   25.9032  -21.1125  -10.0632 C   0  0  2  0  0  0  0  0  0  0  0  0
   25.5409  -20.7937  -11.4498 N   0  0  0  0  0  0  0  0  0  0  0  0
   24.7262  -20.8829   -9.2000 C   0  0  0  0  0  0  0  0  0  0  0  0
   23.9059  -19.9803   -9.4964 O   0  0  0  0  0  0  0  0  0  0  0  0
   24.4633  -21.6212   -8.0526 O   0  0  0  0  0  0  0  0  0  0  0  0
  2  8  1  0
  2  1  1  6
  3  2  1  0
  4  3  1  0
  5  4  1  0
  6  5  1  0
  7  6  1  0
  8  9  2  0
 10 11  1  0
 10  8  1  0
 12 13  1  0
 11 12  1  6
 13 14  1  0
 14 18  1  0
 14 15  2  0
 16 17  2  0
 16 11  1  0
 20 21  1  6
 20 19  1  0
 20 22  1  0
 23 22  1  1
 23 25  1  0
 23 24  1  0
 24 16  1  0
 25 27  1  0
 26 25  2  0
M  END
$$$$
