KEL.pdb
     RDKit          3D

 27 26  0  0  1  0  0  0  0  0999 V2000
   19.5578  -15.7925  -18.7089 N   0  0  0  0  0  0  0  0  0  0  0  0
   19.4926  -15.0822  -17.4602 C   0  0  1  0  0  0  0  0  0  0  0  0
   20.3917  -15.7790  -16.4576 C   0  0  0  0  0  0  0  0  0  0  0  0
   19.9151  -17.1443  -16.1361 C   0  0  0  0  0  0  0  0  0  0  0  0
   20.5472  -17.7894  -14.9526 C   0  0  0  0  0  0  0  0  0  0  0  0
   20.0175  -19.1326  -14.5646 C   0  0  0  0  0  0  0  0  0  0  0  0
   20.6845  -19.6899  -13.4328 N   0  0  0  0  0  0  0  0  0  0  0  0
   19.8888  -13.6743  -17.6015 C   0  0  0  0  0  0  0  0  0  0  0  0
   20.9195  -13.4139  -18.3142 O   0  0  0  0  0  0  0  0  0  0  0  0
   19.1671  -12.6098  -16.9689 N   0  0  0  0  0  0  0  0  0  0  0  0
   19.4853  -11.2492  -17.2180 C   0  0  1  0  0  0  0  0  0  0  0  0
   18.4414  -10.2912  -17.5911 C   0  0  0  0  0  0  0  0  0  0  0  0
   17.5422  -10.5269  -18.7223 C   0  0  0  0  0  0  0  0  0  0  0  0
   16.4837   -9.5433  -18.8786 C   0  0  0  0  0  0  0  0  0  0  0  0
   15.2680   -9.7871  -18.9872 O   0  0  0  0  0  0  0  0  0  0  0  0
   20.2558  -10.6569  -16.0608 C   0  0  0  0  0  0  0  0  0  0  0  0
   19.7789  -10.8231  -14.9156 O   0  0  0  0  0  0  0  0  0  0  0  0
   16.7886   -8.1536  -18.9197 O   0  0  0  0  0  0  0  0  0  0  0  0
   24.2077  -11.7023  -14.2955 C   0  0  0  0  0  0  0  0  0  0  0  0
   24.3057  -10.7167  -15.4088 C   0  0  2  0  0  0  0  0  0  0  0  0
   25.8019  -10.4191  -15.6269 C   0  0  0  0  0  0  0  0  0  0  0  0
   23.6532   -9.4032  -15.2112 C   0  0  0  0  0  0  0  0  0  0  0  0
   22.1774   -9.3655  -15.0800 C   0  0  2  0  0  0  0  0  0  0  0  0
   21.4571   -9.9477  -16.2192 N   0  0  0  0  0  0  0  0  0  0  0  0
   21.6392   -8.0146  -14.8181 C   0  0  0  0  0  0  0  0  0  0  0  0
   21.8995   -7.4427  -13.7315 O   0  0  0  0  0  0  0  0  0  0  0  0
   20.8434   -7.3199  -15.7209 O   0  0  0  0  0  0  0  0  0  0  0  0
  2  8  1  0
  2  1  1  6
  3  2  1  0
  4  3  1  0
  5  4  1  0
  6  5  1  0
  7  6  1  0
  8  9  2  0
 10 11  1  0
 10  8  1  0
 12 13  1  0
 11 12  1  1
 13 14  1  0
 14 18  1  0
 14 15  2  0
 16 17  2  0
 16 11  1  0
 20 21  1  1
 20 19  1  0
 20 22  1  0
 23 22  1  6
 23 25  1  0
 23 24  1  0
 24 16  1  0
 25 27  1  0
 26 25  2  0
M  END
$$$$
