KEL.pdb
     RDKit          3D

 27 26  0  0  1  0  0  0  0  0999 V2000
   27.6460  -21.7633  -15.2114 N   0  0  0  0  0  0  0  0  0  0  0  0
   28.0281  -20.3973  -14.9744 C   0  0  1  0  0  0  0  0  0  0  0  0
   27.8130  -19.6047  -16.2490 C   0  0  0  0  0  0  0  0  0  0  0  0
   26.7069  -20.1540  -17.0671 C   0  0  0  0  0  0  0  0  0  0  0  0
   27.0546  -21.3159  -17.9305 C   0  0  0  0  0  0  0  0  0  0  0  0
   26.0445  -21.7046  -18.9618 C   0  0  0  0  0  0  0  0  0  0  0  0
   26.3607  -22.9317  -19.6181 N   0  0  0  0  0  0  0  0  0  0  0  0
   27.2708  -19.7932  -13.8695 C   0  0  0  0  0  0  0  0  0  0  0  0
   27.4509  -18.5481  -13.6342 O   0  0  0  0  0  0  0  0  0  0  0  0
   26.3596  -20.5506  -13.0632 N   0  0  0  0  0  0  0  0  0  0  0  0
   25.6302  -19.9479  -12.0052 C   0  0  1  0  0  0  0  0  0  0  0  0
   24.1660  -19.9042  -12.0337 C   0  0  0  0  0  0  0  0  0  0  0  0
   23.3482  -21.0247  -11.5653 C   0  0  0  0  0  0  0  0  0  0  0  0
   21.9153  -20.8499  -11.7343 C   0  0  0  0  0  0  0  0  0  0  0  0
   21.3574  -19.9056  -12.3226 O   0  0  0  0  0  0  0  0  0  0  0  0
   26.0438  -20.5241  -10.6708 C   0  0  0  0  0  0  0  0  0  0  0  0
   26.1649  -21.7679  -10.6015 O   0  0  0  0  0  0  0  0  0  0  0  0
   21.0031  -21.8061  -11.2055 O   0  0  0  0  0  0  0  0  0  0  0  0
   28.0711  -18.8678   -4.9831 C   0  0  0  0  0  0  0  0  0  0  0  0
   27.9414  -19.8761   -6.0725 C   0  0  2  0  0  0  0  0  0  0  0  0
   29.3372  -20.4892   -6.2979 C   0  0  0  0  0  0  0  0  0  0  0  0
   27.4906  -19.3906   -7.3959 C   0  0  0  0  0  0  0  0  0  0  0  0
   26.7195  -20.3174   -8.2578 C   0  0  2  0  0  0  0  0  0  0  0  0
   26.2930  -19.7353   -9.5364 N   0  0  0  0  0  0  0  0  0  0  0  0
   25.5422  -20.9088   -7.5891 C   0  0  0  0  0  0  0  0  0  0  0  0
   25.6999  -21.8457   -6.7687 O   0  0  0  0  0  0  0  0  0  0  0  0
   24.2392  -20.4829   -7.8161 O   0  0  0  0  0  0  0  0  0  0  0  0
  2  8  1  0
  2  1  1  6
  3  2  1  0
  4  3  1  0
  5  4  1  0
  6  5  1  0
  7  6  1  0
  8  9  2  0
 10 11  1  0
 10  8  1  0
 12 13  1  0
 11 12  1  6
 13 14  1  0
 14 18  1  0
 14 15  2  0
 16 17  2  0
 16 11  1  0
 20 21  1  6
 20 19  1  0
 20 22  1  0
 23 22  1  1
 23 25  1  0
 23 24  1  0
 24 16  1  0
 25 27  1  0
 26 25  2  0
M  END
$$$$
