KEL.pdb
     RDKit          3D

 27 26  0  0  1  0  0  0  0  0999 V2000
   26.5139  -20.8606  -18.6007 N   0  0  0  0  0  0  0  0  0  0  0  0
   25.6259  -21.5939  -17.7394 C   0  0  1  0  0  0  0  0  0  0  0  0
   26.3655  -22.7991  -17.1921 C   0  0  0  0  0  0  0  0  0  0  0  0
   25.8435  -24.0712  -17.7433 C   0  0  0  0  0  0  0  0  0  0  0  0
   26.4267  -25.3144  -17.1683 C   0  0  0  0  0  0  0  0  0  0  0  0
   25.9754  -26.6039  -17.7754 C   0  0  0  0  0  0  0  0  0  0  0  0
   26.5879  -27.7463  -17.1785 N   0  0  0  0  0  0  0  0  0  0  0  0
   25.1170  -20.7686  -16.6353 C   0  0  0  0  0  0  0  0  0  0  0  0
   25.9151  -19.9161  -16.1116 O   0  0  0  0  0  0  0  0  0  0  0  0
   23.7790  -20.8976  -16.1382 N   0  0  0  0  0  0  0  0  0  0  0  0
   23.2953  -20.0708  -15.0908 C   0  0  1  0  0  0  0  0  0  0  0  0
   21.9418  -19.5120  -15.1408 C   0  0  0  0  0  0  0  0  0  0  0  0
   21.6247  -18.3194  -15.9286 C   0  0  0  0  0  0  0  0  0  0  0  0
   20.3927  -18.4014  -16.6953 C   0  0  0  0  0  0  0  0  0  0  0  0
   19.2664  -18.6776  -16.2435 O   0  0  0  0  0  0  0  0  0  0  0  0
   23.4597  -20.7495  -13.7507 C   0  0  0  0  0  0  0  0  0  0  0  0
   23.1168  -21.9510  -13.6760 O   0  0  0  0  0  0  0  0  0  0  0  0
   20.3961  -18.1560  -18.0974 O   0  0  0  0  0  0  0  0  0  0  0  0
   23.9170  -20.6088   -8.1146 C   0  0  0  0  0  0  0  0  0  0  0  0
   25.0804  -20.8385   -9.0168 C   0  0  2  0  0  0  0  0  0  0  0  0
   26.3142  -20.2070   -8.3432 C   0  0  0  0  0  0  0  0  0  0  0  0
   25.0122  -20.2526  -10.3741 C   0  0  0  0  0  0  0  0  0  0  0  0
   23.9327  -20.7085  -11.2816 C   0  0  2  0  0  0  0  0  0  0  0  0
   23.9720  -20.0992  -12.6168 N   0  0  0  0  0  0  0  0  0  0  0  0
   22.5758  -20.5388  -10.7219 C   0  0  0  0  0  0  0  0  0  0  0  0
   22.0251  -21.4977  -10.1279 O   0  0  0  0  0  0  0  0  0  0  0  0
   21.8529  -19.3557  -10.8137 O   0  0  0  0  0  0  0  0  0  0  0  0
  2  8  1  0
  2  1  1  1
  3  2  1  0
  4  3  1  0
  5  4  1  0
  6  5  1  0
  7  6  1  0
  8  9  2  0
 10 11  1  0
 10  8  1  0
 12 13  1  0
 11 12  1  6
 13 14  1  0
 14 18  1  0
 14 15  2  0
 16 17  2  0
 16 11  1  0
 20 21  1  1
 20 19  1  0
 20 22  1  0
 23 22  1  1
 23 25  1  0
 23 24  1  0
 24 16  1  0
 25 27  1  0
 26 25  2  0
M  END
$$$$
