YPH.pdb
     RDKit          3D

 30 32  0  0  1  0  0  0  0  0999 V2000
   17.6657  -25.0760  -12.5707 O   0  0  0  0  0  0  0  0  0  0  0  0
   18.6768  -24.0990  -12.6696 C   0  0  0  0  0  0  0  0  0  0  0  0
   18.6783  -22.9989  -11.8417 C   0  0  0  0  0  0  0  0  0  0  0  0
   19.6697  -22.0371  -11.9359 C   0  0  0  0  0  0  0  0  0  0  0  0
   20.6932  -22.1297  -12.8510 C   0  0  0  0  0  0  0  0  0  0  0  0
   21.7622  -21.1533  -12.9906 C   0  0  0  0  0  0  0  0  0  0  0  0
   23.0254  -21.4569  -12.2178 C   0  0  2  0  0  0  0  0  0  0  0  0
   22.6806  -21.6823  -10.8370 N   0  0  0  0  0  0  0  0  0  0  0  0
   24.1475  -20.5725  -12.4774 C   0  0  0  0  0  0  0  0  0  0  0  0
   24.2199  -19.5739  -11.6348 O   0  0  0  0  0  0  0  0  0  0  0  0
   20.6534  -23.2554  -13.6666 C   0  0  0  0  0  0  0  0  0  0  0  0
   19.6851  -24.2222  -13.5955 C   0  0  0  0  0  0  0  0  0  0  0  0
   25.1451  -20.5949  -13.4385 N   0  0  0  0  0  0  0  0  0  0  0  0
   26.3573  -21.4878  -13.2828 C   0  0  0  0  0  0  0  0  0  0  0  0
   26.1833  -22.2545  -14.6094 C   0  0  0  0  0  0  0  0  0  0  0  0
   25.4863  -21.2488  -15.5612 C   0  0  0  0  0  0  0  0  0  0  0  0
   25.4991  -20.0053  -14.6791 C   0  0  1  0  0  0  0  0  0  0  0  0
   24.9320  -18.8109  -15.1865 C   0  0  0  0  0  0  0  0  0  0  0  0
   23.7359  -18.8648  -15.6488 O   0  0  0  0  0  0  0  0  0  0  0  0
   25.5221  -17.5289  -15.2634 N   0  0  0  0  0  0  0  0  0  0  0  0
   25.5232  -16.7420  -16.4936 C   0  0  1  0  0  0  0  0  0  0  0  0
   26.1918  -17.4446  -17.6294 C   0  0  0  0  0  0  0  0  0  0  0  0
   26.0510  -16.6955  -18.9047 C   0  0  0  0  0  0  0  0  0  0  0  0
   24.8851  -16.2262  -19.4794 C   0  0  0  0  0  0  0  0  0  0  0  0
   25.1537  -15.5962  -20.6330 N   0  0  0  0  0  0  0  0  0  0  0  0
   26.4894  -15.6533  -20.8118 C   0  0  0  0  0  0  0  0  0  0  0  0
   27.0267  -16.3167  -19.7680 N   0  0  0  0  0  0  0  0  0  0  0  0
   24.0780  -16.5718  -16.8804 C   0  0  0  0  0  0  0  0  0  0  0  0
   23.3653  -17.6009  -16.8570 O   0  0  0  0  0  0  0  0  0  0  0  0
   23.5405  -15.3600  -17.2453 O   0  0  0  0  0  0  0  0  0  0  0  0
  2  1  1  0
  3  2  2  0
  4  3  1  0
  5  4  2  0
  5 11  1  0
  6  5  1  0
  7  6  1  0
  7  8  1  1
  9 10  2  0
  9  7  1  0
 11 12  2  0
 12  2  1  0
 13  9  1  0
 14 13  1  0
 15 14  1  0
 16 15  1  0
 16 17  1  0
 17 13  1  0
 17 18  1  6
 19 18  2  0
 20 18  1  0
 21 28  1  0
 21 20  1  0
 21 22  1  6
 23 22  1  0
 24 23  2  0
 25 24  1  0
 26 25  1  0
 26 27  2  0
 27 23  1  0
 28 30  1  0
 29 28  2  0
M  END
$$$$
