YPH.pdb
     RDKit          3D

 30 32  0  0  1  0  0  0  0  0999 V2000
   29.5915  -20.4417   -4.0630 O   0  0  0  0  0  0  0  0  0  0  0  0
   28.6501  -20.4151   -5.1117 C   0  0  0  0  0  0  0  0  0  0  0  0
   28.4787  -19.2838   -5.8773 C   0  0  0  0  0  0  0  0  0  0  0  0
   27.5550  -19.2538   -6.9082 C   0  0  0  0  0  0  0  0  0  0  0  0
   26.7695  -20.3405   -7.2176 C   0  0  0  0  0  0  0  0  0  0  0  0
   25.7882  -20.3669   -8.2908 C   0  0  0  0  0  0  0  0  0  0  0  0
   26.3003  -20.8501   -9.6285 C   0  0  2  0  0  0  0  0  0  0  0  0
   27.7134  -20.5796   -9.7086 N   0  0  0  0  0  0  0  0  0  0  0  0
   25.4957  -20.4796  -10.7792 C   0  0  0  0  0  0  0  0  0  0  0  0
   24.8892  -19.3294  -10.6328 O   0  0  0  0  0  0  0  0  0  0  0  0
   26.9747  -21.4611   -6.4200 C   0  0  0  0  0  0  0  0  0  0  0  0
   27.8811  -21.5188   -5.3940 C   0  0  0  0  0  0  0  0  0  0  0  0
   25.2596  -21.1108  -11.9897 N   0  0  0  0  0  0  0  0  0  0  0  0
   26.4039  -21.6251  -12.8366 C   0  0  0  0  0  0  0  0  0  0  0  0
   25.9286  -23.0906  -12.9038 C   0  0  0  0  0  0  0  0  0  0  0  0
   24.3835  -23.0123  -12.8061 C   0  0  0  0  0  0  0  0  0  0  0  0
   24.1975  -21.4996  -12.8457 C   0  0  1  0  0  0  0  0  0  0  0  0
   22.8826  -20.9783  -12.7744 C   0  0  0  0  0  0  0  0  0  0  0  0
   22.2227  -21.1634  -11.6892 O   0  0  0  0  0  0  0  0  0  0  0  0
   22.1713  -20.2664  -13.7668 N   0  0  0  0  0  0  0  0  0  0  0  0
   20.8361  -19.7232  -13.5327 C   0  0  1  0  0  0  0  0  0  0  0  0
   20.6418  -18.3781  -14.1522 C   0  0  0  0  0  0  0  0  0  0  0  0
   19.2521  -17.8826  -13.9769 C   0  0  0  0  0  0  0  0  0  0  0  0
   18.6796  -17.3752  -12.8260 C   0  0  0  0  0  0  0  0  0  0  0  0
   17.4034  -17.0293  -13.0526 N   0  0  0  0  0  0  0  0  0  0  0  0
   17.1425  -17.3093  -14.3460 C   0  0  0  0  0  0  0  0  0  0  0  0
   18.2594  -17.8235  -14.8998 N   0  0  0  0  0  0  0  0  0  0  0  0
   19.8790  -20.6593  -14.2217 C   0  0  0  0  0  0  0  0  0  0  0  0
   20.2578  -21.1494  -15.3098 O   0  0  0  0  0  0  0  0  0  0  0  0
   18.6450  -20.9782  -13.7058 O   0  0  0  0  0  0  0  0  0  0  0  0
  2  1  1  0
  3  2  2  0
  4  3  1  0
  5  4  2  0
  5 11  1  0
  6  5  1  0
  7  6  1  0
  7  8  1  6
  9 10  2  0
  9  7  1  0
 11 12  2  0
 12  2  1  0
 13  9  1  0
 14 13  1  0
 15 14  1  0
 16 15  1  0
 16 17  1  0
 17 13  1  0
 17 18  1  1
 19 18  2  0
 20 18  1  0
 21 28  1  0
 21 20  1  0
 21 22  1  6
 23 22  1  0
 24 23  2  0
 25 24  1  0
 26 25  1  0
 26 27  2  0
 27 23  1  0
 28 30  1  0
 29 28  2  0
M  END
$$$$
