YPH.pdb
     RDKit          3D

 30 32  0  0  1  0  0  0  0  0999 V2000
   10.7726   -7.9253   -7.1019 O   0  0  0  0  0  0  0  0  0  0  0  0
   11.5139   -8.3038   -8.2394 C   0  0  0  0  0  0  0  0  0  0  0  0
   12.5330   -7.5089   -8.7139 C   0  0  0  0  0  0  0  0  0  0  0  0
   13.2634   -7.8772   -9.8308 C   0  0  0  0  0  0  0  0  0  0  0  0
   13.0119   -9.0434  -10.5167 C   0  0  0  0  0  0  0  0  0  0  0  0
   13.7494   -9.4821  -11.6910 C   0  0  0  0  0  0  0  0  0  0  0  0
   15.2124   -9.7874  -11.4638 C   0  0  2  0  0  0  0  0  0  0  0  0
   15.3200  -10.8248  -10.4695 N   0  0  0  0  0  0  0  0  0  0  0  0
   16.0765   -8.6317  -11.3017 C   0  0  0  0  0  0  0  0  0  0  0  0
   16.2023   -8.2555  -10.0547 O   0  0  0  0  0  0  0  0  0  0  0  0
   11.9752   -9.8158  -10.0040 C   0  0  0  0  0  0  0  0  0  0  0  0
   11.2362   -9.4759   -8.9013 C   0  0  0  0  0  0  0  0  0  0  0  0
   16.7867   -7.8675  -12.2133 N   0  0  0  0  0  0  0  0  0  0  0  0
   17.7839   -8.5061  -13.1561 C   0  0  0  0  0  0  0  0  0  0  0  0
   17.1389   -8.0020  -14.4629 C   0  0  0  0  0  0  0  0  0  0  0  0
   16.4630   -6.6602  -14.0808 C   0  0  0  0  0  0  0  0  0  0  0  0
   16.9495   -6.5253  -12.6422 C   0  0  1  0  0  0  0  0  0  0  0  0
   16.5430   -5.3931  -11.8948 C   0  0  0  0  0  0  0  0  0  0  0  0
   15.2850   -5.2157  -11.7122 O   0  0  0  0  0  0  0  0  0  0  0  0
   17.3561   -4.3960  -11.3097 N   0  0  0  0  0  0  0  0  0  0  0  0
   16.7964   -3.2256  -10.6392 C   0  0  1  0  0  0  0  0  0  0  0  0
   17.4348   -2.9562   -9.3161 C   0  0  0  0  0  0  0  0  0  0  0  0
   16.9818   -1.6664   -8.7344 C   0  0  0  0  0  0  0  0  0  0  0  0
   16.0799   -0.7706   -9.2765 C   0  0  0  0  0  0  0  0  0  0  0  0
   15.9209    0.2832   -8.4615 N   0  0  0  0  0  0  0  0  0  0  0  0
   16.7154    0.0772   -7.3912 C   0  0  0  0  0  0  0  0  0  0  0  0
   17.3533   -1.0989   -7.5594 N   0  0  0  0  0  0  0  0  0  0  0  0
   17.1154   -2.0480  -11.5216 C   0  0  0  0  0  0  0  0  0  0  0  0
   16.5479   -0.9673  -11.2430 O   0  0  0  0  0  0  0  0  0  0  0  0
   17.9821   -2.1258  -12.5862 O   0  0  0  0  0  0  0  0  0  0  0  0
  2  1  1  0
  3  2  2  0
  4  3  1  0
  5  4  2  0
  5 11  1  0
  6  5  1  0
  7  6  1  0
  7  8  1  1
  9 10  2  0
  9  7  1  0
 11 12  2  0
 12  2  1  0
 13  9  1  0
 14 13  1  0
 15 14  1  0
 16 15  1  0
 16 17  1  0
 17 13  1  0
 17 18  1  1
 19 18  2  0
 20 18  1  0
 21 28  1  0
 21 20  1  0
 21 22  1  1
 23 22  1  0
 24 23  2  0
 25 24  1  0
 26 25  1  0
 26 27  2  0
 27 23  1  0
 28 30  1  0
 29 28  2  0
M  END
$$$$
