YPH.pdb
     RDKit          3D

 30 32  0  0  1  0  0  0  0  0999 V2000
   16.4562  -23.4990  -13.3671 O   0  0  0  0  0  0  0  0  0  0  0  0
   17.8069  -23.1011  -13.4297 C   0  0  0  0  0  0  0  0  0  0  0  0
   18.4969  -22.7645  -12.2868 C   0  0  0  0  0  0  0  0  0  0  0  0
   19.8237  -22.3732  -12.3443 C   0  0  0  0  0  0  0  0  0  0  0  0
   20.5137  -22.3013  -13.5328 C   0  0  0  0  0  0  0  0  0  0  0  0
   21.9072  -21.9022  -13.6517 C   0  0  0  0  0  0  0  0  0  0  0  0
   22.1999  -20.4559  -13.3234 C   0  0  2  0  0  0  0  0  0  0  0  0
   21.2493  -19.6225  -14.0149 N   0  0  0  0  0  0  0  0  0  0  0  0
   23.5959  -20.0644  -13.4044 C   0  0  0  0  0  0  0  0  0  0  0  0
   23.8648  -19.3366  -14.4581 O   0  0  0  0  0  0  0  0  0  0  0  0
   19.7796  -22.6493  -14.6615 C   0  0  0  0  0  0  0  0  0  0  0  0
   18.4664  -23.0398  -14.6340 C   0  0  0  0  0  0  0  0  0  0  0  0
   24.6800  -20.3132  -12.5783 N   0  0  0  0  0  0  0  0  0  0  0  0
   24.7289  -19.7621  -11.1694 C   0  0  0  0  0  0  0  0  0  0  0  0
   24.9059  -21.1176  -10.4559 C   0  0  0  0  0  0  0  0  0  0  0  0
   25.6605  -22.0082  -11.4759 C   0  0  0  0  0  0  0  0  0  0  0  0
   25.9324  -20.9791  -12.5675 C   0  0  1  0  0  0  0  0  0  0  0  0
   26.6262  -21.3944  -13.7301 C   0  0  0  0  0  0  0  0  0  0  0  0
   26.2857  -22.5105  -14.2646 O   0  0  0  0  0  0  0  0  0  0  0  0
   27.6800  -20.7326  -14.4004 N   0  0  0  0  0  0  0  0  0  0  0  0
   28.3185  -21.2868  -15.5911 C   0  0  1  0  0  0  0  0  0  0  0  0
   29.1252  -22.5095  -15.2992 C   0  0  0  0  0  0  0  0  0  0  0  0
   29.7265  -23.0839  -16.5305 C   0  0  0  0  0  0  0  0  0  0  0  0
   30.2318  -22.3973  -17.6181 C   0  0  0  0  0  0  0  0  0  0  0  0
   30.6913  -23.2564  -18.5404 N   0  0  0  0  0  0  0  0  0  0  0  0
   30.4873  -24.4993  -18.0579 C   0  0  0  0  0  0  0  0  0  0  0  0
   29.9055  -24.3911  -16.8461 N   0  0  0  0  0  0  0  0  0  0  0  0
   27.1992  -21.7143  -16.5031 C   0  0  0  0  0  0  0  0  0  0  0  0
   26.3447  -22.4903  -16.0181 O   0  0  0  0  0  0  0  0  0  0  0  0
   27.0951  -21.2900  -17.8068 O   0  0  0  0  0  0  0  0  0  0  0  0
  2  1  1  0
  3  2  2  0
  4  3  1  0
  5  4  2  0
  5 11  1  0
  6  5  1  0
  7  6  1  0
  7  8  1  6
  9 10  2  0
  9  7  1  0
 11 12  2  0
 12  2  1  0
 13  9  1  0
 14 13  1  0
 15 14  1  0
 16 15  1  0
 16 17  1  0
 17 13  1  0
 17 18  1  6
 19 18  2  0
 20 18  1  0
 21 28  1  0
 21 20  1  0
 21 22  1  1
 23 22  1  0
 24 23  2  0
 25 24  1  0
 26 25  1  0
 26 27  2  0
 27 23  1  0
 28 30  1  0
 29 28  2  0
M  END
$$$$
