YPH.pdb
     RDKit          3D

 30 32  0  0  1  0  0  0  0  0999 V2000
   30.3371  -32.8696  -20.3736 O   0  0  0  0  0  0  0  0  0  0  0  0
   29.7339  -31.7443  -19.7765 C   0  0  0  0  0  0  0  0  0  0  0  0
   28.9553  -31.8764  -18.6487 C   0  0  0  0  0  0  0  0  0  0  0  0
   28.3612  -30.7736  -18.0594 C   0  0  0  0  0  0  0  0  0  0  0  0
   28.5163  -29.5028  -18.5641 C   0  0  0  0  0  0  0  0  0  0  0  0
   27.9206  -28.3093  -17.9841 C   0  0  0  0  0  0  0  0  0  0  0  0
   28.8739  -27.4029  -17.2393 C   0  0  2  0  0  0  0  0  0  0  0  0
   29.5090  -28.1602  -16.1907 N   0  0  0  0  0  0  0  0  0  0  0  0
   28.3469  -26.0986  -16.8791 C   0  0  0  0  0  0  0  0  0  0  0  0
   27.6706  -26.1095  -15.7588 O   0  0  0  0  0  0  0  0  0  0  0  0
   29.3096  -29.4146  -19.7029 C   0  0  0  0  0  0  0  0  0  0  0  0
   29.9093  -30.4885  -20.3068 C   0  0  0  0  0  0  0  0  0  0  0  0
   28.4321  -24.8600  -17.4940 N   0  0  0  0  0  0  0  0  0  0  0  0
   29.7717  -24.2770  -17.8899 C   0  0  0  0  0  0  0  0  0  0  0  0
   29.4494  -24.0949  -19.3868 C   0  0  0  0  0  0  0  0  0  0  0  0
   27.9186  -23.8557  -19.4376 C   0  0  0  0  0  0  0  0  0  0  0  0
   27.6166  -23.7904  -17.9446 C   0  0  1  0  0  0  0  0  0  0  0  0
   26.2777  -23.5794  -17.5345 C   0  0  0  0  0  0  0  0  0  0  0  0
   25.8750  -24.1770  -16.4724 O   0  0  0  0  0  0  0  0  0  0  0  0
   25.2899  -22.7825  -18.1566 N   0  0  0  0  0  0  0  0  0  0  0  0
   23.8696  -22.9123  -17.8427 C   0  0  1  0  0  0  0  0  0  0  0  0
   23.2753  -21.6472  -17.3163 C   0  0  0  0  0  0  0  0  0  0  0  0
   23.6049  -20.4805  -18.1751 C   0  0  0  0  0  0  0  0  0  0  0  0
   23.0859  -20.1802  -19.4202 C   0  0  0  0  0  0  0  0  0  0  0  0
   23.6239  -19.0441  -19.8889 N   0  0  0  0  0  0  0  0  0  0  0  0
   24.4909  -18.6035  -18.9543 C   0  0  0  0  0  0  0  0  0  0  0  0
   24.4766  -19.4721  -17.9228 N   0  0  0  0  0  0  0  0  0  0  0  0
   23.1795  -23.2041  -19.1488 C   0  0  0  0  0  0  0  0  0  0  0  0
   22.0102  -23.6464  -19.0797 O   0  0  0  0  0  0  0  0  0  0  0  0
   23.7781  -23.0046  -20.3704 O   0  0  0  0  0  0  0  0  0  0  0  0
  2  1  1  0
  3  2  2  0
  4  3  1  0
  5  4  2  0
  5 11  1  0
  6  5  1  0
  7  6  1  0
  7  8  1  1
  9 10  2  0
  9  7  1  0
 11 12  2  0
 12  2  1  0
 13  9  1  0
 14 13  1  0
 15 14  1  0
 16 15  1  0
 16 17  1  0
 17 13  1  0
 17 18  1  6
 19 18  2  0
 20 18  1  0
 21 28  1  0
 21 20  1  0
 21 22  1  6
 23 22  1  0
 24 23  2  0
 25 24  1  0
 26 25  1  0
 26 27  2  0
 27 23  1  0
 28 30  1  0
 29 28  2  0
M  END
$$$$
