YPH.pdb
     RDKit          3D

 30 32  0  0  1  0  0  0  0  0999 V2000
   20.8389  -20.3023  -10.1334 O   0  0  0  0  0  0  0  0  0  0  0  0
   22.1180  -20.1077  -10.6928 C   0  0  0  0  0  0  0  0  0  0  0  0
   23.2471  -20.1599   -9.9067 C   0  0  0  0  0  0  0  0  0  0  0  0
   24.5051  -19.9693  -10.4525 C   0  0  0  0  0  0  0  0  0  0  0  0
   24.6902  -19.7209  -11.7932 C   0  0  0  0  0  0  0  0  0  0  0  0
   25.9866  -19.5182  -12.4207 C   0  0  0  0  0  0  0  0  0  0  0  0
   26.7298  -20.7788  -12.7999 C   0  0  2  0  0  0  0  0  0  0  0  0
   26.0053  -21.4447  -13.8524 N   0  0  0  0  0  0  0  0  0  0  0  0
   27.1771  -21.6012  -11.6899 C   0  0  0  0  0  0  0  0  0  0  0  0
   26.2331  -22.3667  -11.2049 O   0  0  0  0  0  0  0  0  0  0  0  0
   23.5243  -19.6765  -12.5500 C   0  0  0  0  0  0  0  0  0  0  0  0
   22.2673  -19.8613  -12.0367 C   0  0  0  0  0  0  0  0  0  0  0  0
   28.4057  -21.7255  -11.0617 N   0  0  0  0  0  0  0  0  0  0  0  0
   29.5202  -22.5392  -11.6838 C   0  0  0  0  0  0  0  0  0  0  0  0
   30.5653  -21.4059  -11.7227 C   0  0  0  0  0  0  0  0  0  0  0  0
   30.2051  -20.4917  -10.5237 C   0  0  0  0  0  0  0  0  0  0  0  0
   29.0944  -21.3214   -9.8894 C   0  0  1  0  0  0  0  0  0  0  0  0
   28.4628  -20.8258   -8.7228 C   0  0  0  0  0  0  0  0  0  0  0  0
   27.5280  -19.9587   -8.8699 O   0  0  0  0  0  0  0  0  0  0  0  0
   28.7327  -21.1589   -7.3759 N   0  0  0  0  0  0  0  0  0  0  0  0
   28.7235  -20.1629   -6.3080 C   0  0  1  0  0  0  0  0  0  0  0  0
   27.3432  -19.7596   -5.9046 C   0  0  0  0  0  0  0  0  0  0  0  0
   27.3554  -18.7931   -4.7763 C   0  0  0  0  0  0  0  0  0  0  0  0
   28.0582  -17.6060   -4.6942 C   0  0  0  0  0  0  0  0  0  0  0  0
   27.8190  -17.0019   -3.5204 N   0  0  0  0  0  0  0  0  0  0  0  0
   26.9636  -17.7905   -2.8381 C   0  0  0  0  0  0  0  0  0  0  0  0
   26.6866  -18.8693   -3.5984 N   0  0  0  0  0  0  0  0  0  0  0  0
   29.3467  -20.8303   -5.1108 C   0  0  0  0  0  0  0  0  0  0  0  0
   29.2863  -22.0802   -5.0696 O   0  0  0  0  0  0  0  0  0  0  0  0
   29.9581  -20.1284   -4.0987 O   0  0  0  0  0  0  0  0  0  0  0  0
  2  1  1  0
  3  2  2  0
  4  3  1  0
  5  4  2  0
  5 11  1  0
  6  5  1  0
  7  6  1  0
  7  8  1  6
  9 10  2  0
  9  7  1  0
 11 12  2  0
 12  2  1  0
 13  9  1  0
 14 13  1  0
 15 14  1  0
 16 15  1  0
 16 17  1  0
 17 13  1  0
 17 18  1  1
 19 18  2  0
 20 18  1  0
 21 28  1  0
 21 20  1  0
 21 22  1  1
 23 22  1  0
 24 23  2  0
 25 24  1  0
 26 25  1  0
 26 27  2  0
 27 23  1  0
 28 30  1  0
 29 28  2  0
M  END
$$$$
