YPH.pdb
     RDKit          3D

 30 32  0  0  1  0  0  0  0  0999 V2000
   27.4155  -20.0661   -6.7181 O   0  0  0  0  0  0  0  0  0  0  0  0
   26.8917  -20.4024   -7.9827 C   0  0  0  0  0  0  0  0  0  0  0  0
   25.7260  -19.8288   -8.4388 C   0  0  0  0  0  0  0  0  0  0  0  0
   25.2084  -20.1566   -9.6803 C   0  0  0  0  0  0  0  0  0  0  0  0
   25.8249  -21.0619  -10.5134 C   0  0  0  0  0  0  0  0  0  0  0  0
   25.3297  -21.4396  -11.8278 C   0  0  0  0  0  0  0  0  0  0  0  0
   25.5644  -20.4282  -12.9265 C   0  0  2  0  0  0  0  0  0  0  0  0
   25.1775  -19.1256  -12.4472 N   0  0  0  0  0  0  0  0  0  0  0  0
   25.0870  -20.8106  -14.2435 C   0  0  0  0  0  0  0  0  0  0  0  0
   23.8091  -20.5848  -14.4120 O   0  0  0  0  0  0  0  0  0  0  0  0
   26.9983  -21.6168  -10.0141 C   0  0  0  0  0  0  0  0  0  0  0  0
   27.5330  -21.3112   -8.7901 C   0  0  0  0  0  0  0  0  0  0  0  0
   25.7296  -21.3592  -15.3415 N   0  0  0  0  0  0  0  0  0  0  0  0
   27.0741  -20.8360  -15.7994 C   0  0  0  0  0  0  0  0  0  0  0  0
   27.8267  -22.1787  -15.7068 C   0  0  0  0  0  0  0  0  0  0  0  0
   26.7480  -23.2585  -15.9780 C   0  0  0  0  0  0  0  0  0  0  0  0
   25.5666  -22.3619  -16.3315 C   0  0  1  0  0  0  0  0  0  0  0  0
   24.3297  -22.9705  -16.6559 C   0  0  0  0  0  0  0  0  0  0  0  0
   23.8789  -23.8722  -15.8614 O   0  0  0  0  0  0  0  0  0  0  0  0
   23.5002  -22.7197  -17.7724 N   0  0  0  0  0  0  0  0  0  0  0  0
   22.1903  -23.3461  -17.9289 C   0  0  1  0  0  0  0  0  0  0  0  0
   21.0645  -22.4272  -17.5842 C   0  0  0  0  0  0  0  0  0  0  0  0
   20.8859  -22.2961  -16.1150 C   0  0  0  0  0  0  0  0  0  0  0  0
   21.5820  -22.9580  -15.1215 C   0  0  0  0  0  0  0  0  0  0  0  0
   21.1414  -22.5807  -13.9118 N   0  0  0  0  0  0  0  0  0  0  0  0
   20.1615  -21.6761  -14.1135 C   0  0  0  0  0  0  0  0  0  0  0  0
   20.0104  -21.5072  -15.4429 N   0  0  0  0  0  0  0  0  0  0  0  0
   22.0543  -23.6667  -19.3938 C   0  0  0  0  0  0  0  0  0  0  0  0
   22.9517  -23.2302  -20.1500 O   0  0  0  0  0  0  0  0  0  0  0  0
   21.0086  -24.3994  -19.9038 O   0  0  0  0  0  0  0  0  0  0  0  0
  2  1  1  0
  3  2  2  0
  4  3  1  0
  5  4  2  0
  5 11  1  0
  6  5  1  0
  7  6  1  0
  7  8  1  1
  9 10  2  0
  9  7  1  0
 11 12  2  0
 12  2  1  0
 13  9  1  0
 14 13  1  0
 15 14  1  0
 16 15  1  0
 16 17  1  0
 17 13  1  0
 17 18  1  1
 19 18  2  0
 20 18  1  0
 21 28  1  0
 21 20  1  0
 21 22  1  6
 23 22  1  0
 24 23  2  0
 25 24  1  0
 26 25  1  0
 26 27  2  0
 27 23  1  0
 28 30  1  0
 29 28  2  0
M  END
$$$$
