YPH.pdb
     RDKit          3D

 30 32  0  0  1  0  0  0  0  0999 V2000
   22.4661  -24.3952  -15.4185 O   0  0  0  0  0  0  0  0  0  0  0  0
   23.7867  -24.3759  -15.9107 C   0  0  0  0  0  0  0  0  0  0  0  0
   24.8232  -24.8987  -15.1705 C   0  0  0  0  0  0  0  0  0  0  0  0
   26.1216  -24.8816  -15.6506 C   0  0  0  0  0  0  0  0  0  0  0  0
   26.4400  -24.3475  -16.8782 C   0  0  0  0  0  0  0  0  0  0  0  0
   27.7835  -24.3073  -17.4340 C   0  0  0  0  0  0  0  0  0  0  0  0
   28.4010  -22.9319  -17.5438 C   0  0  2  0  0  0  0  0  0  0  0  0
   29.6554  -23.0420  -18.2443 N   0  0  0  0  0  0  0  0  0  0  0  0
   28.3981  -22.1438  -16.3241 C   0  0  0  0  0  0  0  0  0  0  0  0
   28.7488  -22.8316  -15.2676 O   0  0  0  0  0  0  0  0  0  0  0  0
   25.3642  -23.8308  -17.5921 C   0  0  0  0  0  0  0  0  0  0  0  0
   24.0701  -23.8343  -17.1418 C   0  0  0  0  0  0  0  0  0  0  0  0
   28.1006  -20.8132  -16.0785 N   0  0  0  0  0  0  0  0  0  0  0  0
   28.9736  -19.7052  -16.6275 C   0  0  0  0  0  0  0  0  0  0  0  0
   27.8604  -18.9707  -17.4015 C   0  0  0  0  0  0  0  0  0  0  0  0
   26.5636  -19.2600  -16.6029 C   0  0  0  0  0  0  0  0  0  0  0  0
   27.1548  -19.9972  -15.4064 C   0  0  1  0  0  0  0  0  0  0  0  0
   26.2767  -20.4589  -14.3958 C   0  0  0  0  0  0  0  0  0  0  0  0
   25.4599  -21.4021  -14.6968 O   0  0  0  0  0  0  0  0  0  0  0  0
   26.1667  -20.0055  -13.0616 N   0  0  0  0  0  0  0  0  0  0  0  0
   25.2050  -20.5730  -12.1205 C   0  0  1  0  0  0  0  0  0  0  0  0
   25.3400  -20.0087  -10.7443 C   0  0  0  0  0  0  0  0  0  0  0  0
   24.2395  -20.4553   -9.8516 C   0  0  0  0  0  0  0  0  0  0  0  0
   23.6123  -21.6867   -9.8420 C   0  0  0  0  0  0  0  0  0  0  0  0
   22.6640  -21.7205   -8.8937 N   0  0  0  0  0  0  0  0  0  0  0  0
   22.6710  -20.5164   -8.2859 C   0  0  0  0  0  0  0  0  0  0  0  0
   23.6220  -19.7566   -8.8661 N   0  0  0  0  0  0  0  0  0  0  0  0
   23.8438  -20.1698  -12.6221 C   0  0  0  0  0  0  0  0  0  0  0  0
   23.7752  -19.0923  -13.2561 O   0  0  0  0  0  0  0  0  0  0  0  0
   22.7155  -20.9264  -12.4098 O   0  0  0  0  0  0  0  0  0  0  0  0
  2  1  1  0
  3  2  2  0
  4  3  1  0
  5  4  2  0
  5 11  1  0
  6  5  1  0
  7  6  1  0
  7  8  1  1
  9 10  2  0
  9  7  1  0
 11 12  2  0
 12  2  1  0
 13  9  1  0
 14 13  1  0
 15 14  1  0
 16 15  1  0
 16 17  1  0
 17 13  1  0
 17 18  1  6
 19 18  2  0
 20 18  1  0
 21 28  1  0
 21 20  1  0
 21 22  1  1
 23 22  1  0
 24 23  2  0
 25 24  1  0
 26 25  1  0
 26 27  2  0
 27 23  1  0
 28 30  1  0
 29 28  2  0
M  END
$$$$
