YPH.pdb
     RDKit          3D

 30 32  0  0  1  0  0  0  0  0999 V2000
   19.0936  -19.7924  -11.9274 O   0  0  0  0  0  0  0  0  0  0  0  0
   20.4025  -19.7100  -12.4438 C   0  0  0  0  0  0  0  0  0  0  0  0
   20.6191  -19.5359  -13.7923 C   0  0  0  0  0  0  0  0  0  0  0  0
   21.9032  -19.4545  -14.3033 C   0  0  0  0  0  0  0  0  0  0  0  0
   23.0167  -19.5422  -13.4995 C   0  0  0  0  0  0  0  0  0  0  0  0
   24.3868  -19.4584  -13.9805 C   0  0  0  0  0  0  0  0  0  0  0  0
   25.0059  -20.7683  -14.4120 C   0  0  2  0  0  0  0  0  0  0  0  0
   24.0606  -21.4780  -15.2361 N   0  0  0  0  0  0  0  0  0  0  0  0
   25.6609  -21.5284  -13.3624 C   0  0  0  0  0  0  0  0  0  0  0  0
   24.9142  -22.4896  -12.8821 O   0  0  0  0  0  0  0  0  0  0  0  0
   22.7527  -19.7177  -12.1454 C   0  0  0  0  0  0  0  0  0  0  0  0
   21.4932  -19.8017  -11.6125 C   0  0  0  0  0  0  0  0  0  0  0  0
   26.9173  -21.4264  -12.7874 N   0  0  0  0  0  0  0  0  0  0  0  0
   28.1632  -21.3563  -13.6441 C   0  0  0  0  0  0  0  0  0  0  0  0
   28.6881  -20.0193  -13.0830 C   0  0  0  0  0  0  0  0  0  0  0  0
   28.1723  -19.9716  -11.6219 C   0  0  0  0  0  0  0  0  0  0  0  0
   27.5517  -21.3605  -11.5204 C   0  0  1  0  0  0  0  0  0  0  0  0
   26.9407  -21.7402  -10.3005 C   0  0  0  0  0  0  0  0  0  0  0  0
   27.0234  -22.9712   -9.9466 O   0  0  0  0  0  0  0  0  0  0  0  0
   26.2234  -20.9272   -9.3937 N   0  0  0  0  0  0  0  0  0  0  0  0
   26.6377  -20.7533   -8.0042 C   0  0  1  0  0  0  0  0  0  0  0  0
   28.1190  -20.8281   -7.8283 C   0  0  0  0  0  0  0  0  0  0  0  0
   28.5290  -20.5058   -6.4371 C   0  0  0  0  0  0  0  0  0  0  0  0
   27.7085  -20.3212   -5.3405 C   0  0  0  0  0  0  0  0  0  0  0  0
   28.4404  -20.0435   -4.2510 N   0  0  0  0  0  0  0  0  0  0  0  0
   29.7339  -20.0466   -4.6335 C   0  0  0  0  0  0  0  0  0  0  0  0
   29.7831  -20.3256   -5.9520 N   0  0  0  0  0  0  0  0  0  0  0  0
   26.2260  -19.3573   -7.6185 C   0  0  0  0  0  0  0  0  0  0  0  0
   25.5719  -19.2374   -6.5577 O   0  0  0  0  0  0  0  0  0  0  0  0
   26.5382  -18.2513   -8.3734 O   0  0  0  0  0  0  0  0  0  0  0  0
  2  1  1  0
  3  2  2  0
  4  3  1  0
  5  4  2  0
  5 11  1  0
  6  5  1  0
  7  6  1  0
  7  8  1  1
  9 10  2  0
  9  7  1  0
 11 12  2  0
 12  2  1  0
 13  9  1  0
 14 13  1  0
 15 14  1  0
 16 15  1  0
 16 17  1  0
 17 13  1  0
 17 18  1  1
 19 18  2  0
 20 18  1  0
 21 28  1  0
 21 20  1  0
 21 22  1  6
 23 22  1  0
 24 23  2  0
 25 24  1  0
 26 25  1  0
 26 27  2  0
 27 23  1  0
 28 30  1  0
 29 28  2  0
M  END
$$$$
