QVP.pdb
     RDKit          3D

 24 24  0  0  1  0  0  0  0  0999 V2000
   15.6639  -11.4398  -17.1046 N   0  0  0  0  0  0  0  0  0  0  0  0
   16.2502  -12.2184  -18.1217 C   0  0  0  0  0  0  0  0  0  0  0  0
   15.5444  -12.5918  -19.0833 O   0  0  0  0  0  0  0  0  0  0  0  0
   17.6748  -12.5882  -18.0582 C   0  0  0  0  0  0  0  0  0  0  0  0
   18.4528  -11.9258  -16.9612 C   0  0  0  0  0  0  0  0  0  0  0  0
   19.9188  -12.3115  -16.9687 C   0  0  2  0  0  0  0  0  0  0  0  0
   20.0341  -13.7048  -16.5403 N   0  0  0  0  0  0  0  0  0  0  0  0
   20.7073  -11.4881  -16.0265 C   0  0  0  0  0  0  0  0  0  0  0  0
   20.6061  -11.6962  -14.7911 O   0  0  0  0  0  0  0  0  0  0  0  0
   24.0877  -11.3611  -15.2515 C   0  0  0  0  0  0  0  0  0  0  0  0
   23.7744   -9.9779  -15.7767 C   0  0  1  0  0  0  0  0  0  0  0  0
   24.1416   -9.7625  -17.1946 C   0  0  0  0  0  0  0  0  0  0  0  0
   22.3215   -9.6141  -15.4226 C   0  0  2  0  0  0  0  0  0  0  0  0
   21.5893  -10.4584  -16.4064 N   0  0  0  0  0  0  0  0  0  0  0  0
   22.0554   -8.1940  -15.6965 C   0  0  0  0  0  0  0  0  0  0  0  0
   21.8098   -7.8744  -16.9111 O   0  0  0  0  0  0  0  0  0  0  0  0
   22.0332   -7.1326  -14.7793 N   0  0  0  0  0  0  0  0  0  0  0  0
   22.1987   -7.3207  -13.3331 C   0  0  0  0  0  0  0  0  0  0  0  0
   21.2219   -6.2386  -12.8292 C   0  0  0  0  0  0  0  0  0  0  0  0
   21.7096   -5.0843  -13.6759 C   0  0  0  0  0  0  0  0  0  0  0  0
   21.8521   -5.7138  -15.0375 C   0  0  1  0  0  0  0  0  0  0  0  0
   23.0353   -5.0991  -15.6744 C   0  0  0  0  0  0  0  0  0  0  0  0
   22.8425   -3.8854  -16.3221 O   0  0  0  0  0  0  0  0  0  0  0  0
   24.1831   -5.5731  -15.6802 O   0  0  0  0  0  0  0  0  0  0  0  0
  2  1  1  0
  2  3  2  0
  4  2  1  0
  5  4  1  0
  5  6  1  0
  6  7  1  1
  8  6  1  0
  8 14  1  0
  9  8  2  0
 11 10  1  6
 12 11  1  0
 13 14  1  6
 13 11  1  0
 15 13  1  0
 16 15  2  0
 17 15  1  0
 18 17  1  0
 19 18  1  0
 20 19  1  0
 20 21  1  0
 21 22  1  1
 21 17  1  0
 22 23  1  0
 24 22  2  0
M  END
$$$$
