QVP.pdb
     RDKit          3D

 24 24  0  0  1  0  0  0  0  0999 V2000
   19.9177  -16.2625  -19.2202 N   0  0  0  0  0  0  0  0  0  0  0  0
   20.8165  -16.2003  -20.3030 C   0  0  0  0  0  0  0  0  0  0  0  0
   20.6272  -16.9405  -21.2922 O   0  0  0  0  0  0  0  0  0  0  0  0
   21.9637  -15.2763  -20.2752 C   0  0  0  0  0  0  0  0  0  0  0  0
   22.0108  -14.3606  -19.0893 C   0  0  0  0  0  0  0  0  0  0  0  0
   23.4026  -14.2357  -18.5015 C   0  0  2  0  0  0  0  0  0  0  0  0
   23.7945  -15.5351  -17.9574 N   0  0  0  0  0  0  0  0  0  0  0  0
   23.4443  -13.2568  -17.3936 C   0  0  0  0  0  0  0  0  0  0  0  0
   22.8094  -13.4952  -16.3353 O   0  0  0  0  0  0  0  0  0  0  0  0
   26.0767   -9.6888  -15.3626 C   0  0  0  0  0  0  0  0  0  0  0  0
   25.7733  -10.9186  -16.1891 C   0  0  1  0  0  0  0  0  0  0  0  0
   26.5519  -12.1194  -15.8104 C   0  0  0  0  0  0  0  0  0  0  0  0
   24.2500  -11.1288  -16.2516 C   0  0  2  0  0  0  0  0  0  0  0  0
   24.1562  -12.0424  -17.4234 N   0  0  0  0  0  0  0  0  0  0  0  0
   23.5589   -9.8664  -16.5537 C   0  0  0  0  0  0  0  0  0  0  0  0
   23.9089   -9.2556  -17.6224 O   0  0  0  0  0  0  0  0  0  0  0  0
   22.5477   -9.2419  -15.8081 N   0  0  0  0  0  0  0  0  0  0  0  0
   21.9950   -9.8121  -14.5737 C   0  0  0  0  0  0  0  0  0  0  0  0
   20.5228   -9.3832  -14.7403 C   0  0  0  0  0  0  0  0  0  0  0  0
   20.7499   -7.9242  -15.0670 C   0  0  0  0  0  0  0  0  0  0  0  0
   21.8696   -7.9841  -16.0737 C   0  0  1  0  0  0  0  0  0  0  0  0
   22.7344   -6.8118  -15.8261 C   0  0  0  0  0  0  0  0  0  0  0  0
   22.2895   -5.5878  -16.3096 O   0  0  0  0  0  0  0  0  0  0  0  0
   23.8210   -6.8273  -15.2252 O   0  0  0  0  0  0  0  0  0  0  0  0
  2  1  1  0
  2  3  2  0
  4  2  1  0
  5  4  1  0
  5  6  1  0
  6  7  1  1
  8  6  1  0
  8 14  1  0
  9  8  2  0
 11 10  1  1
 12 11  1  0
 13 14  1  6
 13 11  1  0
 15 13  1  0
 16 15  2  0
 17 15  1  0
 18 17  1  0
 19 18  1  0
 20 19  1  0
 20 21  1  0
 21 22  1  1
 21 17  1  0
 22 23  1  0
 24 22  2  0
M  END
$$$$
