QVP.pdb
     RDKit          3D

 24 24  0  0  1  0  0  0  0  0999 V2000
   27.3735  -27.5601  -18.0072 N   0  0  0  0  0  0  0  0  0  0  0  0
   26.7848  -26.3186  -18.3174 C   0  0  0  0  0  0  0  0  0  0  0  0
   26.8208  -25.9077  -19.4973 O   0  0  0  0  0  0  0  0  0  0  0  0
   26.1334  -25.5131  -17.2699 C   0  0  0  0  0  0  0  0  0  0  0  0
   27.0675  -24.8949  -16.2736 C   0  0  0  0  0  0  0  0  0  0  0  0
   27.6938  -23.6098  -16.7781 C   0  0  2  0  0  0  0  0  0  0  0  0
   29.0886  -23.8787  -17.1249 N   0  0  0  0  0  0  0  0  0  0  0  0
   27.6868  -22.5532  -15.7432 C   0  0  0  0  0  0  0  0  0  0  0  0
   28.6194  -22.5073  -14.9017 O   0  0  0  0  0  0  0  0  0  0  0  0
   26.0599  -18.1589  -14.3955 C   0  0  0  0  0  0  0  0  0  0  0  0
   26.5336  -19.2643  -15.3125 C   0  0  1  0  0  0  0  0  0  0  0  0
   27.7073  -18.9115  -16.1429 C   0  0  0  0  0  0  0  0  0  0  0  0
   26.6791  -20.5681  -14.5079 C   0  0  2  0  0  0  0  0  0  0  0  0
   26.6940  -21.5631  -15.6154 N   0  0  0  0  0  0  0  0  0  0  0  0
   25.5004  -20.7935  -13.6579 C   0  0  0  0  0  0  0  0  0  0  0  0
   24.4312  -21.1849  -14.2421 O   0  0  0  0  0  0  0  0  0  0  0  0
   25.4020  -20.6344  -12.2674 N   0  0  0  0  0  0  0  0  0  0  0  0
   26.5296  -20.2115  -11.4283 C   0  0  0  0  0  0  0  0  0  0  0  0
   26.2411  -21.0659  -10.1770 C   0  0  0  0  0  0  0  0  0  0  0  0
   24.7779  -20.7245  -10.0047 C   0  0  0  0  0  0  0  0  0  0  0  0
   24.2467  -20.8402  -11.4100 C   0  0  1  0  0  0  0  0  0  0  0  0
   23.2260  -19.7841  -11.5729 C   0  0  0  0  0  0  0  0  0  0  0  0
   23.6109  -18.6362  -12.2541 O   0  0  0  0  0  0  0  0  0  0  0  0
   22.0580  -19.8349  -11.1544 O   0  0  0  0  0  0  0  0  0  0  0  0
  2  1  1  0
  2  3  2  0
  4  2  1  0
  5  4  1  0
  5  6  1  0
  6  7  1  1
  8  6  1  0
  8 14  1  0
  9  8  2  0
 11 10  1  1
 12 11  1  0
 13 14  1  6
 13 11  1  0
 15 13  1  0
 16 15  2  0
 17 15  1  0
 18 17  1  0
 19 18  1  0
 20 19  1  0
 20 21  1  0
 21 22  1  6
 21 17  1  0
 22 23  1  0
 24 22  2  0
M  END
$$$$
