QVP.pdb
     RDKit          3D

 24 24  0  0  1  0  0  0  0  0999 V2000
   24.0625  -24.5764  -17.3776 N   0  0  0  0  0  0  0  0  0  0  0  0
   24.3936  -25.8109  -16.7856 C   0  0  0  0  0  0  0  0  0  0  0  0
   23.4865  -26.6434  -16.5702 O   0  0  0  0  0  0  0  0  0  0  0  0
   25.7878  -26.1216  -16.4252 C   0  0  0  0  0  0  0  0  0  0  0  0
   26.7674  -25.0137  -16.6708 C   0  0  0  0  0  0  0  0  0  0  0  0
   26.0933  -23.6710  -16.8734 C   0  0  2  0  0  0  0  0  0  0  0  0
   26.3333  -23.2342  -18.2480 N   0  0  0  0  0  0  0  0  0  0  0  0
   26.6483  -22.6373  -15.9730 C   0  0  0  0  0  0  0  0  0  0  0  0
   27.8297  -22.2424  -16.1410 O   0  0  0  0  0  0  0  0  0  0  0  0
   26.1002  -19.3290  -15.8090 C   0  0  0  0  0  0  0  0  0  0  0  0
   25.7035  -19.7795  -14.4208 C   0  0  1  0  0  0  0  0  0  0  0  0
   24.2449  -19.9338  -14.2195 C   0  0  0  0  0  0  0  0  0  0  0  0
   26.5445  -21.0051  -14.0218 C   0  0  2  0  0  0  0  0  0  0  0  0
   25.9452  -22.0387  -14.9101 N   0  0  0  0  0  0  0  0  0  0  0  0
   26.3095  -21.3665  -12.6158 C   0  0  0  0  0  0  0  0  0  0  0  0
   25.2128  -21.9691  -12.3481 O   0  0  0  0  0  0  0  0  0  0  0  0
   27.1508  -21.1330  -11.5176 N   0  0  0  0  0  0  0  0  0  0  0  0
   28.4717  -20.5048  -11.6403 C   0  0  0  0  0  0  0  0  0  0  0  0
   29.2291  -21.3083  -10.5633 C   0  0  0  0  0  0  0  0  0  0  0  0
   28.2343  -21.1624   -9.4336 C   0  0  0  0  0  0  0  0  0  0  0  0
   26.9201  -21.4411  -10.1161 C   0  0  1  0  0  0  0  0  0  0  0  0
   25.9166  -20.5493   -9.4986 C   0  0  0  0  0  0  0  0  0  0  0  0
   25.3426  -20.9764   -8.3078 O   0  0  0  0  0  0  0  0  0  0  0  0
   25.5438  -19.4548   -9.9516 O   0  0  0  0  0  0  0  0  0  0  0  0
  2  1  1  0
  2  3  2  0
  4  2  1  0
  5  4  1  0
  5  6  1  0
  6  7  1  6
  8  6  1  0
  8 14  1  0
  9  8  2  0
 11 10  1  6
 12 11  1  0
 13 14  1  6
 13 11  1  0
 15 13  1  0
 16 15  2  0
 17 15  1  0
 18 17  1  0
 19 18  1  0
 20 19  1  0
 20 21  1  0
 21 22  1  1
 21 17  1  0
 22 23  1  0
 24 22  2  0
M  END
$$$$
