QVP.pdb
     RDKit          3D

 24 24  0  0  1  0  0  0  0  0999 V2000
   18.2510   -8.7974  -21.5219 N   0  0  0  0  0  0  0  0  0  0  0  0
   18.5404  -10.1261  -21.8893 C   0  0  0  0  0  0  0  0  0  0  0  0
   18.3891  -10.4730  -23.0805 O   0  0  0  0  0  0  0  0  0  0  0  0
   19.0166  -11.0960  -20.8878 C   0  0  0  0  0  0  0  0  0  0  0  0
   19.1720  -10.5493  -19.5006 C   0  0  0  0  0  0  0  0  0  0  0  0
   19.7198  -11.5734  -18.5263 C   0  0  2  0  0  0  0  0  0  0  0  0
   18.7284  -12.6357  -18.3638 N   0  0  0  0  0  0  0  0  0  0  0  0
   19.9657  -10.9843  -17.1921 C   0  0  0  0  0  0  0  0  0  0  0  0
   19.0735  -11.0602  -16.3101 O   0  0  0  0  0  0  0  0  0  0  0  0
   23.2506   -9.6372  -13.8625 C   0  0  0  0  0  0  0  0  0  0  0  0
   22.7033  -10.3416  -15.0838 C   0  0  1  0  0  0  0  0  0  0  0  0
   22.7084  -11.8193  -14.9932 C   0  0  0  0  0  0  0  0  0  0  0  0
   21.3475   -9.7219  -15.4661 C   0  0  2  0  0  0  0  0  0  0  0  0
   21.1506  -10.3249  -16.8131 N   0  0  0  0  0  0  0  0  0  0  0  0
   21.4559   -8.2607  -15.5908 C   0  0  0  0  0  0  0  0  0  0  0  0
   22.4007   -7.8105  -16.3273 O   0  0  0  0  0  0  0  0  0  0  0  0
   20.6394   -7.2858  -14.9978 N   0  0  0  0  0  0  0  0  0  0  0  0
   19.4415   -7.6130  -14.2154 C   0  0  0  0  0  0  0  0  0  0  0  0
   18.5396   -6.4358  -14.6396 C   0  0  0  0  0  0  0  0  0  0  0  0
   19.5193   -5.3075  -14.4071 C   0  0  0  0  0  0  0  0  0  0  0  0
   20.7856   -5.8401  -15.0262 C   0  0  1  0  0  0  0  0  0  0  0  0
   21.9067   -5.3683  -14.1871 C   0  0  0  0  0  0  0  0  0  0  0  0
   22.3599   -4.0744  -14.4114 O   0  0  0  0  0  0  0  0  0  0  0  0
   22.4763   -6.0272  -13.3020 O   0  0  0  0  0  0  0  0  0  0  0  0
  2  1  1  0
  2  3  2  0
  4  2  1  0
  5  4  1  0
  5  6  1  0
  6  7  1  1
  8  6  1  0
  8 14  1  0
  9  8  2  0
 11 10  1  1
 12 11  1  0
 13 14  1  6
 13 11  1  0
 15 13  1  0
 16 15  2  0
 17 15  1  0
 18 17  1  0
 19 18  1  0
 20 19  1  0
 20 21  1  0
 21 22  1  1
 21 17  1  0
 22 23  1  0
 24 22  2  0
M  END
$$$$
