QVP.pdb
     RDKit          3D

 24 24  0  0  1  0  0  0  0  0999 V2000
   19.6001  -22.5587  -17.7703 N   0  0  0  0  0  0  0  0  0  0  0  0
   19.7793  -21.3317  -17.1019 C   0  0  0  0  0  0  0  0  0  0  0  0
   19.3544  -20.2833  -17.6334 O   0  0  0  0  0  0  0  0  0  0  0  0
   20.4555  -21.2802  -15.7940 C   0  0  0  0  0  0  0  0  0  0  0  0
   21.7394  -22.0500  -15.7141 C   0  0  0  0  0  0  0  0  0  0  0  0
   22.7701  -21.5743  -16.7188 C   0  0  2  0  0  0  0  0  0  0  0  0
   22.9775  -22.6322  -17.7066 N   0  0  0  0  0  0  0  0  0  0  0  0
   24.0746  -21.2998  -16.0781 C   0  0  0  0  0  0  0  0  0  0  0  0
   24.9027  -22.2350  -15.9387 O   0  0  0  0  0  0  0  0  0  0  0  0
   24.7245  -17.6032  -14.4112 C   0  0  0  0  0  0  0  0  0  0  0  0
   25.9200  -18.3137  -15.0056 C   0  0  1  0  0  0  0  0  0  0  0  0
   27.2301  -17.7849  -14.5632 C   0  0  0  0  0  0  0  0  0  0  0  0
   25.7461  -19.8336  -14.8377 C   0  0  2  0  0  0  0  0  0  0  0  0
   24.4813  -20.0412  -15.5953 N   0  0  0  0  0  0  0  0  0  0  0  0
   25.5381  -20.1843  -13.4248 C   0  0  0  0  0  0  0  0  0  0  0  0
   24.3377  -20.1291  -12.9848 O   0  0  0  0  0  0  0  0  0  0  0  0
   26.5042  -20.5806  -12.4878 N   0  0  0  0  0  0  0  0  0  0  0  0
   27.9415  -20.6112  -12.7840 C   0  0  0  0  0  0  0  0  0  0  0  0
   28.3338  -21.8659  -11.9770 C   0  0  0  0  0  0  0  0  0  0  0  0
   27.6642  -21.5096  -10.6687 C   0  0  0  0  0  0  0  0  0  0  0  0
   26.3112  -21.0195  -11.1157 C   0  0  1  0  0  0  0  0  0  0  0  0
   25.9355  -19.9105  -10.2145 C   0  0  0  0  0  0  0  0  0  0  0  0
   25.2704  -20.2491   -9.0428 O   0  0  0  0  0  0  0  0  0  0  0  0
   26.1627  -18.7061  -10.4142 O   0  0  0  0  0  0  0  0  0  0  0  0
  2  1  1  0
  2  3  2  0
  4  2  1  0
  5  4  1  0
  5  6  1  0
  6  7  1  6
  8  6  1  0
  8 14  1  0
  9  8  2  0
 11 10  1  1
 12 11  1  0
 13 14  1  6
 13 11  1  0
 15 13  1  0
 16 15  2  0
 17 15  1  0
 18 17  1  0
 19 18  1  0
 20 19  1  0
 20 21  1  0
 21 22  1  1
 21 17  1  0
 22 23  1  0
 24 22  2  0
M  END
$$$$
