SSD.pdb
     RDKit          3D

 21 20  0  0  1  0  0  0  0  0999 V2000
    8.2533  -18.9896   20.1787 O   0  0  0  0  0  0  0  0  0  0  0  0
    7.8301  -17.7339   19.7846 C   0  0  0  0  0  0  0  0  0  0  0  0
    8.9774  -16.7450   19.6054 C   0  0  2  0  0  0  0  0  0  0  0  0
    9.7821  -17.1923   18.4700 N   0  0  0  0  0  0  0  0  0  0  0  0
    9.8001  -16.7386   20.8386 C   0  0  0  0  0  0  0  0  0  0  0  0
   10.9399  -17.3027   20.8185 O   0  0  0  0  0  0  0  0  0  0  0  0
    8.3121  -15.1193   24.4436 O   0  0  0  0  0  0  0  0  0  0  0  0
    9.6180  -14.8381   24.0287 C   0  0  0  0  0  0  0  0  0  0  0  0
   10.1136  -15.9689   23.2044 C   0  0  2  0  0  0  0  0  0  0  0  0
    9.3154  -16.1129   22.0077 N   0  0  0  0  0  0  0  0  0  0  0  0
   10.1881  -17.2610   23.8972 C   0  0  0  0  0  0  0  0  0  0  0  0
    9.2169  -18.0493   23.8105 O   0  0  0  0  0  0  0  0  0  0  0  0
   11.3323  -17.6569   24.6713 N   0  0  0  0  0  0  0  0  0  0  0  0
   11.2415  -18.8581   25.4615 C   0  0  1  0  0  0  0  0  0  0  0  0
   12.3084  -19.8364   25.0251 C   0  0  0  0  0  0  0  0  0  0  0  0
   11.8392  -20.7535   23.9636 C   0  0  0  0  0  0  0  0  0  0  0  0
   10.6626  -20.5972   23.5496 O   0  0  0  0  0  0  0  0  0  0  0  0
   11.3210  -18.5756   26.9188 C   0  0  0  0  0  0  0  0  0  0  0  0
   11.6922  -17.4675   27.3790 O   0  0  0  0  0  0  0  0  0  0  0  0
   12.5959  -21.7620   23.3987 O   0  0  0  0  0  0  0  0  0  0  0  0
   10.9728  -19.5710   27.8188 O   0  0  0  0  0  0  0  0  0  0  0  0
  1  2  1  0
  2  3  1  0
  3  5  1  0
  3  4  1  6
  5  6  2  0
  7  8  1  0
  9  8  1  1
 10  9  1  0
 10  5  1  0
 11 13  1  0
 11  9  1  0
 12 11  2  0
 14 13  1  0
 14 15  1  6
 15 16  1  0
 16 20  1  0
 17 16  2  0
 18 14  1  0
 19 18  2  0
 21 18  1  0
M  END
$$$$
