SSD.pdb
     RDKit          3D

 21 20  0  0  1  0  0  0  0  0999 V2000
   -2.1575  -26.4678   32.4599 O   0  0  0  0  0  0  0  0  0  0  0  0
   -3.2998  -25.7969   32.0648 C   0  0  0  0  0  0  0  0  0  0  0  0
   -3.2913  -24.3217   32.4520 C   0  0  2  0  0  0  0  0  0  0  0  0
   -3.4652  -24.2371   33.9009 N   0  0  0  0  0  0  0  0  0  0  0  0
   -4.4153  -23.6408   31.7659 C   0  0  0  0  0  0  0  0  0  0  0  0
   -5.5564  -23.6232   32.3275 O   0  0  0  0  0  0  0  0  0  0  0  0
   -3.8039  -22.1938   27.9584 O   0  0  0  0  0  0  0  0  0  0  0  0
   -4.7025  -21.4653   28.7450 C   0  0  0  0  0  0  0  0  0  0  0  0
   -5.2674  -22.3626   29.7840 C   0  0  2  0  0  0  0  0  0  0  0  0
   -4.2090  -23.0258   30.5120 N   0  0  0  0  0  0  0  0  0  0  0  0
   -6.2209  -23.3646   29.2925 C   0  0  0  0  0  0  0  0  0  0  0  0
   -5.8011  -24.5140   29.0187 O   0  0  0  0  0  0  0  0  0  0  0  0
   -7.6177  -23.0783   29.1131 N   0  0  0  0  0  0  0  0  0  0  0  0
   -8.4581  -24.1003   28.5432 C   0  0  1  0  0  0  0  0  0  0  0  0
   -9.8958  -23.8591   28.9439 C   0  0  0  0  0  0  0  0  0  0  0  0
  -10.8164  -24.8826   28.4028 C   0  0  0  0  0  0  0  0  0  0  0  0
  -11.5130  -24.5587   27.4078 O   0  0  0  0  0  0  0  0  0  0  0  0
   -8.3086  -24.1876   27.0668 C   0  0  0  0  0  0  0  0  0  0  0  0
   -8.0804  -23.1858   26.3444 O   0  0  0  0  0  0  0  0  0  0  0  0
  -10.9644  -26.1596   28.9088 O   0  0  0  0  0  0  0  0  0  0  0  0
   -8.4243  -25.4233   26.4490 O   0  0  0  0  0  0  0  0  0  0  0  0
  1  2  1  0
  2  3  1  0
  3  5  1  0
  3  4  1  1
  5  6  2  0
  7  8  1  0
  9  8  1  6
 10  9  1  0
 10  5  1  0
 11 13  1  0
 11  9  1  0
 12 11  2  0
 14 13  1  0
 14 15  1  6
 15 16  1  0
 16 20  1  0
 17 16  2  0
 18 14  1  0
 19 18  2  0
 21 18  1  0
M  END
$$$$
