SSD.pdb
     RDKit          3D

 21 20  0  0  1  0  0  0  0  0999 V2000
    8.8588  -15.7826   18.2786 O   0  0  0  0  0  0  0  0  0  0  0  0
    7.5744  -15.3236   18.5041 C   0  0  0  0  0  0  0  0  0  0  0  0
    7.5360  -13.9110   19.0779 C   0  0  2  0  0  0  0  0  0  0  0  0
    8.1065  -13.0063   18.0814 N   0  0  0  0  0  0  0  0  0  0  0  0
    8.3479  -13.8764   20.3178 C   0  0  0  0  0  0  0  0  0  0  0  0
    9.5645  -13.5126   20.2444 O   0  0  0  0  0  0  0  0  0  0  0  0
    6.6587  -15.1256   23.9396 O   0  0  0  0  0  0  0  0  0  0  0  0
    7.6230  -14.1124   23.9526 C   0  0  0  0  0  0  0  0  0  0  0  0
    8.5220  -14.2906   22.7847 C   0  0  2  0  0  0  0  0  0  0  0  0
    7.7684  -14.2425   21.5520 N   0  0  0  0  0  0  0  0  0  0  0  0
    9.3404  -15.5090   22.8068 C   0  0  0  0  0  0  0  0  0  0  0  0
    9.0103  -16.4713   22.0737 O   0  0  0  0  0  0  0  0  0  0  0  0
   10.5059  -15.6412   23.6370 N   0  0  0  0  0  0  0  0  0  0  0  0
   11.0460  -16.9591   23.8536 C   0  0  1  0  0  0  0  0  0  0  0  0
   12.5450  -16.9334   23.6582 C   0  0  0  0  0  0  0  0  0  0  0  0
   12.9309  -16.7540   22.2416 C   0  0  0  0  0  0  0  0  0  0  0  0
   13.3119  -17.7763   21.6172 O   0  0  0  0  0  0  0  0  0  0  0  0
   10.6771  -17.5018   25.1875 C   0  0  0  0  0  0  0  0  0  0  0  0
    9.9836  -16.8612   26.0159 O   0  0  0  0  0  0  0  0  0  0  0  0
   12.9029  -15.5522   21.5607 O   0  0  0  0  0  0  0  0  0  0  0  0
   11.1118  -18.7692   25.5438 O   0  0  0  0  0  0  0  0  0  0  0  0
  1  2  1  0
  2  3  1  0
  3  5  1  0
  3  4  1  6
  5  6  2  0
  7  8  1  0
  9  8  1  1
 10  9  1  0
 10  5  1  0
 11 13  1  0
 11  9  1  0
 12 11  2  0
 14 13  1  0
 14 15  1  1
 15 16  1  0
 16 20  1  0
 17 16  2  0
 18 14  1  0
 19 18  2  0
 21 18  1  0
M  END
$$$$
