SSD.pdb
     RDKit          3D

 21 20  0  0  1  0  0  0  0  0999 V2000
    8.8430  -17.4087   15.6719 O   0  0  0  0  0  0  0  0  0  0  0  0
    7.9628  -16.4739   16.1846 C   0  0  0  0  0  0  0  0  0  0  0  0
    8.4382  -15.0373   15.9943 C   0  0  2  0  0  0  0  0  0  0  0  0
    9.3389  -15.0114   14.8433 N   0  0  0  0  0  0  0  0  0  0  0  0
    9.1624  -14.6077   17.2145 C   0  0  0  0  0  0  0  0  0  0  0  0
   10.4331  -14.6621   17.2246 O   0  0  0  0  0  0  0  0  0  0  0  0
    7.0676  -13.7251   20.7181 O   0  0  0  0  0  0  0  0  0  0  0  0
    8.1309  -12.8869   20.3667 C   0  0  0  0  0  0  0  0  0  0  0  0
    9.0902  -13.6531   19.5321 C   0  0  2  0  0  0  0  0  0  0  0  0
    8.4421  -14.1476   18.3381 N   0  0  0  0  0  0  0  0  0  0  0  0
    9.7634  -14.7643   20.2152 C   0  0  0  0  0  0  0  0  0  0  0  0
    9.3741  -15.9351   19.9915 O   0  0  0  0  0  0  0  0  0  0  0  0
   10.8521  -14.5614   21.1311 N   0  0  0  0  0  0  0  0  0  0  0  0
   11.4071  -15.7105   21.7998 C   0  0  1  0  0  0  0  0  0  0  0  0
   12.8850  -15.4971   22.0366 C   0  0  0  0  0  0  0  0  0  0  0  0
   13.6099  -15.1201   20.8035 C   0  0  0  0  0  0  0  0  0  0  0  0
   13.5563  -15.9238   19.8384 O   0  0  0  0  0  0  0  0  0  0  0  0
   10.6896  -16.0218   23.0639 C   0  0  0  0  0  0  0  0  0  0  0  0
    9.7645  -15.3033   23.5174 O   0  0  0  0  0  0  0  0  0  0  0  0
   14.3363  -13.9567   20.6379 O   0  0  0  0  0  0  0  0  0  0  0  0
   11.0483  -17.1519   23.7824 O   0  0  0  0  0  0  0  0  0  0  0  0
  1  2  1  0
  2  3  1  0
  3  5  1  0
  3  4  1  6
  5  6  2  0
  7  8  1  0
  9  8  1  1
 10  9  1  0
 10  5  1  0
 11 13  1  0
 11  9  1  0
 12 11  2  0
 14 13  1  0
 14 15  1  1
 15 16  1  0
 16 20  1  0
 17 16  2  0
 18 14  1  0
 19 18  2  0
 21 18  1  0
M  END
$$$$
