WIL.pdb
     RDKit          3D

 31 32  0  0  1  0  0  0  0  0999 V2000
    5.5975  -18.9226   24.0066 N   0  0  0  0  0  0  0  0  0  0  0  0
    6.0660  -17.5613   24.0894 C   0  0  1  0  0  0  0  0  0  0  0  0
    6.5970  -17.2856   25.4755 C   0  0  0  0  0  0  0  0  0  0  0  0
    6.2229  -15.9303   25.9431 C   0  0  0  0  0  0  0  0  0  0  0  0
    4.9574  -15.5239   26.3029 C   0  0  0  0  0  0  0  0  0  0  0  0
    5.0218  -14.2305   26.6689 N   0  0  0  0  0  0  0  0  0  0  0  0
    6.2622  -13.7598   26.5704 C   0  0  0  0  0  0  0  0  0  0  0  0
    6.8281  -12.5307   26.8222 C   0  0  0  0  0  0  0  0  0  0  0  0
    8.1951  -12.3373   26.6187 C   0  0  0  0  0  0  0  0  0  0  0  0
    8.9383  -13.4106   26.1633 C   0  0  0  0  0  0  0  0  0  0  0  0
    8.3811  -14.6502   25.9068 C   0  0  0  0  0  0  0  0  0  0  0  0
    7.0248  -14.8270   26.1131 C   0  0  0  0  0  0  0  0  0  0  0  0
    7.1311  -17.3603   23.0531 C   0  0  0  0  0  0  0  0  0  0  0  0
    7.9537  -18.2978   22.9398 O   0  0  0  0  0  0  0  0  0  0  0  0
    8.5891  -12.6207   19.1688 C   0  0  0  0  0  0  0  0  0  0  0  0
    8.9896  -13.8601   19.9133 C   0  0  0  0  0  0  0  0  0  0  0  0
    7.8928  -14.3565   20.8314 C   0  0  2  0  0  0  0  0  0  0  0  0
    7.3371  -13.1805   21.5832 C   0  0  0  0  0  0  0  0  0  0  0  0
    8.2895  -15.5330   21.6627 C   0  0  2  0  0  0  0  0  0  0  0  0
    7.1676  -16.1919   22.2873 N   0  0  0  0  0  0  0  0  0  0  0  0
    9.4056  -15.3695   22.5848 C   0  0  0  0  0  0  0  0  0  0  0  0
   10.5697  -15.0102   22.1268 O   0  0  0  0  0  0  0  0  0  0  0  0
   10.5831  -12.9756   27.5250 C   0  0  0  0  0  0  0  0  0  0  0  0
   10.6715  -14.5328   27.3730 C   0  0  1  0  0  0  0  0  0  0  0  0
   10.2215  -15.0737   28.6962 C   0  0  0  0  0  0  0  0  0  0  0  0
    9.8985  -14.9257   26.1834 C   0  0  0  0  0  0  0  0  0  0  0  0
   10.5149  -15.0333   24.8480 C   0  0  2  0  0  0  0  0  0  0  0  0
    9.3958  -15.5504   23.9838 N   0  0  0  0  0  0  0  0  0  0  0  0
   11.6364  -15.9765   24.7663 C   0  0  0  0  0  0  0  0  0  0  0  0
   11.4244  -17.3286   24.5754 O   0  0  0  0  0  0  0  0  0  0  0  0
   12.8262  -15.5581   24.8786 O   0  0  0  0  0  0  0  0  0  0  0  0
  2  1  1  1
  2  3  1  0
  3  4  1  0
  4 12  1  0
  4  5  2  0
  5  6  1  0
  7  6  1  0
  7  8  2  0
  9  8  1  0
 10  9  2  0
 11 10  1  0
 11 12  2  0
 12  7  1  0
 13  2  1  0
 13 20  1  0
 14 13  2  0
 15 16  1  0
 16 17  1  0
 17 18  1  1
 19 17  1  0
 19 20  1  1
 21 19  1  0
 22 21  2  0
 24 26  1  0
 24 23  1  1
 24 25  1  0
 27 26  1  1
 27 28  1  0
 28 21  1  0
 29 27  1  0
 29 30  1  0
 31 29  2  0
M  END
$$$$
