WIL.pdb
     RDKit          3D

 31 32  0  0  1  0  0  0  0  0999 V2000
    5.7361  -18.3940   24.7395 N   0  0  0  0  0  0  0  0  0  0  0  0
    6.2480  -17.0517   24.6153 C   0  0  1  0  0  0  0  0  0  0  0  0
    6.6472  -16.5278   25.9737 C   0  0  0  0  0  0  0  0  0  0  0  0
    6.0160  -15.2183   26.2603 C   0  0  0  0  0  0  0  0  0  0  0  0
    4.6708  -14.9990   26.4562 C   0  0  0  0  0  0  0  0  0  0  0  0
    4.4907  -13.6859   26.6894 N   0  0  0  0  0  0  0  0  0  0  0  0
    5.6448  -13.0251   26.6581 C   0  0  0  0  0  0  0  0  0  0  0  0
    5.9796  -11.7014   26.8316 C   0  0  0  0  0  0  0  0  0  0  0  0
    7.3131  -11.3010   26.7372 C   0  0  0  0  0  0  0  0  0  0  0  0
    8.2609  -12.2708   26.4677 C   0  0  0  0  0  0  0  0  0  0  0  0
    7.9369  -13.6037   26.2914 C   0  0  0  0  0  0  0  0  0  0  0  0
    6.6110  -13.9858   26.3879 C   0  0  0  0  0  0  0  0  0  0  0  0
    7.4193  -17.0733   23.6792 C   0  0  0  0  0  0  0  0  0  0  0  0
    7.9146  -18.2035   23.4649 O   0  0  0  0  0  0  0  0  0  0  0  0
    7.5062  -13.2785   19.7530 C   0  0  0  0  0  0  0  0  0  0  0  0
    7.6724  -14.5206   20.5778 C   0  0  0  0  0  0  0  0  0  0  0  0
    8.9555  -14.5074   21.3814 C   0  0  2  0  0  0  0  0  0  0  0  0
   10.1041  -14.3031   20.4349 C   0  0  0  0  0  0  0  0  0  0  0  0
    9.0864  -15.6574   22.3264 C   0  0  2  0  0  0  0  0  0  0  0  0
    7.8948  -15.8906   23.1065 N   0  0  0  0  0  0  0  0  0  0  0  0
   10.2923  -15.7356   23.1403 C   0  0  0  0  0  0  0  0  0  0  0  0
   11.4590  -15.7063   22.5641 O   0  0  0  0  0  0  0  0  0  0  0  0
   10.1913  -14.5673   28.5907 C   0  0  0  0  0  0  0  0  0  0  0  0
   10.4240  -14.4911   27.0429 C   0  0  1  0  0  0  0  0  0  0  0  0
   10.8756  -13.0845   26.7914 C   0  0  0  0  0  0  0  0  0  0  0  0
   11.3432  -15.5754   26.6598 C   0  0  0  0  0  0  0  0  0  0  0  0
   11.7019  -15.8394   25.2540 C   0  0  2  0  0  0  0  0  0  0  0  0
   10.3738  -15.8373   24.5449 N   0  0  0  0  0  0  0  0  0  0  0  0
   12.3489  -17.1359   25.0211 C   0  0  0  0  0  0  0  0  0  0  0  0
   13.6619  -17.3593   25.3899 O   0  0  0  0  0  0  0  0  0  0  0  0
   11.7058  -18.0748   24.4657 O   0  0  0  0  0  0  0  0  0  0  0  0
  2  1  1  1
  2  3  1  0
  3  4  1  0
  4 12  1  0
  4  5  2  0
  5  6  1  0
  7  6  1  0
  7  8  2  0
  9  8  1  0
 10  9  2  0
 11 10  1  0
 11 12  2  0
 12  7  1  0
 13  2  1  0
 13 20  1  0
 14 13  2  0
 15 16  1  0
 16 17  1  0
 17 18  1  6
 19 17  1  0
 19 20  1  1
 21 19  1  0
 22 21  2  0
 24 26  1  0
 24 23  1  1
 24 25  1  0
 27 26  1  1
 27 28  1  0
 28 21  1  0
 29 27  1  0
 29 30  1  0
 31 29  2  0
M  END
$$$$
