WIL.pdb
     RDKit          3D

 31 32  0  0  1  0  0  0  0  0999 V2000
    6.1575  -17.4064   24.5285 N   0  0  0  0  0  0  0  0  0  0  0  0
    7.2257  -16.4571   24.3357 C   0  0  1  0  0  0  0  0  0  0  0  0
    7.5249  -15.7515   25.6363 C   0  0  0  0  0  0  0  0  0  0  0  0
    6.6120  -14.6057   25.8577 C   0  0  0  0  0  0  0  0  0  0  0  0
    5.4389  -14.6388   26.5781 C   0  0  0  0  0  0  0  0  0  0  0  0
    4.8961  -13.4076   26.5503 N   0  0  0  0  0  0  0  0  0  0  0  0
    5.6475  -12.5621   25.8500 C   0  0  0  0  0  0  0  0  0  0  0  0
    5.5253  -11.2274   25.5375 C   0  0  0  0  0  0  0  0  0  0  0  0
    6.5026  -10.5998   24.7637 C   0  0  0  0  0  0  0  0  0  0  0  0
    7.5741  -11.3612   24.3350 C   0  0  0  0  0  0  0  0  0  0  0  0
    7.7079  -12.7030   24.6426 C   0  0  0  0  0  0  0  0  0  0  0  0
    6.7314  -13.3114   25.4104 C   0  0  0  0  0  0  0  0  0  0  0  0
    8.4310  -17.1925   23.8306 C   0  0  0  0  0  0  0  0  0  0  0  0
    8.4172  -18.4322   24.0082 O   0  0  0  0  0  0  0  0  0  0  0  0
   10.8497  -15.4303   19.5469 C   0  0  0  0  0  0  0  0  0  0  0  0
   10.6456  -16.5240   20.5534 C   0  0  0  0  0  0  0  0  0  0  0  0
   11.4760  -16.3157   21.8022 C   0  0  2  0  0  0  0  0  0  0  0  0
   12.8836  -16.7533   21.5125 C   0  0  0  0  0  0  0  0  0  0  0  0
   10.8582  -16.8841   23.0383 C   0  0  2  0  0  0  0  0  0  0  0  0
    9.4766  -16.5039   23.2097 N   0  0  0  0  0  0  0  0  0  0  0  0
   11.6083  -16.7815   24.2831 C   0  0  0  0  0  0  0  0  0  0  0  0
   12.7416  -16.1416   24.2992 O   0  0  0  0  0  0  0  0  0  0  0  0
   10.1052  -14.6543   28.6688 C   0  0  0  0  0  0  0  0  0  0  0  0
   10.9522  -15.1226   27.4364 C   0  0  1  0  0  0  0  0  0  0  0  0
   11.9510  -14.0267   27.2184 C   0  0  0  0  0  0  0  0  0  0  0  0
   11.4762  -16.4687   27.7204 C   0  0  0  0  0  0  0  0  0  0  0  0
   12.2054  -17.2559   26.7088 C   0  0  2  0  0  0  0  0  0  0  0  0
   11.2521  -17.3031   25.5445 N   0  0  0  0  0  0  0  0  0  0  0  0
   12.5132  -18.6334   27.1110 C   0  0  0  0  0  0  0  0  0  0  0  0
   11.8915  -19.7120   26.5111 O   0  0  0  0  0  0  0  0  0  0  0  0
   13.3572  -18.8523   28.0292 O   0  0  0  0  0  0  0  0  0  0  0  0
  2  1  1  1
  2  3  1  0
  3  4  1  0
  4 12  1  0
  4  5  2  0
  5  6  1  0
  7  6  1  0
  7  8  2  0
  9  8  1  0
 10  9  2  0
 11 10  1  0
 11 12  2  0
 12  7  1  0
 13  2  1  0
 13 20  1  0
 14 13  2  0
 15 16  1  0
 16 17  1  0
 17 18  1  6
 19 17  1  0
 19 20  1  1
 21 19  1  0
 22 21  2  0
 24 26  1  0
 24 23  1  1
 24 25  1  0
 27 26  1  1
 27 28  1  0
 28 21  1  0
 29 27  1  0
 29 30  1  0
 31 29  2  0
M  END
$$$$
