WIL.pdb
     RDKit          3D

 31 32  0  0  1  0  0  0  0  0999 V2000
    6.2967  -19.6367   21.0644 N   0  0  0  0  0  0  0  0  0  0  0  0
    5.9385  -18.3483   21.6036 C   0  0  1  0  0  0  0  0  0  0  0  0
    5.3487  -18.5162   22.9832 C   0  0  0  0  0  0  0  0  0  0  0  0
    4.1604  -19.4010   22.9642 C   0  0  0  0  0  0  0  0  0  0  0  0
    3.9557  -20.4913   23.7801 C   0  0  0  0  0  0  0  0  0  0  0  0
    2.7663  -21.0344   23.4618 N   0  0  0  0  0  0  0  0  0  0  0  0
    2.1734  -20.3616   22.4791 C   0  0  0  0  0  0  0  0  0  0  0  0
    0.9767  -20.5166   21.8172 C   0  0  0  0  0  0  0  0  0  0  0  0
    0.6202  -19.6269   20.8028 C   0  0  0  0  0  0  0  0  0  0  0  0
    1.5025  -18.6065   20.4995 C   0  0  0  0  0  0  0  0  0  0  0  0
    2.7077  -18.4405   21.1574 C   0  0  0  0  0  0  0  0  0  0  0  0
    3.0475  -19.3301   22.1606 C   0  0  0  0  0  0  0  0  0  0  0  0
    7.1674  -17.4898   21.6425 C   0  0  0  0  0  0  0  0  0  0  0  0
    8.2359  -18.0928   21.8938 O   0  0  0  0  0  0  0  0  0  0  0  0
    6.7626  -12.7230   18.9139 C   0  0  0  0  0  0  0  0  0  0  0  0
    7.3687  -13.9649   19.4980 C   0  0  0  0  0  0  0  0  0  0  0  0
    7.7322  -13.7932   20.9577 C   0  0  2  0  0  0  0  0  0  0  0  0
    8.7703  -12.7124   21.0624 C   0  0  0  0  0  0  0  0  0  0  0  0
    8.0542  -15.0758   21.6533 C   0  0  2  0  0  0  0  0  0  0  0  0
    7.0828  -16.1147   21.4086 N   0  0  0  0  0  0  0  0  0  0  0  0
    8.4382  -15.0109   23.0572 C   0  0  0  0  0  0  0  0  0  0  0  0
    7.7913  -14.2206   23.8641 O   0  0  0  0  0  0  0  0  0  0  0  0
    8.0429  -15.1179   28.1827 C   0  0  0  0  0  0  0  0  0  0  0  0
    9.3721  -14.9358   27.3729 C   0  0  1  0  0  0  0  0  0  0  0  0
   10.3765  -15.7884   28.0871 C   0  0  0  0  0  0  0  0  0  0  0  0
    9.0997  -15.2507   25.9608 C   0  0  0  0  0  0  0  0  0  0  0  0
   10.1507  -15.1939   24.9279 C   0  0  2  0  0  0  0  0  0  0  0  0
    9.4669  -15.7317   23.6992 N   0  0  0  0  0  0  0  0  0  0  0  0
   11.3266  -16.0272   25.2054 C   0  0  0  0  0  0  0  0  0  0  0  0
   11.4166  -17.3219   24.7308 O   0  0  0  0  0  0  0  0  0  0  0  0
   12.2813  -15.5662   25.8978 O   0  0  0  0  0  0  0  0  0  0  0  0
  2  1  1  1
  2  3  1  0
  3  4  1  0
  4 12  1  0
  4  5  2  0
  5  6  1  0
  7  6  1  0
  7  8  2  0
  9  8  1  0
 10  9  2  0
 11 10  1  0
 11 12  2  0
 12  7  1  0
 13  2  1  0
 13 20  1  0
 14 13  2  0
 15 16  1  0
 16 17  1  0
 17 18  1  6
 19 17  1  0
 19 20  1  1
 21 19  1  0
 22 21  2  0
 24 26  1  0
 24 23  1  1
 24 25  1  0
 27 26  1  1
 27 28  1  0
 28 21  1  0
 29 27  1  0
 29 30  1  0
 31 29  2  0
M  END
$$$$
