WIL.pdb
     RDKit          3D

 31 32  0  0  1  0  0  0  0  0999 V2000
    5.8214  -18.0499   25.0424 N   0  0  0  0  0  0  0  0  0  0  0  0
    6.3678  -16.7302   24.8446 C   0  0  1  0  0  0  0  0  0  0  0  0
    6.7455  -16.1271   26.1760 C   0  0  0  0  0  0  0  0  0  0  0  0
    5.9836  -14.8858   26.4483 C   0  0  0  0  0  0  0  0  0  0  0  0
    4.6574  -14.8192   26.8130 C   0  0  0  0  0  0  0  0  0  0  0  0
    4.3313  -13.5229   26.9693 N   0  0  0  0  0  0  0  0  0  0  0  0
    5.3708  -12.7288   26.7275 C   0  0  0  0  0  0  0  0  0  0  0  0
    5.5413  -11.3633   26.7522 C   0  0  0  0  0  0  0  0  0  0  0  0
    6.7844  -10.8098   26.4426 C   0  0  0  0  0  0  0  0  0  0  0  0
    7.8132  -11.6744   26.1173 C   0  0  0  0  0  0  0  0  0  0  0  0
    7.6541  -13.0479   26.0890 C   0  0  0  0  0  0  0  0  0  0  0  0
    6.4163  -13.5821   26.3983 C   0  0  0  0  0  0  0  0  0  0  0  0
    7.5611  -16.8389   23.9430 C   0  0  0  0  0  0  0  0  0  0  0  0
    8.1478  -17.9453   23.9599 O   0  0  0  0  0  0  0  0  0  0  0  0
    7.4232  -13.4323   19.7181 C   0  0  0  0  0  0  0  0  0  0  0  0
    7.6601  -14.6247   20.5973 C   0  0  0  0  0  0  0  0  0  0  0  0
    9.0102  -14.5736   21.2806 C   0  0  2  0  0  0  0  0  0  0  0  0
   10.0767  -14.5977   20.2228 C   0  0  0  0  0  0  0  0  0  0  0  0
    9.1647  -15.5685   22.3847 C   0  0  2  0  0  0  0  0  0  0  0  0
    7.9581  -15.7561   23.1539 N   0  0  0  0  0  0  0  0  0  0  0  0
   10.3413  -15.4618   23.2373 C   0  0  0  0  0  0  0  0  0  0  0  0
   10.8967  -14.2993   23.4229 O   0  0  0  0  0  0  0  0  0  0  0  0
   10.8833  -16.8592   27.6989 C   0  0  0  0  0  0  0  0  0  0  0  0
   10.4060  -15.7450   26.7057 C   0  0  1  0  0  0  0  0  0  0  0  0
    9.7741  -14.7008   27.5753 C   0  0  0  0  0  0  0  0  0  0  0  0
   11.5563  -15.3350   25.8835 C   0  0  0  0  0  0  0  0  0  0  0  0
   12.1448  -16.2202   24.8614 C   0  0  2  0  0  0  0  0  0  0  0  0
   10.9932  -16.5013   23.9332 N   0  0  0  0  0  0  0  0  0  0  0  0
   12.6472  -17.4995   25.3762 C   0  0  0  0  0  0  0  0  0  0  0  0
   12.0154  -18.6915   25.0765 O   0  0  0  0  0  0  0  0  0  0  0  0
   13.6742  -17.5258   26.1164 O   0  0  0  0  0  0  0  0  0  0  0  0
  2  1  1  1
  2  3  1  0
  3  4  1  0
  4 12  1  0
  4  5  2  0
  5  6  1  0
  7  6  1  0
  7  8  2  0
  9  8  1  0
 10  9  2  0
 11 10  1  0
 11 12  2  0
 12  7  1  0
 13  2  1  0
 13 20  1  0
 14 13  2  0
 15 16  1  0
 16 17  1  0
 17 18  1  6
 19 17  1  0
 19 20  1  1
 21 19  1  0
 22 21  2  0
 24 26  1  0
 24 23  1  1
 24 25  1  0
 27 26  1  1
 27 28  1  0
 28 21  1  0
 29 27  1  0
 29 30  1  0
 31 29  2  0
M  END
$$$$
