WIL.pdb
     RDKit          3D

 31 32  0  0  1  0  0  0  0  0999 V2000
    6.2962  -18.9003   24.6950 N   0  0  0  0  0  0  0  0  0  0  0  0
    6.4909  -17.4798   24.5419 C   0  0  1  0  0  0  0  0  0  0  0  0
    6.9223  -16.8771   25.8572 C   0  0  0  0  0  0  0  0  0  0  0  0
    6.1904  -15.6221   26.1481 C   0  0  0  0  0  0  0  0  0  0  0  0
    4.8395  -15.5165   26.3932 C   0  0  0  0  0  0  0  0  0  0  0  0
    4.5544  -14.2198   26.6130 N   0  0  0  0  0  0  0  0  0  0  0  0
    5.6444  -13.4622   26.5264 C   0  0  0  0  0  0  0  0  0  0  0  0
    5.8686  -12.1115   26.6663 C   0  0  0  0  0  0  0  0  0  0  0  0
    7.1576  -11.5988   26.5135 C   0  0  0  0  0  0  0  0  0  0  0  0
    8.1757  -12.4878   26.2221 C   0  0  0  0  0  0  0  0  0  0  0  0
    7.9628  -13.8469   26.0791 C   0  0  0  0  0  0  0  0  0  0  0  0
    6.6799  -14.3405   26.2334 C   0  0  0  0  0  0  0  0  0  0  0  0
    7.5240  -17.2523   23.4790 C   0  0  0  0  0  0  0  0  0  0  0  0
    8.3813  -18.1576   23.3611 O   0  0  0  0  0  0  0  0  0  0  0  0
    8.6243  -12.4719   19.5213 C   0  0  0  0  0  0  0  0  0  0  0  0
    9.0443  -13.7826   20.1186 C   0  0  0  0  0  0  0  0  0  0  0  0
    8.1130  -14.2331   21.2240 C   0  0  2  0  0  0  0  0  0  0  0  0
    7.8667  -13.0675   22.1391 C   0  0  0  0  0  0  0  0  0  0  0  0
    8.5350  -15.5041   21.8867 C   0  0  2  0  0  0  0  0  0  0  0  0
    7.4962  -16.0957   22.6953 N   0  0  0  0  0  0  0  0  0  0  0  0
    9.8261  -15.5238   22.5614 C   0  0  0  0  0  0  0  0  0  0  0  0
   10.9049  -15.2358   21.8925 O   0  0  0  0  0  0  0  0  0  0  0  0
   10.4744  -14.9020   28.1887 C   0  0  0  0  0  0  0  0  0  0  0  0
   10.6093  -14.5260   26.6734 C   0  0  1  0  0  0  0  0  0  0  0  0
   11.3733  -13.2368   26.6643 C   0  0  0  0  0  0  0  0  0  0  0  0
   11.2052  -15.6705   25.9646 C   0  0  0  0  0  0  0  0  0  0  0  0
   11.4535  -15.6497   24.5111 C   0  0  2  0  0  0  0  0  0  0  0  0
   10.0811  -15.8217   23.9165 N   0  0  0  0  0  0  0  0  0  0  0  0
   12.3097  -16.7365   24.0213 C   0  0  0  0  0  0  0  0  0  0  0  0
   13.6775  -16.7164   24.2175 O   0  0  0  0  0  0  0  0  0  0  0  0
   11.7996  -17.7142   23.3991 O   0  0  0  0  0  0  0  0  0  0  0  0
  2  1  1  1
  2  3  1  0
  3  4  1  0
  4 12  1  0
  4  5  2  0
  5  6  1  0
  7  6  1  0
  7  8  2  0
  9  8  1  0
 10  9  2  0
 11 10  1  0
 11 12  2  0
 12  7  1  0
 13  2  1  0
 13 20  1  0
 14 13  2  0
 15 16  1  0
 16 17  1  0
 17 18  1  1
 19 17  1  0
 19 20  1  1
 21 19  1  0
 22 21  2  0
 24 26  1  0
 24 23  1  1
 24 25  1  0
 27 26  1  1
 27 28  1  0
 28 21  1  0
 29 27  1  0
 29 30  1  0
 31 29  2  0
M  END
$$$$
