WIL.pdb
     RDKit          3D

 31 32  0  0  1  0  0  0  0  0999 V2000
    5.6895  -18.5413   24.0168 N   0  0  0  0  0  0  0  0  0  0  0  0
    6.2700  -17.2281   24.1510 C   0  0  1  0  0  0  0  0  0  0  0  0
    6.5813  -16.9515   25.6021 C   0  0  0  0  0  0  0  0  0  0  0  0
    6.0749  -15.6249   26.0252 C   0  0  0  0  0  0  0  0  0  0  0  0
    4.9190  -15.3943   26.7370 C   0  0  0  0  0  0  0  0  0  0  0  0
    4.8025  -14.0671   26.9270 N   0  0  0  0  0  0  0  0  0  0  0  0
    5.8196  -13.4077   26.3789 C   0  0  0  0  0  0  0  0  0  0  0  0
    6.1484  -12.0734   26.3036 C   0  0  0  0  0  0  0  0  0  0  0  0
    7.3129  -11.6780   25.6437 C   0  0  0  0  0  0  0  0  0  0  0  0
    8.1030  -12.6639   25.0820 C   0  0  0  0  0  0  0  0  0  0  0  0
    7.7832  -14.0076   25.1511 C   0  0  0  0  0  0  0  0  0  0  0  0
    6.6259  -14.3844   25.8085 C   0  0  0  0  0  0  0  0  0  0  0  0
    7.5110  -17.1679   23.3114 C   0  0  0  0  0  0  0  0  0  0  0  0
    8.0805  -18.2659   23.1152 O   0  0  0  0  0  0  0  0  0  0  0  0
    8.2960  -12.3098   20.2998 C   0  0  0  0  0  0  0  0  0  0  0  0
    8.5697  -13.2752   21.4151 C   0  0  0  0  0  0  0  0  0  0  0  0
    8.8563  -14.6721   20.9064 C   0  0  2  0  0  0  0  0  0  0  0  0
    7.7816  -15.0482   19.9265 C   0  0  0  0  0  0  0  0  0  0  0  0
    9.1262  -15.6645   21.9904 C   0  0  2  0  0  0  0  0  0  0  0  0
    7.9672  -15.9492   22.8019 N   0  0  0  0  0  0  0  0  0  0  0  0
   10.3237  -15.4799   22.7994 C   0  0  0  0  0  0  0  0  0  0  0  0
   10.9049  -14.3157   22.8301 O   0  0  0  0  0  0  0  0  0  0  0  0
   11.2172  -13.9415   27.2756 C   0  0  0  0  0  0  0  0  0  0  0  0
   10.3499  -15.2364   27.1120 C   0  0  1  0  0  0  0  0  0  0  0  0
    9.0457  -14.9111   27.7747 C   0  0  0  0  0  0  0  0  0  0  0  0
   10.3131  -15.5906   25.6836 C   0  0  0  0  0  0  0  0  0  0  0  0
   11.5023  -16.0897   24.9685 C   0  0  2  0  0  0  0  0  0  0  0  0
   10.9716  -16.4406   23.6039 N   0  0  0  0  0  0  0  0  0  0  0  0
   12.1074  -17.2923   25.5530 C   0  0  0  0  0  0  0  0  0  0  0  0
   11.4901  -18.5250   25.4577 O   0  0  0  0  0  0  0  0  0  0  0  0
   13.2127  -17.2122   26.1657 O   0  0  0  0  0  0  0  0  0  0  0  0
  2  1  1  1
  2  3  1  0
  3  4  1  0
  4 12  1  0
  4  5  2  0
  5  6  1  0
  7  6  1  0
  7  8  2  0
  9  8  1  0
 10  9  2  0
 11 10  1  0
 11 12  2  0
 12  7  1  0
 13  2  1  0
 13 20  1  0
 14 13  2  0
 15 16  1  0
 16 17  1  0
 17 18  1  1
 19 17  1  0
 19 20  1  1
 21 19  1  0
 22 21  2  0
 24 26  1  0
 24 23  1  6
 24 25  1  0
 27 26  1  1
 27 28  1  0
 28 21  1  0
 29 27  1  0
 29 30  1  0
 31 29  2  0
M  END
$$$$
