WIL.pdb
     RDKit          3D

 31 32  0  0  1  0  0  0  0  0999 V2000
    5.9456  -18.5287   25.0673 N   0  0  0  0  0  0  0  0  0  0  0  0
    6.2748  -17.1340   24.9068 C   0  0  1  0  0  0  0  0  0  0  0  0
    6.5833  -16.5223   26.2521 C   0  0  0  0  0  0  0  0  0  0  0  0
    5.9001  -15.2193   26.4282 C   0  0  0  0  0  0  0  0  0  0  0  0
    4.5407  -15.0325   26.5436 C   0  0  0  0  0  0  0  0  0  0  0  0
    4.3105  -13.7146   26.6887 N   0  0  0  0  0  0  0  0  0  0  0  0
    5.4449  -13.0198   26.6754 C   0  0  0  0  0  0  0  0  0  0  0  0
    5.7313  -11.6782   26.7860 C   0  0  0  0  0  0  0  0  0  0  0  0
    7.0557  -11.2411   26.7342 C   0  0  0  0  0  0  0  0  0  0  0  0
    8.0441  -12.1939   26.5706 C   0  0  0  0  0  0  0  0  0  0  0  0
    7.7688  -13.5446   26.4583 C   0  0  0  0  0  0  0  0  0  0  0  0
    6.4514  -13.9630   26.5115 C   0  0  0  0  0  0  0  0  0  0  0  0
    7.4502  -17.0254   23.9819 C   0  0  0  0  0  0  0  0  0  0  0  0
    8.3282  -17.9072   24.1235 O   0  0  0  0  0  0  0  0  0  0  0  0
    9.0023  -12.8845   19.4925 C   0  0  0  0  0  0  0  0  0  0  0  0
    9.4242  -13.9451   20.4661 C   0  0  0  0  0  0  0  0  0  0  0  0
    8.2441  -14.5692   21.1804 C   0  0  2  0  0  0  0  0  0  0  0  0
    7.3347  -13.4668   21.6435 C   0  0  0  0  0  0  0  0  0  0  0  0
    8.6299  -15.5743   22.2166 C   0  0  2  0  0  0  0  0  0  0  0  0
    7.5222  -15.9953   23.0404 N   0  0  0  0  0  0  0  0  0  0  0  0
    9.8257  -15.3126   23.0067 C   0  0  0  0  0  0  0  0  0  0  0  0
    9.9555  -14.1700   23.6162 O   0  0  0  0  0  0  0  0  0  0  0  0
   10.0789  -15.1973   27.5737 C   0  0  0  0  0  0  0  0  0  0  0  0
   10.6164  -14.7788   26.1625 C   0  0  1  0  0  0  0  0  0  0  0  0
   11.5080  -13.6031   26.4246 C   0  0  0  0  0  0  0  0  0  0  0  0
   11.2244  -15.9611   25.5303 C   0  0  0  0  0  0  0  0  0  0  0  0
   11.9661  -15.8761   24.2585 C   0  0  2  0  0  0  0  0  0  0  0  0
   10.9195  -16.1779   23.2192 N   0  0  0  0  0  0  0  0  0  0  0  0
   13.0529  -16.8523   24.1179 C   0  0  0  0  0  0  0  0  0  0  0  0
   12.9001  -17.9905   23.3493 O   0  0  0  0  0  0  0  0  0  0  0  0
   14.1549  -16.6643   24.7126 O   0  0  0  0  0  0  0  0  0  0  0  0
  2  1  1  1
  2  3  1  0
  3  4  1  0
  4 12  1  0
  4  5  2  0
  5  6  1  0
  7  6  1  0
  7  8  2  0
  9  8  1  0
 10  9  2  0
 11 10  1  0
 11 12  2  0
 12  7  1  0
 13  2  1  0
 13 20  1  0
 14 13  2  0
 15 16  1  0
 16 17  1  0
 17 18  1  1
 19 17  1  0
 19 20  1  1
 21 19  1  0
 22 21  2  0
 24 26  1  0
 24 23  1  1
 24 25  1  0
 27 26  1  1
 27 28  1  0
 28 21  1  0
 29 27  1  0
 29 30  1  0
 31 29  2  0
M  END
$$$$
