WIL.pdb
     RDKit          3D

 31 32  0  0  1  0  0  0  0  0999 V2000
    5.5947  -19.5539   24.9295 N   0  0  0  0  0  0  0  0  0  0  0  0
    6.5106  -18.6889   25.6309 C   0  0  1  0  0  0  0  0  0  0  0  0
    7.7271  -19.4722   26.0618 C   0  0  0  0  0  0  0  0  0  0  0  0
    7.9626  -19.3552   27.5200 C   0  0  0  0  0  0  0  0  0  0  0  0
    7.7607  -20.3503   28.4502 C   0  0  0  0  0  0  0  0  0  0  0  0
    8.0850  -19.8623   29.6617 N   0  0  0  0  0  0  0  0  0  0  0  0
    8.4906  -18.5978   29.5825 C   0  0  0  0  0  0  0  0  0  0  0  0
    8.9182  -17.6833   30.5180 C   0  0  0  0  0  0  0  0  0  0  0  0
    9.2877  -16.3981   30.1190 C   0  0  0  0  0  0  0  0  0  0  0  0
    9.2068  -16.0915   28.7732 C   0  0  0  0  0  0  0  0  0  0  0  0
    8.7788  -17.0017   27.8239 C   0  0  0  0  0  0  0  0  0  0  0  0
    8.4159  -18.2718   28.2342 C   0  0  0  0  0  0  0  0  0  0  0  0
    6.8903  -17.5590   24.7209 C   0  0  0  0  0  0  0  0  0  0  0  0
    7.1843  -17.8890   23.5491 O   0  0  0  0  0  0  0  0  0  0  0  0
    5.0052  -12.7041   26.2993 C   0  0  0  0  0  0  0  0  0  0  0  0
    5.4613  -13.8284   25.4167 C   0  0  0  0  0  0  0  0  0  0  0  0
    6.9538  -13.7903   25.1654 C   0  0  2  0  0  0  0  0  0  0  0  0
    7.2704  -12.5457   24.3860 C   0  0  0  0  0  0  0  0  0  0  0  0
    7.5042  -15.0640   24.6111 C   0  0  2  0  0  0  0  0  0  0  0  0
    6.9024  -16.2420   25.1881 N   0  0  0  0  0  0  0  0  0  0  0  0
    8.9517  -15.1904   24.5042 C   0  0  0  0  0  0  0  0  0  0  0  0
    9.5670  -14.6787   23.4777 O   0  0  0  0  0  0  0  0  0  0  0  0
   11.8973  -14.7487   28.9787 C   0  0  0  0  0  0  0  0  0  0  0  0
   11.1596  -14.6287   27.6014 C   0  0  1  0  0  0  0  0  0  0  0  0
   11.2043  -13.1684   27.2679 C   0  0  0  0  0  0  0  0  0  0  0  0
   11.7956  -15.5588   26.6539 C   0  0  0  0  0  0  0  0  0  0  0  0
   11.3214  -15.7103   25.2658 C   0  0  2  0  0  0  0  0  0  0  0  0
    9.8271  -15.8199   25.4138 N   0  0  0  0  0  0  0  0  0  0  0  0
   11.8081  -16.9137   24.5811 C   0  0  0  0  0  0  0  0  0  0  0  0
   13.1481  -17.0791   24.2864 O   0  0  0  0  0  0  0  0  0  0  0  0
   10.9948  -17.8228   24.2416 O   0  0  0  0  0  0  0  0  0  0  0  0
  2  1  1  6
  2  3  1  0
  3  4  1  0
  4 12  1  0
  4  5  2  0
  5  6  1  0
  7  6  1  0
  7  8  2  0
  9  8  1  0
 10  9  2  0
 11 10  1  0
 11 12  2  0
 12  7  1  0
 13  2  1  0
 13 20  1  0
 14 13  2  0
 15 16  1  0
 16 17  1  0
 17 18  1  6
 19 17  1  0
 19 20  1  1
 21 19  1  0
 22 21  2  0
 24 26  1  0
 24 23  1  1
 24 25  1  0
 27 26  1  1
 27 28  1  0
 28 21  1  0
 29 27  1  0
 29 30  1  0
 31 29  2  0
M  END
$$$$
