WIL.pdb
     RDKit          3D

 31 32  0  0  1  0  0  0  0  0999 V2000
    5.6465  -18.6248   24.3668 N   0  0  0  0  0  0  0  0  0  0  0  0
    6.1400  -17.2701   24.3914 C   0  0  1  0  0  0  0  0  0  0  0  0
    6.4722  -16.8715   25.8092 C   0  0  0  0  0  0  0  0  0  0  0  0
    5.9066  -15.5450   26.1495 C   0  0  0  0  0  0  0  0  0  0  0  0
    4.5781  -15.2743   26.3905 C   0  0  0  0  0  0  0  0  0  0  0  0
    4.4617  -13.9619   26.6644 N   0  0  0  0  0  0  0  0  0  0  0  0
    5.6420  -13.3501   26.6174 C   0  0  0  0  0  0  0  0  0  0  0  0
    6.0385  -12.0473   26.8168 C   0  0  0  0  0  0  0  0  0  0  0  0
    7.3850  -11.7014   26.6943 C   0  0  0  0  0  0  0  0  0  0  0  0
    8.2820  -12.7027   26.3710 C   0  0  0  0  0  0  0  0  0  0  0  0
    7.8957  -14.0151   26.1682 C   0  0  0  0  0  0  0  0  0  0  0  0
    6.5578  -14.3430   26.2930 C   0  0  0  0  0  0  0  0  0  0  0  0
    7.3501  -17.1878   23.5097 C   0  0  0  0  0  0  0  0  0  0  0  0
    7.8697  -18.2864   23.2072 O   0  0  0  0  0  0  0  0  0  0  0  0
    7.5220  -13.0358   19.9375 C   0  0  0  0  0  0  0  0  0  0  0  0
    7.7140  -14.3700   20.5962 C   0  0  0  0  0  0  0  0  0  0  0  0
    8.9082  -14.3831   21.5268 C   0  0  2  0  0  0  0  0  0  0  0  0
   10.1258  -13.9912   20.7390 C   0  0  0  0  0  0  0  0  0  0  0  0
    9.0292  -15.6345   22.3341 C   0  0  2  0  0  0  0  0  0  0  0  0
    7.8328  -15.9498   23.0770 N   0  0  0  0  0  0  0  0  0  0  0  0
   10.2308  -15.8118   23.1388 C   0  0  0  0  0  0  0  0  0  0  0  0
   11.2727  -15.0660   22.9103 O   0  0  0  0  0  0  0  0  0  0  0  0
   10.4213  -13.5310   27.7066 C   0  0  0  0  0  0  0  0  0  0  0  0
   11.2523  -14.8002   27.3138 C   0  0  1  0  0  0  0  0  0  0  0  0
   11.1446  -15.7113   28.4988 C   0  0  0  0  0  0  0  0  0  0  0  0
   10.7469  -15.3030   26.0258 C   0  0  0  0  0  0  0  0  0  0  0  0
   11.3847  -16.4292   25.3190 C   0  0  2  0  0  0  0  0  0  0  0  0
   10.4287  -16.7264   24.1945 N   0  0  0  0  0  0  0  0  0  0  0  0
   11.5439  -17.6456   26.1247 C   0  0  0  0  0  0  0  0  0  0  0  0
   12.7132  -17.9007   26.8157 O   0  0  0  0  0  0  0  0  0  0  0  0
   10.6025  -18.4898   26.1912 O   0  0  0  0  0  0  0  0  0  0  0  0
  2  1  1  1
  2  3  1  0
  3  4  1  0
  4 12  1  0
  4  5  2  0
  5  6  1  0
  7  6  1  0
  7  8  2  0
  9  8  1  0
 10  9  2  0
 11 10  1  0
 11 12  2  0
 12  7  1  0
 13  2  1  0
 13 20  1  0
 14 13  2  0
 15 16  1  0
 16 17  1  0
 17 18  1  6
 19 17  1  0
 19 20  1  1
 21 19  1  0
 22 21  2  0
 24 26  1  0
 24 23  1  1
 24 25  1  0
 27 26  1  1
 27 28  1  0
 28 21  1  0
 29 27  1  0
 29 30  1  0
 31 29  2  0
M  END
$$$$
