QVK.pdb
     RDKit          3D

 26 25  0  0  1  0  0  0  0  0999 V2000
   20.6129  -18.7181  -16.8145 N   0  0  0  0  0  0  0  0  0  0  0  0
   20.1905  -17.8261  -17.8640 C   0  0  0  0  0  0  0  0  0  0  0  0
   20.3255  -18.1905  -19.0484 O   0  0  0  0  0  0  0  0  0  0  0  0
   19.6125  -16.5096  -17.5213 C   0  0  0  0  0  0  0  0  0  0  0  0
   20.6149  -15.5583  -16.9535 C   0  0  0  0  0  0  0  0  0  0  0  0
   20.4654  -14.1528  -17.4708 C   0  0  2  0  0  0  0  0  0  0  0  0
   21.4507  -14.0492  -18.5661 N   0  0  0  0  0  0  0  0  0  0  0  0
   20.7686  -13.1108  -16.4590 C   0  0  0  0  0  0  0  0  0  0  0  0
   20.0081  -13.0408  -15.4393 O   0  0  0  0  0  0  0  0  0  0  0  0
   24.4393  -10.9671  -16.2164 C   0  0  0  0  0  0  0  0  0  0  0  0
   23.4967  -11.2408  -15.0886 C   0  0  2  0  0  0  0  0  0  0  0  0
   23.8371  -12.5704  -14.4378 C   0  0  0  0  0  0  0  0  0  0  0  0
   22.0304  -11.2104  -15.4565 C   0  0  2  0  0  0  0  0  0  0  0  0
   21.8320  -12.1918  -16.5315 N   0  0  0  0  0  0  0  0  0  0  0  0
   21.6853   -9.8625  -15.9701 C   0  0  0  0  0  0  0  0  0  0  0  0
   22.1439   -9.4617  -17.1043 O   0  0  0  0  0  0  0  0  0  0  0  0
   20.8580   -8.9064  -15.3257 N   0  0  0  0  0  0  0  0  0  0  0  0
   20.6545   -7.5836  -15.8594 C   0  0  1  0  0  0  0  0  0  0  0  0
   19.2159   -7.3249  -16.1260 C   0  0  0  0  0  0  0  0  0  0  0  0
   18.5183   -8.0606  -17.1872 C   0  0  0  0  0  0  0  0  0  0  0  0
   17.4631   -8.9938  -16.7193 C   0  0  0  0  0  0  0  0  0  0  0  0
   16.9380   -9.8529  -17.8944 C   0  0  0  0  0  0  0  0  0  0  0  0
   15.9624  -10.8015  -17.4223 N   0  0  0  0  0  0  0  0  0  0  0  0
   21.0625   -6.5343  -14.8612 C   0  0  0  0  0  0  0  0  0  0  0  0
   21.0957   -5.2189  -15.2247 O   0  0  0  0  0  0  0  0  0  0  0  0
   21.3607   -6.8957  -13.7240 O   0  0  0  0  0  0  0  0  0  0  0  0
  2  3  2  0
  2  1  1  0
  4  2  1  0
  5  4  1  0
  6  5  1  0
  6  7  1  6
  8  9  2  0
  8  6  1  0
 11 10  1  6
 11 12  1  0
 11 13  1  0
 13 14  1  6
 14  8  1  0
 15 16  2  0
 15 13  1  0
 17 15  1  0
 18 19  1  1
 18 17  1  0
 20 21  1  0
 20 19  1  0
 22 21  1  0
 23 22  1  0
 24 18  1  0
 25 24  1  0
 26 24  2  0
M  END
$$$$
