QVK.pdb
     RDKit          3D

 26 25  0  0  1  0  0  0  0  0999 V2000
   25.1795  -18.5733  -18.6434 N   0  0  0  0  0  0  0  0  0  0  0  0
   26.5487  -18.9650  -18.4257 C   0  0  0  0  0  0  0  0  0  0  0  0
   27.3168  -18.1630  -17.8596 O   0  0  0  0  0  0  0  0  0  0  0  0
   27.0128  -20.2948  -18.8736 C   0  0  0  0  0  0  0  0  0  0  0  0
   26.5511  -21.4066  -17.9886 C   0  0  0  0  0  0  0  0  0  0  0  0
   27.1232  -21.3409  -16.5980 C   0  0  2  0  0  0  0  0  0  0  0  0
   28.4845  -21.8993  -16.7255 N   0  0  0  0  0  0  0  0  0  0  0  0
   26.3700  -22.1470  -15.6060 C   0  0  0  0  0  0  0  0  0  0  0  0
   26.5455  -23.4087  -15.6169 O   0  0  0  0  0  0  0  0  0  0  0  0
   24.1745  -20.5026  -12.3260 C   0  0  0  0  0  0  0  0  0  0  0  0
   24.8068  -21.8572  -12.3558 C   0  0  2  0  0  0  0  0  0  0  0  0
   26.2260  -21.7801  -11.8201 C   0  0  0  0  0  0  0  0  0  0  0  0
   24.8048  -22.5363  -13.7068 C   0  0  2  0  0  0  0  0  0  0  0  0
   25.4764  -21.6311  -14.6489 N   0  0  0  0  0  0  0  0  0  0  0  0
   23.4032  -22.7336  -14.1502 C   0  0  0  0  0  0  0  0  0  0  0  0
   22.8154  -21.8390  -14.8654 O   0  0  0  0  0  0  0  0  0  0  0  0
   22.5852  -23.8583  -13.8680 N   0  0  0  0  0  0  0  0  0  0  0  0
   21.2080  -23.9297  -14.2855 C   0  0  1  0  0  0  0  0  0  0  0  0
   20.6566  -25.2961  -14.0943 C   0  0  0  0  0  0  0  0  0  0  0  0
   19.7985  -25.5905  -12.9406 C   0  0  0  0  0  0  0  0  0  0  0  0
   19.9985  -26.9288  -12.3306 C   0  0  0  0  0  0  0  0  0  0  0  0
   19.0803  -27.9759  -13.0054 C   0  0  0  0  0  0  0  0  0  0  0  0
   19.3275  -29.2843  -12.4564 N   0  0  0  0  0  0  0  0  0  0  0  0
   20.3438  -23.0366  -13.4373 C   0  0  0  0  0  0  0  0  0  0  0  0
   19.0387  -22.8232  -13.7761 O   0  0  0  0  0  0  0  0  0  0  0  0
   20.8447  -22.5131  -12.4434 O   0  0  0  0  0  0  0  0  0  0  0  0
  2  3  2  0
  2  1  1  0
  4  2  1  0
  5  4  1  0
  6  5  1  0
  6  7  1  6
  8  9  2  0
  8  6  1  0
 11 10  1  6
 11 12  1  0
 11 13  1  0
 13 14  1  6
 14  8  1  0
 15 16  2  0
 15 13  1  0
 17 15  1  0
 18 19  1  1
 18 17  1  0
 20 21  1  0
 20 19  1  0
 22 21  1  0
 23 22  1  0
 24 18  1  0
 25 24  1  0
 26 24  2  0
M  END
$$$$
