QVK.pdb
     RDKit          3D

 26 25  0  0  1  0  0  0  0  0999 V2000
   17.8222  -20.2903  -15.5506 N   0  0  0  0  0  0  0  0  0  0  0  0
   18.3226  -20.6508  -16.8525 C   0  0  0  0  0  0  0  0  0  0  0  0
   17.8785  -20.0506  -17.8506 O   0  0  0  0  0  0  0  0  0  0  0  0
   19.3408  -21.7146  -16.9798 C   0  0  0  0  0  0  0  0  0  0  0  0
   19.7718  -22.2753  -15.6637 C   0  0  0  0  0  0  0  0  0  0  0  0
   20.8834  -21.4943  -15.0160 C   0  0  2  0  0  0  0  0  0  0  0  0
   22.0988  -21.8852  -15.7585 N   0  0  0  0  0  0  0  0  0  0  0  0
   21.0792  -21.8162  -13.5810 C   0  0  0  0  0  0  0  0  0  0  0  0
   21.7232  -22.8784  -13.2980 O   0  0  0  0  0  0  0  0  0  0  0  0
   21.2104  -20.3974   -8.8309 C   0  0  0  0  0  0  0  0  0  0  0  0
   21.0011  -20.1830  -10.2957 C   0  0  2  0  0  0  0  0  0  0  0  0
   19.7655  -19.3298  -10.5248 C   0  0  0  0  0  0  0  0  0  0  0  0
   20.9127  -21.4459  -11.1226 C   0  0  2  0  0  0  0  0  0  0  0  0
   20.6129  -21.0413  -12.5026 N   0  0  0  0  0  0  0  0  0  0  0  0
   19.7968  -22.2818  -10.6165 C   0  0  0  0  0  0  0  0  0  0  0  0
   18.5876  -22.0488  -10.9918 O   0  0  0  0  0  0  0  0  0  0  0  0
   19.9088  -23.3750   -9.7186 N   0  0  0  0  0  0  0  0  0  0  0  0
   18.7624  -24.1322   -9.2845 C   0  0  1  0  0  0  0  0  0  0  0  0
   18.9648  -25.5883   -9.4997 C   0  0  0  0  0  0  0  0  0  0  0  0
   17.9246  -26.5444   -9.1022 C   0  0  0  0  0  0  0  0  0  0  0  0
   18.2862  -27.9746   -9.2661 C   0  0  0  0  0  0  0  0  0  0  0  0
   18.4737  -28.3193  -10.7630 C   0  0  0  0  0  0  0  0  0  0  0  0
   18.8857  -29.6913  -10.9115 N   0  0  0  0  0  0  0  0  0  0  0  0
   18.5500  -23.9812   -7.8027 C   0  0  0  0  0  0  0  0  0  0  0  0
   19.6101  -23.7274   -6.9809 O   0  0  0  0  0  0  0  0  0  0  0  0
   17.4068  -24.0925   -7.3629 O   0  0  0  0  0  0  0  0  0  0  0  0
  2  3  2  0
  2  1  1  0
  4  2  1  0
  5  4  1  0
  6  5  1  0
  6  7  1  6
  8  9  2  0
  8  6  1  0
 11 10  1  1
 11 12  1  0
 11 13  1  0
 13 14  1  6
 14  8  1  0
 15 16  2  0
 15 13  1  0
 17 15  1  0
 18 19  1  1
 18 17  1  0
 20 21  1  0
 20 19  1  0
 22 21  1  0
 23 22  1  0
 24 18  1  0
 25 24  1  0
 26 24  2  0
M  END
$$$$
