QVK.pdb
     RDKit          3D

 26 25  0  0  1  0  0  0  0  0999 V2000
   26.4030  -19.6833   -8.6224 N   0  0  0  0  0  0  0  0  0  0  0  0
   27.1182  -20.3544   -9.6776 C   0  0  0  0  0  0  0  0  0  0  0  0
   28.3289  -20.1022   -9.8333 O   0  0  0  0  0  0  0  0  0  0  0  0
   26.4111  -21.3178  -10.5474 C   0  0  0  0  0  0  0  0  0  0  0  0
   25.8708  -20.6964  -11.7941 C   0  0  0  0  0  0  0  0  0  0  0  0
   24.7342  -21.4715  -12.4045 C   0  0  2  0  0  0  0  0  0  0  0  0
   25.3433  -22.2049  -13.5325 N   0  0  0  0  0  0  0  0  0  0  0  0
   23.6431  -20.6139  -12.9292 C   0  0  0  0  0  0  0  0  0  0  0  0
   23.0441  -19.8513  -12.1031 O   0  0  0  0  0  0  0  0  0  0  0  0
   22.6776  -19.9580  -17.1129 C   0  0  0  0  0  0  0  0  0  0  0  0
   22.4774  -19.0322  -15.9560 C   0  0  2  0  0  0  0  0  0  0  0  0
   23.7187  -18.1814  -15.7504 C   0  0  0  0  0  0  0  0  0  0  0  0
   22.0948  -19.7034  -14.6562 C   0  0  2  0  0  0  0  0  0  0  0  0
   23.2152  -20.5713  -14.2693 N   0  0  0  0  0  0  0  0  0  0  0  0
   20.8934  -20.5444  -14.8780 C   0  0  0  0  0  0  0  0  0  0  0  0
   20.9620  -21.5934  -15.6210 O   0  0  0  0  0  0  0  0  0  0  0  0
   19.6018  -20.3211  -14.3340 N   0  0  0  0  0  0  0  0  0  0  0  0
   18.4813  -21.1728  -14.6424 C   0  0  1  0  0  0  0  0  0  0  0  0
   17.8051  -21.6434  -13.4059 C   0  0  0  0  0  0  0  0  0  0  0  0
   16.5712  -22.4331  -13.4949 C   0  0  0  0  0  0  0  0  0  0  0  0
   15.9423  -22.7698  -12.1933 C   0  0  0  0  0  0  0  0  0  0  0  0
   14.8846  -23.8849  -12.3735 C   0  0  0  0  0  0  0  0  0  0  0  0
   13.8225  -23.4313  -13.2339 N   0  0  0  0  0  0  0  0  0  0  0  0
   17.4259  -20.4159  -15.4020 C   0  0  0  0  0  0  0  0  0  0  0  0
   17.5438  -19.0675  -15.5796 O   0  0  0  0  0  0  0  0  0  0  0  0
   16.4677  -21.0431  -15.8509 O   0  0  0  0  0  0  0  0  0  0  0  0
  2  3  2  0
  2  1  1  0
  4  2  1  0
  5  4  1  0
  6  5  1  0
  6  7  1  6
  8  9  2  0
  8  6  1  0
 11 10  1  6
 11 12  1  0
 11 13  1  0
 13 14  1  6
 14  8  1  0
 15 16  2  0
 15 13  1  0
 17 15  1  0
 18 19  1  1
 18 17  1  0
 20 21  1  0
 20 19  1  0
 22 21  1  0
 23 22  1  0
 24 18  1  0
 25 24  1  0
 26 24  2  0
M  END
$$$$
