QVK.pdb
     RDKit          3D

 26 25  0  0  1  0  0  0  0  0999 V2000
   24.0338  -24.0515  -15.3926 N   0  0  0  0  0  0  0  0  0  0  0  0
   24.3733  -24.2481  -14.0064 C   0  0  0  0  0  0  0  0  0  0  0  0
   25.3426  -24.9802  -13.7266 O   0  0  0  0  0  0  0  0  0  0  0  0
   23.5743  -23.5871  -12.9531 C   0  0  0  0  0  0  0  0  0  0  0  0
   23.6321  -22.0957  -13.0215 C   0  0  0  0  0  0  0  0  0  0  0  0
   24.9709  -21.5305  -12.6296 C   0  0  2  0  0  0  0  0  0  0  0  0
   24.8691  -21.2990  -11.1745 N   0  0  0  0  0  0  0  0  0  0  0  0
   25.2911  -20.2432  -13.2942 C   0  0  0  0  0  0  0  0  0  0  0  0
   24.8013  -19.1814  -12.7887 O   0  0  0  0  0  0  0  0  0  0  0  0
   28.2072  -17.4772  -16.1527 C   0  0  0  0  0  0  0  0  0  0  0  0
   27.7790  -18.7461  -15.4878 C   0  0  2  0  0  0  0  0  0  0  0  0
   28.0159  -19.9248  -16.4162 C   0  0  0  0  0  0  0  0  0  0  0  0
   26.3497  -18.7610  -14.9945 C   0  0  2  0  0  0  0  0  0  0  0  0
   26.0959  -20.0973  -14.4396 N   0  0  0  0  0  0  0  0  0  0  0  0
   25.4366  -18.5386  -16.1419 C   0  0  0  0  0  0  0  0  0  0  0  0
   25.1165  -19.5152  -16.9173 O   0  0  0  0  0  0  0  0  0  0  0  0
   24.8339  -17.3068  -16.5071 N   0  0  0  0  0  0  0  0  0  0  0  0
   23.9610  -17.1876  -17.6471 C   0  0  1  0  0  0  0  0  0  0  0  0
   22.6472  -16.6099  -17.2625 C   0  0  0  0  0  0  0  0  0  0  0  0
   21.4148  -17.3808  -17.4646 C   0  0  0  0  0  0  0  0  0  0  0  0
   21.2213  -18.5177  -16.5302 C   0  0  0  0  0  0  0  0  0  0  0  0
   20.0106  -19.3779  -16.9648 C   0  0  0  0  0  0  0  0  0  0  0  0
   19.8044  -20.4566  -16.0331 N   0  0  0  0  0  0  0  0  0  0  0  0
   24.5287  -16.2297  -18.6591 C   0  0  0  0  0  0  0  0  0  0  0  0
   24.2896  -16.4176  -19.9899 O   0  0  0  0  0  0  0  0  0  0  0  0
   25.2052  -15.2859  -18.2535 O   0  0  0  0  0  0  0  0  0  0  0  0
  2  3  2  0
  2  1  1  0
  4  2  1  0
  5  4  1  0
  6  5  1  0
  6  7  1  1
  8  9  2  0
  8  6  1  0
 11 10  1  6
 11 12  1  0
 11 13  1  0
 13 14  1  6
 14  8  1  0
 15 16  2  0
 15 13  1  0
 17 15  1  0
 18 19  1  1
 18 17  1  0
 20 21  1  0
 20 19  1  0
 22 21  1  0
 23 22  1  0
 24 18  1  0
 25 24  1  0
 26 24  2  0
M  END
$$$$
