QVK.pdb
     RDKit          3D

 26 25  0  0  1  0  0  0  0  0999 V2000
   14.8178  -11.5712  -15.3412 N   0  0  0  0  0  0  0  0  0  0  0  0
   15.3492  -11.6320  -16.6789 C   0  0  0  0  0  0  0  0  0  0  0  0
   14.8806  -12.4733  -17.4704 O   0  0  0  0  0  0  0  0  0  0  0  0
   16.4289  -10.7073  -17.0835 C   0  0  0  0  0  0  0  0  0  0  0  0
   16.7562   -9.6929  -16.0365 C   0  0  0  0  0  0  0  0  0  0  0  0
   18.1347   -9.8569  -15.4551 C   0  0  2  0  0  0  0  0  0  0  0  0
   18.0070  -10.9725  -14.4957 N   0  0  0  0  0  0  0  0  0  0  0  0
   18.6204   -8.6582  -14.7280 C   0  0  0  0  0  0  0  0  0  0  0  0
   17.9886   -8.3100  -13.6780 O   0  0  0  0  0  0  0  0  0  0  0  0
   22.1892   -5.4069  -13.6952 C   0  0  0  0  0  0  0  0  0  0  0  0
   21.5903   -6.6993  -14.1495 C   0  0  2  0  0  0  0  0  0  0  0  0
   22.2459   -7.1494  -15.4437 C   0  0  0  0  0  0  0  0  0  0  0  0
   20.0871   -6.6871  -14.3134 C   0  0  2  0  0  0  0  0  0  0  0  0
   19.7267   -7.8728  -15.1022 N   0  0  0  0  0  0  0  0  0  0  0  0
   19.6896   -5.4729  -15.0666 C   0  0  0  0  0  0  0  0  0  0  0  0
   19.8578   -5.4143  -16.3416 O   0  0  0  0  0  0  0  0  0  0  0  0
   19.1075   -4.3000  -14.5194 N   0  0  0  0  0  0  0  0  0  0  0  0
   18.7423   -3.1712  -15.3368 C   0  0  1  0  0  0  0  0  0  0  0  0
   17.2680   -3.0731  -15.4935 C   0  0  0  0  0  0  0  0  0  0  0  0
   16.6742   -1.9194  -16.1795 C   0  0  0  0  0  0  0  0  0  0  0  0
   15.1934   -1.9384  -16.2795 C   0  0  0  0  0  0  0  0  0  0  0  0
   14.6862   -0.7045  -17.0636 C   0  0  0  0  0  0  0  0  0  0  0  0
   13.2480   -0.7173  -17.1388 N   0  0  0  0  0  0  0  0  0  0  0  0
   19.1531   -1.8801  -14.6823 C   0  0  0  0  0  0  0  0  0  0  0  0
   19.3058   -0.7498  -15.4325 O   0  0  0  0  0  0  0  0  0  0  0  0
   19.3439   -1.8771  -13.4673 O   0  0  0  0  0  0  0  0  0  0  0  0
  2  3  2  0
  2  1  1  0
  4  2  1  0
  5  4  1  0
  6  5  1  0
  6  7  1  1
  8  9  2  0
  8  6  1  0
 11 10  1  6
 11 12  1  0
 11 13  1  0
 13 14  1  6
 14  8  1  0
 15 16  2  0
 15 13  1  0
 17 15  1  0
 18 19  1  1
 18 17  1  0
 20 21  1  0
 20 19  1  0
 22 21  1  0
 23 22  1  0
 24 18  1  0
 25 24  1  0
 26 24  2  0
M  END
$$$$
