RKG.pdb
     RDKit          3D

 25 24  0  0  1  0  0  0  0  0999 V2000
    7.2267  -11.9632   18.7627 N   0  0  0  0  0  0  0  0  0  0  0  0
    7.7947  -13.1384   18.1496 C   0  0  0  0  0  0  0  0  0  0  0  0
    8.4979  -13.0447   17.0767 N   0  0  0  0  0  0  0  0  0  0  0  0
    7.5914  -14.4238   18.7147 N   0  0  0  0  0  0  0  0  0  0  0  0
    8.1185  -14.7644   19.9982 C   0  0  0  0  0  0  0  0  0  0  0  0
    7.4696  -14.0861   21.1602 C   0  0  0  0  0  0  0  0  0  0  0  0
    6.8808  -15.0619   22.1480 C   0  0  0  0  0  0  0  0  0  0  0  0
    7.7603  -16.2470   22.4070 C   0  0  2  0  0  0  0  0  0  0  0  0
    7.5456  -17.3621   21.5352 N   0  0  0  0  0  0  0  0  0  0  0  0
    7.7715  -16.6343   23.8449 C   0  0  0  0  0  0  0  0  0  0  0  0
    7.9486  -15.7284   24.6983 O   0  0  0  0  0  0  0  0  0  0  0  0
    8.9339  -13.9109   16.6884 N   0  0  0  0  0  0  0  0  0  0  0  0
    7.5969  -17.9464   24.3001 C   0  0  2  0  0  0  0  0  0  0  0  0
    7.6463  -18.3117   25.7199 C   0  0  0  0  0  0  0  0  0  0  0  0
    7.0133  -19.6821   25.8073 C   0  0  0  0  0  0  0  0  0  0  0  0
    7.1067  -20.2997   27.1799 C   0  0  0  0  0  0  0  0  0  0  0  0
    6.4846  -21.6911   27.0814 C   0  0  0  0  0  0  0  0  0  0  0  0
    6.3890  -22.3343   28.4483 N   0  0  0  0  0  0  0  0  0  0  0  0
    5.6486  -23.5617   28.4462 C   0  0  0  0  0  0  0  0  0  0  0  0
    9.0733  -18.3081   26.1265 O   0  0  0  0  0  0  0  0  0  0  0  0
    9.9747  -18.1651   25.2622 N   0  0  0  0  0  0  0  0  0  0  0  0
    9.4510  -18.4632   27.4763 C   0  0  0  0  0  0  0  0  0  0  0  0
   10.8069  -18.4331   27.9470 C   0  0  0  0  0  0  0  0  0  0  0  0
   10.9187  -18.4935   29.4059 O   0  0  0  0  0  0  0  0  0  0  0  0
    9.8822  -18.5901   30.1048 O   0  0  0  0  0  0  0  0  0  0  0  0
  1  2  1  0
  2  3  2  0
  4  2  1  0
  4  5  1  0
  6  5  1  0
  6  7  1  0
  7  8  1  0
  8  9  1  6
 10  8  1  0
 11 10  2  0
 12 10  1  0
 13 19  1  0
 13 12  1  0
 13 14  1  1
 15 14  1  0
 16 15  1  0
 17 16  1  0
 18 17  1  0
 19 21  1  0
 20 19  2  0
 21 22  1  0
 22 23  1  0
 23 24  2  0
 23 25  1  0
M  END
$$$$
