RKG.pdb
     RDKit          3D

 25 24  0  0  1  0  0  0  0  0999 V2000
   14.6098  -17.3795   16.2246 N   0  0  0  0  0  0  0  0  0  0  0  0
   13.9297  -17.1658   14.9710 C   0  0  0  0  0  0  0  0  0  0  0  0
   14.5486  -17.3177   13.8537 N   0  0  0  0  0  0  0  0  0  0  0  0
   12.5637  -16.7834   14.9406 N   0  0  0  0  0  0  0  0  0  0  0  0
   11.7159  -16.9606   16.0768 C   0  0  0  0  0  0  0  0  0  0  0  0
   12.2482  -16.4256   17.3659 C   0  0  0  0  0  0  0  0  0  0  0  0
   11.2863  -16.6096   18.5129 C   0  0  0  0  0  0  0  0  0  0  0  0
   10.8893  -15.3212   19.1663 C   0  0  2  0  0  0  0  0  0  0  0  0
   11.1071  -14.1485   18.3746 N   0  0  0  0  0  0  0  0  0  0  0  0
   11.4419  -15.1966   20.5437 C   0  0  0  0  0  0  0  0  0  0  0  0
   12.3923  -14.3945   20.7274 O   0  0  0  0  0  0  0  0  0  0  0  0
   14.0242  -17.1512   12.9658 N   0  0  0  0  0  0  0  0  0  0  0  0
   10.9653  -15.9199   21.6431 C   0  0  2  0  0  0  0  0  0  0  0  0
   11.4997  -15.7550   22.9992 C   0  0  0  0  0  0  0  0  0  0  0  0
   10.5174  -16.4572   23.9093 C   0  0  0  0  0  0  0  0  0  0  0  0
   10.9891  -16.5570   25.3382 C   0  0  0  0  0  0  0  0  0  0  0  0
    9.9971  -17.4598   26.0687 C   0  0  0  0  0  0  0  0  0  0  0  0
   10.4452  -17.7074   27.4932 N   0  0  0  0  0  0  0  0  0  0  0  0
    9.5712  -18.5827   28.2178 C   0  0  0  0  0  0  0  0  0  0  0  0
   12.8486  -16.3730   23.0195 O   0  0  0  0  0  0  0  0  0  0  0  0
   13.0324  -17.5027   22.4999 N   0  0  0  0  0  0  0  0  0  0  0  0
   13.9460  -15.7173   23.6148 C   0  0  0  0  0  0  0  0  0  0  0  0
   15.2640  -16.2764   23.7205 C   0  0  0  0  0  0  0  0  0  0  0  0
   16.0764  -16.0852   22.5172 O   0  0  0  0  0  0  0  0  0  0  0  0
   15.9336  -16.8600   21.5419 O   0  0  0  0  0  0  0  0  0  0  0  0
  1  2  1  0
  2  3  2  0
  4  2  1  0
  4  5  1  0
  6  5  1  0
  6  7  1  0
  7  8  1  0
  8  9  1  6
 10  8  1  0
 11 10  2  0
 12 10  1  0
 13 19  1  0
 13 12  1  0
 13 14  1  6
 15 14  1  0
 16 15  1  0
 17 16  1  0
 18 17  1  0
 19 21  1  0
 20 19  2  0
 21 22  1  0
 22 23  1  0
 23 24  2  0
 23 25  1  0
M  END
$$$$
