RKG.pdb
     RDKit          3D

 25 24  0  0  1  0  0  0  0  0999 V2000
   10.1096  -14.0381   18.8425 N   0  0  0  0  0  0  0  0  0  0  0  0
    9.5196  -13.6851   17.5748 C   0  0  0  0  0  0  0  0  0  0  0  0
    9.4247  -12.4539   17.2147 N   0  0  0  0  0  0  0  0  0  0  0  0
    9.0305  -14.6861   16.6964 N   0  0  0  0  0  0  0  0  0  0  0  0
    7.8201  -15.3928   16.9736 C   0  0  0  0  0  0  0  0  0  0  0  0
    7.6563  -15.8588   18.3833 C   0  0  0  0  0  0  0  0  0  0  0  0
    8.2086  -17.2445   18.6052 C   0  0  0  0  0  0  0  0  0  0  0  0
    7.9638  -17.7661   19.9883 C   0  0  2  0  0  0  0  0  0  0  0  0
    6.5861  -17.8510   20.3681 N   0  0  0  0  0  0  0  0  0  0  0  0
    8.7998  -17.0716   21.0064 C   0  0  0  0  0  0  0  0  0  0  0  0
    8.3871  -15.9738   21.4591 O   0  0  0  0  0  0  0  0  0  0  0  0
    8.9682  -12.2348   16.3011 N   0  0  0  0  0  0  0  0  0  0  0  0
   10.0165  -17.5695   21.4871 C   0  0  2  0  0  0  0  0  0  0  0  0
   10.7935  -16.9010   22.5365 C   0  0  0  0  0  0  0  0  0  0  0  0
   11.0547  -17.9604   23.5833 C   0  0  0  0  0  0  0  0  0  0  0  0
   11.9137  -17.4770   24.7246 C   0  0  0  0  0  0  0  0  0  0  0  0
   12.1140  -18.6667   25.6613 C   0  0  0  0  0  0  0  0  0  0  0  0
   13.0282  -18.2976   26.8098 N   0  0  0  0  0  0  0  0  0  0  0  0
   13.2531  -19.3781   27.7245 C   0  0  0  0  0  0  0  0  0  0  0  0
   12.0372  -16.3920   21.9074 O   0  0  0  0  0  0  0  0  0  0  0  0
   12.7259  -17.1446   21.1731 N   0  0  0  0  0  0  0  0  0  0  0  0
   12.4737  -15.0672   22.1143 C   0  0  0  0  0  0  0  0  0  0  0  0
   13.5786  -14.4612   21.4266 C   0  0  0  0  0  0  0  0  0  0  0  0
   14.8826  -14.8232   21.9862 O   0  0  0  0  0  0  0  0  0  0  0  0
   14.9464  -15.6440   22.9317 O   0  0  0  0  0  0  0  0  0  0  0  0
  1  2  1  0
  2  3  2  0
  4  2  1  0
  4  5  1  0
  6  5  1  0
  6  7  1  0
  7  8  1  0
  8  9  1  1
 10  8  1  0
 11 10  2  0
 12 10  1  0
 13 19  1  0
 13 12  1  0
 13 14  1  6
 15 14  1  0
 16 15  1  0
 17 16  1  0
 18 17  1  0
 19 21  1  0
 20 19  2  0
 21 22  1  0
 22 23  1  0
 23 24  2  0
 23 25  1  0
M  END
$$$$
