RKG.pdb
     RDKit          3D

 25 24  0  0  1  0  0  0  0  0999 V2000
    7.9790  -12.5917   15.2432 N   0  0  0  0  0  0  0  0  0  0  0  0
    8.5002  -13.9354   15.2943 C   0  0  0  0  0  0  0  0  0  0  0  0
    8.5708  -14.6535   14.2295 N   0  0  0  0  0  0  0  0  0  0  0  0
    8.9468  -14.4960   16.5187 N   0  0  0  0  0  0  0  0  0  0  0  0
    8.1327  -15.4048   17.2620 C   0  0  0  0  0  0  0  0  0  0  0  0
    7.4119  -14.8148   18.4296 C   0  0  0  0  0  0  0  0  0  0  0  0
    8.3356  -14.4790   19.5736 C   0  0  0  0  0  0  0  0  0  0  0  0
    8.4174  -15.5609   20.6069 C   0  0  2  0  0  0  0  0  0  0  0  0
    7.2549  -16.3902   20.7084 N   0  0  0  0  0  0  0  0  0  0  0  0
    8.8721  -15.0431   21.9271 C   0  0  0  0  0  0  0  0  0  0  0  0
    9.8634  -14.2703   21.9478 O   0  0  0  0  0  0  0  0  0  0  0  0
    8.8270  -15.6617   14.3235 N   0  0  0  0  0  0  0  0  0  0  0  0
    8.2608  -15.3669   23.1439 C   0  0  1  0  0  0  0  0  0  0  0  0
    8.7375  -14.8617   24.4359 C   0  0  0  0  0  0  0  0  0  0  0  0
    7.5001  -14.3975   25.1703 C   0  0  0  0  0  0  0  0  0  0  0  0
    7.4213  -12.8996   25.3260 C   0  0  0  0  0  0  0  0  0  0  0  0
    6.2924  -12.6171   26.3153 C   0  0  0  0  0  0  0  0  0  0  0  0
    6.1484  -11.1294   26.5547 N   0  0  0  0  0  0  0  0  0  0  0  0
    5.0590  -10.7988   27.4258 C   0  0  0  0  0  0  0  0  0  0  0  0
    9.4281  -15.9829   25.1198 O   0  0  0  0  0  0  0  0  0  0  0  0
    8.8150  -16.6758   25.9707 N   0  0  0  0  0  0  0  0  0  0  0  0
   10.7735  -16.2965   24.8368 C   0  0  0  0  0  0  0  0  0  0  0  0
   11.5332  -17.3020   25.5243 C   0  0  0  0  0  0  0  0  0  0  0  0
   12.8359  -17.5690   24.9110 O   0  0  0  0  0  0  0  0  0  0  0  0
   13.1617  -16.9698   23.8590 O   0  0  0  0  0  0  0  0  0  0  0  0
  1  2  1  0
  2  3  2  0
  4  2  1  0
  4  5  1  0
  6  5  1  0
  6  7  1  0
  7  8  1  0
  8  9  1  1
 10  8  1  0
 11 10  2  0
 12 10  1  0
 13 19  1  0
 13 12  1  0
 13 14  1  1
 15 14  1  0
 16 15  1  0
 17 16  1  0
 18 17  1  0
 19 21  1  0
 20 19  2  0
 21 22  1  0
 22 23  1  0
 23 24  2  0
 23 25  1  0
M  END
$$$$
