RKG.pdb
     RDKit          3D

 25 24  0  0  1  0  0  0  0  0999 V2000
    8.6960  -12.5173   17.0984 N   0  0  0  0  0  0  0  0  0  0  0  0
    7.6914  -13.1092   17.9470 C   0  0  0  0  0  0  0  0  0  0  0  0
    7.2455  -12.4782   18.9754 N   0  0  0  0  0  0  0  0  0  0  0  0
    7.1720  -14.3996   17.6680 N   0  0  0  0  0  0  0  0  0  0  0  0
    6.2218  -15.0227   18.5341 C   0  0  0  0  0  0  0  0  0  0  0  0
    6.7857  -15.6275   19.7781 C   0  0  0  0  0  0  0  0  0  0  0  0
    8.1182  -16.2953   19.5471 C   0  0  0  0  0  0  0  0  0  0  0  0
    8.6243  -17.0391   20.7451 C   0  0  2  0  0  0  0  0  0  0  0  0
    7.7625  -18.0786   21.2208 N   0  0  0  0  0  0  0  0  0  0  0  0
    9.0708  -16.1205   21.8290 C   0  0  0  0  0  0  0  0  0  0  0  0
    9.9415  -15.2579   21.5496 O   0  0  0  0  0  0  0  0  0  0  0  0
    6.5558  -12.9586   19.5955 N   0  0  0  0  0  0  0  0  0  0  0  0
    8.5780  -16.1625   23.1385 C   0  0  1  0  0  0  0  0  0  0  0  0
    9.0982  -15.3119   24.2145 C   0  0  0  0  0  0  0  0  0  0  0  0
    7.8993  -14.9559   25.0642 C   0  0  0  0  0  0  0  0  0  0  0  0
    7.7453  -13.4734   25.2935 C   0  0  0  0  0  0  0  0  0  0  0  0
    6.6940  -13.3026   26.3881 C   0  0  0  0  0  0  0  0  0  0  0  0
    6.4668  -11.8369   26.6901 N   0  0  0  0  0  0  0  0  0  0  0  0
    5.4835  -11.6143   27.7091 C   0  0  0  0  0  0  0  0  0  0  0  0
   10.1131  -16.1048   24.9514 O   0  0  0  0  0  0  0  0  0  0  0  0
    9.7910  -16.7267   25.9952 N   0  0  0  0  0  0  0  0  0  0  0  0
   11.4488  -16.1805   24.5057 C   0  0  0  0  0  0  0  0  0  0  0  0
   12.5736  -16.4454   25.3575 C   0  0  0  0  0  0  0  0  0  0  0  0
   13.8259  -16.6432   24.6245 O   0  0  0  0  0  0  0  0  0  0  0  0
   13.8687  -16.4089   23.3937 O   0  0  0  0  0  0  0  0  0  0  0  0
  1  2  1  0
  2  3  2  0
  4  2  1  0
  4  5  1  0
  6  5  1  0
  6  7  1  0
  7  8  1  0
  8  9  1  1
 10  8  1  0
 11 10  2  0
 12 10  1  0
 13 19  1  0
 13 12  1  0
 13 14  1  1
 15 14  1  0
 16 15  1  0
 17 16  1  0
 18 17  1  0
 19 21  1  0
 20 19  2  0
 21 22  1  0
 22 23  1  0
 23 24  2  0
 23 25  1  0
M  END
$$$$
