RKG.pdb
     RDKit          3D

 25 24  0  0  1  0  0  0  0  0999 V2000
    7.7571  -12.7365   16.9926 N   0  0  0  0  0  0  0  0  0  0  0  0
    8.3000  -13.7877   16.1680 C   0  0  0  0  0  0  0  0  0  0  0  0
    8.3781  -13.6473   14.8918 N   0  0  0  0  0  0  0  0  0  0  0  0
    8.7601  -14.9998   16.7442 N   0  0  0  0  0  0  0  0  0  0  0  0
    7.9960  -15.6901   17.7347 C   0  0  0  0  0  0  0  0  0  0  0  0
    7.8478  -14.9816   19.0413 C   0  0  0  0  0  0  0  0  0  0  0  0
    9.0942  -15.0557   19.8872 C   0  0  0  0  0  0  0  0  0  0  0  0
    9.0340  -16.1199   20.9402 C   0  0  2  0  0  0  0  0  0  0  0  0
    7.9553  -17.0505   20.7992 N   0  0  0  0  0  0  0  0  0  0  0  0
    9.1315  -15.5555   22.3149 C   0  0  0  0  0  0  0  0  0  0  0  0
   10.0543  -14.7354   22.5517 O   0  0  0  0  0  0  0  0  0  0  0  0
    8.7712  -14.4327   14.3263 N   0  0  0  0  0  0  0  0  0  0  0  0
    8.2567  -15.8854   23.3567 C   0  0  1  0  0  0  0  0  0  0  0  0
    8.4385  -15.4094   24.7323 C   0  0  0  0  0  0  0  0  0  0  0  0
    7.1565  -14.6891   25.0839 C   0  0  0  0  0  0  0  0  0  0  0  0
    7.3488  -13.2172   25.3498 C   0  0  0  0  0  0  0  0  0  0  0  0
    6.2939  -12.8125   26.3775 C   0  0  0  0  0  0  0  0  0  0  0  0
    6.4098  -11.3415   26.7149 N   0  0  0  0  0  0  0  0  0  0  0  0
    5.4160  -10.8939   27.6459 C   0  0  0  0  0  0  0  0  0  0  0  0
    8.6829  -16.6009   25.5821 O   0  0  0  0  0  0  0  0  0  0  0  0
    8.0856  -17.6803   25.3413 N   0  0  0  0  0  0  0  0  0  0  0  0
    9.5805  -16.5541   26.6688 C   0  0  0  0  0  0  0  0  0  0  0  0
   10.9928  -16.3290   26.5443 C   0  0  0  0  0  0  0  0  0  0  0  0
   11.7379  -17.5188   26.1274 O   0  0  0  0  0  0  0  0  0  0  0  0
   11.1655  -18.4040   25.4488 O   0  0  0  0  0  0  0  0  0  0  0  0
  1  2  1  0
  2  3  2  0
  4  2  1  0
  4  5  1  0
  6  5  1  0
  6  7  1  0
  7  8  1  0
  8  9  1  1
 10  8  1  0
 11 10  2  0
 12 10  1  0
 13 19  1  0
 13 12  1  0
 13 14  1  1
 15 14  1  0
 16 15  1  0
 17 16  1  0
 18 17  1  0
 19 21  1  0
 20 19  2  0
 21 22  1  0
 22 23  1  0
 23 24  2  0
 23 25  1  0
M  END
$$$$
