RKG.pdb
     RDKit          3D

 25 24  0  0  1  0  0  0  0  0999 V2000
    8.5617  -13.8493   15.9093 N   0  0  0  0  0  0  0  0  0  0  0  0
    8.3045  -13.3289   17.2294 C   0  0  0  0  0  0  0  0  0  0  0  0
    8.8183  -12.2116   17.6066 N   0  0  0  0  0  0  0  0  0  0  0  0
    7.4799  -14.0361   18.1420 N   0  0  0  0  0  0  0  0  0  0  0  0
    7.9680  -15.1698   18.8615 C   0  0  0  0  0  0  0  0  0  0  0  0
    9.0466  -14.8850   19.8549 C   0  0  0  0  0  0  0  0  0  0  0  0
    9.8897  -16.0975   20.1609 C   0  0  0  0  0  0  0  0  0  0  0  0
    9.3369  -16.9397   21.2699 C   0  0  2  0  0  0  0  0  0  0  0  0
    8.0609  -17.5311   21.0025 N   0  0  0  0  0  0  0  0  0  0  0  0
    9.3828  -16.2392   22.5833 C   0  0  0  0  0  0  0  0  0  0  0  0
   10.4083  -15.5653   22.8567 O   0  0  0  0  0  0  0  0  0  0  0  0
    8.6315  -11.8794   18.5791 N   0  0  0  0  0  0  0  0  0  0  0  0
    8.3522  -16.2880   23.5291 C   0  0  1  0  0  0  0  0  0  0  0  0
    8.4478  -15.6510   24.8470 C   0  0  0  0  0  0  0  0  0  0  0  0
    7.3291  -14.6345   24.8872 C   0  0  0  0  0  0  0  0  0  0  0  0
    7.4723  -13.6285   26.0014 C   0  0  0  0  0  0  0  0  0  0  0  0
    6.2424  -12.7249   25.9414 C   0  0  0  0  0  0  0  0  0  0  0  0
    6.2955  -11.6731   27.0287 N   0  0  0  0  0  0  0  0  0  0  0  0
    5.2199  -10.7284   26.9559 C   0  0  0  0  0  0  0  0  0  0  0  0
    8.2936  -16.7195   25.8650 O   0  0  0  0  0  0  0  0  0  0  0  0
    7.1558  -17.1903   26.1175 N   0  0  0  0  0  0  0  0  0  0  0  0
    9.4056  -17.2283   26.5673 C   0  0  0  0  0  0  0  0  0  0  0  0
   10.1546  -16.4895   27.5440 C   0  0  0  0  0  0  0  0  0  0  0  0
   11.2572  -17.2528   28.1323 O   0  0  0  0  0  0  0  0  0  0  0  0
   11.7929  -18.1767   27.4756 O   0  0  0  0  0  0  0  0  0  0  0  0
  1  2  1  0
  2  3  2  0
  4  2  1  0
  4  5  1  0
  6  5  1  0
  6  7  1  0
  7  8  1  0
  8  9  1  6
 10  8  1  0
 11 10  2  0
 12 10  1  0
 13 19  1  0
 13 12  1  0
 13 14  1  1
 15 14  1  0
 16 15  1  0
 17 16  1  0
 18 17  1  0
 19 21  1  0
 20 19  2  0
 21 22  1  0
 22 23  1  0
 23 24  2  0
 23 25  1  0
M  END
$$$$
