RKG.pdb
     RDKit          3D

 25 24  0  0  1  0  0  0  0  0999 V2000
   10.6542  -13.8458   19.9240 N   0  0  0  0  0  0  0  0  0  0  0  0
    9.6703  -13.3155   19.0127 C   0  0  0  0  0  0  0  0  0  0  0  0
    9.8353  -13.4096   17.7405 N   0  0  0  0  0  0  0  0  0  0  0  0
    8.4990  -12.6783   19.4972 N   0  0  0  0  0  0  0  0  0  0  0  0
    7.4660  -13.4174   20.1512 C   0  0  0  0  0  0  0  0  0  0  0  0
    7.6993  -13.7058   21.5982 C   0  0  0  0  0  0  0  0  0  0  0  0
    6.5756  -14.4950   22.2220 C   0  0  0  0  0  0  0  0  0  0  0  0
    6.7409  -15.9772   22.0784 C   0  0  2  0  0  0  0  0  0  0  0  0
    5.9531  -16.5767   21.0442 N   0  0  0  0  0  0  0  0  0  0  0  0
    6.6139  -16.6852   23.3824 C   0  0  0  0  0  0  0  0  0  0  0  0
    5.5288  -16.5785   24.0082 O   0  0  0  0  0  0  0  0  0  0  0  0
    9.1260  -12.9713   17.1114 N   0  0  0  0  0  0  0  0  0  0  0  0
    7.6313  -17.4607   23.9506 C   0  0  2  0  0  0  0  0  0  0  0  0
    7.5206  -18.0730   25.2790 C   0  0  0  0  0  0  0  0  0  0  0  0
    7.4945  -19.5652   25.0357 C   0  0  0  0  0  0  0  0  0  0  0  0
    7.4288  -20.3787   26.3038 C   0  0  0  0  0  0  0  0  0  0  0  0
    7.4046  -21.8474   25.8856 C   0  0  0  0  0  0  0  0  0  0  0  0
    7.3597  -22.7505   27.0995 N   0  0  0  0  0  0  0  0  0  0  0  0
    7.3414  -24.1449   26.7677 C   0  0  0  0  0  0  0  0  0  0  0  0
    8.7011  -17.6369   26.0649 O   0  0  0  0  0  0  0  0  0  0  0  0
    9.8267  -17.5442   25.5131 N   0  0  0  0  0  0  0  0  0  0  0  0
    8.5927  -17.3189   27.4345 C   0  0  0  0  0  0  0  0  0  0  0  0
    9.7013  -16.9620   28.2739 C   0  0  0  0  0  0  0  0  0  0  0  0
   10.2625  -18.0959   29.0114 O   0  0  0  0  0  0  0  0  0  0  0  0
    9.8299  -19.2526   28.7954 O   0  0  0  0  0  0  0  0  0  0  0  0
  1  2  1  0
  2  3  2  0
  4  2  1  0
  4  5  1  0
  6  5  1  0
  6  7  1  0
  7  8  1  0
  8  9  1  6
 10  8  1  0
 11 10  2  0
 12 10  1  0
 13 19  1  0
 13 12  1  0
 13 14  1  6
 15 14  1  0
 16 15  1  0
 17 16  1  0
 18 17  1  0
 19 21  1  0
 20 19  2  0
 21 22  1  0
 22 23  1  0
 23 24  2  0
 23 25  1  0
M  END
$$$$
