RKG.pdb
     RDKit          3D

 25 24  0  0  1  0  0  0  0  0999 V2000
    9.3290  -16.2650   29.1181 N   0  0  0  0  0  0  0  0  0  0  0  0
    9.9919  -15.0295   28.7807 C   0  0  0  0  0  0  0  0  0  0  0  0
   10.9784  -14.5997   29.4853 N   0  0  0  0  0  0  0  0  0  0  0  0
    9.5720  -14.2601   27.6651 N   0  0  0  0  0  0  0  0  0  0  0  0
    8.2981  -14.4700   27.0532 C   0  0  0  0  0  0  0  0  0  0  0  0
    8.2860  -15.4258   25.9054 C   0  0  0  0  0  0  0  0  0  0  0  0
    6.9053  -15.6299   25.3337 C   0  0  0  0  0  0  0  0  0  0  0  0
    6.8487  -16.7018   24.2884 C   0  0  2  0  0  0  0  0  0  0  0  0
    7.1326  -18.0232   24.7604 N   0  0  0  0  0  0  0  0  0  0  0  0
    7.6326  -16.3435   23.0739 C   0  0  0  0  0  0  0  0  0  0  0  0
    8.5484  -17.1248   22.7115 O   0  0  0  0  0  0  0  0  0  0  0  0
   11.4341  -13.7009   29.2103 N   0  0  0  0  0  0  0  0  0  0  0  0
    7.4093  -15.1892   22.3145 C   0  0  2  0  0  0  0  0  0  0  0  0
    8.1518  -14.8860   21.0862 C   0  0  0  0  0  0  0  0  0  0  0  0
    7.5244  -13.6254   20.5351 C   0  0  0  0  0  0  0  0  0  0  0  0
    8.1541  -13.1552   19.2480 C   0  0  0  0  0  0  0  0  0  0  0  0
    7.7370  -14.1472   18.1641 C   0  0  0  0  0  0  0  0  0  0  0  0
    8.2875  -13.7324   16.8164 N   0  0  0  0  0  0  0  0  0  0  0  0
    7.8282  -14.5582   15.7385 C   0  0  0  0  0  0  0  0  0  0  0  0
    9.5749  -14.7045   21.4650 O   0  0  0  0  0  0  0  0  0  0  0  0
    9.8730  -14.0882   22.5192 N   0  0  0  0  0  0  0  0  0  0  0  0
   10.6172  -15.2123   20.6623 C   0  0  0  0  0  0  0  0  0  0  0  0
   12.0143  -15.0308   20.9380 C   0  0  0  0  0  0  0  0  0  0  0  0
   12.8889  -15.5642   19.8915 O   0  0  0  0  0  0  0  0  0  0  0  0
   12.3996  -16.2507   18.9635 O   0  0  0  0  0  0  0  0  0  0  0  0
  1  2  1  0
  2  3  2  0
  4  2  1  0
  4  5  1  0
  6  5  1  0
  6  7  1  0
  7  8  1  0
  8  9  1  1
 10  8  1  0
 11 10  2  0
 12 10  1  0
 13 19  1  0
 13 12  1  0
 13 14  1  1
 15 14  1  0
 16 15  1  0
 17 16  1  0
 18 17  1  0
 19 21  1  0
 20 19  2  0
 21 22  1  0
 22 23  1  0
 23 24  2  0
 23 25  1  0
M  END
$$$$
