CDA.pdb
     RDKit          3D

 20 19  0  0  1  0  0  0  0  0999 V2000
   21.7613  -32.4178   -1.9411 N   0  0  0  0  0  0  0  0  0  0  0  0
   23.1170  -31.9076   -2.0473 C   0  0  1  0  0  0  0  0  0  0  0  0
   23.4815  -31.2453   -0.7483 C   0  0  0  0  0  0  0  0  0  0  0  0
   23.5004  -32.4926    0.5661 S   0  0  0  0  0  0  0  0  0  0  0  0
   24.0850  -32.9775   -2.3548 C   0  0  0  0  0  0  0  0  0  0  0  0
   23.7615  -34.1837   -2.2706 O   0  0  0  0  0  0  0  0  0  0  0  0
   25.3960  -32.6114   -2.7498 N   0  0  0  0  0  0  0  0  0  0  0  0
   26.3892  -33.5973   -3.1191 C   0  0  1  0  0  0  0  0  0  0  0  0
   27.4475  -33.0805   -4.0368 C   0  0  0  0  0  0  0  0  0  0  0  0
   28.3509  -34.1237   -4.5353 C   0  0  0  0  0  0  0  0  0  0  0  0
   27.9427  -34.9299   -5.4300 O   0  0  0  0  0  0  0  0  0  0  0  0
   27.0778  -34.0414   -1.8545 C   0  0  0  0  0  0  0  0  0  0  0  0
   27.4533  -33.2196   -0.9790 O   0  0  0  0  0  0  0  0  0  0  0  0
   29.6417  -34.3018   -4.0967 O   0  0  0  0  0  0  0  0  0  0  0  0
   27.7193  -37.4023   -0.3164 C   0  0  0  0  0  0  0  0  0  0  0  0
   27.9606  -35.9085   -0.3960 C   0  0  2  0  0  0  0  0  0  0  0  0
   27.3297  -35.4191   -1.6040 N   0  0  0  0  0  0  0  0  0  0  0  0
   29.4276  -35.6925   -0.4144 C   0  0  0  0  0  0  0  0  0  0  0  0
   29.9745  -35.5526   -1.5353 O   0  0  0  0  0  0  0  0  0  0  0  0
   30.2022  -35.6402    0.7334 O   0  0  0  0  0  0  0  0  0  0  0  0
  2  5  1  0
  2  1  1  1
  3  2  1  0
  4  3  1  0
  5  6  2  0
  7  8  1  0
  7  5  1  0
  8  9  1  6
  9 10  1  0
 10 14  1  0
 11 10  2  0
 12 13  2  0
 12  8  1  0
 16 15  1  6
 16 18  1  0
 16 17  1  0
 17 12  1  0
 18 20  1  0
 19 18  2  0
M  END
$$$$
