CDA.pdb
     RDKit          3D

 20 19  0  0  1  0  0  0  0  0999 V2000
   17.0013  -14.4853  -17.5506 N   0  0  0  0  0  0  0  0  0  0  0  0
   17.1993  -13.5941  -16.4211 C   0  0  1  0  0  0  0  0  0  0  0  0
   18.1293  -14.2586  -15.4452 C   0  0  0  0  0  0  0  0  0  0  0  0
   17.1881  -15.4371  -14.4406 S   0  0  0  0  0  0  0  0  0  0  0  0
   17.7547  -12.2925  -16.8380 C   0  0  0  0  0  0  0  0  0  0  0  0
   18.6794  -12.2254  -17.6789 O   0  0  0  0  0  0  0  0  0  0  0  0
   17.2182  -11.1126  -16.2647 N   0  0  0  0  0  0  0  0  0  0  0  0
   17.6856   -9.7957  -16.6418 C   0  0  1  0  0  0  0  0  0  0  0  0
   16.6286   -8.7417  -16.6063 C   0  0  0  0  0  0  0  0  0  0  0  0
   17.1031   -7.4218  -17.0368 C   0  0  0  0  0  0  0  0  0  0  0  0
   16.4963   -6.3779  -16.6377 O   0  0  0  0  0  0  0  0  0  0  0  0
   18.7473   -9.3918  -15.6516 C   0  0  0  0  0  0  0  0  0  0  0  0
   18.5382   -9.4056  -14.4110 O   0  0  0  0  0  0  0  0  0  0  0  0
   18.1841   -7.2210  -17.8621 O   0  0  0  0  0  0  0  0  0  0  0  0
   22.3526   -8.3694  -16.0087 C   0  0  0  0  0  0  0  0  0  0  0  0
   21.0987   -8.5875  -15.1863 C   0  0  2  0  0  0  0  0  0  0  0  0
   20.0357   -8.9766  -16.0894 N   0  0  0  0  0  0  0  0  0  0  0  0
   20.7924   -7.3139  -14.4913 C   0  0  0  0  0  0  0  0  0  0  0  0
   19.8712   -6.6062  -14.9665 O   0  0  0  0  0  0  0  0  0  0  0  0
   21.4690   -6.8833  -13.3612 O   0  0  0  0  0  0  0  0  0  0  0  0
  2  5  1  0
  2  1  1  6
  3  2  1  0
  4  3  1  0
  5  6  2  0
  7  8  1  0
  7  5  1  0
  8  9  1  1
  9 10  1  0
 10 14  1  0
 11 10  2  0
 12 13  2  0
 12  8  1  0
 16 15  1  6
 16 18  1  0
 16 17  1  0
 17 12  1  0
 18 20  1  0
 19 18  2  0
M  END
$$$$
