CDA.pdb
     RDKit          3D

 20 19  0  0  1  0  0  0  0  0999 V2000
   29.5094  -11.2105  -17.6460 N   0  0  0  0  0  0  0  0  0  0  0  0
   28.0951  -10.9962  -17.3942 C   0  0  1  0  0  0  0  0  0  0  0  0
   27.7893  -11.4282  -15.9875 C   0  0  0  0  0  0  0  0  0  0  0  0
   27.8809  -13.2354  -15.8911 S   0  0  0  0  0  0  0  0  0  0  0  0
   27.7108   -9.5842  -17.5810 C   0  0  0  0  0  0  0  0  0  0  0  0
   28.4928   -8.6567  -17.2731 O   0  0  0  0  0  0  0  0  0  0  0  0
   26.4315   -9.2963  -18.1190 N   0  0  0  0  0  0  0  0  0  0  0  0
   25.9804   -7.9389  -18.3402 C   0  0  1  0  0  0  0  0  0  0  0  0
   25.8917   -7.5543  -19.7801 C   0  0  0  0  0  0  0  0  0  0  0  0
   25.4610   -6.1676  -19.9904 C   0  0  0  0  0  0  0  0  0  0  0  0
   24.3616   -5.9373  -20.5866 O   0  0  0  0  0  0  0  0  0  0  0  0
   24.5924   -7.8242  -17.7647 C   0  0  0  0  0  0  0  0  0  0  0  0
   23.6632   -8.5980  -18.1124 O   0  0  0  0  0  0  0  0  0  0  0  0
   26.1750   -5.0664  -19.5807 O   0  0  0  0  0  0  0  0  0  0  0  0
   23.1340   -6.1371  -14.8111 C   0  0  0  0  0  0  0  0  0  0  0  0
   22.9630   -6.6556  -16.2246 C   0  0  2  0  0  0  0  0  0  0  0  0
   24.2813   -6.8270  -16.7988 N   0  0  0  0  0  0  0  0  0  0  0  0
   22.1616   -5.6576  -16.9734 C   0  0  0  0  0  0  0  0  0  0  0  0
   22.7402   -5.0265  -17.8910 O   0  0  0  0  0  0  0  0  0  0  0  0
   20.8267   -5.3996  -16.7055 O   0  0  0  0  0  0  0  0  0  0  0  0
  2  5  1  0
  2  1  1  1
  3  2  1  0
  4  3  1  0
  5  6  2  0
  7  8  1  0
  7  5  1  0
  8  9  1  6
  9 10  1  0
 10 14  1  0
 11 10  2  0
 12 13  2  0
 12  8  1  0
 16 15  1  1
 16 18  1  0
 16 17  1  0
 17 12  1  0
 18 20  1  0
 19 18  2  0
M  END
$$$$
