CDA.pdb
     RDKit          3D

 20 19  0  0  1  0  0  0  0  0999 V2000
   26.5501  -14.9972  -17.4808 N   0  0  0  0  0  0  0  0  0  0  0  0
   26.4544  -13.5724  -17.2154 C   0  0  1  0  0  0  0  0  0  0  0  0
   26.5721  -13.3534  -15.7332 C   0  0  0  0  0  0  0  0  0  0  0  0
   25.0603  -13.9434  -14.9267 S   0  0  0  0  0  0  0  0  0  0  0  0
   27.5019  -12.8098  -17.9208 C   0  0  0  0  0  0  0  0  0  0  0  0
   28.6811  -13.2269  -17.9695 O   0  0  0  0  0  0  0  0  0  0  0  0
   27.1455  -11.5888  -18.5459 N   0  0  0  0  0  0  0  0  0  0  0  0
   28.0867  -10.8325  -19.3441 C   0  0  1  0  0  0  0  0  0  0  0  0
   27.4593  -10.0683  -20.4629 C   0  0  0  0  0  0  0  0  0  0  0  0
   28.4315   -9.3788  -21.3185 C   0  0  0  0  0  0  0  0  0  0  0  0
   28.1140   -8.2737  -21.8618 O   0  0  0  0  0  0  0  0  0  0  0  0
   28.7450   -9.8268  -18.4352 C   0  0  0  0  0  0  0  0  0  0  0  0
   28.0788   -9.1104  -17.6441 O   0  0  0  0  0  0  0  0  0  0  0  0
   29.6955   -9.8490  -21.5858 O   0  0  0  0  0  0  0  0  0  0  0  0
   32.3154   -9.1692  -17.5173 C   0  0  0  0  0  0  0  0  0  0  0  0
   30.8543   -8.7675  -17.5289 C   0  0  2  0  0  0  0  0  0  0  0  0
   30.1568   -9.6508  -18.4402 N   0  0  0  0  0  0  0  0  0  0  0  0
   30.7825   -7.3534  -17.9694 C   0  0  0  0  0  0  0  0  0  0  0  0
   30.5163   -7.1397  -19.1771 O   0  0  0  0  0  0  0  0  0  0  0  0
   30.9934   -6.2808  -17.1177 O   0  0  0  0  0  0  0  0  0  0  0  0
  2  5  1  0
  2  1  1  1
  3  2  1  0
  4  3  1  0
  5  6  2  0
  7  8  1  0
  7  5  1  0
  8  9  1  6
  9 10  1  0
 10 14  1  0
 11 10  2  0
 12 13  2  0
 12  8  1  0
 16 15  1  6
 16 18  1  0
 16 17  1  0
 17 12  1  0
 18 20  1  0
 19 18  2  0
M  END
$$$$
