CDA.pdb
     RDKit          3D

 20 19  0  0  1  0  0  0  0  0999 V2000
   27.3105  -21.3135  -16.1891 N   0  0  0  0  0  0  0  0  0  0  0  0
   27.6931  -22.6486  -16.6140 C   0  0  1  0  0  0  0  0  0  0  0  0
   26.9029  -23.0041  -17.8420 C   0  0  0  0  0  0  0  0  0  0  0  0
   25.2170  -23.4519  -17.3509 S   0  0  0  0  0  0  0  0  0  0  0  0
   29.1371  -22.7420  -16.9011 C   0  0  0  0  0  0  0  0  0  0  0  0
   29.8247  -21.7136  -17.0914 O   0  0  0  0  0  0  0  0  0  0  0  0
   29.7344  -24.0260  -16.9577 N   0  0  0  0  0  0  0  0  0  0  0  0
   31.1506  -24.2031  -17.1986 C   0  0  1  0  0  0  0  0  0  0  0  0
   31.7262  -25.4285  -16.5691 C   0  0  0  0  0  0  0  0  0  0  0  0
   33.1851  -25.5213  -16.6949 C   0  0  0  0  0  0  0  0  0  0  0  0
   33.8131  -24.6395  -17.3621 O   0  0  0  0  0  0  0  0  0  0  0  0
   31.3429  -24.3377  -18.6872 C   0  0  0  0  0  0  0  0  0  0  0  0
   30.7243  -25.2012  -19.3613 O   0  0  0  0  0  0  0  0  0  0  0  0
   33.9472  -26.5170  -16.1310 O   0  0  0  0  0  0  0  0  0  0  0  0
   32.9364  -25.0289  -21.0835 C   0  0  0  0  0  0  0  0  0  0  0  0
   32.5082  -23.6020  -20.8069 C   0  0  2  0  0  0  0  0  0  0  0  0
   32.2395  -23.4845  -19.3888 N   0  0  0  0  0  0  0  0  0  0  0  0
   31.2985  -23.3321  -21.6210 C   0  0  0  0  0  0  0  0  0  0  0  0
   31.2411  -23.8590  -22.7586 O   0  0  0  0  0  0  0  0  0  0  0  0
   30.2506  -22.5376  -21.1842 O   0  0  0  0  0  0  0  0  0  0  0  0
  2  5  1  0
  2  1  1  6
  3  2  1  0
  4  3  1  0
  5  6  2  0
  7  8  1  0
  7  5  1  0
  8  9  1  1
  9 10  1  0
 10 14  1  0
 11 10  2  0
 12 13  2  0
 12  8  1  0
 16 15  1  1
 16 18  1  0
 16 17  1  0
 17 12  1  0
 18 20  1  0
 19 18  2  0
M  END
$$$$
