CDA.pdb
     RDKit          3D

 20 19  0  0  1  0  0  0  0  0999 V2000
   17.2355  -12.9401  -16.6481 N   0  0  0  0  0  0  0  0  0  0  0  0
   17.0003  -11.5739  -17.0811 C   0  0  1  0  0  0  0  0  0  0  0  0
   15.5210  -11.3773  -17.2602 C   0  0  0  0  0  0  0  0  0  0  0  0
   14.9488  -12.4141  -18.6318 S   0  0  0  0  0  0  0  0  0  0  0  0
   17.5241  -10.5919  -16.1127 C   0  0  0  0  0  0  0  0  0  0  0  0
   17.4085  -10.7767  -14.8802 O   0  0  0  0  0  0  0  0  0  0  0  0
   18.1645   -9.4284  -16.6076 N   0  0  0  0  0  0  0  0  0  0  0  0
   18.7428   -8.4373  -15.7255 C   0  0  1  0  0  0  0  0  0  0  0  0
   20.2316   -8.3516  -15.7997 C   0  0  0  0  0  0  0  0  0  0  0  0
   20.8032   -7.3219  -14.9248 C   0  0  0  0  0  0  0  0  0  0  0  0
   21.6129   -6.4688  -15.4083 O   0  0  0  0  0  0  0  0  0  0  0  0
   18.2007   -7.0931  -16.1380 C   0  0  0  0  0  0  0  0  0  0  0  0
   18.2821   -6.6795  -17.3233 O   0  0  0  0  0  0  0  0  0  0  0  0
   20.5229   -7.2049  -13.5839 O   0  0  0  0  0  0  0  0  0  0  0  0
   15.9873   -4.5684  -14.5216 C   0  0  0  0  0  0  0  0  0  0  0  0
   17.0754   -4.9157  -15.5172 C   0  0  2  0  0  0  0  0  0  0  0  0
   17.5717   -6.2367  -15.1919 N   0  0  0  0  0  0  0  0  0  0  0  0
   18.1349   -3.8849  -15.4000 C   0  0  0  0  0  0  0  0  0  0  0  0
   19.2445   -4.2499  -14.9409 O   0  0  0  0  0  0  0  0  0  0  0  0
   17.9520   -2.5620  -15.7697 O   0  0  0  0  0  0  0  0  0  0  0  0
  2  5  1  0
  2  1  1  1
  3  2  1  0
  4  3  1  0
  5  6  2  0
  7  8  1  0
  7  5  1  0
  8  9  1  6
  9 10  1  0
 10 14  1  0
 11 10  2  0
 12 13  2  0
 12  8  1  0
 16 15  1  1
 16 18  1  0
 16 17  1  0
 17 12  1  0
 18 20  1  0
 19 18  2  0
M  END
$$$$
