FSC.pdb
     RDKit          3D

 24 24  0  0  1  0  0  0  0  0999 V2000
   10.6372  -16.1354   19.9605 N   0  0  0  0  0  0  0  0  0  0  0  0
   10.3322  -15.5729   21.2375 C   0  0  1  0  0  0  0  0  0  0  0  0
    8.8546  -15.7225   21.5203 C   0  0  0  0  0  0  0  0  0  0  0  0
    8.0941  -14.6084   20.8945 C   0  0  0  0  0  0  0  0  0  0  0  0
    8.4527  -13.2934   21.0798 C   0  0  0  0  0  0  0  0  0  0  0  0
    7.7707  -12.2440   20.5158 C   0  0  0  0  0  0  0  0  0  0  0  0
    6.6652  -12.5641   19.7220 C   0  0  0  0  0  0  0  0  0  0  0  0
    6.2873  -13.8689   19.5220 C   0  0  0  0  0  0  0  0  0  0  0  0
    7.0052  -14.8779   20.1100 C   0  0  0  0  0  0  0  0  0  0  0  0
   11.0793  -16.2519   22.3461 C   0  0  0  0  0  0  0  0  0  0  0  0
   11.8754  -17.1856   22.0826 O   0  0  0  0  0  0  0  0  0  0  0  0
   10.0470  -15.7931   26.3092 O   0  0  0  0  0  0  0  0  0  0  0  0
   11.4204  -15.6845   26.0976 C   0  0  0  0  0  0  0  0  0  0  0  0
   11.7221  -16.4006   24.7821 C   0  0  2  0  0  0  0  0  0  0  0  0
   10.9161  -15.8703   23.7060 N   0  0  0  0  0  0  0  0  0  0  0  0
   11.5017  -17.8618   24.9698 C   0  0  0  0  0  0  0  0  0  0  0  0
   10.4284  -18.4420   24.6622 O   0  0  0  0  0  0  0  0  0  0  0  0
   12.5769  -18.6102   25.5265 N   0  0  0  0  0  0  0  0  0  0  0  0
   12.4765  -20.0179   25.7605 C   0  0  1  0  0  0  0  0  0  0  0  0
   13.7203  -20.7736   25.3482 C   0  0  0  0  0  0  0  0  0  0  0  0
   13.5350  -22.5155   25.8562 S   0  0  0  0  0  0  0  0  0  0  0  0
   12.0851  -20.3355   27.1600 C   0  0  0  0  0  0  0  0  0  0  0  0
   11.4450  -21.4988   27.5175 O   0  0  0  0  0  0  0  0  0  0  0  0
   12.3461  -19.5049   28.0827 O   0  0  0  0  0  0  0  0  0  0  0  0
  2  1  1  6
  2 10  1  0
  3  2  1  0
  4  3  1  0
  5  4  2  0
  6  5  1  0
  7  6  2  0
  7  8  1  0
  8  9  2  0
  9  4  1  0
 10 15  1  0
 10 11  2  0
 12 13  1  0
 14 13  1  1
 14 16  1  0
 15 14  1  0
 16 17  2  0
 18 19  1  0
 18 16  1  0
 19 20  1  1
 21 20  1  0
 22 19  1  0
 22 23  1  0
 24 22  2  0
M  END
$$$$
