FSC.pdb
     RDKit          3D

 24 24  0  0  1  0  0  0  0  0999 V2000
    5.4093  -17.4489   23.4605 N   0  0  0  0  0  0  0  0  0  0  0  0
    6.3711  -16.4883   23.8990 C   0  0  1  0  0  0  0  0  0  0  0  0
    5.9071  -15.8564   25.1917 C   0  0  0  0  0  0  0  0  0  0  0  0
    6.5258  -14.5149   25.3616 C   0  0  0  0  0  0  0  0  0  0  0  0
    6.4468  -13.8265   26.5500 C   0  0  0  0  0  0  0  0  0  0  0  0
    7.0073  -12.5875   26.7369 C   0  0  0  0  0  0  0  0  0  0  0  0
    7.6822  -12.0295   25.6470 C   0  0  0  0  0  0  0  0  0  0  0  0
    7.7747  -12.6968   24.4506 C   0  0  0  0  0  0  0  0  0  0  0  0
    7.1958  -13.9325   24.3197 C   0  0  0  0  0  0  0  0  0  0  0  0
    7.7131  -17.1078   24.1507 C   0  0  0  0  0  0  0  0  0  0  0  0
    7.8178  -18.0667   24.9535 O   0  0  0  0  0  0  0  0  0  0  0  0
   11.2041  -15.3803   22.7028 O   0  0  0  0  0  0  0  0  0  0  0  0
   11.1645  -16.7697   22.5990 C   0  0  0  0  0  0  0  0  0  0  0  0
   10.1842  -17.2638   23.6616 C   0  0  2  0  0  0  0  0  0  0  0  0
    8.8895  -16.6412   23.5027 N   0  0  0  0  0  0  0  0  0  0  0  0
   10.7633  -16.9998   25.0084 C   0  0  0  0  0  0  0  0  0  0  0  0
   10.9042  -15.8431   25.4832 O   0  0  0  0  0  0  0  0  0  0  0  0
   11.1670  -18.1321   25.7704 N   0  0  0  0  0  0  0  0  0  0  0  0
   11.7261  -18.0012   27.0806 C   0  0  1  0  0  0  0  0  0  0  0  0
   10.7071  -17.5814   28.1165 C   0  0  0  0  0  0  0  0  0  0  0  0
    9.4213  -18.8709   28.2203 S   0  0  0  0  0  0  0  0  0  0  0  0
   12.4669  -19.2185   27.5073 C   0  0  0  0  0  0  0  0  0  0  0  0
   13.1825  -19.2927   28.6792 O   0  0  0  0  0  0  0  0  0  0  0  0
   12.4496  -20.2487   26.7672 O   0  0  0  0  0  0  0  0  0  0  0  0
  2  1  1  1
  2 10  1  0
  3  2  1  0
  4  3  1  0
  5  4  2  0
  6  5  1  0
  7  6  2  0
  7  8  1  0
  8  9  2  0
  9  4  1  0
 10 15  1  0
 10 11  2  0
 12 13  1  0
 14 13  1  6
 14 16  1  0
 15 14  1  0
 16 17  2  0
 18 19  1  0
 18 16  1  0
 19 20  1  1
 21 20  1  0
 22 19  1  0
 22 23  1  0
 24 22  2  0
M  END
$$$$
