FSC.pdb
     RDKit          3D

 24 24  0  0  1  0  0  0  0  0999 V2000
    6.5398  -18.0813   19.0676 N   0  0  0  0  0  0  0  0  0  0  0  0
    7.2035  -16.9723   19.6757 C   0  0  1  0  0  0  0  0  0  0  0  0
    6.1808  -15.9709   20.1624 C   0  0  0  0  0  0  0  0  0  0  0  0
    6.8583  -14.7638   20.7054 C   0  0  0  0  0  0  0  0  0  0  0  0
    6.9295  -14.5202   22.0574 C   0  0  0  0  0  0  0  0  0  0  0  0
    7.5476  -13.4154   22.5883 C   0  0  0  0  0  0  0  0  0  0  0  0
    8.1205  -12.5172   21.6829 C   0  0  0  0  0  0  0  0  0  0  0  0
    8.0625  -12.7381   20.3291 C   0  0  0  0  0  0  0  0  0  0  0  0
    7.4322  -13.8588   19.8537 C   0  0  0  0  0  0  0  0  0  0  0  0
    8.0315  -17.3876   20.8548 C   0  0  0  0  0  0  0  0  0  0  0  0
    7.4847  -17.9478   21.8357 O   0  0  0  0  0  0  0  0  0  0  0  0
   11.9403  -16.1867   21.1887 O   0  0  0  0  0  0  0  0  0  0  0  0
   11.7571  -17.5015   21.6133 C   0  0  0  0  0  0  0  0  0  0  0  0
   10.2792  -17.6473   21.9727 C   0  0  2  0  0  0  0  0  0  0  0  0
    9.4352  -17.1664   20.9025 N   0  0  0  0  0  0  0  0  0  0  0  0
   10.0220  -16.9222   23.2482 C   0  0  0  0  0  0  0  0  0  0  0  0
   10.3805  -15.7330   23.4493 O   0  0  0  0  0  0  0  0  0  0  0  0
    9.3350  -17.6371   24.2694 N   0  0  0  0  0  0  0  0  0  0  0  0
    9.2612  -17.1517   25.6131 C   0  0  1  0  0  0  0  0  0  0  0  0
    7.8608  -17.2044   26.1822 C   0  0  0  0  0  0  0  0  0  0  0  0
    6.6964  -16.6048   24.9128 S   0  0  0  0  0  0  0  0  0  0  0  0
   10.2403  -17.8178   26.5132 C   0  0  0  0  0  0  0  0  0  0  0  0
   10.4338  -17.4456   27.8228 O   0  0  0  0  0  0  0  0  0  0  0  0
   10.9403  -18.7781   26.0692 O   0  0  0  0  0  0  0  0  0  0  0  0
  2  1  1  1
  2 10  1  0
  3  2  1  0
  4  3  1  0
  5  4  2  0
  6  5  1  0
  7  6  2  0
  7  8  1  0
  8  9  2  0
  9  4  1  0
 10 15  1  0
 10 11  2  0
 12 13  1  0
 14 13  1  6
 14 16  1  0
 15 14  1  0
 16 17  2  0
 18 19  1  0
 18 16  1  0
 19 20  1  1
 21 20  1  0
 22 19  1  0
 22 23  1  0
 24 22  2  0
M  END
$$$$
