FSC.pdb
     RDKit          3D

 24 24  0  0  1  0  0  0  0  0999 V2000
    5.7202  -17.8954   25.4725 N   0  0  0  0  0  0  0  0  0  0  0  0
    6.3003  -16.6256   25.1703 C   0  0  1  0  0  0  0  0  0  0  0  0
    7.0105  -16.0865   26.3912 C   0  0  0  0  0  0  0  0  0  0  0  0
    6.9824  -14.5998   26.3901 C   0  0  0  0  0  0  0  0  0  0  0  0
    8.1195  -13.8544   26.1810 C   0  0  0  0  0  0  0  0  0  0  0  0
    8.1251  -12.4817   26.1744 C   0  0  0  0  0  0  0  0  0  0  0  0
    6.8999  -11.8450   26.3939 C   0  0  0  0  0  0  0  0  0  0  0  0
    5.7512  -12.5667   26.6050 C   0  0  0  0  0  0  0  0  0  0  0  0
    5.8037  -13.9366   26.6010 C   0  0  0  0  0  0  0  0  0  0  0  0
    7.3049  -16.7139   24.0607 C   0  0  0  0  0  0  0  0  0  0  0  0
    8.1386  -17.6517   24.0461 O   0  0  0  0  0  0  0  0  0  0  0  0
    6.4976  -14.8495   20.8360 O   0  0  0  0  0  0  0  0  0  0  0  0
    7.8862  -14.9429   20.7604 C   0  0  0  0  0  0  0  0  0  0  0  0
    8.3379  -15.7807   21.9556 C   0  0  2  0  0  0  0  0  0  0  0  0
    7.3477  -15.7589   23.0083 N   0  0  0  0  0  0  0  0  0  0  0  0
    9.6568  -15.2729   22.4264 C   0  0  0  0  0  0  0  0  0  0  0  0
    9.8169  -14.1280   22.9233 O   0  0  0  0  0  0  0  0  0  0  0  0
   10.7702  -16.1496   22.2940 N   0  0  0  0  0  0  0  0  0  0  0  0
   12.0522  -15.8314   22.8431 C   0  0  1  0  0  0  0  0  0  0  0  0
   12.0548  -15.8040   24.3555 C   0  0  0  0  0  0  0  0  0  0  0  0
   11.2328  -17.3142   24.9639 S   0  0  0  0  0  0  0  0  0  0  0  0
   13.1316  -16.7067   22.3125 C   0  0  0  0  0  0  0  0  0  0  0  0
   14.4694  -16.4542   22.5059 O   0  0  0  0  0  0  0  0  0  0  0  0
   12.8226  -17.7413   21.6466 O   0  0  0  0  0  0  0  0  0  0  0  0
  2  1  1  1
  2 10  1  0
  3  2  1  0
  4  3  1  0
  5  4  2  0
  6  5  1  0
  7  6  2  0
  7  8  1  0
  8  9  2  0
  9  4  1  0
 10 15  1  0
 10 11  2  0
 12 13  1  0
 14 13  1  6
 14 16  1  0
 15 14  1  0
 16 17  2  0
 18 19  1  0
 18 16  1  0
 19 20  1  1
 21 20  1  0
 22 19  1  0
 22 23  1  0
 24 22  2  0
M  END
$$$$
