FSC.pdb
     RDKit          3D

 24 24  0  0  1  0  0  0  0  0999 V2000
    6.2275  -16.7732   25.7599 N   0  0  0  0  0  0  0  0  0  0  0  0
    6.1687  -16.4688   24.3656 C   0  0  1  0  0  0  0  0  0  0  0  0
    5.7560  -15.0269   24.1759 C   0  0  0  0  0  0  0  0  0  0  0  0
    6.5496  -14.1413   25.0686 C   0  0  0  0  0  0  0  0  0  0  0  0
    7.8307  -13.7535   24.7508 C   0  0  0  0  0  0  0  0  0  0  0  0
    8.5877  -12.9374   25.5541 C   0  0  0  0  0  0  0  0  0  0  0  0
    7.9970  -12.4990   26.7430 C   0  0  0  0  0  0  0  0  0  0  0  0
    6.7201  -12.8722   27.0824 C   0  0  0  0  0  0  0  0  0  0  0  0
    6.0091  -13.6893   26.2422 C   0  0  0  0  0  0  0  0  0  0  0  0
    7.4946  -16.6559   23.6908 C   0  0  0  0  0  0  0  0  0  0  0  0
    8.4867  -17.0372   24.3581 O   0  0  0  0  0  0  0  0  0  0  0  0
    8.2212  -14.9235   20.1764 O   0  0  0  0  0  0  0  0  0  0  0  0
    8.8320  -16.1762   20.1551 C   0  0  0  0  0  0  0  0  0  0  0  0
    8.9153  -16.6511   21.6049 C   0  0  2  0  0  0  0  0  0  0  0  0
    7.6712  -16.4131   22.3011 N   0  0  0  0  0  0  0  0  0  0  0  0
   10.0601  -15.9672   22.2687 C   0  0  0  0  0  0  0  0  0  0  0  0
   10.1906  -14.7161   22.3012 O   0  0  0  0  0  0  0  0  0  0  0  0
   11.0369  -16.7974   22.8872 N   0  0  0  0  0  0  0  0  0  0  0  0
   12.1402  -16.2520   23.6162 C   0  0  1  0  0  0  0  0  0  0  0  0
   11.7238  -15.6059   24.9189 C   0  0  0  0  0  0  0  0  0  0  0  0
   10.9759  -16.8822   25.9858 S   0  0  0  0  0  0  0  0  0  0  0  0
   13.2304  -17.2425   23.8237 C   0  0  0  0  0  0  0  0  0  0  0  0
   13.1121  -18.5727   23.4957 O   0  0  0  0  0  0  0  0  0  0  0  0
   14.3307  -16.8604   24.3265 O   0  0  0  0  0  0  0  0  0  0  0  0
  2  1  1  1
  2 10  1  0
  3  2  1  0
  4  3  1  0
  5  4  2  0
  6  5  1  0
  7  6  2  0
  7  8  1  0
  8  9  2  0
  9  4  1  0
 10 15  1  0
 10 11  2  0
 12 13  1  0
 14 13  1  6
 14 16  1  0
 15 14  1  0
 16 17  2  0
 18 19  1  0
 18 16  1  0
 19 20  1  1
 21 20  1  0
 22 19  1  0
 22 23  1  0
 24 22  2  0
M  END
$$$$
