FSC.pdb
     RDKit          3D

 24 24  0  0  1  0  0  0  0  0999 V2000
    9.2371  -17.5022   20.6389 N   0  0  0  0  0  0  0  0  0  0  0  0
   10.1310  -16.5229   21.1701 C   0  0  1  0  0  0  0  0  0  0  0  0
   10.2494  -15.3648   20.2055 C   0  0  0  0  0  0  0  0  0  0  0  0
    8.9427  -14.6675   20.0734 C   0  0  0  0  0  0  0  0  0  0  0  0
    7.7770  -15.2173   20.5541 C   0  0  0  0  0  0  0  0  0  0  0  0
    6.5565  -14.5982   20.4470 C   0  0  0  0  0  0  0  0  0  0  0  0
    6.5349  -13.3518   19.8138 C   0  0  0  0  0  0  0  0  0  0  0  0
    7.6849  -12.7823   19.3257 C   0  0  0  0  0  0  0  0  0  0  0  0
    8.8771  -13.4455   19.4602 C   0  0  0  0  0  0  0  0  0  0  0  0
    9.6538  -15.9761   22.4821 C   0  0  0  0  0  0  0  0  0  0  0  0
   10.1784  -14.9383   22.9543 O   0  0  0  0  0  0  0  0  0  0  0  0
    7.4523  -18.2388   25.3227 O   0  0  0  0  0  0  0  0  0  0  0  0
    6.9889  -16.9589   25.0233 C   0  0  0  0  0  0  0  0  0  0  0  0
    8.1934  -16.1571   24.5325 C   0  0  2  0  0  0  0  0  0  0  0  0
    8.6124  -16.6002   23.2221 N   0  0  0  0  0  0  0  0  0  0  0  0
    9.2898  -16.2771   25.5337 C   0  0  0  0  0  0  0  0  0  0  0  0
   10.2956  -17.0151   25.3691 O   0  0  0  0  0  0  0  0  0  0  0  0
    9.1639  -15.5066   26.7238 N   0  0  0  0  0  0  0  0  0  0  0  0
   10.1836  -15.4932   27.7269 C   0  0  1  0  0  0  0  0  0  0  0  0
   10.0551  -14.3271   28.6818 C   0  0  0  0  0  0  0  0  0  0  0  0
   11.4594  -14.3731   29.8448 S   0  0  0  0  0  0  0  0  0  0  0  0
   10.2815  -16.7860   28.4562 C   0  0  0  0  0  0  0  0  0  0  0  0
   11.4727  -17.3160   28.8931 O   0  0  0  0  0  0  0  0  0  0  0  0
    9.2252  -17.4464   28.6961 O   0  0  0  0  0  0  0  0  0  0  0  0
  2  1  1  6
  2 10  1  0
  3  2  1  0
  4  3  1  0
  5  4  2  0
  6  5  1  0
  7  6  2  0
  7  8  1  0
  8  9  2  0
  9  4  1  0
 10 15  1  0
 10 11  2  0
 12 13  1  0
 14 13  1  1
 14 16  1  0
 15 14  1  0
 16 17  2  0
 18 19  1  0
 18 16  1  0
 19 20  1  1
 21 20  1  0
 22 19  1  0
 22 23  1  0
 24 22  2  0
M  END
$$$$
