FSC.pdb
     RDKit          3D

 24 24  0  0  1  0  0  0  0  0999 V2000
    6.4312  -16.5746   25.7437 N   0  0  0  0  0  0  0  0  0  0  0  0
    6.8837  -15.6240   24.7783 C   0  0  1  0  0  0  0  0  0  0  0  0
    7.8192  -14.6355   25.4366 C   0  0  0  0  0  0  0  0  0  0  0  0
    7.0430  -13.5803   26.1402 C   0  0  0  0  0  0  0  0  0  0  0  0
    5.8069  -13.1725   25.6949 C   0  0  0  0  0  0  0  0  0  0  0  0
    5.0671  -12.2014   26.3226 C   0  0  0  0  0  0  0  0  0  0  0  0
    5.6271  -11.6216   27.4649 C   0  0  0  0  0  0  0  0  0  0  0  0
    6.8590  -12.0114   27.9291 C   0  0  0  0  0  0  0  0  0  0  0  0
    7.5546  -12.9866   27.2625 C   0  0  0  0  0  0  0  0  0  0  0  0
    7.6282  -16.2750   23.6513 C   0  0  0  0  0  0  0  0  0  0  0  0
    8.2415  -17.3522   23.8477 O   0  0  0  0  0  0  0  0  0  0  0  0
    8.0322  -14.0464   20.3141 O   0  0  0  0  0  0  0  0  0  0  0  0
    8.3702  -15.3674   20.0253 C   0  0  0  0  0  0  0  0  0  0  0  0
    8.6632  -16.0499   21.3606 C   0  0  2  0  0  0  0  0  0  0  0  0
    7.6650  -15.7074   22.3482 N   0  0  0  0  0  0  0  0  0  0  0  0
   10.0333  -15.6687   21.8037 C   0  0  0  0  0  0  0  0  0  0  0  0
   10.4436  -14.4794   21.8285 O   0  0  0  0  0  0  0  0  0  0  0  0
   10.8960  -16.7242   22.2129 N   0  0  0  0  0  0  0  0  0  0  0  0
   12.2529  -16.4852   22.5977 C   0  0  1  0  0  0  0  0  0  0  0  0
   12.4250  -16.3453   24.0939 C   0  0  0  0  0  0  0  0  0  0  0  0
   10.9177  -16.9672   24.9112 S   0  0  0  0  0  0  0  0  0  0  0  0
   13.1902  -17.4931   22.0335 C   0  0  0  0  0  0  0  0  0  0  0  0
   14.5582  -17.3740   22.1074 O   0  0  0  0  0  0  0  0  0  0  0  0
   12.7237  -18.5196   21.4521 O   0  0  0  0  0  0  0  0  0  0  0  0
  2  1  1  1
  2 10  1  0
  3  2  1  0
  4  3  1  0
  5  4  2  0
  6  5  1  0
  7  6  2  0
  7  8  1  0
  8  9  2  0
  9  4  1  0
 10 15  1  0
 10 11  2  0
 12 13  1  0
 14 13  1  6
 14 16  1  0
 15 14  1  0
 16 17  2  0
 18 19  1  0
 18 16  1  0
 19 20  1  1
 21 20  1  0
 22 19  1  0
 22 23  1  0
 24 22  2  0
M  END
$$$$
