FSC.pdb
     RDKit          3D

 24 24  0  0  1  0  0  0  0  0999 V2000
    6.6845  -16.4963   25.5130 N   0  0  0  0  0  0  0  0  0  0  0  0
    7.3470  -15.6916   24.5363 C   0  0  1  0  0  0  0  0  0  0  0  0
    8.2142  -14.6636   25.2266 C   0  0  0  0  0  0  0  0  0  0  0  0
    7.3691  -13.6140   25.8553 C   0  0  0  0  0  0  0  0  0  0  0  0
    6.6920  -12.6827   25.1026 C   0  0  0  0  0  0  0  0  0  0  0  0
    5.9049  -11.7024   25.6539 C   0  0  0  0  0  0  0  0  0  0  0  0
    5.8101  -11.6797   27.0485 C   0  0  0  0  0  0  0  0  0  0  0  0
    6.4763  -12.5982   27.8216 C   0  0  0  0  0  0  0  0  0  0  0  0
    7.2490  -13.5560   27.2176 C   0  0  0  0  0  0  0  0  0  0  0  0
    8.2312  -16.5059   23.6400 C   0  0  0  0  0  0  0  0  0  0  0  0
    8.7009  -17.5956   24.0485 O   0  0  0  0  0  0  0  0  0  0  0  0
    9.5220  -14.5764   20.3745 O   0  0  0  0  0  0  0  0  0  0  0  0
    9.7955  -15.9333   20.2109 C   0  0  0  0  0  0  0  0  0  0  0  0
    9.7114  -16.5706   21.5969 C   0  0  2  0  0  0  0  0  0  0  0  0
    8.5619  -16.0816   22.3239 N   0  0  0  0  0  0  0  0  0  0  0  0
   10.9822  -16.3023   22.3262 C   0  0  0  0  0  0  0  0  0  0  0  0
   11.3128  -15.1600   22.7373 O   0  0  0  0  0  0  0  0  0  0  0  0
   11.8426  -17.4132   22.5533 N   0  0  0  0  0  0  0  0  0  0  0  0
   12.5627  -17.5734   23.7789 C   0  0  1  0  0  0  0  0  0  0  0  0
   11.6672  -17.5359   24.9974 C   0  0  0  0  0  0  0  0  0  0  0  0
   12.7173  -17.5417   26.4886 S   0  0  0  0  0  0  0  0  0  0  0  0
   13.4284  -18.7831   23.7763 C   0  0  0  0  0  0  0  0  0  0  0  0
   14.7335  -18.7763   24.2094 O   0  0  0  0  0  0  0  0  0  0  0  0
   12.9574  -19.8841   23.3577 O   0  0  0  0  0  0  0  0  0  0  0  0
  2  1  1  1
  2 10  1  0
  3  2  1  0
  4  3  1  0
  5  4  2  0
  6  5  1  0
  7  6  2  0
  7  8  1  0
  8  9  2  0
  9  4  1  0
 10 15  1  0
 10 11  2  0
 12 13  1  0
 14 13  1  6
 14 16  1  0
 15 14  1  0
 16 17  2  0
 18 19  1  0
 18 16  1  0
 19 20  1  1
 21 20  1  0
 22 19  1  0
 22 23  1  0
 24 22  2  0
M  END
$$$$
