FSC.pdb
     RDKit          3D

 24 24  0  0  1  0  0  0  0  0999 V2000
    8.2880  -17.1310   21.2579 N   0  0  0  0  0  0  0  0  0  0  0  0
    9.4581  -16.4437   21.7036 C   0  0  1  0  0  0  0  0  0  0  0  0
    9.0609  -15.1714   22.4171 C   0  0  0  0  0  0  0  0  0  0  0  0
    8.3992  -14.2343   21.4711 C   0  0  0  0  0  0  0  0  0  0  0  0
    7.0341  -14.0649   21.4559 C   0  0  0  0  0  0  0  0  0  0  0  0
    6.3948  -13.2080   20.5949 C   0  0  0  0  0  0  0  0  0  0  0  0
    7.2003  -12.4900   19.7059 C   0  0  0  0  0  0  0  0  0  0  0  0
    8.5649  -12.6415   19.7017 C   0  0  0  0  0  0  0  0  0  0  0  0
    9.1507  -13.5119   20.5840 C   0  0  0  0  0  0  0  0  0  0  0  0
   10.2674  -17.2684   22.6591 C   0  0  0  0  0  0  0  0  0  0  0  0
    9.6942  -17.8993   23.5801 O   0  0  0  0  0  0  0  0  0  0  0  0
   14.3735  -16.7883   23.0296 O   0  0  0  0  0  0  0  0  0  0  0  0
   13.9616  -18.1197   23.0495 C   0  0  0  0  0  0  0  0  0  0  0  0
   12.4959  -18.1217   23.4808 C   0  0  2  0  0  0  0  0  0  0  0  0
   11.6824  -17.3630   22.5579 N   0  0  0  0  0  0  0  0  0  0  0  0
   12.4033  -17.5871   24.8680 C   0  0  0  0  0  0  0  0  0  0  0  0
   12.0496  -16.4083   25.1301 O   0  0  0  0  0  0  0  0  0  0  0  0
   12.7377  -18.4780   25.9265 N   0  0  0  0  0  0  0  0  0  0  0  0
   12.3014  -18.2531   27.2701 C   0  0  1  0  0  0  0  0  0  0  0  0
   10.8022  -18.0866   27.3825 C   0  0  0  0  0  0  0  0  0  0  0  0
   10.4511  -16.8681   28.6934 S   0  0  0  0  0  0  0  0  0  0  0  0
   12.8068  -19.2866   28.2130 C   0  0  0  0  0  0  0  0  0  0  0  0
   14.0332  -19.8938   28.0783 O   0  0  0  0  0  0  0  0  0  0  0  0
   12.0855  -19.6383   29.1955 O   0  0  0  0  0  0  0  0  0  0  0  0
  2  1  1  1
  2 10  1  0
  3  2  1  0
  4  3  1  0
  5  4  2  0
  6  5  1  0
  7  6  2  0
  7  8  1  0
  8  9  2  0
  9  4  1  0
 10 15  1  0
 10 11  2  0
 12 13  1  0
 14 13  1  6
 14 16  1  0
 15 14  1  0
 16 17  2  0
 18 19  1  0
 18 16  1  0
 19 20  1  6
 21 20  1  0
 22 19  1  0
 22 23  1  0
 24 22  2  0
M  END
$$$$
