GCD.pdb
     RDKit          3D

 19 18  0  0  1  0  0  0  0  0999 V2000
    7.4752  -13.4421   19.5083 N   0  0  0  0  0  0  0  0  0  0  0  0
    6.6752  -13.6031   20.6925 C   0  0  0  0  0  0  0  0  0  0  0  0
    7.5493  -13.7002   21.8679 C   0  0  0  0  0  0  0  0  0  0  0  0
    8.7834  -13.8052   21.7180 O   0  0  0  0  0  0  0  0  0  0  0  0
    7.0647  -13.6819   23.2124 N   0  0  0  0  0  0  0  0  0  0  0  0
    7.9371  -13.7420   24.3514 C   0  0  1  0  0  0  0  0  0  0  0  0
    7.2589  -13.2329   25.6120 C   0  0  0  0  0  0  0  0  0  0  0  0
    5.6481  -14.0134   25.8547 S   0  0  0  0  0  0  0  0  0  0  0  0
    8.4382  -15.1267   24.5922 C   0  0  0  0  0  0  0  0  0  0  0  0
    7.7294  -16.1032   24.2365 O   0  0  0  0  0  0  0  0  0  0  0  0
    9.6955  -15.3238   25.2134 N   0  0  0  0  0  0  0  0  0  0  0  0
   10.3547  -16.6147   25.0350 C   0  0  1  0  0  0  0  0  0  0  0  0
   11.6413  -16.4558   24.2615 C   0  0  0  0  0  0  0  0  0  0  0  0
   12.2802  -17.7792   24.1280 C   0  0  0  0  0  0  0  0  0  0  0  0
   13.0326  -18.3102   24.9610 O   0  0  0  0  0  0  0  0  0  0  0  0
   10.5074  -17.2445   26.3487 C   0  0  0  0  0  0  0  0  0  0  0  0
   10.7996  -18.5870   26.5029 O   0  0  0  0  0  0  0  0  0  0  0  0
   12.0220  -18.5120   22.9606 O   0  0  0  0  0  0  0  0  0  0  0  0
   10.3757  -16.5787   27.4167 O   0  0  0  0  0  0  0  0  0  0  0  0
  2  1  1  0
  3  2  1  0
  3  4  2  0
  5  3  1  0
  6  5  1  0
  6  7  1  1
  8  7  1  0
  9  6  1  0
 10  9  2  0
 11  9  1  0
 12 11  1  0
 12 13  1  1
 14 13  1  0
 14 15  2  0
 16 12  1  0
 17 16  1  0
 18 14  1  0
 19 16  2  0
M  END
$$$$
