GCD.pdb
     RDKit          3D

 19 18  0  0  1  0  0  0  0  0999 V2000
    7.2519  -14.1723   19.8081 N   0  0  0  0  0  0  0  0  0  0  0  0
    6.6624  -14.8454   20.9340 C   0  0  0  0  0  0  0  0  0  0  0  0
    7.5137  -14.6653   22.1164 C   0  0  0  0  0  0  0  0  0  0  0  0
    8.7231  -14.3934   21.9762 O   0  0  0  0  0  0  0  0  0  0  0  0
    7.0332  -14.7846   23.4573 N   0  0  0  0  0  0  0  0  0  0  0  0
    7.8822  -14.6139   24.6026 C   0  0  1  0  0  0  0  0  0  0  0  0
    7.0871  -14.2718   25.8513 C   0  0  0  0  0  0  0  0  0  0  0  0
    6.0580  -12.8092   25.5969 S   0  0  0  0  0  0  0  0  0  0  0  0
    8.7064  -15.8293   24.8668 C   0  0  0  0  0  0  0  0  0  0  0  0
    8.1425  -16.9532   24.9041 O   0  0  0  0  0  0  0  0  0  0  0  0
   10.1022  -15.7046   25.0707 N   0  0  0  0  0  0  0  0  0  0  0  0
   10.8761  -16.9238   25.2884 C   0  0  1  0  0  0  0  0  0  0  0  0
   12.3544  -16.6503   25.1517 C   0  0  0  0  0  0  0  0  0  0  0  0
   12.6133  -16.1089   23.8036 C   0  0  0  0  0  0  0  0  0  0  0  0
   13.3726  -15.1643   23.5335 O   0  0  0  0  0  0  0  0  0  0  0  0
   10.4799  -17.5030   26.5742 C   0  0  0  0  0  0  0  0  0  0  0  0
   10.0989  -16.7295   27.6549 O   0  0  0  0  0  0  0  0  0  0  0  0
   11.9483  -16.7065   22.7233 O   0  0  0  0  0  0  0  0  0  0  0  0
   10.4696  -18.7551   26.7564 O   0  0  0  0  0  0  0  0  0  0  0  0
  2  1  1  0
  3  2  1  0
  3  4  2  0
  5  3  1  0
  6  5  1  0
  6  7  1  1
  8  7  1  0
  9  6  1  0
 10  9  2  0
 11  9  1  0
 12 11  1  0
 12 13  1  1
 14 13  1  0
 14 15  2  0
 16 12  1  0
 17 16  1  0
 18 14  1  0
 19 16  2  0
M  END
$$$$
