GCD.pdb
     RDKit          3D

 19 18  0  0  1  0  0  0  0  0999 V2000
    8.1280  -13.3877   17.9609 N   0  0  0  0  0  0  0  0  0  0  0  0
    7.4600  -13.9265   19.1149 C   0  0  0  0  0  0  0  0  0  0  0  0
    8.4180  -14.0652   20.2185 C   0  0  0  0  0  0  0  0  0  0  0  0
    9.6322  -13.8611   20.0172 O   0  0  0  0  0  0  0  0  0  0  0  0
    8.0395  -14.4294   21.5479 N   0  0  0  0  0  0  0  0  0  0  0  0
    8.9731  -14.4602   22.6384 C   0  0  1  0  0  0  0  0  0  0  0  0
    8.3900  -13.8485   23.9009 C   0  0  0  0  0  0  0  0  0  0  0  0
    6.7159  -14.4511   24.2125 S   0  0  0  0  0  0  0  0  0  0  0  0
    9.4312  -15.8488   22.9357 C   0  0  0  0  0  0  0  0  0  0  0  0
    8.6207  -16.8013   22.8008 O   0  0  0  0  0  0  0  0  0  0  0  0
   10.7621  -16.0764   23.3628 N   0  0  0  0  0  0  0  0  0  0  0  0
   11.1700  -17.4518   23.6360 C   0  0  1  0  0  0  0  0  0  0  0  0
   12.5861  -17.6919   23.1712 C   0  0  0  0  0  0  0  0  0  0  0  0
   12.6842  -17.3288   21.7444 C   0  0  0  0  0  0  0  0  0  0  0  0
   11.9216  -17.7127   20.8428 O   0  0  0  0  0  0  0  0  0  0  0  0
   10.9386  -17.7325   25.0549 C   0  0  0  0  0  0  0  0  0  0  0  0
   10.8356  -16.7341   26.0057 O   0  0  0  0  0  0  0  0  0  0  0  0
   13.7278  -16.4744   21.3604 O   0  0  0  0  0  0  0  0  0  0  0  0
   10.8219  -18.9185   25.4804 O   0  0  0  0  0  0  0  0  0  0  0  0
  2  1  1  0
  3  2  1  0
  3  4  2  0
  5  3  1  0
  6  5  1  0
  6  7  1  1
  8  7  1  0
  9  6  1  0
 10  9  2  0
 11  9  1  0
 12 11  1  0
 12 13  1  1
 14 13  1  0
 14 15  2  0
 16 12  1  0
 17 16  1  0
 18 14  1  0
 19 16  2  0
M  END
$$$$
