GCD.pdb
     RDKit          3D

 19 18  0  0  1  0  0  0  0  0999 V2000
    7.9940  -14.2775   20.4250 N   0  0  0  0  0  0  0  0  0  0  0  0
    7.0123  -14.2620   21.4759 C   0  0  0  0  0  0  0  0  0  0  0  0
    7.6867  -14.2340   22.7795 C   0  0  0  0  0  0  0  0  0  0  0  0
    8.8818  -14.5807   22.8688 O   0  0  0  0  0  0  0  0  0  0  0  0
    7.0448  -13.8233   23.9888 N   0  0  0  0  0  0  0  0  0  0  0  0
    7.6664  -13.9486   25.2771 C   0  0  1  0  0  0  0  0  0  0  0  0
    6.9352  -13.1455   26.3395 C   0  0  0  0  0  0  0  0  0  0  0  0
    7.1795  -11.3708   26.1082 S   0  0  0  0  0  0  0  0  0  0  0  0
    7.7515  -15.3727   25.7145 C   0  0  0  0  0  0  0  0  0  0  0  0
    6.9065  -16.1967   25.2792 O   0  0  0  0  0  0  0  0  0  0  0  0
    8.7740  -15.7766   26.6072 N   0  0  0  0  0  0  0  0  0  0  0  0
    9.3584  -17.1028   26.4270 C   0  0  1  0  0  0  0  0  0  0  0  0
   10.0192  -17.2166   25.0745 C   0  0  0  0  0  0  0  0  0  0  0  0
   10.6800  -18.5326   24.9795 C   0  0  0  0  0  0  0  0  0  0  0  0
   11.7931  -18.8222   25.4474 O   0  0  0  0  0  0  0  0  0  0  0  0
   10.2420  -17.3798   27.5620 C   0  0  0  0  0  0  0  0  0  0  0  0
   11.2380  -16.5085   27.9619 O   0  0  0  0  0  0  0  0  0  0  0  0
    9.9999  -19.5553   24.3027 O   0  0  0  0  0  0  0  0  0  0  0  0
   10.1323  -18.4449   28.2364 O   0  0  0  0  0  0  0  0  0  0  0  0
  2  1  1  0
  3  2  1  0
  3  4  2  0
  5  3  1  0
  6  5  1  0
  6  7  1  1
  8  7  1  0
  9  6  1  0
 10  9  2  0
 11  9  1  0
 12 11  1  0
 12 13  1  6
 14 13  1  0
 14 15  2  0
 16 12  1  0
 17 16  1  0
 18 14  1  0
 19 16  2  0
M  END
$$$$
