GCD.pdb
     RDKit          3D

 19 18  0  0  1  0  0  0  0  0999 V2000
    6.2316  -16.5408   23.3590 N   0  0  0  0  0  0  0  0  0  0  0  0
    6.2046  -17.5984   22.3849 C   0  0  0  0  0  0  0  0  0  0  0  0
    5.0815  -18.5004   22.6684 C   0  0  0  0  0  0  0  0  0  0  0  0
    4.6916  -18.6576   23.8429 O   0  0  0  0  0  0  0  0  0  0  0  0
    4.3852  -19.2318   21.6569 N   0  0  0  0  0  0  0  0  0  0  0  0
    3.3411  -20.1700   21.9592 C   0  0  1  0  0  0  0  0  0  0  0  0
    2.3562  -20.3112   20.8110 C   0  0  0  0  0  0  0  0  0  0  0  0
    0.8890  -19.2905   21.0723 S   0  0  0  0  0  0  0  0  0  0  0  0
    3.8880  -21.5156   22.3011 C   0  0  0  0  0  0  0  0  0  0  0  0
    4.8522  -21.9705   21.6333 O   0  0  0  0  0  0  0  0  0  0  0  0
    3.3200  -22.2586   23.3644 N   0  0  0  0  0  0  0  0  0  0  0  0
    3.9275  -23.5417   23.7068 C   0  0  1  0  0  0  0  0  0  0  0  0
    4.3028  -23.5825   25.1685 C   0  0  0  0  0  0  0  0  0  0  0  0
    5.5424  -22.8055   25.3610 C   0  0  0  0  0  0  0  0  0  0  0  0
    5.6071  -21.5916   25.6142 O   0  0  0  0  0  0  0  0  0  0  0  0
    3.0242  -24.6129   23.2797 C   0  0  0  0  0  0  0  0  0  0  0  0
    3.4803  -25.8131   22.7672 O   0  0  0  0  0  0  0  0  0  0  0  0
    6.7624  -23.4880   25.2505 O   0  0  0  0  0  0  0  0  0  0  0  0
    1.7678  -24.4854   23.3608 O   0  0  0  0  0  0  0  0  0  0  0  0
  2  1  1  0
  3  2  1  0
  3  4  2  0
  5  3  1  0
  6  5  1  0
  6  7  1  6
  8  7  1  0
  9  6  1  0
 10  9  2  0
 11  9  1  0
 12 11  1  0
 12 13  1  1
 14 13  1  0
 14 15  2  0
 16 12  1  0
 17 16  1  0
 18 14  1  0
 19 16  2  0
M  END
$$$$
