GCD.pdb
     RDKit          3D

 19 18  0  0  1  0  0  0  0  0999 V2000
    4.7060  -19.6897   22.1244 N   0  0  0  0  0  0  0  0  0  0  0  0
    4.7663  -18.2901   22.4495 C   0  0  0  0  0  0  0  0  0  0  0  0
    5.9234  -17.6794   21.7837 C   0  0  0  0  0  0  0  0  0  0  0  0
    6.7181  -18.3931   21.1392 O   0  0  0  0  0  0  0  0  0  0  0  0
    6.2073  -16.2792   21.8269 N   0  0  0  0  0  0  0  0  0  0  0  0
    7.3960  -15.7116   21.2552 C   0  0  1  0  0  0  0  0  0  0  0  0
    7.2151  -14.2420   20.9150 C   0  0  0  0  0  0  0  0  0  0  0  0
    8.7351  -13.5278   20.2500 S   0  0  0  0  0  0  0  0  0  0  0  0
    8.5720  -15.8614   22.1613 C   0  0  0  0  0  0  0  0  0  0  0  0
    8.4581  -15.5303   23.3696 O   0  0  0  0  0  0  0  0  0  0  0  0
    9.7926  -16.3704   21.6548 N   0  0  0  0  0  0  0  0  0  0  0  0
   10.8989  -16.5580   22.5894 C   0  0  1  0  0  0  0  0  0  0  0  0
   10.7499  -17.8592   23.3401 C   0  0  0  0  0  0  0  0  0  0  0  0
   11.9206  -18.0345   24.2212 C   0  0  0  0  0  0  0  0  0  0  0  0
   12.8693  -17.2416   24.3351 O   0  0  0  0  0  0  0  0  0  0  0  0
   12.1580  -16.4199   21.8536 C   0  0  0  0  0  0  0  0  0  0  0  0
   13.3699  -16.2042   22.4830 O   0  0  0  0  0  0  0  0  0  0  0  0
   11.9778  -19.1962   25.0045 O   0  0  0  0  0  0  0  0  0  0  0  0
   12.1932  -16.4919   20.5907 O   0  0  0  0  0  0  0  0  0  0  0  0
  2  1  1  0
  3  2  1  0
  3  4  2  0
  5  3  1  0
  6  5  1  0
  6  7  1  1
  8  7  1  0
  9  6  1  0
 10  9  2  0
 11  9  1  0
 12 11  1  0
 12 13  1  6
 14 13  1  0
 14 15  2  0
 16 12  1  0
 17 16  1  0
 18 14  1  0
 19 16  2  0
M  END
$$$$
