GCD.pdb
     RDKit          3D

 19 18  0  0  1  0  0  0  0  0999 V2000
    5.8078  -18.9690   19.1829 N   0  0  0  0  0  0  0  0  0  0  0  0
    5.5722  -17.7304   19.8748 C   0  0  0  0  0  0  0  0  0  0  0  0
    6.8557  -17.0971   20.2015 C   0  0  0  0  0  0  0  0  0  0  0  0
    7.9194  -17.7288   20.0409 O   0  0  0  0  0  0  0  0  0  0  0  0
    6.9696  -15.7647   20.7063 N   0  0  0  0  0  0  0  0  0  0  0  0
    8.2354  -15.1499   20.9918 C   0  0  1  0  0  0  0  0  0  0  0  0
    8.1135  -13.6423   21.1353 C   0  0  0  0  0  0  0  0  0  0  0  0
    7.4896  -12.8844   19.6190 S   0  0  0  0  0  0  0  0  0  0  0  0
    8.8560  -15.7091   22.2282 C   0  0  0  0  0  0  0  0  0  0  0  0
    8.1385  -15.8834   23.2466 O   0  0  0  0  0  0  0  0  0  0  0  0
   10.2343  -16.0343   22.2406 N   0  0  0  0  0  0  0  0  0  0  0  0
   10.7413  -16.8330   23.3532 C   0  0  1  0  0  0  0  0  0  0  0  0
   10.7091  -18.3037   23.0139 C   0  0  0  0  0  0  0  0  0  0  0  0
   11.3545  -19.0561   24.1070 C   0  0  0  0  0  0  0  0  0  0  0  0
   10.8870  -19.2302   25.2441 O   0  0  0  0  0  0  0  0  0  0  0  0
   12.0624  -16.3230   23.7278 C   0  0  0  0  0  0  0  0  0  0  0  0
   12.6183  -16.5371   24.9755 O   0  0  0  0  0  0  0  0  0  0  0  0
   12.6079  -19.6303   23.8505 O   0  0  0  0  0  0  0  0  0  0  0  0
   12.7638  -15.6532   22.9150 O   0  0  0  0  0  0  0  0  0  0  0  0
  2  1  1  0
  3  2  1  0
  3  4  2  0
  5  3  1  0
  6  5  1  0
  6  7  1  1
  8  7  1  0
  9  6  1  0
 10  9  2  0
 11  9  1  0
 12 11  1  0
 12 13  1  6
 14 13  1  0
 14 15  2  0
 16 12  1  0
 17 16  1  0
 18 14  1  0
 19 16  2  0
M  END
$$$$
