GCD.pdb
     RDKit          3D

 19 18  0  0  1  0  0  0  0  0999 V2000
    7.7883  -12.9487   18.9497 N   0  0  0  0  0  0  0  0  0  0  0  0
    7.0404  -13.6737   19.9412 C   0  0  0  0  0  0  0  0  0  0  0  0
    7.8698  -13.8720   21.1361 C   0  0  0  0  0  0  0  0  0  0  0  0
    9.1135  -13.8598   21.0388 O   0  0  0  0  0  0  0  0  0  0  0  0
    7.3296  -14.0842   22.4424 N   0  0  0  0  0  0  0  0  0  0  0  0
    8.1559  -14.2489   23.6051 C   0  0  1  0  0  0  0  0  0  0  0  0
    7.3882  -13.9802   24.8884 C   0  0  0  0  0  0  0  0  0  0  0  0
    6.7688  -12.2843   24.9427 S   0  0  0  0  0  0  0  0  0  0  0  0
    8.7532  -15.6147   23.6708 C   0  0  0  0  0  0  0  0  0  0  0  0
    8.0411  -16.6077   23.3718 O   0  0  0  0  0  0  0  0  0  0  0  0
   10.1036  -15.7759   24.0657 N   0  0  0  0  0  0  0  0  0  0  0  0
   10.6217  -17.1345   24.2018 C   0  0  1  0  0  0  0  0  0  0  0  0
   12.0665  -17.2016   23.7694 C   0  0  0  0  0  0  0  0  0  0  0  0
   12.1385  -16.9492   22.3173 C   0  0  0  0  0  0  0  0  0  0  0  0
   11.4720  -17.5294   21.4450 O   0  0  0  0  0  0  0  0  0  0  0  0
   10.3737  -17.5920   25.5711 C   0  0  0  0  0  0  0  0  0  0  0  0
   10.5598  -18.9043   25.9643 O   0  0  0  0  0  0  0  0  0  0  0  0
   13.0361  -15.9687   21.8707 O   0  0  0  0  0  0  0  0  0  0  0  0
    9.9712  -16.7953   26.4681 O   0  0  0  0  0  0  0  0  0  0  0  0
  2  1  1  0
  3  2  1  0
  3  4  2  0
  5  3  1  0
  6  5  1  0
  6  7  1  1
  8  7  1  0
  9  6  1  0
 10  9  2  0
 11  9  1  0
 12 11  1  0
 12 13  1  1
 14 13  1  0
 14 15  2  0
 16 12  1  0
 17 16  1  0
 18 14  1  0
 19 16  2  0
M  END
$$$$
