HFQ.pdb
     RDKit          3D

 31 32  0  0  1  0  0  0  0  0999 V2000
   10.2487  -16.5433   19.3235 N   0  0  0  0  0  0  0  0  0  0  0  0
    8.9869  -16.5297   19.9923 C   0  0  1  0  0  0  0  0  0  0  0  0
    8.3627  -17.9087   20.0384 C   0  0  0  0  0  0  0  0  0  0  0  0
    7.9890  -18.2880   18.6626 C   0  0  0  0  0  0  0  0  0  0  0  0
    6.7342  -18.1406   18.1249 C   0  0  0  0  0  0  0  0  0  0  0  0
    6.7794  -18.5944   16.8559 N   0  0  0  0  0  0  0  0  0  0  0  0
    8.0164  -19.0192   16.5833 C   0  0  0  0  0  0  0  0  0  0  0  0
    8.7460  -18.8248   17.7007 N   0  0  0  0  0  0  0  0  0  0  0  0
    9.1445  -15.9797   21.3818 C   0  0  0  0  0  0  0  0  0  0  0  0
   10.1421  -16.2155   22.0797 O   0  0  0  0  0  0  0  0  0  0  0  0
    8.1380  -15.1576   21.9502 N   0  0  0  0  0  0  0  0  0  0  0  0
    8.1343  -14.6440   23.2641 C   0  0  1  0  0  0  0  0  0  0  0  0
    7.0811  -13.6236   23.5861 C   0  0  0  0  0  0  0  0  0  0  0  0
    7.1956  -13.2026   25.0002 C   0  0  0  0  0  0  0  0  0  0  0  0
    8.2224  -12.4728   25.5349 C   0  0  0  0  0  0  0  0  0  0  0  0
    8.1927  -12.1654   26.8966 C   0  0  0  0  0  0  0  0  0  0  0  0
    7.1602  -12.5783   27.7022 C   0  0  0  0  0  0  0  0  0  0  0  0
    6.1173  -13.3143   27.1790 C   0  0  0  0  0  0  0  0  0  0  0  0
    6.1708  -13.6008   25.8476 C   0  0  0  0  0  0  0  0  0  0  0  0
    8.2001  -15.6566   24.3249 C   0  0  0  0  0  0  0  0  0  0  0  0
    7.1784  -16.3731   24.5054 O   0  0  0  0  0  0  0  0  0  0  0  0
   12.5006  -20.9629   25.7358 N   0  0  0  0  0  0  0  0  0  0  0  0
   11.6017  -19.9829   25.2429 C   0  0  0  0  0  0  0  0  0  0  0  0
   11.2100  -20.0411   24.0607 O   0  0  0  0  0  0  0  0  0  0  0  0
   11.1410  -18.9063   26.1356 C   0  0  0  0  0  0  0  0  0  0  0  0
   10.8261  -17.6765   25.3048 C   0  0  0  0  0  0  0  0  0  0  0  0
    9.5480  -17.0418   25.8273 C   0  0  2  0  0  0  0  0  0  0  0  0
    9.3786  -15.7979   25.0952 N   0  0  0  0  0  0  0  0  0  0  0  0
    9.6923  -16.7038   27.2491 C   0  0  0  0  0  0  0  0  0  0  0  0
    9.7830  -15.4139   27.7236 O   0  0  0  0  0  0  0  0  0  0  0  0
    9.7349  -17.6620   28.0782 O   0  0  0  0  0  0  0  0  0  0  0  0
  2  3  1  0
  2  1  1  1
  3  4  1  0
  4  8  1  0
  4  5  2  0
  5  6  1  0
  7  6  1  0
  8  7  2  0
  9  2  1  0
 10  9  2  0
 11  9  1  0
 12 11  1  0
 12 13  1  1
 13 14  1  0
 14 15  2  0
 15 16  1  0
 17 16  2  0
 18 17  1  0
 19 14  1  0
 19 18  2  0
 20 28  1  0
 20 12  1  0
 21 20  2  0
 23 22  1  0
 24 23  2  0
 25 23  1  0
 27 26  1  6
 26 25  1  0
 27 29  1  0
 27 28  1  0
 29 30  1  0
 31 29  2  0
M  END
$$$$
