HFQ.pdb
     RDKit          3D

 31 32  0  0  1  0  0  0  0  0999 V2000
    8.5842  -14.1642   19.4271 N   0  0  0  0  0  0  0  0  0  0  0  0
    8.2941  -15.4038   20.0740 C   0  0  1  0  0  0  0  0  0  0  0  0
    8.9829  -16.5667   19.3909 C   0  0  0  0  0  0  0  0  0  0  0  0
    8.3966  -16.7198   18.0459 C   0  0  0  0  0  0  0  0  0  0  0  0
    8.1648  -15.6862   17.1721 C   0  0  0  0  0  0  0  0  0  0  0  0
    7.6249  -16.2119   16.0539 N   0  0  0  0  0  0  0  0  0  0  0  0
    7.5118  -17.5352   16.1990 C   0  0  0  0  0  0  0  0  0  0  0  0
    7.9890  -17.8311   17.4251 N   0  0  0  0  0  0  0  0  0  0  0  0
    8.6918  -15.3368   21.5215 C   0  0  0  0  0  0  0  0  0  0  0  0
    9.8618  -15.1347   21.8795 O   0  0  0  0  0  0  0  0  0  0  0  0
    7.7233  -15.5058   22.5439 N   0  0  0  0  0  0  0  0  0  0  0  0
    7.9821  -15.5422   23.9302 C   0  0  1  0  0  0  0  0  0  0  0  0
    6.8208  -15.2644   24.8404 C   0  0  0  0  0  0  0  0  0  0  0  0
    6.8761  -13.8670   25.3242 C   0  0  0  0  0  0  0  0  0  0  0  0
    7.2589  -12.7810   24.5847 C   0  0  0  0  0  0  0  0  0  0  0  0
    7.2715  -11.5234   25.1913 C   0  0  0  0  0  0  0  0  0  0  0  0
    6.9093  -11.3579   26.5054 C   0  0  0  0  0  0  0  0  0  0  0  0
    6.5205  -12.4421   27.2647 C   0  0  0  0  0  0  0  0  0  0  0  0
    6.5173  -13.6578   26.6488 C   0  0  0  0  0  0  0  0  0  0  0  0
    8.7160  -16.7267   24.3921 C   0  0  0  0  0  0  0  0  0  0  0  0
    8.2556  -17.8553   24.0693 O   0  0  0  0  0  0  0  0  0  0  0  0
   13.2065  -18.6758   22.9237 N   0  0  0  0  0  0  0  0  0  0  0  0
   13.4701  -19.3208   24.1590 C   0  0  0  0  0  0  0  0  0  0  0  0
   14.2010  -20.3304   24.1864 O   0  0  0  0  0  0  0  0  0  0  0  0
   12.8757  -18.7888   25.3968 C   0  0  0  0  0  0  0  0  0  0  0  0
   12.0562  -17.5569   25.0615 C   0  0  0  0  0  0  0  0  0  0  0  0
   10.6216  -17.7814   25.5098 C   0  0  2  0  0  0  0  0  0  0  0  0
    9.8906  -16.5733   25.1661 N   0  0  0  0  0  0  0  0  0  0  0  0
   10.5631  -17.9354   26.9692 C   0  0  0  0  0  0  0  0  0  0  0  0
   10.9999  -19.0572   27.6383 O   0  0  0  0  0  0  0  0  0  0  0  0
   10.0809  -16.9746   27.6412 O   0  0  0  0  0  0  0  0  0  0  0  0
  2  3  1  0
  2  1  1  6
  3  4  1  0
  4  8  1  0
  4  5  2  0
  5  6  1  0
  7  6  1  0
  8  7  2  0
  9  2  1  0
 10  9  2  0
 11  9  1  0
 12 11  1  0
 12 13  1  1
 13 14  1  0
 14 15  2  0
 15 16  1  0
 17 16  2  0
 18 17  1  0
 19 14  1  0
 19 18  2  0
 20 28  1  0
 20 12  1  0
 21 20  2  0
 23 22  1  0
 24 23  2  0
 25 23  1  0
 27 26  1  1
 26 25  1  0
 27 29  1  0
 27 28  1  0
 29 30  1  0
 31 29  2  0
M  END
$$$$
