HFQ.pdb
     RDKit          3D

 31 32  0  0  1  0  0  0  0  0999 V2000
   10.5643  -16.6512   19.7172 N   0  0  0  0  0  0  0  0  0  0  0  0
    9.4340  -16.9564   20.5350 C   0  0  1  0  0  0  0  0  0  0  0  0
    9.3827  -18.4270   20.8932 C   0  0  0  0  0  0  0  0  0  0  0  0
    9.0864  -19.1873   19.6643 C   0  0  0  0  0  0  0  0  0  0  0  0
    7.8246  -19.4260   19.1782 C   0  0  0  0  0  0  0  0  0  0  0  0
    7.9542  -20.1478   18.0466 N   0  0  0  0  0  0  0  0  0  0  0  0
    9.2506  -20.3677   17.8100 C   0  0  0  0  0  0  0  0  0  0  0  0
    9.9316  -19.7726   18.8103 N   0  0  0  0  0  0  0  0  0  0  0  0
    9.4543  -16.1147   21.7796 C   0  0  0  0  0  0  0  0  0  0  0  0
   10.5105  -15.7313   22.3042 O   0  0  0  0  0  0  0  0  0  0  0  0
    8.2429  -15.7246   22.4060 N   0  0  0  0  0  0  0  0  0  0  0  0
    8.1310  -14.9439   23.5756 C   0  0  1  0  0  0  0  0  0  0  0  0
    6.8047  -14.2847   23.8218 C   0  0  0  0  0  0  0  0  0  0  0  0
    6.8683  -13.4539   25.0447 C   0  0  0  0  0  0  0  0  0  0  0  0
    6.2523  -13.7356   26.2339 C   0  0  0  0  0  0  0  0  0  0  0  0
    6.3974  -12.8412   27.2963 C   0  0  0  0  0  0  0  0  0  0  0  0
    7.1412  -11.6938   27.1707 C   0  0  0  0  0  0  0  0  0  0  0  0
    7.7688  -11.3951   25.9791 C   0  0  0  0  0  0  0  0  0  0  0  0
    7.6111  -12.2843   24.9584 C   0  0  0  0  0  0  0  0  0  0  0  0
    8.6094  -15.5938   24.8019 C   0  0  0  0  0  0  0  0  0  0  0  0
    8.4570  -14.9681   25.8859 O   0  0  0  0  0  0  0  0  0  0  0  0
   11.2043  -21.1922   24.8717 N   0  0  0  0  0  0  0  0  0  0  0  0
    9.8011  -21.1253   25.0663 C   0  0  0  0  0  0  0  0  0  0  0  0
    9.1031  -22.1439   24.8940 O   0  0  0  0  0  0  0  0  0  0  0  0
    9.1845  -19.8506   25.4705 C   0  0  0  0  0  0  0  0  0  0  0  0
   10.2721  -18.8056   25.6337 C   0  0  0  0  0  0  0  0  0  0  0  0
    9.6292  -17.4756   25.9901 C   0  0  2  0  0  0  0  0  0  0  0  0
    9.2120  -16.8723   24.7355 N   0  0  0  0  0  0  0  0  0  0  0  0
   10.6183  -16.5812   26.6052 C   0  0  0  0  0  0  0  0  0  0  0  0
   10.9223  -16.5849   27.9487 O   0  0  0  0  0  0  0  0  0  0  0  0
   11.2207  -15.7631   25.8469 O   0  0  0  0  0  0  0  0  0  0  0  0
  2  3  1  0
  2  1  1  1
  3  4  1  0
  4  8  1  0
  4  5  2  0
  5  6  1  0
  7  6  1  0
  8  7  2  0
  9  2  1  0
 10  9  2  0
 11  9  1  0
 12 11  1  0
 12 13  1  1
 13 14  1  0
 14 15  2  0
 15 16  1  0
 17 16  2  0
 18 17  1  0
 19 14  1  0
 19 18  2  0
 20 28  1  0
 20 12  1  0
 21 20  2  0
 23 22  1  0
 24 23  2  0
 25 23  1  0
 27 26  1  6
 26 25  1  0
 27 29  1  0
 27 28  1  0
 29 30  1  0
 31 29  2  0
M  END
$$$$
