HFQ.pdb
     RDKit          3D

 31 32  0  0  1  0  0  0  0  0999 V2000
    9.3390  -16.5136   19.1485 N   0  0  0  0  0  0  0  0  0  0  0  0
    8.4681  -16.9424   20.1958 C   0  0  1  0  0  0  0  0  0  0  0  0
    8.5318  -18.4418   20.3985 C   0  0  0  0  0  0  0  0  0  0  0  0
    7.9931  -19.0906   19.1881 C   0  0  0  0  0  0  0  0  0  0  0  0
    7.5468  -18.4210   18.0755 C   0  0  0  0  0  0  0  0  0  0  0  0
    7.1328  -19.3440   17.1839 N   0  0  0  0  0  0  0  0  0  0  0  0
    7.3048  -20.5641   17.7002 C   0  0  0  0  0  0  0  0  0  0  0  0
    7.8329  -20.3920   18.9291 N   0  0  0  0  0  0  0  0  0  0  0  0
    8.8046  -16.2266   21.4734 C   0  0  0  0  0  0  0  0  0  0  0  0
    9.8816  -16.3951   22.0645 O   0  0  0  0  0  0  0  0  0  0  0  0
    7.8836  -15.3181   22.0549 N   0  0  0  0  0  0  0  0  0  0  0  0
    7.9887  -14.7423   23.3385 C   0  0  1  0  0  0  0  0  0  0  0  0
    6.9363  -13.7403   23.7162 C   0  0  0  0  0  0  0  0  0  0  0  0
    7.1778  -13.2409   25.0881 C   0  0  0  0  0  0  0  0  0  0  0  0
    6.5036  -13.6362   26.2115 C   0  0  0  0  0  0  0  0  0  0  0  0
    6.8403  -13.0588   27.4375 C   0  0  0  0  0  0  0  0  0  0  0  0
    7.8277  -12.1098   27.5355 C   0  0  0  0  0  0  0  0  0  0  0  0
    8.5172  -11.7005   26.4130 C   0  0  0  0  0  0  0  0  0  0  0  0
    8.1690  -12.2793   25.2294 C   0  0  0  0  0  0  0  0  0  0  0  0
    8.1920  -15.7003   24.4321 C   0  0  0  0  0  0  0  0  0  0  0  0
    7.2447  -16.4904   24.6931 O   0  0  0  0  0  0  0  0  0  0  0  0
   13.3563  -18.5352   24.7268 N   0  0  0  0  0  0  0  0  0  0  0  0
   12.7617  -19.0883   25.8895 C   0  0  0  0  0  0  0  0  0  0  0  0
   13.3401  -20.0064   26.5035 O   0  0  0  0  0  0  0  0  0  0  0  0
   11.4655  -18.5702   26.3582 C   0  0  0  0  0  0  0  0  0  0  0  0
   11.0392  -17.4224   25.4625 C   0  0  0  0  0  0  0  0  0  0  0  0
    9.7034  -16.8859   25.9496 C   0  0  2  0  0  0  0  0  0  0  0  0
    9.4148  -15.7112   25.1441 N   0  0  0  0  0  0  0  0  0  0  0  0
    9.8099  -16.4499   27.3480 C   0  0  0  0  0  0  0  0  0  0  0  0
    9.8020  -17.3131   28.4213 O   0  0  0  0  0  0  0  0  0  0  0  0
    9.9146  -15.2058   27.5678 O   0  0  0  0  0  0  0  0  0  0  0  0
  2  3  1  0
  2  1  1  6
  3  4  1  0
  4  8  1  0
  4  5  2  0
  5  6  1  0
  7  6  1  0
  8  7  2  0
  9  2  1  0
 10  9  2  0
 11  9  1  0
 12 11  1  0
 12 13  1  1
 13 14  1  0
 14 15  2  0
 15 16  1  0
 17 16  2  0
 18 17  1  0
 19 14  1  0
 19 18  2  0
 20 28  1  0
 20 12  1  0
 21 20  2  0
 23 22  1  0
 24 23  2  0
 25 23  1  0
 27 26  1  6
 26 25  1  0
 27 29  1  0
 27 28  1  0
 29 30  1  0
 31 29  2  0
M  END
$$$$
