HFQ.pdb
     RDKit          3D

 31 32  0  0  1  0  0  0  0  0999 V2000
   10.4075  -16.6535   19.3611 N   0  0  0  0  0  0  0  0  0  0  0  0
    9.2162  -16.8481   20.1243 C   0  0  1  0  0  0  0  0  0  0  0  0
    8.8871  -18.3177   20.2836 C   0  0  0  0  0  0  0  0  0  0  0  0
    8.5655  -18.8618   18.9507 C   0  0  0  0  0  0  0  0  0  0  0  0
    8.0336  -18.1320   17.9163 C   0  0  0  0  0  0  0  0  0  0  0  0
    7.8797  -18.9652   16.8674 N   0  0  0  0  0  0  0  0  0  0  0  0
    8.2963  -20.1874   17.2102 C   0  0  0  0  0  0  0  0  0  0  0  0
    8.7136  -20.1077   18.4901 N   0  0  0  0  0  0  0  0  0  0  0  0
    9.3517  -16.1931   21.4698 C   0  0  0  0  0  0  0  0  0  0  0  0
   10.3681  -16.3178   22.1692 O   0  0  0  0  0  0  0  0  0  0  0  0
    8.3013  -15.3961   21.9927 N   0  0  0  0  0  0  0  0  0  0  0  0
    8.2296  -14.8790   23.3033 C   0  0  1  0  0  0  0  0  0  0  0  0
    7.0997  -13.9341   23.5943 C   0  0  0  0  0  0  0  0  0  0  0  0
    7.2602  -13.3490   24.9440 C   0  0  0  0  0  0  0  0  0  0  0  0
    8.2072  -12.4307   25.3084 C   0  0  0  0  0  0  0  0  0  0  0  0
    8.2380  -11.9830   26.6306 C   0  0  0  0  0  0  0  0  0  0  0  0
    7.3425  -12.4434   27.5641 C   0  0  0  0  0  0  0  0  0  0  0  0
    6.3814  -13.3687   27.2134 C   0  0  0  0  0  0  0  0  0  0  0  0
    6.3733  -13.7892   25.9170 C   0  0  0  0  0  0  0  0  0  0  0  0
    8.3405  -15.8804   24.3709 C   0  0  0  0  0  0  0  0  0  0  0  0
    7.4555  -16.7773   24.4176 O   0  0  0  0  0  0  0  0  0  0  0  0
   12.7182  -19.5590   25.4277 N   0  0  0  0  0  0  0  0  0  0  0  0
   11.8925  -19.1482   24.3502 C   0  0  0  0  0  0  0  0  0  0  0  0
   12.2174  -19.4285   23.1797 O   0  0  0  0  0  0  0  0  0  0  0  0
   10.6587  -18.3939   24.6281 C   0  0  0  0  0  0  0  0  0  0  0  0
   10.8349  -17.6168   25.9190 C   0  0  0  0  0  0  0  0  0  0  0  0
    9.5338  -16.9038   26.2476 C   0  0  2  0  0  0  0  0  0  0  0  0
    9.4110  -15.8140   25.2939 N   0  0  0  0  0  0  0  0  0  0  0  0
    9.6026  -16.3128   27.5903 C   0  0  0  0  0  0  0  0  0  0  0  0
    9.2401  -16.9801   28.7394 O   0  0  0  0  0  0  0  0  0  0  0  0
   10.0211  -15.1199   27.6850 O   0  0  0  0  0  0  0  0  0  0  0  0
  2  3  1  0
  2  1  1  1
  3  4  1  0
  4  8  1  0
  4  5  2  0
  5  6  1  0
  7  6  1  0
  8  7  2  0
  9  2  1  0
 10  9  2  0
 11  9  1  0
 12 11  1  0
 12 13  1  6
 13 14  1  0
 14 15  2  0
 15 16  1  0
 17 16  2  0
 18 17  1  0
 19 14  1  0
 19 18  2  0
 20 28  1  0
 20 12  1  0
 21 20  2  0
 23 22  1  0
 24 23  2  0
 25 23  1  0
 27 26  1  6
 26 25  1  0
 27 29  1  0
 27 28  1  0
 29 30  1  0
 31 29  2  0
M  END
$$$$
