HFQ.pdb
     RDKit          3D

 31 32  0  0  1  0  0  0  0  0999 V2000
    8.7024  -16.6813   19.1466 N   0  0  0  0  0  0  0  0  0  0  0  0
    8.3416  -17.3740   20.3421 C   0  0  1  0  0  0  0  0  0  0  0  0
    9.0251  -18.7221   20.4362 C   0  0  0  0  0  0  0  0  0  0  0  0
    8.6136  -19.5262   19.2698 C   0  0  0  0  0  0  0  0  0  0  0  0
    7.4059  -20.1685   19.1503 C   0  0  0  0  0  0  0  0  0  0  0  0
    7.3945  -20.7948   17.9562 N   0  0  0  0  0  0  0  0  0  0  0  0
    8.5509  -20.5662   17.3273 C   0  0  0  0  0  0  0  0  0  0  0  0
    9.2874  -19.7871   18.1454 N   0  0  0  0  0  0  0  0  0  0  0  0
    8.6706  -16.5352   21.5447 C   0  0  0  0  0  0  0  0  0  0  0  0
    9.8288  -16.1795   21.8089 O   0  0  0  0  0  0  0  0  0  0  0  0
    7.6473  -16.1156   22.4328 N   0  0  0  0  0  0  0  0  0  0  0  0
    7.8311  -15.3505   23.6037 C   0  0  1  0  0  0  0  0  0  0  0  0
    6.6224  -14.6411   24.1422 C   0  0  0  0  0  0  0  0  0  0  0  0
    6.9876  -13.8487   25.3374 C   0  0  0  0  0  0  0  0  0  0  0  0
    6.9939  -14.3065   26.6271 C   0  0  0  0  0  0  0  0  0  0  0  0
    7.3509  -13.4281   27.6521 C   0  0  0  0  0  0  0  0  0  0  0  0
    7.6934  -12.1241   27.3916 C   0  0  0  0  0  0  0  0  0  0  0  0
    7.6926  -11.6469   26.0973 C   0  0  0  0  0  0  0  0  0  0  0  0
    7.3402  -12.5244   25.1160 C   0  0  0  0  0  0  0  0  0  0  0  0
    8.5395  -16.0400   24.6889 C   0  0  0  0  0  0  0  0  0  0  0  0
    8.0789  -17.1513   25.0665 O   0  0  0  0  0  0  0  0  0  0  0  0
   14.0381  -16.5650   23.6979 N   0  0  0  0  0  0  0  0  0  0  0  0
   14.1530  -17.0848   25.0123 C   0  0  0  0  0  0  0  0  0  0  0  0
   15.1718  -17.7258   25.3375 O   0  0  0  0  0  0  0  0  0  0  0  0
   13.0652  -16.8606   25.9791 C   0  0  0  0  0  0  0  0  0  0  0  0
   12.0136  -15.9718   25.3421 C   0  0  0  0  0  0  0  0  0  0  0  0
   10.6485  -16.3496   25.8928 C   0  0  2  0  0  0  0  0  0  0  0  0
    9.6910  -15.4539   25.2658 N   0  0  0  0  0  0  0  0  0  0  0  0
   10.5997  -16.1084   27.3406 C   0  0  0  0  0  0  0  0  0  0  0  0
    9.7880  -15.1660   27.9324 O   0  0  0  0  0  0  0  0  0  0  0  0
   11.3518  -16.8138   28.0782 O   0  0  0  0  0  0  0  0  0  0  0  0
  2  3  1  0
  2  1  1  6
  3  4  1  0
  4  8  1  0
  4  5  2  0
  5  6  1  0
  7  6  1  0
  8  7  2  0
  9  2  1  0
 10  9  2  0
 11  9  1  0
 12 11  1  0
 12 13  1  1
 13 14  1  0
 14 15  2  0
 15 16  1  0
 17 16  2  0
 18 17  1  0
 19 14  1  0
 19 18  2  0
 20 28  1  0
 20 12  1  0
 21 20  2  0
 23 22  1  0
 24 23  2  0
 25 23  1  0
 27 26  1  6
 26 25  1  0
 27 29  1  0
 27 28  1  0
 29 30  1  0
 31 29  2  0
M  END
$$$$
