HFQ.pdb
     RDKit          3D

 31 32  0  0  1  0  0  0  0  0999 V2000
    8.6239  -17.3845   20.0512 N   0  0  0  0  0  0  0  0  0  0  0  0
    9.9392  -16.9344   20.3780 C   0  0  1  0  0  0  0  0  0  0  0  0
   10.5992  -16.2362   19.2073 C   0  0  0  0  0  0  0  0  0  0  0  0
   10.3797  -17.0576   18.0018 C   0  0  0  0  0  0  0  0  0  0  0  0
   11.2181  -18.0574   17.5740 C   0  0  0  0  0  0  0  0  0  0  0  0
   10.6906  -18.5763   16.4468 N   0  0  0  0  0  0  0  0  0  0  0  0
    9.5542  -17.9365   16.1565 C   0  0  0  0  0  0  0  0  0  0  0  0
    9.3774  -17.0086   17.1189 N   0  0  0  0  0  0  0  0  0  0  0  0
    9.8917  -16.0231   21.5719 C   0  0  0  0  0  0  0  0  0  0  0  0
   10.9176  -15.6211   22.1410 O   0  0  0  0  0  0  0  0  0  0  0  0
    8.6484  -15.5855   22.0958 N   0  0  0  0  0  0  0  0  0  0  0  0
    8.4546  -14.9403   23.3353 C   0  0  1  0  0  0  0  0  0  0  0  0
    7.3614  -13.9130   23.3970 C   0  0  0  0  0  0  0  0  0  0  0  0
    7.3737  -13.2348   24.7122 C   0  0  0  0  0  0  0  0  0  0  0  0
    8.3108  -12.3319   25.1357 C   0  0  0  0  0  0  0  0  0  0  0  0
    8.1912  -11.7872   26.4159 C   0  0  0  0  0  0  0  0  0  0  0  0
    7.1588  -12.1380   27.2504 C   0  0  0  0  0  0  0  0  0  0  0  0
    6.2057  -13.0464   26.8388 C   0  0  0  0  0  0  0  0  0  0  0  0
    6.3457  -13.5630   25.5854 C   0  0  0  0  0  0  0  0  0  0  0  0
    8.3728  -15.8376   24.4943 C   0  0  0  0  0  0  0  0  0  0  0  0
    7.2966  -16.4733   24.6594 O   0  0  0  0  0  0  0  0  0  0  0  0
   11.0535  -20.4814   24.7688 N   0  0  0  0  0  0  0  0  0  0  0  0
   11.9315  -19.3830   24.9528 C   0  0  0  0  0  0  0  0  0  0  0  0
   13.1288  -19.4854   24.6206 O   0  0  0  0  0  0  0  0  0  0  0  0
   11.4170  -18.1324   25.5354 C   0  0  0  0  0  0  0  0  0  0  0  0
    9.9223  -18.2687   25.7567 C   0  0  0  0  0  0  0  0  0  0  0  0
    9.3991  -16.9920   26.3936 C   0  0  2  0  0  0  0  0  0  0  0  0
    9.4764  -15.9620   25.3712 N   0  0  0  0  0  0  0  0  0  0  0  0
   10.2704  -16.5827   27.5026 C   0  0  0  0  0  0  0  0  0  0  0  0
   10.3711  -17.2718   28.6910 O   0  0  0  0  0  0  0  0  0  0  0  0
   10.9650  -15.5338   27.3462 O   0  0  0  0  0  0  0  0  0  0  0  0
  2  3  1  0
  2  1  1  6
  3  4  1  0
  4  8  1  0
  4  5  2  0
  5  6  1  0
  7  6  1  0
  8  7  2  0
  9  2  1  0
 10  9  2  0
 11  9  1  0
 12 11  1  0
 12 13  1  6
 13 14  1  0
 14 15  2  0
 15 16  1  0
 17 16  2  0
 18 17  1  0
 19 14  1  0
 19 18  2  0
 20 28  1  0
 20 12  1  0
 21 20  2  0
 23 22  1  0
 24 23  2  0
 25 23  1  0
 27 26  1  6
 26 25  1  0
 27 29  1  0
 27 28  1  0
 29 30  1  0
 31 29  2  0
M  END
$$$$
