IDH.pdb
     RDKit          3D

 27 27  0  0  1  0  0  0  0  0999 V2000
   45.1329  -13.3255   -7.9650 C   0  0  0  0  0  0  0  0  0  0  0  0
   43.8459  -13.3471   -8.7295 C   0  0  0  0  0  0  0  0  0  0  0  0
   43.4131  -11.9246   -8.9895 C   0  0  2  0  0  0  0  0  0  0  0  0
   43.2863  -11.2027   -7.6666 C   0  0  0  0  0  0  0  0  0  0  0  0
   42.1505  -11.8388   -9.8052 C   0  0  2  0  0  0  0  0  0  0  0  0
   42.2606  -12.6981  -10.9664 N   0  0  0  0  0  0  0  0  0  0  0  0
   41.7619  -10.4642  -10.1683 C   0  0  0  0  0  0  0  0  0  0  0  0
   42.2268   -9.8138  -11.1134 O   0  0  0  0  0  0  0  0  0  0  0  0
   40.7659   -9.8314   -9.3617 N   0  0  0  0  0  0  0  0  0  0  0  0
   40.4280   -8.4469   -9.6144 C   0  0  1  0  0  0  0  0  0  0  0  0
   38.9451   -8.3205   -9.9169 C   0  0  0  0  0  0  0  0  0  0  0  0
   38.5492   -6.9451  -10.2868 C   0  0  0  0  0  0  0  0  0  0  0  0
   38.8704   -6.3454  -11.3323 O   0  0  0  0  0  0  0  0  0  0  0  0
   40.8141   -7.5698   -8.4772 C   0  0  0  0  0  0  0  0  0  0  0  0
   40.5211   -7.9597   -7.3186 O   0  0  0  0  0  0  0  0  0  0  0  0
   37.7462   -6.2635   -9.3832 O   0  0  0  0  0  0  0  0  0  0  0  0
   41.4836   -6.3377   -8.6218 N   0  0  0  0  0  0  0  0  0  0  0  0
   41.7410   -5.4434   -7.4815 C   0  0  1  0  0  0  0  0  0  0  0  0
   43.0943   -4.8290   -7.5700 C   0  0  0  0  0  0  0  0  0  0  0  0
   43.3470   -3.9858   -6.3816 C   0  0  0  0  0  0  0  0  0  0  0  0
   43.0702   -4.3633   -5.0635 C   0  0  0  0  0  0  0  0  0  0  0  0
   43.4192   -3.3665   -4.2345 N   0  0  0  0  0  0  0  0  0  0  0  0
   43.9090   -2.3667   -4.9789 C   0  0  0  0  0  0  0  0  0  0  0  0
   43.8625   -2.7456   -6.2677 N   0  0  0  0  0  0  0  0  0  0  0  0
   40.6966   -4.3848   -7.4565 C   0  0  0  0  0  0  0  0  0  0  0  0
   40.1491   -3.9589   -6.4295 O   0  0  0  0  0  0  0  0  0  0  0  0
   40.2724   -3.7998   -8.6668 O   0  0  0  0  0  0  0  0  0  0  0  0
  2  1  1  0
  3  2  1  0
  3  4  1  1
  5  7  1  0
  5  3  1  0
  5  6  1  6
  7  8  2  0
  9 10  1  0
  9  7  1  0
 10 11  1  1
 12 11  1  0
 13 12  2  0
 14 10  1  0
 14 15  2  0
 16 12  1  0
 17 14  1  0
 18 17  1  0
 18 25  1  0
 18 19  1  6
 20 19  1  0
 21 20  2  0
 22 23  1  0
 22 21  1  0
 23 24  2  0
 24 20  1  0
 25 27  1  0
 26 25  2  0
M  END
$$$$
