IDH.pdb
     RDKit          3D

 27 27  0  0  1  0  0  0  0  0999 V2000
   28.0794  -19.9913   -6.8636 C   0  0  0  0  0  0  0  0  0  0  0  0
   27.4918  -20.9903   -7.8113 C   0  0  0  0  0  0  0  0  0  0  0  0
   26.7144  -20.2513   -8.8734 C   0  0  2  0  0  0  0  0  0  0  0  0
   25.5896  -19.4862   -8.2124 C   0  0  0  0  0  0  0  0  0  0  0  0
   26.2168  -21.1569   -9.9684 C   0  0  2  0  0  0  0  0  0  0  0  0
   27.2451  -22.1180  -10.3115 N   0  0  0  0  0  0  0  0  0  0  0  0
   25.7078  -20.4435  -11.1535 C   0  0  0  0  0  0  0  0  0  0  0  0
   24.7350  -19.6783  -11.1665 O   0  0  0  0  0  0  0  0  0  0  0  0
   26.3956  -20.6537  -12.3888 N   0  0  0  0  0  0  0  0  0  0  0  0
   25.9171  -19.9929  -13.5843 C   0  0  1  0  0  0  0  0  0  0  0  0
   27.0209  -19.9397  -14.6261 C   0  0  0  0  0  0  0  0  0  0  0  0
   26.6269  -19.1993  -15.8434 C   0  0  0  0  0  0  0  0  0  0  0  0
   25.8784  -19.6203  -16.7481 O   0  0  0  0  0  0  0  0  0  0  0  0
   24.7031  -20.6555  -14.1308 C   0  0  0  0  0  0  0  0  0  0  0  0
   24.6820  -21.9124  -14.1381 O   0  0  0  0  0  0  0  0  0  0  0  0
   27.1404  -17.9180  -15.9870 O   0  0  0  0  0  0  0  0  0  0  0  0
   23.5848  -19.9623  -14.6368 N   0  0  0  0  0  0  0  0  0  0  0  0
   22.2144  -20.2354  -14.1745 C   0  0  1  0  0  0  0  0  0  0  0  0
   22.0430  -19.8682  -12.7418 C   0  0  0  0  0  0  0  0  0  0  0  0
   20.6820  -20.2250  -12.2863 C   0  0  0  0  0  0  0  0  0  0  0  0
   20.1912  -21.5313  -12.1894 C   0  0  0  0  0  0  0  0  0  0  0  0
   18.9248  -21.4970  -11.7452 N   0  0  0  0  0  0  0  0  0  0  0  0
   18.5914  -20.2138  -11.5556 C   0  0  0  0  0  0  0  0  0  0  0  0
   19.6518  -19.4553  -11.8826 N   0  0  0  0  0  0  0  0  0  0  0  0
   21.2610  -19.4677  -15.0194 C   0  0  0  0  0  0  0  0  0  0  0  0
   21.4731  -18.3319  -15.4676 O   0  0  0  0  0  0  0  0  0  0  0  0
   20.0170  -20.0388  -15.3559 O   0  0  0  0  0  0  0  0  0  0  0  0
  2  1  1  0
  3  2  1  0
  3  4  1  1
  5  7  1  0
  5  3  1  0
  5  6  1  6
  7  8  2  0
  9 10  1  0
  9  7  1  0
 10 11  1  6
 12 11  1  0
 13 12  2  0
 14 10  1  0
 14 15  2  0
 16 12  1  0
 17 14  1  0
 18 17  1  0
 18 25  1  0
 18 19  1  1
 20 19  1  0
 21 20  2  0
 22 23  1  0
 22 21  1  0
 23 24  2  0
 24 20  1  0
 25 27  1  0
 26 25  2  0
M  END
$$$$
