IDH.pdb
     RDKit          3D

 27 27  0  0  1  0  0  0  0  0999 V2000
   19.7596  -13.4480  -19.7549 C   0  0  0  0  0  0  0  0  0  0  0  0
   20.8821  -12.6574  -19.1579 C   0  0  0  0  0  0  0  0  0  0  0  0
   20.2996  -11.5202  -18.3542 C   0  0  2  0  0  0  0  0  0  0  0  0
   19.4305  -10.6764  -19.2598 C   0  0  0  0  0  0  0  0  0  0  0  0
   21.3518  -10.7013  -17.6546 C   0  0  2  0  0  0  0  0  0  0  0  0
   22.2384  -11.5760  -16.9145 N   0  0  0  0  0  0  0  0  0  0  0  0
   20.8101   -9.6201  -16.8120 C   0  0  0  0  0  0  0  0  0  0  0  0
   20.0535   -8.7202  -17.1993 O   0  0  0  0  0  0  0  0  0  0  0  0
   21.1907   -9.6115  -15.4343 N   0  0  0  0  0  0  0  0  0  0  0  0
   20.7346   -8.5337  -14.5828 C   0  0  1  0  0  0  0  0  0  0  0  0
   20.8295   -8.9474  -13.1246 C   0  0  0  0  0  0  0  0  0  0  0  0
   20.2763   -7.9331  -12.2023 C   0  0  0  0  0  0  0  0  0  0  0  0
   20.7593   -6.8053  -11.9772 O   0  0  0  0  0  0  0  0  0  0  0  0
   21.4941   -7.2790  -14.8288 C   0  0  0  0  0  0  0  0  0  0  0  0
   22.7178   -7.3848  -15.0965 O   0  0  0  0  0  0  0  0  0  0  0  0
   19.1122   -8.2732  -11.5277 O   0  0  0  0  0  0  0  0  0  0  0  0
   20.9266   -5.9896  -14.7797 N   0  0  0  0  0  0  0  0  0  0  0  0
   21.7234   -4.7705  -14.9920 C   0  0  1  0  0  0  0  0  0  0  0  0
   22.2804   -4.7211  -16.3720 C   0  0  0  0  0  0  0  0  0  0  0  0
   21.1821   -4.6512  -17.3598 C   0  0  0  0  0  0  0  0  0  0  0  0
   19.8303   -4.4900  -17.0382 C   0  0  0  0  0  0  0  0  0  0  0  0
   19.1055   -4.4677  -18.1681 N   0  0  0  0  0  0  0  0  0  0  0  0
   19.9489   -4.6091  -19.1989 C   0  0  0  0  0  0  0  0  0  0  0  0
   21.1946   -4.7188  -18.7060 N   0  0  0  0  0  0  0  0  0  0  0  0
   20.8614   -3.5843  -14.7431 C   0  0  0  0  0  0  0  0  0  0  0  0
   19.6431   -3.6324  -14.5207 O   0  0  0  0  0  0  0  0  0  0  0  0
   21.4339   -2.2962  -14.7526 O   0  0  0  0  0  0  0  0  0  0  0  0
  2  1  1  0
  3  2  1  0
  3  4  1  6
  5  7  1  0
  5  3  1  0
  5  6  1  1
  7  8  2  0
  9 10  1  0
  9  7  1  0
 10 11  1  1
 12 11  1  0
 13 12  2  0
 14 10  1  0
 14 15  2  0
 16 12  1  0
 17 14  1  0
 18 17  1  0
 18 25  1  0
 18 19  1  6
 20 19  1  0
 21 20  2  0
 22 23  1  0
 22 21  1  0
 23 24  2  0
 24 20  1  0
 25 27  1  0
 26 25  2  0
M  END
$$$$
