IDH.pdb
     RDKit          3D

 27 27  0  0  1  0  0  0  0  0999 V2000
   24.9948  -31.4848   -8.0263 C   0  0  0  0  0  0  0  0  0  0  0  0
   26.0827  -32.5060   -7.9038 C   0  0  0  0  0  0  0  0  0  0  0  0
   25.9607  -33.1851   -6.5613 C   0  0  2  0  0  0  0  0  0  0  0  0
   25.9557  -32.1295   -5.4782 C   0  0  0  0  0  0  0  0  0  0  0  0
   27.0260  -34.2247   -6.3344 C   0  0  2  0  0  0  0  0  0  0  0  0
   27.0660  -35.1358   -7.4601 N   0  0  0  0  0  0  0  0  0  0  0  0
   26.9067  -34.9369   -5.0495 C   0  0  0  0  0  0  0  0  0  0  0  0
   25.9876  -35.7054   -4.7386 O   0  0  0  0  0  0  0  0  0  0  0  0
   27.9383  -34.7212   -4.0840 N   0  0  0  0  0  0  0  0  0  0  0  0
   27.8371  -35.3590   -2.7886 C   0  0  1  0  0  0  0  0  0  0  0  0
   29.1088  -36.1337   -2.4899 C   0  0  0  0  0  0  0  0  0  0  0  0
   29.1656  -37.4358   -3.1876 C   0  0  0  0  0  0  0  0  0  0  0  0
   28.1896  -38.1578   -3.4741 O   0  0  0  0  0  0  0  0  0  0  0  0
   27.5502  -34.3746   -1.7115 C   0  0  0  0  0  0  0  0  0  0  0  0
   27.4620  -33.1644   -2.0402 O   0  0  0  0  0  0  0  0  0  0  0  0
   30.4239  -37.8915   -3.5550 O   0  0  0  0  0  0  0  0  0  0  0  0
   27.3729  -34.7166   -0.3555 N   0  0  0  0  0  0  0  0  0  0  0  0
   27.0132  -33.7208    0.6667 C   0  0  1  0  0  0  0  0  0  0  0  0
   25.7302  -33.0425    0.3340 C   0  0  0  0  0  0  0  0  0  0  0  0
   25.4086  -32.0321    1.3649 C   0  0  0  0  0  0  0  0  0  0  0  0
   26.3527  -31.2367    2.0226 C   0  0  0  0  0  0  0  0  0  0  0  0
   25.7239  -30.4310    2.8932 N   0  0  0  0  0  0  0  0  0  0  0  0
   24.4114  -30.6855    2.8130 C   0  0  0  0  0  0  0  0  0  0  0  0
   24.2293  -31.6484    1.8930 N   0  0  0  0  0  0  0  0  0  0  0  0
   26.9075  -34.4023    1.9845 C   0  0  0  0  0  0  0  0  0  0  0  0
   26.3130  -35.4722    2.1791 O   0  0  0  0  0  0  0  0  0  0  0  0
   27.5135  -33.8213    3.1168 O   0  0  0  0  0  0  0  0  0  0  0  0
  2  1  1  0
  3  2  1  0
  3  4  1  1
  5  7  1  0
  5  3  1  0
  5  6  1  6
  7  8  2  0
  9 10  1  0
  9  7  1  0
 10 11  1  1
 12 11  1  0
 13 12  2  0
 14 10  1  0
 14 15  2  0
 16 12  1  0
 17 14  1  0
 18 17  1  0
 18 25  1  0
 18 19  1  6
 20 19  1  0
 21 20  2  0
 22 23  1  0
 22 21  1  0
 23 24  2  0
 24 20  1  0
 25 27  1  0
 26 25  2  0
M  END
$$$$
