IDH.pdb
     RDKit          3D

 27 27  0  0  1  0  0  0  0  0999 V2000
   20.1237  -16.1988  -17.0090 C   0  0  0  0  0  0  0  0  0  0  0  0
   18.8950  -15.5839  -16.4143 C   0  0  0  0  0  0  0  0  0  0  0  0
   18.8851  -14.1100  -16.7393 C   0  0  2  0  0  0  0  0  0  0  0  0
   20.1750  -13.4922  -16.2473 C   0  0  0  0  0  0  0  0  0  0  0  0
   17.6735  -13.4007  -16.1953 C   0  0  2  0  0  0  0  0  0  0  0  0
   16.4753  -14.1211  -16.5749 N   0  0  0  0  0  0  0  0  0  0  0  0
   17.5997  -11.9737  -16.5568 C   0  0  0  0  0  0  0  0  0  0  0  0
   17.5465  -11.5284  -17.7105 O   0  0  0  0  0  0  0  0  0  0  0  0
   17.5887  -11.0274  -15.4856 N   0  0  0  0  0  0  0  0  0  0  0  0
   17.5191   -9.6147  -15.7927 C   0  0  1  0  0  0  0  0  0  0  0  0
   16.4325   -8.9551  -14.9616 C   0  0  0  0  0  0  0  0  0  0  0  0
   15.0717   -9.3783  -15.3547 C   0  0  0  0  0  0  0  0  0  0  0  0
   14.6413   -9.4727  -16.5217 O   0  0  0  0  0  0  0  0  0  0  0  0
   18.8285   -8.9412  -15.5848 C   0  0  0  0  0  0  0  0  0  0  0  0
   19.4330   -9.1687  -14.5063 O   0  0  0  0  0  0  0  0  0  0  0  0
   14.1972   -9.6989  -14.3260 O   0  0  0  0  0  0  0  0  0  0  0  0
   19.4259   -8.0702  -16.5184 N   0  0  0  0  0  0  0  0  0  0  0  0
   20.6844   -7.3601  -16.2389 C   0  0  1  0  0  0  0  0  0  0  0  0
   21.2265   -6.7153  -17.4666 C   0  0  0  0  0  0  0  0  0  0  0  0
   22.4319   -5.9256  -17.1345 C   0  0  0  0  0  0  0  0  0  0  0  0
   23.6681   -6.4722  -16.7744 C   0  0  0  0  0  0  0  0  0  0  0  0
   24.5404   -5.4790  -16.5396 N   0  0  0  0  0  0  0  0  0  0  0  0
   23.9026   -4.3180  -16.7377 C   0  0  0  0  0  0  0  0  0  0  0  0
   22.6365   -4.5939  -17.0948 N   0  0  0  0  0  0  0  0  0  0  0  0
   20.4351   -6.3371  -15.1885 C   0  0  0  0  0  0  0  0  0  0  0  0
   19.3753   -5.7090  -15.0536 O   0  0  0  0  0  0  0  0  0  0  0  0
   21.4523   -6.0322  -14.2614 O   0  0  0  0  0  0  0  0  0  0  0  0
  2  1  1  0
  3  2  1  0
  3  4  1  1
  5  7  1  0
  5  3  1  0
  5  6  1  6
  7  8  2  0
  9 10  1  0
  9  7  1  0
 10 11  1  1
 12 11  1  0
 13 12  2  0
 14 10  1  0
 14 15  2  0
 16 12  1  0
 17 14  1  0
 18 17  1  0
 18 25  1  0
 18 19  1  6
 20 19  1  0
 21 20  2  0
 22 23  1  0
 22 21  1  0
 23 24  2  0
 24 20  1  0
 25 27  1  0
 26 25  2  0
M  END
$$$$
