IDH.pdb
     RDKit          3D

 27 27  0  0  1  0  0  0  0  0999 V2000
   25.7044  -16.3154  -15.7165 C   0  0  0  0  0  0  0  0  0  0  0  0
   25.8161  -17.8075  -15.7689 C   0  0  0  0  0  0  0  0  0  0  0  0
   26.9303  -18.2424  -14.8483 C   0  0  2  0  0  0  0  0  0  0  0  0
   28.2306  -17.6458  -15.3387 C   0  0  0  0  0  0  0  0  0  0  0  0
   27.0137  -19.7384  -14.6995 C   0  0  2  0  0  0  0  0  0  0  0  0
   27.3277  -20.3390  -15.9800 N   0  0  0  0  0  0  0  0  0  0  0  0
   25.8239  -20.3479  -14.0787 C   0  0  0  0  0  0  0  0  0  0  0  0
   25.0105  -21.0811  -14.6557 O   0  0  0  0  0  0  0  0  0  0  0  0
   25.5918  -20.0683  -12.6963 N   0  0  0  0  0  0  0  0  0  0  0  0
   24.4648  -20.6863  -12.0309 C   0  0  1  0  0  0  0  0  0  0  0  0
   24.7309  -20.7825  -10.5388 C   0  0  0  0  0  0  0  0  0  0  0  0
   26.0512  -21.3703  -10.2273 C   0  0  0  0  0  0  0  0  0  0  0  0
   26.5534  -22.3747  -10.7702 O   0  0  0  0  0  0  0  0  0  0  0  0
   23.1987  -19.9533  -12.2978 C   0  0  0  0  0  0  0  0  0  0  0  0
   23.2475  -18.6972  -12.3114 O   0  0  0  0  0  0  0  0  0  0  0  0
   26.7955  -20.7419   -9.2389 O   0  0  0  0  0  0  0  0  0  0  0  0
   21.9581  -20.5796  -12.5342 N   0  0  0  0  0  0  0  0  0  0  0  0
   20.9921  -20.0658  -13.5187 C   0  0  1  0  0  0  0  0  0  0  0  0
   21.5852  -20.0147  -14.8834 C   0  0  0  0  0  0  0  0  0  0  0  0
   20.6069  -19.4545  -15.8407 C   0  0  0  0  0  0  0  0  0  0  0  0
   19.3389  -18.9754  -15.4953 C   0  0  0  0  0  0  0  0  0  0  0  0
   18.7132  -18.5408  -16.6008 N   0  0  0  0  0  0  0  0  0  0  0  0
   19.5388  -18.7264  -17.6389 C   0  0  0  0  0  0  0  0  0  0  0  0
   20.6745  -19.2757  -17.1750 N   0  0  0  0  0  0  0  0  0  0  0  0
   19.7898  -20.9411  -13.5132 C   0  0  0  0  0  0  0  0  0  0  0  0
   19.8162  -22.1757  -13.6176 O   0  0  0  0  0  0  0  0  0  0  0  0
   18.5110  -20.3628  -13.3819 O   0  0  0  0  0  0  0  0  0  0  0  0
  2  1  1  0
  3  2  1  0
  3  4  1  6
  5  7  1  0
  5  3  1  0
  5  6  1  6
  7  8  2  0
  9 10  1  0
  9  7  1  0
 10 11  1  1
 12 11  1  0
 13 12  2  0
 14 10  1  0
 14 15  2  0
 16 12  1  0
 17 14  1  0
 18 17  1  0
 18 25  1  0
 18 19  1  6
 20 19  1  0
 21 20  2  0
 22 23  1  0
 22 21  1  0
 23 24  2  0
 24 20  1  0
 25 27  1  0
 26 25  2  0
M  END
$$$$
