IDH.pdb
     RDKit          3D

 27 27  0  0  1  0  0  0  0  0999 V2000
   15.7623  -12.4217  -15.8531 C   0  0  0  0  0  0  0  0  0  0  0  0
   16.9695  -12.2695  -16.7254 C   0  0  0  0  0  0  0  0  0  0  0  0
   17.5733  -13.6330  -16.9589 C   0  0  2  0  0  0  0  0  0  0  0  0
   17.8993  -14.2589  -15.6212 C   0  0  0  0  0  0  0  0  0  0  0  0
   18.7697  -13.5927  -17.8722 C   0  0  2  0  0  0  0  0  0  0  0  0
   19.2252  -14.9418  -18.1391 N   0  0  0  0  0  0  0  0  0  0  0  0
   19.8608  -12.7240  -17.3954 C   0  0  0  0  0  0  0  0  0  0  0  0
   20.7965  -13.0821  -16.6686 O   0  0  0  0  0  0  0  0  0  0  0  0
   19.8346  -11.3555  -17.8073 N   0  0  0  0  0  0  0  0  0  0  0  0
   20.8670  -10.4569  -17.3364 C   0  0  1  0  0  0  0  0  0  0  0  0
   21.7044   -9.9690  -18.5057 C   0  0  0  0  0  0  0  0  0  0  0  0
   22.8249   -9.1003  -18.0871 C   0  0  0  0  0  0  0  0  0  0  0  0
   23.6156   -9.3241  -17.1487 O   0  0  0  0  0  0  0  0  0  0  0  0
   20.2962   -9.3120  -16.5783 C   0  0  0  0  0  0  0  0  0  0  0  0
   19.3204   -8.7066  -17.0897 O   0  0  0  0  0  0  0  0  0  0  0  0
   23.0087   -7.9292  -18.8087 O   0  0  0  0  0  0  0  0  0  0  0  0
   20.7814   -8.8701  -15.3307 N   0  0  0  0  0  0  0  0  0  0  0  0
   20.1842   -7.7330  -14.6120 C   0  0  1  0  0  0  0  0  0  0  0  0
   20.3870   -7.8548  -13.1420 C   0  0  0  0  0  0  0  0  0  0  0  0
   19.3024   -8.6643  -12.5459 C   0  0  0  0  0  0  0  0  0  0  0  0
   18.2345   -9.2158  -13.2614 C   0  0  0  0  0  0  0  0  0  0  0  0
   17.4355   -9.8879  -12.4174 N   0  0  0  0  0  0  0  0  0  0  0  0
   17.9576   -9.7838  -11.1884 C   0  0  0  0  0  0  0  0  0  0  0  0
   19.0789   -9.0475  -11.2731 N   0  0  0  0  0  0  0  0  0  0  0  0
   20.7969   -6.4737  -15.1127 C   0  0  0  0  0  0  0  0  0  0  0  0
   20.2539   -5.3604  -15.0708 O   0  0  0  0  0  0  0  0  0  0  0  0
   22.0858   -6.5076  -15.6825 O   0  0  0  0  0  0  0  0  0  0  0  0
  2  1  1  0
  3  2  1  0
  3  4  1  1
  5  7  1  0
  5  3  1  0
  5  6  1  1
  7  8  2  0
  9 10  1  0
  9  7  1  0
 10 11  1  6
 12 11  1  0
 13 12  2  0
 14 10  1  0
 14 15  2  0
 16 12  1  0
 17 14  1  0
 18 17  1  0
 18 25  1  0
 18 19  1  1
 20 19  1  0
 21 20  2  0
 22 23  1  0
 22 21  1  0
 23 24  2  0
 24 20  1  0
 25 27  1  0
 26 25  2  0
M  END
$$$$
