IDH.pdb
     RDKit          3D

 27 27  0  0  1  0  0  0  0  0999 V2000
   29.0485  -21.4619  -11.4305 C   0  0  0  0  0  0  0  0  0  0  0  0
   27.5642  -21.6513  -11.4815 C   0  0  0  0  0  0  0  0  0  0  0  0
   26.8973  -20.3738  -11.0326 C   0  0  2  0  0  0  0  0  0  0  0  0
   27.3304  -20.0679   -9.6161 C   0  0  0  0  0  0  0  0  0  0  0  0
   25.3986  -20.4188  -11.1696 C   0  0  2  0  0  0  0  0  0  0  0  0
   24.8652  -21.4842  -10.3453 N   0  0  0  0  0  0  0  0  0  0  0  0
   24.9247  -20.5062  -12.5625 C   0  0  0  0  0  0  0  0  0  0  0  0
   25.1811  -19.6924  -13.4592 O   0  0  0  0  0  0  0  0  0  0  0  0
   24.1013  -21.6235  -12.9043 N   0  0  0  0  0  0  0  0  0  0  0  0
   23.5747  -21.7270  -14.2486 C   0  0  1  0  0  0  0  0  0  0  0  0
   23.0489  -23.1305  -14.4943 C   0  0  0  0  0  0  0  0  0  0  0  0
   22.4953  -23.3069  -15.8536 C   0  0  0  0  0  0  0  0  0  0  0  0
   21.3354  -23.6723  -16.1315 O   0  0  0  0  0  0  0  0  0  0  0  0
   22.5184  -20.7122  -14.5053 C   0  0  0  0  0  0  0  0  0  0  0  0
   21.5701  -20.6413  -13.6831 O   0  0  0  0  0  0  0  0  0  0  0  0
   23.3497  -23.0397  -16.9140 O   0  0  0  0  0  0  0  0  0  0  0  0
   22.5187  -19.8331  -15.6073 N   0  0  0  0  0  0  0  0  0  0  0  0
   21.3859  -18.9411  -15.9027 C   0  0  1  0  0  0  0  0  0  0  0  0
   21.8161  -17.7707  -16.7164 C   0  0  0  0  0  0  0  0  0  0  0  0
   20.6575  -16.8961  -16.9987 C   0  0  0  0  0  0  0  0  0  0  0  0
   20.0738  -16.0238  -16.0739 C   0  0  0  0  0  0  0  0  0  0  0  0
   19.0471  -15.3835  -16.6556 N   0  0  0  0  0  0  0  0  0  0  0  0
   18.9563  -15.8177  -17.9194 C   0  0  0  0  0  0  0  0  0  0  0  0
   19.9267  -16.7261  -18.1185 N   0  0  0  0  0  0  0  0  0  0  0  0
   20.3420  -19.7146  -16.6267 C   0  0  0  0  0  0  0  0  0  0  0  0
   20.5664  -20.6952  -17.3505 O   0  0  0  0  0  0  0  0  0  0  0  0
   18.9895  -19.3363  -16.5064 O   0  0  0  0  0  0  0  0  0  0  0  0
  2  1  1  0
  3  2  1  0
  3  4  1  1
  5  7  1  0
  5  3  1  0
  5  6  1  1
  7  8  2  0
  9 10  1  0
  9  7  1  0
 10 11  1  1
 12 11  1  0
 13 12  2  0
 14 10  1  0
 14 15  2  0
 16 12  1  0
 17 14  1  0
 18 17  1  0
 18 25  1  0
 18 19  1  6
 20 19  1  0
 21 20  2  0
 22 23  1  0
 22 21  1  0
 23 24  2  0
 24 20  1  0
 25 27  1  0
 26 25  2  0
M  END
$$$$
