IDH.pdb
     RDKit          3D

 27 27  0  0  1  0  0  0  0  0999 V2000
   28.0003  -19.6611   -7.6119 C   0  0  0  0  0  0  0  0  0  0  0  0
   27.1502  -20.7197   -8.2429 C   0  0  0  0  0  0  0  0  0  0  0  0
   26.4369  -20.1231   -9.4319 C   0  0  2  0  0  0  0  0  0  0  0  0
   25.5657  -18.9816   -8.9571 C   0  0  0  0  0  0  0  0  0  0  0  0
   25.6557  -21.1438  -10.2161 C   0  0  2  0  0  0  0  0  0  0  0  0
   26.4661  -22.3274  -10.4191 N   0  0  0  0  0  0  0  0  0  0  0  0
   25.0970  -20.6316  -11.4801 C   0  0  0  0  0  0  0  0  0  0  0  0
   24.3506  -19.6502  -11.5883 O   0  0  0  0  0  0  0  0  0  0  0  0
   25.4470  -21.3267  -12.6791 N   0  0  0  0  0  0  0  0  0  0  0  0
   24.8305  -20.9338  -13.9282 C   0  0  1  0  0  0  0  0  0  0  0  0
   25.6052  -21.5178  -15.0966 C   0  0  0  0  0  0  0  0  0  0  0  0
   27.0381  -21.1547  -15.0749 C   0  0  0  0  0  0  0  0  0  0  0  0
   27.9868  -21.9266  -14.8296 O   0  0  0  0  0  0  0  0  0  0  0  0
   23.3999  -21.3358  -13.9862 C   0  0  0  0  0  0  0  0  0  0  0  0
   22.9742  -22.0969  -13.0808 O   0  0  0  0  0  0  0  0  0  0  0  0
   27.3500  -19.8316  -15.3540 O   0  0  0  0  0  0  0  0  0  0  0  0
   22.5016  -20.9168  -14.9885 N   0  0  0  0  0  0  0  0  0  0  0  0
   21.0877  -20.6225  -14.7051 C   0  0  1  0  0  0  0  0  0  0  0  0
   20.9523  -19.5247  -13.7084 C   0  0  0  0  0  0  0  0  0  0  0  0
   19.5254  -19.3024  -13.3895 C   0  0  0  0  0  0  0  0  0  0  0  0
   18.6707  -20.2675  -12.8468 C   0  0  0  0  0  0  0  0  0  0  0  0
   17.4488  -19.7359  -12.6836 N   0  0  0  0  0  0  0  0  0  0  0  0
   17.4952  -18.4650  -13.1037 C   0  0  0  0  0  0  0  0  0  0  0  0
   18.7457  -18.2115  -13.5265 N   0  0  0  0  0  0  0  0  0  0  0  0
   20.4110  -20.2493  -15.9758 C   0  0  0  0  0  0  0  0  0  0  0  0
   20.8945  -19.5030  -16.8391 O   0  0  0  0  0  0  0  0  0  0  0  0
   19.1273  -20.7604  -16.2545 O   0  0  0  0  0  0  0  0  0  0  0  0
  2  1  1  0
  3  2  1  0
  3  4  1  1
  5  7  1  0
  5  3  1  0
  5  6  1  6
  7  8  2  0
  9 10  1  0
  9  7  1  0
 10 11  1  6
 12 11  1  0
 13 12  2  0
 14 10  1  0
 14 15  2  0
 16 12  1  0
 17 14  1  0
 18 17  1  0
 18 25  1  0
 18 19  1  1
 20 19  1  0
 21 20  2  0
 22 23  1  0
 22 21  1  0
 23 24  2  0
 24 20  1  0
 25 27  1  0
 26 25  2  0
M  END
$$$$
