IDH.pdb
     RDKit          3D

 27 27  0  0  1  0  0  0  0  0999 V2000
   14.0940  -13.1497  -17.0383 C   0  0  0  0  0  0  0  0  0  0  0  0
   15.1847  -13.0628  -18.0601 C   0  0  0  0  0  0  0  0  0  0  0  0
   16.4182  -12.4909  -17.4046 C   0  0  2  0  0  0  0  0  0  0  0  0
   16.0707  -11.1517  -16.7937 C   0  0  0  0  0  0  0  0  0  0  0  0
   17.5892  -12.3974  -18.3463 C   0  0  2  0  0  0  0  0  0  0  0  0
   17.8909  -13.7095  -18.8813 N   0  0  0  0  0  0  0  0  0  0  0  0
   18.7784  -11.7499  -17.7641 C   0  0  0  0  0  0  0  0  0  0  0  0
   19.6107  -12.3034  -17.0341 O   0  0  0  0  0  0  0  0  0  0  0  0
   18.9862  -10.3689  -18.0687 N   0  0  0  0  0  0  0  0  0  0  0  0
   20.1147   -9.6787  -17.4813 C   0  0  1  0  0  0  0  0  0  0  0  0
   20.9369   -9.0081  -18.5680 C   0  0  0  0  0  0  0  0  0  0  0  0
   22.1101   -8.2829  -18.0358 C   0  0  0  0  0  0  0  0  0  0  0  0
   22.3812   -7.0814  -18.2332 O   0  0  0  0  0  0  0  0  0  0  0  0
   19.6830   -8.6909  -16.4568 C   0  0  0  0  0  0  0  0  0  0  0  0
   18.6964   -7.9624  -16.7330 O   0  0  0  0  0  0  0  0  0  0  0  0
   22.9868   -9.0116  -17.2445 O   0  0  0  0  0  0  0  0  0  0  0  0
   20.3102   -8.5256  -15.2053 N   0  0  0  0  0  0  0  0  0  0  0  0
   19.8990   -7.4838  -14.2504 C   0  0  1  0  0  0  0  0  0  0  0  0
   20.1270   -7.9175  -12.8444 C   0  0  0  0  0  0  0  0  0  0  0  0
   19.0492   -8.8349  -12.4157 C   0  0  0  0  0  0  0  0  0  0  0  0
   17.9647   -9.2174  -13.2122 C   0  0  0  0  0  0  0  0  0  0  0  0
   17.1780  -10.0545  -12.5174 N   0  0  0  0  0  0  0  0  0  0  0  0
   17.7237  -10.2188  -11.3054 C   0  0  0  0  0  0  0  0  0  0  0  0
   18.8474   -9.4832  -11.2513 N   0  0  0  0  0  0  0  0  0  0  0  0
   20.6655   -6.2417  -14.5357 C   0  0  0  0  0  0  0  0  0  0  0  0
   21.5255   -6.1318  -15.4213 O   0  0  0  0  0  0  0  0  0  0  0  0
   20.4253   -5.0857  -13.7656 O   0  0  0  0  0  0  0  0  0  0  0  0
  2  1  1  0
  3  2  1  0
  3  4  1  6
  5  7  1  0
  5  3  1  0
  5  6  1  1
  7  8  2  0
  9 10  1  0
  9  7  1  0
 10 11  1  6
 12 11  1  0
 13 12  2  0
 14 10  1  0
 14 15  2  0
 16 12  1  0
 17 14  1  0
 18 17  1  0
 18 25  1  0
 18 19  1  1
 20 19  1  0
 21 20  2  0
 22 23  1  0
 22 21  1  0
 23 24  2  0
 24 20  1  0
 25 27  1  0
 26 25  2  0
M  END
$$$$
