IDH.pdb
     RDKit          3D

 27 27  0  0  1  0  0  0  0  0999 V2000
   28.6444  -20.2546  -19.1127 C   0  0  0  0  0  0  0  0  0  0  0  0
   28.4969  -20.6736  -17.6830 C   0  0  0  0  0  0  0  0  0  0  0  0
   27.0423  -20.9730  -17.4135 C   0  0  2  0  0  0  0  0  0  0  0  0
   26.2163  -19.7631  -17.7896 C   0  0  0  0  0  0  0  0  0  0  0  0
   26.7900  -21.4128  -15.9958 C   0  0  2  0  0  0  0  0  0  0  0  0
   27.6571  -22.5265  -15.6691 N   0  0  0  0  0  0  0  0  0  0  0  0
   25.3762  -21.7064  -15.7002 C   0  0  0  0  0  0  0  0  0  0  0  0
   24.7492  -22.6938  -16.1054 O   0  0  0  0  0  0  0  0  0  0  0  0
   24.6725  -20.7729  -14.8776 N   0  0  0  0  0  0  0  0  0  0  0  0
   23.2857  -21.0263  -14.5501 C   0  0  1  0  0  0  0  0  0  0  0  0
   22.9468  -20.4044  -13.2067 C   0  0  0  0  0  0  0  0  0  0  0  0
   21.5954  -20.7675  -12.7299 C   0  0  0  0  0  0  0  0  0  0  0  0
   20.8207  -21.5816  -13.2712 O   0  0  0  0  0  0  0  0  0  0  0  0
   22.3700  -20.5289  -15.6111 C   0  0  0  0  0  0  0  0  0  0  0  0
   22.5141  -19.3392  -15.9907 O   0  0  0  0  0  0  0  0  0  0  0  0
   21.1537  -20.1413  -11.5728 O   0  0  0  0  0  0  0  0  0  0  0  0
   21.3588  -21.3071  -16.2104 N   0  0  0  0  0  0  0  0  0  0  0  0
   20.5191  -20.7974  -17.3065 C   0  0  1  0  0  0  0  0  0  0  0  0
   19.8773  -21.9101  -18.0593 C   0  0  0  0  0  0  0  0  0  0  0  0
   20.8849  -22.6123  -18.8832 C   0  0  0  0  0  0  0  0  0  0  0  0
   22.1504  -22.1059  -19.1972 C   0  0  0  0  0  0  0  0  0  0  0  0
   22.8071  -22.9952  -19.9590 N   0  0  0  0  0  0  0  0  0  0  0  0
   22.0036  -24.0511  -20.1414 C   0  0  0  0  0  0  0  0  0  0  0  0
   20.8506  -23.8142  -19.4924 N   0  0  0  0  0  0  0  0  0  0  0  0
   19.4817  -19.8965  -16.7372 C   0  0  0  0  0  0  0  0  0  0  0  0
   19.3910  -19.5946  -15.5386 O   0  0  0  0  0  0  0  0  0  0  0  0
   18.5148  -19.3257  -17.5895 O   0  0  0  0  0  0  0  0  0  0  0  0
  2  1  1  0
  3  2  1  0
  3  4  1  1
  5  7  1  0
  5  3  1  0
  5  6  1  6
  7  8  2  0
  9 10  1  0
  9  7  1  0
 10 11  1  1
 12 11  1  0
 13 12  2  0
 14 10  1  0
 14 15  2  0
 16 12  1  0
 17 14  1  0
 18 17  1  0
 18 25  1  0
 18 19  1  1
 20 19  1  0
 21 20  2  0
 22 23  1  0
 22 21  1  0
 23 24  2  0
 24 20  1  0
 25 27  1  0
 26 25  2  0
M  END
$$$$
