CFV.pdb
     RDKit          3D

 25 25  0  0  1  0  0  0  0  0999 V2000
    8.3146  -17.5518   20.0458 N   0  0  0  0  0  0  0  0  0  0  0  0
    9.6357  -17.1137   20.3706 C   0  0  1  0  0  0  0  0  0  0  0  0
   10.2118  -16.3871   19.1710 C   0  0  0  0  0  0  0  0  0  0  0  0
   12.0298  -16.2496   19.3616 S   0  0  0  0  0  0  0  0  0  0  0  0
    9.6303  -16.2739   21.5719 C   0  0  0  0  0  0  0  0  0  0  0  0
   10.7404  -15.8684   22.0552 O   0  0  0  0  0  0  0  0  0  0  0  0
    8.4485  -15.8719   22.2493 N   0  0  0  0  0  0  0  0  0  0  0  0
    8.5081  -15.1211   23.4709 C   0  0  1  0  0  0  0  0  0  0  0  0
    7.1994  -14.4195   23.7813 C   0  0  0  0  0  0  0  0  0  0  0  0
    7.2314  -13.6529   25.0171 C   0  0  0  0  0  0  0  0  0  0  0  0
    6.5191  -14.0366   26.1295 C   0  0  0  0  0  0  0  0  0  0  0  0
    6.5636  -13.2844   27.3095 C   0  0  0  0  0  0  0  0  0  0  0  0
    7.3283  -12.1408   27.3709 C   0  0  0  0  0  0  0  0  0  0  0  0
    8.0366  -11.7544   26.2731 C   0  0  0  0  0  0  0  0  0  0  0  0
    7.9859  -12.5074   25.1068 C   0  0  0  0  0  0  0  0  0  0  0  0
    8.8117  -15.9744   24.6480 C   0  0  0  0  0  0  0  0  0  0  0  0
    8.0570  -16.9494   24.8758 O   0  0  0  0  0  0  0  0  0  0  0  0
   11.9934  -17.6223   24.8516 C   0  0  0  0  0  0  0  0  0  0  0  0
   11.8413  -17.0665   26.2365 C   0  0  2  0  0  0  0  0  0  0  0  0
   12.3226  -18.0139   27.2923 C   0  0  0  0  0  0  0  0  0  0  0  0
   10.3828  -16.7431   26.4680 C   0  0  2  0  0  0  0  0  0  0  0  0
    9.9019  -15.7461   25.5209 N   0  0  0  0  0  0  0  0  0  0  0  0
   10.1425  -16.2359   27.8434 C   0  0  0  0  0  0  0  0  0  0  0  0
   10.2468  -16.9908   28.8454 O   0  0  0  0  0  0  0  0  0  0  0  0
    9.7927  -14.9146   28.1022 O   0  0  0  0  0  0  0  0  0  0  0  0
  2  5  1  0
  2  1  1  6
  3  2  1  0
  4  3  1  0
  5  6  2  0
  7  5  1  0
  7  8  1  0
  8  9  1  1
  9 10  1  0
 10 15  2  0
 11 12  2  0
 11 10  1  0
 12 13  1  0
 13 14  2  0
 15 14  1  0
 16 17  2  0
 16  8  1  0
 19 18  1  6
 19 21  1  0
 20 19  1  0
 21 22  1  6
 22 16  1  0
 23 25  1  0
 23 21  1  0
 24 23  2  0
M  END
$$$$
