CFV.pdb
     RDKit          3D

 25 25  0  0  1  0  0  0  0  0999 V2000
   10.3344  -16.4387   19.2833 N   0  0  0  0  0  0  0  0  0  0  0  0
    9.2121  -16.7696   20.1041 C   0  0  1  0  0  0  0  0  0  0  0  0
    9.1639  -18.2758   20.2711 C   0  0  0  0  0  0  0  0  0  0  0  0
    7.6780  -18.7302   21.2438 S   0  0  0  0  0  0  0  0  0  0  0  0
    9.2809  -16.0751   21.3930 C   0  0  0  0  0  0  0  0  0  0  0  0
   10.4036  -15.9852   21.9946 O   0  0  0  0  0  0  0  0  0  0  0  0
    8.1594  -15.4827   22.0319 N   0  0  0  0  0  0  0  0  0  0  0  0
    8.2764  -14.8655   23.3224 C   0  0  1  0  0  0  0  0  0  0  0  0
    7.0635  -14.0238   23.6713 C   0  0  0  0  0  0  0  0  0  0  0  0
    7.1677  -13.3647   24.9637 C   0  0  0  0  0  0  0  0  0  0  0  0
    6.3243  -13.6708   26.0064 C   0  0  0  0  0  0  0  0  0  0  0  0
    6.4415  -13.0245   27.2427 C   0  0  0  0  0  0  0  0  0  0  0  0
    7.4116  -12.0655   27.4314 C   0  0  0  0  0  0  0  0  0  0  0  0
    8.2507  -11.7568   26.4033 C   0  0  0  0  0  0  0  0  0  0  0  0
    8.1265  -12.4037   25.1803 C   0  0  0  0  0  0  0  0  0  0  0  0
    8.4215  -15.8594   24.4165 C   0  0  0  0  0  0  0  0  0  0  0  0
    7.5447  -16.7496   24.5201 O   0  0  0  0  0  0  0  0  0  0  0  0
   10.9568  -18.2288   24.4896 C   0  0  0  0  0  0  0  0  0  0  0  0
   11.0864  -17.6432   25.8644 C   0  0  2  0  0  0  0  0  0  0  0  0
   11.4321  -18.6718   26.8971 C   0  0  0  0  0  0  0  0  0  0  0  0
    9.7803  -16.9745   26.2281 C   0  0  2  0  0  0  0  0  0  0  0  0
    9.4913  -15.8542   25.3427 N   0  0  0  0  0  0  0  0  0  0  0  0
    9.7877  -16.4752   27.6271 C   0  0  0  0  0  0  0  0  0  0  0  0
    9.6634  -17.2620   28.6019 O   0  0  0  0  0  0  0  0  0  0  0  0
    9.9304  -15.1270   27.9387 O   0  0  0  0  0  0  0  0  0  0  0  0
  2  5  1  0
  2  1  1  6
  3  2  1  0
  4  3  1  0
  5  6  2  0
  7  5  1  0
  7  8  1  0
  8  9  1  1
  9 10  1  0
 10 15  2  0
 11 12  2  0
 11 10  1  0
 12 13  1  0
 13 14  2  0
 15 14  1  0
 16 17  2  0
 16  8  1  0
 19 18  1  6
 19 21  1  0
 20 19  1  0
 21 22  1  6
 22 16  1  0
 23 25  1  0
 23 21  1  0
 24 23  2  0
M  END
$$$$
