CFV.pdb
     RDKit          3D

 25 25  0  0  1  0  0  0  0  0999 V2000
    7.8168  -13.5839   19.8393 N   0  0  0  0  0  0  0  0  0  0  0  0
    7.2669  -14.6471   20.6205 C   0  0  1  0  0  0  0  0  0  0  0  0
    7.3110  -15.9213   19.8001 C   0  0  0  0  0  0  0  0  0  0  0  0
    6.5834  -17.2939   20.7733 S   0  0  0  0  0  0  0  0  0  0  0  0
    7.9803  -14.7873   21.8932 C   0  0  0  0  0  0  0  0  0  0  0  0
    9.2396  -14.5798   21.9291 O   0  0  0  0  0  0  0  0  0  0  0  0
    7.3522  -15.1460   23.1154 N   0  0  0  0  0  0  0  0  0  0  0  0
    8.0832  -15.1701   24.3503 C   0  0  1  0  0  0  0  0  0  0  0  0
    7.1826  -14.9871   25.5573 C   0  0  0  0  0  0  0  0  0  0  0  0
    7.0043  -13.5957   25.9419 C   0  0  0  0  0  0  0  0  0  0  0  0
    5.7649  -12.9992   25.9600 C   0  0  0  0  0  0  0  0  0  0  0  0
    5.6151  -11.6583   26.3334 C   0  0  0  0  0  0  0  0  0  0  0  0
    6.7170  -10.9135   26.6904 C   0  0  0  0  0  0  0  0  0  0  0  0
    7.9480  -11.4974   26.6749 C   0  0  0  0  0  0  0  0  0  0  0  0
    8.0864  -12.8287   26.3029 C   0  0  0  0  0  0  0  0  0  0  0  0
    8.8033  -16.4521   24.5595 C   0  0  0  0  0  0  0  0  0  0  0  0
    8.1717  -17.5178   24.3662 O   0  0  0  0  0  0  0  0  0  0  0  0
   12.3263  -17.2234   23.2451 C   0  0  0  0  0  0  0  0  0  0  0  0
   12.3042  -17.6837   24.6725 C   0  0  2  0  0  0  0  0  0  0  0  0
   12.9978  -18.9975   24.8638 C   0  0  0  0  0  0  0  0  0  0  0  0
   10.8645  -17.7973   25.1195 C   0  0  2  0  0  0  0  0  0  0  0  0
   10.1572  -16.5333   24.9630 N   0  0  0  0  0  0  0  0  0  0  0  0
   10.7603  -18.2187   26.5402 C   0  0  0  0  0  0  0  0  0  0  0  0
   10.7024  -17.3720   27.4700 O   0  0  0  0  0  0  0  0  0  0  0  0
   10.7210  -19.5558   26.9221 O   0  0  0  0  0  0  0  0  0  0  0  0
  2  5  1  0
  2  1  1  6
  3  2  1  0
  4  3  1  0
  5  6  2  0
  7  5  1  0
  7  8  1  0
  8  9  1  1
  9 10  1  0
 10 15  2  0
 11 12  2  0
 11 10  1  0
 12 13  1  0
 13 14  2  0
 15 14  1  0
 16 17  2  0
 16  8  1  0
 19 18  1  6
 19 21  1  0
 20 19  1  0
 21 22  1  1
 22 16  1  0
 23 25  1  0
 23 21  1  0
 24 23  2  0
M  END
$$$$
