CFV.pdb
     RDKit          3D

 25 25  0  0  1  0  0  0  0  0999 V2000
   12.2619  -16.6742   20.1830 N   0  0  0  0  0  0  0  0  0  0  0  0
   11.0970  -17.1934   20.8283 C   0  0  1  0  0  0  0  0  0  0  0  0
   11.4098  -18.5851   21.3419 C   0  0  0  0  0  0  0  0  0  0  0  0
   12.7458  -18.4832   22.5929 S   0  0  0  0  0  0  0  0  0  0  0  0
   10.6475  -16.2998   21.8996 C   0  0  0  0  0  0  0  0  0  0  0  0
   11.4422  -15.4017   22.3380 O   0  0  0  0  0  0  0  0  0  0  0  0
    9.3602  -16.3665   22.4958 N   0  0  0  0  0  0  0  0  0  0  0  0
    8.9881  -15.4865   23.5668 C   0  0  1  0  0  0  0  0  0  0  0  0
    7.4885  -15.2693   23.6402 C   0  0  0  0  0  0  0  0  0  0  0  0
    7.1040  -14.1693   24.5108 C   0  0  0  0  0  0  0  0  0  0  0  0
    6.3545  -14.3687   25.6468 C   0  0  0  0  0  0  0  0  0  0  0  0
    5.9950  -13.2959   26.4714 C   0  0  0  0  0  0  0  0  0  0  0  0
    6.3912  -12.0163   26.1518 C   0  0  0  0  0  0  0  0  0  0  0  0
    7.1338  -11.8110   25.0282 C   0  0  0  0  0  0  0  0  0  0  0  0
    7.4855  -12.8820   24.2163 C   0  0  0  0  0  0  0  0  0  0  0  0
    9.3988  -16.0047   24.8967 C   0  0  0  0  0  0  0  0  0  0  0  0
    9.6458  -17.2297   24.9980 O   0  0  0  0  0  0  0  0  0  0  0  0
   10.5782  -13.3098   27.9125 C   0  0  0  0  0  0  0  0  0  0  0  0
   10.0414  -14.6302   28.3799 C   0  0  2  0  0  0  0  0  0  0  0  0
   10.7347  -15.1295   29.6103 C   0  0  0  0  0  0  0  0  0  0  0  0
   10.1979  -15.6364   27.2626 C   0  0  2  0  0  0  0  0  0  0  0  0
    9.5253  -15.1928   26.0489 N   0  0  0  0  0  0  0  0  0  0  0  0
    9.6546  -16.9667   27.6390 C   0  0  0  0  0  0  0  0  0  0  0  0
    8.4649  -17.2841   27.3771 O   0  0  0  0  0  0  0  0  0  0  0  0
   10.4178  -17.9275   28.2944 O   0  0  0  0  0  0  0  0  0  0  0  0
  2  5  1  0
  2  1  1  1
  3  2  1  0
  4  3  1  0
  5  6  2  0
  7  5  1  0
  7  8  1  0
  8  9  1  1
  9 10  1  0
 10 15  2  0
 11 12  2  0
 11 10  1  0
 12 13  1  0
 13 14  2  0
 15 14  1  0
 16 17  2  0
 16  8  1  0
 19 18  1  6
 19 21  1  0
 20 19  1  0
 21 22  1  6
 22 16  1  0
 23 25  1  0
 23 21  1  0
 24 23  2  0
M  END
$$$$
