CFV.pdb
     RDKit          3D

 25 25  0  0  1  0  0  0  0  0999 V2000
    9.2380  -16.9781   19.0202 N   0  0  0  0  0  0  0  0  0  0  0  0
    8.4918  -17.4749   20.1334 C   0  0  1  0  0  0  0  0  0  0  0  0
    8.8854  -18.9195   20.3721 C   0  0  0  0  0  0  0  0  0  0  0  0
    7.8602  -19.6111   21.7252 S   0  0  0  0  0  0  0  0  0  0  0  0
    8.7045  -16.6434   21.3216 C   0  0  0  0  0  0  0  0  0  0  0  0
    9.8877  -16.2625   21.6134 O   0  0  0  0  0  0  0  0  0  0  0  0
    7.6611  -16.2237   22.1890 N   0  0  0  0  0  0  0  0  0  0  0  0
    7.9401  -15.4877   23.3891 C   0  0  1  0  0  0  0  0  0  0  0  0
    6.7144  -14.7722   23.9250 C   0  0  0  0  0  0  0  0  0  0  0  0
    6.9880  -13.9485   25.0922 C   0  0  0  0  0  0  0  0  0  0  0  0
    7.7635  -12.8149   25.0167 C   0  0  0  0  0  0  0  0  0  0  0  0
    8.0148  -12.0358   26.1524 C   0  0  0  0  0  0  0  0  0  0  0  0
    7.4837  -12.3986   27.3701 C   0  0  0  0  0  0  0  0  0  0  0  0
    6.7147  -13.5202   27.4528 C   0  0  0  0  0  0  0  0  0  0  0  0
    6.4710  -14.2867   26.3201 C   0  0  0  0  0  0  0  0  0  0  0  0
    8.4274  -16.3584   24.4893 C   0  0  0  0  0  0  0  0  0  0  0  0
    7.7448  -17.3679   24.7844 O   0  0  0  0  0  0  0  0  0  0  0  0
   11.7864  -17.8242   24.3945 C   0  0  0  0  0  0  0  0  0  0  0  0
   11.6757  -17.3071   25.7981 C   0  0  2  0  0  0  0  0  0  0  0  0
   12.2770  -18.2403   26.8038 C   0  0  0  0  0  0  0  0  0  0  0  0
   10.2143  -17.0872   26.1164 C   0  0  2  0  0  0  0  0  0  0  0  0
    9.6150  -16.1099   25.2175 N   0  0  0  0  0  0  0  0  0  0  0  0
   10.0187  -16.6200   27.5129 C   0  0  0  0  0  0  0  0  0  0  0  0
   10.0401  -15.3947   27.8006 O   0  0  0  0  0  0  0  0  0  0  0  0
    9.8032  -17.4970   28.5711 O   0  0  0  0  0  0  0  0  0  0  0  0
  2  5  1  0
  2  1  1  6
  3  2  1  0
  4  3  1  0
  5  6  2  0
  7  5  1  0
  7  8  1  0
  8  9  1  1
  9 10  1  0
 10 15  2  0
 11 12  2  0
 11 10  1  0
 12 13  1  0
 13 14  2  0
 15 14  1  0
 16 17  2  0
 16  8  1  0
 19 18  1  6
 19 21  1  0
 20 19  1  0
 21 22  1  6
 22 16  1  0
 23 25  1  0
 23 21  1  0
 24 23  2  0
M  END
$$$$
