CFV.pdb
     RDKit          3D

 25 25  0  0  1  0  0  0  0  0999 V2000
    9.8509  -16.5620   19.0322 N   0  0  0  0  0  0  0  0  0  0  0  0
    9.2175  -17.2335   20.1233 C   0  0  1  0  0  0  0  0  0  0  0  0
    9.8699  -18.5909   20.2987 C   0  0  0  0  0  0  0  0  0  0  0  0
    9.1797  -19.4069   21.7881 S   0  0  0  0  0  0  0  0  0  0  0  0
    9.2851  -16.4286   21.3463 C   0  0  0  0  0  0  0  0  0  0  0  0
   10.4036  -15.9252   21.7013 O   0  0  0  0  0  0  0  0  0  0  0  0
    8.1669  -16.1647   22.1812 N   0  0  0  0  0  0  0  0  0  0  0  0
    8.2992  -15.3894   23.3816 C   0  0  1  0  0  0  0  0  0  0  0  0
    7.0253  -14.6425   23.7292 C   0  0  0  0  0  0  0  0  0  0  0  0
    7.1380  -13.8328   24.9323 C   0  0  0  0  0  0  0  0  0  0  0  0
    7.7941  -12.6238   24.9364 C   0  0  0  0  0  0  0  0  0  0  0  0
    7.8912  -11.8597   26.1055 C   0  0  0  0  0  0  0  0  0  0  0  0
    7.3258  -12.3137   27.2762 C   0  0  0  0  0  0  0  0  0  0  0  0
    6.6743  -13.5103   27.2799 C   0  0  0  0  0  0  0  0  0  0  0  0
    6.5832  -14.2612   26.1148 C   0  0  0  0  0  0  0  0  0  0  0  0
    8.6270  -16.2253   24.5647 C   0  0  0  0  0  0  0  0  0  0  0  0
    7.8295  -17.1420   24.8741 O   0  0  0  0  0  0  0  0  0  0  0  0
   12.5410  -16.3187   26.2210 C   0  0  0  0  0  0  0  0  0  0  0  0
   11.5986  -17.4842   26.1634 C   0  0  2  0  0  0  0  0  0  0  0  0
   11.6642  -18.2126   24.8561 C   0  0  0  0  0  0  0  0  0  0  0  0
   10.1929  -16.9787   26.3955 C   0  0  2  0  0  0  0  0  0  0  0  0
    9.7856  -16.0425   25.3563 N   0  0  0  0  0  0  0  0  0  0  0  0
   10.0606  -16.3030   27.7118 C   0  0  0  0  0  0  0  0  0  0  0  0
    9.9099  -15.0559   27.7935 O   0  0  0  0  0  0  0  0  0  0  0  0
   10.0950  -16.9989   28.9159 O   0  0  0  0  0  0  0  0  0  0  0  0
  2  5  1  0
  2  1  1  6
  3  2  1  0
  4  3  1  0
  5  6  2  0
  7  5  1  0
  7  8  1  0
  8  9  1  1
  9 10  1  0
 10 15  2  0
 11 12  2  0
 11 10  1  0
 12 13  1  0
 13 14  2  0
 15 14  1  0
 16 17  2  0
 16  8  1  0
 19 18  1  6
 19 21  1  0
 20 19  1  0
 21 22  1  6
 22 16  1  0
 23 25  1  0
 23 21  1  0
 24 23  2  0
M  END
$$$$
