CFV.pdb
     RDKit          3D

 25 25  0  0  1  0  0  0  0  0999 V2000
   11.8771  -16.3451   20.0295 N   0  0  0  0  0  0  0  0  0  0  0  0
   11.0659  -17.0786   20.9498 C   0  0  1  0  0  0  0  0  0  0  0  0
   11.8593  -18.2704   21.4487 C   0  0  0  0  0  0  0  0  0  0  0  0
   10.9175  -19.8074   21.1157 S   0  0  0  0  0  0  0  0  0  0  0  0
   10.6115  -16.2214   22.0484 C   0  0  0  0  0  0  0  0  0  0  0  0
   11.4161  -15.3628   22.5442 O   0  0  0  0  0  0  0  0  0  0  0  0
    9.3089  -16.2823   22.6110 N   0  0  0  0  0  0  0  0  0  0  0  0
    8.9171  -15.4093   23.6807 C   0  0  1  0  0  0  0  0  0  0  0  0
    7.4325  -15.0984   23.6571 C   0  0  0  0  0  0  0  0  0  0  0  0
    7.0347  -14.0956   24.6328 C   0  0  0  0  0  0  0  0  0  0  0  0
    6.2588  -14.4105   25.7242 C   0  0  0  0  0  0  0  0  0  0  0  0
    5.8869  -13.4300   26.6518 C   0  0  0  0  0  0  0  0  0  0  0  0
    6.2972  -12.1267   26.4810 C   0  0  0  0  0  0  0  0  0  0  0  0
    7.0658  -11.8072   25.4024 C   0  0  0  0  0  0  0  0  0  0  0  0
    7.4298  -12.7871   24.4874 C   0  0  0  0  0  0  0  0  0  0  0  0
    9.1994  -15.9883   25.0189 C   0  0  0  0  0  0  0  0  0  0  0  0
    9.1107  -17.2321   25.1503 O   0  0  0  0  0  0  0  0  0  0  0  0
    9.1724  -14.1457   28.8743 C   0  0  0  0  0  0  0  0  0  0  0  0
   10.4629  -14.7246   28.3750 C   0  0  2  0  0  0  0  0  0  0  0  0
   11.3608  -13.6900   27.7691 C   0  0  0  0  0  0  0  0  0  0  0  0
   10.1480  -15.7900   27.3497 C   0  0  2  0  0  0  0  0  0  0  0  0
    9.5613  -15.2143   26.1469 N   0  0  0  0  0  0  0  0  0  0  0  0
    9.2104  -16.8101   27.8853 C   0  0  0  0  0  0  0  0  0  0  0  0
    8.0029  -16.8375   27.5307 O   0  0  0  0  0  0  0  0  0  0  0  0
    9.6059  -17.7826   28.7981 O   0  0  0  0  0  0  0  0  0  0  0  0
  2  5  1  0
  2  1  1  6
  3  2  1  0
  4  3  1  0
  5  6  2  0
  7  5  1  0
  7  8  1  0
  8  9  1  1
  9 10  1  0
 10 15  2  0
 11 12  2  0
 11 10  1  0
 12 13  1  0
 13 14  2  0
 15 14  1  0
 16 17  2  0
 16  8  1  0
 19 18  1  6
 19 21  1  0
 20 19  1  0
 21 22  1  6
 22 16  1  0
 23 25  1  0
 23 21  1  0
 24 23  2  0
M  END
$$$$
