CFV.pdb
     RDKit          3D

 25 25  0  0  1  0  0  0  0  0999 V2000
    8.0572  -13.4526   19.6459 N   0  0  0  0  0  0  0  0  0  0  0  0
    7.4695  -14.5211   20.3913 C   0  0  1  0  0  0  0  0  0  0  0  0
    7.6168  -15.8030   19.5951 C   0  0  0  0  0  0  0  0  0  0  0  0
    6.8515  -17.1851   20.5249 S   0  0  0  0  0  0  0  0  0  0  0  0
    8.0738  -14.6278   21.7223 C   0  0  0  0  0  0  0  0  0  0  0  0
    9.3222  -14.3985   21.8613 O   0  0  0  0  0  0  0  0  0  0  0  0
    7.3495  -14.9765   22.8931 N   0  0  0  0  0  0  0  0  0  0  0  0
    7.9954  -15.0609   24.1720 C   0  0  1  0  0  0  0  0  0  0  0  0
    7.0203  -14.8966   25.3225 C   0  0  0  0  0  0  0  0  0  0  0  0
    6.9534  -13.5374   25.8360 C   0  0  0  0  0  0  0  0  0  0  0  0
    8.0729  -12.8703   26.2764 C   0  0  0  0  0  0  0  0  0  0  0  0
    7.9867  -11.5620   26.7671 C   0  0  0  0  0  0  0  0  0  0  0  0
    6.7686  -10.9213   26.8151 C   0  0  0  0  0  0  0  0  0  0  0  0
    5.6553  -11.5755   26.3806 C   0  0  0  0  0  0  0  0  0  0  0  0
    5.7511  -12.8737   25.8954 C   0  0  0  0  0  0  0  0  0  0  0  0
    8.6705  -16.3670   24.3824 C   0  0  0  0  0  0  0  0  0  0  0  0
    8.0555  -17.4062   24.0450 O   0  0  0  0  0  0  0  0  0  0  0  0
   12.0381  -17.3417   23.1068 C   0  0  0  0  0  0  0  0  0  0  0  0
   12.0685  -17.7016   24.5626 C   0  0  2  0  0  0  0  0  0  0  0  0
   12.7685  -19.0009   24.8191 C   0  0  0  0  0  0  0  0  0  0  0  0
   10.6463  -17.7800   25.0690 C   0  0  2  0  0  0  0  0  0  0  0  0
    9.9642  -16.4992   24.9405 N   0  0  0  0  0  0  0  0  0  0  0  0
   10.5908  -18.1987   26.4932 C   0  0  0  0  0  0  0  0  0  0  0  0
   10.8250  -19.3877   26.8340 O   0  0  0  0  0  0  0  0  0  0  0  0
   10.2809  -17.3137   27.5208 O   0  0  0  0  0  0  0  0  0  0  0  0
  2  5  1  0
  2  1  1  6
  3  2  1  0
  4  3  1  0
  5  6  2  0
  7  5  1  0
  7  8  1  0
  8  9  1  1
  9 10  1  0
 10 15  2  0
 11 12  2  0
 11 10  1  0
 12 13  1  0
 13 14  2  0
 15 14  1  0
 16 17  2  0
 16  8  1  0
 19 18  1  6
 19 21  1  0
 20 19  1  0
 21 22  1  1
 22 16  1  0
 23 25  1  0
 23 21  1  0
 24 23  2  0
M  END
$$$$
