ATH.pdb
     RDKit          3D

 23 23  0  0  1  0  0  0  0  0999 V2000
    8.5425  -12.1705   19.4029 C   0  0  0  0  0  0  0  0  0  0  0  0
    8.8419  -13.5622   18.8402 C   0  0  2  0  0  0  0  0  0  0  0  0
    8.0471  -13.6889   17.6372 N   0  0  0  0  0  0  0  0  0  0  0  0
    8.3980  -14.5811   19.8143 C   0  0  0  0  0  0  0  0  0  0  0  0
    7.2039  -14.9588   19.7937 O   0  0  0  0  0  0  0  0  0  0  0  0
    8.6599  -17.9682   20.0127 C   0  0  0  0  0  0  0  0  0  0  0  0
    9.3244  -17.5479   21.2855 C   0  0  1  0  0  0  0  0  0  0  0  0
   10.6973  -17.5806   21.0936 O   0  0  0  0  0  0  0  0  0  0  0  0
    8.8646  -16.1529   21.7308 C   0  0  2  0  0  0  0  0  0  0  0  0
    9.2638  -15.1589   20.7808 N   0  0  0  0  0  0  0  0  0  0  0  0
    9.5075  -15.9141   23.0727 C   0  0  0  0  0  0  0  0  0  0  0  0
   10.7009  -15.4969   23.1575 O   0  0  0  0  0  0  0  0  0  0  0  0
    8.7908  -16.1509   24.2762 N   0  0  0  0  0  0  0  0  0  0  0  0
    9.3717  -15.8030   25.5857 C   0  0  1  0  0  0  0  0  0  0  0  0
    8.2033  -15.6238   26.5228 C   0  0  0  0  0  0  0  0  0  0  0  0
    7.4367  -14.4265   26.1940 C   0  0  0  0  0  0  0  0  0  0  0  0
    7.9445  -13.1900   25.9036 C   0  0  0  0  0  0  0  0  0  0  0  0
    6.9420  -12.3336   25.6512 N   0  0  0  0  0  0  0  0  0  0  0  0
    5.8091  -13.0372   25.7844 C   0  0  0  0  0  0  0  0  0  0  0  0
    6.1003  -14.3186   26.1163 N   0  0  0  0  0  0  0  0  0  0  0  0
   10.1873  -16.9403   26.0886 C   0  0  0  0  0  0  0  0  0  0  0  0
   11.0099  -16.8069   27.2148 O   0  0  0  0  0  0  0  0  0  0  0  0
   10.1950  -18.0734   25.5508 O   0  0  0  0  0  0  0  0  0  0  0  0
  2  3  1  0
  2  1  1  1
  4  2  1  0
  5  4  2  0
  7  6  1  6
  7  9  1  0
  8  7  1  0
  9 11  1  0
  9 10  1  6
 10  4  1  0
 11 13  1  0
 12 11  2  0
 13 14  1  0
 14 15  1  1
 14 21  1  0
 16 15  1  0
 17 16  2  0
 18 17  1  0
 19 18  1  0
 19 20  2  0
 20 16  1  0
 21 23  2  0
 21 22  1  0
M  END
$$$$
