ATH.pdb
     RDKit          3D

 23 23  0  0  1  0  0  0  0  0999 V2000
    8.2348  -12.2378   19.5438 C   0  0  0  0  0  0  0  0  0  0  0  0
    8.6754  -13.6617   19.1950 C   0  0  2  0  0  0  0  0  0  0  0  0
    7.9848  -14.0078   17.9710 N   0  0  0  0  0  0  0  0  0  0  0  0
    8.2342  -14.5784   20.2668 C   0  0  0  0  0  0  0  0  0  0  0  0
    7.1116  -15.1260   20.1711 O   0  0  0  0  0  0  0  0  0  0  0  0
    8.7593  -17.6793   20.6034 C   0  0  0  0  0  0  0  0  0  0  0  0
    9.3021  -17.2436   21.9277 C   0  0  1  0  0  0  0  0  0  0  0  0
   10.6839  -17.1773   21.8336 O   0  0  0  0  0  0  0  0  0  0  0  0
    8.7154  -15.8941   22.3641 C   0  0  2  0  0  0  0  0  0  0  0  0
    9.0247  -14.8728   21.4095 N   0  0  0  0  0  0  0  0  0  0  0  0
    9.3299  -15.5903   23.7062 C   0  0  0  0  0  0  0  0  0  0  0  0
   10.4701  -15.0443   23.7912 O   0  0  0  0  0  0  0  0  0  0  0  0
    8.6455  -15.9088   24.9097 N   0  0  0  0  0  0  0  0  0  0  0  0
    9.2460  -15.6162   26.2238 C   0  0  1  0  0  0  0  0  0  0  0  0
    8.0951  -15.2823   27.1400 C   0  0  0  0  0  0  0  0  0  0  0  0
    7.4730  -14.0148   26.7719 C   0  0  0  0  0  0  0  0  0  0  0  0
    7.9842  -12.7646   26.9885 C   0  0  0  0  0  0  0  0  0  0  0  0
    7.1358  -11.8374   26.5166 N   0  0  0  0  0  0  0  0  0  0  0  0
    6.0955  -12.5105   26.0057 C   0  0  0  0  0  0  0  0  0  0  0  0
    6.2915  -13.8431   26.1566 N   0  0  0  0  0  0  0  0  0  0  0  0
    9.9088  -16.8376   26.7534 C   0  0  0  0  0  0  0  0  0  0  0  0
    9.9446  -18.0274   26.0145 O   0  0  0  0  0  0  0  0  0  0  0  0
   10.4697  -16.8860   27.8743 O   0  0  0  0  0  0  0  0  0  0  0  0
  2  3  1  0
  2  1  1  1
  4  2  1  0
  5  4  2  0
  7  6  1  6
  7  9  1  0
  8  7  1  0
  9 11  1  0
  9 10  1  6
 10  4  1  0
 11 13  1  0
 12 11  2  0
 13 14  1  0
 14 15  1  1
 14 21  1  0
 16 15  1  0
 17 16  2  0
 18 17  1  0
 19 18  1  0
 19 20  2  0
 20 16  1  0
 21 23  2  0
 21 22  1  0
M  END
$$$$
