ATH.pdb
     RDKit          3D

 23 23  0  0  1  0  0  0  0  0999 V2000
    8.3272  -12.1253   19.2253 C   0  0  0  0  0  0  0  0  0  0  0  0
    8.7233  -13.4915   18.6599 C   0  0  2  0  0  0  0  0  0  0  0  0
    8.0074  -13.6321   17.4099 N   0  0  0  0  0  0  0  0  0  0  0  0
    8.2706  -14.5470   19.5898 C   0  0  0  0  0  0  0  0  0  0  0  0
    7.0801  -14.9326   19.5348 O   0  0  0  0  0  0  0  0  0  0  0  0
    8.6405  -18.0401   19.8879 C   0  0  0  0  0  0  0  0  0  0  0  0
    9.2453  -17.5161   21.1520 C   0  0  1  0  0  0  0  0  0  0  0  0
   10.6227  -17.4824   20.9967 O   0  0  0  0  0  0  0  0  0  0  0  0
    8.6980  -16.1272   21.5086 C   0  0  2  0  0  0  0  0  0  0  0  0
    9.1239  -15.1518   20.5509 N   0  0  0  0  0  0  0  0  0  0  0  0
    9.2320  -15.8121   22.8822 C   0  0  0  0  0  0  0  0  0  0  0  0
   10.3655  -15.2657   23.0301 O   0  0  0  0  0  0  0  0  0  0  0  0
    8.4771  -16.1202   24.0456 N   0  0  0  0  0  0  0  0  0  0  0  0
    9.0153  -15.8528   25.3917 C   0  0  1  0  0  0  0  0  0  0  0  0
    7.8177  -15.6082   26.2756 C   0  0  0  0  0  0  0  0  0  0  0  0
    7.2716  -14.2704   26.0727 C   0  0  0  0  0  0  0  0  0  0  0  0
    7.9050  -13.2152   25.4755 C   0  0  0  0  0  0  0  0  0  0  0  0
    7.0957  -12.1442   25.4659 N   0  0  0  0  0  0  0  0  0  0  0  0
    5.9575  -12.5325   26.0575 C   0  0  0  0  0  0  0  0  0  0  0  0
    6.0543  -13.8314   26.4325 N   0  0  0  0  0  0  0  0  0  0  0  0
    9.7153  -17.0626   25.8994 C   0  0  0  0  0  0  0  0  0  0  0  0
    9.7638  -18.2460   25.1509 O   0  0  0  0  0  0  0  0  0  0  0  0
   10.2984  -17.1064   27.0091 O   0  0  0  0  0  0  0  0  0  0  0  0
  2  3  1  0
  2  1  1  1
  4  2  1  0
  5  4  2  0
  7  6  1  6
  7  9  1  0
  8  7  1  0
  9 11  1  0
  9 10  1  6
 10  4  1  0
 11 13  1  0
 12 11  2  0
 13 14  1  0
 14 15  1  1
 14 21  1  0
 16 15  1  0
 17 16  2  0
 18 17  1  0
 19 18  1  0
 19 20  2  0
 20 16  1  0
 21 23  2  0
 21 22  1  0
M  END
$$$$
