ATH.pdb
     RDKit          3D

 23 23  0  0  1  0  0  0  0  0999 V2000
    8.3407  -12.1315   19.5565 C   0  0  0  0  0  0  0  0  0  0  0  0
    8.6803  -13.5862   19.2221 C   0  0  2  0  0  0  0  0  0  0  0  0
    7.9694  -13.8942   17.9996 N   0  0  0  0  0  0  0  0  0  0  0  0
    8.1732  -14.4593   20.3013 C   0  0  0  0  0  0  0  0  0  0  0  0
    6.9730  -14.8170   20.2771 O   0  0  0  0  0  0  0  0  0  0  0  0
    8.3536  -17.7401   20.7140 C   0  0  0  0  0  0  0  0  0  0  0  0
    8.9978  -17.2823   21.9843 C   0  0  1  0  0  0  0  0  0  0  0  0
   10.3737  -17.3510   21.8265 O   0  0  0  0  0  0  0  0  0  0  0  0
    8.5581  -15.8611   22.3623 C   0  0  2  0  0  0  0  0  0  0  0  0
    8.9842  -14.9174   21.3736 N   0  0  0  0  0  0  0  0  0  0  0  0
    9.1915  -15.5738   23.6992 C   0  0  0  0  0  0  0  0  0  0  0  0
   10.3528  -15.0729   23.7749 O   0  0  0  0  0  0  0  0  0  0  0  0
    8.5016  -15.8578   24.9082 N   0  0  0  0  0  0  0  0  0  0  0  0
    9.1314  -15.6079   26.2174 C   0  0  1  0  0  0  0  0  0  0  0  0
    8.0021  -15.2971   27.1679 C   0  0  0  0  0  0  0  0  0  0  0  0
    7.3523  -14.0358   26.8271 C   0  0  0  0  0  0  0  0  0  0  0  0
    7.6556  -12.8018   27.3334 C   0  0  0  0  0  0  0  0  0  0  0  0
    6.8502  -11.8757   26.7896 N   0  0  0  0  0  0  0  0  0  0  0  0
    6.0446  -12.5333   25.9441 C   0  0  0  0  0  0  0  0  0  0  0  0
    6.3432  -13.8553   25.9593 N   0  0  0  0  0  0  0  0  0  0  0  0
    9.7995  -16.8475   26.6954 C   0  0  0  0  0  0  0  0  0  0  0  0
    9.7016  -18.0504   25.9836 O   0  0  0  0  0  0  0  0  0  0  0  0
   10.4822  -16.9010   27.7463 O   0  0  0  0  0  0  0  0  0  0  0  0
  2  3  1  0
  2  1  1  1
  4  2  1  0
  5  4  2  0
  7  6  1  6
  7  9  1  0
  8  7  1  0
  9 11  1  0
  9 10  1  6
 10  4  1  0
 11 13  1  0
 12 11  2  0
 13 14  1  0
 14 15  1  1
 14 21  1  0
 16 15  1  0
 17 16  2  0
 18 17  1  0
 19 18  1  0
 19 20  2  0
 20 16  1  0
 21 23  2  0
 21 22  1  0
M  END
$$$$
