ATH.pdb
     RDKit          3D

 23 23  0  0  1  0  0  0  0  0999 V2000
   12.4712  -17.8914   19.3790 C   0  0  0  0  0  0  0  0  0  0  0  0
   11.2100  -17.1510   18.9270 C   0  0  2  0  0  0  0  0  0  0  0  0
   11.5959  -16.3667   17.7734 N   0  0  0  0  0  0  0  0  0  0  0  0
   10.7776  -16.2350   20.0031 C   0  0  0  0  0  0  0  0  0  0  0  0
   11.3877  -15.1520   20.1579 O   0  0  0  0  0  0  0  0  0  0  0  0
    7.0993  -14.9595   20.5854 C   0  0  0  0  0  0  0  0  0  0  0  0
    7.6369  -15.6088   21.8214 C   0  0  1  0  0  0  0  0  0  0  0  0
    7.1439  -16.9032   21.8853 O   0  0  0  0  0  0  0  0  0  0  0  0
    9.1716  -15.6034   21.8424 C   0  0  2  0  0  0  0  0  0  0  0  0
    9.6964  -16.5225   20.8782 N   0  0  0  0  0  0  0  0  0  0  0  0
    9.5677  -15.9964   23.2423 C   0  0  0  0  0  0  0  0  0  0  0  0
   10.0218  -17.1530   23.4896 O   0  0  0  0  0  0  0  0  0  0  0  0
    9.4415  -15.0790   24.3197 N   0  0  0  0  0  0  0  0  0  0  0  0
    9.9328  -15.4196   25.6672 C   0  0  1  0  0  0  0  0  0  0  0  0
    9.4804  -14.2980   26.5689 C   0  0  0  0  0  0  0  0  0  0  0  0
    9.9759  -14.4771   27.9296 C   0  0  0  0  0  0  0  0  0  0  0  0
   10.7911  -15.4822   28.3727 C   0  0  0  0  0  0  0  0  0  0  0  0
   11.0393  -15.3236   29.6824 N   0  0  0  0  0  0  0  0  0  0  0  0
   10.3783  -14.2189   30.0553 C   0  0  0  0  0  0  0  0  0  0  0  0
    9.7244  -13.6932   28.9908 N   0  0  0  0  0  0  0  0  0  0  0  0
    9.2798  -16.6708   26.1357 C   0  0  0  0  0  0  0  0  0  0  0  0
    9.9634  -17.5954   26.9362 O   0  0  0  0  0  0  0  0  0  0  0  0
    8.0972  -16.9784   25.8527 O   0  0  0  0  0  0  0  0  0  0  0  0
  2  3  1  0
  2  1  1  1
  4  2  1  0
  5  4  2  0
  7  6  1  6
  7  9  1  0
  8  7  1  0
  9 11  1  0
  9 10  1  6
 10  4  1  0
 11 13  1  0
 12 11  2  0
 13 14  1  0
 14 15  1  1
 14 21  1  0
 16 15  1  0
 17 16  2  0
 18 17  1  0
 19 18  1  0
 19 20  2  0
 20 16  1  0
 21 23  2  0
 21 22  1  0
M  END
$$$$
