ATH.pdb
     RDKit          3D

 23 23  0  0  1  0  0  0  0  0999 V2000
    8.1066  -12.1260   19.8943 C   0  0  0  0  0  0  0  0  0  0  0  0
    8.5403  -13.4671   19.2971 C   0  0  2  0  0  0  0  0  0  0  0  0
    7.7273  -13.6628   18.1157 N   0  0  0  0  0  0  0  0  0  0  0  0
    8.2423  -14.5438   20.2645 C   0  0  0  0  0  0  0  0  0  0  0  0
    7.0786  -15.0042   20.3185 O   0  0  0  0  0  0  0  0  0  0  0  0
    9.4008  -17.9644   20.4044 C   0  0  0  0  0  0  0  0  0  0  0  0
    9.7948  -17.3879   21.7275 C   0  0  1  0  0  0  0  0  0  0  0  0
   11.1472  -17.0847   21.6872 O   0  0  0  0  0  0  0  0  0  0  0  0
    8.9629  -16.1456   22.0745 C   0  0  2  0  0  0  0  0  0  0  0  0
    9.2164  -15.0879   21.1435 N   0  0  0  0  0  0  0  0  0  0  0  0
    9.3698  -15.7520   23.4711 C   0  0  0  0  0  0  0  0  0  0  0  0
   10.3108  -14.9263   23.6664 O   0  0  0  0  0  0  0  0  0  0  0  0
    8.7079  -16.2974   24.6037 N   0  0  0  0  0  0  0  0  0  0  0  0
    9.0547  -15.8601   25.9681 C   0  0  1  0  0  0  0  0  0  0  0  0
    7.7482  -15.5085   26.6351 C   0  0  0  0  0  0  0  0  0  0  0  0
    7.3541  -14.1346   26.3414 C   0  0  0  0  0  0  0  0  0  0  0  0
    8.0778  -13.2146   25.6335 C   0  0  0  0  0  0  0  0  0  0  0  0
    7.4007  -12.0574   25.5649 N   0  0  0  0  0  0  0  0  0  0  0  0
    6.2546  -12.2568   26.2305 C   0  0  0  0  0  0  0  0  0  0  0  0
    6.2159  -13.5241   26.7096 N   0  0  0  0  0  0  0  0  0  0  0  0
    9.6572  -16.9940   26.7183 C   0  0  0  0  0  0  0  0  0  0  0  0
   10.2946  -16.7976   27.9504 O   0  0  0  0  0  0  0  0  0  0  0  0
    9.6369  -18.1794   26.3086 O   0  0  0  0  0  0  0  0  0  0  0  0
  2  3  1  0
  2  1  1  1
  4  2  1  0
  5  4  2  0
  7  6  1  6
  7  9  1  0
  8  7  1  0
  9 11  1  0
  9 10  1  6
 10  4  1  0
 11 13  1  0
 12 11  2  0
 13 14  1  0
 14 15  1  1
 14 21  1  0
 16 15  1  0
 17 16  2  0
 18 17  1  0
 19 18  1  0
 19 20  2  0
 20 16  1  0
 21 23  2  0
 21 22  1  0
M  END
$$$$
