ATH.pdb
     RDKit          3D

 23 23  0  0  1  0  0  0  0  0999 V2000
    5.9897  -19.2100   20.0605 C   0  0  0  0  0  0  0  0  0  0  0  0
    6.1546  -17.8942   19.2960 C   0  0  2  0  0  0  0  0  0  0  0  0
    6.4663  -18.2590   17.9304 N   0  0  0  0  0  0  0  0  0  0  0  0
    7.2975  -17.1481   19.8626 C   0  0  0  0  0  0  0  0  0  0  0  0
    8.4273  -17.6888   19.8751 O   0  0  0  0  0  0  0  0  0  0  0  0
    7.9925  -13.1545   19.4204 C   0  0  0  0  0  0  0  0  0  0  0  0
    8.0225  -13.5908   20.8511 C   0  0  1  0  0  0  0  0  0  0  0  0
    6.8236  -13.2263   21.4448 O   0  0  0  0  0  0  0  0  0  0  0  0
    8.2617  -15.1016   20.9778 C   0  0  2  0  0  0  0  0  0  0  0  0
    7.1791  -15.8380   20.3985 N   0  0  0  0  0  0  0  0  0  0  0  0
    8.3818  -15.3792   22.4541 C   0  0  0  0  0  0  0  0  0  0  0  0
    7.4423  -15.0820   23.2506 O   0  0  0  0  0  0  0  0  0  0  0  0
    9.5519  -15.9814   22.9893 N   0  0  0  0  0  0  0  0  0  0  0  0
    9.6915  -16.2110   24.4388 C   0  0  1  0  0  0  0  0  0  0  0  0
    9.5964  -17.7039   24.6328 C   0  0  0  0  0  0  0  0  0  0  0  0
    8.2406  -18.1862   24.3911 C   0  0  0  0  0  0  0  0  0  0  0  0
    7.1146  -17.8266   25.0795 C   0  0  0  0  0  0  0  0  0  0  0  0
    6.0490  -18.4715   24.5787 N   0  0  0  0  0  0  0  0  0  0  0  0
    6.5116  -19.2332   23.5777 C   0  0  0  0  0  0  0  0  0  0  0  0
    7.8510  -19.0663   23.4543 N   0  0  0  0  0  0  0  0  0  0  0  0
   11.0429  -15.7799   24.8852 C   0  0  0  0  0  0  0  0  0  0  0  0
   11.9923  -15.2961   23.9755 O   0  0  0  0  0  0  0  0  0  0  0  0
   11.4183  -15.8187   26.0814 O   0  0  0  0  0  0  0  0  0  0  0  0
  2  3  1  0
  2  1  1  1
  4  2  1  0
  5  4  2  0
  7  6  1  6
  7  9  1  0
  8  7  1  0
  9 11  1  0
  9 10  1  1
 10  4  1  0
 11 13  1  0
 12 11  2  0
 13 14  1  0
 14 15  1  6
 14 21  1  0
 16 15  1  0
 17 16  2  0
 18 17  1  0
 19 18  1  0
 19 20  2  0
 20 16  1  0
 21 23  2  0
 21 22  1  0
M  END
$$$$
