ATH.pdb
     RDKit          3D

 23 23  0  0  1  0  0  0  0  0999 V2000
    9.0704  -17.3939   15.7246 C   0  0  0  0  0  0  0  0  0  0  0  0
    8.5618  -15.9556   15.8499 C   0  0  2  0  0  0  0  0  0  0  0  0
    8.9559  -15.2822   14.6308 N   0  0  0  0  0  0  0  0  0  0  0  0
    9.2351  -15.3047   16.9931 C   0  0  0  0  0  0  0  0  0  0  0  0
   10.4380  -14.9742   16.8792 O   0  0  0  0  0  0  0  0  0  0  0  0
    7.6432  -12.4742   19.5312 C   0  0  0  0  0  0  0  0  0  0  0  0
    8.1832  -13.6857   20.2231 C   0  0  1  0  0  0  0  0  0  0  0  0
    7.1203  -14.5164   20.5439 O   0  0  0  0  0  0  0  0  0  0  0  0
    9.2136  -14.4215   19.3554 C   0  0  2  0  0  0  0  0  0  0  0  0
    8.5824  -15.0324   18.2249 N   0  0  0  0  0  0  0  0  0  0  0  0
    9.8463  -15.4551   20.2513 C   0  0  0  0  0  0  0  0  0  0  0  0
    9.4619  -16.6621   20.2248 O   0  0  0  0  0  0  0  0  0  0  0  0
   10.8899  -15.1012   21.1479 N   0  0  0  0  0  0  0  0  0  0  0  0
   11.5686  -16.1246   21.9635 C   0  0  1  0  0  0  0  0  0  0  0  0
   12.9226  -15.5530   22.3028 C   0  0  0  0  0  0  0  0  0  0  0  0
   13.7794  -15.4796   21.1239 C   0  0  0  0  0  0  0  0  0  0  0  0
   13.8467  -16.3945   20.1092 C   0  0  0  0  0  0  0  0  0  0  0  0
   14.7453  -15.9957   19.1951 N   0  0  0  0  0  0  0  0  0  0  0  0
   15.2380  -14.8317   19.6408 C   0  0  0  0  0  0  0  0  0  0  0  0
   14.6540  -14.5067   20.8199 N   0  0  0  0  0  0  0  0  0  0  0  0
   10.8264  -16.3217   23.2369 C   0  0  0  0  0  0  0  0  0  0  0  0
   11.2087  -17.3038   24.1601 O   0  0  0  0  0  0  0  0  0  0  0  0
    9.8281  -15.6371   23.5657 O   0  0  0  0  0  0  0  0  0  0  0  0
  2  3  1  0
  2  1  1  6
  4  2  1  0
  5  4  2  0
  7  6  1  6
  7  9  1  0
  8  7  1  0
  9 11  1  0
  9 10  1  6
 10  4  1  0
 11 13  1  0
 12 11  2  0
 13 14  1  0
 14 15  1  1
 14 21  1  0
 16 15  1  0
 17 16  2  0
 18 17  1  0
 19 18  1  0
 19 20  2  0
 20 16  1  0
 21 23  2  0
 21 22  1  0
M  END
$$$$
