AHE.pdb
     RDKit          3D

 25 25  0  0  1  0  0  0  0  0999 V2000
   10.8407  -20.1717   18.9548 C   0  0  0  0  0  0  0  0  0  0  0  0
    9.8894  -19.0113   18.6980 C   0  0  2  0  0  0  0  0  0  0  0  0
   10.0478  -18.4825   17.3609 N   0  0  0  0  0  0  0  0  0  0  0  0
   10.2477  -17.9405   19.6715 C   0  0  0  0  0  0  0  0  0  0  0  0
   11.4430  -17.5124   19.6634 O   0  0  0  0  0  0  0  0  0  0  0  0
    9.2897  -17.4183   20.5740 N   0  0  0  0  0  0  0  0  0  0  0  0
    9.7473  -16.2954   21.4345 C   0  0  1  0  0  0  0  0  0  0  0  0
    8.5369  -15.4575   21.7564 C   0  0  0  0  0  0  0  0  0  0  0  0
    8.0506  -14.5815   20.6916 C   0  0  0  0  0  0  0  0  0  0  0  0
    8.6342  -14.3424   19.4760 C   0  0  0  0  0  0  0  0  0  0  0  0
    7.8775  -13.4493   18.8239 N   0  0  0  0  0  0  0  0  0  0  0  0
    6.8319  -13.1226   19.6033 C   0  0  0  0  0  0  0  0  0  0  0  0
    6.9330  -13.8064   20.7361 N   0  0  0  0  0  0  0  0  0  0  0  0
   10.3691  -16.9151   22.6170 C   0  0  0  0  0  0  0  0  0  0  0  0
    9.9134  -18.0137   23.1026 O   0  0  0  0  0  0  0  0  0  0  0  0
   11.4904  -16.3684   23.2864 N   0  0  0  0  0  0  0  0  0  0  0  0
   12.0510  -17.1245   24.4343 C   0  0  1  0  0  0  0  0  0  0  0  0
   13.5094  -16.6538   24.6018 C   0  0  0  0  0  0  0  0  0  0  0  0
   14.2548  -16.9706   23.3440 C   0  0  0  0  0  0  0  0  0  0  0  0
   15.6960  -16.6003   23.5187 C   0  0  0  0  0  0  0  0  0  0  0  0
   16.5080  -17.4965   23.7690 O   0  0  0  0  0  0  0  0  0  0  0  0
   11.3233  -16.7300   25.6386 C   0  0  0  0  0  0  0  0  0  0  0  0
   11.5063  -17.2005   26.7977 O   0  0  0  0  0  0  0  0  0  0  0  0
   16.0608  -15.2803   23.3942 O   0  0  0  0  0  0  0  0  0  0  0  0
   10.3348  -15.7463   25.5250 O   0  0  0  0  0  0  0  0  0  0  0  0
  2  1  1  6
  2  4  1  0
  3  2  1  0
  4  5  2  0
  6  7  1  0
  6  4  1  0
  7  8  1  1
  9  8  1  0
 10  9  2  0
 11 12  1  0
 11 10  1  0
 12 13  2  0
 13  9  1  0
 14  7  1  0
 14 15  2  0
 16 14  1  0
 17 16  1  0
 17 22  1  0
 17 18  1  1
 19 20  1  0
 19 18  1  0
 20 24  1  0
 20 21  2  0
 22 23  2  0
 22 25  1  0
M  END
$$$$
