AHE.pdb
     RDKit          3D

 25 25  0  0  1  0  0  0  0  0999 V2000
    8.7367  -12.0931   20.2915 C   0  0  0  0  0  0  0  0  0  0  0  0
    8.7319  -13.3689   19.4610 C   0  0  2  0  0  0  0  0  0  0  0  0
    7.5245  -13.4830   18.6726 N   0  0  0  0  0  0  0  0  0  0  0  0
    8.7729  -14.5066   20.4236 C   0  0  0  0  0  0  0  0  0  0  0  0
    7.6774  -14.8718   20.9516 O   0  0  0  0  0  0  0  0  0  0  0  0
    9.9899  -15.1580   20.7390 N   0  0  0  0  0  0  0  0  0  0  0  0
    9.8896  -16.3160   21.6663 C   0  0  1  0  0  0  0  0  0  0  0  0
   10.2882  -17.5450   20.8908 C   0  0  0  0  0  0  0  0  0  0  0  0
    9.2410  -18.1759   20.0891 C   0  0  0  0  0  0  0  0  0  0  0  0
    7.9392  -17.7736   19.9510 C   0  0  0  0  0  0  0  0  0  0  0  0
    7.3171  -18.6554   19.1566 N   0  0  0  0  0  0  0  0  0  0  0  0
    8.1996  -19.6023   18.7931 C   0  0  0  0  0  0  0  0  0  0  0  0
    9.3667  -19.3155   19.3560 N   0  0  0  0  0  0  0  0  0  0  0  0
   10.7852  -16.0129   22.7955 C   0  0  0  0  0  0  0  0  0  0  0  0
   11.8596  -15.3306   22.6207 O   0  0  0  0  0  0  0  0  0  0  0  0
   10.5348  -16.4307   24.1247 N   0  0  0  0  0  0  0  0  0  0  0  0
   11.5867  -16.1800   25.1417 C   0  0  1  0  0  0  0  0  0  0  0  0
   10.8586  -15.9465   26.4803 C   0  0  0  0  0  0  0  0  0  0  0  0
   10.4233  -14.5163   26.5374 C   0  0  0  0  0  0  0  0  0  0  0  0
    9.8025  -14.2430   27.8732 C   0  0  0  0  0  0  0  0  0  0  0  0
    9.7668  -15.1562   28.7039 O   0  0  0  0  0  0  0  0  0  0  0  0
   12.3825  -17.3974   25.2836 C   0  0  0  0  0  0  0  0  0  0  0  0
   12.1137  -18.5183   24.7645 O   0  0  0  0  0  0  0  0  0  0  0  0
    9.2967  -12.9893   28.1248 O   0  0  0  0  0  0  0  0  0  0  0  0
   13.5491  -17.3421   26.0541 O   0  0  0  0  0  0  0  0  0  0  0  0
  2  1  1  1
  2  4  1  0
  3  2  1  0
  4  5  2  0
  6  7  1  0
  6  4  1  0
  7  8  1  6
  9  8  1  0
 10  9  2  0
 11 12  1  0
 11 10  1  0
 12 13  2  0
 13  9  1  0
 14  7  1  0
 14 15  2  0
 16 14  1  0
 17 16  1  0
 17 22  1  0
 17 18  1  1
 19 20  1  0
 19 18  1  0
 20 24  1  0
 20 21  2  0
 22 23  2  0
 22 25  1  0
M  END
$$$$
