AHE.pdb
     RDKit          3D

 25 25  0  0  1  0  0  0  0  0999 V2000
   12.7194  -17.7379   14.2016 C   0  0  0  0  0  0  0  0  0  0  0  0
   11.8917  -16.5724   13.6781 C   0  0  2  0  0  0  0  0  0  0  0  0
   12.6419  -15.7712   12.7359 N   0  0  0  0  0  0  0  0  0  0  0  0
   11.5576  -15.7215   14.8559 C   0  0  0  0  0  0  0  0  0  0  0  0
   12.4533  -14.9303   15.2845 O   0  0  0  0  0  0  0  0  0  0  0  0
   10.2865  -15.7922   15.4756 N   0  0  0  0  0  0  0  0  0  0  0  0
   10.0687  -14.8750   16.6254 C   0  0  1  0  0  0  0  0  0  0  0  0
    8.5850  -14.8278   16.8844 C   0  0  0  0  0  0  0  0  0  0  0  0
    8.1556  -14.0937   18.0736 C   0  0  0  0  0  0  0  0  0  0  0  0
    8.4412  -12.7950   18.4011 C   0  0  0  0  0  0  0  0  0  0  0  0
    7.8822  -12.5374   19.5913 N   0  0  0  0  0  0  0  0  0  0  0  0
    7.2520  -13.6456   20.0181 C   0  0  0  0  0  0  0  0  0  0  0  0
    7.4152  -14.5912   19.1014 N   0  0  0  0  0  0  0  0  0  0  0  0
   10.8469  -15.4323   17.7447 C   0  0  0  0  0  0  0  0  0  0  0  0
   11.1780  -16.6734   17.7646 O   0  0  0  0  0  0  0  0  0  0  0  0
   11.2853  -14.6639   18.8500 N   0  0  0  0  0  0  0  0  0  0  0  0
   12.1500  -15.3271   19.8580 C   0  0  1  0  0  0  0  0  0  0  0  0
   13.4791  -14.5464   19.8803 C   0  0  0  0  0  0  0  0  0  0  0  0
   14.4133  -15.2323   20.8264 C   0  0  0  0  0  0  0  0  0  0  0  0
   15.7318  -14.5209   20.8196 C   0  0  0  0  0  0  0  0  0  0  0  0
   15.8737  -13.5509   20.0684 O   0  0  0  0  0  0  0  0  0  0  0  0
   11.5264  -15.1660   21.1698 C   0  0  0  0  0  0  0  0  0  0  0  0
   10.5924  -14.3607   21.4479 O   0  0  0  0  0  0  0  0  0  0  0  0
   16.7326  -14.9725   21.6474 O   0  0  0  0  0  0  0  0  0  0  0  0
   11.9841  -15.9626   22.2250 O   0  0  0  0  0  0  0  0  0  0  0  0
  2  1  1  1
  2  4  1  0
  3  2  1  0
  4  5  2  0
  6  7  1  0
  6  4  1  0
  7  8  1  1
  9  8  1  0
 10  9  2  0
 11 12  1  0
 11 10  1  0
 12 13  2  0
 13  9  1  0
 14  7  1  0
 14 15  2  0
 16 14  1  0
 17 16  1  0
 17 22  1  0
 17 18  1  1
 19 20  1  0
 19 18  1  0
 20 24  1  0
 20 21  2  0
 22 23  2  0
 22 25  1  0
M  END
$$$$
