AHE.pdb
     RDKit          3D

 25 25  0  0  1  0  0  0  0  0999 V2000
   14.1568  -13.5805   18.1123 C   0  0  0  0  0  0  0  0  0  0  0  0
   13.9653  -14.9979   18.6339 C   0  0  2  0  0  0  0  0  0  0  0  0
   13.4115  -15.8658   17.6177 N   0  0  0  0  0  0  0  0  0  0  0  0
   12.9912  -14.9120   19.7593 C   0  0  0  0  0  0  0  0  0  0  0  0
   13.2934  -14.1711   20.7451 O   0  0  0  0  0  0  0  0  0  0  0  0
   11.7717  -15.6308   19.7311 N   0  0  0  0  0  0  0  0  0  0  0  0
   10.8832  -15.4560   20.9104 C   0  0  1  0  0  0  0  0  0  0  0  0
    9.4628  -15.5714   20.4207 C   0  0  0  0  0  0  0  0  0  0  0  0
    8.9611  -14.4605   19.6134 C   0  0  0  0  0  0  0  0  0  0  0  0
    9.6215  -13.3092   19.2759 C   0  0  0  0  0  0  0  0  0  0  0  0
    8.7831  -12.5478   18.5597 N   0  0  0  0  0  0  0  0  0  0  0  0
    7.6112  -13.1957   18.4403 C   0  0  0  0  0  0  0  0  0  0  0  0
    7.7147  -14.3553   19.0773 N   0  0  0  0  0  0  0  0  0  0  0  0
   11.2658  -16.5071   21.8685 C   0  0  0  0  0  0  0  0  0  0  0  0
   11.4278  -17.7223   21.4847 O   0  0  0  0  0  0  0  0  0  0  0  0
   11.4866  -16.2654   23.2459 N   0  0  0  0  0  0  0  0  0  0  0  0
   11.8424  -17.4218   24.1059 C   0  0  1  0  0  0  0  0  0  0  0  0
   13.3183  -17.7537   23.8094 C   0  0  0  0  0  0  0  0  0  0  0  0
   14.1338  -16.5199   24.0347 C   0  0  0  0  0  0  0  0  0  0  0  0
   15.5781  -16.8317   23.7872 C   0  0  0  0  0  0  0  0  0  0  0  0
   16.0970  -17.7580   24.4180 O   0  0  0  0  0  0  0  0  0  0  0  0
   11.7623  -16.9938   25.5009 C   0  0  0  0  0  0  0  0  0  0  0  0
   11.4972  -15.8234   25.8987 O   0  0  0  0  0  0  0  0  0  0  0  0
   16.2711  -16.0775   22.8697 O   0  0  0  0  0  0  0  0  0  0  0  0
   11.9928  -17.9443   26.5014 O   0  0  0  0  0  0  0  0  0  0  0  0
  2  1  1  6
  2  4  1  0
  3  2  1  0
  4  5  2  0
  6  7  1  0
  6  4  1  0
  7  8  1  6
  9  8  1  0
 10  9  2  0
 11 12  1  0
 11 10  1  0
 12 13  2  0
 13  9  1  0
 14  7  1  0
 14 15  2  0
 16 14  1  0
 17 16  1  0
 17 22  1  0
 17 18  1  6
 19 20  1  0
 19 18  1  0
 20 24  1  0
 20 21  2  0
 22 23  2  0
 22 25  1  0
M  END
$$$$
