AHE.pdb
     RDKit          3D

 25 25  0  0  1  0  0  0  0  0999 V2000
    9.5359  -20.4448   19.1978 C   0  0  0  0  0  0  0  0  0  0  0  0
    9.4067  -18.9921   18.7613 C   0  0  2  0  0  0  0  0  0  0  0  0
   10.3652  -18.6620   17.7294 N   0  0  0  0  0  0  0  0  0  0  0  0
    9.7020  -18.1569   19.9605 C   0  0  0  0  0  0  0  0  0  0  0  0
   10.9034  -18.1162   20.3691 O   0  0  0  0  0  0  0  0  0  0  0  0
    8.6796  -17.4340   20.6215 N   0  0  0  0  0  0  0  0  0  0  0  0
    9.1263  -16.4942   21.6835 C   0  0  1  0  0  0  0  0  0  0  0  0
    8.0914  -15.4031   21.7787 C   0  0  0  0  0  0  0  0  0  0  0  0
    8.1675  -14.3453   20.7723 C   0  0  0  0  0  0  0  0  0  0  0  0
    9.1131  -14.1908   19.7938 C   0  0  0  0  0  0  0  0  0  0  0  0
    8.8263  -13.0708   19.1164 N   0  0  0  0  0  0  0  0  0  0  0  0
    7.7217  -12.5189   19.6481 C   0  0  0  0  0  0  0  0  0  0  0  0
    7.3192  -13.2880   20.6519 N   0  0  0  0  0  0  0  0  0  0  0  0
    9.2536  -17.2974   22.9115 C   0  0  0  0  0  0  0  0  0  0  0  0
    8.3392  -18.1337   23.2505 O   0  0  0  0  0  0  0  0  0  0  0  0
   10.3654  -17.2187   23.7844 N   0  0  0  0  0  0  0  0  0  0  0  0
   10.3853  -18.1161   24.9667 C   0  0  1  0  0  0  0  0  0  0  0  0
   11.7657  -18.8024   24.9755 C   0  0  0  0  0  0  0  0  0  0  0  0
   11.8546  -19.6987   23.7810 C   0  0  0  0  0  0  0  0  0  0  0  0
   13.2129  -20.3293   23.7380 C   0  0  0  0  0  0  0  0  0  0  0  0
   13.6816  -20.7902   24.7836 O   0  0  0  0  0  0  0  0  0  0  0  0
   10.3010  -17.2885   26.1682 C   0  0  0  0  0  0  0  0  0  0  0  0
   10.3086  -16.0246   26.1946 O   0  0  0  0  0  0  0  0  0  0  0  0
   13.8861  -20.3718   22.5397 O   0  0  0  0  0  0  0  0  0  0  0  0
   10.2000  -17.9274   27.4088 O   0  0  0  0  0  0  0  0  0  0  0  0
  2  1  1  1
  2  4  1  0
  3  2  1  0
  4  5  2  0
  6  7  1  0
  6  4  1  0
  7  8  1  1
  9  8  1  0
 10  9  2  0
 11 12  1  0
 11 10  1  0
 12 13  2  0
 13  9  1  0
 14  7  1  0
 14 15  2  0
 16 14  1  0
 17 16  1  0
 17 22  1  0
 17 18  1  1
 19 20  1  0
 19 18  1  0
 20 24  1  0
 20 21  2  0
 22 23  2  0
 22 25  1  0
M  END
$$$$
