AHE.pdb
     RDKit          3D

 25 25  0  0  1  0  0  0  0  0999 V2000
    7.9577  -12.1627   19.6760 C   0  0  0  0  0  0  0  0  0  0  0  0
    8.4552  -13.2239   18.7045 C   0  0  2  0  0  0  0  0  0  0  0  0
    7.5858  -13.3382   17.5542 N   0  0  0  0  0  0  0  0  0  0  0  0
    8.4338  -14.5209   19.4395 C   0  0  0  0  0  0  0  0  0  0  0  0
    7.4588  -15.3049   19.2233 O   0  0  0  0  0  0  0  0  0  0  0  0
    9.4639  -14.8676   20.3470 N   0  0  0  0  0  0  0  0  0  0  0  0
    9.9355  -16.2766   20.2924 C   0  0  1  0  0  0  0  0  0  0  0  0
   10.5064  -16.5036   18.9165 C   0  0  0  0  0  0  0  0  0  0  0  0
   10.9943  -17.8516   18.6293 C   0  0  0  0  0  0  0  0  0  0  0  0
   10.4995  -19.0370   19.1042 C   0  0  0  0  0  0  0  0  0  0  0  0
   11.2643  -20.0259   18.6218 N   0  0  0  0  0  0  0  0  0  0  0  0
   12.2281  -19.4874   17.8546 C   0  0  0  0  0  0  0  0  0  0  0  0
   12.0682  -18.1700   17.8564 N   0  0  0  0  0  0  0  0  0  0  0  0
   10.9251  -16.4175   21.3740 C   0  0  0  0  0  0  0  0  0  0  0  0
   11.9298  -15.6213   21.4568 O   0  0  0  0  0  0  0  0  0  0  0  0
   10.8440  -17.4078   22.3825 N   0  0  0  0  0  0  0  0  0  0  0  0
   11.8958  -17.4206   23.4299 C   0  0  1  0  0  0  0  0  0  0  0  0
   11.4019  -18.3711   24.5386 C   0  0  0  0  0  0  0  0  0  0  0  0
   12.2867  -18.2026   25.7332 C   0  0  0  0  0  0  0  0  0  0  0  0
   11.7902  -19.0795   26.8418 C   0  0  0  0  0  0  0  0  0  0  0  0
   10.7253  -19.6842   26.6824 O   0  0  0  0  0  0  0  0  0  0  0  0
   13.1036  -18.0093   22.8555 C   0  0  0  0  0  0  0  0  0  0  0  0
   13.1438  -19.0313   22.1124 O   0  0  0  0  0  0  0  0  0  0  0  0
   12.5360  -19.1786   27.9928 O   0  0  0  0  0  0  0  0  0  0  0  0
   14.3345  -17.4061   23.1359 O   0  0  0  0  0  0  0  0  0  0  0  0
  2  1  1  1
  2  4  1  0
  3  2  1  0
  4  5  2  0
  6  7  1  0
  6  4  1  0
  7  8  1  6
  9  8  1  0
 10  9  2  0
 11 12  1  0
 11 10  1  0
 12 13  2  0
 13  9  1  0
 14  7  1  0
 14 15  2  0
 16 14  1  0
 17 16  1  0
 17 22  1  0
 17 18  1  1
 19 20  1  0
 19 18  1  0
 20 24  1  0
 20 21  2  0
 22 23  2  0
 22 25  1  0
M  END
$$$$
