AHE.pdb
     RDKit          3D

 25 25  0  0  1  0  0  0  0  0999 V2000
   12.9025  -17.9928   14.4789 C   0  0  0  0  0  0  0  0  0  0  0  0
   12.2044  -16.7694   13.9015 C   0  0  2  0  0  0  0  0  0  0  0  0
   13.0482  -16.0768   12.9524 N   0  0  0  0  0  0  0  0  0  0  0  0
   11.9331  -15.8518   15.0449 C   0  0  0  0  0  0  0  0  0  0  0  0
   12.8650  -15.0687   15.4061 O   0  0  0  0  0  0  0  0  0  0  0  0
   10.6809  -15.8526   15.7057 N   0  0  0  0  0  0  0  0  0  0  0  0
   10.5431  -14.9071   16.8449 C   0  0  1  0  0  0  0  0  0  0  0  0
    9.0703  -14.7601   17.1278 C   0  0  0  0  0  0  0  0  0  0  0  0
    8.7069  -13.8975   18.2509 C   0  0  0  0  0  0  0  0  0  0  0  0
    9.5496  -13.2899   19.1433 C   0  0  0  0  0  0  0  0  0  0  0  0
    8.7991  -12.6237   20.0312 N   0  0  0  0  0  0  0  0  0  0  0  0
    7.5040  -12.7996   19.7159 C   0  0  0  0  0  0  0  0  0  0  0  0
    7.4437  -13.5709   18.6377 N   0  0  0  0  0  0  0  0  0  0  0  0
   11.3033  -15.4980   17.9594 C   0  0  0  0  0  0  0  0  0  0  0  0
   11.3704  -16.7721   18.1100 O   0  0  0  0  0  0  0  0  0  0  0  0
   12.0060  -14.7303   18.9191 N   0  0  0  0  0  0  0  0  0  0  0  0
   12.8763  -15.4499   19.8825 C   0  0  1  0  0  0  0  0  0  0  0  0
   14.0455  -14.5013   20.2137 C   0  0  0  0  0  0  0  0  0  0  0  0
   14.9754  -15.2073   21.1490 C   0  0  0  0  0  0  0  0  0  0  0  0
   16.2125  -14.3819   21.3305 C   0  0  0  0  0  0  0  0  0  0  0  0
   17.0185  -14.3159   20.3972 O   0  0  0  0  0  0  0  0  0  0  0  0
   12.1185  -15.6563   21.1149 C   0  0  0  0  0  0  0  0  0  0  0  0
   12.4935  -16.3495   22.1034 O   0  0  0  0  0  0  0  0  0  0  0  0
   16.4046  -13.7301   22.5260 O   0  0  0  0  0  0  0  0  0  0  0  0
   10.8673  -15.0419   21.2359 O   0  0  0  0  0  0  0  0  0  0  0  0
  2  1  1  1
  2  4  1  0
  3  2  1  0
  4  5  2  0
  6  7  1  0
  6  4  1  0
  7  8  1  1
  9  8  1  0
 10  9  2  0
 11 12  1  0
 11 10  1  0
 12 13  2  0
 13  9  1  0
 14  7  1  0
 14 15  2  0
 16 14  1  0
 17 16  1  0
 17 22  1  0
 17 18  1  1
 19 20  1  0
 19 18  1  0
 20 24  1  0
 20 21  2  0
 22 23  2  0
 22 25  1  0
M  END
$$$$
