AHE.pdb
     RDKit          3D

 25 25  0  0  1  0  0  0  0  0999 V2000
    9.3034  -20.6538   21.0706 C   0  0  0  0  0  0  0  0  0  0  0  0
    8.5061  -19.4344   20.6292 C   0  0  2  0  0  0  0  0  0  0  0  0
    8.1871  -19.4922   19.2195 N   0  0  0  0  0  0  0  0  0  0  0  0
    9.3752  -18.2462   20.8652 C   0  0  0  0  0  0  0  0  0  0  0  0
   10.5779  -18.3064   20.4626 O   0  0  0  0  0  0  0  0  0  0  0  0
    8.8783  -17.0907   21.5153 N   0  0  0  0  0  0  0  0  0  0  0  0
    9.8235  -15.9487   21.6301 C   0  0  1  0  0  0  0  0  0  0  0  0
    8.9969  -14.6916   21.7152 C   0  0  0  0  0  0  0  0  0  0  0  0
    8.4333  -14.1978   20.4598 C   0  0  0  0  0  0  0  0  0  0  0  0
    8.7445  -14.6027   19.1890 C   0  0  0  0  0  0  0  0  0  0  0  0
    8.0233  -13.8657   18.3333 N   0  0  0  0  0  0  0  0  0  0  0  0
    7.2665  -13.0072   19.0388 C   0  0  0  0  0  0  0  0  0  0  0  0
    7.5119  -13.2052   20.3279 N   0  0  0  0  0  0  0  0  0  0  0  0
   10.6317  -16.2077   22.8338 C   0  0  0  0  0  0  0  0  0  0  0  0
   10.0956  -16.6894   23.8973 O   0  0  0  0  0  0  0  0  0  0  0  0
   12.0237  -15.9609   22.9077 N   0  0  0  0  0  0  0  0  0  0  0  0
   12.7496  -16.4310   24.1143 C   0  0  1  0  0  0  0  0  0  0  0  0
   12.8034  -17.9691   24.0247 C   0  0  0  0  0  0  0  0  0  0  0  0
   11.9707  -18.5354   25.1310 C   0  0  0  0  0  0  0  0  0  0  0  0
   12.5879  -19.8149   25.6070 C   0  0  0  0  0  0  0  0  0  0  0  0
   13.6680  -20.1644   25.1206 O   0  0  0  0  0  0  0  0  0  0  0  0
   14.1241  -15.9404   24.0389 C   0  0  0  0  0  0  0  0  0  0  0  0
   15.0231  -16.1303   24.9074 O   0  0  0  0  0  0  0  0  0  0  0  0
   11.9313  -20.5511   26.5651 O   0  0  0  0  0  0  0  0  0  0  0  0
   14.5028  -15.1954   22.9168 O   0  0  0  0  0  0  0  0  0  0  0  0
  2  1  1  6
  2  4  1  0
  3  2  1  0
  4  5  2  0
  6  7  1  0
  6  4  1  0
  7  8  1  1
  9  8  1  0
 10  9  2  0
 11 12  1  0
 11 10  1  0
 12 13  2  0
 13  9  1  0
 14  7  1  0
 14 15  2  0
 16 14  1  0
 17 16  1  0
 17 22  1  0
 17 18  1  6
 19 20  1  0
 19 18  1  0
 20 24  1  0
 20 21  2  0
 22 23  2  0
 22 25  1  0
M  END
$$$$
