HLS.pdb
     RDKit          3D

 25 25  0  0  1  0  0  0  0  0999 V2000
   10.5100  -14.4860   20.4509 N   0  0  0  0  0  0  0  0  0  0  0  0
    9.1444  -14.3288   20.8802 C   0  0  1  0  0  0  0  0  0  0  0  0
    8.2619  -15.2927   20.1173 C   0  0  0  0  0  0  0  0  0  0  0  0
    8.0960  -14.7530   18.7427 C   0  0  0  0  0  0  0  0  0  0  0  0
    8.6883  -13.6166   18.2701 C   0  0  0  0  0  0  0  0  0  0  0  0
    8.2972  -13.4579   16.9860 N   0  0  0  0  0  0  0  0  0  0  0  0
    7.4786  -14.4717   16.6616 C   0  0  0  0  0  0  0  0  0  0  0  0
    7.3549  -15.2678   17.7416 N   0  0  0  0  0  0  0  0  0  0  0  0
    9.0670  -14.5641   22.3481 C   0  0  0  0  0  0  0  0  0  0  0  0
    9.9054  -15.3476   22.9105 O   0  0  0  0  0  0  0  0  0  0  0  0
    5.6556  -12.3470   27.0707 C   0  0  0  0  0  0  0  0  0  0  0  0
    6.9063  -13.1198   26.6246 C   0  0  2  0  0  0  0  0  0  0  0  0
    8.0844  -12.2998   27.1054 C   0  0  0  0  0  0  0  0  0  0  0  0
    6.8629  -13.2738   25.1517 C   0  0  0  0  0  0  0  0  0  0  0  0
    7.9300  -14.0899   24.5211 C   0  0  2  0  0  0  0  0  0  0  0  0
    8.0545  -13.9082   23.1024 N   0  0  0  0  0  0  0  0  0  0  0  0
    7.8962  -15.5362   24.8560 C   0  0  0  0  0  0  0  0  0  0  0  0
    6.8919  -16.2480   24.5992 O   0  0  0  0  0  0  0  0  0  0  0  0
   10.9769  -17.9715   24.6909 O   0  0  0  0  0  0  0  0  0  0  0  0
    9.6823  -18.4387   24.9811 C   0  0  0  0  0  0  0  0  0  0  0  0
    9.0606  -17.4760   25.9688 C   0  0  2  0  0  0  0  0  0  0  0  0
    9.0142  -16.1317   25.4777 N   0  0  0  0  0  0  0  0  0  0  0  0
    9.7032  -17.5687   27.3013 C   0  0  0  0  0  0  0  0  0  0  0  0
    9.7744  -18.8103   27.9475 O   0  0  0  0  0  0  0  0  0  0  0  0
   10.1965  -16.5971   27.9020 O   0  0  0  0  0  0  0  0  0  0  0  0
  2  1  1  6
  2  9  1  0
  3  2  1  0
  4  3  1  0
  5  4  2  0
  6  5  1  0
  7  6  1  0
  7  8  2  0
  8  4  1  0
  9 10  2  0
 12 11  1  6
 12 14  1  0
 12 13  1  0
 15 14  1  6
 16  9  1  0
 16 15  1  0
 17 15  1  0
 17 18  2  0
 19 20  1  0
 21 20  1  6
 21 22  1  0
 22 17  1  0
 23 24  1  0
 23 21  1  0
 25 23  2  0
M  END
$$$$
