HLS.pdb
     RDKit          3D

 25 25  0  0  1  0  0  0  0  0999 V2000
   10.4415  -14.4680   21.1786 N   0  0  0  0  0  0  0  0  0  0  0  0
    9.1000  -14.3907   21.6966 C   0  0  1  0  0  0  0  0  0  0  0  0
    8.2001  -15.3152   20.9059 C   0  0  0  0  0  0  0  0  0  0  0  0
    7.9254  -14.6612   19.6001 C   0  0  0  0  0  0  0  0  0  0  0  0
    8.4539  -13.4689   19.1943 C   0  0  0  0  0  0  0  0  0  0  0  0
    7.9709  -13.2095   17.9588 N   0  0  0  0  0  0  0  0  0  0  0  0
    7.1585  -14.2162   17.5989 C   0  0  0  0  0  0  0  0  0  0  0  0
    7.1305  -15.1086   18.6079 N   0  0  0  0  0  0  0  0  0  0  0  0
    9.1162  -14.7498   23.1412 C   0  0  0  0  0  0  0  0  0  0  0  0
   10.1265  -15.3587   23.6327 O   0  0  0  0  0  0  0  0  0  0  0  0
    8.1488  -12.0966   26.9902 C   0  0  0  0  0  0  0  0  0  0  0  0
    6.9691  -12.5349   26.1091 C   0  0  2  0  0  0  0  0  0  0  0  0
    5.7448  -11.8808   26.7131 C   0  0  0  0  0  0  0  0  0  0  0  0
    6.9038  -14.0151   26.1137 C   0  0  0  0  0  0  0  0  0  0  0  0
    7.9442  -14.7446   25.3471 C   0  0  2  0  0  0  0  0  0  0  0  0
    7.9994  -14.4062   23.9530 N   0  0  0  0  0  0  0  0  0  0  0  0
    7.9353  -16.2193   25.5211 C   0  0  0  0  0  0  0  0  0  0  0  0
    6.8989  -16.9003   25.3130 O   0  0  0  0  0  0  0  0  0  0  0  0
   11.3693  -18.4265   25.3555 O   0  0  0  0  0  0  0  0  0  0  0  0
   10.1041  -19.0406   25.3316 C   0  0  0  0  0  0  0  0  0  0  0  0
    9.2034  -18.2663   26.2686 C   0  0  2  0  0  0  0  0  0  0  0  0
    9.1144  -16.8778   25.9299 N   0  0  0  0  0  0  0  0  0  0  0  0
    9.5776  -18.4789   27.6870 C   0  0  0  0  0  0  0  0  0  0  0  0
    9.6456  -19.7837   28.1939 O   0  0  0  0  0  0  0  0  0  0  0  0
    9.8423  -17.5570   28.4797 O   0  0  0  0  0  0  0  0  0  0  0  0
  2  1  1  6
  2  9  1  0
  3  2  1  0
  4  3  1  0
  5  4  2  0
  6  5  1  0
  7  6  1  0
  7  8  2  0
  8  4  1  0
  9 10  2  0
 12 11  1  1
 12 14  1  0
 12 13  1  0
 15 14  1  6
 16  9  1  0
 16 15  1  0
 17 15  1  0
 17 18  2  0
 19 20  1  0
 21 20  1  6
 21 22  1  0
 22 17  1  0
 23 24  1  0
 23 21  1  0
 25 23  2  0
M  END
$$$$
