HLS.pdb
     RDKit          3D

 25 25  0  0  1  0  0  0  0  0999 V2000
   10.2597  -14.5715   21.0936 N   0  0  0  0  0  0  0  0  0  0  0  0
    8.9262  -14.4232   21.6167 C   0  0  1  0  0  0  0  0  0  0  0  0
    7.9723  -15.2842   20.8175 C   0  0  0  0  0  0  0  0  0  0  0  0
    7.8359  -14.6680   19.4721 C   0  0  0  0  0  0  0  0  0  0  0  0
    8.5326  -13.5775   19.0353 C   0  0  0  0  0  0  0  0  0  0  0  0
    8.1348  -13.3211   17.7692 N   0  0  0  0  0  0  0  0  0  0  0  0
    7.2100  -14.2302   17.4208 C   0  0  0  0  0  0  0  0  0  0  0  0
    7.0262  -15.0582   18.4677 N   0  0  0  0  0  0  0  0  0  0  0  0
    8.9250  -14.8008   23.0567 C   0  0  0  0  0  0  0  0  0  0  0  0
    9.9220  -15.4308   23.5486 O   0  0  0  0  0  0  0  0  0  0  0  0
    7.9333  -12.1369   26.8785 C   0  0  0  0  0  0  0  0  0  0  0  0
    6.7319  -12.5769   26.0280 C   0  0  2  0  0  0  0  0  0  0  0  0
    5.5191  -11.9485   26.6807 C   0  0  0  0  0  0  0  0  0  0  0  0
    6.6855  -14.0577   26.0109 C   0  0  0  0  0  0  0  0  0  0  0  0
    7.7562  -14.7635   25.2640 C   0  0  2  0  0  0  0  0  0  0  0  0
    7.8066  -14.4509   23.8637 N   0  0  0  0  0  0  0  0  0  0  0  0
    7.8002  -16.2339   25.4673 C   0  0  0  0  0  0  0  0  0  0  0  0
    7.0385  -17.0089   24.8347 O   0  0  0  0  0  0  0  0  0  0  0  0
   10.1087  -19.9386   25.2190 O   0  0  0  0  0  0  0  0  0  0  0  0
    9.6948  -18.6023   25.0730 C   0  0  0  0  0  0  0  0  0  0  0  0
    9.1491  -18.1452   26.4079 C   0  0  2  0  0  0  0  0  0  0  0  0
    8.7161  -16.7803   26.3913 N   0  0  0  0  0  0  0  0  0  0  0  0
   10.0991  -18.4230   27.5112 C   0  0  0  0  0  0  0  0  0  0  0  0
   10.4314  -19.7496   27.8173 O   0  0  0  0  0  0  0  0  0  0  0  0
   10.6362  -17.5387   28.2026 O   0  0  0  0  0  0  0  0  0  0  0  0
  2  1  1  6
  2  9  1  0
  3  2  1  0
  4  3  1  0
  5  4  2  0
  6  5  1  0
  7  6  1  0
  7  8  2  0
  8  4  1  0
  9 10  2  0
 12 11  1  1
 12 14  1  0
 12 13  1  0
 15 14  1  6
 16  9  1  0
 16 15  1  0
 17 15  1  0
 17 18  2  0
 19 20  1  0
 21 20  1  6
 21 22  1  0
 22 17  1  0
 23 24  1  0
 23 21  1  0
 25 23  2  0
M  END
$$$$
