HLS.pdb
     RDKit          3D

 25 25  0  0  1  0  0  0  0  0999 V2000
    7.7841  -15.7857   21.2878 N   0  0  0  0  0  0  0  0  0  0  0  0
    8.7197  -14.7191   21.5348 C   0  0  1  0  0  0  0  0  0  0  0  0
    8.1948  -13.4369   20.9263 C   0  0  0  0  0  0  0  0  0  0  0  0
    8.2112  -13.6045   19.4498 C   0  0  0  0  0  0  0  0  0  0  0  0
    8.9919  -12.8877   18.5883 C   0  0  0  0  0  0  0  0  0  0  0  0
    8.7255  -13.3257   17.3376 N   0  0  0  0  0  0  0  0  0  0  0  0
    7.7991  -14.2947   17.4139 C   0  0  0  0  0  0  0  0  0  0  0  0
    7.4829  -14.4661   18.7124 N   0  0  0  0  0  0  0  0  0  0  0  0
    8.9229  -14.5823   23.0031 C   0  0  0  0  0  0  0  0  0  0  0  0
    9.9895  -14.0370   23.4483 O   0  0  0  0  0  0  0  0  0  0  0  0
    8.1617  -12.2581   26.5784 C   0  0  0  0  0  0  0  0  0  0  0  0
    6.9609  -12.9421   25.9071 C   0  0  2  0  0  0  0  0  0  0  0  0
    5.7340  -12.3532   26.5701 C   0  0  0  0  0  0  0  0  0  0  0  0
    7.0850  -14.4057   26.1011 C   0  0  0  0  0  0  0  0  0  0  0  0
    8.1232  -15.1115   25.3096 C   0  0  2  0  0  0  0  0  0  0  0  0
    7.9195  -15.0642   23.8893 N   0  0  0  0  0  0  0  0  0  0  0  0
    8.4083  -16.5023   25.7450 C   0  0  0  0  0  0  0  0  0  0  0  0
    7.5262  -17.3976   25.7072 O   0  0  0  0  0  0  0  0  0  0  0  0
   10.9159  -18.5232   24.5497 O   0  0  0  0  0  0  0  0  0  0  0  0
   11.1949  -18.7516   25.9093 C   0  0  0  0  0  0  0  0  0  0  0  0
   10.0834  -18.1174   26.7160 C   0  0  2  0  0  0  0  0  0  0  0  0
    9.6975  -16.8331   26.2135 N   0  0  0  0  0  0  0  0  0  0  0  0
   10.4075  -18.0840   28.1620 C   0  0  0  0  0  0  0  0  0  0  0  0
   10.6756  -19.2830   28.8363 O   0  0  0  0  0  0  0  0  0  0  0  0
   10.4597  -17.0398   28.8367 O   0  0  0  0  0  0  0  0  0  0  0  0
  2  1  1  1
  2  9  1  0
  3  2  1  0
  4  3  1  0
  5  4  2  0
  6  5  1  0
  7  6  1  0
  7  8  2  0
  8  4  1  0
  9 10  2  0
 12 11  1  1
 12 14  1  0
 12 13  1  0
 15 14  1  1
 16  9  1  0
 16 15  1  0
 17 15  1  0
 17 18  2  0
 19 20  1  0
 21 20  1  6
 21 22  1  0
 22 17  1  0
 23 24  1  0
 23 21  1  0
 25 23  2  0
M  END
$$$$
