HLS.pdb
     RDKit          3D

 25 25  0  0  1  0  0  0  0  0999 V2000
   10.1243  -15.0829   21.2806 N   0  0  0  0  0  0  0  0  0  0  0  0
    8.8356  -14.6353   21.7419 C   0  0  1  0  0  0  0  0  0  0  0  0
    7.7523  -15.2372   20.8736 C   0  0  0  0  0  0  0  0  0  0  0  0
    7.8003  -14.5474   19.5583 C   0  0  0  0  0  0  0  0  0  0  0  0
    8.7263  -13.6103   19.1981 C   0  0  0  0  0  0  0  0  0  0  0  0
    8.4406  -13.2202   17.9359 N   0  0  0  0  0  0  0  0  0  0  0  0
    7.3602  -13.8975   17.5150 C   0  0  0  0  0  0  0  0  0  0  0  0
    6.9666  -14.7134   18.5123 N   0  0  0  0  0  0  0  0  0  0  0  0
    8.6691  -15.0243   23.1692 C   0  0  0  0  0  0  0  0  0  0  0  0
    9.4771  -15.8617   23.6973 O   0  0  0  0  0  0  0  0  0  0  0  0
    7.9186  -12.0555   26.8117 C   0  0  0  0  0  0  0  0  0  0  0  0
    6.7046  -12.3930   25.9328 C   0  0  2  0  0  0  0  0  0  0  0  0
    5.5616  -11.5667   26.4827 C   0  0  0  0  0  0  0  0  0  0  0  0
    6.4607  -13.8524   26.0088 C   0  0  0  0  0  0  0  0  0  0  0  0
    7.4285  -14.7409   25.3186 C   0  0  2  0  0  0  0  0  0  0  0  0
    7.6067  -14.4528   23.9236 N   0  0  0  0  0  0  0  0  0  0  0  0
    7.2029  -16.1946   25.5216 C   0  0  0  0  0  0  0  0  0  0  0  0
    6.3108  -16.8166   24.8904 O   0  0  0  0  0  0  0  0  0  0  0  0
    8.8539  -20.2004   25.1492 O   0  0  0  0  0  0  0  0  0  0  0  0
    8.6711  -18.8090   25.0553 C   0  0  0  0  0  0  0  0  0  0  0  0
    8.2364  -18.3130   26.4168 C   0  0  2  0  0  0  0  0  0  0  0  0
    8.0049  -16.9001   26.4436 N   0  0  0  0  0  0  0  0  0  0  0  0
    9.1682  -18.7530   27.4823 C   0  0  0  0  0  0  0  0  0  0  0  0
    9.0252  -20.0315   28.0384 O   0  0  0  0  0  0  0  0  0  0  0  0
   10.0920  -18.0494   27.9292 O   0  0  0  0  0  0  0  0  0  0  0  0
  2  1  1  6
  2  9  1  0
  3  2  1  0
  4  3  1  0
  5  4  2  0
  6  5  1  0
  7  6  1  0
  7  8  2  0
  8  4  1  0
  9 10  2  0
 12 11  1  1
 12 14  1  0
 12 13  1  0
 15 14  1  6
 16  9  1  0
 16 15  1  0
 17 15  1  0
 17 18  2  0
 19 20  1  0
 21 20  1  6
 21 22  1  0
 22 17  1  0
 23 24  1  0
 23 21  1  0
 25 23  2  0
M  END
$$$$
