KLE.pdb
     RDKit          3D

 27 26  0  0  1  0  0  0  0  0999 V2000
   24.8861  -21.4491  -10.0216 N   0  0  0  0  0  0  0  0  0  0  0  0
   23.8431  -21.0702  -10.9481 C   0  0  1  0  0  0  0  0  0  0  0  0
   22.7513  -20.3820  -10.1815 C   0  0  0  0  0  0  0  0  0  0  0  0
   21.4350  -20.4647  -10.8953 C   0  0  0  0  0  0  0  0  0  0  0  0
   21.2249  -21.7829  -11.5863 C   0  0  0  0  0  0  0  0  0  0  0  0
   19.8591  -21.8167  -12.2586 C   0  0  0  0  0  0  0  0  0  0  0  0
   19.7517  -23.0322  -13.0120 N   0  0  0  0  0  0  0  0  0  0  0  0
   24.3805  -20.2164  -12.0409 C   0  0  0  0  0  0  0  0  0  0  0  0
   24.5113  -18.9850  -11.9540 O   0  0  0  0  0  0  0  0  0  0  0  0
   28.9778  -21.3834  -14.6423 C   0  0  0  0  0  0  0  0  0  0  0  0
   27.9052  -20.4015  -14.0616 C   0  0  1  0  0  0  0  0  0  0  0  0
   28.4004  -19.0511  -14.5892 C   0  0  0  0  0  0  0  0  0  0  0  0
   26.6391  -20.7704  -14.7474 C   0  0  0  0  0  0  0  0  0  0  0  0
   25.4059  -20.0630  -14.3476 C   0  0  2  0  0  0  0  0  0  0  0  0
   24.7646  -20.8406  -13.2473 N   0  0  0  0  0  0  0  0  0  0  0  0
   24.3790  -19.9974  -15.3810 C   0  0  0  0  0  0  0  0  0  0  0  0
   23.7474  -21.0724  -15.6503 O   0  0  0  0  0  0  0  0  0  0  0  0
   23.9772  -18.8560  -16.1308 N   0  0  0  0  0  0  0  0  0  0  0  0
   22.9097  -19.0174  -17.0930 C   0  0  1  0  0  0  0  0  0  0  0  0
   22.3121  -17.6090  -17.3304 C   0  0  0  0  0  0  0  0  0  0  0  0
   21.1666  -17.8008  -18.2907 C   0  0  0  0  0  0  0  0  0  0  0  0
   20.6108  -16.4627  -18.6119 C   0  0  0  0  0  0  0  0  0  0  0  0
   21.2130  -15.4530  -18.1397 O   0  0  0  0  0  0  0  0  0  0  0  0
   23.4136  -19.5733  -18.3378 C   0  0  0  0  0  0  0  0  0  0  0  0
   24.6036  -19.2686  -18.6913 O   0  0  0  0  0  0  0  0  0  0  0  0
   19.4920  -16.3004  -19.3862 O   0  0  0  0  0  0  0  0  0  0  0  0
   22.7213  -20.4055  -19.1749 O   0  0  0  0  0  0  0  0  0  0  0  0
  2  1  1  1
  3  2  1  0
  4  3  1  0
  4  5  1  0
  5  6  1  0
  7  6  1  0
  8  2  1  0
  8  9  2  0
 11 10  1  6
 11 13  1  0
 11 12  1  0
 14 13  1  6
 14 15  1  0
 15  8  1  0
 16 14  1  0
 17 16  2  0
 18 16  1  0
 19 18  1  0
 19 24  1  0
 19 20  1  6
 21 20  1  0
 22 21  1  0
 22 23  2  0
 24 27  1  0
 25 24  2  0
 26 22  1  0
M  END
$$$$
