KLE.pdb
     RDKit          3D

 27 26  0  0  1  0  0  0  0  0999 V2000
   28.2160  -20.1988  -16.9952 N   0  0  0  0  0  0  0  0  0  0  0  0
   27.4369  -19.4018  -16.0746 C   0  0  1  0  0  0  0  0  0  0  0  0
   26.6461  -18.3989  -16.8633 C   0  0  0  0  0  0  0  0  0  0  0  0
   27.4922  -17.2364  -17.2897 C   0  0  0  0  0  0  0  0  0  0  0  0
   28.9081  -17.6278  -17.6079 C   0  0  0  0  0  0  0  0  0  0  0  0
   29.7116  -16.4071  -18.0354 C   0  0  0  0  0  0  0  0  0  0  0  0
   29.0766  -15.8212  -19.1800 N   0  0  0  0  0  0  0  0  0  0  0  0
   26.5643  -20.2591  -15.2287 C   0  0  0  0  0  0  0  0  0  0  0  0
   25.9912  -21.2801  -15.6410 O   0  0  0  0  0  0  0  0  0  0  0  0
   25.3041  -22.4390  -10.4578 C   0  0  0  0  0  0  0  0  0  0  0  0
   24.9905  -20.9055  -10.4996 C   0  0  1  0  0  0  0  0  0  0  0  0
   25.5226  -20.4412   -9.1401 C   0  0  0  0  0  0  0  0  0  0  0  0
   25.8553  -20.3686  -11.5828 C   0  0  0  0  0  0  0  0  0  0  0  0
   25.4949  -20.6919  -12.9781 C   0  0  2  0  0  0  0  0  0  0  0  0
   26.3756  -19.8920  -13.8787 N   0  0  0  0  0  0  0  0  0  0  0  0
   24.1440  -20.3015  -13.3645 C   0  0  0  0  0  0  0  0  0  0  0  0
   23.8456  -19.0637  -13.2870 O   0  0  0  0  0  0  0  0  0  0  0  0
   23.1015  -21.1462  -13.8401 N   0  0  0  0  0  0  0  0  0  0  0  0
   21.7850  -20.5712  -14.0070 C   0  0  1  0  0  0  0  0  0  0  0  0
   21.2432  -21.0934  -15.3601 C   0  0  0  0  0  0  0  0  0  0  0  0
   22.0885  -20.4425  -16.4245 C   0  0  0  0  0  0  0  0  0  0  0  0
   21.6065  -20.9184  -17.7450 C   0  0  0  0  0  0  0  0  0  0  0  0
   20.6320  -21.7280  -17.7524 O   0  0  0  0  0  0  0  0  0  0  0  0
   20.9053  -20.9661  -12.9196 C   0  0  0  0  0  0  0  0  0  0  0  0
   21.1815  -22.0415  -12.2863 O   0  0  0  0  0  0  0  0  0  0  0  0
   22.1766  -20.5125  -18.9231 O   0  0  0  0  0  0  0  0  0  0  0  0
   19.7954  -20.2809  -12.5059 O   0  0  0  0  0  0  0  0  0  0  0  0
  2  1  1  6
  3  2  1  0
  4  3  1  0
  4  5  1  0
  5  6  1  0
  7  6  1  0
  8  2  1  0
  8  9  2  0
 11 10  1  1
 11 13  1  0
 11 12  1  0
 14 13  1  1
 14 15  1  0
 15  8  1  0
 16 14  1  0
 17 16  2  0
 18 16  1  0
 19 18  1  0
 19 24  1  0
 19 20  1  6
 21 20  1  0
 22 21  1  0
 22 23  2  0
 24 27  1  0
 25 24  2  0
 26 22  1  0
M  END
$$$$
