KLE.pdb
     RDKit          3D

 27 26  0  0  1  0  0  0  0  0999 V2000
   27.3772  -19.7236  -15.1475 N   0  0  0  0  0  0  0  0  0  0  0  0
   26.7598  -20.9541  -15.5888 C   0  0  1  0  0  0  0  0  0  0  0  0
   27.8332  -21.9874  -15.7710 C   0  0  0  0  0  0  0  0  0  0  0  0
   28.8250  -21.5786  -16.8189 C   0  0  0  0  0  0  0  0  0  0  0  0
   28.2313  -21.5260  -18.1988 C   0  0  0  0  0  0  0  0  0  0  0  0
   29.2881  -21.1143  -19.2147 C   0  0  0  0  0  0  0  0  0  0  0  0
   28.6581  -20.9698  -20.4949 N   0  0  0  0  0  0  0  0  0  0  0  0
   25.7119  -21.4013  -14.6328 C   0  0  0  0  0  0  0  0  0  0  0  0
   25.0740  -22.4594  -14.7530 O   0  0  0  0  0  0  0  0  0  0  0  0
   26.0063  -19.8628   -9.2518 C   0  0  0  0  0  0  0  0  0  0  0  0
   25.9446  -20.7444  -10.5444 C   0  0  1  0  0  0  0  0  0  0  0  0
   25.7320  -22.1436   -9.9578 C   0  0  0  0  0  0  0  0  0  0  0  0
   24.7103  -20.3058  -11.2469 C   0  0  0  0  0  0  0  0  0  0  0  0
   24.3783  -20.9563  -12.5306 C   0  0  2  0  0  0  0  0  0  0  0  0
   25.4248  -20.5761  -13.5240 N   0  0  0  0  0  0  0  0  0  0  0  0
   23.1317  -20.5047  -13.1378 C   0  0  0  0  0  0  0  0  0  0  0  0
   23.0593  -19.2805  -13.4891 O   0  0  0  0  0  0  0  0  0  0  0  0
   21.9683  -21.2803  -13.4048 N   0  0  0  0  0  0  0  0  0  0  0  0
   20.8405  -20.6206  -14.0250 C   0  0  1  0  0  0  0  0  0  0  0  0
   20.6755  -21.2532  -15.4284 C   0  0  0  0  0  0  0  0  0  0  0  0
   19.4599  -20.6024  -16.0366 C   0  0  0  0  0  0  0  0  0  0  0  0
   19.2746  -21.1630  -17.3982 C   0  0  0  0  0  0  0  0  0  0  0  0
   20.0311  -22.1194  -17.7424 O   0  0  0  0  0  0  0  0  0  0  0  0
   19.6335  -20.8073  -13.2371 C   0  0  0  0  0  0  0  0  0  0  0  0
   19.6244  -21.7450  -12.3685 O   0  0  0  0  0  0  0  0  0  0  0  0
   18.3298  -20.6824  -18.2664 O   0  0  0  0  0  0  0  0  0  0  0  0
   18.4925  -20.0591  -13.3410 O   0  0  0  0  0  0  0  0  0  0  0  0
  2  1  1  1
  3  2  1  0
  4  3  1  0
  4  5  1  0
  5  6  1  0
  7  6  1  0
  8  2  1  0
  8  9  2  0
 11 10  1  1
 11 13  1  0
 11 12  1  0
 14 13  1  1
 14 15  1  0
 15  8  1  0
 16 14  1  0
 17 16  2  0
 18 16  1  0
 19 18  1  0
 19 24  1  0
 19 20  1  6
 21 20  1  0
 22 21  1  0
 22 23  2  0
 24 27  1  0
 25 24  2  0
 26 22  1  0
M  END
$$$$
