KLE.pdb
     RDKit          3D

 27 26  0  0  1  0  0  0  0  0999 V2000
   22.7748  -11.8052  -19.4973 N   0  0  0  0  0  0  0  0  0  0  0  0
   21.7594  -11.5041  -18.5133 C   0  0  1  0  0  0  0  0  0  0  0  0
   21.1803  -12.7962  -18.0151 C   0  0  0  0  0  0  0  0  0  0  0  0
   20.6678  -13.6451  -19.1401 C   0  0  0  0  0  0  0  0  0  0  0  0
   21.5593  -14.8167  -19.4432 C   0  0  0  0  0  0  0  0  0  0  0  0
   21.0098  -15.6095  -20.6213 C   0  0  0  0  0  0  0  0  0  0  0  0
   20.0697  -16.5719  -20.1246 N   0  0  0  0  0  0  0  0  0  0  0  0
   22.3126  -10.6778  -17.4073 C   0  0  0  0  0  0  0  0  0  0  0  0
   21.7179  -10.4683  -16.3381 O   0  0  0  0  0  0  0  0  0  0  0  0
   27.8662  -10.5656  -16.6326 C   0  0  0  0  0  0  0  0  0  0  0  0
   26.3235  -10.8120  -16.5285 C   0  0  1  0  0  0  0  0  0  0  0  0
   26.1827  -11.3030  -15.0842 C   0  0  0  0  0  0  0  0  0  0  0  0
   25.7120   -9.4633  -16.6581 C   0  0  0  0  0  0  0  0  0  0  0  0
   24.2510   -9.3472  -16.4758 C   0  0  2  0  0  0  0  0  0  0  0  0
   23.5875  -10.0974  -17.5819 N   0  0  0  0  0  0  0  0  0  0  0  0
   23.7272   -7.9920  -16.6019 C   0  0  0  0  0  0  0  0  0  0  0  0
   24.0741   -7.3218  -17.6303 O   0  0  0  0  0  0  0  0  0  0  0  0
   22.8482   -7.3172  -15.7085 N   0  0  0  0  0  0  0  0  0  0  0  0
   22.5495   -5.9267  -15.9713 C   0  0  1  0  0  0  0  0  0  0  0  0
   21.2618   -5.9062  -16.8304 C   0  0  0  0  0  0  0  0  0  0  0  0
   20.1611   -6.4244  -15.9409 C   0  0  0  0  0  0  0  0  0  0  0  0
   18.8756   -6.2662  -16.6654 C   0  0  0  0  0  0  0  0  0  0  0  0
   18.7980   -5.3315  -17.5173 O   0  0  0  0  0  0  0  0  0  0  0  0
   22.3460   -5.1970  -14.7310 C   0  0  0  0  0  0  0  0  0  0  0  0
   22.2252   -3.9261  -14.7968 O   0  0  0  0  0  0  0  0  0  0  0  0
   17.8011   -7.0859  -16.4392 O   0  0  0  0  0  0  0  0  0  0  0  0
   22.2688   -5.7546  -13.4837 O   0  0  0  0  0  0  0  0  0  0  0  0
  2  1  1  6
  3  2  1  0
  4  3  1  0
  4  5  1  0
  5  6  1  0
  7  6  1  0
  8  2  1  0
  8  9  2  0
 11 10  1  1
 11 13  1  0
 11 12  1  0
 14 13  1  6
 14 15  1  0
 15  8  1  0
 16 14  1  0
 17 16  2  0
 18 16  1  0
 19 18  1  0
 19 24  1  0
 19 20  1  6
 21 20  1  0
 22 21  1  0
 22 23  2  0
 24 27  1  0
 25 24  2  0
 26 22  1  0
M  END
$$$$
