KLE.pdb
     RDKit          3D

 27 26  0  0  1  0  0  0  0  0999 V2000
   14.8496  -20.9753    0.7814 N   0  0  0  0  0  0  0  0  0  0  0  0
   14.6639  -19.8709    1.6957 C   0  0  1  0  0  0  0  0  0  0  0  0
   13.4940  -20.1791    2.5841 C   0  0  0  0  0  0  0  0  0  0  0  0
   12.5402  -21.1364    1.9339 C   0  0  0  0  0  0  0  0  0  0  0  0
   11.2853  -21.3475    2.7338 C   0  0  0  0  0  0  0  0  0  0  0  0
   10.3799  -22.3576    2.0422 C   0  0  0  0  0  0  0  0  0  0  0  0
    9.1658  -22.4733    2.7966 N   0  0  0  0  0  0  0  0  0  0  0  0
   15.9022  -19.6065    2.4759 C   0  0  0  0  0  0  0  0  0  0  0  0
   16.8156  -20.4342    2.6226 O   0  0  0  0  0  0  0  0  0  0  0  0
   18.6920  -14.8187    2.1618 C   0  0  0  0  0  0  0  0  0  0  0  0
   18.4083  -16.3583    2.1895 C   0  0  1  0  0  0  0  0  0  0  0  0
   19.8206  -16.9331    2.3375 C   0  0  0  0  0  0  0  0  0  0  0  0
   17.6448  -16.5831    3.4449 C   0  0  0  0  0  0  0  0  0  0  0  0
   17.3031  -17.9740    3.8055 C   0  0  2  0  0  0  0  0  0  0  0  0
   16.0490  -18.3418    3.0856 N   0  0  0  0  0  0  0  0  0  0  0  0
   16.9769  -18.1759    5.2125 C   0  0  0  0  0  0  0  0  0  0  0  0
   15.7791  -17.9338    5.5782 O   0  0  0  0  0  0  0  0  0  0  0  0
   17.8440  -18.6322    6.2452 N   0  0  0  0  0  0  0  0  0  0  0  0
   17.3234  -18.6874    7.5934 C   0  0  1  0  0  0  0  0  0  0  0  0
   18.2262  -19.6723    8.3756 C   0  0  0  0  0  0  0  0  0  0  0  0
   17.6450  -19.7551    9.7635 C   0  0  0  0  0  0  0  0  0  0  0  0
   17.6514  -21.1803   10.1773 C   0  0  0  0  0  0  0  0  0  0  0  0
   18.7719  -21.7000   10.4598 O   0  0  0  0  0  0  0  0  0  0  0  0
   17.3477  -17.3728    8.2126 C   0  0  0  0  0  0  0  0  0  0  0  0
   18.0767  -16.4709    7.6748 O   0  0  0  0  0  0  0  0  0  0  0  0
   16.5041  -21.9252   10.2581 O   0  0  0  0  0  0  0  0  0  0  0  0
   16.6505  -17.0080    9.3321 O   0  0  0  0  0  0  0  0  0  0  0  0
  2  1  1  6
  3  2  1  0
  4  3  1  0
  4  5  1  0
  5  6  1  0
  7  6  1  0
  8  2  1  0
  8  9  2  0
 11 10  1  1
 11 13  1  0
 11 12  1  0
 14 13  1  1
 14 15  1  0
 15  8  1  0
 16 14  1  0
 17 16  2  0
 18 16  1  0
 19 18  1  0
 19 24  1  0
 19 20  1  1
 21 20  1  0
 22 21  1  0
 22 23  2  0
 24 27  1  0
 25 24  2  0
 26 22  1  0
M  END
$$$$
