KLE.pdb
     RDKit          3D

 27 26  0  0  1  0  0  0  0  0999 V2000
   20.9158  -11.4993  -19.3424 N   0  0  0  0  0  0  0  0  0  0  0  0
   20.0492  -10.9526  -18.3225 C   0  0  1  0  0  0  0  0  0  0  0  0
   19.0614  -12.0087  -17.9199 C   0  0  0  0  0  0  0  0  0  0  0  0
   18.5297  -12.7532  -19.1081 C   0  0  0  0  0  0  0  0  0  0  0  0
   17.4536  -13.7391  -18.7484 C   0  0  0  0  0  0  0  0  0  0  0  0
   16.9343  -14.4360  -19.9986 C   0  0  0  0  0  0  0  0  0  0  0  0
   16.0422  -15.4852  -19.5985 N   0  0  0  0  0  0  0  0  0  0  0  0
   20.8347  -10.4527  -17.1628 C   0  0  0  0  0  0  0  0  0  0  0  0
   20.3431  -10.2098  -16.0492 O   0  0  0  0  0  0  0  0  0  0  0  0
   25.3620  -10.4357  -14.2640 C   0  0  0  0  0  0  0  0  0  0  0  0
   25.5320   -9.6319  -15.5970 C   0  0  1  0  0  0  0  0  0  0  0  0
   26.8991  -10.1221  -16.0846 C   0  0  0  0  0  0  0  0  0  0  0  0
   24.4672  -10.1518  -16.4945 C   0  0  0  0  0  0  0  0  0  0  0  0
   23.0725   -9.7562  -16.2126 C   0  0  2  0  0  0  0  0  0  0  0  0
   22.2196  -10.2416  -17.3366 N   0  0  0  0  0  0  0  0  0  0  0  0
   22.8410   -8.3165  -16.1876 C   0  0  0  0  0  0  0  0  0  0  0  0
   23.2520   -7.6382  -17.1866 O   0  0  0  0  0  0  0  0  0  0  0  0
   22.1876   -7.5625  -15.1722 N   0  0  0  0  0  0  0  0  0  0  0  0
   22.1156   -6.1270  -15.3331 C   0  0  1  0  0  0  0  0  0  0  0  0
   20.7063   -5.8154  -15.8932 C   0  0  0  0  0  0  0  0  0  0  0  0
   20.6510   -4.3196  -16.0688 C   0  0  0  0  0  0  0  0  0  0  0  0
   19.2919   -3.9658  -16.5485 C   0  0  0  0  0  0  0  0  0  0  0  0
   18.9167   -2.7645  -16.4022 O   0  0  0  0  0  0  0  0  0  0  0  0
   22.3192   -5.4522  -14.0621 C   0  0  0  0  0  0  0  0  0  0  0  0
   22.2631   -6.1545  -12.9955 O   0  0  0  0  0  0  0  0  0  0  0  0
   18.4576   -4.8844  -17.1297 O   0  0  0  0  0  0  0  0  0  0  0  0
   22.5707   -4.1166  -13.9022 O   0  0  0  0  0  0  0  0  0  0  0  0
  2  1  1  6
  3  2  1  0
  4  3  1  0
  4  5  1  0
  5  6  1  0
  7  6  1  0
  8  2  1  0
  8  9  2  0
 11 10  1  1
 11 13  1  0
 11 12  1  0
 14 13  1  6
 14 15  1  0
 15  8  1  0
 16 14  1  0
 17 16  2  0
 18 16  1  0
 19 18  1  0
 19 24  1  0
 19 20  1  1
 21 20  1  0
 22 21  1  0
 22 23  2  0
 24 27  1  0
 25 24  2  0
 26 22  1  0
M  END
$$$$
