KLE.pdb
     RDKit          3D

 27 26  0  0  1  0  0  0  0  0999 V2000
   29.0239  -22.5027  -16.2468 N   0  0  0  0  0  0  0  0  0  0  0  0
   27.9177  -21.5761  -16.3340 C   0  0  1  0  0  0  0  0  0  0  0  0
   27.4109  -21.5703  -17.7469 C   0  0  0  0  0  0  0  0  0  0  0  0
   27.0789  -20.1838  -18.2118 C   0  0  0  0  0  0  0  0  0  0  0  0
   25.6791  -19.7663  -17.8573 C   0  0  0  0  0  0  0  0  0  0  0  0
   25.3383  -18.4388  -18.5207 C   0  0  0  0  0  0  0  0  0  0  0  0
   24.0267  -18.0415  -18.0982 N   0  0  0  0  0  0  0  0  0  0  0  0
   26.8491  -21.9234  -15.3597 C   0  0  0  0  0  0  0  0  0  0  0  0
   26.2581  -23.0149  -15.3433 O   0  0  0  0  0  0  0  0  0  0  0  0
   25.2971  -22.1169  -10.2766 C   0  0  0  0  0  0  0  0  0  0  0  0
   25.2207  -20.6584  -10.8409 C   0  0  1  0  0  0  0  0  0  0  0  0
   25.8976  -19.8563   -9.7248 C   0  0  0  0  0  0  0  0  0  0  0  0
   26.0916  -20.6690  -12.0454 C   0  0  0  0  0  0  0  0  0  0  0  0
   25.5642  -21.2980  -13.2732 C   0  0  2  0  0  0  0  0  0  0  0  0
   26.4844  -20.9573  -14.3973 N   0  0  0  0  0  0  0  0  0  0  0  0
   24.2683  -20.7906  -13.7091 C   0  0  0  0  0  0  0  0  0  0  0  0
   24.2258  -19.5977  -14.1588 O   0  0  0  0  0  0  0  0  0  0  0  0
   23.0235  -21.4811  -13.7075 N   0  0  0  0  0  0  0  0  0  0  0  0
   21.8538  -20.7725  -14.1779 C   0  0  1  0  0  0  0  0  0  0  0  0
   21.0419  -21.7772  -15.0313 C   0  0  0  0  0  0  0  0  0  0  0  0
   19.7955  -22.0812  -14.2406 C   0  0  0  0  0  0  0  0  0  0  0  0
   19.1809  -23.3063  -14.8096 C   0  0  0  0  0  0  0  0  0  0  0  0
   19.9184  -24.3306  -14.9205 O   0  0  0  0  0  0  0  0  0  0  0  0
   21.0562  -20.2908  -13.0625 C   0  0  0  0  0  0  0  0  0  0  0  0
   21.3092  -20.7577  -11.8997 O   0  0  0  0  0  0  0  0  0  0  0  0
   17.8702  -23.3523  -15.2065 O   0  0  0  0  0  0  0  0  0  0  0  0
   20.0478  -19.3695  -13.1452 O   0  0  0  0  0  0  0  0  0  0  0  0
  2  1  1  6
  3  2  1  0
  4  3  1  0
  4  5  1  0
  5  6  1  0
  7  6  1  0
  8  2  1  0
  8  9  2  0
 11 10  1  1
 11 13  1  0
 11 12  1  0
 14 13  1  1
 14 15  1  0
 15  8  1  0
 16 14  1  0
 17 16  2  0
 18 16  1  0
 19 18  1  0
 19 24  1  0
 19 20  1  6
 21 20  1  0
 22 21  1  0
 22 23  2  0
 24 27  1  0
 25 24  2  0
 26 22  1  0
M  END
$$$$
