KLE.pdb
     RDKit          3D

 27 26  0  0  1  0  0  0  0  0999 V2000
   19.8919  -13.5206  -17.3984 N   0  0  0  0  0  0  0  0  0  0  0  0
   19.8912  -12.0869  -17.5841 C   0  0  1  0  0  0  0  0  0  0  0  0
   18.4678  -11.6177  -17.6676 C   0  0  0  0  0  0  0  0  0  0  0  0
   17.7381  -12.2593  -18.8100 C   0  0  0  0  0  0  0  0  0  0  0  0
   16.3644  -11.6876  -19.0228 C   0  0  0  0  0  0  0  0  0  0  0  0
   15.7346  -12.2755  -20.2782 C   0  0  0  0  0  0  0  0  0  0  0  0
   14.4990  -11.5930  -20.5311 N   0  0  0  0  0  0  0  0  0  0  0  0
   20.6401  -11.4047  -16.4952 C   0  0  0  0  0  0  0  0  0  0  0  0
   20.2505  -11.3513  -15.3178 O   0  0  0  0  0  0  0  0  0  0  0  0
   24.9729  -10.2683  -13.7459 C   0  0  0  0  0  0  0  0  0  0  0  0
   25.0920   -9.6510  -15.1799 C   0  0  1  0  0  0  0  0  0  0  0  0
   26.5014  -10.0884  -15.5917 C   0  0  0  0  0  0  0  0  0  0  0  0
   24.0858  -10.3814  -15.9945 C   0  0  0  0  0  0  0  0  0  0  0  0
   22.6600  -10.0615  -15.7799 C   0  0  2  0  0  0  0  0  0  0  0  0
   21.8650  -10.7813  -16.8174 N   0  0  0  0  0  0  0  0  0  0  0  0
   22.3141   -8.6586  -15.9777 C   0  0  0  0  0  0  0  0  0  0  0  0
   22.4803   -8.1718  -17.1450 O   0  0  0  0  0  0  0  0  0  0  0  0
   21.7904   -7.7520  -15.0133 N   0  0  0  0  0  0  0  0  0  0  0  0
   21.5196   -6.3951  -15.4341 C   0  0  1  0  0  0  0  0  0  0  0  0
   20.0572   -6.0899  -15.0276 C   0  0  0  0  0  0  0  0  0  0  0  0
   19.8510   -4.6207  -15.2923 C   0  0  0  0  0  0  0  0  0  0  0  0
   18.8012   -4.4868  -16.3327 C   0  0  0  0  0  0  0  0  0  0  0  0
   19.0014   -5.0680  -17.4406 O   0  0  0  0  0  0  0  0  0  0  0  0
   22.4315   -5.4621  -14.7937 C   0  0  0  0  0  0  0  0  0  0  0  0
   23.0059   -5.8322  -13.7134 O   0  0  0  0  0  0  0  0  0  0  0  0
   17.6526   -3.7686  -16.1269 O   0  0  0  0  0  0  0  0  0  0  0  0
   22.7362   -4.2083  -15.2495 O   0  0  0  0  0  0  0  0  0  0  0  0
  2  1  1  1
  3  2  1  0
  4  3  1  0
  4  5  1  0
  5  6  1  0
  7  6  1  0
  8  2  1  0
  8  9  2  0
 11 10  1  1
 11 13  1  0
 11 12  1  0
 14 13  1  6
 14 15  1  0
 15  8  1  0
 16 14  1  0
 17 16  2  0
 18 16  1  0
 19 18  1  0
 19 24  1  0
 19 20  1  1
 21 20  1  0
 22 21  1  0
 22 23  2  0
 24 27  1  0
 25 24  2  0
 26 22  1  0
M  END
$$$$
