KLE.pdb
     RDKit          3D

 27 26  0  0  1  0  0  0  0  0999 V2000
   22.5222  -14.1450  -16.9691 N   0  0  0  0  0  0  0  0  0  0  0  0
   22.2346  -12.8823  -17.6117 C   0  0  1  0  0  0  0  0  0  0  0  0
   20.7494  -12.7696  -17.7981 C   0  0  0  0  0  0  0  0  0  0  0  0
   20.1692  -14.0155  -18.3981 C   0  0  0  0  0  0  0  0  0  0  0  0
   18.6744  -13.9546  -18.5437 C   0  0  0  0  0  0  0  0  0  0  0  0
   18.1569  -15.2139  -19.2253 C   0  0  0  0  0  0  0  0  0  0  0  0
   16.7326  -15.1093  -19.3557 N   0  0  0  0  0  0  0  0  0  0  0  0
   22.7863  -11.7443  -16.8291 C   0  0  0  0  0  0  0  0  0  0  0  0
   22.7361  -11.6692  -15.5911 O   0  0  0  0  0  0  0  0  0  0  0  0
   27.7016  -10.4317  -16.4804 C   0  0  0  0  0  0  0  0  0  0  0  0
   26.1921  -10.6004  -16.1000 C   0  0  1  0  0  0  0  0  0  0  0  0
   26.1824  -10.1252  -14.6436 C   0  0  0  0  0  0  0  0  0  0  0  0
   25.4721   -9.6163  -16.9499 C   0  0  0  0  0  0  0  0  0  0  0  0
   24.0043   -9.5280  -16.8118 C   0  0  2  0  0  0  0  0  0  0  0  0
   23.4030  -10.6876  -17.5332 N   0  0  0  0  0  0  0  0  0  0  0  0
   23.4015   -8.3626  -17.4484 C   0  0  0  0  0  0  0  0  0  0  0  0
   23.3144   -8.3681  -18.7210 O   0  0  0  0  0  0  0  0  0  0  0  0
   22.8754   -7.2036  -16.8112 N   0  0  0  0  0  0  0  0  0  0  0  0
   22.3996   -6.1252  -17.6493 C   0  0  1  0  0  0  0  0  0  0  0  0
   21.3557   -5.3442  -16.8143 C   0  0  0  0  0  0  0  0  0  0  0  0
   20.1355   -6.2261  -16.7456 C   0  0  0  0  0  0  0  0  0  0  0  0
   19.1476   -5.5703  -15.8531 C   0  0  0  0  0  0  0  0  0  0  0  0
   18.2472   -4.8654  -16.3988 O   0  0  0  0  0  0  0  0  0  0  0  0
   23.4936   -5.2527  -18.0421 C   0  0  0  0  0  0  0  0  0  0  0  0
   23.2216   -4.2487  -18.7850 O   0  0  0  0  0  0  0  0  0  0  0  0
   19.1870   -5.7069  -14.4903 O   0  0  0  0  0  0  0  0  0  0  0  0
   24.8044   -5.4097  -17.6822 O   0  0  0  0  0  0  0  0  0  0  0  0
  2  1  1  1
  3  2  1  0
  4  3  1  0
  4  5  1  0
  5  6  1  0
  7  6  1  0
  8  2  1  0
  8  9  2  0
 11 10  1  6
 11 13  1  0
 11 12  1  0
 14 13  1  6
 14 15  1  0
 15  8  1  0
 16 14  1  0
 17 16  2  0
 18 16  1  0
 19 18  1  0
 19 24  1  0
 19 20  1  1
 21 20  1  0
 22 21  1  0
 22 23  2  0
 24 27  1  0
 25 24  2  0
 26 22  1  0
M  END
$$$$
