KLE.pdb
     RDKit          3D

 27 26  0  0  1  0  0  0  0  0999 V2000
   24.0924  -20.5277   -9.3168 N   0  0  0  0  0  0  0  0  0  0  0  0
   23.2648  -20.6241  -10.4982 C   0  0  1  0  0  0  0  0  0  0  0  0
   21.9399  -19.9820  -10.2059 C   0  0  0  0  0  0  0  0  0  0  0  0
   21.0875  -20.8450   -9.3241 C   0  0  0  0  0  0  0  0  0  0  0  0
   20.5583  -22.0619  -10.0300 C   0  0  0  0  0  0  0  0  0  0  0  0
   19.6738  -22.8744   -9.0941 C   0  0  0  0  0  0  0  0  0  0  0  0
   19.2324  -24.0487   -9.7890 N   0  0  0  0  0  0  0  0  0  0  0  0
   23.9353  -20.0084  -11.6744 C   0  0  0  0  0  0  0  0  0  0  0  0
   24.1418  -18.7901  -11.7918 O   0  0  0  0  0  0  0  0  0  0  0  0
   28.7554  -21.2435  -13.2495 C   0  0  0  0  0  0  0  0  0  0  0  0
   27.5063  -20.3167  -13.0693 C   0  0  1  0  0  0  0  0  0  0  0  0
   27.9851  -19.0171  -13.7242 C   0  0  0  0  0  0  0  0  0  0  0  0
   26.4472  -20.9364  -13.9082 C   0  0  0  0  0  0  0  0  0  0  0  0
   25.1059  -20.3184  -13.8946 C   0  0  2  0  0  0  0  0  0  0  0  0
   24.3622  -20.8571  -12.7185 N   0  0  0  0  0  0  0  0  0  0  0  0
   24.2647  -20.6635  -15.0348 C   0  0  0  0  0  0  0  0  0  0  0  0
   23.7738  -21.8404  -15.0677 O   0  0  0  0  0  0  0  0  0  0  0  0
   23.9055  -19.8277  -16.1298 N   0  0  0  0  0  0  0  0  0  0  0  0
   23.0363  -20.3774  -17.1466 C   0  0  1  0  0  0  0  0  0  0  0  0
   21.8424  -19.4012  -17.2822 C   0  0  0  0  0  0  0  0  0  0  0  0
   20.8292  -19.8398  -16.2564 C   0  0  0  0  0  0  0  0  0  0  0  0
   19.6099  -19.0131  -16.4360 C   0  0  0  0  0  0  0  0  0  0  0  0
   18.6531  -19.2026  -15.6273 O   0  0  0  0  0  0  0  0  0  0  0  0
   23.7367  -20.5045  -18.4138 C   0  0  0  0  0  0  0  0  0  0  0  0
   24.8896  -19.9622  -18.5178 O   0  0  0  0  0  0  0  0  0  0  0  0
   19.4996  -18.0758  -17.4294 O   0  0  0  0  0  0  0  0  0  0  0  0
   23.2686  -21.1623  -19.5186 O   0  0  0  0  0  0  0  0  0  0  0  0
  2  1  1  1
  3  2  1  0
  4  3  1  0
  4  5  1  0
  5  6  1  0
  7  6  1  0
  8  2  1  0
  8  9  2  0
 11 10  1  6
 11 13  1  0
 11 12  1  0
 14 13  1  6
 14 15  1  0
 15  8  1  0
 16 14  1  0
 17 16  2  0
 18 16  1  0
 19 18  1  0
 19 24  1  0
 19 20  1  6
 21 20  1  0
 22 21  1  0
 22 23  2  0
 24 27  1  0
 25 24  2  0
 26 22  1  0
M  END
$$$$
