ACF.pdb
     RDKit          3D

 23 23  0  0  1  0  0  0  0  0999 V2000
    8.1936  -12.1506   19.4640 C   0  0  0  0  0  0  0  0  0  0  0  0
    8.3666  -13.5374   18.9241 C   0  0  2  0  0  0  0  0  0  0  0  0
    7.5626  -13.7541   17.7283 N   0  0  0  0  0  0  0  0  0  0  0  0
    7.9746  -14.5221   19.9824 C   0  0  0  0  0  0  0  0  0  0  0  0
    6.8522  -15.0721   19.9987 O   0  0  0  0  0  0  0  0  0  0  0  0
    8.8675  -14.8792   21.0244 N   0  0  0  0  0  0  0  0  0  0  0  0
    8.6867  -16.0117   21.8531 C   0  0  1  0  0  0  0  0  0  0  0  0
    9.2253  -17.2981   21.3089 C   0  0  0  0  0  0  0  0  0  0  0  0
    8.9161  -18.7026   22.4111 S   0  0  0  0  0  0  0  0  0  0  0  0
    9.3283  -15.7761   23.1723 C   0  0  0  0  0  0  0  0  0  0  0  0
   10.4990  -15.3553   23.2121 O   0  0  0  0  0  0  0  0  0  0  0  0
    8.6409  -16.0186   24.4003 N   0  0  0  0  0  0  0  0  0  0  0  0
    9.2990  -15.6987   25.6668 C   0  0  1  0  0  0  0  0  0  0  0  0
    8.2939  -15.5068   26.7544 C   0  0  0  0  0  0  0  0  0  0  0  0
    7.5443  -14.2517   26.5419 C   0  0  0  0  0  0  0  0  0  0  0  0
    8.0173  -13.0085   26.9192 C   0  0  0  0  0  0  0  0  0  0  0  0
    7.3043  -11.8519   26.7017 C   0  0  0  0  0  0  0  0  0  0  0  0
    6.0712  -11.9033   26.0882 C   0  0  0  0  0  0  0  0  0  0  0  0
    5.5573  -13.1155   25.6948 C   0  0  0  0  0  0  0  0  0  0  0  0
    6.2929  -14.2488   25.9259 C   0  0  0  0  0  0  0  0  0  0  0  0
   10.1801  -16.8320   25.9805 C   0  0  0  0  0  0  0  0  0  0  0  0
   11.3533  -16.6554   26.7078 O   0  0  0  0  0  0  0  0  0  0  0  0
    9.8751  -17.9820   25.5886 O   0  0  0  0  0  0  0  0  0  0  0  0
  2  1  1  1
  3  2  1  0
  4  6  1  0
  4  2  1  0
  5  4  2  0
  7 10  1  0
  7  6  1  0
  7  8  1  6
  9  8  1  0
 10 12  1  0
 11 10  2  0
 12 13  1  0
 13 21  1  0
 13 14  1  1
 15 14  1  0
 16 15  2  0
 17 16  1  0
 18 19  1  0
 18 17  2  0
 19 20  2  0
 20 15  1  0
 21 22  1  0
 23 21  2  0
M  END
$$$$
