ACF.pdb
     RDKit          3D

 23 23  0  0  1  0  0  0  0  0999 V2000
    8.2041  -12.0230   19.9625 C   0  0  0  0  0  0  0  0  0  0  0  0
    8.4440  -13.3243   19.2597 C   0  0  2  0  0  0  0  0  0  0  0  0
    7.6200  -13.4512   18.0647 N   0  0  0  0  0  0  0  0  0  0  0  0
    8.1428  -14.4477   20.2033 C   0  0  0  0  0  0  0  0  0  0  0  0
    7.0008  -14.9461   20.3038 O   0  0  0  0  0  0  0  0  0  0  0  0
    9.1490  -15.0029   21.0340 N   0  0  0  0  0  0  0  0  0  0  0  0
    8.9575  -16.1613   21.8237 C   0  0  1  0  0  0  0  0  0  0  0  0
    9.7340  -17.3668   21.3938 C   0  0  0  0  0  0  0  0  0  0  0  0
    9.4283  -18.8045   22.4534 S   0  0  0  0  0  0  0  0  0  0  0  0
    9.3188  -15.8718   23.2354 C   0  0  0  0  0  0  0  0  0  0  0  0
   10.3729  -15.2564   23.4790 O   0  0  0  0  0  0  0  0  0  0  0  0
    8.4909  -16.2792   24.3254 N   0  0  0  0  0  0  0  0  0  0  0  0
    8.8474  -15.8792   25.6864 C   0  0  1  0  0  0  0  0  0  0  0  0
    7.6264  -15.5515   26.4812 C   0  0  0  0  0  0  0  0  0  0  0  0
    7.2969  -14.1179   26.3440 C   0  0  0  0  0  0  0  0  0  0  0  0
    6.0482  -13.6555   25.9718 C   0  0  0  0  0  0  0  0  0  0  0  0
    5.7626  -12.3140   25.8602 C   0  0  0  0  0  0  0  0  0  0  0  0
    6.7362  -11.3744   26.1223 C   0  0  0  0  0  0  0  0  0  0  0  0
    7.9937  -11.7839   26.4956 C   0  0  0  0  0  0  0  0  0  0  0  0
    8.2455  -13.1274   26.5975 C   0  0  0  0  0  0  0  0  0  0  0  0
    9.5566  -17.0175   26.2868 C   0  0  0  0  0  0  0  0  0  0  0  0
    9.5536  -18.2710   25.6823 O   0  0  0  0  0  0  0  0  0  0  0  0
   10.1779  -16.8634   27.3636 O   0  0  0  0  0  0  0  0  0  0  0  0
  2  1  1  1
  3  2  1  0
  4  6  1  0
  4  2  1  0
  5  4  2  0
  7 10  1  0
  7  6  1  0
  7  8  1  6
  9  8  1  0
 10 12  1  0
 11 10  2  0
 12 13  1  0
 13 21  1  0
 13 14  1  1
 15 14  1  0
 16 15  2  0
 17 16  1  0
 18 19  1  0
 18 17  2  0
 19 20  2  0
 20 15  1  0
 21 22  1  0
 23 21  2  0
M  END
$$$$
