ACF.pdb
     RDKit          3D

 23 23  0  0  1  0  0  0  0  0999 V2000
    7.9054  -12.6168   18.5796 C   0  0  0  0  0  0  0  0  0  0  0  0
    8.7377  -13.7394   19.1197 C   0  0  2  0  0  0  0  0  0  0  0  0
    8.7816  -14.8685   18.1996 N   0  0  0  0  0  0  0  0  0  0  0  0
    8.1660  -14.1789   20.4324 C   0  0  0  0  0  0  0  0  0  0  0  0
    8.0119  -13.3904   21.3901 O   0  0  0  0  0  0  0  0  0  0  0  0
    7.7694  -15.5226   20.6512 N   0  0  0  0  0  0  0  0  0  0  0  0
    7.3177  -16.0092   21.9007 C   0  0  1  0  0  0  0  0  0  0  0  0
    6.8248  -17.4228   21.8991 C   0  0  0  0  0  0  0  0  0  0  0  0
    8.1414  -18.6175   21.5498 S   0  0  0  0  0  0  0  0  0  0  0  0
    8.4116  -15.9141   22.9016 C   0  0  0  0  0  0  0  0  0  0  0  0
    9.5806  -15.7436   22.5098 O   0  0  0  0  0  0  0  0  0  0  0  0
    8.1622  -16.0126   24.3043 N   0  0  0  0  0  0  0  0  0  0  0  0
    9.2636  -15.8104   25.2453 C   0  0  1  0  0  0  0  0  0  0  0  0
    9.5179  -14.3548   25.4609 C   0  0  0  0  0  0  0  0  0  0  0  0
    8.3143  -13.7024   26.0161 C   0  0  0  0  0  0  0  0  0  0  0  0
    8.1504  -13.4236   27.3603 C   0  0  0  0  0  0  0  0  0  0  0  0
    7.0235  -12.8060   27.8525 C   0  0  0  0  0  0  0  0  0  0  0  0
    6.0049  -12.4409   26.9988 C   0  0  0  0  0  0  0  0  0  0  0  0
    6.1203  -12.6968   25.6536 C   0  0  0  0  0  0  0  0  0  0  0  0
    7.2556  -13.3132   25.1957 C   0  0  0  0  0  0  0  0  0  0  0  0
    8.8623  -16.4503   26.5058 C   0  0  0  0  0  0  0  0  0  0  0  0
    9.7187  -16.4875   27.6019 O   0  0  0  0  0  0  0  0  0  0  0  0
    7.7285  -16.9744   26.6020 O   0  0  0  0  0  0  0  0  0  0  0  0
  2  1  1  6
  3  2  1  0
  4  6  1  0
  4  2  1  0
  5  4  2  0
  7 10  1  0
  7  6  1  0
  7  8  1  6
  9  8  1  0
 10 12  1  0
 11 10  2  0
 12 13  1  0
 13 21  1  0
 13 14  1  1
 15 14  1  0
 16 15  2  0
 17 16  1  0
 18 19  1  0
 18 17  2  0
 19 20  2  0
 20 15  1  0
 21 22  1  0
 23 21  2  0
M  END
$$$$
