ACF.pdb
     RDKit          3D

 23 23  0  0  1  0  0  0  0  0999 V2000
    8.5748  -12.2089   19.4459 C   0  0  0  0  0  0  0  0  0  0  0  0
    8.6884  -13.6247   18.9693 C   0  0  2  0  0  0  0  0  0  0  0  0
    8.0537  -13.8085   17.6706 N   0  0  0  0  0  0  0  0  0  0  0  0
    8.0482  -14.5286   19.9775 C   0  0  0  0  0  0  0  0  0  0  0  0
    6.9858  -15.1439   19.7420 O   0  0  0  0  0  0  0  0  0  0  0  0
    8.6234  -14.7298   21.2578 N   0  0  0  0  0  0  0  0  0  0  0  0
    8.4064  -15.8907   22.0371 C   0  0  1  0  0  0  0  0  0  0  0  0
    8.8656  -17.1743   21.4186 C   0  0  0  0  0  0  0  0  0  0  0  0
    8.5572  -18.6079   22.4829 S   0  0  0  0  0  0  0  0  0  0  0  0
    9.0918  -15.7508   23.3478 C   0  0  0  0  0  0  0  0  0  0  0  0
   10.2820  -15.3878   23.3755 O   0  0  0  0  0  0  0  0  0  0  0  0
    8.4248  -16.0211   24.5813 N   0  0  0  0  0  0  0  0  0  0  0  0
    9.0970  -15.7135   25.8434 C   0  0  1  0  0  0  0  0  0  0  0  0
    8.1034  -15.3832   26.9081 C   0  0  0  0  0  0  0  0  0  0  0  0
    7.4637  -14.0821   26.6243 C   0  0  0  0  0  0  0  0  0  0  0  0
    8.1159  -12.8694   26.7484 C   0  0  0  0  0  0  0  0  0  0  0  0
    7.5013  -11.6704   26.4687 C   0  0  0  0  0  0  0  0  0  0  0  0
    6.1890  -11.6462   26.0480 C   0  0  0  0  0  0  0  0  0  0  0  0
    5.4974  -12.8256   25.9094 C   0  0  0  0  0  0  0  0  0  0  0  0
    6.1387  -14.0025   26.1959 C   0  0  0  0  0  0  0  0  0  0  0  0
    9.8629  -16.9114   26.2144 C   0  0  0  0  0  0  0  0  0  0  0  0
   10.7761  -16.8889   27.2642 O   0  0  0  0  0  0  0  0  0  0  0  0
    9.6954  -17.9769   25.5772 O   0  0  0  0  0  0  0  0  0  0  0  0
  2  1  1  1
  3  2  1  0
  4  6  1  0
  4  2  1  0
  5  4  2  0
  7 10  1  0
  7  6  1  0
  7  8  1  6
  9  8  1  0
 10 12  1  0
 11 10  2  0
 12 13  1  0
 13 21  1  0
 13 14  1  1
 15 14  1  0
 16 15  2  0
 17 16  1  0
 18 19  1  0
 18 17  2  0
 19 20  2  0
 20 15  1  0
 21 22  1  0
 23 21  2  0
M  END
$$$$
