ACF.pdb
     RDKit          3D

 23 23  0  0  1  0  0  0  0  0999 V2000
    8.3497  -12.1221   19.6026 C   0  0  0  0  0  0  0  0  0  0  0  0
    8.5876  -13.4816   19.0197 C   0  0  2  0  0  0  0  0  0  0  0  0
    7.8993  -13.6497   17.7464 N   0  0  0  0  0  0  0  0  0  0  0  0
    8.1115  -14.5163   19.9923 C   0  0  0  0  0  0  0  0  0  0  0  0
    6.9487  -14.9743   19.9629 O   0  0  0  0  0  0  0  0  0  0  0  0
    8.9663  -15.0289   21.0009 N   0  0  0  0  0  0  0  0  0  0  0  0
    8.5946  -16.0704   21.8836 C   0  0  1  0  0  0  0  0  0  0  0  0
    9.0982  -17.4320   21.5183 C   0  0  0  0  0  0  0  0  0  0  0  0
   10.8772  -17.4460   21.1748 S   0  0  0  0  0  0  0  0  0  0  0  0
    9.0784  -15.7633   23.2544 C   0  0  0  0  0  0  0  0  0  0  0  0
   10.1739  -15.1902   23.3980 O   0  0  0  0  0  0  0  0  0  0  0  0
    8.3226  -16.1065   24.4164 N   0  0  0  0  0  0  0  0  0  0  0  0
    8.8473  -15.7698   25.7395 C   0  0  1  0  0  0  0  0  0  0  0  0
    7.7396  -15.4155   26.6762 C   0  0  0  0  0  0  0  0  0  0  0  0
    7.2736  -14.0374   26.4186 C   0  0  0  0  0  0  0  0  0  0  0  0
    5.9879  -13.7312   26.0128 C   0  0  0  0  0  0  0  0  0  0  0  0
    5.5744  -12.4381   25.7884 C   0  0  0  0  0  0  0  0  0  0  0  0
    6.4514  -11.3897   25.9661 C   0  0  0  0  0  0  0  0  0  0  0  0
    7.7409  -11.6424   26.3684 C   0  0  0  0  0  0  0  0  0  0  0  0
    8.1208  -12.9417   26.5835 C   0  0  0  0  0  0  0  0  0  0  0  0
    9.5633  -16.9585   26.2227 C   0  0  0  0  0  0  0  0  0  0  0  0
    9.5050  -18.1666   25.5346 O   0  0  0  0  0  0  0  0  0  0  0  0
   10.2411  -16.8898   27.2740 O   0  0  0  0  0  0  0  0  0  0  0  0
  2  1  1  1
  3  2  1  0
  4  6  1  0
  4  2  1  0
  5  4  2  0
  7 10  1  0
  7  6  1  0
  7  8  1  6
  9  8  1  0
 10 12  1  0
 11 10  2  0
 12 13  1  0
 13 21  1  0
 13 14  1  1
 15 14  1  0
 16 15  2  0
 17 16  1  0
 18 19  1  0
 18 17  2  0
 19 20  2  0
 20 15  1  0
 21 22  1  0
 23 21  2  0
M  END
$$$$
