CTH.pdb
     RDKit          3D

 24 24  0  0  1  0  0  0  0  0999 V2000
    5.4765  -13.1450   26.5727 N   0  0  0  0  0  0  0  0  0  0  0  0
    6.2924  -12.9330   25.4039 C   0  0  1  0  0  0  0  0  0  0  0  0
    7.2469  -11.7485   25.6015 C   0  0  0  0  0  0  0  0  0  0  0  0
    7.8952  -11.7478   27.2667 S   0  0  0  0  0  0  0  0  0  0  0  0
    7.0730  -14.1590   25.0834 C   0  0  0  0  0  0  0  0  0  0  0  0
    7.3593  -14.9861   25.9866 O   0  0  0  0  0  0  0  0  0  0  0  0
    6.8102  -15.7626   21.4581 C   0  0  0  0  0  0  0  0  0  0  0  0
    8.2265  -15.8865   21.9717 C   0  0  1  0  0  0  0  0  0  0  0  0
    9.0562  -14.9886   21.3021 O   0  0  0  0  0  0  0  0  0  0  0  0
    8.2719  -15.6745   23.4824 C   0  0  2  0  0  0  0  0  0  0  0  0
    7.5314  -14.4617   23.7676 N   0  0  0  0  0  0  0  0  0  0  0  0
    9.6359  -15.6498   23.9987 C   0  0  0  0  0  0  0  0  0  0  0  0
   10.3130  -14.5964   23.9389 O   0  0  0  0  0  0  0  0  0  0  0  0
   10.2186  -16.8050   24.5733 N   0  0  0  0  0  0  0  0  0  0  0  0
   11.5804  -16.7135   25.1619 C   0  0  1  0  0  0  0  0  0  0  0  0
   11.4448  -17.0360   26.6061 C   0  0  0  0  0  0  0  0  0  0  0  0
   10.7861  -16.0523   27.4548 C   0  0  0  0  0  0  0  0  0  0  0  0
   10.2618  -14.8117   27.2678 C   0  0  0  0  0  0  0  0  0  0  0  0
    9.7228  -14.3588   28.4231 N   0  0  0  0  0  0  0  0  0  0  0  0
    9.9100  -15.3245   29.3422 C   0  0  0  0  0  0  0  0  0  0  0  0
   10.5435  -16.3432   28.7804 N   0  0  0  0  0  0  0  0  0  0  0  0
   12.3274  -17.8179   24.4645 C   0  0  0  0  0  0  0  0  0  0  0  0
   11.7977  -18.5873   23.6295 O   0  0  0  0  0  0  0  0  0  0  0  0
   13.6606  -17.9998   24.7523 O   0  0  0  0  0  0  0  0  0  0  0  0
  2  5  1  0
  2  1  1  1
  2  3  1  0
  4  3  1  0
  5  6  2  0
  8  7  1  6
  8 10  1  0
  9  8  1  0
 10 12  1  0
 11  5  1  0
 10 11  1  6
 12 14  1  0
 12 13  2  0
 14 15  1  0
 15 22  1  0
 15 16  1  1
 17 16  1  0
 17 18  2  0
 19 18  1  0
 20 21  2  0
 20 19  1  0
 21 17  1  0
 22 23  2  0
 22 24  1  0
M  END
$$$$
