CTH.pdb
     RDKit          3D

 24 24  0  0  1  0  0  0  0  0999 V2000
    6.3962  -14.3987   26.4094 N   0  0  0  0  0  0  0  0  0  0  0  0
    7.5208  -14.0909   25.5626 C   0  0  1  0  0  0  0  0  0  0  0  0
    8.8142  -13.9747   26.3793 C   0  0  0  0  0  0  0  0  0  0  0  0
    8.7911  -12.4849   27.3657 S   0  0  0  0  0  0  0  0  0  0  0  0
    7.6825  -15.1320   24.5113 C   0  0  0  0  0  0  0  0  0  0  0  0
    7.4126  -16.3352   24.7596 O   0  0  0  0  0  0  0  0  0  0  0  0
    6.4055  -14.4872   21.0309 C   0  0  0  0  0  0  0  0  0  0  0  0
    7.7403  -15.1748   20.8568 C   0  0  1  0  0  0  0  0  0  0  0  0
    8.6926  -14.2602   20.4103 O   0  0  0  0  0  0  0  0  0  0  0  0
    8.1730  -15.8475   22.1567 C   0  0  2  0  0  0  0  0  0  0  0  0
    8.1411  -14.8360   23.1941 N   0  0  0  0  0  0  0  0  0  0  0  0
    9.4687  -16.5065   22.0361 C   0  0  0  0  0  0  0  0  0  0  0  0
    9.6293  -17.4330   21.2069 O   0  0  0  0  0  0  0  0  0  0  0  0
   10.5626  -16.1169   22.8458 N   0  0  0  0  0  0  0  0  0  0  0  0
   11.8435  -16.8636   22.7417 C   0  0  1  0  0  0  0  0  0  0  0  0
   12.8681  -15.8930   22.2767 C   0  0  0  0  0  0  0  0  0  0  0  0
   12.7985  -15.4566   20.8888 C   0  0  0  0  0  0  0  0  0  0  0  0
   11.9909  -15.7300   19.8296 C   0  0  0  0  0  0  0  0  0  0  0  0
   12.3654  -14.9912   18.7599 N   0  0  0  0  0  0  0  0  0  0  0  0
   13.4167  -14.2473   19.1524 C   0  0  0  0  0  0  0  0  0  0  0  0
   13.6883  -14.5130   20.4213 N   0  0  0  0  0  0  0  0  0  0  0  0
   12.1263  -17.2543   24.1670 C   0  0  0  0  0  0  0  0  0  0  0  0
   11.3880  -16.9360   25.1280 O   0  0  0  0  0  0  0  0  0  0  0  0
   13.2509  -17.9992   24.4386 O   0  0  0  0  0  0  0  0  0  0  0  0
  2  5  1  0
  2  1  1  1
  2  3  1  0
  4  3  1  0
  5  6  2  0
  8  7  1  1
  8 10  1  0
  9  8  1  0
 10 12  1  0
 11  5  1  0
 10 11  1  1
 12 14  1  0
 12 13  2  0
 14 15  1  0
 15 22  1  0
 15 16  1  1
 17 16  1  0
 17 18  2  0
 19 18  1  0
 20 21  2  0
 20 19  1  0
 21 17  1  0
 22 23  2  0
 22 24  1  0
M  END
$$$$
