CTH.pdb
     RDKit          3D

 24 24  0  0  1  0  0  0  0  0999 V2000
    8.1123  -13.7400   14.9662 N   0  0  0  0  0  0  0  0  0  0  0  0
    8.3247  -14.8650   15.8415 C   0  0  1  0  0  0  0  0  0  0  0  0
    9.0865  -15.9880   15.1260 C   0  0  0  0  0  0  0  0  0  0  0  0
    7.9567  -16.9914   14.1721 S   0  0  0  0  0  0  0  0  0  0  0  0
    9.0736  -14.4457   17.0575 C   0  0  0  0  0  0  0  0  0  0  0  0
   10.1433  -13.7924   16.9530 O   0  0  0  0  0  0  0  0  0  0  0  0
    7.5377  -12.8075   20.2360 C   0  0  0  0  0  0  0  0  0  0  0  0
    8.3812  -13.9958   20.6383 C   0  0  1  0  0  0  0  0  0  0  0  0
    7.5612  -15.0830   20.9357 O   0  0  0  0  0  0  0  0  0  0  0  0
    9.3899  -14.3351   19.5443 C   0  0  2  0  0  0  0  0  0  0  0  0
    8.6351  -14.7513   18.3793 N   0  0  0  0  0  0  0  0  0  0  0  0
   10.3682  -15.3256   19.9794 C   0  0  0  0  0  0  0  0  0  0  0  0
   10.3122  -16.4997   19.5433 O   0  0  0  0  0  0  0  0  0  0  0  0
   11.3926  -14.9849   20.8952 N   0  0  0  0  0  0  0  0  0  0  0  0
   12.4989  -15.9477   21.1362 C   0  0  1  0  0  0  0  0  0  0  0  0
   13.7661  -15.1790   21.0291 C   0  0  0  0  0  0  0  0  0  0  0  0
   14.2234  -14.8212   19.6932 C   0  0  0  0  0  0  0  0  0  0  0  0
   13.7959  -15.0707   18.4267 C   0  0  0  0  0  0  0  0  0  0  0  0
   14.5961  -14.4406   17.5362 N   0  0  0  0  0  0  0  0  0  0  0  0
   15.5329  -13.7894   18.2509 C   0  0  0  0  0  0  0  0  0  0  0  0
   15.3248  -14.0060   19.5410 N   0  0  0  0  0  0  0  0  0  0  0  0
   12.2802  -16.3666   22.5648 C   0  0  0  0  0  0  0  0  0  0  0  0
   11.4216  -15.8432   23.3123 O   0  0  0  0  0  0  0  0  0  0  0  0
   13.0582  -17.3750   23.0855 O   0  0  0  0  0  0  0  0  0  0  0  0
  2  5  1  0
  2  1  1  6
  2  3  1  0
  4  3  1  0
  5  6  2  0
  8  7  1  6
  8 10  1  0
  9  8  1  0
 10 12  1  0
 11  5  1  0
 10 11  1  6
 12 14  1  0
 12 13  2  0
 14 15  1  0
 15 22  1  0
 15 16  1  1
 17 16  1  0
 17 18  2  0
 19 18  1  0
 20 21  2  0
 20 19  1  0
 21 17  1  0
 22 23  2  0
 22 24  1  0
M  END
$$$$
