CTH.pdb
     RDKit          3D

 24 24  0  0  1  0  0  0  0  0999 V2000
    8.1065  -13.2928   15.8086 N   0  0  0  0  0  0  0  0  0  0  0  0
    7.9844  -14.3957   16.7281 C   0  0  1  0  0  0  0  0  0  0  0  0
    8.4528  -15.7075   16.0854 C   0  0  0  0  0  0  0  0  0  0  0  0
   10.1573  -15.5682   15.5671 S   0  0  0  0  0  0  0  0  0  0  0  0
    8.7703  -14.1335   17.9645 C   0  0  0  0  0  0  0  0  0  0  0  0
    9.8050  -13.4197   17.9221 O   0  0  0  0  0  0  0  0  0  0  0  0
    7.2347  -13.4656   21.5775 C   0  0  0  0  0  0  0  0  0  0  0  0
    8.3023  -14.5346   21.6278 C   0  0  1  0  0  0  0  0  0  0  0  0
    7.7115  -15.7936   21.7214 O   0  0  0  0  0  0  0  0  0  0  0  0
    9.2224  -14.4341   20.4144 C   0  0  2  0  0  0  0  0  0  0  0  0
    8.4071  -14.6617   19.2380 N   0  0  0  0  0  0  0  0  0  0  0  0
   10.3633  -15.3383   20.5066 C   0  0  0  0  0  0  0  0  0  0  0  0
   10.4105  -16.3675   19.7923 O   0  0  0  0  0  0  0  0  0  0  0  0
   11.4320  -15.0748   21.3969 N   0  0  0  0  0  0  0  0  0  0  0  0
   12.5649  -16.0338   21.4733 C   0  0  1  0  0  0  0  0  0  0  0  0
   13.7908  -15.2778   21.1074 C   0  0  0  0  0  0  0  0  0  0  0  0
   14.0455  -15.0572   19.6903 C   0  0  0  0  0  0  0  0  0  0  0  0
   13.4180  -15.3943   18.5321 C   0  0  0  0  0  0  0  0  0  0  0  0
   14.0894  -14.8801   17.4760 N   0  0  0  0  0  0  0  0  0  0  0  0
   15.1467  -14.2139   17.9768 C   0  0  0  0  0  0  0  0  0  0  0  0
   15.1353  -14.3095   19.2979 N   0  0  0  0  0  0  0  0  0  0  0  0
   12.6088  -16.3929   22.9338 C   0  0  0  0  0  0  0  0  0  0  0  0
   13.4130  -17.2246   23.4148 O   0  0  0  0  0  0  0  0  0  0  0  0
   11.7242  -15.7818   23.7926 O   0  0  0  0  0  0  0  0  0  0  0  0
  2  5  1  0
  2  1  1  6
  2  3  1  0
  4  3  1  0
  5  6  2  0
  8  7  1  6
  8 10  1  0
  9  8  1  0
 10 12  1  0
 11  5  1  0
 10 11  1  6
 12 14  1  0
 12 13  2  0
 14 15  1  0
 15 22  1  0
 15 16  1  1
 17 16  1  0
 17 18  2  0
 19 18  1  0
 20 21  2  0
 20 19  1  0
 21 17  1  0
 22 23  2  0
 22 24  1  0
M  END
$$$$
