CTH.pdb
     RDKit          3D

 24 24  0  0  1  0  0  0  0  0999 V2000
    3.8391  -18.9578   19.8542 N   0  0  0  0  0  0  0  0  0  0  0  0
    3.9682  -17.7731   20.6644 C   0  0  1  0  0  0  0  0  0  0  0  0
    3.1518  -17.8943   21.9575 C   0  0  0  0  0  0  0  0  0  0  0  0
    1.8648  -19.1188   21.7639 S   0  0  0  0  0  0  0  0  0  0  0  0
    5.3972  -17.5202   20.9946 C   0  0  0  0  0  0  0  0  0  0  0  0
    6.2097  -18.4764   21.0816 O   0  0  0  0  0  0  0  0  0  0  0  0
    7.3921  -14.6658   19.4062 C   0  0  0  0  0  0  0  0  0  0  0  0
    7.7140  -14.6660   20.8831 C   0  0  1  0  0  0  0  0  0  0  0  0
    7.0841  -13.5910   21.5080 O   0  0  0  0  0  0  0  0  0  0  0  0
    7.3201  -15.9959   21.5199 C   0  0  2  0  0  0  0  0  0  0  0  0
    5.9176  -16.2132   21.2261 N   0  0  0  0  0  0  0  0  0  0  0  0
    7.6220  -16.0394   22.9462 C   0  0  0  0  0  0  0  0  0  0  0  0
    6.7359  -15.7556   23.7864 O   0  0  0  0  0  0  0  0  0  0  0  0
    8.9109  -16.3998   23.4077 N   0  0  0  0  0  0  0  0  0  0  0  0
    9.1466  -16.5321   24.8692 C   0  0  1  0  0  0  0  0  0  0  0  0
    8.3736  -17.7178   25.3217 C   0  0  0  0  0  0  0  0  0  0  0  0
    8.6868  -18.2618   26.6362 C   0  0  0  0  0  0  0  0  0  0  0  0
    9.4976  -17.8963   27.6647 C   0  0  0  0  0  0  0  0  0  0  0  0
    9.3639  -18.7677   28.6909 N   0  0  0  0  0  0  0  0  0  0  0  0
    8.4605  -19.6872   28.3025 C   0  0  0  0  0  0  0  0  0  0  0  0
    8.0459  -19.3997   27.0777 N   0  0  0  0  0  0  0  0  0  0  0  0
   10.6199  -16.8272   24.9508 C   0  0  0  0  0  0  0  0  0  0  0  0
   11.2297  -16.9959   26.0322 O   0  0  0  0  0  0  0  0  0  0  0  0
   11.3424  -16.9180   23.7833 O   0  0  0  0  0  0  0  0  0  0  0  0
  2  5  1  0
  2  1  1  1
  2  3  1  0
  4  3  1  0
  5  6  2  0
  8  7  1  6
  8 10  1  0
  9  8  1  0
 10 12  1  0
 11  5  1  0
 10 11  1  1
 12 14  1  0
 12 13  2  0
 14 15  1  0
 15 22  1  0
 15 16  1  6
 17 16  1  0
 17 18  2  0
 19 18  1  0
 20 21  2  0
 20 19  1  0
 21 17  1  0
 22 23  2  0
 22 24  1  0
M  END
$$$$
