CTH.pdb
     RDKit          3D

 24 24  0  0  1  0  0  0  0  0999 V2000
    7.6739  -15.5933   18.5467 N   0  0  0  0  0  0  0  0  0  0  0  0
    8.1897  -14.8127   19.6428 C   0  0  1  0  0  0  0  0  0  0  0  0
    7.4789  -13.4568   19.7405 C   0  0  0  0  0  0  0  0  0  0  0  0
    8.1710  -12.4905   21.0749 S   0  0  0  0  0  0  0  0  0  0  0  0
    8.0396  -15.5521   20.9258 C   0  0  0  0  0  0  0  0  0  0  0  0
    6.9141  -15.9847   21.2836 O   0  0  0  0  0  0  0  0  0  0  0  0
    8.8443  -18.6530   21.8984 C   0  0  0  0  0  0  0  0  0  0  0  0
    9.5423  -17.8559   22.9766 C   0  0  1  0  0  0  0  0  0  0  0  0
   10.9121  -17.8094   22.7230 O   0  0  0  0  0  0  0  0  0  0  0  0
    8.9428  -16.4566   23.0851 C   0  0  2  0  0  0  0  0  0  0  0  0
    9.1338  -15.8078   21.8034 N   0  0  0  0  0  0  0  0  0  0  0  0
    9.4988  -15.6996   24.2011 C   0  0  0  0  0  0  0  0  0  0  0  0
   10.4812  -14.9419   24.0207 O   0  0  0  0  0  0  0  0  0  0  0  0
    8.9456  -15.8038   25.5000 N   0  0  0  0  0  0  0  0  0  0  0  0
    9.5740  -15.0524   26.6178 C   0  0  1  0  0  0  0  0  0  0  0  0
    8.4655  -14.4799   27.4251 C   0  0  0  0  0  0  0  0  0  0  0  0
    7.7387  -13.3503   26.8617 C   0  0  0  0  0  0  0  0  0  0  0  0
    7.8543  -12.5894   25.7408 C   0  0  0  0  0  0  0  0  0  0  0  0
    6.8572  -11.6759   25.6973 N   0  0  0  0  0  0  0  0  0  0  0  0
    6.1094  -11.8666   26.8004 C   0  0  0  0  0  0  0  0  0  0  0  0
    6.6219  -12.8631   27.5068 N   0  0  0  0  0  0  0  0  0  0  0  0
   10.2686  -16.1307   27.4045 C   0  0  0  0  0  0  0  0  0  0  0  0
   10.1369  -17.3531   27.1628 O   0  0  0  0  0  0  0  0  0  0  0  0
   11.0924  -15.7653   28.4443 O   0  0  0  0  0  0  0  0  0  0  0  0
  2  5  1  0
  2  1  1  6
  2  3  1  0
  4  3  1  0
  5  6  2  0
  8  7  1  6
  8 10  1  0
  9  8  1  0
 10 12  1  0
 11  5  1  0
 10 11  1  6
 12 14  1  0
 12 13  2  0
 14 15  1  0
 15 22  1  0
 15 16  1  1
 17 16  1  0
 17 18  2  0
 19 18  1  0
 20 21  2  0
 20 19  1  0
 21 17  1  0
 22 23  2  0
 22 24  1  0
M  END
$$$$
