TRK.pdb
     RDKit          3D

 28 27  0  0  1  0  0  0  0  0999 V2000
    4.2410  -21.5029   24.0672 C   0  0  0  0  0  0  0  0  0  0  0  0
    5.4103  -20.6275   23.6778 C   0  0  1  0  0  0  0  0  0  0  0  0
    6.5853  -21.3494   23.8828 O   0  0  0  0  0  0  0  0  0  0  0  0
    5.3691  -20.2631   22.2047 C   0  0  2  0  0  0  0  0  0  0  0  0
    5.4421  -21.5075   21.4610 N   0  0  0  0  0  0  0  0  0  0  0  0
    6.4939  -19.4054   21.8135 C   0  0  0  0  0  0  0  0  0  0  0  0
    7.5048  -19.8916   21.2293 O   0  0  0  0  0  0  0  0  0  0  0  0
    8.7050  -14.5931   18.0612 N   0  0  0  0  0  0  0  0  0  0  0  0
    8.3580  -13.2609   18.4786 C   0  0  0  0  0  0  0  0  0  0  0  0
    8.9148  -12.2501   17.9487 N   0  0  0  0  0  0  0  0  0  0  0  0
    7.3832  -13.0775   19.4931 N   0  0  0  0  0  0  0  0  0  0  0  0
    7.6111  -13.3987   20.8766 C   0  0  0  0  0  0  0  0  0  0  0  0
    8.1698  -14.7941   21.0391 C   0  0  0  0  0  0  0  0  0  0  0  0
    7.0705  -15.6966   21.4913 C   0  0  0  0  0  0  0  0  0  0  0  0
    7.5372  -17.1373   21.6537 C   0  0  2  0  0  0  0  0  0  0  0  0
    6.4844  -18.0032   22.0776 N   0  0  0  0  0  0  0  0  0  0  0  0
    8.6629  -17.1041   22.6545 C   0  0  0  0  0  0  0  0  0  0  0  0
    8.4887  -16.6485   23.8125 O   0  0  0  0  0  0  0  0  0  0  0  0
    8.6462  -11.2898   18.2015 N   0  0  0  0  0  0  0  0  0  0  0  0
    9.9652  -17.5818   22.3418 C   0  0  2  0  0  0  0  0  0  0  0  0
   11.0520  -17.6049   23.2975 C   0  0  0  0  0  0  0  0  0  0  0  0
   12.1883  -18.4465   22.8151 C   0  0  0  0  0  0  0  0  0  0  0  0
   13.1615  -18.8580   23.8568 C   0  0  0  0  0  0  0  0  0  0  0  0
   14.2834  -19.7221   23.3380 C   0  0  0  0  0  0  0  0  0  0  0  0
   15.2265  -19.9593   24.5250 N   0  0  0  0  0  0  0  0  0  0  0  0
   16.2783  -20.8609   24.0950 C   0  0  0  0  0  0  0  0  0  0  0  0
   11.3985  -16.2419   23.6613 O   0  0  0  0  0  0  0  0  0  0  0  0
   11.5010  -15.3649   22.7694 O   0  0  0  0  0  0  0  0  0  0  0  0
  2  1  1  6
  2  3  1  0
  4  2  1  0
  4  5  1  6
  6  4  1  0
  6  7  2  0
  9  8  1  0
 10  9  2  0
 11  9  1  0
 12 11  1  0
 13 12  1  0
 13 14  1  0
 15 14  1  1
 15 16  1  0
 16  6  1  0
 17 15  1  0
 18 17  2  0
 19 17  1  0
 20 26  1  0
 20 19  1  0
 20 21  1  6
 22 21  1  0
 23 22  1  0
 24 25  1  0
 24 23  1  0
 26 28  1  0
 27 26  2  0
M  END
$$$$
