TRK.pdb
     RDKit          3D

 28 27  0  0  1  0  0  0  0  0999 V2000
   11.2249  -13.2056   19.6538 C   0  0  0  0  0  0  0  0  0  0  0  0
    9.9533  -12.5011   19.2394 C   0  0  1  0  0  0  0  0  0  0  0  0
   10.2369  -11.6995   18.1345 O   0  0  0  0  0  0  0  0  0  0  0  0
    8.8845  -13.4876   18.8046 C   0  0  2  0  0  0  0  0  0  0  0  0
    7.7344  -12.7060   18.3883 N   0  0  0  0  0  0  0  0  0  0  0  0
    8.4833  -14.3865   19.8931 C   0  0  0  0  0  0  0  0  0  0  0  0
    7.5202  -14.0876   20.6565 O   0  0  0  0  0  0  0  0  0  0  0  0
    7.2952  -19.4467   15.3204 N   0  0  0  0  0  0  0  0  0  0  0  0
    7.9505  -19.1008   16.5535 C   0  0  0  0  0  0  0  0  0  0  0  0
    8.6021  -18.0160   16.6588 N   0  0  0  0  0  0  0  0  0  0  0  0
    7.8661  -19.9827   17.6617 N   0  0  0  0  0  0  0  0  0  0  0  0
    8.4320  -19.6893   18.9512 C   0  0  0  0  0  0  0  0  0  0  0  0
    8.2972  -18.2237   19.2975 C   0  0  0  0  0  0  0  0  0  0  0  0
    8.8878  -17.9985   20.6494 C   0  0  0  0  0  0  0  0  0  0  0  0
    8.7328  -16.5561   21.1134 C   0  0  2  0  0  0  0  0  0  0  0  0
    9.1621  -15.6200   20.1248 N   0  0  0  0  0  0  0  0  0  0  0  0
    9.5400  -16.4329   22.3794 C   0  0  0  0  0  0  0  0  0  0  0  0
   10.7934  -16.5211   22.3614 O   0  0  0  0  0  0  0  0  0  0  0  0
    9.1591  -17.7983   17.4960 N   0  0  0  0  0  0  0  0  0  0  0  0
    8.9302  -16.2127   23.6451 C   0  0  1  0  0  0  0  0  0  0  0  0
    9.6823  -16.0697   24.8735 C   0  0  0  0  0  0  0  0  0  0  0  0
    8.7861  -15.7871   26.0350 C   0  0  0  0  0  0  0  0  0  0  0  0
    9.4470  -15.7910   27.3635 C   0  0  0  0  0  0  0  0  0  0  0  0
    9.9055  -14.4294   27.8221 C   0  0  0  0  0  0  0  0  0  0  0  0
   10.5761  -14.6394   29.1862 N   0  0  0  0  0  0  0  0  0  0  0  0
   11.0575  -13.3547   29.6572 C   0  0  0  0  0  0  0  0  0  0  0  0
   10.5629  -17.2141   25.0315 O   0  0  0  0  0  0  0  0  0  0  0  0
   11.6869  -17.0669   25.5702 O   0  0  0  0  0  0  0  0  0  0  0  0
  2  1  1  6
  2  3  1  0
  4  2  1  0
  4  5  1  1
  6  4  1  0
  6  7  2  0
  9  8  1  0
 10  9  2  0
 11  9  1  0
 12 11  1  0
 13 12  1  0
 13 14  1  0
 15 14  1  6
 15 16  1  0
 16  6  1  0
 17 15  1  0
 18 17  2  0
 19 17  1  0
 20 26  1  0
 20 19  1  0
 20 21  1  1
 22 21  1  0
 23 22  1  0
 24 25  1  0
 24 23  1  0
 26 28  1  0
 27 26  2  0
M  END
$$$$
