TRK.pdb
     RDKit          3D

 28 27  0  0  1  0  0  0  0  0999 V2000
    8.9086  -14.6873   26.8067 C   0  0  0  0  0  0  0  0  0  0  0  0
    8.2744  -16.0317   27.0817 C   0  0  1  0  0  0  0  0  0  0  0  0
    7.8712  -16.0609   28.4161 O   0  0  0  0  0  0  0  0  0  0  0  0
    7.0285  -16.2440   26.2408 C   0  0  2  0  0  0  0  0  0  0  0  0
    6.4205  -17.4817   26.6941 N   0  0  0  0  0  0  0  0  0  0  0  0
    7.3373  -16.3586   24.8106 C   0  0  0  0  0  0  0  0  0  0  0  0
    7.8381  -17.4205   24.3405 O   0  0  0  0  0  0  0  0  0  0  0  0
    7.4317  -13.1535   16.8044 N   0  0  0  0  0  0  0  0  0  0  0  0
    8.3372  -13.9588   17.5798 C   0  0  0  0  0  0  0  0  0  0  0  0
    9.5805  -13.7014   17.5972 N   0  0  0  0  0  0  0  0  0  0  0  0
    7.8328  -15.0511   18.3318 N   0  0  0  0  0  0  0  0  0  0  0  0
    7.1645  -14.8995   19.5965 C   0  0  0  0  0  0  0  0  0  0  0  0
    7.8801  -13.9107   20.4889 C   0  0  0  0  0  0  0  0  0  0  0  0
    7.2670  -13.9671   21.8484 C   0  0  0  0  0  0  0  0  0  0  0  0
    7.5959  -15.2640   22.5759 C   0  0  2  0  0  0  0  0  0  0  0  0
    7.0843  -15.2823   23.9086 N   0  0  0  0  0  0  0  0  0  0  0  0
    9.0973  -15.3869   22.5580 C   0  0  0  0  0  0  0  0  0  0  0  0
    9.8198  -14.6161   23.2384 O   0  0  0  0  0  0  0  0  0  0  0  0
   10.2460  -14.2821   18.1247 N   0  0  0  0  0  0  0  0  0  0  0  0
    9.7649  -16.3711   21.7784 C   0  0  2  0  0  0  0  0  0  0  0  0
   11.1339  -16.7766   22.0163 C   0  0  0  0  0  0  0  0  0  0  0  0
   11.2163  -17.8428   23.0596 C   0  0  0  0  0  0  0  0  0  0  0  0
   12.5663  -18.4205   23.2729 C   0  0  0  0  0  0  0  0  0  0  0  0
   12.5917  -19.5710   24.2477 C   0  0  0  0  0  0  0  0  0  0  0  0
   14.0531  -20.0321   24.3292 N   0  0  0  0  0  0  0  0  0  0  0  0
   14.1288  -21.1341   25.2693 C   0  0  0  0  0  0  0  0  0  0  0  0
   11.7652  -17.0976   20.7481 O   0  0  0  0  0  0  0  0  0  0  0  0
   11.0742  -17.5536   19.8048 O   0  0  0  0  0  0  0  0  0  0  0  0
  2  1  1  6
  2  3  1  0
  4  2  1  0
  4  5  1  1
  6  4  1  0
  6  7  2  0
  9  8  1  0
 10  9  2  0
 11  9  1  0
 12 11  1  0
 13 12  1  0
 13 14  1  0
 15 14  1  1
 15 16  1  0
 16  6  1  0
 17 15  1  0
 18 17  2  0
 19 17  1  0
 20 26  1  0
 20 19  1  0
 20 21  1  6
 22 21  1  0
 23 22  1  0
 24 25  1  0
 24 23  1  0
 26 28  1  0
 27 26  2  0
M  END
$$$$
