TRK.pdb
     RDKit          3D

 28 27  0  0  1  0  0  0  0  0999 V2000
    1.0113  -19.8512   22.3891 C   0  0  0  0  0  0  0  0  0  0  0  0
    2.4105  -19.3534   22.6713 C   0  0  1  0  0  0  0  0  0  0  0  0
    3.0323  -20.2584   23.5304 O   0  0  0  0  0  0  0  0  0  0  0  0
    3.2494  -19.2988   21.4074 C   0  0  2  0  0  0  0  0  0  0  0  0
    3.3102  -20.6512   20.8836 N   0  0  0  0  0  0  0  0  0  0  0  0
    4.6139  -18.8248   21.6671 C   0  0  0  0  0  0  0  0  0  0  0  0
    5.5523  -19.6441   21.8851 O   0  0  0  0  0  0  0  0  0  0  0  0
    8.9212  -11.2796   19.0353 N   0  0  0  0  0  0  0  0  0  0  0  0
    9.1367  -12.6319   19.4760 C   0  0  0  0  0  0  0  0  0  0  0  0
   10.2820  -13.1712   19.3760 N   0  0  0  0  0  0  0  0  0  0  0  0
    8.0567  -13.3683   20.0277 N   0  0  0  0  0  0  0  0  0  0  0  0
    7.8377  -13.5117   21.4421 C   0  0  0  0  0  0  0  0  0  0  0  0
    7.7722  -14.9660   21.8503 C   0  0  0  0  0  0  0  0  0  0  0  0
    6.3904  -15.4694   21.5962 C   0  0  0  0  0  0  0  0  0  0  0  0
    6.2412  -16.9448   21.9432 C   0  0  2  0  0  0  0  0  0  0  0  0
    4.9251  -17.4323   21.6822 N   0  0  0  0  0  0  0  0  0  0  0  0
    6.5992  -17.0720   23.4011 C   0  0  0  0  0  0  0  0  0  0  0  0
    5.8122  -16.6808   24.2992 O   0  0  0  0  0  0  0  0  0  0  0  0
   10.4505  -14.1424   19.6705 N   0  0  0  0  0  0  0  0  0  0  0  0
    7.8327  -17.6352   23.8292 C   0  0  2  0  0  0  0  0  0  0  0  0
    8.2221  -17.7270   25.2202 C   0  0  0  0  0  0  0  0  0  0  0  0
    8.2900  -19.1477   25.6777 C   0  0  0  0  0  0  0  0  0  0  0  0
    8.7373  -19.3436   27.0789 C   0  0  0  0  0  0  0  0  0  0  0  0
    8.9230  -20.7896   27.4647 C   0  0  0  0  0  0  0  0  0  0  0  0
    9.4244  -20.7858   28.9150 N   0  0  0  0  0  0  0  0  0  0  0  0
    9.5746  -22.1626   29.3462 C   0  0  0  0  0  0  0  0  0  0  0  0
    9.4294  -16.9474   25.4317 O   0  0  0  0  0  0  0  0  0  0  0  0
   10.1314  -16.6052   24.4492 O   0  0  0  0  0  0  0  0  0  0  0  0
  2  1  1  6
  2  3  1  0
  4  2  1  0
  4  5  1  1
  6  4  1  0
  6  7  2  0
  9  8  1  0
 10  9  2  0
 11  9  1  0
 12 11  1  0
 13 12  1  0
 13 14  1  0
 15 14  1  1
 15 16  1  0
 16  6  1  0
 17 15  1  0
 18 17  2  0
 19 17  1  0
 20 26  1  0
 20 19  1  0
 20 21  1  6
 22 21  1  0
 23 22  1  0
 24 25  1  0
 24 23  1  0
 26 28  1  0
 27 26  2  0
M  END
$$$$
