TRK.pdb
     RDKit          3D

 28 27  0  0  1  0  0  0  0  0999 V2000
    7.7800  -12.1434   18.4771 C   0  0  0  0  0  0  0  0  0  0  0  0
    7.5037  -13.2752   19.4403 C   0  0  1  0  0  0  0  0  0  0  0  0
    7.0500  -14.3719   18.7088 O   0  0  0  0  0  0  0  0  0  0  0  0
    8.7655  -13.7173   20.1593 C   0  0  2  0  0  0  0  0  0  0  0  0
    9.6515  -14.2720   19.1521 N   0  0  0  0  0  0  0  0  0  0  0  0
    8.4954  -14.7415   21.1751 C   0  0  0  0  0  0  0  0  0  0  0  0
    7.7926  -14.4739   22.1919 O   0  0  0  0  0  0  0  0  0  0  0  0
    6.5083  -21.0719   23.5543 N   0  0  0  0  0  0  0  0  0  0  0  0
    7.5784  -22.0280   23.6555 C   0  0  0  0  0  0  0  0  0  0  0  0
    7.5659  -22.9213   24.5579 N   0  0  0  0  0  0  0  0  0  0  0  0
    8.6575  -21.9699   22.7361 N   0  0  0  0  0  0  0  0  0  0  0  0
    8.8421  -20.8935   21.8000 C   0  0  0  0  0  0  0  0  0  0  0  0
    8.7321  -19.5447   22.4743 C   0  0  0  0  0  0  0  0  0  0  0  0
    8.9712  -18.4822   21.4539 C   0  0  0  0  0  0  0  0  0  0  0  0
    8.7534  -17.0835   22.0159 C   0  0  2  0  0  0  0  0  0  0  0  0
    9.0137  -16.0651   21.0500 N   0  0  0  0  0  0  0  0  0  0  0  0
    9.6673  -16.9624   23.2075 C   0  0  0  0  0  0  0  0  0  0  0  0
   10.9082  -16.8278   23.0627 O   0  0  0  0  0  0  0  0  0  0  0  0
    8.3040  -23.6350   24.6232 N   0  0  0  0  0  0  0  0  0  0  0  0
    9.1763  -16.9940   24.5417 C   0  0  2  0  0  0  0  0  0  0  0  0
   10.0140  -16.7688   25.7004 C   0  0  0  0  0  0  0  0  0  0  0  0
    9.4716  -15.6779   26.5652 C   0  0  0  0  0  0  0  0  0  0  0  0
   10.1981  -15.4564   27.8398 C   0  0  0  0  0  0  0  0  0  0  0  0
    9.6625  -14.3077   28.6571 C   0  0  0  0  0  0  0  0  0  0  0  0
   10.4796  -14.2874   29.9558 N   0  0  0  0  0  0  0  0  0  0  0  0
   10.0077  -13.1842   30.7709 C   0  0  0  0  0  0  0  0  0  0  0  0
   10.2519  -18.0345   26.3722 O   0  0  0  0  0  0  0  0  0  0  0  0
   11.2525  -18.1667   27.1182 O   0  0  0  0  0  0  0  0  0  0  0  0
  2  1  1  6
  2  3  1  0
  4  2  1  0
  4  5  1  6
  6  4  1  0
  6  7  2  0
  9  8  1  0
 10  9  2  0
 11  9  1  0
 12 11  1  0
 13 12  1  0
 13 14  1  0
 15 14  1  6
 15 16  1  0
 16  6  1  0
 17 15  1  0
 18 17  2  0
 19 17  1  0
 20 26  1  0
 20 19  1  0
 20 21  1  1
 22 21  1  0
 23 22  1  0
 24 25  1  0
 24 23  1  0
 26 28  1  0
 27 26  2  0
M  END
$$$$
