TRK.pdb
     RDKit          3D

 28 27  0  0  1  0  0  0  0  0999 V2000
    8.5809  -23.0096   21.0996 C   0  0  0  0  0  0  0  0  0  0  0  0
    8.6391  -22.8401   19.5986 C   0  0  1  0  0  0  0  0  0  0  0  0
    7.7333  -23.7293   19.0220 O   0  0  0  0  0  0  0  0  0  0  0  0
    8.2148  -21.4447   19.1772 C   0  0  2  0  0  0  0  0  0  0  0  0
    8.2176  -21.4241   17.7258 N   0  0  0  0  0  0  0  0  0  0  0  0
    9.1332  -20.4124   19.6719 C   0  0  0  0  0  0  0  0  0  0  0  0
   10.3089  -20.3203   19.2148 O   0  0  0  0  0  0  0  0  0  0  0  0
    7.9467  -12.1416   21.4408 N   0  0  0  0  0  0  0  0  0  0  0  0
    8.1909  -12.7100   20.1420 C   0  0  0  0  0  0  0  0  0  0  0  0
    8.5192  -11.9712   19.1627 N   0  0  0  0  0  0  0  0  0  0  0  0
    8.0628  -14.1108   19.9563 N   0  0  0  0  0  0  0  0  0  0  0  0
    8.2056  -15.0664   21.0218 C   0  0  0  0  0  0  0  0  0  0  0  0
    8.9340  -16.3086   20.5612 C   0  0  0  0  0  0  0  0  0  0  0  0
    8.9984  -17.2716   21.6996 C   0  0  0  0  0  0  0  0  0  0  0  0
    9.6524  -18.5890   21.3042 C   0  0  2  0  0  0  0  0  0  0  0  0
    8.7327  -19.4840   20.6788 N   0  0  0  0  0  0  0  0  0  0  0  0
   10.2186  -19.1742   22.5717 C   0  0  0  0  0  0  0  0  0  0  0  0
    9.4690  -19.6758   23.4466 O   0  0  0  0  0  0  0  0  0  0  0  0
    8.6165  -12.3470   18.2100 N   0  0  0  0  0  0  0  0  0  0  0  0
   11.6153  -19.1879   22.8386 C   0  0  2  0  0  0  0  0  0  0  0  0
   12.1921  -19.8063   24.0134 C   0  0  0  0  0  0  0  0  0  0  0  0
   13.5921  -20.2627   23.7610 C   0  0  0  0  0  0  0  0  0  0  0  0
   14.2252  -21.0158   24.8718 C   0  0  0  0  0  0  0  0  0  0  0  0
   15.6260  -21.4864   24.5708 C   0  0  0  0  0  0  0  0  0  0  0  0
   16.0540  -22.3507   25.7644 N   0  0  0  0  0  0  0  0  0  0  0  0
   17.3158  -22.9857   25.4348 C   0  0  0  0  0  0  0  0  0  0  0  0
   12.0225  -18.9209   25.1524 O   0  0  0  0  0  0  0  0  0  0  0  0
   12.1062  -19.3799   26.3175 O   0  0  0  0  0  0  0  0  0  0  0  0
  2  1  1  1
  2  3  1  0
  4  2  1  0
  4  5  1  6
  6  4  1  0
  6  7  2  0
  9  8  1  0
 10  9  2  0
 11  9  1  0
 12 11  1  0
 13 12  1  0
 13 14  1  0
 15 14  1  1
 15 16  1  0
 16  6  1  0
 17 15  1  0
 18 17  2  0
 19 17  1  0
 20 26  1  0
 20 19  1  0
 20 21  1  6
 22 21  1  0
 23 22  1  0
 24 25  1  0
 24 23  1  0
 26 28  1  0
 27 26  2  0
M  END
$$$$
