TRK.pdb
     RDKit          3D

 28 27  0  0  1  0  0  0  0  0999 V2000
    6.4966  -18.7753   25.7516 C   0  0  0  0  0  0  0  0  0  0  0  0
    6.5059  -19.9097   24.7525 C   0  0  1  0  0  0  0  0  0  0  0  0
    5.5594  -20.8525   25.1515 O   0  0  0  0  0  0  0  0  0  0  0  0
    6.1004  -19.4378   23.3678 C   0  0  2  0  0  0  0  0  0  0  0  0
    5.9455  -20.6249   22.5470 N   0  0  0  0  0  0  0  0  0  0  0  0
    7.1121  -18.5651   22.7606 C   0  0  0  0  0  0  0  0  0  0  0  0
    8.2219  -19.0331   22.3747 O   0  0  0  0  0  0  0  0  0  0  0  0
    7.0192  -12.2624   17.0745 N   0  0  0  0  0  0  0  0  0  0  0  0
    7.5734  -13.5852   17.1850 C   0  0  0  0  0  0  0  0  0  0  0  0
    7.6978  -14.3235   16.1594 N   0  0  0  0  0  0  0  0  0  0  0  0
    7.9847  -14.0674   18.4545 N   0  0  0  0  0  0  0  0  0  0  0  0
    7.7115  -13.3801   19.6882 C   0  0  0  0  0  0  0  0  0  0  0  0
    8.2875  -14.1180   20.8755 C   0  0  0  0  0  0  0  0  0  0  0  0
    7.2521  -15.0563   21.3999 C   0  0  0  0  0  0  0  0  0  0  0  0
    7.8670  -16.2878   22.0517 C   0  0  2  0  0  0  0  0  0  0  0  0
    6.8787  -17.1682   22.5864 N   0  0  0  0  0  0  0  0  0  0  0  0
    8.7922  -15.7773   23.1256 C   0  0  0  0  0  0  0  0  0  0  0  0
    8.3450  -15.3608   24.2236 O   0  0  0  0  0  0  0  0  0  0  0  0
    8.1033  -15.2672   16.2177 N   0  0  0  0  0  0  0  0  0  0  0  0
   10.2031  -15.7415   22.9521 C   0  0  2  0  0  0  0  0  0  0  0  0
   11.1402  -16.0624   24.0075 C   0  0  0  0  0  0  0  0  0  0  0  0
   10.7738  -17.3359   24.6974 C   0  0  0  0  0  0  0  0  0  0  0  0
   11.5655  -17.6516   25.9119 C   0  0  0  0  0  0  0  0  0  0  0  0
   10.7546  -18.2576   27.0298 C   0  0  0  0  0  0  0  0  0  0  0  0
   11.6010  -19.4027   27.6018 N   0  0  0  0  0  0  0  0  0  0  0  0
   12.5241  -18.8435   28.5710 C   0  0  0  0  0  0  0  0  0  0  0  0
   12.4925  -16.0079   23.4798 O   0  0  0  0  0  0  0  0  0  0  0  0
   12.6850  -16.1155   22.2443 O   0  0  0  0  0  0  0  0  0  0  0  0
  2  1  1  1
  2  3  1  0
  4  2  1  0
  4  5  1  6
  6  4  1  0
  6  7  2  0
  9  8  1  0
 10  9  2  0
 11  9  1  0
 12 11  1  0
 13 12  1  0
 13 14  1  0
 15 14  1  1
 15 16  1  0
 16  6  1  0
 17 15  1  0
 18 17  2  0
 19 17  1  0
 20 26  1  0
 20 19  1  0
 20 21  1  1
 22 21  1  0
 23 22  1  0
 24 25  1  0
 24 23  1  0
 26 28  1  0
 27 26  2  0
M  END
$$$$
