TRK.pdb
     RDKit          3D

 28 27  0  0  1  0  0  0  0  0999 V2000
    6.8164  -12.5808   18.7038 C   0  0  0  0  0  0  0  0  0  0  0  0
    7.5985  -13.8446   18.9804 C   0  0  1  0  0  0  0  0  0  0  0  0
    8.3530  -14.1493   17.8483 O   0  0  0  0  0  0  0  0  0  0  0  0
    8.5782  -13.6559   20.1246 C   0  0  2  0  0  0  0  0  0  0  0  0
    9.5329  -12.6485   19.6995 N   0  0  0  0  0  0  0  0  0  0  0  0
    9.2995  -14.8927   20.4470 C   0  0  0  0  0  0  0  0  0  0  0  0
    8.6717  -15.9402   20.7759 O   0  0  0  0  0  0  0  0  0  0  0  0
   16.3055  -16.2639   16.5090 N   0  0  0  0  0  0  0  0  0  0  0  0
   15.4559  -15.1452   16.8191 C   0  0  0  0  0  0  0  0  0  0  0  0
   15.7860  -13.9671   16.4792 N   0  0  0  0  0  0  0  0  0  0  0  0
   14.2371  -15.3635   17.5120 N   0  0  0  0  0  0  0  0  0  0  0  0
   13.5906  -16.6461   17.5905 C   0  0  0  0  0  0  0  0  0  0  0  0
   12.3182  -16.5788   18.4045 C   0  0  0  0  0  0  0  0  0  0  0  0
   12.6786  -16.3186   19.8293 C   0  0  0  0  0  0  0  0  0  0  0  0
   11.4500  -16.1432   20.7120 C   0  0  2  0  0  0  0  0  0  0  0  0
   10.7244  -14.9540   20.4004 N   0  0  0  0  0  0  0  0  0  0  0  0
   11.9517  -16.1288   22.1325 C   0  0  0  0  0  0  0  0  0  0  0  0
   12.6857  -15.1992   22.5523 O   0  0  0  0  0  0  0  0  0  0  0  0
   15.1937  -13.1548   16.6977 N   0  0  0  0  0  0  0  0  0  0  0  0
   11.6232  -17.1558   23.0596 C   0  0  2  0  0  0  0  0  0  0  0  0
   12.1505  -17.2064   24.4067 C   0  0  0  0  0  0  0  0  0  0  0  0
   11.2277  -17.9338   25.3294 C   0  0  0  0  0  0  0  0  0  0  0  0
   11.7721  -18.2159   26.6806 C   0  0  0  0  0  0  0  0  0  0  0  0
   10.8730  -19.0740   27.5349 C   0  0  0  0  0  0  0  0  0  0  0  0
   11.6189  -19.2923   28.8581 N   0  0  0  0  0  0  0  0  0  0  0  0
   10.7679  -20.0748   29.7342 C   0  0  0  0  0  0  0  0  0  0  0  0
   13.5136  -17.7069   24.3686 O   0  0  0  0  0  0  0  0  0  0  0  0
   13.8329  -18.5846   23.5303 O   0  0  0  0  0  0  0  0  0  0  0  0
  2  1  1  6
  2  3  1  0
  4  2  1  0
  4  5  1  6
  6  4  1  0
  6  7  2  0
  9  8  1  0
 10  9  2  0
 11  9  1  0
 12 11  1  0
 13 12  1  0
 13 14  1  0
 15 14  1  6
 15 16  1  0
 16  6  1  0
 17 15  1  0
 18 17  2  0
 19 17  1  0
 20 26  1  0
 20 19  1  0
 20 21  1  6
 22 21  1  0
 23 22  1  0
 24 25  1  0
 24 23  1  0
 26 28  1  0
 27 26  2  0
M  END
$$$$
