TRK.pdb
     RDKit          3D

 28 27  0  0  1  0  0  0  0  0999 V2000
   15.0108  -13.9241   19.6966 C   0  0  0  0  0  0  0  0  0  0  0  0
   14.0745  -14.7721   18.8661 C   0  0  1  0  0  0  0  0  0  0  0  0
   14.8221  -15.4093   17.8767 O   0  0  0  0  0  0  0  0  0  0  0  0
   13.4237  -15.8631   19.6972 C   0  0  2  0  0  0  0  0  0  0  0  0
   12.6092  -16.6528   18.7916 N   0  0  0  0  0  0  0  0  0  0  0  0
   12.5682  -15.3173   20.7574 C   0  0  0  0  0  0  0  0  0  0  0  0
   13.0525  -14.5792   21.6631 O   0  0  0  0  0  0  0  0  0  0  0  0
    8.1497  -12.2977   18.3350 N   0  0  0  0  0  0  0  0  0  0  0  0
    7.6858  -13.5717   17.8541 C   0  0  0  0  0  0  0  0  0  0  0  0
    7.8832  -13.9205   16.6492 N   0  0  0  0  0  0  0  0  0  0  0  0
    7.0010  -14.4455   18.7376 N   0  0  0  0  0  0  0  0  0  0  0  0
    7.0098  -14.2910   20.1677 C   0  0  0  0  0  0  0  0  0  0  0  0
    8.4029  -14.0212   20.6896 C   0  0  0  0  0  0  0  0  0  0  0  0
    8.8499  -15.2026   21.4845 C   0  0  0  0  0  0  0  0  0  0  0  0
   10.3262  -15.1260   21.8508 C   0  0  2  0  0  0  0  0  0  0  0  0
   11.1701  -15.5993   20.8012 N   0  0  0  0  0  0  0  0  0  0  0  0
   10.4910  -15.9444   23.1049 C   0  0  0  0  0  0  0  0  0  0  0  0
   10.7497  -17.1729   23.0489 O   0  0  0  0  0  0  0  0  0  0  0  0
    7.6124  -14.8509   16.3038 N   0  0  0  0  0  0  0  0  0  0  0  0
   10.3635  -15.3737   24.4010 C   0  0  2  0  0  0  0  0  0  0  0  0
   10.3931  -16.1562   25.6184 C   0  0  0  0  0  0  0  0  0  0  0  0
   10.5767  -15.2903   26.8221 C   0  0  0  0  0  0  0  0  0  0  0  0
   10.7440  -16.0144   28.1064 C   0  0  0  0  0  0  0  0  0  0  0  0
   10.9912  -15.1119   29.2891 C   0  0  0  0  0  0  0  0  0  0  0  0
   11.2303  -16.0355   30.4910 N   0  0  0  0  0  0  0  0  0  0  0  0
   11.5111  -15.2086   31.6492 C   0  0  0  0  0  0  0  0  0  0  0  0
    9.2344  -17.0315   25.6530 O   0  0  0  0  0  0  0  0  0  0  0  0
    9.2904  -18.1164   26.2815 O   0  0  0  0  0  0  0  0  0  0  0  0
  2  1  1  1
  2  3  1  0
  4  2  1  0
  4  5  1  6
  6  4  1  0
  6  7  2  0
  9  8  1  0
 10  9  2  0
 11  9  1  0
 12 11  1  0
 13 12  1  0
 13 14  1  0
 15 14  1  6
 15 16  1  0
 16  6  1  0
 17 15  1  0
 18 17  2  0
 19 17  1  0
 20 26  1  0
 20 19  1  0
 20 21  1  6
 22 21  1  0
 23 22  1  0
 24 25  1  0
 24 23  1  0
 26 28  1  0
 27 26  2  0
M  END
$$$$
