FNE.pdb
     RDKit          3D

 29 29  0  0  1  0  0  0  0  0999 V2000
    8.5562  -15.2180   24.7541 N   0  0  0  0  0  0  0  0  0  0  0  0
    7.4324  -15.6608   25.5263 C   0  0  1  0  0  0  0  0  0  0  0  0
    6.1754  -14.8705   25.2239 C   0  0  0  0  0  0  0  0  0  0  0  0
    6.3325  -13.4344   25.5168 C   0  0  0  0  0  0  0  0  0  0  0  0
    5.8413  -12.9541   26.7007 C   0  0  0  0  0  0  0  0  0  0  0  0
    5.9785  -11.6183   26.9909 C   0  0  0  0  0  0  0  0  0  0  0  0
    6.5955  -10.7285   26.1342 C   0  0  0  0  0  0  0  0  0  0  0  0
    7.0717  -11.2596   24.9589 C   0  0  0  0  0  0  0  0  0  0  0  0
    6.9524  -12.5924   24.6344 C   0  0  0  0  0  0  0  0  0  0  0  0
    7.0958  -17.0970   25.2225 C   0  0  0  0  0  0  0  0  0  0  0  0
    6.1217  -17.6610   25.7856 O   0  0  0  0  0  0  0  0  0  0  0  0
    7.7444  -21.8653   21.4758 N   0  0  0  0  0  0  0  0  0  0  0  0
    7.1790  -21.1115   22.5299 C   0  0  0  0  0  0  0  0  0  0  0  0
    6.4533  -21.7257   23.3411 O   0  0  0  0  0  0  0  0  0  0  0  0
    7.4142  -19.6643   22.6947 C   0  0  0  0  0  0  0  0  0  0  0  0
    7.7220  -19.2752   24.1136 C   0  0  2  0  0  0  0  0  0  0  0  0
    7.8692  -17.8480   24.2939 N   0  0  0  0  0  0  0  0  0  0  0  0
    8.8341  -20.0404   24.6903 C   0  0  0  0  0  0  0  0  0  0  0  0
    8.7825  -21.2855   24.7466 O   0  0  0  0  0  0  0  0  0  0  0  0
    9.9662  -19.3516   25.1820 N   0  0  0  0  0  0  0  0  0  0  0  0
   11.0920  -20.0458   25.8287 C   0  0  1  0  0  0  0  0  0  0  0  0
   12.3338  -19.5703   25.1432 C   0  0  0  0  0  0  0  0  0  0  0  0
   12.7045  -18.1495   25.4138 C   0  0  0  0  0  0  0  0  0  0  0  0
   13.9180  -17.7709   24.6097 C   0  0  0  0  0  0  0  0  0  0  0  0
   13.8449  -17.6473   23.3634 O   0  0  0  0  0  0  0  0  0  0  0  0
   11.0862  -19.7299   27.2662 C   0  0  0  0  0  0  0  0  0  0  0  0
   11.8485  -20.3520   28.0432 O   0  0  0  0  0  0  0  0  0  0  0  0
   15.1533  -17.5457   25.2083 O   0  0  0  0  0  0  0  0  0  0  0  0
   10.2605  -18.7583   27.8027 O   0  0  0  0  0  0  0  0  0  0  0  0
  2  1  1  6
  2  3  1  0
  3  4  1  0
  4  5  2  0
  4  9  1  0
  5  6  1  0
  6  7  2  0
  8  7  1  0
  9  8  2  0
 10  2  1  0
 11 10  2  0
 12 13  1  0
 13 14  2  0
 16 15  1  6
 15 13  1  0
 16 17  1  0
 17 10  1  0
 18 20  1  0
 18 16  1  0
 19 18  2  0
 21 22  1  6
 21 26  1  0
 21 20  1  0
 23 22  1  0
 24 23  1  0
 25 24  2  0
 26 29  1  0
 27 26  2  0
 28 24  1  0
M  END
$$$$
