FNE.pdb
     RDKit          3D

 29 29  0  0  1  0  0  0  0  0999 V2000
    6.7270  -14.6475   22.8600 N   0  0  0  0  0  0  0  0  0  0  0  0
    7.7191  -15.4014   23.5690 C   0  0  1  0  0  0  0  0  0  0  0  0
    7.5172  -15.3553   25.0701 C   0  0  0  0  0  0  0  0  0  0  0  0
    7.2876  -13.9851   25.5626 C   0  0  0  0  0  0  0  0  0  0  0  0
    8.3747  -13.1868   25.7961 C   0  0  0  0  0  0  0  0  0  0  0  0
    8.1804  -11.9067   26.2554 C   0  0  0  0  0  0  0  0  0  0  0  0
    6.9255  -11.3828   26.4950 C   0  0  0  0  0  0  0  0  0  0  0  0
    5.8669  -12.2236   26.2453 C   0  0  0  0  0  0  0  0  0  0  0  0
    6.0234  -13.5117   25.7848 C   0  0  0  0  0  0  0  0  0  0  0  0
    7.6658  -16.8589   23.1935 C   0  0  0  0  0  0  0  0  0  0  0  0
    6.9068  -17.2571   22.2719 O   0  0  0  0  0  0  0  0  0  0  0  0
    7.3908  -20.1022   21.1332 N   0  0  0  0  0  0  0  0  0  0  0  0
    8.0408  -18.8497   21.0446 C   0  0  0  0  0  0  0  0  0  0  0  0
    7.4677  -17.9585   20.3818 O   0  0  0  0  0  0  0  0  0  0  0  0
    9.3371  -18.5730   21.6927 C   0  0  0  0  0  0  0  0  0  0  0  0
    9.3066  -18.7757   23.1818 C   0  0  2  0  0  0  0  0  0  0  0  0
    8.4704  -17.8176   23.8702 N   0  0  0  0  0  0  0  0  0  0  0  0
   10.6453  -18.8925   23.7727 C   0  0  0  0  0  0  0  0  0  0  0  0
   11.4391  -19.7671   23.3714 O   0  0  0  0  0  0  0  0  0  0  0  0
   11.0269  -18.0029   24.8025 N   0  0  0  0  0  0  0  0  0  0  0  0
   12.3236  -18.1049   25.4923 C   0  0  1  0  0  0  0  0  0  0  0  0
   13.1171  -16.9042   25.0839 C   0  0  0  0  0  0  0  0  0  0  0  0
   13.5622  -16.8915   23.6588 C   0  0  0  0  0  0  0  0  0  0  0  0
   14.8200  -16.0789   23.5184 C   0  0  0  0  0  0  0  0  0  0  0  0
   15.7861  -16.2579   24.2985 O   0  0  0  0  0  0  0  0  0  0  0  0
   12.0898  -18.1581   26.9444 C   0  0  0  0  0  0  0  0  0  0  0  0
   10.9644  -17.8532   27.4051 O   0  0  0  0  0  0  0  0  0  0  0  0
   14.9602  -15.1092   22.5310 O   0  0  0  0  0  0  0  0  0  0  0  0
   13.0777  -18.5376   27.8354 O   0  0  0  0  0  0  0  0  0  0  0  0
  2  1  1  6
  2  3  1  0
  3  4  1  0
  4  5  2  0
  4  9  1  0
  5  6  1  0
  6  7  2  0
  8  7  1  0
  9  8  2  0
 10  2  1  0
 11 10  2  0
 12 13  1  0
 13 14  2  0
 16 15  1  6
 15 13  1  0
 16 17  1  0
 17 10  1  0
 18 20  1  0
 18 16  1  0
 19 18  2  0
 21 22  1  1
 21 26  1  0
 21 20  1  0
 23 22  1  0
 24 23  1  0
 25 24  2  0
 26 29  1  0
 27 26  2  0
 28 24  1  0
M  END
$$$$
