FNE.pdb
     RDKit          3D

 29 29  0  0  1  0  0  0  0  0999 V2000
    8.3240  -15.4948   23.2721 N   0  0  0  0  0  0  0  0  0  0  0  0
    9.3890  -15.7978   22.3616 C   0  0  1  0  0  0  0  0  0  0  0  0
    9.9356  -14.5606   21.6785 C   0  0  0  0  0  0  0  0  0  0  0  0
    8.9160  -13.8724   20.8664 C   0  0  0  0  0  0  0  0  0  0  0  0
    9.3338  -12.9737   19.9223 C   0  0  0  0  0  0  0  0  0  0  0  0
    8.3978  -12.3225   19.1559 C   0  0  0  0  0  0  0  0  0  0  0  0
    7.0407  -12.5350   19.2958 C   0  0  0  0  0  0  0  0  0  0  0  0
    6.6723  -13.4463   20.2569 C   0  0  0  0  0  0  0  0  0  0  0  0
    7.5817  -14.1176   21.0432 C   0  0  0  0  0  0  0  0  0  0  0  0
   10.5581  -16.4191   23.0795 C   0  0  0  0  0  0  0  0  0  0  0  0
   10.7961  -16.1370   24.2828 O   0  0  0  0  0  0  0  0  0  0  0  0
   13.7398  -21.3983   23.9836 N   0  0  0  0  0  0  0  0  0  0  0  0
   13.3349  -20.0596   24.1914 C   0  0  0  0  0  0  0  0  0  0  0  0
   13.9469  -19.4110   25.0670 O   0  0  0  0  0  0  0  0  0  0  0  0
   12.2436  -19.4257   23.4272 C   0  0  0  0  0  0  0  0  0  0  0  0
   12.5293  -17.9941   23.0690 C   0  0  2  0  0  0  0  0  0  0  0  0
   11.4187  -17.3375   22.4160 N   0  0  0  0  0  0  0  0  0  0  0  0
   13.7963  -17.8249   22.3472 C   0  0  0  0  0  0  0  0  0  0  0  0
   14.0156  -18.4621   21.2975 O   0  0  0  0  0  0  0  0  0  0  0  0
   14.7671  -16.9313   22.8539 N   0  0  0  0  0  0  0  0  0  0  0  0
   16.0481  -16.6881   22.1700 C   0  0  1  0  0  0  0  0  0  0  0  0
   15.8212  -15.5378   21.2408 C   0  0  0  0  0  0  0  0  0  0  0  0
   16.4821  -15.6584   19.9074 C   0  0  0  0  0  0  0  0  0  0  0  0
   16.1788  -14.4464   19.0699 C   0  0  0  0  0  0  0  0  0  0  0  0
   15.4970  -14.5489   18.0218 O   0  0  0  0  0  0  0  0  0  0  0  0
   17.0815  -16.4023   23.1782 C   0  0  0  0  0  0  0  0  0  0  0  0
   18.2131  -16.9324   23.0772 O   0  0  0  0  0  0  0  0  0  0  0  0
   16.6365  -13.1802   19.4197 O   0  0  0  0  0  0  0  0  0  0  0  0
   16.8506  -15.5582   24.2498 O   0  0  0  0  0  0  0  0  0  0  0  0
  2  1  1  1
  2  3  1  0
  3  4  1  0
  4  5  2  0
  4  9  1  0
  5  6  1  0
  6  7  2  0
  8  7  1  0
  9  8  2  0
 10  2  1  0
 11 10  2  0
 12 13  1  0
 13 14  2  0
 16 15  1  6
 15 13  1  0
 16 17  1  0
 17 10  1  0
 18 20  1  0
 18 16  1  0
 19 18  2  0
 21 22  1  6
 21 26  1  0
 21 20  1  0
 23 22  1  0
 24 23  1  0
 25 24  2  0
 26 29  1  0
 27 26  2  0
 28 24  1  0
M  END
$$$$
