FNE.pdb
     RDKit          3D

 29 29  0  0  1  0  0  0  0  0999 V2000
    6.7956  -15.2035   20.8091 N   0  0  0  0  0  0  0  0  0  0  0  0
    7.3332  -14.7121   22.0440 C   0  0  1  0  0  0  0  0  0  0  0  0
    6.2558  -14.4227   23.0694 C   0  0  0  0  0  0  0  0  0  0  0  0
    6.8020  -13.8312   24.3041 C   0  0  0  0  0  0  0  0  0  0  0  0
    6.6227  -14.5039   25.4826 C   0  0  0  0  0  0  0  0  0  0  0  0
    7.1247  -13.9679   26.6437 C   0  0  0  0  0  0  0  0  0  0  0  0
    7.8092  -12.7693   26.6769 C   0  0  0  0  0  0  0  0  0  0  0  0
    7.9629  -12.1327   25.4682 C   0  0  0  0  0  0  0  0  0  0  0  0
    7.4736  -12.6394   24.2850 C   0  0  0  0  0  0  0  0  0  0  0  0
    8.2441  -15.7272   22.6828 C   0  0  0  0  0  0  0  0  0  0  0  0
    7.8085  -16.8593   23.0185 O   0  0  0  0  0  0  0  0  0  0  0  0
   11.7455  -17.4547   20.7256 N   0  0  0  0  0  0  0  0  0  0  0  0
   12.0282  -16.2792   21.4587 C   0  0  0  0  0  0  0  0  0  0  0  0
   12.3565  -15.2668   20.8034 O   0  0  0  0  0  0  0  0  0  0  0  0
   11.9492  -16.2154   22.9306 C   0  0  0  0  0  0  0  0  0  0  0  0
   10.5517  -16.3952   23.4540 C   0  0  2  0  0  0  0  0  0  0  0  0
    9.6152  -15.4310   22.9211 N   0  0  0  0  0  0  0  0  0  0  0  0
   10.4955  -16.4961   24.9175 C   0  0  0  0  0  0  0  0  0  0  0  0
   10.8580  -15.5395   25.6313 O   0  0  0  0  0  0  0  0  0  0  0  0
   10.0257  -17.6897   25.5110 N   0  0  0  0  0  0  0  0  0  0  0  0
   10.0852  -17.9247   26.9632 C   0  0  1  0  0  0  0  0  0  0  0  0
    9.2106  -19.1069   27.2379 C   0  0  0  0  0  0  0  0  0  0  0  0
    9.2178  -19.5877   28.6515 C   0  0  0  0  0  0  0  0  0  0  0  0
    8.4286  -20.8628   28.7667 C   0  0  0  0  0  0  0  0  0  0  0  0
    8.5494  -21.5996   29.7748 O   0  0  0  0  0  0  0  0  0  0  0  0
   11.4853  -18.1573   27.3528 C   0  0  0  0  0  0  0  0  0  0  0  0
   12.2660  -18.7300   26.5564 O   0  0  0  0  0  0  0  0  0  0  0  0
    7.5448  -21.2705   27.7728 O   0  0  0  0  0  0  0  0  0  0  0  0
   11.9824  -17.7626   28.5820 O   0  0  0  0  0  0  0  0  0  0  0  0
  2  1  1  6
  2  3  1  0
  3  4  1  0
  4  5  2  0
  4  9  1  0
  5  6  1  0
  6  7  2  0
  8  7  1  0
  9  8  2  0
 10  2  1  0
 11 10  2  0
 12 13  1  0
 13 14  2  0
 16 15  1  1
 15 13  1  0
 16 17  1  0
 17 10  1  0
 18 20  1  0
 18 16  1  0
 19 18  2  0
 21 22  1  6
 21 26  1  0
 21 20  1  0
 23 22  1  0
 24 23  1  0
 25 24  2  0
 26 29  1  0
 27 26  2  0
 28 24  1  0
M  END
$$$$
