FNE.pdb
     RDKit          3D

 29 29  0  0  1  0  0  0  0  0999 V2000
    5.4662  -17.7714   23.9887 N   0  0  0  0  0  0  0  0  0  0  0  0
    6.1486  -16.5315   24.2173 C   0  0  1  0  0  0  0  0  0  0  0  0
    6.5006  -16.3255   25.6767 C   0  0  0  0  0  0  0  0  0  0  0  0
    6.9207  -14.9417   25.9616 C   0  0  0  0  0  0  0  0  0  0  0  0
    6.1352  -13.9166   25.5079 C   0  0  0  0  0  0  0  0  0  0  0  0
    6.5108  -12.6201   25.7638 C   0  0  0  0  0  0  0  0  0  0  0  0
    7.6563  -12.3001   26.4651 C   0  0  0  0  0  0  0  0  0  0  0  0
    8.4108  -13.3643   26.8991 C   0  0  0  0  0  0  0  0  0  0  0  0
    8.0658  -14.6760   26.6615 C   0  0  0  0  0  0  0  0  0  0  0  0
    7.4557  -16.4845   23.4706 C   0  0  0  0  0  0  0  0  0  0  0  0
    8.1723  -17.5137   23.3651 O   0  0  0  0  0  0  0  0  0  0  0  0
    7.1443  -12.8106   20.0744 N   0  0  0  0  0  0  0  0  0  0  0  0
    7.9487  -13.9630   20.2296 C   0  0  0  0  0  0  0  0  0  0  0  0
    7.6343  -14.9692   19.5583 O   0  0  0  0  0  0  0  0  0  0  0  0
    9.1134  -14.0102   21.1340 C   0  0  0  0  0  0  0  0  0  0  0  0
    9.1000  -15.2017   22.0504 C   0  0  2  0  0  0  0  0  0  0  0  0
    7.9099  -15.2781   22.8682 N   0  0  0  0  0  0  0  0  0  0  0  0
   10.3367  -15.3410   22.8289 C   0  0  0  0  0  0  0  0  0  0  0  0
   11.4052  -14.8516   22.4108 O   0  0  0  0  0  0  0  0  0  0  0  0
   10.3051  -16.0364   24.0590 N   0  0  0  0  0  0  0  0  0  0  0  0
   11.5055  -16.2215   24.8911 C   0  0  1  0  0  0  0  0  0  0  0  0
   11.0208  -16.5323   26.2719 C   0  0  0  0  0  0  0  0  0  0  0  0
   12.0931  -16.7477   27.2882 C   0  0  0  0  0  0  0  0  0  0  0  0
   11.4806  -17.0426   28.6299 C   0  0  0  0  0  0  0  0  0  0  0  0
   10.2374  -17.1578   28.7527 O   0  0  0  0  0  0  0  0  0  0  0  0
   12.3188  -17.3081   24.3219 C   0  0  0  0  0  0  0  0  0  0  0  0
   13.5680  -17.2676   24.4204 O   0  0  0  0  0  0  0  0  0  0  0  0
   12.2581  -17.1974   29.7729 O   0  0  0  0  0  0  0  0  0  0  0  0
   11.7511  -18.3897   23.6727 O   0  0  0  0  0  0  0  0  0  0  0  0
  2  1  1  1
  2  3  1  0
  3  4  1  0
  4  5  2  0
  4  9  1  0
  5  6  1  0
  6  7  2  0
  8  7  1  0
  9  8  2  0
 10  2  1  0
 11 10  2  0
 12 13  1  0
 13 14  2  0
 16 15  1  1
 15 13  1  0
 16 17  1  0
 17 10  1  0
 18 20  1  0
 18 16  1  0
 19 18  2  0
 21 22  1  1
 21 26  1  0
 21 20  1  0
 23 22  1  0
 24 23  1  0
 25 24  2  0
 26 29  1  0
 27 26  2  0
 28 24  1  0
M  END
$$$$
