FNE.pdb
     RDKit          3D

 29 29  0  0  1  0  0  0  0  0999 V2000
    6.2994  -16.1224   25.8589 N   0  0  0  0  0  0  0  0  0  0  0  0
    6.9315  -15.4788   24.7447 C   0  0  1  0  0  0  0  0  0  0  0  0
    8.0353  -14.5331   25.1730 C   0  0  0  0  0  0  0  0  0  0  0  0
    7.5224  -13.3858   25.9433 C   0  0  0  0  0  0  0  0  0  0  0  0
    7.0806  -12.2867   25.2575 C   0  0  0  0  0  0  0  0  0  0  0  0
    6.5992  -11.2077   25.9586 C   0  0  0  0  0  0  0  0  0  0  0  0
    6.5400  -11.1806   27.3377 C   0  0  0  0  0  0  0  0  0  0  0  0
    6.9953  -12.3077   27.9798 C   0  0  0  0  0  0  0  0  0  0  0  0
    7.4843  -13.4074   27.3107 C   0  0  0  0  0  0  0  0  0  0  0  0
    7.5850  -16.4850   23.8344 C   0  0  0  0  0  0  0  0  0  0  0  0
    7.6721  -17.6944   24.1716 O   0  0  0  0  0  0  0  0  0  0  0  0
    6.1223  -15.5781   20.5538 N   0  0  0  0  0  0  0  0  0  0  0  0
    7.4366  -15.4699   20.0438 C   0  0  0  0  0  0  0  0  0  0  0  0
    7.7334  -14.4048   19.4613 O   0  0  0  0  0  0  0  0  0  0  0  0
    8.4374  -16.5460   20.1756 C   0  0  0  0  0  0  0  0  0  0  0  0
    8.5918  -17.0374   21.5877 C   0  0  2  0  0  0  0  0  0  0  0  0
    8.1179  -16.0929   22.5747 N   0  0  0  0  0  0  0  0  0  0  0  0
    9.9418  -17.5359   21.8776 C   0  0  0  0  0  0  0  0  0  0  0  0
   10.3872  -18.5373   21.2819 O   0  0  0  0  0  0  0  0  0  0  0  0
   10.7336  -16.8691   22.8400 N   0  0  0  0  0  0  0  0  0  0  0  0
   12.0520  -17.3711   23.2611 C   0  0  1  0  0  0  0  0  0  0  0  0
   13.0549  -16.3530   22.8185 C   0  0  0  0  0  0  0  0  0  0  0  0
   14.4590  -16.6132   23.2542 C   0  0  0  0  0  0  0  0  0  0  0  0
   15.3788  -15.5706   22.6805 C   0  0  0  0  0  0  0  0  0  0  0  0
   15.1296  -14.3497   22.8263 O   0  0  0  0  0  0  0  0  0  0  0  0
   12.0477  -17.5599   24.7207 C   0  0  0  0  0  0  0  0  0  0  0  0
   12.8048  -18.4136   25.2401 O   0  0  0  0  0  0  0  0  0  0  0  0
   16.5272  -15.9142   21.9748 O   0  0  0  0  0  0  0  0  0  0  0  0
   11.2291  -16.8208   25.5559 O   0  0  0  0  0  0  0  0  0  0  0  0
  2  1  1  1
  2  3  1  0
  3  4  1  0
  4  5  2  0
  4  9  1  0
  5  6  1  0
  6  7  2  0
  8  7  1  0
  9  8  2  0
 10  2  1  0
 11 10  2  0
 12 13  1  0
 13 14  2  0
 16 15  1  6
 15 13  1  0
 16 17  1  0
 17 10  1  0
 18 20  1  0
 18 16  1  0
 19 18  2  0
 21 22  1  1
 21 26  1  0
 21 20  1  0
 23 22  1  0
 24 23  1  0
 25 24  2  0
 26 29  1  0
 27 26  2  0
 28 24  1  0
M  END
$$$$
