FNE.pdb
     RDKit          3D

 29 29  0  0  1  0  0  0  0  0999 V2000
    5.5932  -17.6146   24.2975 N   0  0  0  0  0  0  0  0  0  0  0  0
    6.3194  -16.3791   24.3353 C   0  0  1  0  0  0  0  0  0  0  0  0
    6.8508  -16.0625   25.7186 C   0  0  0  0  0  0  0  0  0  0  0  0
    6.8433  -14.6164   26.0042 C   0  0  0  0  0  0  0  0  0  0  0  0
    7.9544  -14.0609   26.5790 C   0  0  0  0  0  0  0  0  0  0  0  0
    7.9657  -12.7146   26.8526 C   0  0  0  0  0  0  0  0  0  0  0  0
    6.8966  -11.8874   26.5714 C   0  0  0  0  0  0  0  0  0  0  0  0
    5.8052  -12.4928   25.9948 C   0  0  0  0  0  0  0  0  0  0  0  0
    5.7580  -13.8384   25.7064 C   0  0  0  0  0  0  0  0  0  0  0  0
    7.5258  -16.4296   23.4352 C   0  0  0  0  0  0  0  0  0  0  0  0
    8.0441  -17.5316   23.1176 O   0  0  0  0  0  0  0  0  0  0  0  0
    7.0466  -12.8824   20.0561 N   0  0  0  0  0  0  0  0  0  0  0  0
    7.8824  -14.0171   20.1695 C   0  0  0  0  0  0  0  0  0  0  0  0
    7.5550  -15.0307   19.5157 O   0  0  0  0  0  0  0  0  0  0  0  0
    9.0935  -14.0382   21.0119 C   0  0  0  0  0  0  0  0  0  0  0  0
    9.1539  -15.2292   21.9271 C   0  0  2  0  0  0  0  0  0  0  0  0
    8.1065  -15.2355   22.9239 N   0  0  0  0  0  0  0  0  0  0  0  0
   10.4880  -15.4454   22.5003 C   0  0  0  0  0  0  0  0  0  0  0  0
   11.5094  -15.2837   21.8027 O   0  0  0  0  0  0  0  0  0  0  0  0
   10.6041  -15.8393   23.8527 N   0  0  0  0  0  0  0  0  0  0  0  0
   11.9033  -16.1356   24.4788 C   0  0  1  0  0  0  0  0  0  0  0  0
   11.6075  -16.6077   25.8672 C   0  0  0  0  0  0  0  0  0  0  0  0
   10.9483  -15.6026   26.7530 C   0  0  0  0  0  0  0  0  0  0  0  0
   10.7689  -16.1711   28.1339 C   0  0  0  0  0  0  0  0  0  0  0  0
   10.2176  -17.2858   28.2988 O   0  0  0  0  0  0  0  0  0  0  0  0
   12.6006  -17.1523   23.6749 C   0  0  0  0  0  0  0  0  0  0  0  0
   11.9590  -18.1214   23.2046 O   0  0  0  0  0  0  0  0  0  0  0  0
   11.2016  -15.4920   29.2683 O   0  0  0  0  0  0  0  0  0  0  0  0
   13.9570  -17.0802   23.4128 O   0  0  0  0  0  0  0  0  0  0  0  0
  2  1  1  1
  2  3  1  0
  3  4  1  0
  4  5  2  0
  4  9  1  0
  5  6  1  0
  6  7  2  0
  8  7  1  0
  9  8  2  0
 10  2  1  0
 11 10  2  0
 12 13  1  0
 13 14  2  0
 16 15  1  1
 15 13  1  0
 16 17  1  0
 17 10  1  0
 18 20  1  0
 18 16  1  0
 19 18  2  0
 21 22  1  1
 21 26  1  0
 21 20  1  0
 23 22  1  0
 24 23  1  0
 25 24  2  0
 26 29  1  0
 27 26  2  0
 28 24  1  0
M  END
$$$$
