FNE.pdb
     RDKit          3D

 29 29  0  0  1  0  0  0  0  0999 V2000
    5.9083  -17.2075   25.1842 N   0  0  0  0  0  0  0  0  0  0  0  0
    6.8561  -16.1886   24.8397 C   0  0  1  0  0  0  0  0  0  0  0  0
    7.5249  -15.5850   26.0580 C   0  0  0  0  0  0  0  0  0  0  0  0
    7.2561  -14.1414   26.1870 C   0  0  0  0  0  0  0  0  0  0  0  0
    8.2411  -13.2614   25.8280 C   0  0  0  0  0  0  0  0  0  0  0  0
    8.0087  -11.9121   25.9415 C   0  0  0  0  0  0  0  0  0  0  0  0
    6.8146  -11.3975   26.4060 C   0  0  0  0  0  0  0  0  0  0  0  0
    5.8580  -12.3216   26.7534 C   0  0  0  0  0  0  0  0  0  0  0  0
    6.0552  -13.6806   26.6531 C   0  0  0  0  0  0  0  0  0  0  0  0
    7.9712  -16.7465   23.9949 C   0  0  0  0  0  0  0  0  0  0  0  0
    8.3866  -17.9209   24.1742 O   0  0  0  0  0  0  0  0  0  0  0  0
   10.8666  -17.1802   19.0384 N   0  0  0  0  0  0  0  0  0  0  0  0
   10.9972  -16.2477   20.0931 C   0  0  0  0  0  0  0  0  0  0  0  0
   12.1502  -15.8401   20.3507 O   0  0  0  0  0  0  0  0  0  0  0  0
    9.8461  -15.7570   20.8748 C   0  0  0  0  0  0  0  0  0  0  0  0
    9.7424  -16.3923   22.2331 C   0  0  2  0  0  0  0  0  0  0  0  0
    8.5797  -15.9607   22.9767 N   0  0  0  0  0  0  0  0  0  0  0  0
   10.9845  -16.2939   23.0093 C   0  0  0  0  0  0  0  0  0  0  0  0
   11.1998  -15.3019   23.7342 O   0  0  0  0  0  0  0  0  0  0  0  0
   11.9359  -17.3359   22.9271 N   0  0  0  0  0  0  0  0  0  0  0  0
   13.0048  -17.5081   23.9248 C   0  0  1  0  0  0  0  0  0  0  0  0
   12.4961  -18.4973   24.9252 C   0  0  0  0  0  0  0  0  0  0  0  0
   12.3394  -17.9728   26.3143 C   0  0  0  0  0  0  0  0  0  0  0  0
   11.8516  -19.0650   27.2261 C   0  0  0  0  0  0  0  0  0  0  0  0
   12.0481  -20.2706   26.9403 O   0  0  0  0  0  0  0  0  0  0  0  0
   14.2241  -17.9722   23.2438 C   0  0  0  0  0  0  0  0  0  0  0  0
   14.1314  -18.7286   22.2483 O   0  0  0  0  0  0  0  0  0  0  0  0
   11.1721  -18.7852   28.4073 O   0  0  0  0  0  0  0  0  0  0  0  0
   15.4887  -17.6010   23.6646 O   0  0  0  0  0  0  0  0  0  0  0  0
  2  1  1  1
  2  3  1  0
  3  4  1  0
  4  5  2  0
  4  9  1  0
  5  6  1  0
  6  7  2  0
  8  7  1  0
  9  8  2  0
 10  2  1  0
 11 10  2  0
 12 13  1  0
 13 14  2  0
 16 15  1  6
 15 13  1  0
 16 17  1  0
 17 10  1  0
 18 20  1  0
 18 16  1  0
 19 18  2  0
 21 22  1  1
 21 26  1  0
 21 20  1  0
 23 22  1  0
 24 23  1  0
 25 24  2  0
 26 29  1  0
 27 26  2  0
 28 24  1  0
M  END
$$$$
