QIW.pdb
     RDKit          3D

 32 33  0  0  1  0  0  0  0  0999 V2000
   20.5589  -18.3949  -14.4634 N   0  0  0  0  0  0  0  0  0  0  0  0
   19.7182  -19.2492  -15.2155 C   0  0  0  0  0  0  0  0  0  0  0  0
   18.4940  -19.0367  -15.1793 O   0  0  0  0  0  0  0  0  0  0  0  0
   20.2423  -20.3669  -16.0277 C   0  0  0  0  0  0  0  0  0  0  0  0
   21.7162  -20.4910  -16.0682 C   0  0  0  0  0  0  0  0  0  0  0  0
   22.4170  -19.8652  -17.2230 C   0  0  2  0  0  0  0  0  0  0  0  0
   22.3212  -20.6940  -18.4250 N   0  0  0  0  0  0  0  0  0  0  0  0
   23.8278  -19.5772  -16.9055 C   0  0  0  0  0  0  0  0  0  0  0  0
   24.6868  -20.4634  -17.1334 O   0  0  0  0  0  0  0  0  0  0  0  0
   26.4630  -16.9074  -18.5336 C   0  0  0  0  0  0  0  0  0  0  0  0
   25.9086  -16.0550  -17.4414 C   0  0  0  0  0  0  0  0  0  0  0  0
   25.9932  -16.6469  -16.0709 C   0  0  2  0  0  0  0  0  0  0  0  0
   27.4223  -16.5274  -15.5701 C   0  0  0  0  0  0  0  0  0  0  0  0
   25.6233  -18.1224  -16.0228 C   0  0  2  0  0  0  0  0  0  0  0  0
   24.2378  -18.3227  -16.3486 N   0  0  0  0  0  0  0  0  0  0  0  0
   25.8367  -18.5414  -14.6150 C   0  0  0  0  0  0  0  0  0  0  0  0
   25.0298  -18.2275  -13.6944 O   0  0  0  0  0  0  0  0  0  0  0  0
   26.9826  -19.3162  -14.3111 N   0  0  0  0  0  0  0  0  0  0  0  0
   27.1308  -19.9806  -13.0073 C   0  0  1  0  0  0  0  0  0  0  0  0
   25.9171  -20.8572  -12.8915 C   0  0  0  0  0  0  0  0  0  0  0  0
   25.3604  -20.8596  -11.5381 C   0  0  0  0  0  0  0  0  0  0  0  0
   26.0768  -20.7904  -10.3278 C   0  0  0  0  0  0  0  0  0  0  0  0
   25.2457  -20.8523   -9.2914 N   0  0  0  0  0  0  0  0  0  0  0  0
   24.0114  -20.9586   -9.7781 C   0  0  0  0  0  0  0  0  0  0  0  0
   22.8034  -21.0358   -9.1324 C   0  0  0  0  0  0  0  0  0  0  0  0
   21.6340  -21.1182   -9.8231 C   0  0  0  0  0  0  0  0  0  0  0  0
   21.6379  -21.1259  -11.2154 C   0  0  0  0  0  0  0  0  0  0  0  0
   22.8476  -21.0493  -11.8639 C   0  0  0  0  0  0  0  0  0  0  0  0
   24.0442  -20.9661  -11.1751 C   0  0  0  0  0  0  0  0  0  0  0  0
   28.3990  -20.6966  -12.9658 C   0  0  0  0  0  0  0  0  0  0  0  0
   29.1379  -20.7553  -11.8035 O   0  0  0  0  0  0  0  0  0  0  0  0
   28.8389  -21.2651  -13.9894 O   0  0  0  0  0  0  0  0  0  0  0  0
  1  2  1  0
  2  3  2  0
  2  4  1  0
  4  5  1  0
  6  5  1  0
  6  7  1  6
  8  9  2  0
  8  6  1  0
 10 11  1  0
 11 12  1  0
 12 14  1  0
 12 13  1  6
 14 15  1  1
 15  8  1  0
 16 18  1  0
 16 14  1  0
 17 16  2  0
 19 30  1  0
 19 18  1  0
 20 21  1  0
 19 20  1  6
 21 22  2  0
 21 29  1  0
 22 23  1  0
 23 24  1  0
 24 25  2  0
 25 26  1  0
 27 26  2  0
 28 27  1  0
 29 28  2  0
 29 24  1  0
 30 31  1  0
 32 30  2  0
M  END
$$$$
