QIW.pdb
     RDKit          3D

 32 33  0  0  1  0  0  0  0  0999 V2000
   25.4171  -20.5454  -17.1267 N   0  0  0  0  0  0  0  0  0  0  0  0
   26.3650  -19.5055  -16.9775 C   0  0  0  0  0  0  0  0  0  0  0  0
   26.8434  -19.0046  -18.0096 O   0  0  0  0  0  0  0  0  0  0  0  0
   26.7963  -19.0065  -15.6551 C   0  0  0  0  0  0  0  0  0  0  0  0
   26.1000  -19.5976  -14.4910 C   0  0  0  0  0  0  0  0  0  0  0  0
   26.9012  -20.4804  -13.5993 C   0  0  2  0  0  0  0  0  0  0  0  0
   27.4702  -21.6122  -14.3314 N   0  0  0  0  0  0  0  0  0  0  0  0
   26.1041  -20.9550  -12.4532 C   0  0  0  0  0  0  0  0  0  0  0  0
   25.4674  -22.0302  -12.5697 O   0  0  0  0  0  0  0  0  0  0  0  0
   27.8532  -19.8020   -7.5232 C   0  0  0  0  0  0  0  0  0  0  0  0
   27.1705  -20.6157   -8.5714 C   0  0  0  0  0  0  0  0  0  0  0  0
   25.7320  -20.2771   -8.7993 C   0  0  2  0  0  0  0  0  0  0  0  0
   24.8890  -20.9750   -7.7458 C   0  0  0  0  0  0  0  0  0  0  0  0
   25.2112  -20.7233  -10.1579 C   0  0  2  0  0  0  0  0  0  0  0  0
   26.0394  -20.2256  -11.2220 N   0  0  0  0  0  0  0  0  0  0  0  0
   23.8651  -20.1118  -10.2894 C   0  0  0  0  0  0  0  0  0  0  0  0
   23.7026  -18.8601  -10.3512 O   0  0  0  0  0  0  0  0  0  0  0  0
   22.7402  -20.9701  -10.3469 N   0  0  0  0  0  0  0  0  0  0  0  0
   21.6378  -20.7215  -11.2884 C   0  0  1  0  0  0  0  0  0  0  0  0
   22.3043  -20.6225  -12.6304 C   0  0  0  0  0  0  0  0  0  0  0  0
   21.5668  -19.7603  -13.5548 C   0  0  0  0  0  0  0  0  0  0  0  0
   20.8553  -18.5881  -13.2343 C   0  0  0  0  0  0  0  0  0  0  0  0
   20.2784  -18.0826  -14.3208 N   0  0  0  0  0  0  0  0  0  0  0  0
   20.5865  -18.8800  -15.3412 C   0  0  0  0  0  0  0  0  0  0  0  0
   20.2580  -18.7920  -16.6703 C   0  0  0  0  0  0  0  0  0  0  0  0
   20.6979  -19.7113  -17.5719 C   0  0  0  0  0  0  0  0  0  0  0  0
   21.4997  -20.7727  -17.1607 C   0  0  0  0  0  0  0  0  0  0  0  0
   21.8291  -20.8626  -15.8291 C   0  0  0  0  0  0  0  0  0  0  0  0
   21.3885  -19.9362  -14.9012 C   0  0  0  0  0  0  0  0  0  0  0  0
   20.6534  -21.7901  -11.1804 C   0  0  0  0  0  0  0  0  0  0  0  0
   21.0398  -23.1124  -11.2281 O   0  0  0  0  0  0  0  0  0  0  0  0
   19.4390  -21.5211  -11.0482 O   0  0  0  0  0  0  0  0  0  0  0  0
  1  2  1  0
  2  3  2  0
  2  4  1  0
  4  5  1  0
  6  5  1  0
  6  7  1  6
  8  9  2  0
  8  6  1  0
 10 11  1  0
 11 12  1  0
 12 14  1  0
 12 13  1  1
 14 15  1  6
 15  8  1  0
 16 18  1  0
 16 14  1  0
 17 16  2  0
 19 30  1  0
 19 18  1  0
 20 21  1  0
 19 20  1  6
 21 22  2  0
 21 29  1  0
 22 23  1  0
 23 24  1  0
 24 25  2  0
 25 26  1  0
 27 26  2  0
 28 27  1  0
 29 28  2  0
 29 24  1  0
 30 31  1  0
 32 30  2  0
M  END
$$$$
