QIW.pdb
     RDKit          3D

 32 33  0  0  1  0  0  0  0  0999 V2000
   16.9101  -22.3921  -11.4082 N   0  0  0  0  0  0  0  0  0  0  0  0
   16.3013  -22.8529  -12.5995 C   0  0  0  0  0  0  0  0  0  0  0  0
   16.8720  -22.6051  -13.6757 O   0  0  0  0  0  0  0  0  0  0  0  0
   15.0297  -23.6058  -12.6029 C   0  0  0  0  0  0  0  0  0  0  0  0
   14.9846  -24.7876  -11.7137 C   0  0  0  0  0  0  0  0  0  0  0  0
   15.8310  -25.9524  -12.0921 C   0  0  2  0  0  0  0  0  0  0  0  0
   15.1341  -26.8472  -13.0165 N   0  0  0  0  0  0  0  0  0  0  0  0
   16.2900  -26.6939  -10.9031 C   0  0  0  0  0  0  0  0  0  0  0  0
   15.4349  -27.2751  -10.1918 O   0  0  0  0  0  0  0  0  0  0  0  0
   21.3371  -29.0627  -10.5787 C   0  0  0  0  0  0  0  0  0  0  0  0
   19.8833  -28.7453  -10.4678 C   0  0  0  0  0  0  0  0  0  0  0  0
   19.5189  -27.8281   -9.3444 C   0  0  2  0  0  0  0  0  0  0  0  0
   19.8110  -28.5239   -8.0261 C   0  0  0  0  0  0  0  0  0  0  0  0
   18.0473  -27.4403   -9.3302 C   0  0  2  0  0  0  0  0  0  0  0  0
   17.6748  -26.7663  -10.5438 N   0  0  0  0  0  0  0  0  0  0  0  0
   17.8969  -26.4873   -8.2023 C   0  0  0  0  0  0  0  0  0  0  0  0
   18.4435  -25.3479   -8.2124 O   0  0  0  0  0  0  0  0  0  0  0  0
   17.1138  -26.8811   -7.0900 N   0  0  0  0  0  0  0  0  0  0  0  0
   16.9595  -26.0068   -5.9174 C   0  0  1  0  0  0  0  0  0  0  0  0
   15.5008  -26.0945   -5.5719 C   0  0  0  0  0  0  0  0  0  0  0  0
   15.1526  -25.2665   -4.4165 C   0  0  0  0  0  0  0  0  0  0  0  0
   15.5003  -23.9184   -4.2055 C   0  0  0  0  0  0  0  0  0  0  0  0
   15.0434  -23.4991   -3.0289 N   0  0  0  0  0  0  0  0  0  0  0  0
   14.4084  -24.5225   -2.4621 C   0  0  0  0  0  0  0  0  0  0  0  0
   13.7476  -24.6060   -1.2627 C   0  0  0  0  0  0  0  0  0  0  0  0
   13.1350  -25.7555   -0.8691 C   0  0  0  0  0  0  0  0  0  0  0  0
   13.1656  -26.8840   -1.6839 C   0  0  0  0  0  0  0  0  0  0  0  0
   13.8280  -26.8021   -2.8857 C   0  0  0  0  0  0  0  0  0  0  0  0
   14.4561  -25.6409   -3.2985 C   0  0  0  0  0  0  0  0  0  0  0  0
   17.8583  -26.4472   -4.8586 C   0  0  0  0  0  0  0  0  0  0  0  0
   18.4685  -25.5334   -4.0262 O   0  0  0  0  0  0  0  0  0  0  0  0
   18.0937  -27.6645   -4.6935 O   0  0  0  0  0  0  0  0  0  0  0  0
  1  2  1  0
  2  3  2  0
  2  4  1  0
  4  5  1  0
  6  5  1  0
  6  7  1  6
  8  9  2  0
  8  6  1  0
 10 11  1  0
 11 12  1  0
 12 14  1  0
 12 13  1  1
 14 15  1  6
 15  8  1  0
 16 18  1  0
 16 14  1  0
 17 16  2  0
 19 30  1  0
 19 18  1  0
 20 21  1  0
 19 20  1  1
 21 22  2  0
 21 29  1  0
 22 23  1  0
 23 24  1  0
 24 25  2  0
 25 26  1  0
 27 26  2  0
 28 27  1  0
 29 28  2  0
 29 24  1  0
 30 31  1  0
 32 30  2  0
M  END
$$$$
