QIW.pdb
     RDKit          3D

 32 33  0  0  1  0  0  0  0  0999 V2000
   29.3048  -26.0003  -15.4934 N   0  0  0  0  0  0  0  0  0  0  0  0
   29.6358  -25.0760  -16.5124 C   0  0  0  0  0  0  0  0  0  0  0  0
   29.2537  -25.3262  -17.6685 O   0  0  0  0  0  0  0  0  0  0  0  0
   30.4088  -23.8446  -16.2484 C   0  0  0  0  0  0  0  0  0  0  0  0
   29.6840  -22.7787  -15.5218 C   0  0  0  0  0  0  0  0  0  0  0  0
   28.4176  -22.2855  -16.1296 C   0  0  2  0  0  0  0  0  0  0  0  0
   28.6480  -21.6889  -17.4455 N   0  0  0  0  0  0  0  0  0  0  0  0
   27.7308  -21.3290  -15.2422 C   0  0  0  0  0  0  0  0  0  0  0  0
   28.1597  -20.1511  -15.1833 O   0  0  0  0  0  0  0  0  0  0  0  0
   23.1404  -19.6464  -16.1373 C   0  0  0  0  0  0  0  0  0  0  0  0
   24.5018  -19.8828  -15.5739 C   0  0  0  0  0  0  0  0  0  0  0  0
   24.5255  -20.4410  -14.1869 C   0  0  2  0  0  0  0  0  0  0  0  0
   23.8798  -19.4414  -13.2427 C   0  0  0  0  0  0  0  0  0  0  0  0
   25.9293  -20.7091  -13.6642 C   0  0  2  0  0  0  0  0  0  0  0  0
   26.5967  -21.7081  -14.4532 N   0  0  0  0  0  0  0  0  0  0  0  0
   25.7485  -21.2433  -12.2912 C   0  0  0  0  0  0  0  0  0  0  0  0
   25.1244  -22.3196  -12.0695 O   0  0  0  0  0  0  0  0  0  0  0  0
   26.2981  -20.5139  -11.2088 N   0  0  0  0  0  0  0  0  0  0  0  0
   26.1477  -20.9779   -9.8213 C   0  0  1  0  0  0  0  0  0  0  0  0
   27.3644  -20.4527   -9.1149 C   0  0  0  0  0  0  0  0  0  0  0  0
   27.3176  -20.6956   -7.6725 C   0  0  0  0  0  0  0  0  0  0  0  0
   26.4541  -21.5734   -6.9893 C   0  0  0  0  0  0  0  0  0  0  0  0
   26.6696  -21.5108   -5.6784 N   0  0  0  0  0  0  0  0  0  0  0  0
   27.6430  -20.6253   -5.4779 C   0  0  0  0  0  0  0  0  0  0  0  0
   28.2454  -20.2123   -4.3166 C   0  0  0  0  0  0  0  0  0  0  0  0
   29.2539  -19.2990   -4.3267 C   0  0  0  0  0  0  0  0  0  0  0  0
   29.7013  -18.7578   -5.5290 C   0  0  0  0  0  0  0  0  0  0  0  0
   29.0981  -19.1700   -6.6935 C   0  0  0  0  0  0  0  0  0  0  0  0
   28.0714  -20.0969   -6.6985 C   0  0  0  0  0  0  0  0  0  0  0  0
   24.8821  -20.4992   -9.2810 C   0  0  0  0  0  0  0  0  0  0  0  0
   24.1417  -21.2813   -8.4206 O   0  0  0  0  0  0  0  0  0  0  0  0
   24.4459  -19.3700   -9.5961 O   0  0  0  0  0  0  0  0  0  0  0  0
  1  2  1  0
  2  3  2  0
  2  4  1  0
  4  5  1  0
  6  5  1  0
  6  7  1  6
  8  9  2  0
  8  6  1  0
 10 11  1  0
 11 12  1  0
 12 14  1  0
 12 13  1  1
 14 15  1  6
 15  8  1  0
 16 18  1  0
 16 14  1  0
 17 16  2  0
 19 30  1  0
 19 18  1  0
 20 21  1  0
 19 20  1  1
 21 22  2  0
 21 29  1  0
 22 23  1  0
 23 24  1  0
 24 25  2  0
 25 26  1  0
 27 26  2  0
 28 27  1  0
 29 28  2  0
 29 24  1  0
 30 31  1  0
 32 30  2  0
M  END
$$$$
