QIW.pdb
     RDKit          3D

 32 33  0  0  1  0  0  0  0  0999 V2000
   23.2345  -23.1855  -17.3026 N   0  0  0  0  0  0  0  0  0  0  0  0
   23.5825  -24.5183  -17.6268 C   0  0  0  0  0  0  0  0  0  0  0  0
   22.9046  -25.1007  -18.4906 O   0  0  0  0  0  0  0  0  0  0  0  0
   24.7071  -25.2260  -16.9802 C   0  0  0  0  0  0  0  0  0  0  0  0
   25.5179  -24.4165  -16.0440 C   0  0  0  0  0  0  0  0  0  0  0  0
   26.5930  -23.5728  -16.6344 C   0  0  2  0  0  0  0  0  0  0  0  0
   27.6905  -24.3867  -17.1577 N   0  0  0  0  0  0  0  0  0  0  0  0
   27.0997  -22.5870  -15.6619 C   0  0  0  0  0  0  0  0  0  0  0  0
   28.1504  -22.8537  -15.0296 O   0  0  0  0  0  0  0  0  0  0  0  0
   28.8655  -18.8609  -16.0653 C   0  0  0  0  0  0  0  0  0  0  0  0
   27.4026  -18.5674  -16.0409 C   0  0  0  0  0  0  0  0  0  0  0  0
   26.6907  -18.9977  -14.7984 C   0  0  2  0  0  0  0  0  0  0  0  0
   27.1702  -18.1454  -13.6359 C   0  0  0  0  0  0  0  0  0  0  0  0
   26.9462  -20.4506  -14.4243 C   0  0  2  0  0  0  0  0  0  0  0  0
   26.4281  -21.3443  -15.4237 N   0  0  0  0  0  0  0  0  0  0  0  0
   26.1963  -20.6757  -13.1634 C   0  0  0  0  0  0  0  0  0  0  0  0
   24.9332  -20.6663  -13.1260 O   0  0  0  0  0  0  0  0  0  0  0  0
   26.9328  -20.9071  -11.9761 N   0  0  0  0  0  0  0  0  0  0  0  0
   26.2563  -21.1139  -10.6865 C   0  0  1  0  0  0  0  0  0  0  0  0
   27.3741  -21.2650   -9.6952 C   0  0  0  0  0  0  0  0  0  0  0  0
   26.9782  -20.8607   -8.3455 C   0  0  0  0  0  0  0  0  0  0  0  0
   25.6679  -20.7797   -7.8361 C   0  0  0  0  0  0  0  0  0  0  0  0
   25.6836  -20.3418   -6.5804 N   0  0  0  0  0  0  0  0  0  0  0  0
   26.9558  -20.1339   -6.2483 C   0  0  0  0  0  0  0  0  0  0  0  0
   27.5090  -19.7034   -5.0690 C   0  0  0  0  0  0  0  0  0  0  0  0
   28.8557  -19.5756   -4.9224 C   0  0  0  0  0  0  0  0  0  0  0  0
   29.7108  -19.8824   -5.9775 C   0  0  0  0  0  0  0  0  0  0  0  0
   29.1579  -20.3131   -7.1601 C   0  0  0  0  0  0  0  0  0  0  0  0
   27.7910  -20.4470   -7.3240 C   0  0  0  0  0  0  0  0  0  0  0  0
   25.3603  -19.9962  -10.4206 C   0  0  0  0  0  0  0  0  0  0  0  0
   24.1299  -20.2028   -9.8344 O   0  0  0  0  0  0  0  0  0  0  0  0
   25.6942  -18.8304  -10.7269 O   0  0  0  0  0  0  0  0  0  0  0  0
  1  2  1  0
  2  3  2  0
  2  4  1  0
  4  5  1  0
  6  5  1  0
  6  7  1  1
  8  9  2  0
  8  6  1  0
 10 11  1  0
 11 12  1  0
 12 14  1  0
 12 13  1  1
 14 15  1  6
 15  8  1  0
 16 18  1  0
 16 14  1  0
 17 16  2  0
 19 30  1  0
 19 18  1  0
 20 21  1  0
 19 20  1  1
 21 22  2  0
 21 29  1  0
 22 23  1  0
 23 24  1  0
 24 25  2  0
 25 26  1  0
 27 26  2  0
 28 27  1  0
 29 28  2  0
 29 24  1  0
 30 31  1  0
 32 30  2  0
M  END
$$$$
