QIW.pdb
     RDKit          3D

 32 33  0  0  1  0  0  0  0  0999 V2000
   25.7138  -18.5409  -17.3210 N   0  0  0  0  0  0  0  0  0  0  0  0
   27.0950  -18.6068  -17.6218 C   0  0  0  0  0  0  0  0  0  0  0  0
   27.4557  -18.2779  -18.7649 O   0  0  0  0  0  0  0  0  0  0  0  0
   28.1033  -19.0478  -16.6356 C   0  0  0  0  0  0  0  0  0  0  0  0
   27.6007  -19.2632  -15.2607 C   0  0  0  0  0  0  0  0  0  0  0  0
   27.9443  -20.5569  -14.6091 C   0  0  2  0  0  0  0  0  0  0  0  0
   28.2686  -21.5877  -15.5956 N   0  0  0  0  0  0  0  0  0  0  0  0
   26.8619  -21.0163  -13.7193 C   0  0  0  0  0  0  0  0  0  0  0  0
   26.0141  -21.8226  -14.1730 O   0  0  0  0  0  0  0  0  0  0  0  0
   27.5550  -20.5346   -8.2483 C   0  0  0  0  0  0  0  0  0  0  0  0
   27.1058  -21.2015   -9.5053 C   0  0  0  0  0  0  0  0  0  0  0  0
   25.8462  -20.6549  -10.0973 C   0  0  2  0  0  0  0  0  0  0  0  0
   24.6591  -21.2166   -9.3339 C   0  0  0  0  0  0  0  0  0  0  0  0
   25.6531  -21.0241  -11.5610 C   0  0  2  0  0  0  0  0  0  0  0  0
   26.7558  -20.5687  -12.3626 N   0  0  0  0  0  0  0  0  0  0  0  0
   24.4309  -20.3031  -11.9964 C   0  0  0  0  0  0  0  0  0  0  0  0
   24.3520  -19.0422  -11.9660 O   0  0  0  0  0  0  0  0  0  0  0  0
   23.3299  -21.0652  -12.4575 N   0  0  0  0  0  0  0  0  0  0  0  0
   22.2272  -20.4392  -13.2028 C   0  0  1  0  0  0  0  0  0  0  0  0
   22.8498  -19.9978  -14.4960 C   0  0  0  0  0  0  0  0  0  0  0  0
   21.8670  -19.4334  -15.4218 C   0  0  0  0  0  0  0  0  0  0  0  0
   21.0718  -18.2892  -15.2183 C   0  0  0  0  0  0  0  0  0  0  0  0
   20.2657  -18.0924  -16.2577 N   0  0  0  0  0  0  0  0  0  0  0  0
   20.5042  -19.0649  -17.1348 C   0  0  0  0  0  0  0  0  0  0  0  0
   19.9557  -19.3045  -18.3692 C   0  0  0  0  0  0  0  0  0  0  0  0
   20.3583  -20.3570  -19.1319 C   0  0  0  0  0  0  0  0  0  0  0  0
   21.3464  -21.2229  -18.6712 C   0  0  0  0  0  0  0  0  0  0  0  0
   21.8965  -20.9845  -17.4341 C   0  0  0  0  0  0  0  0  0  0  0  0
   21.4967  -19.9193  -16.6474 C   0  0  0  0  0  0  0  0  0  0  0  0
   21.1360  -21.3930  -13.3525 C   0  0  0  0  0  0  0  0  0  0  0  0
   21.3926  -22.7286  -13.5766 O   0  0  0  0  0  0  0  0  0  0  0  0
   19.9470  -21.0104  -13.2850 O   0  0  0  0  0  0  0  0  0  0  0  0
  1  2  1  0
  2  3  2  0
  2  4  1  0
  4  5  1  0
  6  5  1  0
  6  7  1  6
  8  9  2  0
  8  6  1  0
 10 11  1  0
 11 12  1  0
 12 14  1  0
 12 13  1  1
 14 15  1  6
 15  8  1  0
 16 18  1  0
 16 14  1  0
 17 16  2  0
 19 30  1  0
 19 18  1  0
 20 21  1  0
 19 20  1  6
 21 22  2  0
 21 29  1  0
 22 23  1  0
 23 24  1  0
 24 25  2  0
 25 26  1  0
 27 26  2  0
 28 27  1  0
 29 28  2  0
 29 24  1  0
 30 31  1  0
 32 30  2  0
M  END
$$$$
