QIW.pdb
     RDKit          3D

 32 33  0  0  1  0  0  0  0  0999 V2000
   24.3230  -24.9996  -15.7006 N   0  0  0  0  0  0  0  0  0  0  0  0
   24.9971  -25.5858  -16.7980 C   0  0  0  0  0  0  0  0  0  0  0  0
   24.3519  -26.3544  -17.5314 O   0  0  0  0  0  0  0  0  0  0  0  0
   26.4200  -25.3170  -17.0926 C   0  0  0  0  0  0  0  0  0  0  0  0
   27.0856  -24.3455  -16.1967 C   0  0  0  0  0  0  0  0  0  0  0  0
   27.3028  -22.9723  -16.7289 C   0  0  2  0  0  0  0  0  0  0  0  0
   28.2962  -22.9616  -17.8031 N   0  0  0  0  0  0  0  0  0  0  0  0
   27.6897  -22.0346  -15.6587 C   0  0  0  0  0  0  0  0  0  0  0  0
   28.9079  -21.9043  -15.3869 O   0  0  0  0  0  0  0  0  0  0  0  0
   26.8824  -17.4216  -16.2002 C   0  0  0  0  0  0  0  0  0  0  0  0
   27.6186  -18.3823  -15.3275 C   0  0  0  0  0  0  0  0  0  0  0  0
   26.8223  -18.9485  -14.1955 C   0  0  2  0  0  0  0  0  0  0  0  0
   27.1058  -18.1400  -12.9412 C   0  0  0  0  0  0  0  0  0  0  0  0
   27.1609  -20.3983  -13.8804 C   0  0  2  0  0  0  0  0  0  0  0  0
   26.7180  -21.2761  -14.9289 N   0  0  0  0  0  0  0  0  0  0  0  0
   26.4033  -20.7258  -12.6468 C   0  0  0  0  0  0  0  0  0  0  0  0
   25.1697  -20.9989  -12.6725 O   0  0  0  0  0  0  0  0  0  0  0  0
   27.0980  -20.7287  -11.4127 N   0  0  0  0  0  0  0  0  0  0  0  0
   26.4241  -21.0972  -10.1584 C   0  0  1  0  0  0  0  0  0  0  0  0
   27.5176  -21.0955   -9.1291 C   0  0  0  0  0  0  0  0  0  0  0  0
   27.0050  -20.8876   -7.7742 C   0  0  0  0  0  0  0  0  0  0  0  0
   25.6943  -21.1275   -7.3188 C   0  0  0  0  0  0  0  0  0  0  0  0
   25.5787  -20.7915   -6.0372 N   0  0  0  0  0  0  0  0  0  0  0  0
   26.7654  -20.3413   -5.6362 C   0  0  0  0  0  0  0  0  0  0  0  0
   27.1781  -19.8916   -4.4075 C   0  0  0  0  0  0  0  0  0  0  0  0
   28.4603  -19.4896   -4.1935 C   0  0  0  0  0  0  0  0  0  0  0  0
   29.3915  -19.5263   -5.2280 C   0  0  0  0  0  0  0  0  0  0  0  0
   28.9792  -19.9759   -6.4599 C   0  0  0  0  0  0  0  0  0  0  0  0
   27.6791  -20.3868   -6.6925 C   0  0  0  0  0  0  0  0  0  0  0  0
   25.3422  -20.1586   -9.8916 C   0  0  0  0  0  0  0  0  0  0  0  0
   24.1358  -20.5973   -9.3895 O   0  0  0  0  0  0  0  0  0  0  0  0
   25.4921  -18.9381  -10.1206 O   0  0  0  0  0  0  0  0  0  0  0  0
  1  2  1  0
  2  3  2  0
  2  4  1  0
  4  5  1  0
  6  5  1  0
  6  7  1  6
  8  9  2  0
  8  6  1  0
 10 11  1  0
 11 12  1  0
 12 14  1  0
 12 13  1  1
 14 15  1  6
 15  8  1  0
 16 18  1  0
 16 14  1  0
 17 16  2  0
 19 30  1  0
 19 18  1  0
 20 21  1  0
 19 20  1  1
 21 22  2  0
 21 29  1  0
 22 23  1  0
 23 24  1  0
 24 25  2  0
 25 26  1  0
 27 26  2  0
 28 27  1  0
 29 28  2  0
 29 24  1  0
 30 31  1  0
 32 30  2  0
M  END
$$$$
