QIW.pdb
     RDKit          3D

 32 33  0  0  1  0  0  0  0  0999 V2000
   21.4052  -18.4753  -12.9057 N   0  0  0  0  0  0  0  0  0  0  0  0
   20.4509  -19.2215  -13.6370 C   0  0  0  0  0  0  0  0  0  0  0  0
   19.3736  -18.6684  -13.9173 O   0  0  0  0  0  0  0  0  0  0  0  0
   20.6918  -20.6139  -14.0691 C   0  0  0  0  0  0  0  0  0  0  0  0
   22.0162  -21.1720  -13.7172 C   0  0  0  0  0  0  0  0  0  0  0  0
   23.0612  -21.1560  -14.7775 C   0  0  2  0  0  0  0  0  0  0  0  0
   22.7984  -22.1607  -15.8082 N   0  0  0  0  0  0  0  0  0  0  0  0
   24.4090  -21.3403  -14.2085 C   0  0  0  0  0  0  0  0  0  0  0  0
   24.8208  -22.5087  -14.0083 O   0  0  0  0  0  0  0  0  0  0  0  0
   28.6544  -18.1617  -15.4530 C   0  0  0  0  0  0  0  0  0  0  0  0
   27.7999  -19.3138  -15.0418 C   0  0  0  0  0  0  0  0  0  0  0  0
   27.5331  -19.4126  -13.5738 C   0  0  2  0  0  0  0  0  0  0  0  0
   28.8227  -19.7853  -12.8629 C   0  0  0  0  0  0  0  0  0  0  0  0
   26.5009  -20.4715  -13.2142 C   0  0  2  0  0  0  0  0  0  0  0  0
   25.2515  -20.2287  -13.8820 N   0  0  0  0  0  0  0  0  0  0  0  0
   26.2826  -20.3355  -11.7524 C   0  0  0  0  0  0  0  0  0  0  0  0
   25.8596  -19.2621  -11.2366 O   0  0  0  0  0  0  0  0  0  0  0  0
   26.5603  -21.4509  -10.9251 N   0  0  0  0  0  0  0  0  0  0  0  0
   26.4481  -21.3621   -9.4613 C   0  0  1  0  0  0  0  0  0  0  0  0
   27.8248  -20.9777   -9.0010 C   0  0  0  0  0  0  0  0  0  0  0  0
   27.7955  -20.1294   -7.8089 C   0  0  0  0  0  0  0  0  0  0  0  0
   27.0845  -18.9251   -7.6440 C   0  0  0  0  0  0  0  0  0  0  0  0
   27.3203  -18.4068   -6.4421 N   0  0  0  0  0  0  0  0  0  0  0  0
   28.1587  -19.2276   -5.8134 C   0  0  0  0  0  0  0  0  0  0  0  0
   28.6933  -19.1587   -4.5518 C   0  0  0  0  0  0  0  0  0  0  0  0
   29.5266  -20.1259   -4.0809 C   0  0  0  0  0  0  0  0  0  0  0  0
   29.8584  -21.2183   -4.8779 C   0  0  0  0  0  0  0  0  0  0  0  0
   29.3241  -21.2883   -6.1425 C   0  0  0  0  0  0  0  0  0  0  0  0
   28.4765  -20.3123   -6.6349 C   0  0  0  0  0  0  0  0  0  0  0  0
   25.4052  -20.4078   -9.1087 C   0  0  0  0  0  0  0  0  0  0  0  0
   24.3928  -20.7582   -8.2412 O   0  0  0  0  0  0  0  0  0  0  0  0
   25.4112  -19.2552   -9.5945 O   0  0  0  0  0  0  0  0  0  0  0  0
  1  2  1  0
  2  3  2  0
  2  4  1  0
  4  5  1  0
  6  5  1  0
  6  7  1  6
  8  9  2  0
  8  6  1  0
 10 11  1  0
 11 12  1  0
 12 14  1  0
 12 13  1  1
 14 15  1  6
 15  8  1  0
 16 18  1  0
 16 14  1  0
 17 16  2  0
 19 30  1  0
 19 18  1  0
 20 21  1  0
 19 20  1  1
 21 22  2  0
 21 29  1  0
 22 23  1  0
 23 24  1  0
 24 25  2  0
 25 26  1  0
 27 26  2  0
 28 27  1  0
 29 28  2  0
 29 24  1  0
 30 31  1  0
 32 30  2  0
M  END
$$$$
