QIW.pdb
     RDKit          3D

 32 33  0  0  1  0  0  0  0  0999 V2000
   31.6556  -23.7147  -14.9917 N   0  0  0  0  0  0  0  0  0  0  0  0
   31.0210  -24.1821  -16.1669 C   0  0  0  0  0  0  0  0  0  0  0  0
   31.5496  -25.1295  -16.7736 O   0  0  0  0  0  0  0  0  0  0  0  0
   29.7715  -23.5879  -16.6859 C   0  0  0  0  0  0  0  0  0  0  0  0
   29.1636  -22.5377  -15.8392 C   0  0  0  0  0  0  0  0  0  0  0  0
   27.9344  -21.8771  -16.3577 C   0  0  2  0  0  0  0  0  0  0  0  0
   28.1874  -21.1838  -17.6211 N   0  0  0  0  0  0  0  0  0  0  0  0
   27.3619  -20.9490  -15.3652 C   0  0  0  0  0  0  0  0  0  0  0  0
   27.7581  -19.7583  -15.3590 O   0  0  0  0  0  0  0  0  0  0  0  0
   22.1042  -20.9419  -14.1023 C   0  0  0  0  0  0  0  0  0  0  0  0
   23.5454  -21.2556  -13.8762 C   0  0  0  0  0  0  0  0  0  0  0  0
   24.4343  -20.0649  -13.7083 C   0  0  2  0  0  0  0  0  0  0  0  0
   24.3994  -19.2406  -14.9838 C   0  0  0  0  0  0  0  0  0  0  0  0
   25.8896  -20.4255  -13.4474 C   0  0  2  0  0  0  0  0  0  0  0  0
   26.3739  -21.3697  -14.4170 N   0  0  0  0  0  0  0  0  0  0  0  0
   25.9062  -21.0766  -12.1137 C   0  0  0  0  0  0  0  0  0  0  0  0
   25.8366  -22.3316  -11.9815 O   0  0  0  0  0  0  0  0  0  0  0  0
   26.0041  -20.2534  -10.9655 N   0  0  0  0  0  0  0  0  0  0  0  0
   25.9362  -20.8220   -9.6108 C   0  0  1  0  0  0  0  0  0  0  0  0
   27.0027  -20.0948   -8.8435 C   0  0  0  0  0  0  0  0  0  0  0  0
   26.9772  -20.4161   -7.4160 C   0  0  0  0  0  0  0  0  0  0  0  0
   26.1190  -21.3252   -6.7680 C   0  0  0  0  0  0  0  0  0  0  0  0
   26.3556  -21.3358   -5.4593 N   0  0  0  0  0  0  0  0  0  0  0  0
   27.3378  -20.4680   -5.2264 C   0  0  0  0  0  0  0  0  0  0  0  0
   27.9611  -20.1227   -4.0541 C   0  0  0  0  0  0  0  0  0  0  0  0
   28.9752  -19.2158   -4.0305 C   0  0  0  0  0  0  0  0  0  0  0  0
   29.4071  -18.6121   -5.2084 C   0  0  0  0  0  0  0  0  0  0  0  0
   28.7829  -18.9565   -6.3838 C   0  0  0  0  0  0  0  0  0  0  0  0
   27.7502  -19.8759   -6.4230 C   0  0  0  0  0  0  0  0  0  0  0  0
   24.5900  -20.6559   -9.0787 C   0  0  0  0  0  0  0  0  0  0  0  0
   24.1016  -21.5130   -8.1159 O   0  0  0  0  0  0  0  0  0  0  0  0
   23.8545  -19.7334   -9.4940 O   0  0  0  0  0  0  0  0  0  0  0  0
  1  2  1  0
  2  3  2  0
  2  4  1  0
  4  5  1  0
  6  5  1  0
  6  7  1  6
  8  9  2  0
  8  6  1  0
 10 11  1  0
 11 12  1  0
 12 14  1  0
 12 13  1  6
 14 15  1  6
 15  8  1  0
 16 18  1  0
 16 14  1  0
 17 16  2  0
 19 30  1  0
 19 18  1  0
 20 21  1  0
 19 20  1  1
 21 22  2  0
 21 29  1  0
 22 23  1  0
 23 24  1  0
 24 25  2  0
 25 26  1  0
 27 26  2  0
 28 27  1  0
 29 28  2  0
 29 24  1  0
 30 31  1  0
 32 30  2  0
M  END
$$$$
