RQW.pdb
     RDKit          3D

 35 36  0  0  1  0  0  0  0  0999 V2000
   20.3092  -18.6639  -21.1175 N   0  0  0  0  0  0  0  0  0  0  0  0
   20.5906  -18.6531  -19.7345 C   0  0  0  0  0  0  0  0  0  0  0  0
   19.6156  -18.4508  -18.8874 N   0  0  0  0  0  0  0  0  0  0  0  0
   21.8823  -18.8488  -19.1948 N   0  0  0  0  0  0  0  0  0  0  0  0
   23.0079  -19.3099  -19.9474 C   0  0  0  0  0  0  0  0  0  0  0  0
   23.0665  -20.7981  -20.1514 C   0  0  0  0  0  0  0  0  0  0  0  0
   23.6638  -21.5443  -18.9985 C   0  0  0  0  0  0  0  0  0  0  0  0
   22.8787  -22.7869  -18.6152 C   0  0  2  0  0  0  0  0  0  0  0  0
   22.2005  -23.2723  -19.8468 N   0  0  0  0  0  0  0  0  0  0  0  0
   21.8241  -22.5506  -17.6286 C   0  0  0  0  0  0  0  0  0  0  0  0
   20.6717  -22.2196  -18.0722 O   0  0  0  0  0  0  0  0  0  0  0  0
   19.8077  -18.4125  -17.8707 N   0  0  0  0  0  0  0  0  0  0  0  0
   19.0626  -23.8165  -11.7151 C   0  0  0  0  0  0  0  0  0  0  0  0
   19.1315  -24.5332  -12.9242 O   0  0  0  0  0  0  0  0  0  0  0  0
   19.2783  -25.7737  -12.9066 C   0  0  0  0  0  0  0  0  0  0  0  0
   19.0291  -23.8101  -14.2417 C   0  0  0  0  0  0  0  0  0  0  0  0
   20.3388  -23.8069  -14.9447 C   0  0  2  0  0  0  0  0  0  0  0  0
   20.8278  -22.4380  -15.3816 N   0  0  0  0  0  0  0  0  0  0  0  0
   21.9799  -22.6644  -16.2033 C   0  0  0  0  0  0  0  0  0  0  0  0
   21.0585  -21.5411  -14.2257 O   0  0  0  0  0  0  0  0  0  0  0  0
   20.8712  -22.0365  -13.0772 N   0  0  0  0  0  0  0  0  0  0  0  0
   21.4613  -20.2114  -14.3020 C   0  0  2  0  0  0  0  0  0  0  0  0
   20.6855  -19.0621  -14.5247 C   0  0  0  0  0  0  0  0  0  0  0  0
   20.6092  -18.5353  -15.9464 C   0  0  0  0  0  0  0  0  0  0  0  0
   21.9486  -18.1585  -16.4488 C   0  0  0  0  0  0  0  0  0  0  0  0
   23.1799  -18.6956  -16.1083 N   0  0  0  0  0  0  0  0  0  0  0  0
   24.1403  -18.0480  -16.7901 C   0  0  0  0  0  0  0  0  0  0  0  0
   23.5748  -17.0872  -17.5806 C   0  0  0  0  0  0  0  0  0  0  0  0
   24.1467  -16.1816  -18.4463 C   0  0  0  0  0  0  0  0  0  0  0  0
   23.3513  -15.2964  -19.1407 C   0  0  0  0  0  0  0  0  0  0  0  0
   21.9947  -15.3460  -18.9453 C   0  0  0  0  0  0  0  0  0  0  0  0
   21.4408  -16.2529  -18.0811 C   0  0  0  0  0  0  0  0  0  0  0  0
   22.2096  -17.1672  -17.3580 C   0  0  0  0  0  0  0  0  0  0  0  0
   19.3402  -19.1108  -13.9663 O   0  0  0  0  0  0  0  0  0  0  0  0
   18.9673  -18.2194  -12.9635 O   0  0  0  0  0  0  0  0  0  0  0  0
  2  1  1  0
  3  2  2  0
  4  2  1  0
  5  4  1  0
  6  5  1  0
  7  6  1  0
  8  9  1  6
  8 10  1  0
  8  7  1  0
 10 18  1  0
 10 11  2  0
 13 12  1  0
 13 14  2  0
 15 16  1  0
 15 13  1  0
 17 16  1  6
 17 19  1  0
 18 17  1  0
 19 20  2  0
 19 21  1  0
 21 22  1  0
 22 33  1  0
 22 23  1  6
 24 25  2  0
 24 23  1  0
 26 25  1  0
 27 32  2  0
 27 26  1  0
 28 27  1  0
 29 30  1  0
 29 28  2  0
 30 31  2  0
 31 32  1  0
 32 24  1  0
 33 34  1  0
 35 33  2  0
M  END
$$$$
