RQW.pdb
     RDKit          3D

 35 36  0  0  1  0  0  0  0  0999 V2000
   31.8129  -24.4209  -18.1813 N   0  0  0  0  0  0  0  0  0  0  0  0
   31.0770  -24.7216  -17.0150 C   0  0  0  0  0  0  0  0  0  0  0  0
   31.5326  -25.6276  -16.1900 N   0  0  0  0  0  0  0  0  0  0  0  0
   29.8557  -24.0966  -16.6745 N   0  0  0  0  0  0  0  0  0  0  0  0
   29.0894  -23.2857  -17.5696 C   0  0  0  0  0  0  0  0  0  0  0  0
   28.8897  -21.8643  -17.1228 C   0  0  0  0  0  0  0  0  0  0  0  0
   27.5931  -21.6298  -16.4110 C   0  0  0  0  0  0  0  0  0  0  0  0
   26.3829  -21.7061  -17.3258 C   0  0  2  0  0  0  0  0  0  0  0  0
   26.2758  -20.3943  -18.0188 N   0  0  0  0  0  0  0  0  0  0  0  0
   25.1133  -21.9090  -16.6269 C   0  0  0  0  0  0  0  0  0  0  0  0
   24.4486  -20.8651  -16.3066 O   0  0  0  0  0  0  0  0  0  0  0  0
   30.9905  -25.8841  -15.3459 N   0  0  0  0  0  0  0  0  0  0  0  0
   22.2941  -27.3076  -15.0233 C   0  0  0  0  0  0  0  0  0  0  0  0
   21.3300  -26.3644  -14.6219 O   0  0  0  0  0  0  0  0  0  0  0  0
   20.2441  -26.7492  -14.1388 C   0  0  0  0  0  0  0  0  0  0  0  0
   21.6018  -24.8904  -14.7727 C   0  0  0  0  0  0  0  0  0  0  0  0
   22.9404  -24.6602  -15.3767 C   0  0  2  0  0  0  0  0  0  0  0  0
   23.3354  -23.2019  -15.5215 N   0  0  0  0  0  0  0  0  0  0  0  0
   24.5540  -23.1867  -16.2756 C   0  0  0  0  0  0  0  0  0  0  0  0
   23.4111  -22.5191  -14.2093 O   0  0  0  0  0  0  0  0  0  0  0  0
   24.5598  -22.4118  -13.6912 N   0  0  0  0  0  0  0  0  0  0  0  0
   22.3306  -21.9913  -13.5092 C   0  0  2  0  0  0  0  0  0  0  0  0
   22.0755  -20.6586  -13.1468 C   0  0  0  0  0  0  0  0  0  0  0  0
   23.2498  -19.6965  -13.1505 C   0  0  0  0  0  0  0  0  0  0  0  0
   24.3491  -20.1925  -12.2939 C   0  0  0  0  0  0  0  0  0  0  0  0
   24.2683  -20.7823  -11.0424 N   0  0  0  0  0  0  0  0  0  0  0  0
   25.5103  -21.0677  -10.6152 C   0  0  0  0  0  0  0  0  0  0  0  0
   26.4212  -20.6799  -11.5575 C   0  0  0  0  0  0  0  0  0  0  0  0
   27.7957  -20.7635  -11.5696 C   0  0  0  0  0  0  0  0  0  0  0  0
   28.5044  -20.2923  -12.6532 C   0  0  0  0  0  0  0  0  0  0  0  0
   27.8082  -19.7469  -13.7014 C   0  0  0  0  0  0  0  0  0  0  0  0
   26.4408  -19.6713  -13.6747 C   0  0  0  0  0  0  0  0  0  0  0  0
   25.6841  -20.1365  -12.5973 C   0  0  0  0  0  0  0  0  0  0  0  0
   20.9537  -20.0371  -13.8392 O   0  0  0  0  0  0  0  0  0  0  0  0
   19.6746  -20.0984  -13.2923 O   0  0  0  0  0  0  0  0  0  0  0  0
  2  1  1  0
  3  2  2  0
  4  2  1  0
  5  4  1  0
  6  5  1  0
  7  6  1  0
  8  9  1  1
  8 10  1  0
  8  7  1  0
 10 18  1  0
 10 11  2  0
 13 12  1  0
 13 14  2  0
 15 16  1  0
 15 13  1  0
 17 16  1  6
 17 19  1  0
 18 17  1  0
 19 20  2  0
 19 21  1  0
 21 22  1  0
 22 33  1  0
 22 23  1  1
 24 25  2  0
 24 23  1  0
 26 25  1  0
 27 32  2  0
 27 26  1  0
 28 27  1  0
 29 30  1  0
 29 28  2  0
 30 31  2  0
 31 32  1  0
 32 24  1  0
 33 34  1  0
 35 33  2  0
M  END
$$$$
