RQW.pdb
     RDKit          3D

 35 36  0  0  1  0  0  0  0  0999 V2000
   43.6108  -33.3162    0.7902 N   0  0  0  0  0  0  0  0  0  0  0  0
   43.5369  -32.4580   -0.3279 C   0  0  0  0  0  0  0  0  0  0  0  0
   44.6133  -31.8278   -0.7197 N   0  0  0  0  0  0  0  0  0  0  0  0
   42.3527  -32.2296   -1.0651 N   0  0  0  0  0  0  0  0  0  0  0  0
   41.0891  -32.8289   -0.7647 C   0  0  0  0  0  0  0  0  0  0  0  0
   41.0179  -34.3110   -1.0057 C   0  0  0  0  0  0  0  0  0  0  0  0
   39.6448  -34.8859   -0.8414 C   0  0  0  0  0  0  0  0  0  0  0  0
   39.5764  -36.3736   -1.1404 C   0  0  2  0  0  0  0  0  0  0  0  0
   40.2437  -36.5865   -2.4525 N   0  0  0  0  0  0  0  0  0  0  0  0
   38.2166  -36.8966   -1.2788 C   0  0  0  0  0  0  0  0  0  0  0  0
   37.6021  -36.6463   -2.3716 O   0  0  0  0  0  0  0  0  0  0  0  0
   44.5835  -31.2127   -1.5521 N   0  0  0  0  0  0  0  0  0  0  0  0
   32.5153  -38.2474    1.5257 C   0  0  0  0  0  0  0  0  0  0  0  0
   33.6418  -39.0809    1.6543 O   0  0  0  0  0  0  0  0  0  0  0  0
   34.0310  -39.4332    2.7878 C   0  0  0  0  0  0  0  0  0  0  0  0
   34.3816  -39.5508    0.4291 C   0  0  0  0  0  0  0  0  0  0  0  0
   35.7990  -39.1044    0.4655 C   0  0  1  0  0  0  0  0  0  0  0  0
   36.1629  -38.0439   -0.5575 N   0  0  0  0  0  0  0  0  0  0  0  0
   37.5198  -37.6707   -0.2868 C   0  0  0  0  0  0  0  0  0  0  0  0
   35.1988  -36.9195   -0.5516 O   0  0  0  0  0  0  0  0  0  0  0  0
   35.6207  -35.8130   -0.1075 N   0  0  0  0  0  0  0  0  0  0  0  0
   33.8803  -36.9829   -0.9918 C   0  0  1  0  0  0  0  0  0  0  0  0
   32.9609  -35.9397   -1.1886 C   0  0  0  0  0  0  0  0  0  0  0  0
   33.4422  -34.7188   -1.9520 C   0  0  0  0  0  0  0  0  0  0  0  0
   32.4462  -34.2919   -2.9590 C   0  0  0  0  0  0  0  0  0  0  0  0
   31.0635  -34.3217   -2.8709 N   0  0  0  0  0  0  0  0  0  0  0  0
   30.5445  -33.8549   -4.0195 C   0  0  0  0  0  0  0  0  0  0  0  0
   31.5540  -33.5133   -4.8750 C   0  0  0  0  0  0  0  0  0  0  0  0
   31.5173  -32.9984   -6.1517 C   0  0  0  0  0  0  0  0  0  0  0  0
   32.6921  -32.7352   -6.8218 C   0  0  0  0  0  0  0  0  0  0  0  0
   33.8789  -32.9979   -6.1866 C   0  0  0  0  0  0  0  0  0  0  0  0
   33.8990  -33.5096   -4.9162 C   0  0  0  0  0  0  0  0  0  0  0  0
   32.7327  -33.7908   -4.2016 C   0  0  0  0  0  0  0  0  0  0  0  0
   31.6689  -36.3515   -1.7228 O   0  0  0  0  0  0  0  0  0  0  0  0
   31.5702  -37.4988   -2.5057 O   0  0  0  0  0  0  0  0  0  0  0  0
  2  1  1  0
  3  2  2  0
  4  2  1  0
  5  4  1  0
  6  5  1  0
  7  6  1  0
  8  9  1  6
  8 10  1  0
  8  7  1  0
 10 18  1  0
 10 11  2  0
 13 12  1  0
 13 14  2  0
 15 16  1  0
 15 13  1  0
 17 16  1  6
 17 19  1  0
 18 17  1  0
 19 20  2  0
 19 21  1  0
 21 22  1  0
 22 33  1  0
 22 23  1  1
 24 25  2  0
 24 23  1  0
 26 25  1  0
 27 32  2  0
 27 26  1  0
 28 27  1  0
 29 30  1  0
 29 28  2  0
 30 31  2  0
 31 32  1  0
 32 24  1  0
 33 34  1  0
 35 33  2  0
M  END
$$$$
