RQW.pdb
     RDKit          3D

 35 36  0  0  1  0  0  0  0  0999 V2000
   30.9942  -23.5871  -17.9019 N   0  0  0  0  0  0  0  0  0  0  0  0
   30.0476  -24.1474  -17.0175 C   0  0  0  0  0  0  0  0  0  0  0  0
   30.1228  -25.4197  -16.7262 N   0  0  0  0  0  0  0  0  0  0  0  0
   29.0029  -23.4096  -16.4157 N   0  0  0  0  0  0  0  0  0  0  0  0
   28.8102  -22.0024  -16.5844 C   0  0  0  0  0  0  0  0  0  0  0  0
   29.8111  -21.1363  -15.8716 C   0  0  0  0  0  0  0  0  0  0  0  0
   29.2122  -20.2683  -14.8082 C   0  0  0  0  0  0  0  0  0  0  0  0
   27.8137  -19.7816  -15.1467 C   0  0  2  0  0  0  0  0  0  0  0  0
   27.9592  -18.4496  -15.7924 N   0  0  0  0  0  0  0  0  0  0  0  0
   26.9482  -19.5844  -13.9833 C   0  0  0  0  0  0  0  0  0  0  0  0
   27.1598  -18.5476  -13.2659 O   0  0  0  0  0  0  0  0  0  0  0  0
   29.4495  -25.8435  -16.0634 N   0  0  0  0  0  0  0  0  0  0  0  0
   21.0386  -20.2246  -13.3096 C   0  0  0  0  0  0  0  0  0  0  0  0
   21.3715  -19.8978  -11.9820 O   0  0  0  0  0  0  0  0  0  0  0  0
   20.4684  -19.6463  -11.1563 C   0  0  0  0  0  0  0  0  0  0  0  0
   22.8142  -19.8496  -11.5515 C   0  0  0  0  0  0  0  0  0  0  0  0
   23.7178  -20.0829  -12.7084 C   0  0  1  0  0  0  0  0  0  0  0  0
   25.1929  -20.1704  -12.3616 N   0  0  0  0  0  0  0  0  0  0  0  0
   25.8789  -20.4605  -13.5859 C   0  0  0  0  0  0  0  0  0  0  0  0
   25.4447  -21.1361  -11.2671 O   0  0  0  0  0  0  0  0  0  0  0  0
   25.2103  -22.3530  -11.5195 N   0  0  0  0  0  0  0  0  0  0  0  0
   25.9144  -20.8144   -9.9974 C   0  0  1  0  0  0  0  0  0  0  0  0
   25.9969  -21.6232   -8.8522 C   0  0  0  0  0  0  0  0  0  0  0  0
   27.3435  -21.7152   -8.1574 C   0  0  0  0  0  0  0  0  0  0  0  0
   27.6336  -20.4841   -7.3902 C   0  0  0  0  0  0  0  0  0  0  0  0
   27.1090  -19.2137   -7.5674 N   0  0  0  0  0  0  0  0  0  0  0  0
   27.6575  -18.3865   -6.6611 C   0  0  0  0  0  0  0  0  0  0  0  0
   28.5396  -19.0794   -5.8804 C   0  0  0  0  0  0  0  0  0  0  0  0
   29.3332  -18.6662   -4.8335 C   0  0  0  0  0  0  0  0  0  0  0  0
   30.1556  -19.5688   -4.1953 C   0  0  0  0  0  0  0  0  0  0  0  0
   30.1579  -20.8699   -4.6290 C   0  0  0  0  0  0  0  0  0  0  0  0
   29.3624  -21.2657   -5.6715 C   0  0  0  0  0  0  0  0  0  0  0  0
   28.5147  -20.3843   -6.3456 C   0  0  0  0  0  0  0  0  0  0  0  0
   24.9651  -21.3796   -7.8520 O   0  0  0  0  0  0  0  0  0  0  0  0
   24.7874  -22.2740   -6.7996 O   0  0  0  0  0  0  0  0  0  0  0  0
  2  1  1  0
  3  2  2  0
  4  2  1  0
  5  4  1  0
  6  5  1  0
  7  6  1  0
  8  9  1  1
  8 10  1  0
  8  7  1  0
 10 18  1  0
 10 11  2  0
 13 12  1  0
 13 14  2  0
 15 16  1  0
 15 13  1  0
 17 16  1  6
 17 19  1  0
 18 17  1  0
 19 20  2  0
 19 21  1  0
 21 22  1  0
 22 33  1  0
 22 23  1  1
 24 25  2  0
 24 23  1  0
 26 25  1  0
 27 32  2  0
 27 26  1  0
 28 27  1  0
 29 30  1  0
 29 28  2  0
 30 31  2  0
 31 32  1  0
 32 24  1  0
 33 34  1  0
 35 33  2  0
M  END
$$$$
