RQW.pdb
     RDKit          3D

 35 36  0  0  1  0  0  0  0  0999 V2000
   23.2617  -26.2297  -14.7285 N   0  0  0  0  0  0  0  0  0  0  0  0
   22.7157  -27.1408  -15.6580 C   0  0  0  0  0  0  0  0  0  0  0  0
   21.8243  -28.0070  -15.2528 N   0  0  0  0  0  0  0  0  0  0  0  0
   23.0772  -27.1798  -17.0239 N   0  0  0  0  0  0  0  0  0  0  0  0
   23.9954  -26.2724  -17.6400 C   0  0  0  0  0  0  0  0  0  0  0  0
   25.3990  -26.7915  -17.7828 C   0  0  0  0  0  0  0  0  0  0  0  0
   26.3730  -26.1740  -16.8274 C   0  0  0  0  0  0  0  0  0  0  0  0
   27.1295  -24.9965  -17.4176 C   0  0  2  0  0  0  0  0  0  0  0  0
   28.5250  -25.4509  -17.6597 N   0  0  0  0  0  0  0  0  0  0  0  0
   27.2209  -23.8359  -16.5309 C   0  0  0  0  0  0  0  0  0  0  0  0
   28.0497  -23.9054  -15.5600 O   0  0  0  0  0  0  0  0  0  0  0  0
   21.4024  -28.6736  -15.9235 N   0  0  0  0  0  0  0  0  0  0  0  0
   28.4482  -18.8805  -15.0316 C   0  0  0  0  0  0  0  0  0  0  0  0
   28.7643  -19.1714  -16.3716 O   0  0  0  0  0  0  0  0  0  0  0  0
   29.8712  -18.8302  -16.8397 C   0  0  0  0  0  0  0  0  0  0  0  0
   27.7723  -19.8934  -17.2456 C   0  0  0  0  0  0  0  0  0  0  0  0
   26.5632  -20.2729  -16.4687 C   0  0  2  0  0  0  0  0  0  0  0  0
   26.6751  -21.5819  -15.7086 N   0  0  0  0  0  0  0  0  0  0  0  0
   26.4567  -22.6250  -16.6668 C   0  0  0  0  0  0  0  0  0  0  0  0
   25.7691  -21.6177  -14.5374 O   0  0  0  0  0  0  0  0  0  0  0  0
   24.5320  -21.5020  -14.7737 N   0  0  0  0  0  0  0  0  0  0  0  0
   26.1664  -21.7676  -13.2123 C   0  0  2  0  0  0  0  0  0  0  0  0
   25.3854  -21.7447  -12.0453 C   0  0  0  0  0  0  0  0  0  0  0  0
   25.9882  -22.3481  -10.7893 C   0  0  0  0  0  0  0  0  0  0  0  0
   26.0845  -21.3435   -9.7077 C   0  0  0  0  0  0  0  0  0  0  0  0
   25.1313  -20.4260   -9.2954 N   0  0  0  0  0  0  0  0  0  0  0  0
   25.6391  -19.6938   -8.2892 C   0  0  0  0  0  0  0  0  0  0  0  0
   26.9148  -20.1040   -8.0202 C   0  0  0  0  0  0  0  0  0  0  0  0
   27.8266  -19.6590   -7.0890 C   0  0  0  0  0  0  0  0  0  0  0  0
   29.0728  -20.2418   -7.0128 C   0  0  0  0  0  0  0  0  0  0  0  0
   29.3703  -21.2622   -7.8796 C   0  0  0  0  0  0  0  0  0  0  0  0
   28.4524  -21.6940   -8.8000 C   0  0  0  0  0  0  0  0  0  0  0  0
   27.1790  -21.1317   -8.9111 C   0  0  0  0  0  0  0  0  0  0  0  0
   24.8096  -20.4469  -11.7163 O   0  0  0  0  0  0  0  0  0  0  0  0
   25.5437  -19.2829  -11.9285 O   0  0  0  0  0  0  0  0  0  0  0  0
  2  1  1  0
  3  2  2  0
  4  2  1  0
  5  4  1  0
  6  5  1  0
  7  6  1  0
  8  9  1  1
  8 10  1  0
  8  7  1  0
 10 18  1  0
 10 11  2  0
 13 12  1  0
 13 14  2  0
 15 16  1  0
 15 13  1  0
 17 16  1  6
 17 19  1  0
 18 17  1  0
 19 20  2  0
 19 21  1  0
 21 22  1  0
 22 33  1  0
 22 23  1  6
 24 25  2  0
 24 23  1  0
 26 25  1  0
 27 32  2  0
 27 26  1  0
 28 27  1  0
 29 30  1  0
 29 28  2  0
 30 31  2  0
 31 32  1  0
 32 24  1  0
 33 34  1  0
 35 33  2  0
M  END
$$$$
