RQW.pdb
     RDKit          3D

 35 36  0  0  1  0  0  0  0  0999 V2000
   29.1302  -20.2671  -21.5562 N   0  0  0  0  0  0  0  0  0  0  0  0
   30.3609  -20.7306  -21.0436 C   0  0  0  0  0  0  0  0  0  0  0  0
   31.4509  -20.5489  -21.7421 N   0  0  0  0  0  0  0  0  0  0  0  0
   30.4947  -21.3920  -19.8016 N   0  0  0  0  0  0  0  0  0  0  0  0
   29.4312  -21.5592  -18.8598 C   0  0  0  0  0  0  0  0  0  0  0  0
   28.6538  -20.3094  -18.5540 C   0  0  0  0  0  0  0  0  0  0  0  0
   28.7104  -19.8979  -17.1152 C   0  0  0  0  0  0  0  0  0  0  0  0
   28.2523  -20.9867  -16.1602 C   0  0  2  0  0  0  0  0  0  0  0  0
   27.3689  -21.9013  -16.9319 N   0  0  0  0  0  0  0  0  0  0  0  0
   27.4583  -20.5005  -15.0311 C   0  0  0  0  0  0  0  0  0  0  0  0
   27.0735  -19.2820  -15.0685 O   0  0  0  0  0  0  0  0  0  0  0  0
   32.3553  -20.9233  -21.4042 N   0  0  0  0  0  0  0  0  0  0  0  0
   22.4823  -21.7963  -13.7235 C   0  0  0  0  0  0  0  0  0  0  0  0
   22.5529  -20.7305  -12.8074 O   0  0  0  0  0  0  0  0  0  0  0  0
   21.5608  -20.4464  -12.1034 C   0  0  0  0  0  0  0  0  0  0  0  0
   23.8213  -19.9293  -12.6718 C   0  0  0  0  0  0  0  0  0  0  0  0
   24.8818  -20.4657  -13.5647 C   0  0  1  0  0  0  0  0  0  0  0  0
   26.2331  -20.6688  -12.9040 N   0  0  0  0  0  0  0  0  0  0  0  0
   27.0748  -21.2838  -13.8874 C   0  0  0  0  0  0  0  0  0  0  0  0
   26.1168  -21.4192  -11.6323 O   0  0  0  0  0  0  0  0  0  0  0  0
   26.0621  -22.6796  -11.7205 N   0  0  0  0  0  0  0  0  0  0  0  0
   26.0645  -20.8537  -10.3620 C   0  0  1  0  0  0  0  0  0  0  0  0
   25.9848  -21.4890   -9.1120 C   0  0  0  0  0  0  0  0  0  0  0  0
   27.2283  -21.4764   -8.2413 C   0  0  0  0  0  0  0  0  0  0  0  0
   27.2753  -20.2639   -7.3951 C   0  0  0  0  0  0  0  0  0  0  0  0
   26.7438  -19.0105   -7.6540 N   0  0  0  0  0  0  0  0  0  0  0  0
   27.0298  -18.1957   -6.6239 C   0  0  0  0  0  0  0  0  0  0  0  0
   27.7430  -18.8804   -5.6803 C   0  0  0  0  0  0  0  0  0  0  0  0
   28.2554  -18.4742   -4.4683 C   0  0  0  0  0  0  0  0  0  0  0  0
   28.9533  -19.3654   -3.6827 C   0  0  0  0  0  0  0  0  0  0  0  0
   29.1180  -20.6482   -4.1391 C   0  0  0  0  0  0  0  0  0  0  0  0
   28.6018  -21.0372   -5.3468 C   0  0  0  0  0  0  0  0  0  0  0  0
   27.8885  -20.1669   -6.1737 C   0  0  0  0  0  0  0  0  0  0  0  0
   24.8361  -21.1070   -8.3003 O   0  0  0  0  0  0  0  0  0  0  0  0
   24.5537  -21.7939   -7.1224 O   0  0  0  0  0  0  0  0  0  0  0  0
  2  1  1  0
  3  2  2  0
  4  2  1  0
  5  4  1  0
  6  5  1  0
  7  6  1  0
  8  9  1  6
  8 10  1  0
  8  7  1  0
 10 18  1  0
 10 11  2  0
 13 12  1  0
 13 14  2  0
 15 16  1  0
 15 13  1  0
 17 16  1  6
 17 19  1  0
 18 17  1  0
 19 20  2  0
 19 21  1  0
 21 22  1  0
 22 33  1  0
 22 23  1  1
 24 25  2  0
 24 23  1  0
 26 25  1  0
 27 32  2  0
 27 26  1  0
 28 27  1  0
 29 30  1  0
 29 28  2  0
 30 31  2  0
 31 32  1  0
 32 24  1  0
 33 34  1  0
 35 33  2  0
M  END
$$$$
