RQW.pdb
     RDKit          3D

 35 36  0  0  1  0  0  0  0  0999 V2000
   21.0623  -16.2038  -18.0284 N   0  0  0  0  0  0  0  0  0  0  0  0
   20.8340  -17.3544  -17.2435 C   0  0  0  0  0  0  0  0  0  0  0  0
   19.7277  -18.0306  -17.4108 N   0  0  0  0  0  0  0  0  0  0  0  0
   21.7396  -17.8321  -16.2689 N   0  0  0  0  0  0  0  0  0  0  0  0
   22.9540  -17.1698  -15.9051 C   0  0  0  0  0  0  0  0  0  0  0  0
   24.2116  -17.9131  -16.2603 C   0  0  0  0  0  0  0  0  0  0  0  0
   24.5770  -18.9867  -15.2822 C   0  0  0  0  0  0  0  0  0  0  0  0
   25.8825  -19.6868  -15.6181 C   0  0  2  0  0  0  0  0  0  0  0  0
   25.6244  -20.5469  -16.8038 N   0  0  0  0  0  0  0  0  0  0  0  0
   26.3772  -20.5734  -14.5642 C   0  0  0  0  0  0  0  0  0  0  0  0
   25.8331  -21.7261  -14.4665 O   0  0  0  0  0  0  0  0  0  0  0  0
   19.5771  -18.9187  -16.9002 N   0  0  0  0  0  0  0  0  0  0  0  0
   31.5526  -20.7774  -11.1200 C   0  0  0  0  0  0  0  0  0  0  0  0
   30.7067  -21.6250  -10.3808 O   0  0  0  0  0  0  0  0  0  0  0  0
   31.1379  -22.2002   -9.3591 C   0  0  0  0  0  0  0  0  0  0  0  0
   29.2812  -21.8421  -10.8168 C   0  0  0  0  0  0  0  0  0  0  0  0
   28.9701  -21.0331  -12.0243 C   0  0  2  0  0  0  0  0  0  0  0  0
   27.5055  -21.0140  -12.4225 N   0  0  0  0  0  0  0  0  0  0  0  0
   27.4266  -20.2530  -13.6343 C   0  0  0  0  0  0  0  0  0  0  0  0
   26.6429  -20.5203  -11.3243 O   0  0  0  0  0  0  0  0  0  0  0  0
   26.6128  -19.2686  -11.1457 N   0  0  0  0  0  0  0  0  0  0  0  0
   25.8707  -21.3156  -10.4832 C   0  0  2  0  0  0  0  0  0  0  0  0
   25.7906  -21.3050   -9.0811 C   0  0  0  0  0  0  0  0  0  0  0  0
   27.0961  -21.3281   -8.3065 C   0  0  0  0  0  0  0  0  0  0  0  0
   26.8966  -20.8810   -6.9106 C   0  0  0  0  0  0  0  0  0  0  0  0
   25.8196  -21.1237   -6.0729 N   0  0  0  0  0  0  0  0  0  0  0  0
   26.0413  -20.5187   -4.8933 C   0  0  0  0  0  0  0  0  0  0  0  0
   27.2467  -19.8754   -4.9258 C   0  0  0  0  0  0  0  0  0  0  0  0
   27.8947  -19.1275   -3.9680 C   0  0  0  0  0  0  0  0  0  0  0  0
   29.1233  -18.5692   -4.2455 C   0  0  0  0  0  0  0  0  0  0  0  0
   29.6707  -18.7791   -5.4854 C   0  0  0  0  0  0  0  0  0  0  0  0
   29.0140  -19.5259   -6.4274 C   0  0  0  0  0  0  0  0  0  0  0  0
   27.7682  -20.1094   -6.1879 C   0  0  0  0  0  0  0  0  0  0  0  0
   24.9283  -20.2713   -8.5224 O   0  0  0  0  0  0  0  0  0  0  0  0
   25.0577  -18.9505   -8.9439 O   0  0  0  0  0  0  0  0  0  0  0  0
  2  1  1  0
  3  2  2  0
  4  2  1  0
  5  4  1  0
  6  5  1  0
  7  6  1  0
  8  9  1  6
  8 10  1  0
  8  7  1  0
 10 18  1  0
 10 11  2  0
 13 12  1  0
 13 14  2  0
 15 16  1  0
 15 13  1  0
 17 16  1  6
 17 19  1  0
 18 17  1  0
 19 20  2  0
 19 21  1  0
 21 22  1  0
 22 33  1  0
 22 23  1  6
 24 25  2  0
 24 23  1  0
 26 25  1  0
 27 32  2  0
 27 26  1  0
 28 27  1  0
 29 30  1  0
 29 28  2  0
 30 31  2  0
 31 32  1  0
 32 24  1  0
 33 34  1  0
 35 33  2  0
M  END
$$$$
