SDW.pdb
     RDKit          3D

 29 30  0  0  1  0  0  0  0  0999 V2000
    6.3257  -14.9370   22.7654 O   0  0  0  0  0  0  0  0  0  0  0  0
    6.8629  -14.5026   21.5410 C   0  0  0  0  0  0  0  0  0  0  0  0
    7.3788  -15.6862   20.7469 C   0  0  2  0  0  0  0  0  0  0  0  0
    6.3100  -16.6876   20.6068 N   0  0  0  0  0  0  0  0  0  0  0  0
    8.4989  -16.3586   21.4216 C   0  0  0  0  0  0  0  0  0  0  0  0
    8.3465  -17.3963   22.1535 O   0  0  0  0  0  0  0  0  0  0  0  0
    9.8627  -15.9190   21.3254 N   0  0  0  0  0  0  0  0  0  0  0  0
   10.9435  -16.6206   21.9639 C   0  0  1  0  0  0  0  0  0  0  0  0
   12.3067  -16.3141   21.4098 C   0  0  0  0  0  0  0  0  0  0  0  0
   12.9388  -17.5281   20.9235 C   0  0  0  0  0  0  0  0  0  0  0  0
   12.2438  -18.5813   20.8069 O   0  0  0  0  0  0  0  0  0  0  0  0
   11.0129  -16.2765   23.4319 C   0  0  0  0  0  0  0  0  0  0  0  0
   11.6844  -15.2930   23.8304 O   0  0  0  0  0  0  0  0  0  0  0  0
   14.2713  -17.6274   20.5702 O   0  0  0  0  0  0  0  0  0  0  0  0
   10.3297  -17.0417   24.4117 N   0  0  0  0  0  0  0  0  0  0  0  0
   10.4708  -16.8044   25.8347 C   0  0  1  0  0  0  0  0  0  0  0  0
   10.0762  -15.3940   26.2119 C   0  0  0  0  0  0  0  0  0  0  0  0
    8.6058  -15.2054   26.1552 C   0  0  0  0  0  0  0  0  0  0  0  0
    7.6487  -16.1846   25.9941 C   0  0  0  0  0  0  0  0  0  0  0  0
    6.4318  -15.6169   25.9979 N   0  0  0  0  0  0  0  0  0  0  0  0
    6.5402  -14.2846   26.1566 C   0  0  0  0  0  0  0  0  0  0  0  0
    5.6094  -13.2519   26.2276 C   0  0  0  0  0  0  0  0  0  0  0  0
    6.0450  -11.9557   26.3978 C   0  0  0  0  0  0  0  0  0  0  0  0
    7.3910  -11.6788   26.4977 C   0  0  0  0  0  0  0  0  0  0  0  0
    8.3209  -12.7119   26.4266 C   0  0  0  0  0  0  0  0  0  0  0  0
    7.8893  -14.0144   26.2559 C   0  0  0  0  0  0  0  0  0  0  0  0
    9.7205  -17.8116   26.6183 C   0  0  0  0  0  0  0  0  0  0  0  0
    8.9133  -18.7602   26.0248 O   0  0  0  0  0  0  0  0  0  0  0  0
    9.8225  -17.8014   27.8654 O   0  0  0  0  0  0  0  0  0  0  0  0
  2  1  1  0
  3  2  1  0
  3  4  1  1
  5  7  1  0
  5  3  1  0
  6  5  2  0
  8  9  1  6
  8  7  1  0
 10 14  1  0
 10  9  1  0
 11 10  2  0
 12  8  1  0
 12 13  2  0
 15 12  1  0
 16 15  1  0
 16 27  1  0
 16 17  1  6
 18 17  1  0
 19 18  2  0
 20 19  1  0
 21 26  2  0
 21 20  1  0
 22 21  1  0
 23 22  2  0
 23 24  1  0
 24 25  2  0
 25 26  1  0
 26 18  1  0
 27 29  2  0
 27 28  1  0
M  END
$$$$
