SDW.pdb
     RDKit          3D

 29 30  0  0  1  0  0  0  0  0999 V2000
    9.0211  -12.2721   18.4816 O   0  0  0  0  0  0  0  0  0  0  0  0
    8.9074  -13.1758   19.5524 C   0  0  0  0  0  0  0  0  0  0  0  0
    8.5122  -14.5466   19.0403 C   0  0  2  0  0  0  0  0  0  0  0  0
    7.1032  -14.5260   18.6175 N   0  0  0  0  0  0  0  0  0  0  0  0
    8.6236  -15.5789   20.0815 C   0  0  0  0  0  0  0  0  0  0  0  0
    7.6658  -15.8671   20.8787 O   0  0  0  0  0  0  0  0  0  0  0  0
    9.8093  -16.3582   20.3032 N   0  0  0  0  0  0  0  0  0  0  0  0
    9.9587  -17.2240   21.4415 C   0  0  1  0  0  0  0  0  0  0  0  0
   11.0269  -18.2717   21.2991 C   0  0  0  0  0  0  0  0  0  0  0  0
   10.9181  -18.9318   20.0098 C   0  0  0  0  0  0  0  0  0  0  0  0
    9.9308  -19.6948   19.7888 O   0  0  0  0  0  0  0  0  0  0  0  0
   10.3257  -16.4319   22.6730 C   0  0  0  0  0  0  0  0  0  0  0  0
   11.0260  -15.3933   22.5840 O   0  0  0  0  0  0  0  0  0  0  0  0
   11.8294  -18.7903   18.9804 O   0  0  0  0  0  0  0  0  0  0  0  0
    9.8991  -16.8238   23.9678 N   0  0  0  0  0  0  0  0  0  0  0  0
   10.2540  -16.0926   25.1681 C   0  0  1  0  0  0  0  0  0  0  0  0
    9.7391  -14.6710   25.1339 C   0  0  0  0  0  0  0  0  0  0  0  0
    8.3167  -14.5959   25.5485 C   0  0  0  0  0  0  0  0  0  0  0  0
    7.3862  -15.6127   25.5111 C   0  0  0  0  0  0  0  0  0  0  0  0
    6.2121  -15.1532   25.9731 N   0  0  0  0  0  0  0  0  0  0  0  0
    6.3234  -13.8575   26.3204 C   0  0  0  0  0  0  0  0  0  0  0  0
    5.4279  -12.9275   26.8412 C   0  0  0  0  0  0  0  0  0  0  0  0
    5.8552  -11.6425   27.0963 C   0  0  0  0  0  0  0  0  0  0  0  0
    7.1585  -11.2761   26.8395 C   0  0  0  0  0  0  0  0  0  0  0  0
    8.0530  -12.2065   26.3189 C   0  0  0  0  0  0  0  0  0  0  0  0
    7.6295  -13.4973   26.0611 C   0  0  0  0  0  0  0  0  0  0  0  0
    9.8012  -16.8104   26.3810 C   0  0  0  0  0  0  0  0  0  0  0  0
    9.0720  -17.9801   26.3201 O   0  0  0  0  0  0  0  0  0  0  0  0
   10.0911  -16.3381   27.5028 O   0  0  0  0  0  0  0  0  0  0  0  0
  2  1  1  0
  3  2  1  0
  3  4  1  1
  5  7  1  0
  5  3  1  0
  6  5  2  0
  8  9  1  6
  8  7  1  0
 10 14  1  0
 10  9  1  0
 11 10  2  0
 12  8  1  0
 12 13  2  0
 15 12  1  0
 16 15  1  0
 16 27  1  0
 16 17  1  6
 18 17  1  0
 19 18  2  0
 20 19  1  0
 21 26  2  0
 21 20  1  0
 22 21  1  0
 23 22  2  0
 23 24  1  0
 24 25  2  0
 25 26  1  0
 26 18  1  0
 27 29  2  0
 27 28  1  0
M  END
$$$$
