SDW.pdb
     RDKit          3D

 29 30  0  0  1  0  0  0  0  0999 V2000
   11.4771  -14.9575   17.7373 O   0  0  0  0  0  0  0  0  0  0  0  0
   10.9980  -15.1243   19.0484 C   0  0  0  0  0  0  0  0  0  0  0  0
    9.7541  -15.9904   19.0445 C   0  0  2  0  0  0  0  0  0  0  0  0
    8.6202  -15.2197   18.5107 N   0  0  0  0  0  0  0  0  0  0  0  0
    9.3725  -16.4157   20.3994 C   0  0  0  0  0  0  0  0  0  0  0  0
    8.6845  -15.6821   21.1894 O   0  0  0  0  0  0  0  0  0  0  0  0
    9.7323  -17.6866   20.9632 N   0  0  0  0  0  0  0  0  0  0  0  0
    9.3111  -18.0917   22.2771 C   0  0  1  0  0  0  0  0  0  0  0  0
    9.3910  -19.5702   22.5353 C   0  0  0  0  0  0  0  0  0  0  0  0
    8.7959  -20.3080   21.4347 C   0  0  0  0  0  0  0  0  0  0  0  0
    9.4993  -21.1561   20.8088 O   0  0  0  0  0  0  0  0  0  0  0  0
   10.1684  -17.4453   23.3380 C   0  0  0  0  0  0  0  0  0  0  0  0
   11.3773  -17.1864   23.1177 O   0  0  0  0  0  0  0  0  0  0  0  0
    7.4913  -20.1532   21.0054 O   0  0  0  0  0  0  0  0  0  0  0  0
    9.6495  -17.1069   24.6141 N   0  0  0  0  0  0  0  0  0  0  0  0
   10.4933  -16.7499   25.7374 C   0  0  1  0  0  0  0  0  0  0  0  0
   10.1597  -15.3775   26.2780 C   0  0  0  0  0  0  0  0  0  0  0  0
    8.7130  -15.0765   26.1471 C   0  0  0  0  0  0  0  0  0  0  0  0
    7.6641  -15.9576   26.3036 C   0  0  0  0  0  0  0  0  0  0  0  0
    6.5070  -15.3048   26.1091 N   0  0  0  0  0  0  0  0  0  0  0  0
    6.7445  -14.0105   25.8261 C   0  0  0  0  0  0  0  0  0  0  0  0
    5.9175  -12.9261   25.5466 C   0  0  0  0  0  0  0  0  0  0  0  0
    6.4775  -11.6935   25.2898 C   0  0  0  0  0  0  0  0  0  0  0  0
    7.8456  -11.5306   25.3085 C   0  0  0  0  0  0  0  0  0  0  0  0
    8.6716  -12.6152   25.5880 C   0  0  0  0  0  0  0  0  0  0  0  0
    8.1149  -13.8543   25.8464 C   0  0  0  0  0  0  0  0  0  0  0  0
   10.4362  -17.7843   26.7948 C   0  0  0  0  0  0  0  0  0  0  0  0
    9.5349  -18.8285   26.7611 O   0  0  0  0  0  0  0  0  0  0  0  0
   11.2353  -17.7081   27.7546 O   0  0  0  0  0  0  0  0  0  0  0  0
  2  1  1  0
  3  2  1  0
  3  4  1  1
  5  7  1  0
  5  3  1  0
  6  5  2  0
  8  9  1  6
  8  7  1  0
 10 14  1  0
 10  9  1  0
 11 10  2  0
 12  8  1  0
 12 13  2  0
 15 12  1  0
 16 15  1  0
 16 27  1  0
 16 17  1  1
 18 17  1  0
 19 18  2  0
 20 19  1  0
 21 26  2  0
 21 20  1  0
 22 21  1  0
 23 22  2  0
 23 24  1  0
 24 25  2  0
 25 26  1  0
 26 18  1  0
 27 29  2  0
 27 28  1  0
M  END
$$$$
