SDW.pdb
     RDKit          3D

 29 30  0  0  1  0  0  0  0  0999 V2000
    8.5617  -20.7062   19.5264 O   0  0  0  0  0  0  0  0  0  0  0  0
    9.4107  -21.2956   20.4793 C   0  0  0  0  0  0  0  0  0  0  0  0
    9.3415  -20.5305   21.7859 C   0  0  2  0  0  0  0  0  0  0  0  0
    7.9395  -20.2053   22.0914 N   0  0  0  0  0  0  0  0  0  0  0  0
   10.0641  -19.2517   21.7167 C   0  0  0  0  0  0  0  0  0  0  0  0
   11.3194  -19.1753   21.4841 O   0  0  0  0  0  0  0  0  0  0  0  0
    9.4355  -17.9738   21.9020 N   0  0  0  0  0  0  0  0  0  0  0  0
   10.1642  -16.7377   21.8076 C   0  0  1  0  0  0  0  0  0  0  0  0
    9.4201  -15.6187   21.1344 C   0  0  0  0  0  0  0  0  0  0  0  0
    8.9547  -16.0382   19.8239 C   0  0  0  0  0  0  0  0  0  0  0  0
    9.7420  -15.9565   18.8344 O   0  0  0  0  0  0  0  0  0  0  0  0
   10.5238  -16.2213   23.1795 C   0  0  0  0  0  0  0  0  0  0  0  0
   11.2033  -15.1738   23.3142 O   0  0  0  0  0  0  0  0  0  0  0  0
    7.6895  -16.5308   19.5651 O   0  0  0  0  0  0  0  0  0  0  0  0
   10.1134  -16.8905   24.3610 N   0  0  0  0  0  0  0  0  0  0  0  0
   10.5224  -16.4696   25.6864 C   0  0  1  0  0  0  0  0  0  0  0  0
   10.0546  -15.0661   26.0005 C   0  0  0  0  0  0  0  0  0  0  0  0
    8.5740  -14.9739   26.0099 C   0  0  0  0  0  0  0  0  0  0  0  0
    7.6767  -16.0091   25.8546 C   0  0  0  0  0  0  0  0  0  0  0  0
    6.4267  -15.5238   25.9270 N   0  0  0  0  0  0  0  0  0  0  0  0
    6.4549  -14.1929   26.1264 C   0  0  0  0  0  0  0  0  0  0  0  0
    5.4627  -13.2271   26.2701 C   0  0  0  0  0  0  0  0  0  0  0  0
    5.8198  -11.9107   26.4666 C   0  0  0  0  0  0  0  0  0  0  0  0
    7.1481  -11.5483   26.5211 C   0  0  0  0  0  0  0  0  0  0  0  0
    8.1393  -12.5146   26.3773 C   0  0  0  0  0  0  0  0  0  0  0  0
    7.7865  -13.8369   26.1800 C   0  0  0  0  0  0  0  0  0  0  0  0
   10.0763  -17.4385   26.7129 C   0  0  0  0  0  0  0  0  0  0  0  0
   10.4261  -17.3220   28.0425 O   0  0  0  0  0  0  0  0  0  0  0  0
    9.3553  -18.3986   26.3608 O   0  0  0  0  0  0  0  0  0  0  0  0
  2  1  1  0
  3  2  1  0
  3  4  1  6
  5  7  1  0
  5  3  1  0
  6  5  2  0
  8  9  1  1
  8  7  1  0
 10 14  1  0
 10  9  1  0
 11 10  2  0
 12  8  1  0
 12 13  2  0
 15 12  1  0
 16 15  1  0
 16 27  1  0
 16 17  1  1
 18 17  1  0
 19 18  2  0
 20 19  1  0
 21 26  2  0
 21 20  1  0
 22 21  1  0
 23 22  2  0
 23 24  1  0
 24 25  2  0
 25 26  1  0
 26 18  1  0
 27 29  2  0
 27 28  1  0
M  END
$$$$
