SDW.pdb
     RDKit          3D

 29 30  0  0  1  0  0  0  0  0999 V2000
    5.8560  -15.5267   21.5605 O   0  0  0  0  0  0  0  0  0  0  0  0
    6.7177  -14.6670   20.8574 C   0  0  0  0  0  0  0  0  0  0  0  0
    7.7366  -15.4722   20.0757 C   0  0  2  0  0  0  0  0  0  0  0  0
    7.0403  -16.4075   19.1785 N   0  0  0  0  0  0  0  0  0  0  0  0
    8.5884  -16.2877   20.9541 C   0  0  0  0  0  0  0  0  0  0  0  0
    8.4974  -17.5616   21.0218 O   0  0  0  0  0  0  0  0  0  0  0  0
    9.5977  -15.7375   21.8148 N   0  0  0  0  0  0  0  0  0  0  0  0
   10.4645  -16.5648   22.6099 C   0  0  1  0  0  0  0  0  0  0  0  0
   11.9184  -16.4954   22.2349 C   0  0  0  0  0  0  0  0  0  0  0  0
   12.6688  -17.5271   22.9293 C   0  0  0  0  0  0  0  0  0  0  0  0
   12.0974  -18.6231   23.2086 O   0  0  0  0  0  0  0  0  0  0  0  0
   10.3989  -16.1672   24.0646 C   0  0  0  0  0  0  0  0  0  0  0  0
   10.8983  -15.0842   24.4579 O   0  0  0  0  0  0  0  0  0  0  0  0
   13.9889  -17.4040   23.3195 O   0  0  0  0  0  0  0  0  0  0  0  0
    9.7770  -16.9916   25.0371 N   0  0  0  0  0  0  0  0  0  0  0  0
    9.8457  -16.7198   26.4593 C   0  0  1  0  0  0  0  0  0  0  0  0
    8.4720  -16.6705   27.0899 C   0  0  0  0  0  0  0  0  0  0  0  0
    7.5759  -15.7309   26.3722 C   0  0  0  0  0  0  0  0  0  0  0  0
    6.6088  -16.0519   25.4434 C   0  0  0  0  0  0  0  0  0  0  0  0
    6.0079  -14.9261   25.0254 N   0  0  0  0  0  0  0  0  0  0  0  0
    6.5410  -13.8564   25.6445 C   0  0  0  0  0  0  0  0  0  0  0  0
    6.2894  -12.4890   25.5760 C   0  0  0  0  0  0  0  0  0  0  0  0
    7.0251  -11.6232   26.3558 C   0  0  0  0  0  0  0  0  0  0  0  0
    8.0037  -12.1029   27.1990 C   0  0  0  0  0  0  0  0  0  0  0  0
    8.2545  -13.4701   27.2668 C   0  0  0  0  0  0  0  0  0  0  0  0
    7.5192  -14.3433   26.4865 C   0  0  0  0  0  0  0  0  0  0  0  0
   10.7284  -17.6913   27.1438 C   0  0  0  0  0  0  0  0  0  0  0  0
   11.0784  -17.5652   28.4725 O   0  0  0  0  0  0  0  0  0  0  0  0
   11.1734  -18.6626   26.4925 O   0  0  0  0  0  0  0  0  0  0  0  0
  2  1  1  0
  3  2  1  0
  3  4  1  6
  5  7  1  0
  5  3  1  0
  6  5  2  0
  8  9  1  6
  8  7  1  0
 10 14  1  0
 10  9  1  0
 11 10  2  0
 12  8  1  0
 12 13  2  0
 15 12  1  0
 16 15  1  0
 16 27  1  0
 16 17  1  1
 18 17  1  0
 19 18  2  0
 20 19  1  0
 21 26  2  0
 21 20  1  0
 22 21  1  0
 23 22  2  0
 23 24  1  0
 24 25  2  0
 25 26  1  0
 26 18  1  0
 27 29  2  0
 27 28  1  0
M  END
$$$$
