SDW.pdb
     RDKit          3D

 29 30  0  0  1  0  0  0  0  0999 V2000
    6.7017  -14.4950   21.6722 O   0  0  0  0  0  0  0  0  0  0  0  0
    7.5488  -14.4548   20.5511 C   0  0  0  0  0  0  0  0  0  0  0  0
    7.9648  -15.8587   20.1591 C   0  0  2  0  0  0  0  0  0  0  0  0
    6.7680  -16.6603   19.8594 N   0  0  0  0  0  0  0  0  0  0  0  0
    8.6719  -16.5498   21.2475 C   0  0  0  0  0  0  0  0  0  0  0  0
    8.1133  -17.4282   21.9906 O   0  0  0  0  0  0  0  0  0  0  0  0
   10.0480  -16.3080   21.5794 N   0  0  0  0  0  0  0  0  0  0  0  0
   10.7220  -17.0210   22.6307 C   0  0  1  0  0  0  0  0  0  0  0  0
   12.2227  -16.9854   22.5530 C   0  0  0  0  0  0  0  0  0  0  0  0
   12.6765  -17.5454   21.2920 C   0  0  0  0  0  0  0  0  0  0  0  0
   13.3893  -16.8346   20.5223 O   0  0  0  0  0  0  0  0  0  0  0  0
   10.3696  -16.4450   23.9807 C   0  0  0  0  0  0  0  0  0  0  0  0
   10.5705  -15.2315   24.2340 O   0  0  0  0  0  0  0  0  0  0  0  0
   12.3841  -18.8235   20.8546 O   0  0  0  0  0  0  0  0  0  0  0  0
    9.8028  -17.2421   25.0081 N   0  0  0  0  0  0  0  0  0  0  0  0
    9.6706  -16.7841   26.3770 C   0  0  1  0  0  0  0  0  0  0  0  0
    8.2228  -16.7044   26.8066 C   0  0  0  0  0  0  0  0  0  0  0  0
    7.4835  -15.6694   26.0432 C   0  0  0  0  0  0  0  0  0  0  0  0
    6.7041  -15.8628   24.9224 C   0  0  0  0  0  0  0  0  0  0  0  0
    6.2004  -14.6826   24.5265 N   0  0  0  0  0  0  0  0  0  0  0  0
    6.6170  -13.7000   25.3467 C   0  0  0  0  0  0  0  0  0  0  0  0
    6.3931  -12.3265   25.3831 C   0  0  0  0  0  0  0  0  0  0  0  0
    6.9770  -11.5694   26.3754 C   0  0  0  0  0  0  0  0  0  0  0  0
    7.7775  -12.1630   27.3269 C   0  0  0  0  0  0  0  0  0  0  0  0
    8.0007  -13.5362   27.2898 C   0  0  0  0  0  0  0  0  0  0  0  0
    7.4172  -14.3006   26.2963 C   0  0  0  0  0  0  0  0  0  0  0  0
   10.4701  -17.6236   27.2977 C   0  0  0  0  0  0  0  0  0  0  0  0
   11.1998  -18.7109   26.8630 O   0  0  0  0  0  0  0  0  0  0  0  0
   10.4840  -17.3357   28.5153 O   0  0  0  0  0  0  0  0  0  0  0  0
  2  1  1  0
  3  2  1  0
  3  4  1  1
  5  7  1  0
  5  3  1  0
  6  5  2  0
  8  9  1  6
  8  7  1  0
 10 14  1  0
 10  9  1  0
 11 10  2  0
 12  8  1  0
 12 13  2  0
 15 12  1  0
 16 15  1  0
 16 27  1  0
 16 17  1  1
 18 17  1  0
 19 18  2  0
 20 19  1  0
 21 26  2  0
 21 20  1  0
 22 21  1  0
 23 22  2  0
 23 24  1  0
 24 25  2  0
 25 26  1  0
 26 18  1  0
 27 29  2  0
 27 28  1  0
M  END
$$$$
