SDW.pdb
     RDKit          3D

 29 30  0  0  1  0  0  0  0  0999 V2000
    8.8621  -14.3466   16.9096 O   0  0  0  0  0  0  0  0  0  0  0  0
    7.6086  -14.0942   17.4939 C   0  0  0  0  0  0  0  0  0  0  0  0
    7.7618  -13.8732   18.9856 C   0  0  2  0  0  0  0  0  0  0  0  0
    8.9287  -13.0134   19.2379 N   0  0  0  0  0  0  0  0  0  0  0  0
    8.0019  -15.1306   19.7089 C   0  0  0  0  0  0  0  0  0  0  0  0
    7.3636  -16.2098   19.4562 O   0  0  0  0  0  0  0  0  0  0  0  0
    8.9691  -15.2687   20.7615 N   0  0  0  0  0  0  0  0  0  0  0  0
    9.9181  -16.3484   20.7969 C   0  0  1  0  0  0  0  0  0  0  0  0
   10.8723  -16.3854   19.6361 C   0  0  0  0  0  0  0  0  0  0  0  0
   11.7621  -17.5278   19.7500 C   0  0  0  0  0  0  0  0  0  0  0  0
   11.3751  -18.6562   19.3226 O   0  0  0  0  0  0  0  0  0  0  0  0
   10.7814  -16.2632   22.0322 C   0  0  0  0  0  0  0  0  0  0  0  0
   11.7223  -17.0744   22.2158 O   0  0  0  0  0  0  0  0  0  0  0  0
   13.0282  -17.4798   20.3022 O   0  0  0  0  0  0  0  0  0  0  0  0
   10.5679  -15.2738   23.0259 N   0  0  0  0  0  0  0  0  0  0  0  0
    9.6372  -15.4488   24.1234 C   0  0  1  0  0  0  0  0  0  0  0  0
    8.2014  -15.2967   23.6734 C   0  0  0  0  0  0  0  0  0  0  0  0
    7.3476  -14.7413   24.7521 C   0  0  0  0  0  0  0  0  0  0  0  0
    6.3612  -15.4019   25.4533 C   0  0  0  0  0  0  0  0  0  0  0  0
    5.8188  -14.5614   26.3491 N   0  0  0  0  0  0  0  0  0  0  0  0
    6.4098  -13.3545   26.2723 C   0  0  0  0  0  0  0  0  0  0  0  0
    6.2291  -12.1567   26.9584 C   0  0  0  0  0  0  0  0  0  0  0  0
    7.0111  -11.0675   26.6406 C   0  0  0  0  0  0  0  0  0  0  0  0
    7.9664  -11.1585   25.6517 C   0  0  0  0  0  0  0  0  0  0  0  0
    8.1463  -12.3563   24.9664 C   0  0  0  0  0  0  0  0  0  0  0  0
    7.3643  -13.4524   25.2813 C   0  0  0  0  0  0  0  0  0  0  0  0
    9.8623  -16.7407   24.8102 C   0  0  0  0  0  0  0  0  0  0  0  0
    9.9345  -16.8461   26.1840 O   0  0  0  0  0  0  0  0  0  0  0  0
    9.9920  -17.7752   24.1183 O   0  0  0  0  0  0  0  0  0  0  0  0
  2  1  1  0
  3  2  1  0
  3  4  1  6
  5  7  1  0
  5  3  1  0
  6  5  2  0
  8  9  1  6
  8  7  1  0
 10 14  1  0
 10  9  1  0
 11 10  2  0
 12  8  1  0
 12 13  2  0
 15 12  1  0
 16 15  1  0
 16 27  1  0
 16 17  1  6
 18 17  1  0
 19 18  2  0
 20 19  1  0
 21 26  2  0
 21 20  1  0
 22 21  1  0
 23 22  2  0
 23 24  1  0
 24 25  2  0
 25 26  1  0
 26 18  1  0
 27 29  2  0
 27 28  1  0
M  END
$$$$
