SDW.pdb
     RDKit          3D

 29 30  0  0  1  0  0  0  0  0999 V2000
    7.3785  -13.6979   22.4350 O   0  0  0  0  0  0  0  0  0  0  0  0
    6.6634  -14.6554   21.6947 C   0  0  0  0  0  0  0  0  0  0  0  0
    7.6214  -15.5533   20.9373 C   0  0  2  0  0  0  0  0  0  0  0  0
    6.8576  -16.4951   20.1041 N   0  0  0  0  0  0  0  0  0  0  0  0
    8.4481  -16.3668   21.8412 C   0  0  0  0  0  0  0  0  0  0  0  0
    8.0302  -17.4498   22.3783 O   0  0  0  0  0  0  0  0  0  0  0  0
    9.7949  -16.0274   22.2062 N   0  0  0  0  0  0  0  0  0  0  0  0
   10.5543  -16.8025   23.1498 C   0  0  1  0  0  0  0  0  0  0  0  0
   12.0119  -16.9501   22.8140 C   0  0  0  0  0  0  0  0  0  0  0  0
   12.6079  -18.0109   23.6074 C   0  0  0  0  0  0  0  0  0  0  0  0
   13.7878  -17.8647   24.0459 O   0  0  0  0  0  0  0  0  0  0  0  0
   10.5132  -16.1697   24.5196 C   0  0  0  0  0  0  0  0  0  0  0  0
   11.0154  -15.0361   24.7191 O   0  0  0  0  0  0  0  0  0  0  0  0
   11.9742  -19.1963   23.9287 O   0  0  0  0  0  0  0  0  0  0  0  0
    9.9120  -16.8223   25.6263 N   0  0  0  0  0  0  0  0  0  0  0  0
   10.2690  -16.5310   27.0006 C   0  0  1  0  0  0  0  0  0  0  0  0
    9.1943  -15.7327   27.7042 C   0  0  0  0  0  0  0  0  0  0  0  0
    8.1091  -15.3391   26.7724 C   0  0  0  0  0  0  0  0  0  0  0  0
    7.2589  -16.1796   26.0856 C   0  0  0  0  0  0  0  0  0  0  0  0
    6.4120  -15.4436   25.3479 N   0  0  0  0  0  0  0  0  0  0  0  0
    6.6661  -14.1326   25.5169 C   0  0  0  0  0  0  0  0  0  0  0  0
    6.0960  -12.9740   24.9967 C   0  0  0  0  0  0  0  0  0  0  0  0
    6.5933  -11.7449   25.3720 C   0  0  0  0  0  0  0  0  0  0  0  0
    7.6470  -11.6582   26.2556 C   0  0  0  0  0  0  0  0  0  0  0  0
    8.2163  -12.8171   26.7752 C   0  0  0  0  0  0  0  0  0  0  0  0
    7.7212  -14.0530   26.4019 C   0  0  0  0  0  0  0  0  0  0  0  0
   10.6014  -17.7711   27.7376 C   0  0  0  0  0  0  0  0  0  0  0  0
   11.0927  -17.7571   29.0268 O   0  0  0  0  0  0  0  0  0  0  0  0
   10.4303  -18.8727   27.1693 O   0  0  0  0  0  0  0  0  0  0  0  0
  2  1  1  0
  3  2  1  0
  3  4  1  6
  5  7  1  0
  5  3  1  0
  6  5  2  0
  8  9  1  6
  8  7  1  0
 10 14  1  0
 10  9  1  0
 11 10  2  0
 12  8  1  0
 12 13  2  0
 15 12  1  0
 16 15  1  0
 16 27  1  0
 16 17  1  1
 18 17  1  0
 19 18  2  0
 20 19  1  0
 21 26  2  0
 21 20  1  0
 22 21  1  0
 23 22  2  0
 23 24  1  0
 24 25  2  0
 25 26  1  0
 26 18  1  0
 27 29  2  0
 27 28  1  0
M  END
$$$$
