MVD.pdb
     RDKit          3D

 24 23  0  0  1  0  0  0  0  0999 V2000
   27.2669  -23.6276  -21.4265 C   0  0  0  0  0  0  0  0  0  0  0  0
   25.7692  -22.9650  -20.6392 S   0  0  0  0  0  0  0  0  0  0  0  0
   26.2099  -22.4388  -18.9655 C   0  0  0  0  0  0  0  0  0  0  0  0
   27.1378  -23.4248  -18.2895 C   0  0  0  0  0  0  0  0  0  0  0  0
   26.2909  -24.3999  -17.5098 C   0  0  2  0  0  0  0  0  0  0  0  0
   25.7577  -23.6676  -16.3639 N   0  0  0  0  0  0  0  0  0  0  0  0
   27.1094  -25.5534  -17.0304 C   0  0  0  0  0  0  0  0  0  0  0  0
   27.7239  -25.4420  -15.9445 O   0  0  0  0  0  0  0  0  0  0  0  0
   25.8562  -29.0248  -16.4841 C   0  0  0  0  0  0  0  0  0  0  0  0
   27.0703  -29.0825  -17.3847 C   0  0  2  0  0  0  0  0  0  0  0  0
   27.7797  -30.4136  -17.2815 C   0  0  0  0  0  0  0  0  0  0  0  0
   27.9828  -27.9189  -17.2946 C   0  0  2  0  0  0  0  0  0  0  0  0
   27.2155  -26.7528  -17.7479 N   0  0  0  0  0  0  0  0  0  0  0  0
   29.2800  -28.0088  -17.9384 C   0  0  0  0  0  0  0  0  0  0  0  0
   29.2891  -28.0638  -19.2185 O   0  0  0  0  0  0  0  0  0  0  0  0
   30.5445  -28.0433  -17.3319 N   0  0  0  0  0  0  0  0  0  0  0  0
   31.8050  -28.2101  -18.0891 C   0  0  1  0  0  0  0  0  0  0  0  0
   32.8514  -27.5807  -17.2130 C   0  0  0  0  0  0  0  0  0  0  0  0
   34.2216  -27.6888  -17.6961 C   0  0  0  0  0  0  0  0  0  0  0  0
   34.3682  -28.2337  -18.8414 O   0  0  0  0  0  0  0  0  0  0  0  0
   32.1132  -29.6847  -18.1583 C   0  0  0  0  0  0  0  0  0  0  0  0
   32.6656  -30.2426  -19.3029 O   0  0  0  0  0  0  0  0  0  0  0  0
   35.3744  -27.2775  -17.0700 O   0  0  0  0  0  0  0  0  0  0  0  0
   31.8826  -30.4443  -17.1944 O   0  0  0  0  0  0  0  0  0  0  0  0
  2  1  1  0
  3  2  1  0
  4  3  1  0
  5  4  1  0
  5  7  1  0
  5  6  1  1
  7 13  1  0
  8  7  2  0
 10  9  1  1
 10 12  1  0
 10 11  1  0
 12 14  1  0
 12 13  1  6
 14 15  2  0
 16 14  1  0
 16 17  1  0
 17 21  1  0
 17 18  1  1
 19 18  1  0
 20 19  2  0
 21 24  2  0
 21 22  1  0
 23 19  1  0
M  END
$$$$
