MVD.pdb
     RDKit          3D

 24 23  0  0  1  0  0  0  0  0999 V2000
   28.1693  -18.9466   -6.1217 C   0  0  0  0  0  0  0  0  0  0  0  0
   27.2069  -20.4783   -5.9493 S   0  0  0  0  0  0  0  0  0  0  0  0
   27.1960  -21.3092   -7.5562 C   0  0  0  0  0  0  0  0  0  0  0  0
   26.3279  -20.5837   -8.5611 C   0  0  0  0  0  0  0  0  0  0  0  0
   26.4479  -21.3019   -9.8824 C   0  0  2  0  0  0  0  0  0  0  0  0
   27.8627  -21.2767  -10.2451 N   0  0  0  0  0  0  0  0  0  0  0  0
   25.6476  -20.6135  -10.9388 C   0  0  0  0  0  0  0  0  0  0  0  0
   25.6707  -19.3619  -10.9881 O   0  0  0  0  0  0  0  0  0  0  0  0
   24.6766  -19.6906  -15.2577 C   0  0  0  0  0  0  0  0  0  0  0  0
   25.1355  -20.5362  -14.0903 C   0  0  2  0  0  0  0  0  0  0  0  0
   25.7238  -21.8509  -14.5497 C   0  0  0  0  0  0  0  0  0  0  0  0
   24.1562  -20.6809  -12.9881 C   0  0  2  0  0  0  0  0  0  0  0  0
   24.8737  -21.3132  -11.8748 N   0  0  0  0  0  0  0  0  0  0  0  0
   22.8921  -21.3346  -13.2707 C   0  0  0  0  0  0  0  0  0  0  0  0
   22.9155  -22.6089  -13.4036 O   0  0  0  0  0  0  0  0  0  0  0  0
   21.6284  -20.7436  -13.4189 N   0  0  0  0  0  0  0  0  0  0  0  0
   20.4049  -21.5109  -13.7421 C   0  0  1  0  0  0  0  0  0  0  0  0
   19.4376  -21.1454  -12.6516 C   0  0  0  0  0  0  0  0  0  0  0  0
   19.2064  -22.1752  -11.6473 C   0  0  0  0  0  0  0  0  0  0  0  0
   19.8021  -23.2876  -11.8412 O   0  0  0  0  0  0  0  0  0  0  0  0
   19.8440  -20.9681  -15.0325 C   0  0  0  0  0  0  0  0  0  0  0  0
   19.0507  -21.7596  -15.8514 O   0  0  0  0  0  0  0  0  0  0  0  0
   18.4254  -22.0962  -10.5186 O   0  0  0  0  0  0  0  0  0  0  0  0
   20.0743  -19.7977  -15.4016 O   0  0  0  0  0  0  0  0  0  0  0  0
  2  1  1  0
  3  2  1  0
  4  3  1  0
  5  4  1  0
  5  7  1  0
  5  6  1  6
  7 13  1  0
  8  7  2  0
 10  9  1  6
 10 12  1  0
 10 11  1  0
 12 14  1  0
 12 13  1  1
 14 15  2  0
 16 14  1  0
 16 17  1  0
 17 21  1  0
 17 18  1  1
 19 18  1  0
 20 19  2  0
 21 24  2  0
 21 22  1  0
 23 19  1  0
M  END
$$$$
