MVD.pdb
     RDKit          3D

 24 23  0  0  1  0  0  0  0  0999 V2000
   25.6091  -14.5842  -19.4069 C   0  0  0  0  0  0  0  0  0  0  0  0
   24.7653  -16.0083  -18.6573 S   0  0  0  0  0  0  0  0  0  0  0  0
   26.0270  -17.0743  -17.9197 C   0  0  0  0  0  0  0  0  0  0  0  0
   25.4258  -18.3211  -17.3081 C   0  0  0  0  0  0  0  0  0  0  0  0
   26.5050  -19.0163  -16.5157 C   0  0  2  0  0  0  0  0  0  0  0  0
   27.3962  -19.6468  -17.4863 N   0  0  0  0  0  0  0  0  0  0  0  0
   25.9218  -20.0593  -15.6199 C   0  0  0  0  0  0  0  0  0  0  0  0
   25.5382  -21.1386  -16.1271 O   0  0  0  0  0  0  0  0  0  0  0  0
   27.4156  -21.3127  -12.3902 C   0  0  0  0  0  0  0  0  0  0  0  0
   25.9733  -20.9357  -12.1335 C   0  0  2  0  0  0  0  0  0  0  0  0
   25.3619  -21.7790  -11.0376 C   0  0  0  0  0  0  0  0  0  0  0  0
   25.1211  -20.8285  -13.3405 C   0  0  2  0  0  0  0  0  0  0  0  0
   25.7876  -19.8764  -14.2368 N   0  0  0  0  0  0  0  0  0  0  0  0
   23.7128  -20.5267  -13.1654 C   0  0  0  0  0  0  0  0  0  0  0  0
   23.4246  -19.4774  -12.4888 O   0  0  0  0  0  0  0  0  0  0  0  0
   22.6090  -21.2454  -13.6485 N   0  0  0  0  0  0  0  0  0  0  0  0
   21.2070  -20.8885  -13.3371 C   0  0  1  0  0  0  0  0  0  0  0  0
   20.4693  -21.1193  -14.6259 C   0  0  0  0  0  0  0  0  0  0  0  0
   19.3654  -20.2056  -14.8891 C   0  0  0  0  0  0  0  0  0  0  0  0
   19.1227  -19.3463  -13.9765 O   0  0  0  0  0  0  0  0  0  0  0  0
   20.6830  -21.8918  -12.3405 C   0  0  0  0  0  0  0  0  0  0  0  0
   21.3421  -23.0949  -12.1295 O   0  0  0  0  0  0  0  0  0  0  0  0
   18.5537  -20.1563  -15.9975 O   0  0  0  0  0  0  0  0  0  0  0  0
   19.6471  -21.6726  -11.6788 O   0  0  0  0  0  0  0  0  0  0  0  0
  2  1  1  0
  3  2  1  0
  4  3  1  0
  5  4  1  0
  5  7  1  0
  5  6  1  6
  7 13  1  0
  8  7  2  0
 10  9  1  6
 10 12  1  0
 10 11  1  0
 12 14  1  0
 12 13  1  6
 14 15  2  0
 16 14  1  0
 16 17  1  0
 17 21  1  0
 17 18  1  6
 19 18  1  0
 20 19  2  0
 21 24  2  0
 21 22  1  0
 23 19  1  0
M  END
$$$$
