MVD.pdb
     RDKit          3D

 24 23  0  0  1  0  0  0  0  0999 V2000
   21.8203  -20.0538   -8.4236 C   0  0  0  0  0  0  0  0  0  0  0  0
   22.9727  -21.3729   -7.9396 S   0  0  0  0  0  0  0  0  0  0  0  0
   24.6432  -20.6788   -7.9463 C   0  0  0  0  0  0  0  0  0  0  0  0
   24.9138  -19.8703   -9.1966 C   0  0  0  0  0  0  0  0  0  0  0  0
   25.7810  -20.7021  -10.1087 C   0  0  2  0  0  0  0  0  0  0  0  0
   27.0793  -20.8282   -9.4510 N   0  0  0  0  0  0  0  0  0  0  0  0
   25.9536  -20.0366  -11.4345 C   0  0  0  0  0  0  0  0  0  0  0  0
   26.3177  -18.8382  -11.4607 O   0  0  0  0  0  0  0  0  0  0  0  0
   28.3124  -20.5616  -13.9621 C   0  0  0  0  0  0  0  0  0  0  0  0
   26.9745  -20.7134  -14.6516 C   0  0  2  0  0  0  0  0  0  0  0  0
   27.0630  -20.3781  -16.1231 C   0  0  0  0  0  0  0  0  0  0  0  0
   25.8309  -20.0668  -13.9668 C   0  0  2  0  0  0  0  0  0  0  0  0
   25.7242  -20.7006  -12.6473 N   0  0  0  0  0  0  0  0  0  0  0  0
   24.5556  -20.0125  -14.6565 C   0  0  0  0  0  0  0  0  0  0  0  0
   23.8864  -21.1032  -14.7242 O   0  0  0  0  0  0  0  0  0  0  0  0
   23.9508  -18.9040  -15.2676 N   0  0  0  0  0  0  0  0  0  0  0  0
   22.6148  -18.9538  -15.9020 C   0  0  1  0  0  0  0  0  0  0  0  0
   22.0445  -17.5817  -15.6766 C   0  0  0  0  0  0  0  0  0  0  0  0
   20.7438  -17.3354  -16.2851 C   0  0  0  0  0  0  0  0  0  0  0  0
   20.2091  -18.3301  -16.8807 O   0  0  0  0  0  0  0  0  0  0  0  0
   22.8125  -19.1130  -17.3886 C   0  0  0  0  0  0  0  0  0  0  0  0
   21.8650  -19.7642  -18.1661 O   0  0  0  0  0  0  0  0  0  0  0  0
   20.0235  -16.1645  -16.2973 O   0  0  0  0  0  0  0  0  0  0  0  0
   23.8280  -18.6668  -17.9621 O   0  0  0  0  0  0  0  0  0  0  0  0
  2  1  1  0
  3  2  1  0
  4  3  1  0
  5  4  1  0
  5  7  1  0
  5  6  1  1
  7 13  1  0
  8  7  2  0
 10  9  1  1
 10 12  1  0
 10 11  1  0
 12 14  1  0
 12 13  1  1
 14 15  2  0
 16 14  1  0
 16 17  1  0
 17 21  1  0
 17 18  1  6
 19 18  1  0
 20 19  2  0
 21 24  2  0
 21 22  1  0
 23 19  1  0
M  END
$$$$
