MVD.pdb
     RDKit          3D

 24 23  0  0  1  0  0  0  0  0999 V2000
   22.7729  -20.5155   -7.9761 C   0  0  0  0  0  0  0  0  0  0  0  0
   24.3007  -21.1396   -7.2156 S   0  0  0  0  0  0  0  0  0  0  0  0
   25.6819  -20.6790   -8.2891 C   0  0  0  0  0  0  0  0  0  0  0  0
   25.2147  -20.2900   -9.6749 C   0  0  0  0  0  0  0  0  0  0  0  0
   26.0102  -21.0915  -10.6752 C   0  0  2  0  0  0  0  0  0  0  0  0
   27.4093  -20.7103  -10.4987 N   0  0  0  0  0  0  0  0  0  0  0  0
   25.5790  -20.7823  -12.0711 C   0  0  0  0  0  0  0  0  0  0  0  0
   25.9304  -19.6925  -12.5795 O   0  0  0  0  0  0  0  0  0  0  0  0
   24.1744  -23.8436  -14.7177 C   0  0  0  0  0  0  0  0  0  0  0  0
   24.7696  -22.4917  -15.0439 C   0  0  2  0  0  0  0  0  0  0  0  0
   26.2727  -22.5633  -15.1892 C   0  0  0  0  0  0  0  0  0  0  0  0
   24.3122  -21.3736  -14.1863 C   0  0  2  0  0  0  0  0  0  0  0  0
   24.7979  -21.6630  -12.8319 N   0  0  0  0  0  0  0  0  0  0  0  0
   22.9044  -21.0231  -14.2033 C   0  0  0  0  0  0  0  0  0  0  0  0
   22.1875  -21.4560  -13.2335 O   0  0  0  0  0  0  0  0  0  0  0  0
   22.2160  -20.2598  -15.1581 N   0  0  0  0  0  0  0  0  0  0  0  0
   20.7748  -19.9388  -15.0570 C   0  0  1  0  0  0  0  0  0  0  0  0
   20.7433  -18.5249  -14.5487 C   0  0  0  0  0  0  0  0  0  0  0  0
   19.5279  -18.1385  -13.8445 C   0  0  0  0  0  0  0  0  0  0  0  0
   18.6896  -19.0756  -13.6229 O   0  0  0  0  0  0  0  0  0  0  0  0
   20.2043  -19.9210  -16.4529 C   0  0  0  0  0  0  0  0  0  0  0  0
   18.8500  -20.1336  -16.6701 O   0  0  0  0  0  0  0  0  0  0  0  0
   19.1732  -16.8901  -13.3911 O   0  0  0  0  0  0  0  0  0  0  0  0
   20.9277  -19.7156  -17.4497 O   0  0  0  0  0  0  0  0  0  0  0  0
  2  1  1  0
  3  2  1  0
  4  3  1  0
  5  4  1  0
  5  7  1  0
  5  6  1  6
  7 13  1  0
  8  7  2  0
 10  9  1  1
 10 12  1  0
 10 11  1  0
 12 14  1  0
 12 13  1  1
 14 15  2  0
 16 14  1  0
 16 17  1  0
 17 21  1  0
 17 18  1  6
 19 18  1  0
 20 19  2  0
 21 24  2  0
 21 22  1  0
 23 19  1  0
M  END
$$$$
