MVD.pdb
     RDKit          3D

 24 23  0  0  1  0  0  0  0  0999 V2000
   26.8884  -13.9762  -21.4421 C   0  0  0  0  0  0  0  0  0  0  0  0
   25.5615  -12.8366  -20.9495 S   0  0  0  0  0  0  0  0  0  0  0  0
   25.2460  -13.0834  -19.1854 C   0  0  0  0  0  0  0  0  0  0  0  0
   24.1691  -12.1542  -18.6690 C   0  0  0  0  0  0  0  0  0  0  0  0
   23.9590  -12.4550  -17.2056 C   0  0  2  0  0  0  0  0  0  0  0  0
   23.5013  -13.8398  -17.1248 N   0  0  0  0  0  0  0  0  0  0  0  0
   22.9259  -11.5508  -16.6177 C   0  0  0  0  0  0  0  0  0  0  0  0
   21.7951  -11.5036  -17.1549 O   0  0  0  0  0  0  0  0  0  0  0  0
   22.8559  -10.7084  -12.5742 C   0  0  0  0  0  0  0  0  0  0  0  0
   21.7633  -10.5429  -13.6072 C   0  0  2  0  0  0  0  0  0  0  0  0
   21.0025  -11.8308  -13.8271 C   0  0  0  0  0  0  0  0  0  0  0  0
   22.1755   -9.8788  -14.8657 C   0  0  2  0  0  0  0  0  0  0  0  0
   23.1732  -10.7551  -15.4907 N   0  0  0  0  0  0  0  0  0  0  0  0
   22.6168   -8.4980  -14.8039 C   0  0  0  0  0  0  0  0  0  0  0  0
   23.8092   -8.2889  -14.3841 O   0  0  0  0  0  0  0  0  0  0  0  0
   21.8966   -7.3449  -15.1500 N   0  0  0  0  0  0  0  0  0  0  0  0
   22.4185   -5.9731  -14.9608 C   0  0  1  0  0  0  0  0  0  0  0  0
   21.8727   -5.2029  -16.1302 C   0  0  0  0  0  0  0  0  0  0  0  0
   22.1757   -3.7779  -16.1390 C   0  0  0  0  0  0  0  0  0  0  0  0
   23.2496   -3.4320  -15.5413 O   0  0  0  0  0  0  0  0  0  0  0  0
   21.7828   -5.4020  -13.7182 C   0  0  0  0  0  0  0  0  0  0  0  0
   22.3351   -4.3005  -13.0792 O   0  0  0  0  0  0  0  0  0  0  0  0
   21.4472   -2.7614  -16.7102 O   0  0  0  0  0  0  0  0  0  0  0  0
   20.7470   -5.8989  -13.2291 O   0  0  0  0  0  0  0  0  0  0  0  0
  2  1  1  0
  3  2  1  0
  4  3  1  0
  5  4  1  0
  5  7  1  0
  5  6  1  6
  7 13  1  0
  8  7  2  0
 10  9  1  1
 10 12  1  0
 10 11  1  0
 12 14  1  0
 12 13  1  1
 14 15  2  0
 16 14  1  0
 16 17  1  0
 17 21  1  0
 17 18  1  6
 19 18  1  0
 20 19  2  0
 21 24  2  0
 21 22  1  0
 23 19  1  0
M  END
$$$$
