MVD.pdb
     RDKit          3D

 24 23  0  0  1  0  0  0  0  0999 V2000
   24.7986   -9.5682  -22.3561 C   0  0  0  0  0  0  0  0  0  0  0  0
   25.4746  -11.1867  -21.8811 S   0  0  0  0  0  0  0  0  0  0  0  0
   24.1202  -12.1747  -21.2016 C   0  0  0  0  0  0  0  0  0  0  0  0
   23.2565  -11.3722  -20.2529 C   0  0  0  0  0  0  0  0  0  0  0  0
   23.1126  -12.1616  -18.9754 C   0  0  2  0  0  0  0  0  0  0  0  0
   22.4531  -13.4156  -19.3307 N   0  0  0  0  0  0  0  0  0  0  0  0
   22.2792  -11.4214  -17.9815 C   0  0  0  0  0  0  0  0  0  0  0  0
   21.0321  -11.5077  -18.0623 O   0  0  0  0  0  0  0  0  0  0  0  0
   22.7485  -11.7738  -14.3218 C   0  0  0  0  0  0  0  0  0  0  0  0
   22.6794  -10.2949  -14.6321 C   0  0  2  0  0  0  0  0  0  0  0  0
   22.1257   -9.5050  -13.4679 C   0  0  0  0  0  0  0  0  0  0  0  0
   22.0563   -9.9476  -15.9305 C   0  0  2  0  0  0  0  0  0  0  0  0
   22.8384  -10.6358  -16.9642 N   0  0  0  0  0  0  0  0  0  0  0  0
   21.8459   -8.5460  -16.2410 C   0  0  0  0  0  0  0  0  0  0  0  0
   22.8924   -7.8201  -16.3823 O   0  0  0  0  0  0  0  0  0  0  0  0
   20.6269   -7.8724  -16.4097 N   0  0  0  0  0  0  0  0  0  0  0  0
   20.5315   -6.4245  -16.7004 C   0  0  1  0  0  0  0  0  0  0  0  0
   19.1518   -6.2494  -17.2697 C   0  0  0  0  0  0  0  0  0  0  0  0
   18.7613   -4.8754  -17.5564 C   0  0  0  0  0  0  0  0  0  0  0  0
   19.6546   -3.9868  -17.3502 O   0  0  0  0  0  0  0  0  0  0  0  0
   20.5664   -5.6842  -15.3869 C   0  0  0  0  0  0  0  0  0  0  0  0
   20.5368   -6.3724  -14.1820 O   0  0  0  0  0  0  0  0  0  0  0  0
   17.5502   -4.4191  -18.0200 O   0  0  0  0  0  0  0  0  0  0  0  0
   20.6227   -4.4376  -15.3431 O   0  0  0  0  0  0  0  0  0  0  0  0
  2  1  1  0
  3  2  1  0
  4  3  1  0
  5  4  1  0
  5  7  1  0
  5  6  1  6
  7 13  1  0
  8  7  2  0
 10  9  1  1
 10 12  1  0
 10 11  1  0
 12 14  1  0
 12 13  1  6
 14 15  2  0
 16 14  1  0
 16 17  1  0
 17 21  1  0
 17 18  1  1
 19 18  1  0
 20 19  2  0
 21 24  2  0
 21 22  1  0
 23 19  1  0
M  END
$$$$
