MVD.pdb
     RDKit          3D

 24 23  0  0  1  0  0  0  0  0999 V2000
   20.8606  -21.2568   -9.2769 C   0  0  0  0  0  0  0  0  0  0  0  0
   21.7575  -21.0946   -7.7048 S   0  0  0  0  0  0  0  0  0  0  0  0
   23.5285  -21.1419   -8.0703 C   0  0  0  0  0  0  0  0  0  0  0  0
   23.8576  -20.4279   -9.3633 C   0  0  0  0  0  0  0  0  0  0  0  0
   25.3071  -20.6946   -9.6851 C   0  0  2  0  0  0  0  0  0  0  0  0
   26.0895  -20.1350   -8.5857 N   0  0  0  0  0  0  0  0  0  0  0  0
   25.6998  -20.0347  -10.9660 C   0  0  0  0  0  0  0  0  0  0  0  0
   26.0307  -18.8267  -10.9410 O   0  0  0  0  0  0  0  0  0  0  0  0
   28.4460  -21.1465  -13.0228 C   0  0  0  0  0  0  0  0  0  0  0  0
   27.2618  -20.9973  -13.9522 C   0  0  2  0  0  0  0  0  0  0  0  0
   27.6965  -20.6728  -15.3634 C   0  0  0  0  0  0  0  0  0  0  0  0
   26.1714  -20.1259  -13.4555 C   0  0  2  0  0  0  0  0  0  0  0  0
   25.7121  -20.7142  -12.1918 N   0  0  0  0  0  0  0  0  0  0  0  0
   25.0724  -19.8185  -14.3515 C   0  0  0  0  0  0  0  0  0  0  0  0
   24.2340  -20.7591  -14.5843 O   0  0  0  0  0  0  0  0  0  0  0  0
   24.8045  -18.6066  -15.0055 N   0  0  0  0  0  0  0  0  0  0  0  0
   23.6692  -18.4187  -15.9360 C   0  0  1  0  0  0  0  0  0  0  0  0
   23.7395  -16.9675  -16.3204 C   0  0  0  0  0  0  0  0  0  0  0  0
   22.7371  -16.5236  -17.2799 C   0  0  0  0  0  0  0  0  0  0  0  0
   21.8582  -17.3890  -17.6094 O   0  0  0  0  0  0  0  0  0  0  0  0
   23.9518  -19.2213  -17.1811 C   0  0  0  0  0  0  0  0  0  0  0  0
   22.9523  -19.9706  -17.7861 O   0  0  0  0  0  0  0  0  0  0  0  0
   22.6226  -15.2890  -17.8738 O   0  0  0  0  0  0  0  0  0  0  0  0
   25.0862  -19.2365  -17.7028 O   0  0  0  0  0  0  0  0  0  0  0  0
  2  1  1  0
  3  2  1  0
  4  3  1  0
  5  4  1  0
  5  7  1  0
  5  6  1  1
  7 13  1  0
  8  7  2  0
 10  9  1  1
 10 12  1  0
 10 11  1  0
 12 14  1  0
 12 13  1  1
 14 15  2  0
 16 14  1  0
 16 17  1  0
 17 21  1  0
 17 18  1  6
 19 18  1  0
 20 19  2  0
 21 24  2  0
 21 22  1  0
 23 19  1  0
M  END
$$$$
