HAS.pdb
     RDKit          3D

 22 22  0  0  1  0  0  0  0  0999 V2000
   18.8862  -12.2835  -16.7270 N   0  0  0  0  0  0  0  0  0  0  0  0
   18.1580  -11.1039  -16.3495 C   0  0  1  0  0  0  0  0  0  0  0  0
   17.5240  -11.2369  -14.9954 C   0  0  0  0  0  0  0  0  0  0  0  0
   16.4812  -12.3059  -15.0536 C   0  0  0  0  0  0  0  0  0  0  0  0
   15.2977  -12.2625  -15.7658 C   0  0  0  0  0  0  0  0  0  0  0  0
   14.6519  -13.4155  -15.5493 N   0  0  0  0  0  0  0  0  0  0  0  0
   15.3996  -14.1694  -14.7257 C   0  0  0  0  0  0  0  0  0  0  0  0
   16.5153  -13.4796  -14.4301 N   0  0  0  0  0  0  0  0  0  0  0  0
   19.0697   -9.9105  -16.3341 C   0  0  0  0  0  0  0  0  0  0  0  0
   20.0603   -9.8488  -15.5654 O   0  0  0  0  0  0  0  0  0  0  0  0
   19.4780   -6.7587  -18.3973 C   0  0  0  0  0  0  0  0  0  0  0  0
   19.7496   -7.6779  -17.2311 C   0  0  2  0  0  0  0  0  0  0  0  0
   18.8535   -8.7972  -17.1880 N   0  0  0  0  0  0  0  0  0  0  0  0
   19.8451   -6.9603  -15.9514 C   0  0  0  0  0  0  0  0  0  0  0  0
   18.8312   -6.8430  -15.2360 O   0  0  0  0  0  0  0  0  0  0  0  0
   22.5777   -7.3553  -13.4383 O   0  0  0  0  0  0  0  0  0  0  0  0
   21.3284   -6.7721  -13.1859 C   0  0  0  0  0  0  0  0  0  0  0  0
   21.1131   -5.7141  -14.2569 C   0  0  2  0  0  0  0  0  0  0  0  0
   21.0622   -6.4069  -15.5268 N   0  0  0  0  0  0  0  0  0  0  0  0
   22.2377   -4.7584  -14.2887 C   0  0  0  0  0  0  0  0  0  0  0  0
   22.9449   -4.6775  -15.3175 O   0  0  0  0  0  0  0  0  0  0  0  0
   22.5449   -3.9394  -13.2155 O   0  0  0  0  0  0  0  0  0  0  0  0
  2  1  1  1
  2  9  1  0
  2  3  1  0
  3  4  1  0
  4  5  2  0
  4  8  1  0
  5  6  1  0
  6  7  1  0
  8  7  2  0
  9 10  2  0
  9 13  1  0
 12 11  1  6
 12 14  1  0
 13 12  1  0
 14 15  2  0
 14 19  1  0
 16 17  1  0
 18 20  1  0
 18 17  1  1
 19 18  1  0
 20 22  1  0
 21 20  2  0
M  END
$$$$
