HAS.pdb
     RDKit          3D

 22 22  0  0  1  0  0  0  0  0999 V2000
   19.0783  -12.2310  -17.7214 N   0  0  0  0  0  0  0  0  0  0  0  0
   19.1323  -11.7949  -16.3535 C   0  0  1  0  0  0  0  0  0  0  0  0
   20.1693  -12.5368  -15.5614 C   0  0  0  0  0  0  0  0  0  0  0  0
   19.7809  -13.9782  -15.4884 C   0  0  0  0  0  0  0  0  0  0  0  0
   18.6384  -14.5499  -16.0154 C   0  0  0  0  0  0  0  0  0  0  0  0
   18.6722  -15.8582  -15.7318 N   0  0  0  0  0  0  0  0  0  0  0  0
   19.7996  -16.1123  -15.0463 C   0  0  0  0  0  0  0  0  0  0  0  0
   20.4685  -14.9545  -14.9041 N   0  0  0  0  0  0  0  0  0  0  0  0
   19.4407  -10.3266  -16.2858 C   0  0  0  0  0  0  0  0  0  0  0  0
   20.4130   -9.8290  -16.9047 O   0  0  0  0  0  0  0  0  0  0  0  0
   17.6681   -7.2345  -15.0573 C   0  0  0  0  0  0  0  0  0  0  0  0
   18.8765   -8.0176  -15.5101 C   0  0  2  0  0  0  0  0  0  0  0  0
   18.6472   -9.4336  -15.5189 N   0  0  0  0  0  0  0  0  0  0  0  0
   20.1038   -7.6322  -14.7981 C   0  0  0  0  0  0  0  0  0  0  0  0
   20.4179   -8.2275  -13.7492 O   0  0  0  0  0  0  0  0  0  0  0  0
   22.4634   -4.6962  -16.2740 O   0  0  0  0  0  0  0  0  0  0  0  0
   23.1217   -5.7353  -15.6021 C   0  0  0  0  0  0  0  0  0  0  0  0
   22.1437   -6.2827  -14.5742 C   0  0  2  0  0  0  0  0  0  0  0  0
   20.9241   -6.6035  -15.2848 N   0  0  0  0  0  0  0  0  0  0  0  0
   21.8350   -5.2689  -13.5466 C   0  0  0  0  0  0  0  0  0  0  0  0
   22.7227   -4.9307  -12.7325 O   0  0  0  0  0  0  0  0  0  0  0  0
   20.5905   -4.6709  -13.4459 O   0  0  0  0  0  0  0  0  0  0  0  0
  2  1  1  6
  2  9  1  0
  2  3  1  0
  3  4  1  0
  4  5  2  0
  4  8  1  0
  5  6  1  0
  6  7  1  0
  8  7  2  0
  9 10  2  0
  9 13  1  0
 12 11  1  1
 12 14  1  0
 13 12  1  0
 14 15  2  0
 14 19  1  0
 16 17  1  0
 18 20  1  0
 18 17  1  6
 19 18  1  0
 20 22  1  0
 21 20  2  0
M  END
$$$$
