HAS.pdb
     RDKit          3D

 22 22  0  0  1  0  0  0  0  0999 V2000
   17.8684  -11.1702  -17.9177 N   0  0  0  0  0  0  0  0  0  0  0  0
   18.2652  -10.7939  -16.5891 C   0  0  1  0  0  0  0  0  0  0  0  0
   19.3426  -11.6860  -16.0443 C   0  0  0  0  0  0  0  0  0  0  0  0
   18.8133  -13.0806  -15.9513 C   0  0  0  0  0  0  0  0  0  0  0  0
   17.7996  -13.5220  -15.1222 C   0  0  0  0  0  0  0  0  0  0  0  0
   17.6334  -14.8316  -15.3473 N   0  0  0  0  0  0  0  0  0  0  0  0
   18.5126  -15.2126  -16.2893 C   0  0  0  0  0  0  0  0  0  0  0  0
   19.2281  -14.1327  -16.6501 N   0  0  0  0  0  0  0  0  0  0  0  0
   18.7661   -9.3781  -16.5755 C   0  0  0  0  0  0  0  0  0  0  0  0
   19.6989   -9.0026  -17.3270 O   0  0  0  0  0  0  0  0  0  0  0  0
   17.5200   -6.0948  -15.2384 C   0  0  0  0  0  0  0  0  0  0  0  0
   18.5896   -7.0176  -15.7705 C   0  0  2  0  0  0  0  0  0  0  0  0
   18.2080   -8.3991  -15.7122 N   0  0  0  0  0  0  0  0  0  0  0  0
   19.9115   -6.7547  -15.1830 C   0  0  0  0  0  0  0  0  0  0  0  0
   20.3162   -7.4621  -14.2401 O   0  0  0  0  0  0  0  0  0  0  0  0
   24.0389   -4.3433  -15.4759 O   0  0  0  0  0  0  0  0  0  0  0  0
   22.7488   -4.5074  -15.9987 C   0  0  0  0  0  0  0  0  0  0  0  0
   22.0738   -5.5900  -15.1710 C   0  0  2  0  0  0  0  0  0  0  0  0
   20.7214   -5.7183  -15.6708 N   0  0  0  0  0  0  0  0  0  0  0  0
   22.0132   -5.2054  -13.7471 C   0  0  0  0  0  0  0  0  0  0  0  0
   22.9812   -5.4677  -12.9991 O   0  0  0  0  0  0  0  0  0  0  0  0
   20.9177   -4.5596  -13.1998 O   0  0  0  0  0  0  0  0  0  0  0  0
  2  1  1  6
  2  9  1  0
  2  3  1  0
  3  4  1  0
  4  5  2  0
  4  8  1  0
  5  6  1  0
  6  7  1  0
  8  7  2  0
  9 10  2  0
  9 13  1  0
 12 11  1  1
 12 14  1  0
 13 12  1  0
 14 15  2  0
 14 19  1  0
 16 17  1  0
 18 20  1  0
 18 17  1  6
 19 18  1  0
 20 22  1  0
 21 20  2  0
M  END
$$$$
