HAS.pdb
     RDKit          3D

 22 22  0  0  1  0  0  0  0  0999 V2000
   42.5546  -10.9792   -7.8407 N   0  0  0  0  0  0  0  0  0  0  0  0
   41.5812  -10.4989   -6.8993 C   0  0  1  0  0  0  0  0  0  0  0  0
   41.8882   -9.1083   -6.4249 C   0  0  0  0  0  0  0  0  0  0  0  0
   43.1090   -9.1505   -5.5638 C   0  0  0  0  0  0  0  0  0  0  0  0
   43.8316  -10.2759   -5.2159 C   0  0  0  0  0  0  0  0  0  0  0  0
   44.8466   -9.8810   -4.4368 N   0  0  0  0  0  0  0  0  0  0  0  0
   44.7733   -8.5470   -4.2927 C   0  0  0  0  0  0  0  0  0  0  0  0
   43.7066   -8.1127   -4.9866 N   0  0  0  0  0  0  0  0  0  0  0  0
   40.2124  -10.5007   -7.5173 C   0  0  0  0  0  0  0  0  0  0  0  0
   40.0445  -10.3038   -8.7458 O   0  0  0  0  0  0  0  0  0  0  0  0
   36.6919  -11.3378   -6.4340 C   0  0  0  0  0  0  0  0  0  0  0  0
   37.7268  -10.6650   -7.3029 C   0  0  2  0  0  0  0  0  0  0  0  0
   39.0453  -10.7253   -6.7411 N   0  0  0  0  0  0  0  0  0  0  0  0
   37.3312   -9.3096   -7.7127 C   0  0  0  0  0  0  0  0  0  0  0  0
   36.3015   -9.1507   -8.3967 O   0  0  0  0  0  0  0  0  0  0  0  0
   39.1452   -6.2315   -6.0459 O   0  0  0  0  0  0  0  0  0  0  0  0
   37.8634   -5.9607   -6.5442 C   0  0  0  0  0  0  0  0  0  0  0  0
   37.6554   -6.8751   -7.7414 C   0  0  2  0  0  0  0  0  0  0  0  0
   38.0983   -8.1945   -7.3435 N   0  0  0  0  0  0  0  0  0  0  0  0
   38.4697   -6.4338   -8.8908 C   0  0  0  0  0  0  0  0  0  0  0  0
   39.4649   -7.1104   -9.2333 O   0  0  0  0  0  0  0  0  0  0  0  0
   38.1742   -5.2901   -9.6129 O   0  0  0  0  0  0  0  0  0  0  0  0
  2  1  1  6
  2  9  1  0
  2  3  1  0
  3  4  1  0
  4  5  2  0
  4  8  1  0
  5  6  1  0
  6  7  1  0
  8  7  2  0
  9 10  2  0
  9 13  1  0
 12 11  1  1
 12 14  1  0
 13 12  1  0
 14 15  2  0
 14 19  1  0
 16 17  1  0
 18 20  1  0
 18 17  1  1
 19 18  1  0
 20 22  1  0
 21 20  2  0
M  END
$$$$
