HAS.pdb
     RDKit          3D

 22 22  0  0  1  0  0  0  0  0999 V2000
   19.2495  -11.5032  -18.4120 N   0  0  0  0  0  0  0  0  0  0  0  0
   18.9746  -10.8461  -17.1643 C   0  0  1  0  0  0  0  0  0  0  0  0
   19.6268  -11.5377  -16.0026 C   0  0  0  0  0  0  0  0  0  0  0  0
   18.9791  -12.8706  -15.8087 C   0  0  0  0  0  0  0  0  0  0  0  0
   19.5334  -14.1038  -16.0948 C   0  0  0  0  0  0  0  0  0  0  0  0
   18.6285  -15.0383  -15.7770 N   0  0  0  0  0  0  0  0  0  0  0  0
   17.5329  -14.4208  -15.3036 C   0  0  0  0  0  0  0  0  0  0  0  0
   17.7602  -13.0957  -15.3282 N   0  0  0  0  0  0  0  0  0  0  0  0
   19.4578   -9.4247  -17.2056 C   0  0  0  0  0  0  0  0  0  0  0  0
   20.6666   -9.1456  -17.3980 O   0  0  0  0  0  0  0  0  0  0  0  0
   17.8947   -5.9784  -17.1581 C   0  0  0  0  0  0  0  0  0  0  0  0
   19.0232   -6.9701  -17.0115 C   0  0  2  0  0  0  0  0  0  0  0  0
   18.5701   -8.3310  -17.0291 N   0  0  0  0  0  0  0  0  0  0  0  0
   19.9040   -6.6656  -15.8744 C   0  0  0  0  0  0  0  0  0  0  0  0
   19.6762   -7.1852  -14.7647 O   0  0  0  0  0  0  0  0  0  0  0  0
   24.0664   -5.0533  -14.3059 O   0  0  0  0  0  0  0  0  0  0  0  0
   23.2628   -5.3970  -15.4016 C   0  0  0  0  0  0  0  0  0  0  0  0
   21.8408   -5.5294  -14.8790 C   0  0  2  0  0  0  0  0  0  0  0  0
   20.9964   -5.7982  -16.0236 N   0  0  0  0  0  0  0  0  0  0  0  0
   21.3906   -4.2728  -14.2487 C   0  0  0  0  0  0  0  0  0  0  0  0
   20.7603   -3.4354  -14.9319 O   0  0  0  0  0  0  0  0  0  0  0  0
   21.6399   -3.9800  -12.9188 O   0  0  0  0  0  0  0  0  0  0  0  0
  2  1  1  6
  2  9  1  0
  2  3  1  0
  3  4  1  0
  4  5  2  0
  4  8  1  0
  5  6  1  0
  6  7  1  0
  8  7  2  0
  9 10  2  0
  9 13  1  0
 12 11  1  1
 12 14  1  0
 13 12  1  0
 14 15  2  0
 14 19  1  0
 16 17  1  0
 18 20  1  0
 18 17  1  6
 19 18  1  0
 20 22  1  0
 21 20  2  0
M  END
$$$$
