HAS.pdb
     RDKit          3D

 22 22  0  0  1  0  0  0  0  0999 V2000
   18.7966  -12.5341  -16.2307 N   0  0  0  0  0  0  0  0  0  0  0  0
   19.0731  -11.3977  -17.0653 C   0  0  1  0  0  0  0  0  0  0  0  0
   17.8207  -10.6889  -17.4923 C   0  0  0  0  0  0  0  0  0  0  0  0
   17.0378  -11.5911  -18.3905 C   0  0  0  0  0  0  0  0  0  0  0  0
   16.9230  -11.4868  -19.7638 C   0  0  0  0  0  0  0  0  0  0  0  0
   16.1358  -12.4863  -20.1816 N   0  0  0  0  0  0  0  0  0  0  0  0
   15.7609  -13.2044  -19.1095 C   0  0  0  0  0  0  0  0  0  0  0  0
   16.3192  -12.6466  -18.0207 N   0  0  0  0  0  0  0  0  0  0  0  0
   19.9514  -10.4190  -16.3399 C   0  0  0  0  0  0  0  0  0  0  0  0
   19.6753  -10.0190  -15.1824 O   0  0  0  0  0  0  0  0  0  0  0  0
   23.3563   -8.8680  -16.8719 C   0  0  0  0  0  0  0  0  0  0  0  0
   21.9843   -8.9663  -16.2502 C   0  0  2  0  0  0  0  0  0  0  0  0
   21.1342   -9.9009  -16.9295 N   0  0  0  0  0  0  0  0  0  0  0  0
   21.3570   -7.6523  -16.0459 C   0  0  0  0  0  0  0  0  0  0  0  0
   20.4733   -7.2644  -16.8346 O   0  0  0  0  0  0  0  0  0  0  0  0
   19.1971   -4.5952  -13.7903 O   0  0  0  0  0  0  0  0  0  0  0  0
   19.7268   -5.8325  -14.1815 C   0  0  0  0  0  0  0  0  0  0  0  0
   21.0865   -5.5519  -14.8020 C   0  0  2  0  0  0  0  0  0  0  0  0
   21.7409   -6.8314  -14.9751 N   0  0  0  0  0  0  0  0  0  0  0  0
   21.9138   -4.7192  -13.9068 C   0  0  0  0  0  0  0  0  0  0  0  0
   22.7149   -5.2725  -13.1211 O   0  0  0  0  0  0  0  0  0  0  0  0
   21.8387   -3.3368  -13.9011 O   0  0  0  0  0  0  0  0  0  0  0  0
  2  1  1  1
  2  9  1  0
  2  3  1  0
  3  4  1  0
  4  5  2  0
  4  8  1  0
  5  6  1  0
  6  7  1  0
  8  7  2  0
  9 10  2  0
  9 13  1  0
 12 11  1  6
 12 14  1  0
 13 12  1  0
 14 15  2  0
 14 19  1  0
 16 17  1  0
 18 20  1  0
 18 17  1  1
 19 18  1  0
 20 22  1  0
 21 20  2  0
M  END
$$$$
