HAS.pdb
     RDKit          3D

 22 22  0  0  1  0  0  0  0  0999 V2000
   17.3413  -11.0015  -16.0332 N   0  0  0  0  0  0  0  0  0  0  0  0
   18.3447  -10.3834  -16.8549 C   0  0  1  0  0  0  0  0  0  0  0  0
   17.7470   -9.5374  -17.9413 C   0  0  0  0  0  0  0  0  0  0  0  0
   16.9944  -10.4214  -18.8825 C   0  0  0  0  0  0  0  0  0  0  0  0
   17.4339  -10.8790  -20.1102 C   0  0  0  0  0  0  0  0  0  0  0  0
   16.4623  -11.6395  -20.6306 N   0  0  0  0  0  0  0  0  0  0  0  0
   15.4367  -11.6658  -19.7628 C   0  0  0  0  0  0  0  0  0  0  0  0
   15.7747  -10.9172  -18.6982 N   0  0  0  0  0  0  0  0  0  0  0  0
   19.2447   -9.5197  -16.0184 C   0  0  0  0  0  0  0  0  0  0  0  0
   18.7836   -8.6970  -15.1898 O   0  0  0  0  0  0  0  0  0  0  0  0
   22.9614   -9.2489  -15.3614 C   0  0  0  0  0  0  0  0  0  0  0  0
   21.5315   -8.7652  -15.3458 C   0  0  2  0  0  0  0  0  0  0  0  0
   20.6583   -9.5936  -16.1260 N   0  0  0  0  0  0  0  0  0  0  0  0
   21.4115   -7.3345  -15.6623 C   0  0  0  0  0  0  0  0  0  0  0  0
   20.9445   -6.9863  -16.7642 O   0  0  0  0  0  0  0  0  0  0  0  0
   19.8262   -3.4053  -15.2479 O   0  0  0  0  0  0  0  0  0  0  0  0
   20.0616   -4.7651  -15.0028 C   0  0  0  0  0  0  0  0  0  0  0  0
   21.5689   -4.9636  -15.0402 C   0  0  2  0  0  0  0  0  0  0  0  0
   21.8160   -6.3579  -14.7399 N   0  0  0  0  0  0  0  0  0  0  0  0
   22.2360   -4.1376  -14.0147 C   0  0  0  0  0  0  0  0  0  0  0  0
   22.5596   -4.6573  -12.9236 O   0  0  0  0  0  0  0  0  0  0  0  0
   22.5212   -2.7974  -14.2129 O   0  0  0  0  0  0  0  0  0  0  0  0
  2  1  1  1
  2  9  1  0
  2  3  1  0
  3  4  1  0
  4  5  2  0
  4  8  1  0
  5  6  1  0
  6  7  1  0
  8  7  2  0
  9 10  2  0
  9 13  1  0
 12 11  1  6
 12 14  1  0
 13 12  1  0
 14 15  2  0
 14 19  1  0
 16 17  1  0
 18 20  1  0
 18 17  1  1
 19 18  1  0
 20 22  1  0
 21 20  2  0
M  END
$$$$
