HAS.pdb
     RDKit          3D

 22 22  0  0  1  0  0  0  0  0999 V2000
   20.7849  -12.3490  -17.3372 N   0  0  0  0  0  0  0  0  0  0  0  0
   19.8258  -11.3014  -17.1210 C   0  0  1  0  0  0  0  0  0  0  0  0
   19.1004  -11.4561  -15.8160 C   0  0  0  0  0  0  0  0  0  0  0  0
   18.2755  -12.7014  -15.8670 C   0  0  0  0  0  0  0  0  0  0  0  0
   17.0771  -12.8673  -16.5349 C   0  0  0  0  0  0  0  0  0  0  0  0
   16.6688  -14.1258  -16.3280 N   0  0  0  0  0  0  0  0  0  0  0  0
   17.5775  -14.7420  -15.5534 C   0  0  0  0  0  0  0  0  0  0  0  0
   18.5547  -13.8603  -15.2785 N   0  0  0  0  0  0  0  0  0  0  0  0
   20.5047   -9.9617  -17.1334 C   0  0  0  0  0  0  0  0  0  0  0  0
   21.5364   -9.7403  -16.4533 O   0  0  0  0  0  0  0  0  0  0  0  0
   20.0863   -6.6757  -18.9755 C   0  0  0  0  0  0  0  0  0  0  0  0
   20.6034   -7.5780  -17.8813 C   0  0  2  0  0  0  0  0  0  0  0  0
   20.0112   -8.8841  -17.9147 N   0  0  0  0  0  0  0  0  0  0  0  0
   20.5500   -6.9495  -16.5532 C   0  0  0  0  0  0  0  0  0  0  0  0
   19.7002   -7.3331  -15.7260 O   0  0  0  0  0  0  0  0  0  0  0  0
   21.9641   -5.8886  -12.6537 O   0  0  0  0  0  0  0  0  0  0  0  0
   21.8221   -6.4761  -13.9183 C   0  0  0  0  0  0  0  0  0  0  0  0
   21.3916   -5.3710  -14.8702 C   0  0  2  0  0  0  0  0  0  0  0  0
   21.4431   -5.9247  -16.2066 N   0  0  0  0  0  0  0  0  0  0  0  0
   22.3184   -4.2241  -14.8016 C   0  0  0  0  0  0  0  0  0  0  0  0
   22.3612   -3.5316  -13.7605 O   0  0  0  0  0  0  0  0  0  0  0  0
   23.1507   -3.8799  -15.8530 O   0  0  0  0  0  0  0  0  0  0  0  0
  2  1  1  1
  2  9  1  0
  2  3  1  0
  3  4  1  0
  4  5  2  0
  4  8  1  0
  5  6  1  0
  6  7  1  0
  8  7  2  0
  9 10  2  0
  9 13  1  0
 12 11  1  6
 12 14  1  0
 13 12  1  0
 14 15  2  0
 14 19  1  0
 16 17  1  0
 18 20  1  0
 18 17  1  1
 19 18  1  0
 20 22  1  0
 21 20  2  0
M  END
$$$$
