HAS.pdb
     RDKit          3D

 22 22  0  0  1  0  0  0  0  0999 V2000
   25.6560  -11.1725  -18.4750 N   0  0  0  0  0  0  0  0  0  0  0  0
   25.3611  -10.8829  -17.0990 C   0  0  1  0  0  0  0  0  0  0  0  0
   26.5495  -10.3293  -16.3679 C   0  0  0  0  0  0  0  0  0  0  0  0
   27.5964  -11.3918  -16.2740 C   0  0  0  0  0  0  0  0  0  0  0  0
   28.8273  -11.3914  -16.9021 C   0  0  0  0  0  0  0  0  0  0  0  0
   29.4588  -12.5207  -16.5567 N   0  0  0  0  0  0  0  0  0  0  0  0
   28.6563  -13.2183  -15.7352 C   0  0  0  0  0  0  0  0  0  0  0  0
   27.5208  -12.5172  -15.5704 N   0  0  0  0  0  0  0  0  0  0  0  0
   24.2378   -9.8906  -17.0038 C   0  0  0  0  0  0  0  0  0  0  0  0
   24.1728   -8.8948  -17.7655 O   0  0  0  0  0  0  0  0  0  0  0  0
   20.9652   -9.6251  -15.1221 C   0  0  0  0  0  0  0  0  0  0  0  0
   22.1121   -9.1001  -15.9514 C   0  0  2  0  0  0  0  0  0  0  0  0
   23.1977  -10.0327  -16.0482 N   0  0  0  0  0  0  0  0  0  0  0  0
   22.5379   -7.7528  -15.5450 C   0  0  0  0  0  0  0  0  0  0  0  0
   23.5399   -7.6192  -14.8160 O   0  0  0  0  0  0  0  0  0  0  0  0
   22.2666   -3.0697  -16.3637 O   0  0  0  0  0  0  0  0  0  0  0  0
   21.7083   -4.3288  -16.6241 C   0  0  0  0  0  0  0  0  0  0  0  0
   22.3579   -5.3058  -15.6566 C   0  0  2  0  0  0  0  0  0  0  0  0
   21.8305   -6.6175  -15.9676 N   0  0  0  0  0  0  0  0  0  0  0  0
   22.0074   -4.9783  -14.2605 C   0  0  0  0  0  0  0  0  0  0  0  0
   20.9417   -5.4196  -13.7759 O   0  0  0  0  0  0  0  0  0  0  0  0
   22.8182   -4.1948  -13.4571 O   0  0  0  0  0  0  0  0  0  0  0  0
  2  1  1  6
  2  9  1  0
  2  3  1  0
  3  4  1  0
  4  5  2  0
  4  8  1  0
  5  6  1  0
  6  7  1  0
  8  7  2  0
  9 10  2  0
  9 13  1  0
 12 11  1  1
 12 14  1  0
 13 12  1  0
 14 15  2  0
 14 19  1  0
 16 17  1  0
 18 20  1  0
 18 17  1  6
 19 18  1  0
 20 22  1  0
 21 20  2  0
M  END
$$$$
