HAS.pdb
     RDKit          3D

 22 22  0  0  1  0  0  0  0  0999 V2000
   20.0261  -11.9069  -16.6804 N   0  0  0  0  0  0  0  0  0  0  0  0
   19.1852  -10.7550  -16.5067 C   0  0  1  0  0  0  0  0  0  0  0  0
   18.4122  -10.8049  -15.2209 C   0  0  0  0  0  0  0  0  0  0  0  0
   17.4248  -11.9244  -15.2946 C   0  0  0  0  0  0  0  0  0  0  0  0
   16.8600  -12.4489  -16.4417 C   0  0  0  0  0  0  0  0  0  0  0  0
   16.0314  -13.4336  -16.0717 N   0  0  0  0  0  0  0  0  0  0  0  0
   16.0668  -13.5336  -14.7321 C   0  0  0  0  0  0  0  0  0  0  0  0
   16.9224  -12.6053  -14.2693 N   0  0  0  0  0  0  0  0  0  0  0  0
   20.0104   -9.5002  -16.5186 C   0  0  0  0  0  0  0  0  0  0  0  0
   20.9592   -9.3286  -15.7147 O   0  0  0  0  0  0  0  0  0  0  0  0
   20.3470   -6.4478  -18.7233 C   0  0  0  0  0  0  0  0  0  0  0  0
   20.5161   -7.2339  -17.4458 C   0  0  2  0  0  0  0  0  0  0  0  0
   19.7556   -8.4502  -17.4394 N   0  0  0  0  0  0  0  0  0  0  0  0
   20.3117   -6.4145  -16.2423 C   0  0  0  0  0  0  0  0  0  0  0  0
   19.1908   -6.3918  -15.6979 O   0  0  0  0  0  0  0  0  0  0  0  0
   22.1253   -6.4801  -13.0770 O   0  0  0  0  0  0  0  0  0  0  0  0
   22.2966   -5.1758  -13.5610 C   0  0  0  0  0  0  0  0  0  0  0  0
   21.1278   -4.8960  -14.4928 C   0  0  2  0  0  0  0  0  0  0  0  0
   21.3622   -5.6588  -15.7005 N   0  0  0  0  0  0  0  0  0  0  0  0
   21.0656   -3.4643  -14.8469 C   0  0  0  0  0  0  0  0  0  0  0  0
   21.4289   -3.0981  -15.9867 O   0  0  0  0  0  0  0  0  0  0  0  0
   20.6172   -2.5003  -13.9602 O   0  0  0  0  0  0  0  0  0  0  0  0
  2  1  1  1
  2  9  1  0
  2  3  1  0
  3  4  1  0
  4  5  2  0
  4  8  1  0
  5  6  1  0
  6  7  1  0
  8  7  2  0
  9 10  2  0
  9 13  1  0
 12 11  1  6
 12 14  1  0
 13 12  1  0
 14 15  2  0
 14 19  1  0
 16 17  1  0
 18 20  1  0
 18 17  1  1
 19 18  1  0
 20 22  1  0
 21 20  2  0
M  END
$$$$
