HAS.pdb
     RDKit          3D

 22 22  0  0  1  0  0  0  0  0999 V2000
   24.6855  -12.3843  -18.3596 N   0  0  0  0  0  0  0  0  0  0  0  0
   24.1874  -12.0457  -17.0552 C   0  0  1  0  0  0  0  0  0  0  0  0
   25.2715  -12.0409  -16.0170 C   0  0  0  0  0  0  0  0  0  0  0  0
   25.8321  -13.4213  -15.8981 C   0  0  0  0  0  0  0  0  0  0  0  0
   25.4452  -14.5315  -16.6243 C   0  0  0  0  0  0  0  0  0  0  0  0
   26.1921  -15.5645  -16.2142 N   0  0  0  0  0  0  0  0  0  0  0  0
   27.0281  -15.1269  -15.2574 C   0  0  0  0  0  0  0  0  0  0  0  0
   26.7978  -13.8149  -15.0736 N   0  0  0  0  0  0  0  0  0  0  0  0
   23.5434  -10.6892  -17.0786 C   0  0  0  0  0  0  0  0  0  0  0  0
   24.1129   -9.6990  -17.5995 O   0  0  0  0  0  0  0  0  0  0  0  0
   20.0714   -9.3643  -16.4465 C   0  0  0  0  0  0  0  0  0  0  0  0
   21.5566   -9.2251  -16.6778 C   0  0  2  0  0  0  0  0  0  0  0  0
   22.2611  -10.4638  -16.5129 N   0  0  0  0  0  0  0  0  0  0  0  0
   22.1490   -8.1142  -15.9184 C   0  0  0  0  0  0  0  0  0  0  0  0
   22.6651   -8.3370  -14.8060 O   0  0  0  0  0  0  0  0  0  0  0  0
   23.6164   -3.5641  -15.9475 O   0  0  0  0  0  0  0  0  0  0  0  0
   22.9105   -4.5613  -16.6346 C   0  0  0  0  0  0  0  0  0  0  0  0
   22.8424   -5.7672  -15.7106 C   0  0  2  0  0  0  0  0  0  0  0  0
   22.1400   -6.8082  -16.4305 N   0  0  0  0  0  0  0  0  0  0  0  0
   22.0836   -5.4509  -14.4845 C   0  0  0  0  0  0  0  0  0  0  0  0
   22.6914   -5.0109  -13.4834 O   0  0  0  0  0  0  0  0  0  0  0  0
   20.7127   -5.6231  -14.3962 O   0  0  0  0  0  0  0  0  0  0  0  0
  2  1  1  6
  2  9  1  0
  2  3  1  0
  3  4  1  0
  4  5  2  0
  4  8  1  0
  5  6  1  0
  6  7  1  0
  8  7  2  0
  9 10  2  0
  9 13  1  0
 12 11  1  1
 12 14  1  0
 13 12  1  0
 14 15  2  0
 14 19  1  0
 16 17  1  0
 18 20  1  0
 18 17  1  6
 19 18  1  0
 20 22  1  0
 21 20  2  0
M  END
$$$$
