HAS.pdb
     RDKit          3D

 22 22  0  0  1  0  0  0  0  0999 V2000
   19.8678  -11.2342  -17.9338 N   0  0  0  0  0  0  0  0  0  0  0  0
   19.0783  -10.5083  -16.9779 C   0  0  1  0  0  0  0  0  0  0  0  0
   19.1905  -11.0827  -15.5956 C   0  0  0  0  0  0  0  0  0  0  0  0
   18.5816  -12.4476  -15.5891 C   0  0  0  0  0  0  0  0  0  0  0  0
   17.2366  -12.7477  -15.4866 C   0  0  0  0  0  0  0  0  0  0  0  0
   17.1152  -14.0809  -15.5198 N   0  0  0  0  0  0  0  0  0  0  0  0
   18.3431  -14.6134  -15.6396 C   0  0  0  0  0  0  0  0  0  0  0  0
   19.2307  -13.6041  -15.6809 N   0  0  0  0  0  0  0  0  0  0  0  0
   19.5064   -9.0695  -16.9327 C   0  0  0  0  0  0  0  0  0  0  0  0
   20.6877   -8.7424  -16.6615 O   0  0  0  0  0  0  0  0  0  0  0  0
   17.9033   -5.7079  -17.6594 C   0  0  0  0  0  0  0  0  0  0  0  0
   18.9931   -6.6348  -17.1778 C   0  0  2  0  0  0  0  0  0  0  0  0
   18.5953   -8.0129  -17.1945 N   0  0  0  0  0  0  0  0  0  0  0  0
   19.5728   -6.2128  -15.8942 C   0  0  0  0  0  0  0  0  0  0  0  0
   19.1772   -6.7429  -14.8378 O   0  0  0  0  0  0  0  0  0  0  0  0
   22.8400   -5.4576  -13.0706 O   0  0  0  0  0  0  0  0  0  0  0  0
   22.2320   -5.8641  -14.2663 C   0  0  0  0  0  0  0  0  0  0  0  0
   21.1303   -4.8586  -14.5628 C   0  0  2  0  0  0  0  0  0  0  0  0
   20.5646   -5.2219  -15.8447 N   0  0  0  0  0  0  0  0  0  0  0  0
   21.6763   -3.4907  -14.6618 C   0  0  0  0  0  0  0  0  0  0  0  0
   22.0198   -3.0468  -15.7799 O   0  0  0  0  0  0  0  0  0  0  0  0
   21.8254   -2.6705  -13.5565 O   0  0  0  0  0  0  0  0  0  0  0  0
  2  1  1  6
  2  9  1  0
  2  3  1  0
  3  4  1  0
  4  5  2  0
  4  8  1  0
  5  6  1  0
  6  7  1  0
  8  7  2  0
  9 10  2  0
  9 13  1  0
 12 11  1  1
 12 14  1  0
 13 12  1  0
 14 15  2  0
 14 19  1  0
 16 17  1  0
 18 20  1  0
 18 17  1  6
 19 18  1  0
 20 22  1  0
 21 20  2  0
M  END
$$$$
