KIP.pdb
     RDKit          3D

 25 25  0  0  1  0  0  0  0  0999 V2000
    9.0365  -15.2194   20.4744 N   0  0  0  0  0  0  0  0  0  0  0  0
    8.2810  -15.7858   21.5276 C   0  0  1  0  0  0  0  0  0  0  0  0
    8.4128  -17.2670   21.5978 C   0  0  0  0  0  0  0  0  0  0  0  0
    7.7291  -18.0545   20.5455 C   0  0  0  0  0  0  0  0  0  0  0  0
    8.1720  -17.8454   19.1359 C   0  0  0  0  0  0  0  0  0  0  0  0
    9.2759  -18.7374   18.6721 C   0  0  0  0  0  0  0  0  0  0  0  0
    8.8877  -19.8870   17.9172 N   0  0  0  0  0  0  0  0  0  0  0  0
    8.6363  -15.1679   22.8359 C   0  0  0  0  0  0  0  0  0  0  0  0
    9.8305  -14.7342   22.9462 O   0  0  0  0  0  0  0  0  0  0  0  0
    5.4291  -11.9331   25.6514 C   0  0  0  0  0  0  0  0  0  0  0  0
    6.6443  -12.6286   25.0397 C   0  0  0  0  0  0  0  0  0  0  0  0
    7.1018  -13.7760   25.8815 C   0  0  2  0  0  0  0  0  0  0  0  0
    7.4581  -13.3931   27.2955 C   0  0  0  0  0  0  0  0  0  0  0  0
    8.1914  -14.5304   25.1729 C   0  0  2  0  0  0  0  0  0  0  0  0
    7.7139  -15.0597   23.9090 N   0  0  0  0  0  0  0  0  0  0  0  0
    8.8992  -15.4708   26.0299 C   0  0  0  0  0  0  0  0  0  0  0  0
    8.4958  -16.6956   26.0651 O   0  0  0  0  0  0  0  0  0  0  0  0
   10.0143  -15.2133   26.8663 N   0  0  0  0  0  0  0  0  0  0  0  0
   10.6268  -13.9015   26.9738 C   0  0  0  0  0  0  0  0  0  0  0  0
   11.8294  -14.0620   27.9170 C   0  0  0  0  0  0  0  0  0  0  0  0
   11.3815  -15.2242   28.7454 C   0  0  0  0  0  0  0  0  0  0  0  0
   10.7751  -16.1457   27.6761 C   0  0  1  0  0  0  0  0  0  0  0  0
    9.9568  -17.1841   28.3425 C   0  0  0  0  0  0  0  0  0  0  0  0
   10.3026  -18.3477   28.4947 O   0  0  0  0  0  0  0  0  0  0  0  0
    8.7117  -16.7726   28.8176 O   0  0  0  0  0  0  0  0  0  0  0  0
  2  8  1  0
  2  1  1  6
  3  2  1  0
  4  3  1  0
  4  5  1  0
  6  7  1  0
  6  5  1  0
  8  9  2  0
 10 11  1  0
 11 12  1  0
 12 13  1  1
 14 12  1  0
 14 15  1  6
 15  8  1  0
 16 14  1  0
 17 16  2  0
 18 16  1  0
 18 22  1  0
 19 20  1  0
 19 18  1  0
 20 21  1  0
 21 22  1  0
 22 23  1  1
 23 25  1  0
 24 23  2  0
M  END
$$$$
