KIP.pdb
     RDKit          3D

 25 25  0  0  1  0  0  0  0  0999 V2000
    8.9631  -15.0837   20.6221 N   0  0  0  0  0  0  0  0  0  0  0  0
    8.2636  -15.7346   21.6650 C   0  0  1  0  0  0  0  0  0  0  0  0
    8.4941  -17.2053   21.6815 C   0  0  0  0  0  0  0  0  0  0  0  0
    8.3556  -17.9231   20.3930 C   0  0  0  0  0  0  0  0  0  0  0  0
    7.9217  -19.3500   20.4461 C   0  0  0  0  0  0  0  0  0  0  0  0
    7.7041  -20.0033   19.1213 C   0  0  0  0  0  0  0  0  0  0  0  0
    7.2370  -21.3536   19.1491 N   0  0  0  0  0  0  0  0  0  0  0  0
    8.5980  -15.1393   22.9891 C   0  0  0  0  0  0  0  0  0  0  0  0
    9.8238  -14.8414   23.1774 O   0  0  0  0  0  0  0  0  0  0  0  0
    5.2341  -11.9142   25.7472 C   0  0  0  0  0  0  0  0  0  0  0  0
    6.4033  -12.6465   25.0904 C   0  0  0  0  0  0  0  0  0  0  0  0
    6.9771  -13.6882   25.9959 C   0  0  2  0  0  0  0  0  0  0  0  0
    7.3818  -13.1649   27.3508 C   0  0  0  0  0  0  0  0  0  0  0  0
    8.0743  -14.4342   25.2901 C   0  0  2  0  0  0  0  0  0  0  0  0
    7.6239  -14.9099   23.9954 N   0  0  0  0  0  0  0  0  0  0  0  0
    8.7439  -15.4160   26.1312 C   0  0  0  0  0  0  0  0  0  0  0  0
    8.1946  -16.5733   26.2834 O   0  0  0  0  0  0  0  0  0  0  0  0
    9.9647  -15.2670   26.8360 N   0  0  0  0  0  0  0  0  0  0  0  0
   10.7901  -14.0774   26.7307 C   0  0  0  0  0  0  0  0  0  0  0  0
   12.0396  -14.3413   27.5856 C   0  0  0  0  0  0  0  0  0  0  0  0
   11.4946  -15.3121   28.5846 C   0  0  0  0  0  0  0  0  0  0  0  0
   10.6416  -16.2244   27.6900 C   0  0  1  0  0  0  0  0  0  0  0  0
    9.7369  -17.0272   28.5437 C   0  0  0  0  0  0  0  0  0  0  0  0
    8.5281  -16.8567   28.6259 O   0  0  0  0  0  0  0  0  0  0  0  0
   10.3374  -18.0393   29.2922 O   0  0  0  0  0  0  0  0  0  0  0  0
  2  8  1  0
  2  1  1  6
  3  2  1  0
  4  3  1  0
  4  5  1  0
  6  7  1  0
  6  5  1  0
  8  9  2  0
 10 11  1  0
 11 12  1  0
 12 13  1  1
 14 12  1  0
 14 15  1  6
 15  8  1  0
 16 14  1  0
 17 16  2  0
 18 16  1  0
 18 22  1  0
 19 20  1  0
 19 18  1  0
 20 21  1  0
 21 22  1  0
 22 23  1  1
 23 25  1  0
 24 23  2  0
M  END
$$$$
