KIP.pdb
     RDKit          3D

 25 25  0  0  1  0  0  0  0  0999 V2000
    6.8308  -17.5424   21.6515 N   0  0  0  0  0  0  0  0  0  0  0  0
    6.6008  -17.6347   23.0441 C   0  0  1  0  0  0  0  0  0  0  0  0
    6.7383  -19.0249   23.5586 C   0  0  0  0  0  0  0  0  0  0  0  0
    5.5950  -19.9408   23.3379 C   0  0  0  0  0  0  0  0  0  0  0  0
    4.9593  -19.9311   21.9877 C   0  0  0  0  0  0  0  0  0  0  0  0
    3.8409  -20.9020   21.7990 C   0  0  0  0  0  0  0  0  0  0  0  0
    2.7605  -20.8138   22.7302 N   0  0  0  0  0  0  0  0  0  0  0  0
    7.4919  -16.7089   23.7980 C   0  0  0  0  0  0  0  0  0  0  0  0
    8.6804  -16.5860   23.3520 O   0  0  0  0  0  0  0  0  0  0  0  0
    5.7206  -12.2571   26.1589 C   0  0  0  0  0  0  0  0  0  0  0  0
    6.6192  -13.2622   25.4398 C   0  0  0  0  0  0  0  0  0  0  0  0
    7.4090  -14.0832   26.4076 C   0  0  2  0  0  0  0  0  0  0  0  0
    8.3756  -13.2823   27.2426 C   0  0  0  0  0  0  0  0  0  0  0  0
    8.0498  -15.2411   25.6954 C   0  0  2  0  0  0  0  0  0  0  0  0
    7.0621  -15.9970   24.9480 N   0  0  0  0  0  0  0  0  0  0  0  0
    8.9424  -16.0213   26.5406 C   0  0  0  0  0  0  0  0  0  0  0  0
    8.4721  -16.5287   27.6295 O   0  0  0  0  0  0  0  0  0  0  0  0
   10.3132  -16.3090   26.3229 N   0  0  0  0  0  0  0  0  0  0  0  0
   10.9993  -15.9673   25.0900 C   0  0  0  0  0  0  0  0  0  0  0  0
   12.4326  -16.5038   25.2301 C   0  0  0  0  0  0  0  0  0  0  0  0
   12.5974  -16.4754   26.7166 C   0  0  0  0  0  0  0  0  0  0  0  0
   11.2390  -17.0189   27.1848 C   0  0  1  0  0  0  0  0  0  0  0  0
   11.0749  -16.7285   28.6273 C   0  0  0  0  0  0  0  0  0  0  0  0
   10.4387  -15.7851   29.0769 O   0  0  0  0  0  0  0  0  0  0  0  0
   11.7021  -17.6114   29.5061 O   0  0  0  0  0  0  0  0  0  0  0  0
  2  8  1  0
  2  1  1  6
  3  2  1  0
  4  3  1  0
  4  5  1  0
  6  7  1  0
  6  5  1  0
  8  9  2  0
 10 11  1  0
 11 12  1  0
 12 13  1  6
 14 12  1  0
 14 15  1  1
 15  8  1  0
 16 14  1  0
 17 16  2  0
 18 16  1  0
 18 22  1  0
 19 20  1  0
 19 18  1  0
 20 21  1  0
 21 22  1  0
 22 23  1  1
 23 25  1  0
 24 23  2  0
M  END
$$$$
