KIP.pdb
     RDKit          3D

 25 25  0  0  1  0  0  0  0  0999 V2000
   10.4814  -18.0948   17.6323 N   0  0  0  0  0  0  0  0  0  0  0  0
    9.2268  -17.9987   18.2785 C   0  0  1  0  0  0  0  0  0  0  0  0
    8.6881  -19.3247   18.6883 C   0  0  0  0  0  0  0  0  0  0  0  0
    7.9059  -20.0750   17.6784 C   0  0  0  0  0  0  0  0  0  0  0  0
    8.6636  -20.7275   16.5705 C   0  0  0  0  0  0  0  0  0  0  0  0
    7.8667  -21.6446   15.7025 C   0  0  0  0  0  0  0  0  0  0  0  0
    8.5381  -22.1789   14.5598 N   0  0  0  0  0  0  0  0  0  0  0  0
    9.2945  -17.0789   19.4485 C   0  0  0  0  0  0  0  0  0  0  0  0
   10.3856  -17.0895   20.1088 O   0  0  0  0  0  0  0  0  0  0  0  0
    7.3870  -12.0404   19.7170 C   0  0  0  0  0  0  0  0  0  0  0  0
    8.2004  -13.3155   19.9344 C   0  0  0  0  0  0  0  0  0  0  0  0
    7.5826  -14.1897   20.9776 C   0  0  2  0  0  0  0  0  0  0  0  0
    7.3981  -13.5125   22.3120 C   0  0  0  0  0  0  0  0  0  0  0  0
    8.3290  -15.4911   21.0649 C   0  0  2  0  0  0  0  0  0  0  0  0
    8.2181  -16.2332   19.8229 N   0  0  0  0  0  0  0  0  0  0  0  0
    8.0498  -16.2409   22.2813 C   0  0  0  0  0  0  0  0  0  0  0  0
    6.9193  -16.8542   22.3807 O   0  0  0  0  0  0  0  0  0  0  0  0
    8.8830  -16.3928   23.4179 N   0  0  0  0  0  0  0  0  0  0  0  0
   10.2842  -16.0131   23.4187 C   0  0  0  0  0  0  0  0  0  0  0  0
   10.8354  -16.3975   24.8008 C   0  0  0  0  0  0  0  0  0  0  0  0
    9.5927  -16.3167   25.6295 C   0  0  0  0  0  0  0  0  0  0  0  0
    8.5643  -16.9840   24.7036 C   0  0  1  0  0  0  0  0  0  0  0  0
    7.2021  -16.6771   25.1956 C   0  0  0  0  0  0  0  0  0  0  0  0
    6.6004  -17.3395   26.0298 O   0  0  0  0  0  0  0  0  0  0  0  0
    6.5925  -15.5479   24.6492 O   0  0  0  0  0  0  0  0  0  0  0  0
  2  8  1  0
  2  1  1  1
  3  2  1  0
  4  3  1  0
  4  5  1  0
  6  7  1  0
  6  5  1  0
  8  9  2  0
 10 11  1  0
 11 12  1  0
 12 13  1  1
 14 12  1  0
 14 15  1  6
 15  8  1  0
 16 14  1  0
 17 16  2  0
 18 16  1  0
 18 22  1  0
 19 20  1  0
 19 18  1  0
 20 21  1  0
 21 22  1  0
 22 23  1  1
 23 25  1  0
 24 23  2  0
M  END
$$$$
