KIP.pdb
     RDKit          3D

 25 25  0  0  1  0  0  0  0  0999 V2000
    8.7239  -16.2828   20.5467 N   0  0  0  0  0  0  0  0  0  0  0  0
    7.8430  -16.4199   21.6449 C   0  0  1  0  0  0  0  0  0  0  0  0
    7.5764  -17.8424   21.9939 C   0  0  0  0  0  0  0  0  0  0  0  0
    8.3408  -18.8723   21.2525 C   0  0  0  0  0  0  0  0  0  0  0  0
    8.5404  -20.1916   21.9209 C   0  0  0  0  0  0  0  0  0  0  0  0
    8.4529  -21.3832   21.0255 C   0  0  0  0  0  0  0  0  0  0  0  0
    9.6927  -21.9131   20.5519 N   0  0  0  0  0  0  0  0  0  0  0  0
    8.3471  -15.6767   22.8336 C   0  0  0  0  0  0  0  0  0  0  0  0
    9.6011  -15.4456   22.8611 O   0  0  0  0  0  0  0  0  0  0  0  0
    6.9572  -11.4778   27.0109 C   0  0  0  0  0  0  0  0  0  0  0  0
    7.8821  -12.5563   26.4486 C   0  0  0  0  0  0  0  0  0  0  0  0
    7.1587  -13.4632   25.5060 C   0  0  2  0  0  0  0  0  0  0  0  0
    5.8682  -14.0144   26.0572 C   0  0  0  0  0  0  0  0  0  0  0  0
    8.0930  -14.5237   24.9951 C   0  0  2  0  0  0  0  0  0  0  0  0
    7.4976  -15.2436   23.8847 N   0  0  0  0  0  0  0  0  0  0  0  0
    8.6719  -15.3449   26.0488 C   0  0  0  0  0  0  0  0  0  0  0  0
    7.9284  -16.2342   26.6149 O   0  0  0  0  0  0  0  0  0  0  0  0
    9.9932  -15.2969   26.5597 N   0  0  0  0  0  0  0  0  0  0  0  0
   10.9974  -14.3805   26.0505 C   0  0  0  0  0  0  0  0  0  0  0  0
   12.2937  -14.6915   26.8152 C   0  0  0  0  0  0  0  0  0  0  0  0
   11.7401  -15.2416   28.0913 C   0  0  0  0  0  0  0  0  0  0  0  0
   10.6057  -16.1374   27.5709 C   0  0  1  0  0  0  0  0  0  0  0  0
    9.7114  -16.4863   28.6981 C   0  0  0  0  0  0  0  0  0  0  0  0
    8.8001  -15.7787   29.1051 O   0  0  0  0  0  0  0  0  0  0  0  0
    9.9527  -17.7134   29.3155 O   0  0  0  0  0  0  0  0  0  0  0  0
  2  8  1  0
  2  1  1  6
  3  2  1  0
  4  3  1  0
  4  5  1  0
  6  7  1  0
  6  5  1  0
  8  9  2  0
 10 11  1  0
 11 12  1  0
 12 13  1  1
 14 12  1  0
 14 15  1  6
 15  8  1  0
 16 14  1  0
 17 16  2  0
 18 16  1  0
 18 22  1  0
 19 20  1  0
 19 18  1  0
 20 21  1  0
 21 22  1  0
 22 23  1  1
 23 25  1  0
 24 23  2  0
M  END
$$$$
