KIP.pdb
     RDKit          3D

 25 25  0  0  1  0  0  0  0  0999 V2000
    8.5598  -15.6982   20.8640 N   0  0  0  0  0  0  0  0  0  0  0  0
    8.0008  -16.2542   22.0383 C   0  0  1  0  0  0  0  0  0  0  0  0
    8.3008  -17.7048   22.1868 C   0  0  0  0  0  0  0  0  0  0  0  0
    7.2763  -18.6576   21.6995 C   0  0  0  0  0  0  0  0  0  0  0  0
    6.7201  -19.6299   22.6855 C   0  0  0  0  0  0  0  0  0  0  0  0
    5.7213  -20.5960   22.1392 C   0  0  0  0  0  0  0  0  0  0  0  0
    6.2486  -21.7674   21.5131 N   0  0  0  0  0  0  0  0  0  0  0  0
    8.4389  -15.5043   23.2487 C   0  0  0  0  0  0  0  0  0  0  0  0
    9.6666  -15.1604   23.2824 O   0  0  0  0  0  0  0  0  0  0  0  0
    5.4608  -11.8309   25.7918 C   0  0  0  0  0  0  0  0  0  0  0  0
    6.6034  -12.6551   25.2002 C   0  0  0  0  0  0  0  0  0  0  0  0
    7.1008  -13.6790   26.1690 C   0  0  2  0  0  0  0  0  0  0  0  0
    7.5760  -13.1020   27.4783 C   0  0  0  0  0  0  0  0  0  0  0  0
    8.1142  -14.5666   25.5029 C   0  0  2  0  0  0  0  0  0  0  0  0
    7.5570  -15.1825   24.3130 N   0  0  0  0  0  0  0  0  0  0  0  0
    8.7956  -15.4643   26.4246 C   0  0  0  0  0  0  0  0  0  0  0  0
    8.2668  -16.6158   26.6665 O   0  0  0  0  0  0  0  0  0  0  0  0
   10.0080  -15.2355   27.1223 N   0  0  0  0  0  0  0  0  0  0  0  0
   10.8375  -14.0670   26.8897 C   0  0  0  0  0  0  0  0  0  0  0  0
   12.0758  -14.2309   27.7849 C   0  0  0  0  0  0  0  0  0  0  0  0
   11.5164  -15.0785   28.8832 C   0  0  0  0  0  0  0  0  0  0  0  0
   10.6722  -16.0877   28.0902 C   0  0  1  0  0  0  0  0  0  0  0  0
    9.7552  -16.7851   29.0201 C   0  0  0  0  0  0  0  0  0  0  0  0
    8.5593  -16.5484   29.1224 O   0  0  0  0  0  0  0  0  0  0  0  0
   10.3277  -17.7742   29.8195 O   0  0  0  0  0  0  0  0  0  0  0  0
  2  8  1  0
  2  1  1  6
  3  2  1  0
  4  3  1  0
  4  5  1  0
  6  7  1  0
  6  5  1  0
  8  9  2  0
 10 11  1  0
 11 12  1  0
 12 13  1  1
 14 12  1  0
 14 15  1  6
 15  8  1  0
 16 14  1  0
 17 16  2  0
 18 16  1  0
 18 22  1  0
 19 20  1  0
 19 18  1  0
 20 21  1  0
 21 22  1  0
 22 23  1  1
 23 25  1  0
 24 23  2  0
M  END
$$$$
