KIP.pdb
     RDKit          3D

 25 25  0  0  1  0  0  0  0  0999 V2000
    9.8131  -15.2566   20.8248 N   0  0  0  0  0  0  0  0  0  0  0  0
    8.9328  -15.8855   21.7359 C   0  0  1  0  0  0  0  0  0  0  0  0
    9.0765  -17.3673   21.7445 C   0  0  0  0  0  0  0  0  0  0  0  0
   10.1998  -17.9394   20.9663 C   0  0  0  0  0  0  0  0  0  0  0  0
   10.2436  -19.4234   20.8150 C   0  0  0  0  0  0  0  0  0  0  0  0
   11.3721  -19.9505   19.9915 C   0  0  0  0  0  0  0  0  0  0  0  0
   11.4515  -21.3713   19.8599 N   0  0  0  0  0  0  0  0  0  0  0  0
    9.1012  -15.3371   23.1108 C   0  0  0  0  0  0  0  0  0  0  0  0
   10.2708  -14.9279   23.4128 O   0  0  0  0  0  0  0  0  0  0  0  0
    5.2807  -12.3590   25.5249 C   0  0  0  0  0  0  0  0  0  0  0  0
    6.5985  -12.9561   25.0331 C   0  0  0  0  0  0  0  0  0  0  0  0
    7.0652  -14.0634   25.9223 C   0  0  2  0  0  0  0  0  0  0  0  0
    7.2066  -13.6667   27.3699 C   0  0  0  0  0  0  0  0  0  0  0  0
    8.3038  -14.6937   25.3505 C   0  0  2  0  0  0  0  0  0  0  0  0
    8.0349  -15.2664   24.0447 N   0  0  0  0  0  0  0  0  0  0  0  0
    9.0047  -15.5557   26.2914 C   0  0  0  0  0  0  0  0  0  0  0  0
    8.7224  -16.8144   26.3013 O   0  0  0  0  0  0  0  0  0  0  0  0
    9.9928  -15.1854   27.2379 N   0  0  0  0  0  0  0  0  0  0  0  0
   10.5074  -13.8321   27.3448 C   0  0  0  0  0  0  0  0  0  0  0  0
   11.5945  -13.8676   28.4303 C   0  0  0  0  0  0  0  0  0  0  0  0
   11.1209  -15.0167   29.2626 C   0  0  0  0  0  0  0  0  0  0  0  0
   10.7051  -16.0258   28.1815 C   0  0  1  0  0  0  0  0  0  0  0  0
    9.8766  -17.0839   28.8028 C   0  0  0  0  0  0  0  0  0  0  0  0
    8.6539  -17.0725   28.8442 O   0  0  0  0  0  0  0  0  0  0  0  0
   10.5704  -18.1523   29.3704 O   0  0  0  0  0  0  0  0  0  0  0  0
  2  8  1  0
  2  1  1  6
  3  2  1  0
  4  3  1  0
  4  5  1  0
  6  7  1  0
  6  5  1  0
  8  9  2  0
 10 11  1  0
 11 12  1  0
 12 13  1  1
 14 12  1  0
 14 15  1  6
 15  8  1  0
 16 14  1  0
 17 16  2  0
 18 16  1  0
 18 22  1  0
 19 20  1  0
 19 18  1  0
 20 21  1  0
 21 22  1  0
 22 23  1  1
 23 25  1  0
 24 23  2  0
M  END
$$$$
