KIP.pdb
     RDKit          3D

 25 25  0  0  1  0  0  0  0  0999 V2000
    5.6651  -19.6561   25.3409 N   0  0  0  0  0  0  0  0  0  0  0  0
    6.6764  -18.7948   25.8268 C   0  0  1  0  0  0  0  0  0  0  0  0
    8.0350  -19.3976   25.7414 C   0  0  0  0  0  0  0  0  0  0  0  0
    8.6802  -19.7871   27.0169 C   0  0  0  0  0  0  0  0  0  0  0  0
   10.0716  -20.3220   26.9462 C   0  0  0  0  0  0  0  0  0  0  0  0
   10.7225  -20.5907   28.2627 C   0  0  0  0  0  0  0  0  0  0  0  0
    9.9963  -21.4205   29.1717 N   0  0  0  0  0  0  0  0  0  0  0  0
    6.6441  -17.4801   25.1268 C   0  0  0  0  0  0  0  0  0  0  0  0
    6.1430  -17.4806   23.9540 O   0  0  0  0  0  0  0  0  0  0  0  0
    6.5660  -12.4574   27.4748 C   0  0  0  0  0  0  0  0  0  0  0  0
    6.3422  -13.6342   26.5262 C   0  0  0  0  0  0  0  0  0  0  0  0
    7.5437  -13.8888   25.6741 C   0  0  2  0  0  0  0  0  0  0  0  0
    7.9777  -12.6979   24.8577 C   0  0  0  0  0  0  0  0  0  0  0  0
    7.3389  -15.1328   24.8562 C   0  0  2  0  0  0  0  0  0  0  0  0
    7.1379  -16.2860   25.7137 N   0  0  0  0  0  0  0  0  0  0  0  0
    8.3173  -15.2952   23.7903 C   0  0  0  0  0  0  0  0  0  0  0  0
    9.4797  -15.7687   24.0883 O   0  0  0  0  0  0  0  0  0  0  0  0
    8.1616  -14.9892   22.4150 N   0  0  0  0  0  0  0  0  0  0  0  0
    6.9131  -14.5016   21.8573 C   0  0  0  0  0  0  0  0  0  0  0  0
    7.1418  -14.3603   20.3442 C   0  0  0  0  0  0  0  0  0  0  0  0
    8.6191  -14.1289   20.3053 C   0  0  0  0  0  0  0  0  0  0  0  0
    9.1160  -15.1547   21.3353 C   0  0  1  0  0  0  0  0  0  0  0  0
   10.5137  -14.8317   21.7015 C   0  0  0  0  0  0  0  0  0  0  0  0
   10.8513  -14.3054   22.7531 O   0  0  0  0  0  0  0  0  0  0  0  0
   11.4871  -15.1641   20.7595 O   0  0  0  0  0  0  0  0  0  0  0  0
  2  8  1  0
  2  1  1  6
  3  2  1  0
  4  3  1  0
  4  5  1  0
  6  7  1  0
  6  5  1  0
  8  9  2  0
 10 11  1  0
 11 12  1  0
 12 13  1  6
 14 12  1  0
 14 15  1  1
 15  8  1  0
 16 14  1  0
 17 16  2  0
 18 16  1  0
 18 22  1  0
 19 20  1  0
 19 18  1  0
 20 21  1  0
 21 22  1  0
 22 23  1  1
 23 25  1  0
 24 23  2  0
M  END
$$$$
