KIP.pdb
     RDKit          3D

 25 25  0  0  1  0  0  0  0  0999 V2000
    7.7979  -14.7489   20.1711 N   0  0  0  0  0  0  0  0  0  0  0  0
    7.2308  -15.4355   21.2700 C   0  0  1  0  0  0  0  0  0  0  0  0
    7.2060  -16.9113   21.0751 C   0  0  0  0  0  0  0  0  0  0  0  0
    6.5137  -17.4195   19.8679 C   0  0  0  0  0  0  0  0  0  0  0  0
    7.3649  -17.8746   18.7298 C   0  0  0  0  0  0  0  0  0  0  0  0
    6.6414  -18.5795   17.6303 C   0  0  0  0  0  0  0  0  0  0  0  0
    7.4393  -19.0339   16.5353 N   0  0  0  0  0  0  0  0  0  0  0  0
    7.9301  -15.0886   22.5389 C   0  0  0  0  0  0  0  0  0  0  0  0
    9.1940  -14.9370   22.4601 O   0  0  0  0  0  0  0  0  0  0  0  0
    5.6687  -11.7936   25.9757 C   0  0  0  0  0  0  0  0  0  0  0  0
    6.6807  -12.5680   25.1324 C   0  0  0  0  0  0  0  0  0  0  0  0
    7.2500  -13.7272   25.8852 C   0  0  2  0  0  0  0  0  0  0  0  0
    8.0170  -13.3353   27.1227 C   0  0  0  0  0  0  0  0  0  0  0  0
    8.0289  -14.6121   24.9532 C   0  0  2  0  0  0  0  0  0  0  0  0
    7.2475  -14.9324   23.7732 N   0  0  0  0  0  0  0  0  0  0  0  0
    8.6670  -15.7387   25.6190 C   0  0  0  0  0  0  0  0  0  0  0  0
    7.9638  -16.4524   26.4316 O   0  0  0  0  0  0  0  0  0  0  0  0
   10.0100  -16.1743   25.4931 N   0  0  0  0  0  0  0  0  0  0  0  0
   10.9120  -15.6511   24.4831 C   0  0  0  0  0  0  0  0  0  0  0  0
   12.2317  -16.4226   24.6409 C   0  0  0  0  0  0  0  0  0  0  0  0
   12.1705  -16.7871   26.0904 C   0  0  0  0  0  0  0  0  0  0  0  0
   10.7010  -17.2102   26.2371 C   0  0  1  0  0  0  0  0  0  0  0  0
   10.3556  -17.2619   27.6758 C   0  0  0  0  0  0  0  0  0  0  0  0
    9.9566  -16.3069   28.3280 O   0  0  0  0  0  0  0  0  0  0  0  0
   10.5073  -18.5004   28.2990 O   0  0  0  0  0  0  0  0  0  0  0  0
  2  8  1  0
  2  1  1  6
  3  2  1  0
  4  3  1  0
  4  5  1  0
  6  7  1  0
  6  5  1  0
  8  9  2  0
 10 11  1  0
 11 12  1  0
 12 13  1  1
 14 12  1  0
 14 15  1  6
 15  8  1  0
 16 14  1  0
 17 16  2  0
 18 16  1  0
 18 22  1  0
 19 20  1  0
 19 18  1  0
 20 21  1  0
 21 22  1  0
 22 23  1  1
 23 25  1  0
 24 23  2  0
M  END
$$$$
