KIP.pdb
     RDKit          3D

 25 25  0  0  1  0  0  0  0  0999 V2000
    5.7546  -17.3697   21.6076 N   0  0  0  0  0  0  0  0  0  0  0  0
    5.8340  -17.5098   23.0128 C   0  0  1  0  0  0  0  0  0  0  0  0
    6.0737  -18.9163   23.4378 C   0  0  0  0  0  0  0  0  0  0  0  0
    5.2328  -19.9620   22.8098 C   0  0  0  0  0  0  0  0  0  0  0  0
    5.0576  -21.2416   23.5575 C   0  0  0  0  0  0  0  0  0  0  0  0
    3.7047  -21.4566   24.1515 C   0  0  0  0  0  0  0  0  0  0  0  0
    2.7803  -22.2126   23.3667 N   0  0  0  0  0  0  0  0  0  0  0  0
    6.8729  -16.6079   23.5845 C   0  0  0  0  0  0  0  0  0  0  0  0
    7.9619  -16.5177   22.9267 O   0  0  0  0  0  0  0  0  0  0  0  0
    5.7602  -12.1917   26.4828 C   0  0  0  0  0  0  0  0  0  0  0  0
    6.4042  -13.2105   25.5436 C   0  0  0  0  0  0  0  0  0  0  0  0
    7.3810  -14.0819   26.2654 C   0  0  2  0  0  0  0  0  0  0  0  0
    8.5247  -13.3275   26.8945 C   0  0  0  0  0  0  0  0  0  0  0  0
    7.8246  -15.2057   25.3717 C   0  0  2  0  0  0  0  0  0  0  0  0
    6.6812  -15.8836   24.7898 N   0  0  0  0  0  0  0  0  0  0  0  0
    8.8342  -16.0641   25.9749 C   0  0  0  0  0  0  0  0  0  0  0  0
    8.5558  -16.6536   27.0880 O   0  0  0  0  0  0  0  0  0  0  0  0
   10.1343  -16.3498   25.4877 N   0  0  0  0  0  0  0  0  0  0  0  0
   10.6127  -15.8707   24.2035 C   0  0  0  0  0  0  0  0  0  0  0  0
   12.0252  -16.4492   24.0254 C   0  0  0  0  0  0  0  0  0  0  0  0
   12.4433  -16.6101   25.4526 C   0  0  0  0  0  0  0  0  0  0  0  0
   11.1637  -17.1804   26.0831 C   0  0  1  0  0  0  0  0  0  0  0  0
   11.2614  -17.0692   27.5562 C   0  0  0  0  0  0  0  0  0  0  0  0
   10.8446  -16.1224   28.2095 O   0  0  0  0  0  0  0  0  0  0  0  0
   11.8765  -18.1351   28.2125 O   0  0  0  0  0  0  0  0  0  0  0  0
  2  8  1  0
  2  1  1  6
  3  2  1  0
  4  3  1  0
  4  5  1  0
  6  7  1  0
  6  5  1  0
  8  9  2  0
 10 11  1  0
 11 12  1  0
 12 13  1  6
 14 12  1  0
 14 15  1  1
 15  8  1  0
 16 14  1  0
 17 16  2  0
 18 16  1  0
 18 22  1  0
 19 20  1  0
 19 18  1  0
 20 21  1  0
 21 22  1  0
 22 23  1  1
 23 25  1  0
 24 23  2  0
M  END
$$$$
