KIP.pdb
     RDKit          3D

 25 25  0  0  1  0  0  0  0  0999 V2000
   10.0159  -15.7739   20.9468 N   0  0  0  0  0  0  0  0  0  0  0  0
    9.2588  -16.4000   21.9643 C   0  0  1  0  0  0  0  0  0  0  0  0
    9.6385  -17.8248   22.1694 C   0  0  0  0  0  0  0  0  0  0  0  0
    8.7038  -18.8518   21.6532 C   0  0  0  0  0  0  0  0  0  0  0  0
    8.4658  -18.8841   20.1804 C   0  0  0  0  0  0  0  0  0  0  0  0
    7.5474  -19.9603   19.7031 C   0  0  0  0  0  0  0  0  0  0  0  0
    7.9659  -21.3050   19.9458 N   0  0  0  0  0  0  0  0  0  0  0  0
    9.3533  -15.6453   23.2454 C   0  0  0  0  0  0  0  0  0  0  0  0
   10.5031  -15.1774   23.5379 O   0  0  0  0  0  0  0  0  0  0  0  0
    5.6521  -12.1890   25.3071 C   0  0  0  0  0  0  0  0  0  0  0  0
    6.9420  -12.9093   24.9168 C   0  0  0  0  0  0  0  0  0  0  0  0
    7.2222  -14.0638   25.8240 C   0  0  2  0  0  0  0  0  0  0  0  0
    7.2357  -13.7021   27.2876 C   0  0  0  0  0  0  0  0  0  0  0  0
    8.4632  -14.7816   25.3732 C   0  0  2  0  0  0  0  0  0  0  0  0
    8.2406  -15.4485   24.1039 N   0  0  0  0  0  0  0  0  0  0  0  0
    9.0793  -15.5886   26.4167 C   0  0  0  0  0  0  0  0  0  0  0  0
    8.7433  -16.8303   26.5138 O   0  0  0  0  0  0  0  0  0  0  0  0
   10.0344  -15.1791   27.3807 N   0  0  0  0  0  0  0  0  0  0  0  0
   10.5431  -13.8213   27.4521 C   0  0  0  0  0  0  0  0  0  0  0  0
   11.5931  -13.8116   28.5741 C   0  0  0  0  0  0  0  0  0  0  0  0
   11.0934  -14.9289   29.4341 C   0  0  0  0  0  0  0  0  0  0  0  0
   10.7158  -15.9804   28.3796 C   0  0  1  0  0  0  0  0  0  0  0  0
    9.8683  -17.0158   29.0134 C   0  0  0  0  0  0  0  0  0  0  0  0
    8.6465  -17.0424   28.9563 O   0  0  0  0  0  0  0  0  0  0  0  0
   10.5423  -18.0146   29.7158 O   0  0  0  0  0  0  0  0  0  0  0  0
  2  8  1  0
  2  1  1  6
  3  2  1  0
  4  3  1  0
  4  5  1  0
  6  7  1  0
  6  5  1  0
  8  9  2  0
 10 11  1  0
 11 12  1  0
 12 13  1  1
 14 12  1  0
 14 15  1  6
 15  8  1  0
 16 14  1  0
 17 16  2  0
 18 16  1  0
 18 22  1  0
 19 20  1  0
 19 18  1  0
 20 21  1  0
 21 22  1  0
 22 23  1  1
 23 25  1  0
 24 23  2  0
M  END
$$$$
