KIP.pdb
     RDKit          3D

 25 25  0  0  1  0  0  0  0  0999 V2000
   10.4023  -15.7707   20.6910 N   0  0  0  0  0  0  0  0  0  0  0  0
    9.4417  -16.2975   21.5856 C   0  0  1  0  0  0  0  0  0  0  0  0
    9.5795  -17.7675   21.7770 C   0  0  0  0  0  0  0  0  0  0  0  0
   10.5837  -18.4643   20.9397 C   0  0  0  0  0  0  0  0  0  0  0  0
   10.6656  -19.9495   21.0607 C   0  0  0  0  0  0  0  0  0  0  0  0
   11.7042  -20.6052   20.2119 C   0  0  0  0  0  0  0  0  0  0  0  0
   12.7932  -21.2198   20.9036 N   0  0  0  0  0  0  0  0  0  0  0  0
    9.4876  -15.5940   22.8981 C   0  0  0  0  0  0  0  0  0  0  0  0
   10.5996  -15.0501   23.2051 O   0  0  0  0  0  0  0  0  0  0  0  0
    6.1514  -12.1909   26.6340 C   0  0  0  0  0  0  0  0  0  0  0  0
    7.4169  -13.0022   26.3598 C   0  0  0  0  0  0  0  0  0  0  0  0
    7.2082  -13.9891   25.2567 C   0  0  2  0  0  0  0  0  0  0  0  0
    6.0282  -14.9032   25.4693 C   0  0  0  0  0  0  0  0  0  0  0  0
    8.4896  -14.7216   24.9738 C   0  0  2  0  0  0  0  0  0  0  0  0
    8.3702  -15.5230   23.7701 N   0  0  0  0  0  0  0  0  0  0  0  0
    9.0403  -15.4004   26.1382 C   0  0  0  0  0  0  0  0  0  0  0  0
    8.7525  -16.6449   26.3188 O   0  0  0  0  0  0  0  0  0  0  0  0
    9.8811  -14.8579   27.1422 N   0  0  0  0  0  0  0  0  0  0  0  0
   10.2491  -13.4542   27.1819 C   0  0  0  0  0  0  0  0  0  0  0  0
   11.2121  -13.2932   28.3687 C   0  0  0  0  0  0  0  0  0  0  0  0
   10.7643  -14.4187   29.2463 C   0  0  0  0  0  0  0  0  0  0  0  0
   10.5655  -15.5452   28.2208 C   0  0  1  0  0  0  0  0  0  0  0  0
    9.7805  -16.6334   28.8463 C   0  0  0  0  0  0  0  0  0  0  0  0
    8.5805  -16.8059   28.6817 O   0  0  0  0  0  0  0  0  0  0  0  0
   10.4894  -17.5036   29.6742 O   0  0  0  0  0  0  0  0  0  0  0  0
  2  8  1  0
  2  1  1  6
  3  2  1  0
  4  3  1  0
  4  5  1  0
  6  7  1  0
  6  5  1  0
  8  9  2  0
 10 11  1  0
 11 12  1  0
 12 13  1  1
 14 12  1  0
 14 15  1  6
 15  8  1  0
 16 14  1  0
 17 16  2  0
 18 16  1  0
 18 22  1  0
 19 20  1  0
 19 18  1  0
 20 21  1  0
 21 22  1  0
 22 23  1  1
 23 25  1  0
 24 23  2  0
M  END
$$$$
