MFY.pdb
     RDKit          3D

 32 33  0  0  1  0  0  0  0  0999 V2000
    8.2007  -12.5548   17.1469 C   0  0  0  0  0  0  0  0  0  0  0  0
    8.4526  -14.0613   16.1793 S   0  0  0  0  0  0  0  0  0  0  0  0
    9.0528  -15.3777   17.2785 C   0  0  0  0  0  0  0  0  0  0  0  0
    9.1790  -14.8066   18.6819 C   0  0  0  0  0  0  0  0  0  0  0  0
    9.6581  -15.8894   19.6311 C   0  0  2  0  0  0  0  0  0  0  0  0
    8.7866  -17.0247   19.4852 N   0  0  0  0  0  0  0  0  0  0  0  0
    9.7173  -15.4023   21.0284 C   0  0  0  0  0  0  0  0  0  0  0  0
   10.7676  -14.8202   21.4010 O   0  0  0  0  0  0  0  0  0  0  0  0
    8.6630  -15.5625   21.9391 N   0  0  0  0  0  0  0  0  0  0  0  0
    8.5205  -14.8266   23.1725 C   0  0  1  0  0  0  0  0  0  0  0  0
    7.0766  -14.4469   23.4306 C   0  0  0  0  0  0  0  0  0  0  0  0
    6.9865  -13.6235   24.6366 C   0  0  0  0  0  0  0  0  0  0  0  0
    7.3135  -12.2876   24.6152 C   0  0  0  0  0  0  0  0  0  0  0  0
    7.2139  -11.5386   25.7868 C   0  0  0  0  0  0  0  0  0  0  0  0
    6.7938  -12.1116   26.9673 C   0  0  0  0  0  0  0  0  0  0  0  0
    6.4658  -13.4483   26.9924 C   0  0  0  0  0  0  0  0  0  0  0  0
    6.5702  -14.1703   25.8279 C   0  0  0  0  0  0  0  0  0  0  0  0
    9.0616  -15.6457   24.2764 C   0  0  0  0  0  0  0  0  0  0  0  0
    8.8390  -16.8789   24.2848 O   0  0  0  0  0  0  0  0  0  0  0  0
   12.9381  -18.0609   31.8972 O   0  0  0  0  0  0  0  0  0  0  0  0
   12.4713  -17.3105   30.8172 C   0  0  0  0  0  0  0  0  0  0  0  0
   11.4851  -16.3569   30.9718 C   0  0  0  0  0  0  0  0  0  0  0  0
   11.0316  -15.6193   29.8890 C   0  0  0  0  0  0  0  0  0  0  0  0
   11.5399  -15.8028   28.6214 C   0  0  0  0  0  0  0  0  0  0  0  0
   11.0725  -15.0291   27.4560 C   0  0  0  0  0  0  0  0  0  0  0  0
   10.3714  -15.8923   26.4325 C   0  0  2  0  0  0  0  0  0  0  0  0
    9.8293  -15.1162   25.3442 N   0  0  0  0  0  0  0  0  0  0  0  0
    9.2494  -16.6577   27.0289 C   0  0  0  0  0  0  0  0  0  0  0  0
    9.3531  -18.0202   27.2778 O   0  0  0  0  0  0  0  0  0  0  0  0
   12.5281  -16.7591   28.4696 C   0  0  0  0  0  0  0  0  0  0  0  0
   12.9863  -17.5023   29.5554 C   0  0  0  0  0  0  0  0  0  0  0  0
    8.1417  -16.1157   27.3426 O   0  0  0  0  0  0  0  0  0  0  0  0
  2  1  1  0
  3  4  1  0
  3  2  1  0
  5  7  1  0
  5  6  1  1
  5  4  1  0
  7  8  2  0
  9 10  1  0
  9  7  1  0
 10 18  1  0
 10 11  1  1
 12 17  1  0
 12 11  1  0
 13 12  2  0
 14 15  2  0
 14 13  1  0
 15 16  1  0
 16 17  2  0
 18 19  2  0
 20 21  1  0
 21 22  2  0
 21 31  1  0
 22 23  1  0
 23 24  2  0
 24 25  1  0
 26 25  1  1
 26 28  1  0
 27 18  1  0
 27 26  1  0
 28 32  2  0
 28 29  1  0
 30 24  1  0
 31 30  2  0
M  END
$$$$
