MFY.pdb
     RDKit          3D

 32 33  0  0  1  0  0  0  0  0999 V2000
    8.9575  -12.5101   18.4748 C   0  0  0  0  0  0  0  0  0  0  0  0
    7.6808  -13.7845   18.3499 S   0  0  0  0  0  0  0  0  0  0  0  0
    7.9020  -14.9788   19.7012 C   0  0  0  0  0  0  0  0  0  0  0  0
    9.3370  -15.4801   19.6646 C   0  0  0  0  0  0  0  0  0  0  0  0
    9.5544  -16.4833   20.7823 C   0  0  2  0  0  0  0  0  0  0  0  0
    8.5126  -17.4719   20.7001 N   0  0  0  0  0  0  0  0  0  0  0  0
    9.5989  -15.8225   22.1069 C   0  0  0  0  0  0  0  0  0  0  0  0
   10.6453  -15.1965   22.4135 O   0  0  0  0  0  0  0  0  0  0  0  0
    8.5350  -15.8669   23.0194 N   0  0  0  0  0  0  0  0  0  0  0  0
    8.5074  -15.1776   24.2871 C   0  0  1  0  0  0  0  0  0  0  0  0
    7.1082  -14.7144   24.6386 C   0  0  0  0  0  0  0  0  0  0  0  0
    7.1607  -13.7832   25.7658 C   0  0  0  0  0  0  0  0  0  0  0  0
    7.4079  -12.4436   25.5745 C   0  0  0  0  0  0  0  0  0  0  0  0
    7.4497  -11.5901   26.6759 C   0  0  0  0  0  0  0  0  0  0  0  0
    7.2481  -12.0632   27.9542 C   0  0  0  0  0  0  0  0  0  0  0  0
    7.0006  -13.4032   28.1494 C   0  0  0  0  0  0  0  0  0  0  0  0
    6.9631  -14.2290   27.0518 C   0  0  0  0  0  0  0  0  0  0  0  0
    9.0473  -16.0781   25.3263 C   0  0  0  0  0  0  0  0  0  0  0  0
    8.7449  -17.2938   25.2950 O   0  0  0  0  0  0  0  0  0  0  0  0
   14.4589  -17.3882   22.2245 O   0  0  0  0  0  0  0  0  0  0  0  0
   13.8772  -17.1332   23.4672 C   0  0  0  0  0  0  0  0  0  0  0  0
   13.6021  -18.1504   24.3591 C   0  0  0  0  0  0  0  0  0  0  0  0
   13.0239  -17.8812   25.5900 C   0  0  0  0  0  0  0  0  0  0  0  0
   12.7008  -16.5983   25.9755 C   0  0  0  0  0  0  0  0  0  0  0  0
   12.0858  -16.2895   27.2800 C   0  0  0  0  0  0  0  0  0  0  0  0
   10.5928  -16.5240   27.2853 C   0  0  2  0  0  0  0  0  0  0  0  0
    9.8999  -15.6469   26.3737 N   0  0  0  0  0  0  0  0  0  0  0  0
   10.0042  -16.3147   28.6307 C   0  0  0  0  0  0  0  0  0  0  0  0
   10.3725  -17.1026   29.7135 O   0  0  0  0  0  0  0  0  0  0  0  0
   12.9778  -15.5811   25.0797 C   0  0  0  0  0  0  0  0  0  0  0  0
   13.5588  -15.8477   23.8417 C   0  0  0  0  0  0  0  0  0  0  0  0
    9.1387  -15.4120   28.8660 O   0  0  0  0  0  0  0  0  0  0  0  0
  2  1  1  0
  3  4  1  0
  3  2  1  0
  5  7  1  0
  5  6  1  1
  5  4  1  0
  7  8  2  0
  9 10  1  0
  9  7  1  0
 10 18  1  0
 10 11  1  1
 12 17  1  0
 12 11  1  0
 13 12  2  0
 14 15  2  0
 14 13  1  0
 15 16  1  0
 16 17  2  0
 18 19  2  0
 20 21  1  0
 21 22  2  0
 21 31  1  0
 22 23  1  0
 23 24  2  0
 24 25  1  0
 26 25  1  1
 26 28  1  0
 27 18  1  0
 27 26  1  0
 28 32  2  0
 28 29  1  0
 30 24  1  0
 31 30  2  0
M  END
$$$$
