MFY.pdb
     RDKit          3D

 32 33  0  0  1  0  0  0  0  0999 V2000
    7.3608  -11.7577   19.1552 C   0  0  0  0  0  0  0  0  0  0  0  0
    7.9313  -12.8441   17.8272 S   0  0  0  0  0  0  0  0  0  0  0  0
    7.2590  -14.5107   18.0954 C   0  0  0  0  0  0  0  0  0  0  0  0
    7.1156  -14.7317   19.5929 C   0  0  0  0  0  0  0  0  0  0  0  0
    8.1934  -15.6866   20.0721 C   0  0  2  0  0  0  0  0  0  0  0  0
    7.6321  -17.0109   20.1006 N   0  0  0  0  0  0  0  0  0  0  0  0
    8.7376  -15.2784   21.3876 C   0  0  0  0  0  0  0  0  0  0  0  0
    9.5755  -14.3412   21.4087 O   0  0  0  0  0  0  0  0  0  0  0  0
    8.3604  -15.8874   22.5932 N   0  0  0  0  0  0  0  0  0  0  0  0
    8.8088  -15.4735   23.9011 C   0  0  1  0  0  0  0  0  0  0  0  0
    7.7176  -15.6333   24.9401 C   0  0  0  0  0  0  0  0  0  0  0  0
    7.2688  -14.3178   25.3969 C   0  0  0  0  0  0  0  0  0  0  0  0
    6.0278  -13.8298   25.0592 C   0  0  0  0  0  0  0  0  0  0  0  0
    5.6389  -12.5711   25.5151 C   0  0  0  0  0  0  0  0  0  0  0  0
    6.4748  -11.8055   26.2984 C   0  0  0  0  0  0  0  0  0  0  0  0
    7.7175  -12.2907   26.6381 C   0  0  0  0  0  0  0  0  0  0  0  0
    8.0833  -13.5333   26.1796 C   0  0  0  0  0  0  0  0  0  0  0  0
   10.0064  -16.2601   24.2607 C   0  0  0  0  0  0  0  0  0  0  0  0
   10.1991  -17.3651   23.7018 O   0  0  0  0  0  0  0  0  0  0  0  0
    9.9127  -15.7238   31.4600 O   0  0  0  0  0  0  0  0  0  0  0  0
   10.6629  -15.7793   30.2845 C   0  0  0  0  0  0  0  0  0  0  0  0
   11.4252  -16.8850   29.9648 C   0  0  0  0  0  0  0  0  0  0  0  0
   12.1653  -16.9252   28.7932 C   0  0  0  0  0  0  0  0  0  0  0  0
   12.1734  -15.8734   27.9030 C   0  0  0  0  0  0  0  0  0  0  0  0
   12.9528  -15.8953   26.6511 C   0  0  0  0  0  0  0  0  0  0  0  0
   12.1952  -16.5333   25.5096 C   0  0  2  0  0  0  0  0  0  0  0  0
   10.9671  -15.8371   25.2136 N   0  0  0  0  0  0  0  0  0  0  0  0
   11.8422  -17.9446   25.7996 C   0  0  0  0  0  0  0  0  0  0  0  0
   10.5373  -18.3199   26.0920 O   0  0  0  0  0  0  0  0  0  0  0  0
   11.4085  -14.7668   28.2261 C   0  0  0  0  0  0  0  0  0  0  0  0
   10.6635  -14.7227   29.4026 C   0  0  0  0  0  0  0  0  0  0  0  0
   12.7047  -18.8802   25.7968 O   0  0  0  0  0  0  0  0  0  0  0  0
  2  1  1  0
  3  4  1  0
  3  2  1  0
  5  7  1  0
  5  6  1  1
  5  4  1  0
  7  8  2  0
  9 10  1  0
  9  7  1  0
 10 18  1  0
 10 11  1  1
 12 17  1  0
 12 11  1  0
 13 12  2  0
 14 15  2  0
 14 13  1  0
 15 16  1  0
 16 17  2  0
 18 19  2  0
 20 21  1  0
 21 22  2  0
 21 31  1  0
 22 23  1  0
 23 24  2  0
 24 25  1  0
 26 25  1  1
 26 28  1  0
 27 18  1  0
 27 26  1  0
 28 32  2  0
 28 29  1  0
 30 24  1  0
 31 30  2  0
M  END
$$$$
