MFY.pdb
     RDKit          3D

 32 33  0  0  1  0  0  0  0  0999 V2000
   14.3124  -18.4532   17.6293 C   0  0  0  0  0  0  0  0  0  0  0  0
   12.9273  -18.4731   16.4670 S   0  0  0  0  0  0  0  0  0  0  0  0
   11.3804  -18.6987   17.3929 C   0  0  0  0  0  0  0  0  0  0  0  0
   11.2576  -17.5659   18.3996 C   0  0  0  0  0  0  0  0  0  0  0  0
    9.9823  -17.7359   19.2044 C   0  0  2  0  0  0  0  0  0  0  0  0
    8.8714  -17.6829   18.2919 N   0  0  0  0  0  0  0  0  0  0  0  0
    9.8762  -16.7218   20.2785 C   0  0  0  0  0  0  0  0  0  0  0  0
   10.9395  -16.1904   20.6883 O   0  0  0  0  0  0  0  0  0  0  0  0
    8.6541  -16.3367   20.8481 N   0  0  0  0  0  0  0  0  0  0  0  0
    8.5151  -15.4544   21.9818 C   0  0  1  0  0  0  0  0  0  0  0  0
    7.0785  -15.3823   22.4582 C   0  0  0  0  0  0  0  0  0  0  0  0
    6.9467  -14.3504   23.4871 C   0  0  0  0  0  0  0  0  0  0  0  0
    7.3818  -13.0641   23.2681 C   0  0  0  0  0  0  0  0  0  0  0  0
    7.2376  -12.1109   24.2752 C   0  0  0  0  0  0  0  0  0  0  0  0
    6.6669  -12.4330   25.4872 C   0  0  0  0  0  0  0  0  0  0  0  0
    6.2304  -13.7195   25.7098 C   0  0  0  0  0  0  0  0  0  0  0  0
    6.3809  -14.6452   24.7055 C   0  0  0  0  0  0  0  0  0  0  0  0
    9.4106  -15.9243   23.0586 C   0  0  0  0  0  0  0  0  0  0  0  0
   10.6182  -15.5902   23.0350 O   0  0  0  0  0  0  0  0  0  0  0  0
   11.6130  -15.2349   31.3423 O   0  0  0  0  0  0  0  0  0  0  0  0
   11.0871  -15.2403   30.0496 C   0  0  0  0  0  0  0  0  0  0  0  0
   10.5917  -14.0916   29.4657 C   0  0  0  0  0  0  0  0  0  0  0  0
   10.0724  -14.1130   28.1805 C   0  0  0  0  0  0  0  0  0  0  0  0
   10.0278  -15.2707   27.4345 C   0  0  0  0  0  0  0  0  0  0  0  0
    9.4803  -15.3159   26.0658 C   0  0  0  0  0  0  0  0  0  0  0  0
    9.5322  -16.7029   25.4679 C   0  0  2  0  0  0  0  0  0  0  0  0
    8.9834  -16.7428   24.1345 N   0  0  0  0  0  0  0  0  0  0  0  0
    8.7786  -17.6862   26.2837 C   0  0  0  0  0  0  0  0  0  0  0  0
    9.4262  -18.5561   27.1513 O   0  0  0  0  0  0  0  0  0  0  0  0
   10.5251  -16.4202   28.0223 C   0  0  0  0  0  0  0  0  0  0  0  0
   11.0476  -16.4027   29.3137 C   0  0  0  0  0  0  0  0  0  0  0  0
    7.5110  -17.7869   26.2354 O   0  0  0  0  0  0  0  0  0  0  0  0
  2  1  1  0
  3  4  1  0
  3  2  1  0
  5  7  1  0
  5  6  1  6
  5  4  1  0
  7  8  2  0
  9 10  1  0
  9  7  1  0
 10 18  1  0
 10 11  1  1
 12 17  1  0
 12 11  1  0
 13 12  2  0
 14 15  2  0
 14 13  1  0
 15 16  1  0
 16 17  2  0
 18 19  2  0
 20 21  1  0
 21 22  2  0
 21 31  1  0
 22 23  1  0
 23 24  2  0
 24 25  1  0
 26 25  1  1
 26 28  1  0
 27 18  1  0
 27 26  1  0
 28 32  2  0
 28 29  1  0
 30 24  1  0
 31 30  2  0
M  END
$$$$
