MFY.pdb
     RDKit          3D

 32 33  0  0  1  0  0  0  0  0999 V2000
    7.7009  -11.8735   18.9423 C   0  0  0  0  0  0  0  0  0  0  0  0
    6.5523  -13.2382   18.6458 S   0  0  0  0  0  0  0  0  0  0  0  0
    7.1897  -14.7351   19.4546 C   0  0  0  0  0  0  0  0  0  0  0  0
    7.8983  -14.3207   20.7345 C   0  0  0  0  0  0  0  0  0  0  0  0
    8.3718  -15.5564   21.4773 C   0  0  2  0  0  0  0  0  0  0  0  0
    7.2203  -16.3690   21.7659 N   0  0  0  0  0  0  0  0  0  0  0  0
    9.1294  -15.2010   22.6992 C   0  0  0  0  0  0  0  0  0  0  0  0
   10.2054  -14.5663   22.5564 O   0  0  0  0  0  0  0  0  0  0  0  0
    8.7000  -15.5398   23.9904 N   0  0  0  0  0  0  0  0  0  0  0  0
    9.3141  -15.0757   25.2113 C   0  0  1  0  0  0  0  0  0  0  0  0
    8.3187  -15.0299   26.3527 C   0  0  0  0  0  0  0  0  0  0  0  0
    7.6260  -13.7412   26.3575 C   0  0  0  0  0  0  0  0  0  0  0  0
    8.3225  -12.5563   26.4119 C   0  0  0  0  0  0  0  0  0  0  0  0
    7.6239  -11.3499   26.4147 C   0  0  0  0  0  0  0  0  0  0  0  0
    6.2473  -11.3216   26.3641 C   0  0  0  0  0  0  0  0  0  0  0  0
    5.5469  -12.5055   26.3096 C   0  0  0  0  0  0  0  0  0  0  0  0
    6.2527  -13.6845   26.3077 C   0  0  0  0  0  0  0  0  0  0  0  0
   10.4532  -15.9596   25.5328 C   0  0  0  0  0  0  0  0  0  0  0  0
   11.0782  -15.7815   26.6043 O   0  0  0  0  0  0  0  0  0  0  0  0
   10.6572  -18.7879   31.3056 O   0  0  0  0  0  0  0  0  0  0  0  0
   10.7832  -18.9088   29.9211 C   0  0  0  0  0  0  0  0  0  0  0  0
    9.9280  -19.7032   29.1839 C   0  0  0  0  0  0  0  0  0  0  0  0
   10.0659  -19.8132   27.8088 C   0  0  0  0  0  0  0  0  0  0  0  0
   11.0533  -19.1409   27.1219 C   0  0  0  0  0  0  0  0  0  0  0  0
   11.2177  -19.2432   25.6598 C   0  0  0  0  0  0  0  0  0  0  0  0
   11.8626  -18.0135   25.0632 C   0  0  2  0  0  0  0  0  0  0  0  0
   10.8912  -17.0139   24.6921 N   0  0  0  0  0  0  0  0  0  0  0  0
   12.6493  -18.3354   23.8474 C   0  0  0  0  0  0  0  0  0  0  0  0
   12.3230  -17.7970   22.6095 O   0  0  0  0  0  0  0  0  0  0  0  0
   11.9087  -18.3455   27.8633 C   0  0  0  0  0  0  0  0  0  0  0  0
   11.7733  -18.2325   29.2454 C   0  0  0  0  0  0  0  0  0  0  0  0
   13.6557  -19.1137   23.8698 O   0  0  0  0  0  0  0  0  0  0  0  0
  2  1  1  0
  3  4  1  0
  3  2  1  0
  5  7  1  0
  5  6  1  1
  5  4  1  0
  7  8  2  0
  9 10  1  0
  9  7  1  0
 10 18  1  0
 10 11  1  1
 12 17  1  0
 12 11  1  0
 13 12  2  0
 14 15  2  0
 14 13  1  0
 15 16  1  0
 16 17  2  0
 18 19  2  0
 20 21  1  0
 21 22  2  0
 21 31  1  0
 22 23  1  0
 23 24  2  0
 24 25  1  0
 26 25  1  6
 26 28  1  0
 27 18  1  0
 27 26  1  0
 28 32  2  0
 28 29  1  0
 30 24  1  0
 31 30  2  0
M  END
$$$$
