GPP.pdb
     RDKit          3D

 19 20  0  0  1  0  0  0  0  0999 V2000
    6.7610  -18.4608   27.6635 N   0  0  0  0  0  0  0  0  0  0  0  0
    7.2139  -17.1097   27.6003 C   0  0  0  0  0  0  0  0  0  0  0  0
    6.6814  -16.3585   26.4519 C   0  0  0  0  0  0  0  0  0  0  0  0
    5.8213  -16.9043   25.7212 O   0  0  0  0  0  0  0  0  0  0  0  0
    7.1515  -15.0211   26.1873 N   0  0  0  0  0  0  0  0  0  0  0  0
    7.8493  -14.2453   27.1847 C   0  0  0  0  0  0  0  0  0  0  0  0
    7.8461  -12.8082   26.7498 C   0  0  0  0  0  0  0  0  0  0  0  0
    7.0822  -12.7977   25.4715 C   0  0  0  0  0  0  0  0  0  0  0  0
    7.0269  -14.2492   25.0092 C   0  0  1  0  0  0  0  0  0  0  0  0
    7.9887  -14.4206   23.9382 C   0  0  0  0  0  0  0  0  0  0  0  0
    9.0097  -15.1610   24.2564 O   0  0  0  0  0  0  0  0  0  0  0  0
    8.0095  -13.9307   22.6314 N   0  0  0  0  0  0  0  0  0  0  0  0
    7.4405  -12.6969   22.1564 C   0  0  0  0  0  0  0  0  0  0  0  0
    7.3736  -12.7993   20.6448 C   0  0  0  0  0  0  0  0  0  0  0  0
    7.6750  -14.2409   20.3510 C   0  0  0  0  0  0  0  0  0  0  0  0
    8.6284  -14.5803   21.5003 C   0  0  1  0  0  0  0  0  0  0  0  0
    9.9421  -14.0145   21.1561 C   0  0  0  0  0  0  0  0  0  0  0  0
   10.4092  -12.9595   21.6280 O   0  0  0  0  0  0  0  0  0  0  0  0
   10.7186  -14.7083   20.2368 O   0  0  0  0  0  0  0  0  0  0  0  0
  1  2  1  0
  3  2  1  0
  3  4  2  0
  5  3  1  0
  6  5  1  0
  7  8  1  0
  7  6  1  0
  8  9  1  0
  9  5  1  0
  9 10  1  6
 10 11  2  0
 12 10  1  0
 12 16  1  0
 13 12  1  0
 14 13  1  0
 14 15  1  0
 15 16  1  0
 16 17  1  6
 17 19  1  0
 18 17  2  0
M  END
$$$$
