GPP.pdb
     RDKit          3D

 19 20  0  0  1  0  0  0  0  0999 V2000
    5.7817  -19.5609   24.1758 N   0  0  0  0  0  0  0  0  0  0  0  0
    6.8812  -18.6522   24.1889 C   0  0  0  0  0  0  0  0  0  0  0  0
    6.6181  -17.3921   23.4751 C   0  0  0  0  0  0  0  0  0  0  0  0
    5.6732  -17.3514   22.6523 O   0  0  0  0  0  0  0  0  0  0  0  0
    7.4418  -16.2361   23.7299 N   0  0  0  0  0  0  0  0  0  0  0  0
    8.2609  -16.1276   24.9135 C   0  0  0  0  0  0  0  0  0  0  0  0
    8.6657  -14.6908   25.0752 C   0  0  0  0  0  0  0  0  0  0  0  0
    8.0086  -13.9792   23.9440 C   0  0  0  0  0  0  0  0  0  0  0  0
    7.5965  -15.0636   22.9551 C   0  0  1  0  0  0  0  0  0  0  0  0
    8.5392  -15.0545   21.8539 C   0  0  0  0  0  0  0  0  0  0  0  0
    9.3541  -16.0683   21.8458 O   0  0  0  0  0  0  0  0  0  0  0  0
    8.7239  -14.1508   20.8063 N   0  0  0  0  0  0  0  0  0  0  0  0
    8.3712  -12.7554   20.7898 C   0  0  0  0  0  0  0  0  0  0  0  0
    8.4002  -12.3140   19.3392 C   0  0  0  0  0  0  0  0  0  0  0  0
    8.5148  -13.5918   18.5587 C   0  0  0  0  0  0  0  0  0  0  0  0
    9.3248  -14.4557   19.5296 C   0  0  1  0  0  0  0  0  0  0  0  0
   10.7268  -14.0208   19.4317 C   0  0  0  0  0  0  0  0  0  0  0  0
   11.4922  -14.2910   18.4855 O   0  0  0  0  0  0  0  0  0  0  0  0
   11.2343  -13.2521   20.4714 O   0  0  0  0  0  0  0  0  0  0  0  0
  1  2  1  0
  3  2  1  0
  3  4  2  0
  5  3  1  0
  6  5  1  0
  7  8  1  0
  7  6  1  0
  8  9  1  0
  9  5  1  0
  9 10  1  6
 10 11  2  0
 12 10  1  0
 12 16  1  0
 13 12  1  0
 14 13  1  0
 14 15  1  0
 15 16  1  0
 16 17  1  1
 17 19  1  0
 18 17  2  0
M  END
$$$$
