GPP.pdb
     RDKit          3D

 19 20  0  0  1  0  0  0  0  0999 V2000
   11.2880  -17.3047   20.1444 N   0  0  0  0  0  0  0  0  0  0  0  0
    9.9949  -17.2338   20.7426 C   0  0  0  0  0  0  0  0  0  0  0  0
    9.8599  -16.1579   21.7379 C   0  0  0  0  0  0  0  0  0  0  0  0
   10.8395  -15.8903   22.4730 O   0  0  0  0  0  0  0  0  0  0  0  0
    8.6168  -15.4357   21.8517 N   0  0  0  0  0  0  0  0  0  0  0  0
    7.5427  -15.6095   20.9031 C   0  0  0  0  0  0  0  0  0  0  0  0
    6.5854  -14.4638   21.0616 C   0  0  0  0  0  0  0  0  0  0  0  0
    7.1843  -13.6097   22.1243 C   0  0  0  0  0  0  0  0  0  0  0  0
    8.2265  -14.4798   22.8176 C   0  0  1  0  0  0  0  0  0  0  0  0
    7.6755  -14.9260   24.0820 C   0  0  0  0  0  0  0  0  0  0  0  0
    7.3692  -16.1899   24.1099 O   0  0  0  0  0  0  0  0  0  0  0  0
    7.4173  -14.2381   25.2687 N   0  0  0  0  0  0  0  0  0  0  0  0
    6.4992  -13.1459   25.4581 C   0  0  0  0  0  0  0  0  0  0  0  0
    6.8575  -12.4977   26.7815 C   0  0  0  0  0  0  0  0  0  0  0  0
    8.1734  -13.1148   27.1594 C   0  0  0  0  0  0  0  0  0  0  0  0
    8.0276  -14.5114   26.5482 C   0  0  1  0  0  0  0  0  0  0  0  0
    7.1620  -15.2905   27.4472 C   0  0  0  0  0  0  0  0  0  0  0  0
    5.9530  -15.5211   27.2491 O   0  0  0  0  0  0  0  0  0  0  0  0
    7.7355  -15.8068   28.6021 O   0  0  0  0  0  0  0  0  0  0  0  0
  1  2  1  0
  3  2  1  0
  3  4  2  0
  5  3  1  0
  6  5  1  0
  7  8  1  0
  7  6  1  0
  8  9  1  0
  9  5  1  0
  9 10  1  1
 10 11  2  0
 12 10  1  0
 12 16  1  0
 13 12  1  0
 14 13  1  0
 14 15  1  0
 15 16  1  0
 16 17  1  1
 17 19  1  0
 18 17  2  0
M  END
$$$$
