GPP.pdb
     RDKit          3D

 19 20  0  0  1  0  0  0  0  0999 V2000
   11.6824  -16.9456   20.2413 N   0  0  0  0  0  0  0  0  0  0  0  0
   10.4403  -17.0531   20.9344 C   0  0  0  0  0  0  0  0  0  0  0  0
   10.1402  -15.8987   21.7969 C   0  0  0  0  0  0  0  0  0  0  0  0
   11.0912  -15.2894   22.3409 O   0  0  0  0  0  0  0  0  0  0  0  0
    8.7723  -15.4903   22.0012 N   0  0  0  0  0  0  0  0  0  0  0  0
    7.6776  -16.1017   21.2861 C   0  0  0  0  0  0  0  0  0  0  0  0
    6.4746  -15.2130   21.4186 C   0  0  0  0  0  0  0  0  0  0  0  0
    6.9468  -14.0475   22.2162 C   0  0  0  0  0  0  0  0  0  0  0  0
    8.2599  -14.4859   22.8543 C   0  0  1  0  0  0  0  0  0  0  0  0
    8.0058  -14.7939   24.2478 C   0  0  0  0  0  0  0  0  0  0  0  0
    8.3042  -16.0147   24.5835 O   0  0  0  0  0  0  0  0  0  0  0  0
    7.4984  -14.0120   25.2867 N   0  0  0  0  0  0  0  0  0  0  0  0
    6.2702  -13.2615   25.2897 C   0  0  0  0  0  0  0  0  0  0  0  0
    6.3539  -12.2901   26.4513 C   0  0  0  0  0  0  0  0  0  0  0  0
    7.7850  -12.3624   26.9007 C   0  0  0  0  0  0  0  0  0  0  0  0
    8.1202  -13.8209   26.5755 C   0  0  1  0  0  0  0  0  0  0  0  0
    7.5232  -14.6499   27.6342 C   0  0  0  0  0  0  0  0  0  0  0  0
    7.9654  -14.7495   28.7955 O   0  0  0  0  0  0  0  0  0  0  0  0
    6.3824  -15.3751   27.3149 O   0  0  0  0  0  0  0  0  0  0  0  0
  1  2  1  0
  3  2  1  0
  3  4  2  0
  5  3  1  0
  6  5  1  0
  7  8  1  0
  7  6  1  0
  8  9  1  0
  9  5  1  0
  9 10  1  1
 10 11  2  0
 12 10  1  0
 12 16  1  0
 13 12  1  0
 14 13  1  0
 14 15  1  0
 15 16  1  0
 16 17  1  1
 17 19  1  0
 18 17  2  0
M  END
$$$$
