GPP.pdb
     RDKit          3D

 19 20  0  0  1  0  0  0  0  0999 V2000
   11.8742  -17.0212   20.4790 N   0  0  0  0  0  0  0  0  0  0  0  0
   10.5020  -16.9657   20.8648 C   0  0  0  0  0  0  0  0  0  0  0  0
   10.1809  -15.8379   21.7544 C   0  0  0  0  0  0  0  0  0  0  0  0
   11.1190  -15.2404   22.3328 O   0  0  0  0  0  0  0  0  0  0  0  0
    8.8076  -15.4413   21.9453 N   0  0  0  0  0  0  0  0  0  0  0  0
    7.7345  -16.0000   21.1579 C   0  0  0  0  0  0  0  0  0  0  0  0
    6.5284  -15.1198   21.3150 C   0  0  0  0  0  0  0  0  0  0  0  0
    6.9767  -14.0124   22.2039 C   0  0  0  0  0  0  0  0  0  0  0  0
    8.2701  -14.4963   22.8494 C   0  0  1  0  0  0  0  0  0  0  0  0
    7.9746  -14.8980   24.2105 C   0  0  0  0  0  0  0  0  0  0  0  0
    8.2562  -16.1414   24.4689 O   0  0  0  0  0  0  0  0  0  0  0  0
    7.4422  -14.1860   25.2865 N   0  0  0  0  0  0  0  0  0  0  0  0
    6.3200  -13.2850   25.2625 C   0  0  0  0  0  0  0  0  0  0  0  0
    6.3780  -12.4798   26.5463 C   0  0  0  0  0  0  0  0  0  0  0  0
    7.7261  -12.7947   27.1281 C   0  0  0  0  0  0  0  0  0  0  0  0
    7.9230  -14.2351   26.6469 C   0  0  1  0  0  0  0  0  0  0  0  0
    7.1095  -15.0985   27.5169 C   0  0  0  0  0  0  0  0  0  0  0  0
    5.9856  -15.5503   27.2224 O   0  0  0  0  0  0  0  0  0  0  0  0
    7.6337  -15.4346   28.7585 O   0  0  0  0  0  0  0  0  0  0  0  0
  1  2  1  0
  3  2  1  0
  3  4  2  0
  5  3  1  0
  6  5  1  0
  7  8  1  0
  7  6  1  0
  8  9  1  0
  9  5  1  0
  9 10  1  1
 10 11  2  0
 12 10  1  0
 12 16  1  0
 13 12  1  0
 14 13  1  0
 14 15  1  0
 15 16  1  0
 16 17  1  1
 17 19  1  0
 18 17  2  0
M  END
$$$$
