GPP.pdb
     RDKit          3D

 19 20  0  0  1  0  0  0  0  0999 V2000
   11.6974  -16.8858   20.2638 N   0  0  0  0  0  0  0  0  0  0  0  0
   10.4391  -17.0010   20.9256 C   0  0  0  0  0  0  0  0  0  0  0  0
   10.1344  -15.8737   21.8216 C   0  0  0  0  0  0  0  0  0  0  0  0
   11.0825  -15.2816   22.3892 O   0  0  0  0  0  0  0  0  0  0  0  0
    8.7654  -15.4715   22.0310 N   0  0  0  0  0  0  0  0  0  0  0  0
    7.6756  -16.0531   21.2844 C   0  0  0  0  0  0  0  0  0  0  0  0
    6.4727  -15.1685   21.4420 C   0  0  0  0  0  0  0  0  0  0  0  0
    6.9400  -14.0353   22.2877 C   0  0  0  0  0  0  0  0  0  0  0  0
    8.2476  -14.5001   22.9184 C   0  0  1  0  0  0  0  0  0  0  0  0
    7.9824  -14.8614   24.2970 C   0  0  0  0  0  0  0  0  0  0  0  0
    8.1925  -16.1167   24.5655 O   0  0  0  0  0  0  0  0  0  0  0  0
    7.5422  -14.1000   25.3809 N   0  0  0  0  0  0  0  0  0  0  0  0
    6.4002  -13.2251   25.4217 C   0  0  0  0  0  0  0  0  0  0  0  0
    6.5656  -12.3467   26.6469 C   0  0  0  0  0  0  0  0  0  0  0  0
    7.9731  -12.6001   27.1050 C   0  0  0  0  0  0  0  0  0  0  0  0
    8.1583  -14.0613   26.6859 C   0  0  1  0  0  0  0  0  0  0  0  0
    7.4591  -14.8901   27.6803 C   0  0  0  0  0  0  0  0  0  0  0  0
    7.8762  -15.1259   28.8311 O   0  0  0  0  0  0  0  0  0  0  0  0
    6.2441  -15.4509   27.3080 O   0  0  0  0  0  0  0  0  0  0  0  0
  1  2  1  0
  3  2  1  0
  3  4  2  0
  5  3  1  0
  6  5  1  0
  7  8  1  0
  7  6  1  0
  8  9  1  0
  9  5  1  0
  9 10  1  1
 10 11  2  0
 12 10  1  0
 12 16  1  0
 13 12  1  0
 14 13  1  0
 14 15  1  0
 15 16  1  0
 16 17  1  1
 17 19  1  0
 18 17  2  0
M  END
$$$$
