GPP.pdb
     RDKit          3D

 19 20  0  0  1  0  0  0  0  0999 V2000
    7.7959  -14.9957   20.7126 N   0  0  0  0  0  0  0  0  0  0  0  0
    7.2049  -14.9099   22.0081 C   0  0  0  0  0  0  0  0  0  0  0  0
    8.1463  -14.5032   23.0639 C   0  0  0  0  0  0  0  0  0  0  0  0
    9.3745  -14.5114   22.8124 O   0  0  0  0  0  0  0  0  0  0  0  0
    7.6478  -14.1057   24.3575 N   0  0  0  0  0  0  0  0  0  0  0  0
    6.2362  -13.9543   24.6186 C   0  0  0  0  0  0  0  0  0  0  0  0
    6.0744  -13.1708   25.8891 C   0  0  0  0  0  0  0  0  0  0  0  0
    7.4636  -12.8533   26.3217 C   0  0  0  0  0  0  0  0  0  0  0  0
    8.3686  -13.7927   25.5329 C   0  0  1  0  0  0  0  0  0  0  0  0
    8.7930  -14.8609   26.4162 C   0  0  0  0  0  0  0  0  0  0  0  0
    8.4544  -16.0496   26.0108 O   0  0  0  0  0  0  0  0  0  0  0  0
    9.4979  -14.8354   27.6206 N   0  0  0  0  0  0  0  0  0  0  0  0
    9.3087  -13.9251   28.7193 C   0  0  0  0  0  0  0  0  0  0  0  0
   10.5384  -14.0400   29.5994 C   0  0  0  0  0  0  0  0  0  0  0  0
   11.5109  -14.8438   28.7849 C   0  0  0  0  0  0  0  0  0  0  0  0
   10.5566  -15.7431   27.9939 C   0  0  1  0  0  0  0  0  0  0  0  0
   10.1102  -16.8092   28.9041 C   0  0  0  0  0  0  0  0  0  0  0  0
    8.9697  -16.8908   29.4007 O   0  0  0  0  0  0  0  0  0  0  0  0
   11.0285  -17.7977   29.2340 O   0  0  0  0  0  0  0  0  0  0  0  0
  1  2  1  0
  3  2  1  0
  3  4  2  0
  5  3  1  0
  6  5  1  0
  7  8  1  0
  7  6  1  0
  8  9  1  0
  9  5  1  0
  9 10  1  1
 10 11  2  0
 12 10  1  0
 12 16  1  0
 13 12  1  0
 14 13  1  0
 14 15  1  0
 15 16  1  0
 16 17  1  1
 17 19  1  0
 18 17  2  0
M  END
$$$$
