GPP.pdb
     RDKit          3D

 19 20  0  0  1  0  0  0  0  0999 V2000
    6.3871  -19.3239   25.3947 N   0  0  0  0  0  0  0  0  0  0  0  0
    6.9016  -18.0295   25.7023 C   0  0  0  0  0  0  0  0  0  0  0  0
    6.4465  -16.9758   24.7809 C   0  0  0  0  0  0  0  0  0  0  0  0
    5.5466  -17.2477   23.9516 O   0  0  0  0  0  0  0  0  0  0  0  0
    7.0359  -15.6612   24.8449 N   0  0  0  0  0  0  0  0  0  0  0  0
    7.6774  -15.1689   26.0406 C   0  0  0  0  0  0  0  0  0  0  0  0
    7.8224  -13.6796   25.9174 C   0  0  0  0  0  0  0  0  0  0  0  0
    7.2009  -13.3424   24.6069 C   0  0  0  0  0  0  0  0  0  0  0  0
    7.0920  -14.6600   23.8481 C   0  0  1  0  0  0  0  0  0  0  0  0
    8.1472  -14.6994   22.8549 C   0  0  0  0  0  0  0  0  0  0  0  0
    9.1122  -15.5238   23.1397 O   0  0  0  0  0  0  0  0  0  0  0  0
    8.3070  -14.0092   21.6523 N   0  0  0  0  0  0  0  0  0  0  0  0
    7.9021  -12.6583   21.3650 C   0  0  0  0  0  0  0  0  0  0  0  0
    7.9274  -12.5053   19.8564 C   0  0  0  0  0  0  0  0  0  0  0  0
    8.0973  -13.9047   19.3386 C   0  0  0  0  0  0  0  0  0  0  0  0
    8.9305  -14.5321   20.4598 C   0  0  1  0  0  0  0  0  0  0  0  0
   10.3159  -14.0704   20.2816 C   0  0  0  0  0  0  0  0  0  0  0  0
   11.0837  -14.4531   19.3771 O   0  0  0  0  0  0  0  0  0  0  0  0
   10.8036  -13.1388   21.1892 O   0  0  0  0  0  0  0  0  0  0  0  0
  1  2  1  0
  3  2  1  0
  3  4  2  0
  5  3  1  0
  6  5  1  0
  7  8  1  0
  7  6  1  0
  8  9  1  0
  9  5  1  0
  9 10  1  6
 10 11  2  0
 12 10  1  0
 12 16  1  0
 13 12  1  0
 14 13  1  0
 14 15  1  0
 15 16  1  0
 16 17  1  6
 17 19  1  0
 18 17  2  0
M  END
$$$$
