GPP.pdb
     RDKit          3D

 19 20  0  0  1  0  0  0  0  0999 V2000
    5.8222  -19.8617   24.3353 N   0  0  0  0  0  0  0  0  0  0  0  0
    6.8378  -18.8652   24.4353 C   0  0  0  0  0  0  0  0  0  0  0  0
    6.4422  -17.5577   23.8872 C   0  0  0  0  0  0  0  0  0  0  0  0
    5.3509  -17.4650   23.2773 O   0  0  0  0  0  0  0  0  0  0  0  0
    7.3059  -16.4155   24.0580 N   0  0  0  0  0  0  0  0  0  0  0  0
    8.2359  -16.3185   25.1577 C   0  0  0  0  0  0  0  0  0  0  0  0
    8.6785  -14.8886   25.2745 C   0  0  0  0  0  0  0  0  0  0  0  0
    7.9287  -14.1682   24.2085 C   0  0  0  0  0  0  0  0  0  0  0  0
    7.4059  -15.2475   23.2674 C   0  0  1  0  0  0  0  0  0  0  0  0
    8.2393  -15.2571   22.0814 C   0  0  0  0  0  0  0  0  0  0  0  0
    9.0094  -16.3008   21.9834 O   0  0  0  0  0  0  0  0  0  0  0  0
    8.3589  -14.3448   21.0318 N   0  0  0  0  0  0  0  0  0  0  0  0
    8.0839  -12.9326   21.0720 C   0  0  0  0  0  0  0  0  0  0  0  0
    7.9799  -12.4660   19.6327 C   0  0  0  0  0  0  0  0  0  0  0  0
    7.9389  -13.7331   18.8278 C   0  0  0  0  0  0  0  0  0  0  0  0
    8.8004  -14.6572   19.6932 C   0  0  1  0  0  0  0  0  0  0  0  0
   10.2054  -14.2959   19.4486 C   0  0  0  0  0  0  0  0  0  0  0  0
   10.8963  -13.5759   20.1958 O   0  0  0  0  0  0  0  0  0  0  0  0
   10.8055  -14.7945   18.2995 O   0  0  0  0  0  0  0  0  0  0  0  0
  1  2  1  0
  3  2  1  0
  3  4  2  0
  5  3  1  0
  6  5  1  0
  7  8  1  0
  7  6  1  0
  8  9  1  0
  9  5  1  0
  9 10  1  6
 10 11  2  0
 12 10  1  0
 12 16  1  0
 13 12  1  0
 14 13  1  0
 14 15  1  0
 15 16  1  0
 16 17  1  1
 17 19  1  0
 18 17  2  0
M  END
$$$$
