GPP.pdb
     RDKit          3D

 19 20  0  0  1  0  0  0  0  0999 V2000
    7.5429  -14.5032   20.8490 N   0  0  0  0  0  0  0  0  0  0  0  0
    6.9572  -14.4434   22.1483 C   0  0  0  0  0  0  0  0  0  0  0  0
    7.9215  -14.1498   23.2209 C   0  0  0  0  0  0  0  0  0  0  0  0
    9.1468  -14.2099   22.9629 O   0  0  0  0  0  0  0  0  0  0  0  0
    7.4480  -13.8015   24.5378 N   0  0  0  0  0  0  0  0  0  0  0  0
    6.0439  -13.6254   24.8229 C   0  0  0  0  0  0  0  0  0  0  0  0
    5.9172  -12.8994   26.1310 C   0  0  0  0  0  0  0  0  0  0  0  0
    7.3191  -12.6398   26.5612 C   0  0  0  0  0  0  0  0  0  0  0  0
    8.1898  -13.5640   25.7178 C   0  0  1  0  0  0  0  0  0  0  0  0
    8.5948  -14.6839   26.5443 C   0  0  0  0  0  0  0  0  0  0  0  0
    8.0558  -15.8172   26.2019 O   0  0  0  0  0  0  0  0  0  0  0  0
    9.4579  -14.7569   27.6388 N   0  0  0  0  0  0  0  0  0  0  0  0
    9.4286  -13.9417   28.8246 C   0  0  0  0  0  0  0  0  0  0  0  0
   10.7661  -14.1261   29.5154 C   0  0  0  0  0  0  0  0  0  0  0  0
   11.6111  -14.8567   28.5116 C   0  0  0  0  0  0  0  0  0  0  0  0
   10.5498  -15.6896   27.7871 C   0  0  1  0  0  0  0  0  0  0  0  0
   10.2227  -16.8290   28.6584 C   0  0  0  0  0  0  0  0  0  0  0  0
   10.9848  -17.7867   28.8952 O   0  0  0  0  0  0  0  0  0  0  0  0
    8.9715  -16.8372   29.2615 O   0  0  0  0  0  0  0  0  0  0  0  0
  1  2  1  0
  3  2  1  0
  3  4  2  0
  5  3  1  0
  6  5  1  0
  7  8  1  0
  7  6  1  0
  8  9  1  0
  9  5  1  0
  9 10  1  1
 10 11  2  0
 12 10  1  0
 12 16  1  0
 13 12  1  0
 14 13  1  0
 14 15  1  0
 15 16  1  0
 16 17  1  1
 17 19  1  0
 18 17  2  0
M  END
$$$$
