EMN.pdb
     RDKit          3D

 26 25  0  0  1  0  0  0  0  0999 V2000
   22.0191  -13.7568  -19.3527 N   0  0  0  0  0  0  0  0  0  0  0  0
   21.0092  -13.2352  -18.4624 C   0  0  1  0  0  0  0  0  0  0  0  0
   20.1851  -14.4089  -18.0195 C   0  0  0  0  0  0  0  0  0  0  0  0
   20.3451  -15.6448  -18.8339 C   0  0  0  0  0  0  0  0  0  0  0  0
   21.4778  -16.5013  -18.4658 C   0  0  0  0  0  0  0  0  0  0  0  0
   22.4479  -16.7978  -19.2016 O   0  0  0  0  0  0  0  0  0  0  0  0
   21.5446  -12.4053  -17.3901 C   0  0  0  0  0  0  0  0  0  0  0  0
   20.7686  -11.9950  -16.4918 O   0  0  0  0  0  0  0  0  0  0  0  0
   21.4787  -17.0369  -17.1794 O   0  0  0  0  0  0  0  0  0  0  0  0
   27.3184  -14.5872  -14.7943 C   0  0  0  0  0  0  0  0  0  0  0  0
   26.9185  -12.8655  -15.2046 S   0  0  0  0  0  0  0  0  0  0  0  0
   25.1453  -12.6850  -15.5208 C   0  0  0  0  0  0  0  0  0  0  0  0
   24.7814  -11.2636  -15.8767 C   0  0  0  0  0  0  0  0  0  0  0  0
   23.3372  -11.1136  -16.2268 C   0  0  2  0  0  0  0  0  0  0  0  0
   22.9085  -12.0098  -17.2727 N   0  0  0  0  0  0  0  0  0  0  0  0
   22.9806   -9.7044  -16.5679 C   0  0  0  0  0  0  0  0  0  0  0  0
   23.2837   -9.3243  -17.7203 O   0  0  0  0  0  0  0  0  0  0  0  0
   19.5750   -5.7572  -18.3903 N   0  0  0  0  0  0  0  0  0  0  0  0
   20.5846   -6.0214  -17.4421 C   0  0  0  0  0  0  0  0  0  0  0  0
   21.3000   -5.0912  -17.0218 O   0  0  0  0  0  0  0  0  0  0  0  0
   20.7926   -7.3985  -16.9491 C   0  0  0  0  0  0  0  0  0  0  0  0
   21.9039   -7.4800  -15.8977 C   0  0  2  0  0  0  0  0  0  0  0  0
   22.3472   -8.8424  -15.6729 N   0  0  0  0  0  0  0  0  0  0  0  0
   21.3668   -6.8894  -14.6786 C   0  0  0  0  0  0  0  0  0  0  0  0
   20.9516   -7.6574  -13.7514 O   0  0  0  0  0  0  0  0  0  0  0  0
   21.2648   -5.5344  -14.4321 O   0  0  0  0  0  0  0  0  0  0  0  0
  2  1  1  1
  2  7  1  0
  3  2  1  0
  3  4  1  0
  4  5  1  0
  5  9  1  0
  6  5  2  0
  7  8  2  0
 10 11  1  0
 11 12  1  0
 12 13  1  0
 14 13  1  6
 14 16  1  0
 15  7  1  0
 15 14  1  0
 16 17  2  0
 18 19  1  0
 19 20  2  0
 21 19  1  0
 22 21  1  6
 22 24  1  0
 23 22  1  0
 23 16  1  0
 24 25  2  0
 24 26  1  0
M  END
$$$$
