EMN.pdb
     RDKit          3D

 26 25  0  0  1  0  0  0  0  0999 V2000
   27.2259  -22.4330  -15.7600 N   0  0  0  0  0  0  0  0  0  0  0  0
   27.3479  -21.3393  -14.8254 C   0  0  1  0  0  0  0  0  0  0  0  0
   27.2214  -20.0774  -15.6283 C   0  0  0  0  0  0  0  0  0  0  0  0
   26.0940  -20.0496  -16.6001 C   0  0  0  0  0  0  0  0  0  0  0  0
   25.9579  -18.8106  -17.3739 C   0  0  0  0  0  0  0  0  0  0  0  0
   26.6882  -18.4525  -18.3272 O   0  0  0  0  0  0  0  0  0  0  0  0
   26.4536  -21.4448  -13.6791 C   0  0  0  0  0  0  0  0  0  0  0  0
   25.3018  -21.9169  -13.8463 O   0  0  0  0  0  0  0  0  0  0  0  0
   24.9217  -17.9494  -17.0188 O   0  0  0  0  0  0  0  0  0  0  0  0
   26.7426  -18.9109   -7.1945 C   0  0  0  0  0  0  0  0  0  0  0  0
   26.0773  -20.5990   -7.2159 S   0  0  0  0  0  0  0  0  0  0  0  0
   25.3650  -20.9788   -8.8361 C   0  0  0  0  0  0  0  0  0  0  0  0
   26.3999  -20.9096   -9.9333 C   0  0  0  0  0  0  0  0  0  0  0  0
   25.8085  -21.1070  -11.2906 C   0  0  2  0  0  0  0  0  0  0  0  0
   26.7842  -21.0469  -12.3514 N   0  0  0  0  0  0  0  0  0  0  0  0
   24.6840  -20.1628  -11.5611 C   0  0  0  0  0  0  0  0  0  0  0  0
   24.9962  -19.0736  -12.0909 O   0  0  0  0  0  0  0  0  0  0  0  0
   19.9570  -19.7244  -13.6444 N   0  0  0  0  0  0  0  0  0  0  0  0
   21.0848  -20.2897  -14.2740 C   0  0  0  0  0  0  0  0  0  0  0  0
   21.0534  -20.5412  -15.4945 O   0  0  0  0  0  0  0  0  0  0  0  0
   22.3004  -20.5829  -13.4872 C   0  0  0  0  0  0  0  0  0  0  0  0
   22.1654  -20.1524  -12.0231 C   0  0  2  0  0  0  0  0  0  0  0  0
   23.3556  -20.4536  -11.2510 N   0  0  0  0  0  0  0  0  0  0  0  0
   20.9994  -20.8460  -11.4916 C   0  0  0  0  0  0  0  0  0  0  0  0
   19.8566  -20.6150  -12.0042 O   0  0  0  0  0  0  0  0  0  0  0  0
   21.0231  -21.7563  -10.4533 O   0  0  0  0  0  0  0  0  0  0  0  0
  2  1  1  6
  2  7  1  0
  3  2  1  0
  3  4  1  0
  4  5  1  0
  5  9  1  0
  6  5  2  0
  7  8  2  0
 10 11  1  0
 11 12  1  0
 12 13  1  0
 14 13  1  1
 14 16  1  0
 15  7  1  0
 15 14  1  0
 16 17  2  0
 18 19  1  0
 19 20  2  0
 21 19  1  0
 22 21  1  6
 22 24  1  0
 23 22  1  0
 23 16  1  0
 24 25  2  0
 24 26  1  0
M  END
$$$$
