EMN.pdb
     RDKit          3D

 26 25  0  0  1  0  0  0  0  0999 V2000
   18.7352  -14.3378  -15.7858 N   0  0  0  0  0  0  0  0  0  0  0  0
   19.0174  -13.1894  -16.6141 C   0  0  1  0  0  0  0  0  0  0  0  0
   17.7122  -12.7786  -17.2309 C   0  0  0  0  0  0  0  0  0  0  0  0
   17.0336  -13.8243  -18.0448 C   0  0  0  0  0  0  0  0  0  0  0  0
   15.7177  -13.4546  -18.5776 C   0  0  0  0  0  0  0  0  0  0  0  0
   15.1167  -12.3740  -18.3739 O   0  0  0  0  0  0  0  0  0  0  0  0
   19.7439  -12.1317  -15.9224 C   0  0  0  0  0  0  0  0  0  0  0  0
   19.3997  -11.8182  -14.7559 O   0  0  0  0  0  0  0  0  0  0  0  0
   15.0729  -14.3891  -19.3854 O   0  0  0  0  0  0  0  0  0  0  0  0
   26.2121  -10.4560  -16.2307 C   0  0  0  0  0  0  0  0  0  0  0  0
   25.5185  -10.1262  -14.5867 S   0  0  0  0  0  0  0  0  0  0  0  0
   23.7541   -9.7405  -14.7092 C   0  0  0  0  0  0  0  0  0  0  0  0
   23.0131  -10.7630  -15.5368 C   0  0  0  0  0  0  0  0  0  0  0  0
   21.5628  -10.4376  -15.6837 C   0  0  2  0  0  0  0  0  0  0  0  0
   20.8391  -11.4046  -16.4724 N   0  0  0  0  0  0  0  0  0  0  0  0
   21.3426   -9.0599  -16.2154 C   0  0  0  0  0  0  0  0  0  0  0  0
   21.7580   -8.8456  -17.3755 O   0  0  0  0  0  0  0  0  0  0  0  0
   17.9805   -4.2514  -15.9190 N   0  0  0  0  0  0  0  0  0  0  0  0
   19.2098   -4.5849  -15.3143 C   0  0  0  0  0  0  0  0  0  0  0  0
   20.0647   -3.6996  -15.1167 O   0  0  0  0  0  0  0  0  0  0  0  0
   19.4822   -5.9814  -14.9166 C   0  0  0  0  0  0  0  0  0  0  0  0
   20.4374   -6.6877  -15.8841 C   0  0  2  0  0  0  0  0  0  0  0  0
   20.7138   -8.0536  -15.4824 N   0  0  0  0  0  0  0  0  0  0  0  0
   21.6559   -5.8895  -15.9220 C   0  0  0  0  0  0  0  0  0  0  0  0
   21.8337   -5.0795  -16.8886 O   0  0  0  0  0  0  0  0  0  0  0  0
   22.6628   -5.9341  -14.9778 O   0  0  0  0  0  0  0  0  0  0  0  0
  2  1  1  1
  2  7  1  0
  3  2  1  0
  3  4  1  0
  4  5  1  0
  5  9  1  0
  6  5  2  0
  7  8  2  0
 10 11  1  0
 11 12  1  0
 12 13  1  0
 14 13  1  6
 14 16  1  0
 15  7  1  0
 15 14  1  0
 16 17  2  0
 18 19  1  0
 19 20  2  0
 21 19  1  0
 22 21  1  1
 22 24  1  0
 23 22  1  0
 23 16  1  0
 24 25  2  0
 24 26  1  0
M  END
$$$$
