EMN.pdb
     RDKit          3D

 26 25  0  0  1  0  0  0  0  0999 V2000
   15.1571  -12.2537  -11.7061 N   0  0  0  0  0  0  0  0  0  0  0  0
   16.0796  -11.1490  -11.8198 C   0  0  1  0  0  0  0  0  0  0  0  0
   16.5976  -11.1704  -13.2285 C   0  0  0  0  0  0  0  0  0  0  0  0
   17.3359  -12.4029  -13.6183 C   0  0  0  0  0  0  0  0  0  0  0  0
   18.0018  -12.3533  -14.9246 C   0  0  0  0  0  0  0  0  0  0  0  0
   18.6840  -13.2696  -15.4399 O   0  0  0  0  0  0  0  0  0  0  0  0
   15.5274   -9.8755  -11.3746 C   0  0  0  0  0  0  0  0  0  0  0  0
   14.5286   -9.4025  -11.9714 O   0  0  0  0  0  0  0  0  0  0  0  0
   17.8656  -11.1802  -15.6640 O   0  0  0  0  0  0  0  0  0  0  0  0
   11.2220   -9.0839   -6.7005 C   0  0  0  0  0  0  0  0  0  0  0  0
   12.8723   -8.3331   -6.7741 S   0  0  0  0  0  0  0  0  0  0  0  0
   13.5186   -8.3885   -8.4641 C   0  0  0  0  0  0  0  0  0  0  0  0
   14.9047   -7.7968   -8.5536 C   0  0  0  0  0  0  0  0  0  0  0  0
   15.4526   -7.8312   -9.9426 C   0  0  2  0  0  0  0  0  0  0  0  0
   16.0386   -9.1021  -10.2925 N   0  0  0  0  0  0  0  0  0  0  0  0
   16.4195   -6.7224  -10.1976 C   0  0  0  0  0  0  0  0  0  0  0  0
   17.6103   -6.9499   -9.8901 O   0  0  0  0  0  0  0  0  0  0  0  0
   18.4146   -3.3531  -14.5508 N   0  0  0  0  0  0  0  0  0  0  0  0
   18.0615   -3.4275  -13.1878 C   0  0  0  0  0  0  0  0  0  0  0  0
   18.4605   -2.5526  -12.3946 O   0  0  0  0  0  0  0  0  0  0  0  0
   17.2204   -4.5409  -12.7025 C   0  0  0  0  0  0  0  0  0  0  0  0
   16.8957   -4.4193  -11.2102 C   0  0  2  0  0  0  0  0  0  0  0  0
   16.0429   -5.4961  -10.7450 N   0  0  0  0  0  0  0  0  0  0  0  0
   16.2581   -3.1218  -11.0280 C   0  0  0  0  0  0  0  0  0  0  0  0
   14.9977   -3.0257  -11.1837 O   0  0  0  0  0  0  0  0  0  0  0  0
   16.9162   -1.9549  -10.6925 O   0  0  0  0  0  0  0  0  0  0  0  0
  2  1  1  6
  2  7  1  0
  3  2  1  0
  3  4  1  0
  4  5  1  0
  5  9  1  0
  6  5  2  0
  7  8  2  0
 10 11  1  0
 11 12  1  0
 12 13  1  0
 14 13  1  1
 14 16  1  0
 15  7  1  0
 15 14  1  0
 16 17  2  0
 18 19  1  0
 19 20  2  0
 21 19  1  0
 22 21  1  6
 22 24  1  0
 23 22  1  0
 23 16  1  0
 24 25  2  0
 24 26  1  0
M  END
$$$$
