EMN.pdb
     RDKit          3D

 26 25  0  0  1  0  0  0  0  0999 V2000
   26.6275  -22.4219  -15.7268 N   0  0  0  0  0  0  0  0  0  0  0  0
   26.8773  -21.3148  -14.8345 C   0  0  1  0  0  0  0  0  0  0  0  0
   26.5191  -20.0690  -15.5912 C   0  0  0  0  0  0  0  0  0  0  0  0
   26.5462  -20.1933  -17.0745 C   0  0  0  0  0  0  0  0  0  0  0  0
   27.8345  -19.8950  -17.7096 C   0  0  0  0  0  0  0  0  0  0  0  0
   28.2854  -18.7534  -17.9623 O   0  0  0  0  0  0  0  0  0  0  0  0
   26.2441  -21.4589  -13.5294 C   0  0  0  0  0  0  0  0  0  0  0  0
   25.2600  -22.2305  -13.4114 O   0  0  0  0  0  0  0  0  0  0  0  0
   28.6340  -20.9790  -18.0667 O   0  0  0  0  0  0  0  0  0  0  0  0
   25.7886  -20.1653   -5.6981 C   0  0  0  0  0  0  0  0  0  0  0  0
   26.8156  -20.0866   -7.1920 S   0  0  0  0  0  0  0  0  0  0  0  0
   25.8465  -20.5421   -8.6515 C   0  0  0  0  0  0  0  0  0  0  0  0
   26.6845  -20.5279   -9.9074 C   0  0  0  0  0  0  0  0  0  0  0  0
   25.8953  -20.8796  -11.1256 C   0  0  2  0  0  0  0  0  0  0  0  0
   26.6574  -20.7806  -12.3464 N   0  0  0  0  0  0  0  0  0  0  0  0
   24.6341  -20.0875  -11.2316 C   0  0  0  0  0  0  0  0  0  0  0  0
   24.7571  -18.9096  -11.6338 O   0  0  0  0  0  0  0  0  0  0  0  0
   20.1361  -20.3266  -14.5439 N   0  0  0  0  0  0  0  0  0  0  0  0
   20.7842  -19.6542  -13.4875 C   0  0  0  0  0  0  0  0  0  0  0  0
   20.2760  -18.6244  -13.0028 O   0  0  0  0  0  0  0  0  0  0  0  0
   22.0629  -20.1706  -12.9577 C   0  0  0  0  0  0  0  0  0  0  0  0
   22.0842  -20.2157  -11.4264 C   0  0  2  0  0  0  0  0  0  0  0  0
   23.3808  -20.6064  -10.9073 N   0  0  0  0  0  0  0  0  0  0  0  0
   21.0467  -21.1565  -11.0238 C   0  0  0  0  0  0  0  0  0  0  0  0
   21.2342  -22.4016  -11.2151 O   0  0  0  0  0  0  0  0  0  0  0  0
   19.8455  -20.8092  -10.4375 O   0  0  0  0  0  0  0  0  0  0  0  0
  2  1  1  6
  2  7  1  0
  3  2  1  0
  3  4  1  0
  4  5  1  0
  5  9  1  0
  6  5  2  0
  7  8  2  0
 10 11  1  0
 11 12  1  0
 12 13  1  0
 14 13  1  1
 14 16  1  0
 15  7  1  0
 15 14  1  0
 16 17  2  0
 18 19  1  0
 19 20  2  0
 21 19  1  0
 22 21  1  6
 22 24  1  0
 23 22  1  0
 23 16  1  0
 24 25  2  0
 24 26  1  0
M  END
$$$$
