EMN.pdb
     RDKit          3D

 26 25  0  0  1  0  0  0  0  0999 V2000
   27.5271  -19.2571  -15.2242 N   0  0  0  0  0  0  0  0  0  0  0  0
   26.6871  -20.4068  -15.4631 C   0  0  1  0  0  0  0  0  0  0  0  0
   27.4957  -21.3589  -16.2954 C   0  0  0  0  0  0  0  0  0  0  0  0
   28.9726  -21.2198  -16.1707 C   0  0  0  0  0  0  0  0  0  0  0  0
   29.7068  -21.1235  -17.4372 C   0  0  0  0  0  0  0  0  0  0  0  0
   30.2389  -20.0896  -17.9043 O   0  0  0  0  0  0  0  0  0  0  0  0
   26.1069  -20.9715  -14.2508 C   0  0  0  0  0  0  0  0  0  0  0  0
   25.3020  -21.9305  -14.3501 O   0  0  0  0  0  0  0  0  0  0  0  0
   29.8255  -22.2876  -18.1938 O   0  0  0  0  0  0  0  0  0  0  0  0
   27.2203  -19.2576   -7.9106 C   0  0  0  0  0  0  0  0  0  0  0  0
   26.1896  -20.7405   -7.7335 S   0  0  0  0  0  0  0  0  0  0  0  0
   25.4362  -21.1813   -9.3194 C   0  0  0  0  0  0  0  0  0  0  0  0
   26.2200  -20.6281  -10.4852 C   0  0  0  0  0  0  0  0  0  0  0  0
   25.6149  -20.9867  -11.8028 C   0  0  2  0  0  0  0  0  0  0  0  0
   26.3826  -20.5151  -12.9294 N   0  0  0  0  0  0  0  0  0  0  0  0
   24.1949  -20.5391  -11.9143 C   0  0  0  0  0  0  0  0  0  0  0  0
   24.0153  -19.3897  -12.3738 O   0  0  0  0  0  0  0  0  0  0  0  0
   19.3588  -18.4064  -12.0850 N   0  0  0  0  0  0  0  0  0  0  0  0
   19.8602  -19.4273  -11.2517 C   0  0  0  0  0  0  0  0  0  0  0  0
   19.0737  -20.1208  -10.5778 O   0  0  0  0  0  0  0  0  0  0  0  0
   21.3152  -19.6728  -11.1785 C   0  0  0  0  0  0  0  0  0  0  0  0
   21.6986  -21.0643  -11.6923 C   0  0  2  0  0  0  0  0  0  0  0  0
   23.1146  -21.3358  -11.5355 N   0  0  0  0  0  0  0  0  0  0  0  0
   21.3013  -21.1141  -13.0933 C   0  0  0  0  0  0  0  0  0  0  0  0
   22.0503  -20.5691  -13.9674 O   0  0  0  0  0  0  0  0  0  0  0  0
   20.1537  -21.7157  -13.5713 O   0  0  0  0  0  0  0  0  0  0  0  0
  2  1  1  1
  2  7  1  0
  3  2  1  0
  3  4  1  0
  4  5  1  0
  5  9  1  0
  6  5  2  0
  7  8  2  0
 10 11  1  0
 11 12  1  0
 12 13  1  0
 14 13  1  1
 14 16  1  0
 15  7  1  0
 15 14  1  0
 16 17  2  0
 18 19  1  0
 19 20  2  0
 21 19  1  0
 22 21  1  6
 22 24  1  0
 23 22  1  0
 23 16  1  0
 24 25  2  0
 24 26  1  0
M  END
$$$$
