EMN.pdb
     RDKit          3D

 26 25  0  0  1  0  0  0  0  0999 V2000
   18.0944  -12.4784  -16.9553 N   0  0  0  0  0  0  0  0  0  0  0  0
   18.0564  -11.1690  -17.5623 C   0  0  1  0  0  0  0  0  0  0  0  0
   16.6501  -10.9647  -18.0456 C   0  0  0  0  0  0  0  0  0  0  0  0
   16.2259  -11.8476  -19.1666 C   0  0  0  0  0  0  0  0  0  0  0  0
   16.4170  -11.2954  -20.5123 C   0  0  0  0  0  0  0  0  0  0  0  0
   16.5387  -10.0821  -20.8011 O   0  0  0  0  0  0  0  0  0  0  0  0
   18.5857  -10.1117  -16.7097 C   0  0  0  0  0  0  0  0  0  0  0  0
   18.2841  -10.1037  -15.4905 O   0  0  0  0  0  0  0  0  0  0  0  0
   16.4683  -12.2009  -21.5702 O   0  0  0  0  0  0  0  0  0  0  0  0
   22.2195   -6.1847  -12.2550 C   0  0  0  0  0  0  0  0  0  0  0  0
   21.6218   -7.4937  -13.3604 S   0  0  0  0  0  0  0  0  0  0  0  0
   21.8887   -7.0328  -15.0904 C   0  0  0  0  0  0  0  0  0  0  0  0
   21.3995   -8.1023  -16.0372 C   0  0  0  0  0  0  0  0  0  0  0  0
   19.9203   -8.0544  -16.2390 C   0  0  2  0  0  0  0  0  0  0  0  0
   19.4374   -9.0594  -17.1542 N   0  0  0  0  0  0  0  0  0  0  0  0
   19.4491   -6.6999  -16.6545 C   0  0  0  0  0  0  0  0  0  0  0  0
   19.8072   -6.3179  -17.7904 O   0  0  0  0  0  0  0  0  0  0  0  0
   17.0187   -2.0713  -16.5703 N   0  0  0  0  0  0  0  0  0  0  0  0
   16.5925   -2.7478  -15.4090 C   0  0  0  0  0  0  0  0  0  0  0  0
   15.7622   -2.2130  -14.6485 O   0  0  0  0  0  0  0  0  0  0  0  0
   17.1301   -4.0878  -15.0957 C   0  0  0  0  0  0  0  0  0  0  0  0
   18.2013   -4.5349  -16.0955 C   0  0  2  0  0  0  0  0  0  0  0  0
   18.6562   -5.8887  -15.8430 N   0  0  0  0  0  0  0  0  0  0  0  0
   19.2959   -3.5792  -15.9871 C   0  0  0  0  0  0  0  0  0  0  0  0
   20.0684   -3.6370  -14.9762 O   0  0  0  0  0  0  0  0  0  0  0  0
   19.5783   -2.5891  -16.9076 O   0  0  0  0  0  0  0  0  0  0  0  0
  2  1  1  1
  2  7  1  0
  3  2  1  0
  3  4  1  0
  4  5  1  0
  5  9  1  0
  6  5  2  0
  7  8  2  0
 10 11  1  0
 11 12  1  0
 12 13  1  0
 14 13  1  6
 14 16  1  0
 15  7  1  0
 15 14  1  0
 16 17  2  0
 18 19  1  0
 19 20  2  0
 21 19  1  0
 22 21  1  1
 22 24  1  0
 23 22  1  0
 23 16  1  0
 24 25  2  0
 24 26  1  0
M  END
$$$$
