SMG.pdb
     RDKit          3D

 19 18  0  0  1  0  0  0  0  0999 V2000
   18.5173  -11.6989  -14.5720 O   0  0  0  0  0  0  0  0  0  0  0  0
   17.6082  -10.7149  -14.1799 C   0  0  0  0  0  0  0  0  0  0  0  0
   16.9692  -11.1814  -12.8881 C   0  0  2  0  0  0  0  0  0  0  0  0
   16.0480  -12.2468  -13.2396 N   0  0  0  0  0  0  0  0  0  0  0  0
   16.2317  -10.1045  -12.2047 C   0  0  0  0  0  0  0  0  0  0  0  0
   15.0403   -9.8284  -12.5389 O   0  0  0  0  0  0  0  0  0  0  0  0
   12.7293   -6.4067   -7.2577 C   0  0  0  0  0  0  0  0  0  0  0  0
   13.6341   -7.6828   -8.1494 S   0  0  0  0  0  0  0  0  0  0  0  0
   15.3792   -7.3164   -8.3248 C   0  0  0  0  0  0  0  0  0  0  0  0
   16.1365   -8.3537   -9.0903 C   0  0  0  0  0  0  0  0  0  0  0  0
   16.0625   -8.1941  -10.5787 C   0  0  2  0  0  0  0  0  0  0  0  0
   16.7960   -9.3302  -11.1569 N   0  0  0  0  0  0  0  0  0  0  0  0
   16.5579   -6.9160  -11.0774 C   0  0  0  0  0  0  0  0  0  0  0  0
   17.7718   -6.6353  -10.9697 O   0  0  0  0  0  0  0  0  0  0  0  0
   15.7056   -5.9644  -11.6888 N   0  0  0  0  0  0  0  0  0  0  0  0
   16.1988   -4.7078  -12.2302 C   0  0  0  0  0  0  0  0  0  0  0  0
   16.3089   -3.6602  -11.2241 C   0  0  0  0  0  0  0  0  0  0  0  0
   17.2767   -3.6373  -10.4347 O   0  0  0  0  0  0  0  0  0  0  0  0
   15.3438   -2.6774  -11.1295 O   0  0  0  0  0  0  0  0  0  0  0  0
  1  2  1  0
  2  3  1  0
  3  4  1  6
  5  3  1  0
  6  5  2  0
  7  8  1  0
  9 10  1  0
  9  8  1  0
 11 10  1  1
 11 13  1  0
 11 12  1  0
 12  5  1  0
 13 15  1  0
 14 13  2  0
 15 16  1  0
 17 19  1  0
 17 16  1  0
 18 17  2  0
M  END
$$$$
