SMG.pdb
     RDKit          3D

 19 18  0  0  1  0  0  0  0  0999 V2000
   30.0963   -8.8166  -18.0988 O   0  0  0  0  0  0  0  0  0  0  0  0
   28.7031   -8.8409  -18.0154 C   0  0  0  0  0  0  0  0  0  0  0  0
   28.2926  -10.2760  -17.7574 C   0  0  2  0  0  0  0  0  0  0  0  0
   28.5663  -11.0139  -18.9772 N   0  0  0  0  0  0  0  0  0  0  0  0
   26.8633  -10.4004  -17.4224 C   0  0  0  0  0  0  0  0  0  0  0  0
   25.9882  -10.4327  -18.3392 O   0  0  0  0  0  0  0  0  0  0  0  0
   21.9357  -13.4652  -16.3102 C   0  0  0  0  0  0  0  0  0  0  0  0
   22.6091  -13.3059  -14.6478 S   0  0  0  0  0  0  0  0  0  0  0  0
   23.3022  -11.6862  -14.3211 C   0  0  0  0  0  0  0  0  0  0  0  0
   24.7264  -11.5443  -14.7538 C   0  0  0  0  0  0  0  0  0  0  0  0
   24.9495  -10.4884  -15.7938 C   0  0  2  0  0  0  0  0  0  0  0  0
   26.3908  -10.4894  -16.0864 N   0  0  0  0  0  0  0  0  0  0  0  0
   24.4703   -9.1613  -15.4240 C   0  0  0  0  0  0  0  0  0  0  0  0
   25.1804   -8.4212  -14.7086 O   0  0  0  0  0  0  0  0  0  0  0  0
   23.2124   -8.6691  -15.8495 N   0  0  0  0  0  0  0  0  0  0  0  0
   22.7505   -7.3270  -15.5318 C   0  0  0  0  0  0  0  0  0  0  0  0
   21.5277   -7.3198  -14.7403 C   0  0  0  0  0  0  0  0  0  0  0  0
   20.9551   -8.3904  -14.4466 O   0  0  0  0  0  0  0  0  0  0  0  0
   20.9845   -6.1279  -14.3035 O   0  0  0  0  0  0  0  0  0  0  0  0
  1  2  1  0
  2  3  1  0
  3  4  1  6
  5  3  1  0
  6  5  2  0
  7  8  1  0
  9 10  1  0
  9  8  1  0
 11 10  1  1
 11 13  1  0
 11 12  1  0
 12  5  1  0
 13 15  1  0
 14 13  2  0
 15 16  1  0
 17 19  1  0
 17 16  1  0
 18 17  2  0
M  END
$$$$
