SMG.pdb
     RDKit          3D

 19 18  0  0  1  0  0  0  0  0999 V2000
   22.2201   -9.2217  -22.0335 O   0  0  0  0  0  0  0  0  0  0  0  0
   21.9497   -8.6126  -20.8071 C   0  0  0  0  0  0  0  0  0  0  0  0
   22.9846   -9.1105  -19.8193 C   0  0  2  0  0  0  0  0  0  0  0  0
   22.6663  -10.5004  -19.5469 N   0  0  0  0  0  0  0  0  0  0  0  0
   22.9690   -8.3502  -18.5574 C   0  0  0  0  0  0  0  0  0  0  0  0
   22.1592   -8.6571  -17.6315 O   0  0  0  0  0  0  0  0  0  0  0  0
   26.6737  -10.3272  -15.6830 C   0  0  0  0  0  0  0  0  0  0  0  0
   25.9227   -9.0247  -16.6738 S   0  0  0  0  0  0  0  0  0  0  0  0
   25.9387   -7.4263  -15.8642 C   0  0  0  0  0  0  0  0  0  0  0  0
   25.2970   -6.3403  -16.6669 C   0  0  0  0  0  0  0  0  0  0  0  0
   23.8563   -6.5901  -16.9964 C   0  0  2  0  0  0  0  0  0  0  0  0
   23.8379   -7.2553  -18.3079 N   0  0  0  0  0  0  0  0  0  0  0  0
   23.0144   -5.3992  -16.9783 C   0  0  0  0  0  0  0  0  0  0  0  0
   23.1081   -4.5578  -17.8988 O   0  0  0  0  0  0  0  0  0  0  0  0
   22.0794   -5.1532  -15.9434 N   0  0  0  0  0  0  0  0  0  0  0  0
   21.2670   -3.9478  -15.8947 C   0  0  0  0  0  0  0  0  0  0  0  0
   19.8730   -4.1880  -16.2425 C   0  0  0  0  0  0  0  0  0  0  0  0
   19.5247   -4.2858  -17.4380 O   0  0  0  0  0  0  0  0  0  0  0  0
   18.9169   -4.3110  -15.2539 O   0  0  0  0  0  0  0  0  0  0  0  0
  1  2  1  0
  2  3  1  0
  3  4  1  1
  5  3  1  0
  6  5  2  0
  7  8  1  0
  9 10  1  0
  9  8  1  0
 11 10  1  6
 11 13  1  0
 11 12  1  0
 12  5  1  0
 13 15  1  0
 14 13  2  0
 15 16  1  0
 17 19  1  0
 17 16  1  0
 18 17  2  0
M  END
$$$$
