SMG.pdb
     RDKit          3D

 19 18  0  0  1  0  0  0  0  0999 V2000
   21.4774  -22.1012  -13.3377 O   0  0  0  0  0  0  0  0  0  0  0  0
   21.4793  -22.1330  -11.9422 C   0  0  0  0  0  0  0  0  0  0  0  0
   21.7935  -20.7317  -11.4604 C   0  0  2  0  0  0  0  0  0  0  0  0
   21.0922  -19.8194  -12.3454 N   0  0  0  0  0  0  0  0  0  0  0  0
   23.2361  -20.4347  -11.4972 C   0  0  0  0  0  0  0  0  0  0  0  0
   23.7130  -19.6707  -12.3897 O   0  0  0  0  0  0  0  0  0  0  0  0
   27.4116  -18.8323   -5.8415 C   0  0  0  0  0  0  0  0  0  0  0  0
   27.1939  -20.2654   -6.9098 S   0  0  0  0  0  0  0  0  0  0  0  0
   26.3954  -19.8699   -8.4643 C   0  0  0  0  0  0  0  0  0  0  0  0
   26.2107  -21.0513   -9.3619 C   0  0  0  0  0  0  0  0  0  0  0  0
   25.6002  -20.7230  -10.6908 C   0  0  2  0  0  0  0  0  0  0  0  0
   24.1568  -20.9722  -10.5594 N   0  0  0  0  0  0  0  0  0  0  0  0
   26.1768  -21.4459  -11.8188 C   0  0  0  0  0  0  0  0  0  0  0  0
   26.2255  -22.6952  -11.7968 O   0  0  0  0  0  0  0  0  0  0  0  0
   26.6922  -20.7788  -12.9569 N   0  0  0  0  0  0  0  0  0  0  0  0
   27.2510  -21.4925  -14.0944 C   0  0  0  0  0  0  0  0  0  0  0  0
   27.5995  -20.6125  -15.2015 C   0  0  0  0  0  0  0  0  0  0  0  0
   27.2725  -19.4071  -15.1816 O   0  0  0  0  0  0  0  0  0  0  0  0
   28.2969  -21.0996  -16.2891 O   0  0  0  0  0  0  0  0  0  0  0  0
  1  2  1  0
  2  3  1  0
  3  4  1  6
  5  3  1  0
  6  5  2  0
  7  8  1  0
  9 10  1  0
  9  8  1  0
 11 10  1  1
 11 13  1  0
 11 12  1  0
 12  5  1  0
 13 15  1  0
 14 13  2  0
 15 16  1  0
 17 19  1  0
 17 16  1  0
 18 17  2  0
M  END
$$$$
