SMG.pdb
     RDKit          3D

 19 18  0  0  1  0  0  0  0  0999 V2000
   20.7758  -22.4600  -10.8528 O   0  0  0  0  0  0  0  0  0  0  0  0
   22.0432  -21.9025  -11.0296 C   0  0  0  0  0  0  0  0  0  0  0  0
   22.1996  -20.8039   -9.9984 C   0  0  2  0  0  0  0  0  0  0  0  0
   21.2781  -19.7465  -10.3726 N   0  0  0  0  0  0  0  0  0  0  0  0
   23.5699  -20.2642   -9.9553 C   0  0  0  0  0  0  0  0  0  0  0  0
   23.9190  -19.3320  -10.7404 O   0  0  0  0  0  0  0  0  0  0  0  0
   26.8443  -19.9637   -4.3474 C   0  0  0  0  0  0  0  0  0  0  0  0
   28.0216  -19.6852   -5.6811 S   0  0  0  0  0  0  0  0  0  0  0  0
   27.2354  -19.3759   -7.2612 C   0  0  0  0  0  0  0  0  0  0  0  0
   26.6160  -20.5920   -7.8719 C   0  0  0  0  0  0  0  0  0  0  0  0
   25.9669  -20.3487   -9.2007 C   0  0  2  0  0  0  0  0  0  0  0  0
   24.5576  -20.7431   -9.0547 N   0  0  0  0  0  0  0  0  0  0  0  0
   26.6081  -21.0256  -10.3224 C   0  0  0  0  0  0  0  0  0  0  0  0
   26.4811  -22.2624  -10.4566 O   0  0  0  0  0  0  0  0  0  0  0  0
   27.3814  -20.3272  -11.2815 N   0  0  0  0  0  0  0  0  0  0  0  0
   28.0834  -21.0030  -12.3612 C   0  0  0  0  0  0  0  0  0  0  0  0
   27.3426  -20.9912  -13.6153 C   0  0  0  0  0  0  0  0  0  0  0  0
   27.3055  -22.0076  -14.3404 O   0  0  0  0  0  0  0  0  0  0  0  0
   26.6705  -19.8549  -14.0198 O   0  0  0  0  0  0  0  0  0  0  0  0
  1  2  1  0
  2  3  1  0
  3  4  1  6
  5  3  1  0
  6  5  2  0
  7  8  1  0
  9 10  1  0
  9  8  1  0
 11 10  1  1
 11 13  1  0
 11 12  1  0
 12  5  1  0
 13 15  1  0
 14 13  2  0
 15 16  1  0
 17 19  1  0
 17 16  1  0
 18 17  2  0
M  END
$$$$
