SMG.pdb
     RDKit          3D

 19 18  0  0  1  0  0  0  0  0999 V2000
   21.6241  -12.1526  -18.9463 O   0  0  0  0  0  0  0  0  0  0  0  0
   22.9225  -12.4149  -19.3865 C   0  0  0  0  0  0  0  0  0  0  0  0
   23.6964  -12.9624  -18.2049 C   0  0  2  0  0  0  0  0  0  0  0  0
   22.8880  -14.0236  -17.6325 N   0  0  0  0  0  0  0  0  0  0  0  0
   23.9543  -11.9377  -17.1782 C   0  0  0  0  0  0  0  0  0  0  0  0
   23.1005  -11.7087  -16.2693 O   0  0  0  0  0  0  0  0  0  0  0  0
   28.7673  -12.9438  -16.7670 C   0  0  0  0  0  0  0  0  0  0  0  0
   27.4639  -12.6085  -15.5706 S   0  0  0  0  0  0  0  0  0  0  0  0
   27.4509  -10.9097  -15.0012 C   0  0  0  0  0  0  0  0  0  0  0  0
   26.8229   -9.9573  -15.9678 C   0  0  0  0  0  0  0  0  0  0  0  0
   25.3416  -10.1264  -16.1214 C   0  0  2  0  0  0  0  0  0  0  0  0
   25.1444  -11.1640  -17.1448 N   0  0  0  0  0  0  0  0  0  0  0  0
   24.6210   -8.8999  -16.4440 C   0  0  0  0  0  0  0  0  0  0  0  0
   24.6438   -8.4549  -17.6124 O   0  0  0  0  0  0  0  0  0  0  0  0
   23.8844   -8.1810  -15.4712 N   0  0  0  0  0  0  0  0  0  0  0  0
   22.9744   -7.1015  -15.8207 C   0  0  0  0  0  0  0  0  0  0  0  0
   21.5782   -7.5166  -15.8311 C   0  0  0  0  0  0  0  0  0  0  0  0
   21.0930   -8.0873  -16.8307 O   0  0  0  0  0  0  0  0  0  0  0  0
   20.7716   -7.2846  -14.7348 O   0  0  0  0  0  0  0  0  0  0  0  0
  1  2  1  0
  2  3  1  0
  3  4  1  1
  5  3  1  0
  6  5  2  0
  7  8  1  0
  9 10  1  0
  9  8  1  0
 11 10  1  6
 11 13  1  0
 11 12  1  0
 12  5  1  0
 13 15  1  0
 14 13  2  0
 15 16  1  0
 17 19  1  0
 17 16  1  0
 18 17  2  0
M  END
$$$$
