SMG.pdb
     RDKit          3D

 19 18  0  0  1  0  0  0  0  0999 V2000
   27.7587  -11.4917  -15.3000 O   0  0  0  0  0  0  0  0  0  0  0  0
   26.8812  -10.4650  -15.6523 C   0  0  0  0  0  0  0  0  0  0  0  0
   25.6840  -11.1064  -16.3233 C   0  0  2  0  0  0  0  0  0  0  0  0
   26.1324  -11.5665  -17.6250 N   0  0  0  0  0  0  0  0  0  0  0  0
   24.5653  -10.1636  -16.4978 C   0  0  0  0  0  0  0  0  0  0  0  0
   24.4684   -9.4690  -17.5541 O   0  0  0  0  0  0  0  0  0  0  0  0
   19.4869  -10.4715  -18.3235 C   0  0  0  0  0  0  0  0  0  0  0  0
   18.7617   -9.6393  -16.9008 S   0  0  0  0  0  0  0  0  0  0  0  0
   19.9820   -8.8725  -15.8362 C   0  0  0  0  0  0  0  0  0  0  0  0
   21.1901   -9.7210  -15.5995 C   0  0  0  0  0  0  0  0  0  0  0  0
   22.4898   -8.9828  -15.7103 C   0  0  2  0  0  0  0  0  0  0  0  0
   23.5534   -9.9803  -15.5188 N   0  0  0  0  0  0  0  0  0  0  0  0
   22.6283   -7.8568  -14.7936 C   0  0  0  0  0  0  0  0  0  0  0  0
   22.7964   -8.0668  -13.5723 O   0  0  0  0  0  0  0  0  0  0  0  0
   22.5792   -6.5130  -15.2381 N   0  0  0  0  0  0  0  0  0  0  0  0
   22.7389   -5.3848  -14.3342 C   0  0  0  0  0  0  0  0  0  0  0  0
   21.5360   -4.5706  -14.2242 C   0  0  0  0  0  0  0  0  0  0  0  0
   20.4926   -4.8946  -14.8296 O   0  0  0  0  0  0  0  0  0  0  0  0
   21.5333   -3.4286  -13.4482 O   0  0  0  0  0  0  0  0  0  0  0  0
  1  2  1  0
  2  3  1  0
  3  4  1  6
  5  3  1  0
  6  5  2  0
  7  8  1  0
  9 10  1  0
  9  8  1  0
 11 10  1  1
 11 13  1  0
 11 12  1  0
 12  5  1  0
 13 15  1  0
 14 13  2  0
 15 16  1  0
 17 19  1  0
 17 16  1  0
 18 17  2  0
M  END
$$$$
