SMG.pdb
     RDKit          3D

 19 18  0  0  1  0  0  0  0  0999 V2000
   17.7131  -12.6570  -19.7682 O   0  0  0  0  0  0  0  0  0  0  0  0
   18.2842  -12.2716  -18.5542 C   0  0  0  0  0  0  0  0  0  0  0  0
   19.6515  -12.9187  -18.4744 C   0  0  2  0  0  0  0  0  0  0  0  0
   19.4618  -14.2200  -17.8596 N   0  0  0  0  0  0  0  0  0  0  0  0
   20.6000  -12.1315  -17.6674 C   0  0  0  0  0  0  0  0  0  0  0  0
   20.6330  -12.2602  -16.4065 O   0  0  0  0  0  0  0  0  0  0  0  0
   26.6049  -10.3907  -14.6794 C   0  0  0  0  0  0  0  0  0  0  0  0
   25.2520  -11.0447  -15.6716 S   0  0  0  0  0  0  0  0  0  0  0  0
   24.8973  -10.0516  -17.1202 C   0  0  0  0  0  0  0  0  0  0  0  0
   23.7970  -10.6014  -17.9703 C   0  0  0  0  0  0  0  0  0  0  0  0
   22.4265  -10.4260  -17.3895 C   0  0  2  0  0  0  0  0  0  0  0  0
   21.5115  -11.2043  -18.2379 N   0  0  0  0  0  0  0  0  0  0  0  0
   21.9971   -9.0384  -17.2559 C   0  0  0  0  0  0  0  0  0  0  0  0
   21.9697   -8.2967  -18.2624 O   0  0  0  0  0  0  0  0  0  0  0  0
   21.6033   -8.4882  -16.0118 N   0  0  0  0  0  0  0  0  0  0  0  0
   21.2057   -7.0970  -15.8635 C   0  0  0  0  0  0  0  0  0  0  0  0
   22.2700   -6.2557  -15.3330 C   0  0  0  0  0  0  0  0  0  0  0  0
   23.3886   -6.7416  -15.0631 O   0  0  0  0  0  0  0  0  0  0  0  0
   22.0561   -4.9082  -15.1210 O   0  0  0  0  0  0  0  0  0  0  0  0
  1  2  1  0
  2  3  1  0
  3  4  1  1
  5  3  1  0
  6  5  2  0
  7  8  1  0
  9 10  1  0
  9  8  1  0
 11 10  1  6
 11 13  1  0
 11 12  1  0
 12  5  1  0
 13 15  1  0
 14 13  2  0
 15 16  1  0
 17 19  1  0
 17 16  1  0
 18 17  2  0
M  END
$$$$
