SMG.pdb
     RDKit          3D

 19 18  0  0  1  0  0  0  0  0999 V2000
   15.9229   -8.0438  -16.8532 O   0  0  0  0  0  0  0  0  0  0  0  0
   16.9259   -7.7925  -15.9155 C   0  0  0  0  0  0  0  0  0  0  0  0
   17.6334   -9.1054  -15.6503 C   0  0  2  0  0  0  0  0  0  0  0  0
   16.7766   -9.8686  -14.7611 N   0  0  0  0  0  0  0  0  0  0  0  0
   18.9498   -8.9166  -15.0162 C   0  0  0  0  0  0  0  0  0  0  0  0
   19.0543   -8.8660  -13.7537 O   0  0  0  0  0  0  0  0  0  0  0  0
   24.9140  -12.5113  -14.1896 C   0  0  0  0  0  0  0  0  0  0  0  0
   23.5392  -11.8285  -15.1310 S   0  0  0  0  0  0  0  0  0  0  0  0
   23.5983  -10.0430  -15.2689 C   0  0  0  0  0  0  0  0  0  0  0  0
   22.4219   -9.4566  -15.9816 C   0  0  0  0  0  0  0  0  0  0  0  0
   21.4570   -8.7395  -15.0866 C   0  0  2  0  0  0  0  0  0  0  0  0
   20.1510   -8.7833  -15.7615 N   0  0  0  0  0  0  0  0  0  0  0  0
   21.8463   -7.3766  -14.7425 C   0  0  0  0  0  0  0  0  0  0  0  0
   22.9433   -7.1670  -14.1799 O   0  0  0  0  0  0  0  0  0  0  0  0
   21.0185   -6.2627  -15.0247 N   0  0  0  0  0  0  0  0  0  0  0  0
   21.3446   -4.9155  -14.5840 C   0  0  0  0  0  0  0  0  0  0  0  0
   20.3396   -3.9335  -14.9681 C   0  0  0  0  0  0  0  0  0  0  0  0
   19.3627   -4.2667  -15.6716 O   0  0  0  0  0  0  0  0  0  0  0  0
   20.4536   -2.6197  -14.5591 O   0  0  0  0  0  0  0  0  0  0  0  0
  1  2  1  0
  2  3  1  0
  3  4  1  1
  5  3  1  0
  6  5  2  0
  7  8  1  0
  9 10  1  0
  9  8  1  0
 11 10  1  6
 11 13  1  0
 11 12  1  0
 12  5  1  0
 13 15  1  0
 14 13  2  0
 15 16  1  0
 17 19  1  0
 17 16  1  0
 18 17  2  0
M  END
$$$$
