SMG.pdb
     RDKit          3D

 19 18  0  0  1  0  0  0  0  0999 V2000
   17.0277   -8.7425  -18.4025 O   0  0  0  0  0  0  0  0  0  0  0  0
   17.9518   -8.5306  -17.3781 C   0  0  0  0  0  0  0  0  0  0  0  0
   18.8384   -9.7570  -17.3108 C   0  0  2  0  0  0  0  0  0  0  0  0
   18.0080  -10.8462  -16.8298 N   0  0  0  0  0  0  0  0  0  0  0  0
   19.9812   -9.5753  -16.3988 C   0  0  0  0  0  0  0  0  0  0  0  0
   19.8969   -9.9281  -15.1839 O   0  0  0  0  0  0  0  0  0  0  0  0
   27.5234  -10.3460  -15.0204 C   0  0  0  0  0  0  0  0  0  0  0  0
   26.0973  -10.4021  -16.1184 S   0  0  0  0  0  0  0  0  0  0  0  0
   24.7194   -9.4173  -15.5336 C   0  0  0  0  0  0  0  0  0  0  0  0
   23.4948   -9.5339  -16.3835 C   0  0  0  0  0  0  0  0  0  0  0  0
   22.3066   -8.7898  -15.8533 C   0  0  2  0  0  0  0  0  0  0  0  0
   21.2149   -9.0086  -16.8142 N   0  0  0  0  0  0  0  0  0  0  0  0
   22.5392   -7.3710  -15.6077 C   0  0  0  0  0  0  0  0  0  0  0  0
   22.8241   -6.6138  -16.5612 O   0  0  0  0  0  0  0  0  0  0  0  0
   22.4538   -6.8070  -14.3114 N   0  0  0  0  0  0  0  0  0  0  0  0
   22.7800   -5.4155  -14.0418 C   0  0  0  0  0  0  0  0  0  0  0  0
   21.6557   -4.5158  -14.2617 C   0  0  0  0  0  0  0  0  0  0  0  0
   20.5791   -4.9467  -14.7260 O   0  0  0  0  0  0  0  0  0  0  0  0
   21.7653   -3.1730  -13.9596 O   0  0  0  0  0  0  0  0  0  0  0  0
  1  2  1  0
  2  3  1  0
  3  4  1  1
  5  3  1  0
  6  5  2  0
  7  8  1  0
  9 10  1  0
  9  8  1  0
 11 10  1  6
 11 13  1  0
 11 12  1  0
 12  5  1  0
 13 15  1  0
 14 13  2  0
 15 16  1  0
 17 19  1  0
 17 16  1  0
 18 17  2  0
M  END
$$$$
