SMG.pdb
     RDKit          3D

 19 18  0  0  1  0  0  0  0  0999 V2000
   26.6086  -19.0639  -16.4122 O   0  0  0  0  0  0  0  0  0  0  0  0
   27.6875  -18.7660  -15.5782 C   0  0  0  0  0  0  0  0  0  0  0  0
   28.1884  -20.0757  -15.0050 C   0  0  2  0  0  0  0  0  0  0  0  0
   28.5084  -20.9299  -16.1343 N   0  0  0  0  0  0  0  0  0  0  0  0
   27.1817  -20.7412  -14.1598 C   0  0  0  0  0  0  0  0  0  0  0  0
   26.6244  -21.8125  -14.5460 O   0  0  0  0  0  0  0  0  0  0  0  0
   26.8068  -20.4345   -7.4279 C   0  0  0  0  0  0  0  0  0  0  0  0
   25.1172  -20.4336   -8.0507 S   0  0  0  0  0  0  0  0  0  0  0  0
   24.9799  -21.0841   -9.7146 C   0  0  0  0  0  0  0  0  0  0  0  0
   25.9112  -20.4388  -10.6902 C   0  0  0  0  0  0  0  0  0  0  0  0
   25.7473  -20.9146  -12.1020 C   0  0  2  0  0  0  0  0  0  0  0  0
   26.7845  -20.2361  -12.8937 N   0  0  0  0  0  0  0  0  0  0  0  0
   24.4155  -20.7101  -12.6606 C   0  0  0  0  0  0  0  0  0  0  0  0
   24.0983  -19.5897  -13.1166 O   0  0  0  0  0  0  0  0  0  0  0  0
   23.4513  -21.7463  -12.7082 N   0  0  0  0  0  0  0  0  0  0  0  0
   22.1221  -21.5515  -13.2657 C   0  0  0  0  0  0  0  0  0  0  0  0
   21.2842  -20.6856  -12.4472 C   0  0  0  0  0  0  0  0  0  0  0  0
   20.7695  -19.6564  -12.9331 O   0  0  0  0  0  0  0  0  0  0  0  0
   21.0473  -20.9914  -11.1218 O   0  0  0  0  0  0  0  0  0  0  0  0
  1  2  1  0
  2  3  1  0
  3  4  1  6
  5  3  1  0
  6  5  2  0
  7  8  1  0
  9 10  1  0
  9  8  1  0
 11 10  1  1
 11 13  1  0
 11 12  1  0
 12  5  1  0
 13 15  1  0
 14 13  2  0
 15 16  1  0
 17 19  1  0
 17 16  1  0
 18 17  2  0
M  END
$$$$
