KAD.pdb
     RDKit          3D

 23 22  0  0  1  0  0  0  0  0999 V2000
   14.7897  -16.1547  -16.3511 N   0  0  0  0  0  0  0  0  0  0  0  0
   15.8403  -15.3745  -15.7313 C   0  0  1  0  0  0  0  0  0  0  0  0
   17.2079  -15.9271  -16.0109 C   0  0  0  0  0  0  0  0  0  0  0  0
   17.3733  -17.3766  -15.7561 C   0  0  0  0  0  0  0  0  0  0  0  0
   18.6739  -17.9877  -16.1142 C   0  0  0  0  0  0  0  0  0  0  0  0
   18.7001  -19.4882  -15.9960 C   0  0  0  0  0  0  0  0  0  0  0  0
   20.0040  -20.0227  -16.3415 N   0  0  0  0  0  0  0  0  0  0  0  0
   15.7465  -13.9271  -16.0437 C   0  0  0  0  0  0  0  0  0  0  0  0
   15.8778  -13.5604  -17.2448 O   0  0  0  0  0  0  0  0  0  0  0  0
   14.3327  -10.7859  -14.7268 C   0  0  0  0  0  0  0  0  0  0  0  0
   15.4459  -11.4984  -15.4520 C   0  0  2  0  0  0  0  0  0  0  0  0
   15.5181  -12.9011  -15.0967 N   0  0  0  0  0  0  0  0  0  0  0  0
   16.7396  -10.8056  -15.2013 C   0  0  0  0  0  0  0  0  0  0  0  0
   17.4666  -11.1953  -14.2518 O   0  0  0  0  0  0  0  0  0  0  0  0
   17.2027   -9.7244  -15.9764 N   0  0  0  0  0  0  0  0  0  0  0  0
   18.4738   -9.0291  -15.7346 C   0  0  1  0  0  0  0  0  0  0  0  0
   19.2990   -9.3154  -16.9951 C   0  0  0  0  0  0  0  0  0  0  0  0
   20.5858   -8.5970  -17.0102 C   0  0  0  0  0  0  0  0  0  0  0  0
   20.9499   -7.9167  -16.0194 O   0  0  0  0  0  0  0  0  0  0  0  0
   18.1710   -7.5801  -15.6898 C   0  0  0  0  0  0  0  0  0  0  0  0
   18.8591   -6.7531  -14.8409 O   0  0  0  0  0  0  0  0  0  0  0  0
   21.4101   -8.6683  -18.1297 O   0  0  0  0  0  0  0  0  0  0  0  0
   17.2871   -7.0688  -16.4164 O   0  0  0  0  0  0  0  0  0  0  0  0
  2  8  1  0
  2  1  1  6
  3  2  1  0
  4  3  1  0
  5  4  1  0
  6  5  1  0
  7  6  1  0
  8  9  2  0
 11 10  1  1
 12 11  1  0
 12  8  1  0
 13 11  1  0
 13 15  1  0
 14 13  2  0
 16 15  1  0
 16 17  1  6
 17 18  1  0
 18 22  1  0
 19 18  2  0
 20 16  1  0
 21 20  1  0
 23 20  2  0
M  END
$$$$
