KAD.pdb
     RDKit          3D

 23 22  0  0  1  0  0  0  0  0999 V2000
   20.2887  -12.4428  -17.4479 N   0  0  0  0  0  0  0  0  0  0  0  0
   19.4112  -11.3886  -16.9840 C   0  0  1  0  0  0  0  0  0  0  0  0
   18.1127  -11.9164  -16.4463 C   0  0  0  0  0  0  0  0  0  0  0  0
   17.8767  -13.3629  -16.6585 C   0  0  0  0  0  0  0  0  0  0  0  0
   16.5441  -13.8969  -16.2944 C   0  0  0  0  0  0  0  0  0  0  0  0
   16.3818  -15.3707  -16.5542 C   0  0  0  0  0  0  0  0  0  0  0  0
   16.4891  -16.1384  -15.3276 N   0  0  0  0  0  0  0  0  0  0  0  0
   20.0741  -10.4602  -16.0354 C   0  0  0  0  0  0  0  0  0  0  0  0
   19.3786   -9.5591  -15.4891 O   0  0  0  0  0  0  0  0  0  0  0  0
   23.4937   -9.8879  -14.4802 C   0  0  0  0  0  0  0  0  0  0  0  0
   22.0359   -9.5880  -14.7202 C   0  0  2  0  0  0  0  0  0  0  0  0
   21.4434  -10.4959  -15.6814 N   0  0  0  0  0  0  0  0  0  0  0  0
   21.8722   -8.1687  -15.1387 C   0  0  0  0  0  0  0  0  0  0  0  0
   22.0021   -7.8719  -16.3540 O   0  0  0  0  0  0  0  0  0  0  0  0
   21.5764   -7.1249  -14.2402 N   0  0  0  0  0  0  0  0  0  0  0  0
   21.4404   -5.7173  -14.6370 C   0  0  1  0  0  0  0  0  0  0  0  0
   19.9251   -5.4829  -14.6599 C   0  0  0  0  0  0  0  0  0  0  0  0
   19.5688   -4.0777  -14.9258 C   0  0  0  0  0  0  0  0  0  0  0  0
   20.0352   -3.4781  -15.9258 O   0  0  0  0  0  0  0  0  0  0  0  0
   22.0257   -4.9034  -13.5470 C   0  0  0  0  0  0  0  0  0  0  0  0
   22.3082   -3.5773  -13.7457 O   0  0  0  0  0  0  0  0  0  0  0  0
   18.7082   -3.4025  -14.0648 O   0  0  0  0  0  0  0  0  0  0  0  0
   22.2794   -5.3936  -12.4218 O   0  0  0  0  0  0  0  0  0  0  0  0
  2  8  1  0
  2  1  1  1
  3  2  1  0
  4  3  1  0
  5  4  1  0
  6  5  1  0
  7  6  1  0
  8  9  2  0
 11 10  1  6
 12 11  1  0
 12  8  1  0
 13 11  1  0
 13 15  1  0
 14 13  2  0
 16 15  1  0
 16 17  1  1
 17 18  1  0
 18 22  1  0
 19 18  2  0
 20 16  1  0
 21 20  1  0
 23 20  2  0
M  END
$$$$
