KAD.pdb
     RDKit          3D

 23 22  0  0  1  0  0  0  0  0999 V2000
   14.1821   -9.5773  -13.8829 N   0  0  0  0  0  0  0  0  0  0  0  0
   15.3160   -9.8611  -13.0283 C   0  0  1  0  0  0  0  0  0  0  0  0
   16.1909  -10.9508  -13.5771 C   0  0  0  0  0  0  0  0  0  0  0  0
   15.5482  -12.2785  -13.7075 C   0  0  0  0  0  0  0  0  0  0  0  0
   16.4084  -13.4162  -14.1064 C   0  0  0  0  0  0  0  0  0  0  0  0
   15.6735  -14.7229  -14.2426 C   0  0  0  0  0  0  0  0  0  0  0  0
   16.5781  -15.8046  -14.5842 N   0  0  0  0  0  0  0  0  0  0  0  0
   16.0905   -8.6466  -12.6731 C   0  0  0  0  0  0  0  0  0  0  0  0
   16.2196   -7.7390  -13.5414 O   0  0  0  0  0  0  0  0  0  0  0  0
   17.6672   -7.0031   -9.6569 C   0  0  0  0  0  0  0  0  0  0  0  0
   17.4876   -7.2219  -11.1376 C   0  0  2  0  0  0  0  0  0  0  0  0
   16.7092   -8.4101  -11.4228 N   0  0  0  0  0  0  0  0  0  0  0  0
   18.8159   -7.2668  -11.8085 C   0  0  0  0  0  0  0  0  0  0  0  0
   19.4940   -8.3245  -11.7495 O   0  0  0  0  0  0  0  0  0  0  0  0
   19.3647   -6.1785  -12.5147 N   0  0  0  0  0  0  0  0  0  0  0  0
   20.6979   -6.1914  -13.1311 C   0  0  1  0  0  0  0  0  0  0  0  0
   20.4260   -5.8900  -14.6099 C   0  0  0  0  0  0  0  0  0  0  0  0
   21.6615   -5.7699  -15.4046 C   0  0  0  0  0  0  0  0  0  0  0  0
   22.7608   -6.1606  -14.9401 O   0  0  0  0  0  0  0  0  0  0  0  0
   21.4521   -5.0566  -12.5510 C   0  0  0  0  0  0  0  0  0  0  0  0
   22.7585   -5.2146  -12.1683 O   0  0  0  0  0  0  0  0  0  0  0  0
   21.6169   -5.2191  -16.6822 O   0  0  0  0  0  0  0  0  0  0  0  0
   20.9280   -3.9293  -12.3922 O   0  0  0  0  0  0  0  0  0  0  0  0
  2  8  1  0
  2  1  1  6
  3  2  1  0
  4  3  1  0
  5  4  1  0
  6  5  1  0
  7  6  1  0
  8  9  2  0
 11 10  1  1
 12 11  1  0
 12  8  1  0
 13 11  1  0
 13 15  1  0
 14 13  2  0
 16 15  1  0
 16 17  1  6
 17 18  1  0
 18 22  1  0
 19 18  2  0
 20 16  1  0
 21 20  1  0
 23 20  2  0
M  END
$$$$
