KAD.pdb
     RDKit          3D

 23 22  0  0  1  0  0  0  0  0999 V2000
   19.2599  -12.9056  -16.3530 N   0  0  0  0  0  0  0  0  0  0  0  0
   18.4133  -11.7429  -16.5214 C   0  0  1  0  0  0  0  0  0  0  0  0
   17.3019  -11.6903  -15.5134 C   0  0  0  0  0  0  0  0  0  0  0  0
   16.4319  -12.8876  -15.4618 C   0  0  0  0  0  0  0  0  0  0  0  0
   15.3387  -12.8933  -14.4627 C   0  0  0  0  0  0  0  0  0  0  0  0
   14.5328  -14.1646  -14.4423 C   0  0  0  0  0  0  0  0  0  0  0  0
   13.4433  -14.0843  -13.4875 N   0  0  0  0  0  0  0  0  0  0  0  0
   19.1792  -10.4734  -16.5774 C   0  0  0  0  0  0  0  0  0  0  0  0
   20.1680  -10.3318  -15.8051 O   0  0  0  0  0  0  0  0  0  0  0  0
   19.5940   -7.4558  -18.7786 C   0  0  0  0  0  0  0  0  0  0  0  0
   19.6721   -8.1637  -17.4498 C   0  0  2  0  0  0  0  0  0  0  0  0
   18.8945   -9.3861  -17.4366 N   0  0  0  0  0  0  0  0  0  0  0  0
   19.2554   -7.2410  -16.3583 C   0  0  0  0  0  0  0  0  0  0  0  0
   18.0836   -7.3185  -15.9078 O   0  0  0  0  0  0  0  0  0  0  0  0
   20.1089   -6.2732  -15.7933 N   0  0  0  0  0  0  0  0  0  0  0  0
   19.6836   -5.2978  -14.7808 C   0  0  1  0  0  0  0  0  0  0  0  0
   20.9931   -4.6464  -14.3200 C   0  0  0  0  0  0  0  0  0  0  0  0
   21.7659   -5.5042  -13.4038 C   0  0  0  0  0  0  0  0  0  0  0  0
   22.9621   -5.2350  -13.1322 O   0  0  0  0  0  0  0  0  0  0  0  0
   18.8711   -4.2764  -15.4806 C   0  0  0  0  0  0  0  0  0  0  0  0
   17.9260   -3.5550  -14.7992 O   0  0  0  0  0  0  0  0  0  0  0  0
   21.1710   -6.6248  -12.8310 O   0  0  0  0  0  0  0  0  0  0  0  0
   19.0181   -4.0411  -16.7028 O   0  0  0  0  0  0  0  0  0  0  0  0
  2  8  1  0
  2  1  1  1
  3  2  1  0
  4  3  1  0
  5  4  1  0
  6  5  1  0
  7  6  1  0
  8  9  2  0
 11 10  1  6
 12 11  1  0
 12  8  1  0
 13 11  1  0
 13 15  1  0
 14 13  2  0
 16 15  1  0
 16 17  1  6
 17 18  1  0
 18 22  1  0
 19 18  2  0
 20 16  1  0
 21 20  1  0
 23 20  2  0
M  END
$$$$
