KAD.pdb
     RDKit          3D

 23 22  0  0  1  0  0  0  0  0999 V2000
   20.7165  -13.0023  -16.4986 N   0  0  0  0  0  0  0  0  0  0  0  0
   20.2028  -11.7639  -17.0456 C   0  0  1  0  0  0  0  0  0  0  0  0
   18.7456  -11.5633  -16.7448 C   0  0  0  0  0  0  0  0  0  0  0  0
   17.8698  -12.7211  -17.0375 C   0  0  0  0  0  0  0  0  0  0  0  0
   17.0971  -13.2932  -15.9110 C   0  0  0  0  0  0  0  0  0  0  0  0
   16.2351  -14.4672  -16.2920 C   0  0  0  0  0  0  0  0  0  0  0  0
   15.6122  -15.0656  -15.1261 N   0  0  0  0  0  0  0  0  0  0  0  0
   21.0197  -10.5835  -16.6707 C   0  0  0  0  0  0  0  0  0  0  0  0
   21.1084  -10.2756  -15.4494 O   0  0  0  0  0  0  0  0  0  0  0  0
   23.4522   -8.1467  -18.2365 C   0  0  0  0  0  0  0  0  0  0  0  0
   22.5016   -8.6080  -17.1612 C   0  0  2  0  0  0  0  0  0  0  0  0
   21.7223   -9.7561  -17.5781 N   0  0  0  0  0  0  0  0  0  0  0  0
   21.6267   -7.4797  -16.7394 C   0  0  0  0  0  0  0  0  0  0  0  0
   20.4619   -7.4026  -17.2077 O   0  0  0  0  0  0  0  0  0  0  0  0
   22.0335   -6.4800  -15.8343 N   0  0  0  0  0  0  0  0  0  0  0  0
   21.2198   -5.3063  -15.4911 C   0  0  1  0  0  0  0  0  0  0  0  0
   20.0461   -5.8886  -14.6942 C   0  0  0  0  0  0  0  0  0  0  0  0
   19.1566   -4.8491  -14.1462 C   0  0  0  0  0  0  0  0  0  0  0  0
   19.4097   -4.3085  -13.0413 O   0  0  0  0  0  0  0  0  0  0  0  0
   22.0346   -4.4673  -14.5827 C   0  0  0  0  0  0  0  0  0  0  0  0
   21.7480   -3.1368  -14.4228 O   0  0  0  0  0  0  0  0  0  0  0  0
   18.0236   -4.4580  -14.8542 O   0  0  0  0  0  0  0  0  0  0  0  0
   23.0009   -4.9393  -13.9390 O   0  0  0  0  0  0  0  0  0  0  0  0
  2  8  1  0
  2  1  1  1
  3  2  1  0
  4  3  1  0
  5  4  1  0
  6  5  1  0
  7  6  1  0
  8  9  2  0
 11 10  1  6
 12 11  1  0
 12  8  1  0
 13 11  1  0
 13 15  1  0
 14 13  2  0
 16 15  1  0
 16 17  1  1
 17 18  1  0
 18 22  1  0
 19 18  2  0
 20 16  1  0
 21 20  1  0
 23 20  2  0
M  END
$$$$
