KAD.pdb
     RDKit          3D

 23 22  0  0  1  0  0  0  0  0999 V2000
   15.7725  -11.4303  -15.7496 N   0  0  0  0  0  0  0  0  0  0  0  0
   16.9267  -10.8332  -15.1109 C   0  0  1  0  0  0  0  0  0  0  0  0
   17.8924  -10.2476  -16.1001 C   0  0  0  0  0  0  0  0  0  0  0  0
   18.5593  -11.2229  -16.9929 C   0  0  0  0  0  0  0  0  0  0  0  0
   19.5003  -10.6889  -18.0042 C   0  0  0  0  0  0  0  0  0  0  0  0
   20.0899  -11.7384  -18.9082 C   0  0  0  0  0  0  0  0  0  0  0  0
   20.9870  -11.1505  -19.8852 N   0  0  0  0  0  0  0  0  0  0  0  0
   16.5625   -9.8676  -14.0449 C   0  0  0  0  0  0  0  0  0  0  0  0
   15.7245   -8.9621  -14.3130 O   0  0  0  0  0  0  0  0  0  0  0  0
   16.9143   -9.3638  -10.3347 C   0  0  0  0  0  0  0  0  0  0  0  0
   16.7530   -8.8588  -11.7460 C   0  0  2  0  0  0  0  0  0  0  0  0
   17.0809   -9.8719  -12.7285 N   0  0  0  0  0  0  0  0  0  0  0  0
   17.5672   -7.6276  -11.9403 C   0  0  0  0  0  0  0  0  0  0  0  0
   17.3686   -6.6396  -11.1878 O   0  0  0  0  0  0  0  0  0  0  0  0
   18.5603   -7.5036  -12.9317 N   0  0  0  0  0  0  0  0  0  0  0  0
   19.3025   -6.2640  -13.1960 C   0  0  1  0  0  0  0  0  0  0  0  0
   20.7733   -6.6961  -13.1542 C   0  0  0  0  0  0  0  0  0  0  0  0
   21.7009   -5.5950  -13.4697 C   0  0  0  0  0  0  0  0  0  0  0  0
   21.4531   -4.4227  -13.0937 O   0  0  0  0  0  0  0  0  0  0  0  0
   18.9730   -5.8506  -14.5794 C   0  0  0  0  0  0  0  0  0  0  0  0
   19.1871   -6.7054  -15.6289 O   0  0  0  0  0  0  0  0  0  0  0  0
   22.8640   -5.8493  -14.1911 O   0  0  0  0  0  0  0  0  0  0  0  0
   18.4943   -4.7205  -14.8332 O   0  0  0  0  0  0  0  0  0  0  0  0
  2  8  1  0
  2  1  1  6
  3  2  1  0
  4  3  1  0
  5  4  1  0
  6  5  1  0
  7  6  1  0
  8  9  2  0
 11 10  1  1
 12 11  1  0
 12  8  1  0
 13 11  1  0
 13 15  1  0
 14 13  2  0
 16 15  1  0
 16 17  1  6
 17 18  1  0
 18 22  1  0
 19 18  2  0
 20 16  1  0
 21 20  1  0
 23 20  2  0
M  END
$$$$
