KAD.pdb
     RDKit          3D

 23 22  0  0  1  0  0  0  0  0999 V2000
   20.4143  -12.5375  -17.4452 N   0  0  0  0  0  0  0  0  0  0  0  0
   19.4801  -11.6435  -16.7935 C   0  0  1  0  0  0  0  0  0  0  0  0
   18.3846  -12.3791  -16.0776 C   0  0  0  0  0  0  0  0  0  0  0  0
   17.5302  -13.2366  -16.9308 C   0  0  0  0  0  0  0  0  0  0  0  0
   16.5288  -14.0912  -16.2524 C   0  0  0  0  0  0  0  0  0  0  0  0
   15.6718  -14.8963  -17.1923 C   0  0  0  0  0  0  0  0  0  0  0  0
   14.7725  -15.7738  -16.4668 N   0  0  0  0  0  0  0  0  0  0  0  0
   20.1474  -10.6456  -15.9216 C   0  0  0  0  0  0  0  0  0  0  0  0
   19.4299   -9.8120  -15.3015 O   0  0  0  0  0  0  0  0  0  0  0  0
   23.6243   -9.8187  -14.6406 C   0  0  0  0  0  0  0  0  0  0  0  0
   22.1431   -9.5916  -14.8056 C   0  0  2  0  0  0  0  0  0  0  0  0
   21.5439  -10.5434  -15.7190 N   0  0  0  0  0  0  0  0  0  0  0  0
   21.8898   -8.1893  -15.2365 C   0  0  0  0  0  0  0  0  0  0  0  0
   22.1599   -7.8559  -16.4189 O   0  0  0  0  0  0  0  0  0  0  0  0
   21.3582   -7.2009  -14.3852 N   0  0  0  0  0  0  0  0  0  0  0  0
   21.1596   -5.8004  -14.7809 C   0  0  1  0  0  0  0  0  0  0  0  0
   19.7410   -5.4757  -14.2972 C   0  0  0  0  0  0  0  0  0  0  0  0
   18.6968   -6.0483  -15.1656 C   0  0  0  0  0  0  0  0  0  0  0  0
   18.8122   -6.0087  -16.4155 O   0  0  0  0  0  0  0  0  0  0  0  0
   22.1204   -4.9904  -13.9974 C   0  0  0  0  0  0  0  0  0  0  0  0
   22.8766   -5.5706  -13.0128 O   0  0  0  0  0  0  0  0  0  0  0  0
   17.5696   -6.6396  -14.6022 O   0  0  0  0  0  0  0  0  0  0  0  0
   22.2718   -3.7638  -14.2054 O   0  0  0  0  0  0  0  0  0  0  0  0
  2  8  1  0
  2  1  1  1
  3  2  1  0
  4  3  1  0
  5  4  1  0
  6  5  1  0
  7  6  1  0
  8  9  2  0
 11 10  1  6
 12 11  1  0
 12  8  1  0
 13 11  1  0
 13 15  1  0
 14 13  2  0
 16 15  1  0
 16 17  1  1
 17 18  1  0
 18 22  1  0
 19 18  2  0
 20 16  1  0
 21 20  1  0
 23 20  2  0
M  END
$$$$
