EVM.pdb
     RDKit          3D

 25 24  0  0  1  0  0  0  0  0999 V2000
   20.7704  -21.4564  -11.9374 N   0  0  0  0  0  0  0  0  0  0  0  0
   21.7816  -21.3264  -12.9737 C   0  0  1  0  0  0  0  0  0  0  0  0
   21.1385  -20.7240  -14.1733 C   0  0  0  0  0  0  0  0  0  0  0  0
   20.1341  -21.6276  -14.8023 C   0  0  0  0  0  0  0  0  0  0  0  0
   18.8804  -21.7045  -14.0443 C   0  0  0  0  0  0  0  0  0  0  0  0
   18.3417  -22.8025  -13.8092 O   0  0  0  0  0  0  0  0  0  0  0  0
   22.8616  -20.4361  -12.4206 C   0  0  0  0  0  0  0  0  0  0  0  0
   22.5383  -19.3990  -11.7824 O   0  0  0  0  0  0  0  0  0  0  0  0
   18.2288  -20.5700  -13.5503 O   0  0  0  0  0  0  0  0  0  0  0  0
   23.6514  -20.2605  -10.0836 C   0  0  0  0  0  0  0  0  0  0  0  0
   25.1083  -20.4267  -10.4421 C   0  0  1  0  0  0  0  0  0  0  0  0
   25.6965  -21.7249  -10.0321 C   0  0  0  0  0  0  0  0  0  0  0  0
   25.2896  -20.0384  -11.8720 C   0  0  2  0  0  0  0  0  0  0  0  0
   24.2094  -20.7378  -12.6020 N   0  0  0  0  0  0  0  0  0  0  0  0
   26.6001  -20.5304  -12.3616 C   0  0  0  0  0  0  0  0  0  0  0  0
   26.8200  -21.7691  -12.5509 O   0  0  0  0  0  0  0  0  0  0  0  0
   31.1453  -22.0080   -9.3910 C   0  0  0  0  0  0  0  0  0  0  0  0
   31.4423  -22.7486  -11.0020 S   0  0  0  0  0  0  0  0  0  0  0  0
   30.7713  -21.7372  -12.3596 C   0  0  0  0  0  0  0  0  0  0  0  0
   29.4939  -21.0797  -11.9904 C   0  0  0  0  0  0  0  0  0  0  0  0
   28.9837  -20.1870  -13.0884 C   0  0  2  0  0  0  0  0  0  0  0  0
   27.6635  -19.6638  -12.6427 N   0  0  0  0  0  0  0  0  0  0  0  0
   28.7889  -20.9826  -14.3203 C   0  0  0  0  0  0  0  0  0  0  0  0
   29.2793  -20.4519  -15.5358 O   0  0  0  0  0  0  0  0  0  0  0  0
   28.2172  -22.0936  -14.3445 O   0  0  0  0  0  0  0  0  0  0  0  0
  2  1  1  1
  2  3  1  0
  3  4  1  0
  4  5  1  0
  5  9  1  0
  6  5  2  0
  7  8  2  0
  7  2  1  0
 11 10  1  6
 12 11  1  0
 13 14  1  6
 13 11  1  0
 14  7  1  0
 15 13  1  0
 16 15  2  0
 18 19  1  0
 18 17  1  0
 20 19  1  0
 21 20  1  1
 21 22  1  0
 22 15  1  0
 23 21  1  0
 23 24  1  0
 25 23  2  0
M  END
$$$$
