EVM.pdb
     RDKit          3D

 25 24  0  0  1  0  0  0  0  0999 V2000
   27.1209  -22.5744  -16.6964 N   0  0  0  0  0  0  0  0  0  0  0  0
   26.7668  -21.3752  -15.9549 C   0  0  1  0  0  0  0  0  0  0  0  0
   26.0495  -20.4555  -16.8797 C   0  0  0  0  0  0  0  0  0  0  0  0
   26.7574  -20.2792  -18.1792 C   0  0  0  0  0  0  0  0  0  0  0  0
   27.8935  -19.3553  -18.0905 C   0  0  0  0  0  0  0  0  0  0  0  0
   27.7160  -18.1432  -17.8664 O   0  0  0  0  0  0  0  0  0  0  0  0
   25.8852  -21.8108  -14.8156 C   0  0  0  0  0  0  0  0  0  0  0  0
   24.9842  -22.6659  -15.0260 O   0  0  0  0  0  0  0  0  0  0  0  0
   29.2184  -19.7740  -18.2492 O   0  0  0  0  0  0  0  0  0  0  0  0
   26.3464  -19.7453  -11.3532 C   0  0  0  0  0  0  0  0  0  0  0  0
   25.7722  -21.1325  -11.1966 C   0  0  1  0  0  0  0  0  0  0  0  0
   25.0290  -21.3494   -9.9316 C   0  0  0  0  0  0  0  0  0  0  0  0
   25.0566  -21.4920  -12.4563 C   0  0  2  0  0  0  0  0  0  0  0  0
   26.0475  -21.2859  -13.5355 N   0  0  0  0  0  0  0  0  0  0  0  0
   23.9162  -20.5672  -12.6651 C   0  0  0  0  0  0  0  0  0  0  0  0
   24.0863  -19.3860  -13.1057 O   0  0  0  0  0  0  0  0  0  0  0  0
   21.9711  -19.7528  -17.4877 C   0  0  0  0  0  0  0  0  0  0  0  0
   20.3033  -19.6720  -16.8215 S   0  0  0  0  0  0  0  0  0  0  0  0
   20.2921  -19.5576  -15.0041 C   0  0  0  0  0  0  0  0  0  0  0  0
   21.4452  -20.2609  -14.3910 C   0  0  0  0  0  0  0  0  0  0  0  0
   21.4489  -20.1330  -12.8922 C   0  0  2  0  0  0  0  0  0  0  0  0
   22.5946  -20.9405  -12.3916 N   0  0  0  0  0  0  0  0  0  0  0  0
   20.1949  -20.6966  -12.3460 C   0  0  0  0  0  0  0  0  0  0  0  0
   20.1251  -22.0963  -12.1570 O   0  0  0  0  0  0  0  0  0  0  0  0
   19.1986  -20.0056  -12.0435 O   0  0  0  0  0  0  0  0  0  0  0  0
  2  1  1  6
  2  3  1  0
  3  4  1  0
  4  5  1  0
  5  9  1  0
  6  5  2  0
  7  8  2  0
  7  2  1  0
 11 10  1  6
 12 11  1  0
 13 14  1  6
 13 11  1  0
 14  7  1  0
 15 13  1  0
 16 15  2  0
 18 19  1  0
 18 17  1  0
 20 19  1  0
 21 20  1  6
 21 22  1  0
 22 15  1  0
 23 21  1  0
 23 24  1  0
 25 23  2  0
M  END
$$$$
