EVM.pdb
     RDKit          3D

 25 24  0  0  1  0  0  0  0  0999 V2000
   24.1941  -17.9359  -16.1607 N   0  0  0  0  0  0  0  0  0  0  0  0
   25.2682  -18.0052  -15.1836 C   0  0  1  0  0  0  0  0  0  0  0  0
   25.7390  -16.6188  -14.9161 C   0  0  0  0  0  0  0  0  0  0  0  0
   26.0832  -15.8776  -16.1623 C   0  0  0  0  0  0  0  0  0  0  0  0
   24.9814  -15.0428  -16.6536 C   0  0  0  0  0  0  0  0  0  0  0  0
   24.7093  -13.9570  -16.1078 O   0  0  0  0  0  0  0  0  0  0  0  0
   24.6929  -18.6412  -13.9468 C   0  0  0  0  0  0  0  0  0  0  0  0
   23.5925  -18.2257  -13.4954 O   0  0  0  0  0  0  0  0  0  0  0  0
   24.1868  -15.4107  -17.7441 O   0  0  0  0  0  0  0  0  0  0  0  0
   23.2963  -21.6461  -13.5728 C   0  0  0  0  0  0  0  0  0  0  0  0
   24.4522  -21.7486  -12.6075 C   0  0  1  0  0  0  0  0  0  0  0  0
   25.5884  -22.5671  -13.0960 C   0  0  0  0  0  0  0  0  0  0  0  0
   24.7837  -20.3769  -12.1210 C   0  0  2  0  0  0  0  0  0  0  0  0
   25.3545  -19.6787  -13.2939 N   0  0  0  0  0  0  0  0  0  0  0  0
   25.8154  -20.4586  -11.0588 C   0  0  0  0  0  0  0  0  0  0  0  0
   26.9720  -20.9368  -11.2866 O   0  0  0  0  0  0  0  0  0  0  0  0
   29.5169  -18.3033   -4.9261 C   0  0  0  0  0  0  0  0  0  0  0  0
   27.7907  -18.3182   -5.4279 S   0  0  0  0  0  0  0  0  0  0  0  0
   27.3929  -19.7462   -6.4856 C   0  0  0  0  0  0  0  0  0  0  0  0
   26.6301  -19.3526   -7.6953 C   0  0  0  0  0  0  0  0  0  0  0  0
   26.3836  -20.5218   -8.6091 C   0  0  2  0  0  0  0  0  0  0  0  0
   25.5762  -20.0151   -9.7523 N   0  0  0  0  0  0  0  0  0  0  0  0
   25.5995  -21.5512   -7.8922 C   0  0  0  0  0  0  0  0  0  0  0  0
   24.2263  -21.6757   -8.2063 O   0  0  0  0  0  0  0  0  0  0  0  0
   26.0831  -22.3137   -7.0283 O   0  0  0  0  0  0  0  0  0  0  0  0
  2  1  1  6
  2  3  1  0
  3  4  1  0
  4  5  1  0
  5  9  1  0
  6  5  2  0
  7  8  2  0
  7  2  1  0
 11 10  1  6
 12 11  1  0
 13 14  1  6
 13 11  1  0
 14  7  1  0
 15 13  1  0
 16 15  2  0
 18 19  1  0
 18 17  1  0
 20 19  1  0
 21 20  1  1
 21 22  1  0
 22 15  1  0
 23 21  1  0
 23 24  1  0
 25 23  2  0
M  END
$$$$
