EVM.pdb
     RDKit          3D

 25 24  0  0  1  0  0  0  0  0999 V2000
   23.7299  -19.4743  -17.6976 N   0  0  0  0  0  0  0  0  0  0  0  0
   24.3136  -18.6351  -16.6640 C   0  0  1  0  0  0  0  0  0  0  0  0
   23.2366  -17.7715  -16.1077 C   0  0  0  0  0  0  0  0  0  0  0  0
   22.0663  -17.6502  -17.0224 C   0  0  0  0  0  0  0  0  0  0  0  0
   20.7846  -17.8687  -16.3429 C   0  0  0  0  0  0  0  0  0  0  0  0
   20.0788  -16.9072  -15.9848 O   0  0  0  0  0  0  0  0  0  0  0  0
   24.8763  -19.5590  -15.6176 C   0  0  0  0  0  0  0  0  0  0  0  0
   24.2471  -20.6093  -15.3206 O   0  0  0  0  0  0  0  0  0  0  0  0
   20.2893  -19.1462  -16.0629 O   0  0  0  0  0  0  0  0  0  0  0  0
   28.7805  -20.5628  -12.8142 C   0  0  0  0  0  0  0  0  0  0  0  0
   28.1338  -19.9523  -14.0339 C   0  0  1  0  0  0  0  0  0  0  0  0
   28.7691  -20.3310  -15.3193 C   0  0  0  0  0  0  0  0  0  0  0  0
   26.6582  -20.1567  -13.9378 C   0  0  2  0  0  0  0  0  0  0  0  0
   26.0778  -19.2735  -14.9732 N   0  0  0  0  0  0  0  0  0  0  0  0
   26.1782  -19.7182  -12.6049 C   0  0  0  0  0  0  0  0  0  0  0  0
   26.2589  -18.5045  -12.2322 O   0  0  0  0  0  0  0  0  0  0  0  0
   20.4707  -20.2293   -9.9315 C   0  0  0  0  0  0  0  0  0  0  0  0
   21.5130  -20.7915   -8.5790 S   0  0  0  0  0  0  0  0  0  0  0  0
   23.2508  -20.2914   -8.7945 C   0  0  0  0  0  0  0  0  0  0  0  0
   23.7621  -20.6106  -10.1498 C   0  0  0  0  0  0  0  0  0  0  0  0
   25.1832  -20.1541  -10.3360 C   0  0  2  0  0  0  0  0  0  0  0  0
   25.6110  -20.6103  -11.6867 N   0  0  0  0  0  0  0  0  0  0  0  0
   26.0452  -20.7985   -9.3211 C   0  0  0  0  0  0  0  0  0  0  0  0
   26.7577  -21.9602   -9.6985 O   0  0  0  0  0  0  0  0  0  0  0  0
   26.1775  -20.3732   -8.1535 O   0  0  0  0  0  0  0  0  0  0  0  0
  2  1  1  6
  2  3  1  0
  3  4  1  0
  4  5  1  0
  5  9  1  0
  6  5  2  0
  7  8  2  0
  7  2  1  0
 11 10  1  1
 12 11  1  0
 13 14  1  6
 13 11  1  0
 14  7  1  0
 15 13  1  0
 16 15  2  0
 18 19  1  0
 18 17  1  0
 20 19  1  0
 21 20  1  1
 21 22  1  0
 22 15  1  0
 23 21  1  0
 23 24  1  0
 25 23  2  0
M  END
$$$$
