EVM.pdb
     RDKit          3D

 25 24  0  0  1  0  0  0  0  0999 V2000
   18.7186  -12.8876  -16.4867 N   0  0  0  0  0  0  0  0  0  0  0  0
   19.0051  -11.5472  -16.9708 C   0  0  1  0  0  0  0  0  0  0  0  0
   17.7095  -10.8735  -17.2586 C   0  0  0  0  0  0  0  0  0  0  0  0
   17.1038  -11.3173  -18.5458 C   0  0  0  0  0  0  0  0  0  0  0  0
   16.9251  -10.2193  -19.5021 C   0  0  0  0  0  0  0  0  0  0  0  0
   15.8682   -9.5611  -19.5298 O   0  0  0  0  0  0  0  0  0  0  0  0
   19.7638  -10.8416  -15.8792 C   0  0  0  0  0  0  0  0  0  0  0  0
   19.2672  -10.7827  -14.7228 O   0  0  0  0  0  0  0  0  0  0  0  0
   17.9132   -9.8540  -20.4219 O   0  0  0  0  0  0  0  0  0  0  0  0
   23.1829  -11.3986  -14.6237 C   0  0  0  0  0  0  0  0  0  0  0  0
   23.1468   -9.9933  -15.1736 C   0  0  1  0  0  0  0  0  0  0  0  0
   23.8339   -9.8271  -16.4774 C   0  0  0  0  0  0  0  0  0  0  0  0
   21.7430   -9.4917  -15.0950 C   0  0  2  0  0  0  0  0  0  0  0  0
   21.0026  -10.2537  -16.1247 N   0  0  0  0  0  0  0  0  0  0  0  0
   21.7066   -8.0504  -15.4420 C   0  0  0  0  0  0  0  0  0  0  0  0
   21.4215   -7.6532  -16.6164 O   0  0  0  0  0  0  0  0  0  0  0  0
   18.4288   -4.6356  -17.9622 C   0  0  0  0  0  0  0  0  0  0  0  0
   18.7691   -3.5900  -16.5399 S   0  0  0  0  0  0  0  0  0  0  0  0
   20.4111   -3.9152  -15.8228 C   0  0  0  0  0  0  0  0  0  0  0  0
   20.5548   -5.3187  -15.3649 C   0  0  0  0  0  0  0  0  0  0  0  0
   21.9476   -5.6108  -14.8777 C   0  0  2  0  0  0  0  0  0  0  0  0
   21.9816   -7.0505  -14.5010 N   0  0  0  0  0  0  0  0  0  0  0  0
   22.2301   -4.7976  -13.6747 C   0  0  0  0  0  0  0  0  0  0  0  0
   22.6562   -3.4624  -13.8630 O   0  0  0  0  0  0  0  0  0  0  0  0
   22.1125   -5.2248  -12.5062 O   0  0  0  0  0  0  0  0  0  0  0  0
  2  1  1  1
  2  3  1  0
  3  4  1  0
  4  5  1  0
  5  9  1  0
  6  5  2  0
  7  8  2  0
  7  2  1  0
 11 10  1  6
 12 11  1  0
 13 14  1  6
 13 11  1  0
 14  7  1  0
 15 13  1  0
 16 15  2  0
 18 19  1  0
 18 17  1  0
 20 19  1  0
 21 20  1  1
 21 22  1  0
 22 15  1  0
 23 21  1  0
 23 24  1  0
 25 23  2  0
M  END
$$$$
