EVM.pdb
     RDKit          3D

 25 24  0  0  1  0  0  0  0  0999 V2000
   25.1673  -22.1940  -16.1101 N   0  0  0  0  0  0  0  0  0  0  0  0
   24.2880  -21.2623  -15.4231 C   0  0  1  0  0  0  0  0  0  0  0  0
   22.9479  -21.3319  -16.0669 C   0  0  0  0  0  0  0  0  0  0  0  0
   22.9590  -20.8386  -17.4732 C   0  0  0  0  0  0  0  0  0  0  0  0
   23.2880  -19.4127  -17.5762 C   0  0  0  0  0  0  0  0  0  0  0  0
   22.4877  -18.5420  -17.1859 O   0  0  0  0  0  0  0  0  0  0  0  0
   24.2319  -21.6959  -13.9830 C   0  0  0  0  0  0  0  0  0  0  0  0
   23.6935  -22.7971  -13.6918 O   0  0  0  0  0  0  0  0  0  0  0  0
   24.4978  -18.9560  -18.1088 O   0  0  0  0  0  0  0  0  0  0  0  0
   25.6466  -20.6881   -9.3843 C   0  0  0  0  0  0  0  0  0  0  0  0
   25.8098  -20.5671  -10.8802 C   0  0  1  0  0  0  0  0  0  0  0  0
   27.1639  -20.9091  -11.3790 C   0  0  0  0  0  0  0  0  0  0  0  0
   24.6651  -21.2643  -11.5375 C   0  0  2  0  0  0  0  0  0  0  0  0
   24.7634  -20.9026  -12.9688 N   0  0  0  0  0  0  0  0  0  0  0  0
   23.3858  -20.7459  -10.9955 C   0  0  0  0  0  0  0  0  0  0  0  0
   22.9904  -19.5607  -11.2350 O   0  0  0  0  0  0  0  0  0  0  0  0
   18.1439  -24.2077  -10.3387 C   0  0  0  0  0  0  0  0  0  0  0  0
   17.7017  -22.9255   -9.1587 S   0  0  0  0  0  0  0  0  0  0  0  0
   18.9955  -21.6532   -9.0066 C   0  0  0  0  0  0  0  0  0  0  0  0
   20.2513  -22.0458   -9.6915 C   0  0  0  0  0  0  0  0  0  0  0  0
   21.2949  -20.9653   -9.6142 C   0  0  2  0  0  0  0  0  0  0  0  0
   22.5446  -21.5282  -10.1946 N   0  0  0  0  0  0  0  0  0  0  0  0
   21.5423  -20.6191   -8.1974 C   0  0  0  0  0  0  0  0  0  0  0  0
   22.5889  -21.2911   -7.5245 O   0  0  0  0  0  0  0  0  0  0  0  0
   20.8796  -19.7683   -7.5661 O   0  0  0  0  0  0  0  0  0  0  0  0
  2  1  1  6
  2  3  1  0
  3  4  1  0
  4  5  1  0
  5  9  1  0
  6  5  2  0
  7  8  2  0
  7  2  1  0
 11 10  1  1
 12 11  1  0
 13 14  1  6
 13 11  1  0
 14  7  1  0
 15 13  1  0
 16 15  2  0
 18 19  1  0
 18 17  1  0
 20 19  1  0
 21 20  1  1
 21 22  1  0
 22 15  1  0
 23 21  1  0
 23 24  1  0
 25 23  2  0
M  END
$$$$
