EVM.pdb
     RDKit          3D

 25 24  0  0  1  0  0  0  0  0999 V2000
   21.8620  -13.5123  -17.1035 N   0  0  0  0  0  0  0  0  0  0  0  0
   22.4784  -12.4312  -16.3520 C   0  0  1  0  0  0  0  0  0  0  0  0
   23.9089  -12.3465  -16.7543 C   0  0  0  0  0  0  0  0  0  0  0  0
   24.7278  -13.4646  -16.2066 C   0  0  0  0  0  0  0  0  0  0  0  0
   26.1168  -13.4402  -16.6779 C   0  0  0  0  0  0  0  0  0  0  0  0
   26.9533  -14.2550  -16.2452 O   0  0  0  0  0  0  0  0  0  0  0  0
   21.7305  -11.1734  -16.7035 C   0  0  0  0  0  0  0  0  0  0  0  0
   21.3572  -10.9907  -17.8929 O   0  0  0  0  0  0  0  0  0  0  0  0
   26.5746  -12.5171  -17.6236 O   0  0  0  0  0  0  0  0  0  0  0  0
   18.7525   -7.7819  -15.1472 C   0  0  0  0  0  0  0  0  0  0  0  0
   19.3844   -9.1437  -15.3051 C   0  0  1  0  0  0  0  0  0  0  0  0
   18.4646  -10.1918  -15.8101 C   0  0  0  0  0  0  0  0  0  0  0  0
   20.6740   -8.9832  -16.0395 C   0  0  2  0  0  0  0  0  0  0  0  0
   21.4447  -10.2099  -15.7390 N   0  0  0  0  0  0  0  0  0  0  0  0
   21.4090   -7.8094  -15.5090 C   0  0  0  0  0  0  0  0  0  0  0  0
   21.8502   -7.7810  -14.3161 O   0  0  0  0  0  0  0  0  0  0  0  0
   25.0199   -0.9973  -17.4484 C   0  0  0  0  0  0  0  0  0  0  0  0
   23.9665   -2.3744  -17.9233 S   0  0  0  0  0  0  0  0  0  0  0  0
   23.5756   -3.4607  -16.5150 C   0  0  0  0  0  0  0  0  0  0  0  0
   22.8106   -4.6622  -16.9291 C   0  0  0  0  0  0  0  0  0  0  0  0
   22.4669   -5.5407  -15.7575 C   0  0  2  0  0  0  0  0  0  0  0  0
   21.6585   -6.6726  -16.2875 N   0  0  0  0  0  0  0  0  0  0  0  0
   21.6433   -4.7781  -14.7940 C   0  0  0  0  0  0  0  0  0  0  0  0
   20.2394   -4.7978  -14.9617 O   0  0  0  0  0  0  0  0  0  0  0  0
   22.1192   -4.1206  -13.8438 O   0  0  0  0  0  0  0  0  0  0  0  0
  2  1  1  6
  2  3  1  0
  3  4  1  0
  4  5  1  0
  5  9  1  0
  6  5  2  0
  7  8  2  0
  7  2  1  0
 11 10  1  6
 12 11  1  0
 13 14  1  1
 13 11  1  0
 14  7  1  0
 15 13  1  0
 16 15  2  0
 18 19  1  0
 18 17  1  0
 20 19  1  0
 21 20  1  6
 21 22  1  0
 22 15  1  0
 23 21  1  0
 23 24  1  0
 25 23  2  0
M  END
$$$$
