EVM.pdb
     RDKit          3D

 25 24  0  0  1  0  0  0  0  0999 V2000
   23.7542  -20.5898  -17.5101 N   0  0  0  0  0  0  0  0  0  0  0  0
   23.6572  -20.0074  -16.1817 C   0  0  1  0  0  0  0  0  0  0  0  0
   22.2933  -20.2848  -15.6544 C   0  0  0  0  0  0  0  0  0  0  0  0
   21.2346  -19.5104  -16.3617 C   0  0  0  0  0  0  0  0  0  0  0  0
   21.3374  -18.0644  -16.1368 C   0  0  0  0  0  0  0  0  0  0  0  0
   21.5477  -17.6079  -14.9973 O   0  0  0  0  0  0  0  0  0  0  0  0
   24.7187  -20.6622  -15.3393 C   0  0  0  0  0  0  0  0  0  0  0  0
   24.9015  -21.9050  -15.4353 O   0  0  0  0  0  0  0  0  0  0  0  0
   21.2078  -17.1308  -17.1700 O   0  0  0  0  0  0  0  0  0  0  0  0
   27.4056  -18.2922  -13.4841 C   0  0  0  0  0  0  0  0  0  0  0  0
   27.7305  -19.7498  -13.7039 C   0  0  1  0  0  0  0  0  0  0  0  0
   28.9194  -20.2320  -12.9599 C   0  0  0  0  0  0  0  0  0  0  0  0
   26.4770  -20.5431  -13.5370 C   0  0  2  0  0  0  0  0  0  0  0  0
   25.5003  -19.9198  -14.4572 N   0  0  0  0  0  0  0  0  0  0  0  0
   25.9822  -20.4097  -12.1454 C   0  0  0  0  0  0  0  0  0  0  0  0
   25.5346  -19.3058  -11.6987 O   0  0  0  0  0  0  0  0  0  0  0  0
   29.2134  -20.0313   -7.3960 C   0  0  0  0  0  0  0  0  0  0  0  0
   27.6107  -19.4742   -6.8020 S   0  0  0  0  0  0  0  0  0  0  0  0
   26.2341  -20.2146   -7.7362 C   0  0  0  0  0  0  0  0  0  0  0  0
   26.6257  -20.5741   -9.1211 C   0  0  0  0  0  0  0  0  0  0  0  0
   25.5301  -21.3117   -9.8411 C   0  0  2  0  0  0  0  0  0  0  0  0
   25.9787  -21.4860  -11.2496 N   0  0  0  0  0  0  0  0  0  0  0  0
   24.2970  -20.4947   -9.8322 C   0  0  0  0  0  0  0  0  0  0  0  0
   23.5781  -20.3938   -8.6186 O   0  0  0  0  0  0  0  0  0  0  0  0
   23.8584  -19.8912  -10.8347 O   0  0  0  0  0  0  0  0  0  0  0  0
  2  1  1  6
  2  3  1  0
  3  4  1  0
  4  5  1  0
  5  9  1  0
  6  5  2  0
  7  8  2  0
  7  2  1  0
 11 10  1  1
 12 11  1  0
 13 14  1  6
 13 11  1  0
 14  7  1  0
 15 13  1  0
 16 15  2  0
 18 19  1  0
 18 17  1  0
 20 19  1  0
 21 20  1  1
 21 22  1  0
 22 15  1  0
 23 21  1  0
 23 24  1  0
 25 23  2  0
M  END
$$$$
