EVM.pdb
     RDKit          3D

 25 24  0  0  1  0  0  0  0  0999 V2000
   21.8308   -8.3452  -13.9560 N   0  0  0  0  0  0  0  0  0  0  0  0
   21.6592   -9.1266  -15.1698 C   0  0  1  0  0  0  0  0  0  0  0  0
   20.6318   -8.4537  -16.0107 C   0  0  0  0  0  0  0  0  0  0  0  0
   19.2674   -8.5203  -15.4152 C   0  0  0  0  0  0  0  0  0  0  0  0
   18.2370   -7.9353  -16.2802 C   0  0  0  0  0  0  0  0  0  0  0  0
   18.0095   -6.7110  -16.2656 O   0  0  0  0  0  0  0  0  0  0  0  0
   22.9973   -9.1645  -15.8576 C   0  0  0  0  0  0  0  0  0  0  0  0
   23.7493   -8.1554  -15.7980 O   0  0  0  0  0  0  0  0  0  0  0  0
   17.4639   -8.7042  -17.1560 O   0  0  0  0  0  0  0  0  0  0  0  0
   26.9922  -11.1302  -16.2952 C   0  0  0  0  0  0  0  0  0  0  0  0
   25.6613  -10.5556  -15.8739 C   0  0  1  0  0  0  0  0  0  0  0  0
   25.7579   -9.3505  -15.0150 C   0  0  0  0  0  0  0  0  0  0  0  0
   24.7930  -10.4407  -17.0827 C   0  0  2  0  0  0  0  0  0  0  0  0
   23.4177  -10.2931  -16.5575 N   0  0  0  0  0  0  0  0  0  0  0  0
   24.8745  -11.6899  -17.8777 C   0  0  0  0  0  0  0  0  0  0  0  0
   24.5127  -12.8114  -17.3983 O   0  0  0  0  0  0  0  0  0  0  0  0
   23.1295  -12.9364  -24.3433 C   0  0  0  0  0  0  0  0  0  0  0  0
   24.8589  -13.3314  -24.0515 S   0  0  0  0  0  0  0  0  0  0  0  0
   25.1809  -13.7743  -22.3147 C   0  0  0  0  0  0  0  0  0  0  0  0
   25.1820  -12.5877  -21.4245 C   0  0  0  0  0  0  0  0  0  0  0  0
   25.3876  -12.9668  -19.9835 C   0  0  2  0  0  0  0  0  0  0  0  0
   25.3508  -11.7053  -19.1944 N   0  0  0  0  0  0  0  0  0  0  0  0
   26.7196  -13.5898  -19.8226 C   0  0  0  0  0  0  0  0  0  0  0  0
   26.8186  -14.9916  -19.9804 O   0  0  0  0  0  0  0  0  0  0  0  0
   27.7577  -12.9470  -19.5563 O   0  0  0  0  0  0  0  0  0  0  0  0
  2  1  1  1
  2  3  1  0
  3  4  1  0
  4  5  1  0
  5  9  1  0
  6  5  2  0
  7  8  2  0
  7  2  1  0
 11 10  1  6
 12 11  1  0
 13 14  1  1
 13 11  1  0
 14  7  1  0
 15 13  1  0
 16 15  2  0
 18 19  1  0
 18 17  1  0
 20 19  1  0
 21 20  1  6
 21 22  1  0
 22 15  1  0
 23 21  1  0
 23 24  1  0
 25 23  2  0
M  END
$$$$
