FAV.pdb
     RDKit          3D

 24 24  0  0  1  0  0  0  0  0999 V2000
   28.6437  -21.1129   -9.2175 N   0  0  0  0  0  0  0  0  0  0  0  0
   27.2122  -20.9158   -9.1346 C   0  0  1  0  0  0  0  0  0  0  0  0
   26.8374  -19.7767   -8.2323 C   0  0  0  0  0  0  0  0  0  0  0  0
   27.4202  -19.8436   -6.8959 C   0  0  0  0  0  0  0  0  0  0  0  0
   26.8486  -20.7091   -5.9765 C   0  0  0  0  0  0  0  0  0  0  0  0
   27.3311  -20.8373   -4.6960 C   0  0  0  0  0  0  0  0  0  0  0  0
   28.4159  -20.0984   -4.2766 C   0  0  0  0  0  0  0  0  0  0  0  0
   28.9893  -19.2357   -5.1857 C   0  0  0  0  0  0  0  0  0  0  0  0
   28.4985  -19.1141   -6.4672 C   0  0  0  0  0  0  0  0  0  0  0  0
   26.5891  -20.8270  -10.4770 C   0  0  0  0  0  0  0  0  0  0  0  0
   27.0646  -20.0508  -11.3344 O   0  0  0  0  0  0  0  0  0  0  0  0
   24.6727  -23.0341  -12.6006 C   0  0  0  0  0  0  0  0  0  0  0  0
   24.8521  -21.6257  -12.0438 C   0  0  2  0  0  0  0  0  0  0  0  0
   25.4570  -21.6454  -10.7315 N   0  0  0  0  0  0  0  0  0  0  0  0
   23.5605  -20.8928  -12.0299 C   0  0  0  0  0  0  0  0  0  0  0  0
   22.9428  -20.6877  -10.9543 O   0  0  0  0  0  0  0  0  0  0  0  0
   20.4459  -18.6749  -15.1209 C   0  0  0  0  0  0  0  0  0  0  0  0
   21.6543  -18.5614  -14.2432 C   0  0  1  0  0  0  0  0  0  0  0  0
   21.6587  -17.2175  -13.5726 C   0  0  0  0  0  0  0  0  0  0  0  0
   21.7110  -19.6337  -13.1858 C   0  0  2  0  0  0  0  0  0  0  0  0
   22.9490  -20.3834  -13.2175 N   0  0  0  0  0  0  0  0  0  0  0  0
   20.5440  -20.5392  -13.2499 C   0  0  0  0  0  0  0  0  0  0  0  0
   19.4347  -20.2946  -12.7593 O   0  0  0  0  0  0  0  0  0  0  0  0
   20.6895  -21.7626  -13.9088 O   0  0  0  0  0  0  0  0  0  0  0  0
  2  1  1  6
  3  2  1  0
  4  3  1  0
  4  9  2  0
  5  4  1  0
  6  5  2  0
  6  7  1  0
  7  8  2  0
  8  9  1  0
 10  2  1  0
 11 10  2  0
 13 12  1  1
 13 14  1  0
 13 15  1  0
 14 10  1  0
 15 21  1  0
 16 15  2  0
 18 20  1  0
 18 19  1  1
 18 17  1  0
 20 22  1  0
 20 21  1  6
 22 23  2  0
 22 24  1  0
M  END
$$$$
