FAV.pdb
     RDKit          3D

 24 24  0  0  1  0  0  0  0  0999 V2000
   26.4161  -19.4568  -17.4117 N   0  0  0  0  0  0  0  0  0  0  0  0
   27.0218  -18.8384  -16.2517 C   0  0  1  0  0  0  0  0  0  0  0  0
   26.4929  -17.4585  -15.9905 C   0  0  0  0  0  0  0  0  0  0  0  0
   26.7812  -16.4886  -17.0424 C   0  0  0  0  0  0  0  0  0  0  0  0
   25.7215  -16.0058  -17.7940 C   0  0  0  0  0  0  0  0  0  0  0  0
   25.8994  -15.0909  -18.8040 C   0  0  0  0  0  0  0  0  0  0  0  0
   27.1564  -14.6154  -19.1081 C   0  0  0  0  0  0  0  0  0  0  0  0
   28.2148  -15.0913  -18.3646 C   0  0  0  0  0  0  0  0  0  0  0  0
   28.0265  -16.0084  -17.3541 C   0  0  0  0  0  0  0  0  0  0  0  0
   26.9628  -19.7214  -15.0621 C   0  0  0  0  0  0  0  0  0  0  0  0
   25.9051  -20.3306  -14.7905 O   0  0  0  0  0  0  0  0  0  0  0  0
   29.4728  -20.7298  -12.4124 C   0  0  0  0  0  0  0  0  0  0  0  0
   28.0960  -20.6252  -13.0598 C   0  0  2  0  0  0  0  0  0  0  0  0
   28.1356  -19.8362  -14.2700 N   0  0  0  0  0  0  0  0  0  0  0  0
   27.0982  -20.0881  -12.0998 C   0  0  0  0  0  0  0  0  0  0  0  0
   27.0388  -18.8582  -11.8465 O   0  0  0  0  0  0  0  0  0  0  0  0
   23.5874  -19.6466  -12.0637 C   0  0  0  0  0  0  0  0  0  0  0  0
   23.8327  -20.4137  -10.8007 C   0  0  1  0  0  0  0  0  0  0  0  0
   23.3876  -21.8360  -10.9871 C   0  0  0  0  0  0  0  0  0  0  0  0
   25.2813  -20.4070  -10.3854 C   0  0  2  0  0  0  0  0  0  0  0  0
   26.1592  -20.9210  -11.4154 N   0  0  0  0  0  0  0  0  0  0  0  0
   25.4957  -21.1174   -9.1066 C   0  0  0  0  0  0  0  0  0  0  0  0
   26.1819  -22.1385   -8.9744 O   0  0  0  0  0  0  0  0  0  0  0  0
   24.8858  -20.6107   -7.9563 O   0  0  0  0  0  0  0  0  0  0  0  0
  2  1  1  6
  3  2  1  0
  4  3  1  0
  4  9  2  0
  5  4  1  0
  6  5  2  0
  6  7  1  0
  7  8  2  0
  8  9  1  0
 10  2  1  0
 11 10  2  0
 13 12  1  1
 13 14  1  0
 13 15  1  0
 14 10  1  0
 15 21  1  0
 16 15  2  0
 18 20  1  0
 18 19  1  6
 18 17  1  0
 20 22  1  0
 20 21  1  6
 22 23  2  0
 22 24  1  0
M  END
$$$$
