FAV.pdb
     RDKit          3D

 24 24  0  0  1  0  0  0  0  0999 V2000
   28.6348  -19.9924  -14.0060 N   0  0  0  0  0  0  0  0  0  0  0  0
   27.5871  -20.6923  -13.2936 C   0  0  1  0  0  0  0  0  0  0  0  0
   27.6562  -20.4795  -11.8096 C   0  0  0  0  0  0  0  0  0  0  0  0
   28.9032  -20.9179  -11.1908 C   0  0  0  0  0  0  0  0  0  0  0  0
   28.9186  -22.1482  -10.5527 C   0  0  0  0  0  0  0  0  0  0  0  0
   30.0476  -22.6409   -9.9432 C   0  0  0  0  0  0  0  0  0  0  0  0
   31.2203  -21.9174   -9.9461 C   0  0  0  0  0  0  0  0  0  0  0  0
   31.2121  -20.6930  -10.5788 C   0  0  0  0  0  0  0  0  0  0  0  0
   30.0754  -20.2076  -11.1870 C   0  0  0  0  0  0  0  0  0  0  0  0
   26.2480  -20.4075  -13.8627 C   0  0  0  0  0  0  0  0  0  0  0  0
   25.7924  -19.2434  -13.8311 O   0  0  0  0  0  0  0  0  0  0  0  0
   23.9274  -22.1826  -16.1595 C   0  0  0  0  0  0  0  0  0  0  0  0
   24.2143  -21.2604  -14.9792 C   0  0  2  0  0  0  0  0  0  0  0  0
   25.5302  -21.4938  -14.4292 N   0  0  0  0  0  0  0  0  0  0  0  0
   23.1646  -21.3914  -13.9369 C   0  0  0  0  0  0  0  0  0  0  0  0
   23.2917  -22.2051  -12.9871 O   0  0  0  0  0  0  0  0  0  0  0  0
   21.7507  -18.3855  -12.4760 C   0  0  0  0  0  0  0  0  0  0  0  0
   20.6790  -19.4040  -12.2357 C   0  0  1  0  0  0  0  0  0  0  0  0
   19.3678  -18.8773  -12.7448 C   0  0  0  0  0  0  0  0  0  0  0  0
   20.9668  -20.7235  -12.9045 C   0  0  2  0  0  0  0  0  0  0  0  0
   21.9646  -20.6141  -13.9476 N   0  0  0  0  0  0  0  0  0  0  0  0
   19.7376  -21.3668  -13.4155 C   0  0  0  0  0  0  0  0  0  0  0  0
   19.4077  -21.4088  -14.6074 O   0  0  0  0  0  0  0  0  0  0  0  0
   18.8771  -21.9751  -12.4982 O   0  0  0  0  0  0  0  0  0  0  0  0
  2  1  1  6
  3  2  1  0
  4  3  1  0
  4  9  2  0
  5  4  1  0
  6  5  2  0
  6  7  1  0
  7  8  2  0
  8  9  1  0
 10  2  1  0
 11 10  2  0
 13 12  1  6
 13 14  1  0
 13 15  1  0
 14 10  1  0
 15 21  1  0
 16 15  2  0
 18 20  1  0
 18 19  1  6
 18 17  1  0
 20 22  1  0
 20 21  1  6
 22 23  2  0
 22 24  1  0
M  END
$$$$
