FAV.pdb
     RDKit          3D

 24 24  0  0  1  0  0  0  0  0999 V2000
   25.5949  -21.2354  -12.7630 N   0  0  0  0  0  0  0  0  0  0  0  0
   24.5246  -20.3807  -13.2311 C   0  0  1  0  0  0  0  0  0  0  0  0
   24.6210  -20.0861  -14.6995 C   0  0  0  0  0  0  0  0  0  0  0  0
   25.8281  -19.3683  -15.0968 C   0  0  0  0  0  0  0  0  0  0  0  0
   26.8539  -20.0908  -15.6853 C   0  0  0  0  0  0  0  0  0  0  0  0
   28.0258  -19.4981  -16.0907 C   0  0  0  0  0  0  0  0  0  0  0  0
   28.2233  -18.1447  -15.9231 C   0  0  0  0  0  0  0  0  0  0  0  0
   27.2072  -17.4200  -15.3384 C   0  0  0  0  0  0  0  0  0  0  0  0
   26.0361  -18.0232  -14.9353 C   0  0  0  0  0  0  0  0  0  0  0  0
   23.1934  -20.8909  -12.8239 C   0  0  0  0  0  0  0  0  0  0  0  0
   22.9309  -22.1081  -12.9389 O   0  0  0  0  0  0  0  0  0  0  0  0
   20.2615  -19.3608  -11.0083 C   0  0  0  0  0  0  0  0  0  0  0  0
   20.9740  -20.4201  -11.8426 C   0  0  2  0  0  0  0  0  0  0  0  0
   22.2588  -19.9529  -12.3113 N   0  0  0  0  0  0  0  0  0  0  0  0
   20.1200  -20.8684  -12.9717 C   0  0  0  0  0  0  0  0  0  0  0  0
   20.1534  -20.2815  -14.0830 O   0  0  0  0  0  0  0  0  0  0  0  0
   19.8070  -24.4270  -14.3961 C   0  0  0  0  0  0  0  0  0  0  0  0
   18.4230  -23.8965  -14.1801 C   0  0  1  0  0  0  0  0  0  0  0  0
   17.8164  -24.5615  -12.9779 C   0  0  0  0  0  0  0  0  0  0  0  0
   18.3950  -22.4034  -13.9769 C   0  0  2  0  0  0  0  0  0  0  0  0
   19.2218  -21.9759  -12.8681 N   0  0  0  0  0  0  0  0  0  0  0  0
   17.0165  -21.8878  -13.8367 C   0  0  0  0  0  0  0  0  0  0  0  0
   16.5535  -21.3862  -12.8046 O   0  0  0  0  0  0  0  0  0  0  0  0
   16.1638  -21.9659  -14.9407 O   0  0  0  0  0  0  0  0  0  0  0  0
  2  1  1  6
  3  2  1  0
  4  3  1  0
  4  9  2  0
  5  4  1  0
  6  5  2  0
  6  7  1  0
  7  8  2  0
  8  9  1  0
 10  2  1  0
 11 10  2  0
 13 12  1  6
 13 14  1  0
 13 15  1  0
 14 10  1  0
 15 21  1  0
 16 15  2  0
 18 20  1  0
 18 19  1  1
 18 17  1  0
 20 22  1  0
 20 21  1  1
 22 23  2  0
 22 24  1  0
M  END
$$$$
