FAV.pdb
     RDKit          3D

 24 24  0  0  1  0  0  0  0  0999 V2000
   16.6424  -11.2925  -16.6526 N   0  0  0  0  0  0  0  0  0  0  0  0
   16.3861   -9.9567  -16.1576 C   0  0  1  0  0  0  0  0  0  0  0  0
   15.7748   -9.9562  -14.7870 C   0  0  0  0  0  0  0  0  0  0  0  0
   14.4368  -10.5353  -14.7187 C   0  0  0  0  0  0  0  0  0  0  0  0
   14.3024  -11.8084  -14.1874 C   0  0  0  0  0  0  0  0  0  0  0  0
   13.0819  -12.4316  -14.0841 C   0  0  0  0  0  0  0  0  0  0  0  0
   11.9331  -11.8023  -14.5116 C   0  0  0  0  0  0  0  0  0  0  0  0
   12.0594  -10.5361  -15.0410 C   0  0  0  0  0  0  0  0  0  0  0  0
   13.2873   -9.9195  -15.1405 C   0  0  0  0  0  0  0  0  0  0  0  0
   17.5845   -9.0902  -16.2629 C   0  0  0  0  0  0  0  0  0  0  0  0
   18.7263   -9.5936  -16.1814 O   0  0  0  0  0  0  0  0  0  0  0  0
   18.1243   -5.4779  -17.1914 C   0  0  0  0  0  0  0  0  0  0  0  0
   18.5174   -6.8255  -16.5954 C   0  0  2  0  0  0  0  0  0  0  0  0
   17.3748   -7.6992  -16.4557 N   0  0  0  0  0  0  0  0  0  0  0  0
   19.2199   -6.6470  -15.2991 C   0  0  0  0  0  0  0  0  0  0  0  0
   18.5794   -6.4366  -14.2380 O   0  0  0  0  0  0  0  0  0  0  0  0
   21.6381   -8.9453  -13.5138 C   0  0  0  0  0  0  0  0  0  0  0  0
   22.2908   -7.5991  -13.5879 C   0  0  1  0  0  0  0  0  0  0  0  0
   23.3662   -7.6238  -14.6360 C   0  0  0  0  0  0  0  0  0  0  0  0
   21.3178   -6.4955  -13.9142 C   0  0  2  0  0  0  0  0  0  0  0  0
   20.6434   -6.7023  -15.1784 N   0  0  0  0  0  0  0  0  0  0  0  0
   21.9546   -5.1620  -13.8678 C   0  0  0  0  0  0  0  0  0  0  0  0
   22.1428   -4.4365  -14.8523 O   0  0  0  0  0  0  0  0  0  0  0  0
   22.3794   -4.6728  -12.6299 O   0  0  0  0  0  0  0  0  0  0  0  0
  2  1  1  1
  3  2  1  0
  4  3  1  0
  4  9  2  0
  5  4  1  0
  6  5  2  0
  6  7  1  0
  7  8  2  0
  8  9  1  0
 10  2  1  0
 11 10  2  0
 13 12  1  1
 13 14  1  0
 13 15  1  0
 14 10  1  0
 15 21  1  0
 16 15  2  0
 18 20  1  0
 18 19  1  6
 18 17  1  0
 20 22  1  0
 20 21  1  6
 22 23  2  0
 22 24  1  0
M  END
$$$$
