FAV.pdb
     RDKit          3D

 24 24  0  0  1  0  0  0  0  0999 V2000
   28.6822  -25.7338  -16.2821 N   0  0  0  0  0  0  0  0  0  0  0  0
   27.4223  -25.6460  -16.9892 C   0  0  1  0  0  0  0  0  0  0  0  0
   26.6870  -26.9538  -17.0236 C   0  0  0  0  0  0  0  0  0  0  0  0
   27.3818  -28.0225  -17.7343 C   0  0  0  0  0  0  0  0  0  0  0  0
   27.2977  -28.0494  -19.1175 C   0  0  0  0  0  0  0  0  0  0  0  0
   27.9196  -29.0181  -19.8684 C   0  0  0  0  0  0  0  0  0  0  0  0
   28.6590  -30.0103  -19.2622 C   0  0  0  0  0  0  0  0  0  0  0  0
   28.7469  -29.9896  -17.8869 C   0  0  0  0  0  0  0  0  0  0  0  0
   28.1199  -29.0144  -17.1428 C   0  0  0  0  0  0  0  0  0  0  0  0
   26.5910  -24.5212  -16.4971 C   0  0  0  0  0  0  0  0  0  0  0  0
   26.3683  -24.4004  -15.2726 O   0  0  0  0  0  0  0  0  0  0  0  0
   25.4543  -21.2864  -17.9419 C   0  0  0  0  0  0  0  0  0  0  0  0
   25.2853  -22.4882  -17.0183 C   0  0  2  0  0  0  0  0  0  0  0  0
   26.0756  -23.6144  -17.4605 N   0  0  0  0  0  0  0  0  0  0  0  0
   23.8527  -22.8559  -16.8839 C   0  0  0  0  0  0  0  0  0  0  0  0
   23.2898  -23.5925  -17.7331 O   0  0  0  0  0  0  0  0  0  0  0  0
   22.2351  -24.6239  -14.0350 C   0  0  0  0  0  0  0  0  0  0  0  0
   21.3699  -23.4336  -14.3148 C   0  0  1  0  0  0  0  0  0  0  0  0
   21.5785  -22.4029  -13.2424 C   0  0  0  0  0  0  0  0  0  0  0  0
   21.6550  -22.8065  -15.6552 C   0  0  2  0  0  0  0  0  0  0  0  0
   23.0379  -22.4036  -15.7996 N   0  0  0  0  0  0  0  0  0  0  0  0
   20.7438  -21.6790  -15.9459 C   0  0  0  0  0  0  0  0  0  0  0  0
   21.0856  -20.4906  -15.9906 O   0  0  0  0  0  0  0  0  0  0  0  0
   19.3973  -21.9605  -16.1895 O   0  0  0  0  0  0  0  0  0  0  0  0
  2  1  1  1
  3  2  1  0
  4  3  1  0
  4  9  2  0
  5  4  1  0
  6  5  2  0
  6  7  1  0
  7  8  2  0
  8  9  1  0
 10  2  1  0
 11 10  2  0
 13 12  1  6
 13 14  1  0
 13 15  1  0
 14 10  1  0
 15 21  1  0
 16 15  2  0
 18 20  1  0
 18 19  1  1
 18 17  1  0
 20 22  1  0
 20 21  1  1
 22 23  2  0
 22 24  1  0
M  END
$$$$
