FAV.pdb
     RDKit          3D

 24 24  0  0  1  0  0  0  0  0999 V2000
   19.6493  -24.6270  -10.9969 N   0  0  0  0  0  0  0  0  0  0  0  0
   18.9230  -25.6324  -10.2509 C   0  0  1  0  0  0  0  0  0  0  0  0
   19.6931  -26.9121  -10.1053 C   0  0  0  0  0  0  0  0  0  0  0  0
   20.0727  -27.5393  -11.3673 C   0  0  0  0  0  0  0  0  0  0  0  0
   21.4064  -27.4984  -11.7420 C   0  0  0  0  0  0  0  0  0  0  0  0
   21.8539  -28.0625  -12.9127 C   0  0  0  0  0  0  0  0  0  0  0  0
   20.9783  -28.6974  -13.7664 C   0  0  0  0  0  0  0  0  0  0  0  0
   19.6504  -28.7418  -13.4000 C   0  0  0  0  0  0  0  0  0  0  0  0
   19.2114  -28.1734  -12.2244 C   0  0  0  0  0  0  0  0  0  0  0  0
   18.4184  -25.1043   -8.9606 C   0  0  0  0  0  0  0  0  0  0  0  0
   19.2028  -24.5331   -8.1719 O   0  0  0  0  0  0  0  0  0  0  0  0
   15.2369  -23.9640   -7.6397 C   0  0  0  0  0  0  0  0  0  0  0  0
   16.5084  -24.7784   -7.4258 C   0  0  2  0  0  0  0  0  0  0  0  0
   17.0381  -25.2758   -8.6750 N   0  0  0  0  0  0  0  0  0  0  0  0
   16.2738  -25.8841   -6.4626 C   0  0  0  0  0  0  0  0  0  0  0  0
   15.7335  -26.9588   -6.8280 O   0  0  0  0  0  0  0  0  0  0  0  0
   19.0054  -27.2364   -4.1049 C   0  0  0  0  0  0  0  0  0  0  0  0
   17.7409  -27.1031   -3.3132 C   0  0  1  0  0  0  0  0  0  0  0  0
   17.8537  -25.9248   -2.3887 C   0  0  0  0  0  0  0  0  0  0  0  0
   16.5232  -26.9251   -4.1830 C   0  0  2  0  0  0  0  0  0  0  0  0
   16.6411  -25.7978   -5.0836 N   0  0  0  0  0  0  0  0  0  0  0  0
   15.2803  -26.8369   -3.3872 C   0  0  0  0  0  0  0  0  0  0  0  0
   14.7667  -27.7822   -2.7758 O   0  0  0  0  0  0  0  0  0  0  0  0
   14.6278  -25.6039   -3.3111 O   0  0  0  0  0  0  0  0  0  0  0  0
  2  1  1  1
  3  2  1  0
  4  3  1  0
  4  9  2  0
  5  4  1  0
  6  5  2  0
  6  7  1  0
  7  8  2  0
  8  9  1  0
 10  2  1  0
 11 10  2  0
 13 12  1  6
 13 14  1  0
 13 15  1  0
 14 10  1  0
 15 21  1  0
 16 15  2  0
 18 20  1  0
 18 19  1  1
 18 17  1  0
 20 22  1  0
 20 21  1  1
 22 23  2  0
 22 24  1  0
M  END
$$$$
