FAV.pdb
     RDKit          3D

 24 24  0  0  1  0  0  0  0  0999 V2000
   24.7913  -21.1024   -7.9215 N   0  0  0  0  0  0  0  0  0  0  0  0
   25.4549  -20.3328   -8.9522 C   0  0  1  0  0  0  0  0  0  0  0  0
   26.9503  -20.4334   -8.8756 C   0  0  0  0  0  0  0  0  0  0  0  0
   27.5295  -19.9335   -7.6327 C   0  0  0  0  0  0  0  0  0  0  0  0
   28.4436  -20.7363   -6.9687 C   0  0  0  0  0  0  0  0  0  0  0  0
   29.0390  -20.3469   -5.7928 C   0  0  0  0  0  0  0  0  0  0  0  0
   28.7426  -19.1267   -5.2256 C   0  0  0  0  0  0  0  0  0  0  0  0
   27.8343  -18.3232   -5.8805 C   0  0  0  0  0  0  0  0  0  0  0  0
   27.2427  -18.7223   -7.0589 C   0  0  0  0  0  0  0  0  0  0  0  0
   24.9173  -20.6373  -10.3001 C   0  0  0  0  0  0  0  0  0  0  0  0
   24.4028  -21.7541  -10.5277 O   0  0  0  0  0  0  0  0  0  0  0  0
   24.2524  -18.4931  -13.3341 C   0  0  0  0  0  0  0  0  0  0  0  0
   24.3230  -19.7978  -12.5477 C   0  0  2  0  0  0  0  0  0  0  0  0
   25.0142  -19.6245  -11.2904 N   0  0  0  0  0  0  0  0  0  0  0  0
   24.9459  -20.8735  -13.3603 C   0  0  0  0  0  0  0  0  0  0  0  0
   26.1905  -21.0509  -13.3566 O   0  0  0  0  0  0  0  0  0  0  0  0
   24.5714  -24.3860  -12.9587 C   0  0  0  0  0  0  0  0  0  0  0  0
   24.3520  -24.2004  -14.4287 C   0  0  1  0  0  0  0  0  0  0  0  0
   22.8936  -24.3767  -14.7411 C   0  0  0  0  0  0  0  0  0  0  0  0
   24.7949  -22.8458  -14.9189 C   0  0  2  0  0  0  0  0  0  0  0  0
   24.1831  -21.7593  -14.1835 N   0  0  0  0  0  0  0  0  0  0  0  0
   24.5821  -22.6845  -16.3730 C   0  0  0  0  0  0  0  0  0  0  0  0
   25.2105  -23.2923  -17.2487 O   0  0  0  0  0  0  0  0  0  0  0  0
   23.6043  -21.7845  -16.8042 O   0  0  0  0  0  0  0  0  0  0  0  0
  2  1  1  1
  3  2  1  0
  4  3  1  0
  4  9  2  0
  5  4  1  0
  6  5  2  0
  6  7  1  0
  7  8  2  0
  8  9  1  0
 10  2  1  0
 11 10  2  0
 13 12  1  6
 13 14  1  0
 13 15  1  0
 14 10  1  0
 15 21  1  0
 16 15  2  0
 18 20  1  0
 18 19  1  1
 18 17  1  0
 20 22  1  0
 20 21  1  1
 22 23  2  0
 22 24  1  0
M  END
$$$$
