TAW.pdb
     RDKit          3D

 27 28  0  0  1  0  0  0  0  0999 V2000
    8.7637  -19.6181   22.3701 C   0  0  0  0  0  0  0  0  0  0  0  0
    9.1467  -19.7294   20.8962 C   0  0  1  0  0  0  0  0  0  0  0  0
    9.0123  -21.0275   20.4377 O   0  0  0  0  0  0  0  0  0  0  0  0
    8.3331  -18.7378   20.0794 C   0  0  2  0  0  0  0  0  0  0  0  0
    8.5488  -19.0235   18.6959 N   0  0  0  0  0  0  0  0  0  0  0  0
    8.6853  -17.3380   20.4385 C   0  0  0  0  0  0  0  0  0  0  0  0
    9.8618  -16.9184   20.2784 O   0  0  0  0  0  0  0  0  0  0  0  0
    6.9711  -14.1873   21.4588 C   0  0  0  0  0  0  0  0  0  0  0  0
    8.1557  -15.1371   21.4119 C   0  0  2  0  0  0  0  0  0  0  0  0
    7.7353  -16.4240   20.9679 N   0  0  0  0  0  0  0  0  0  0  0  0
    8.8707  -15.1690   22.7124 C   0  0  0  0  0  0  0  0  0  0  0  0
    9.4809  -14.1287   23.0814 O   0  0  0  0  0  0  0  0  0  0  0  0
    8.9084  -16.2970   23.5626 N   0  0  0  0  0  0  0  0  0  0  0  0
    9.6902  -16.3475   24.8151 C   0  0  1  0  0  0  0  0  0  0  0  0
    8.7929  -16.3963   25.9912 C   0  0  0  0  0  0  0  0  0  0  0  0
    7.6447  -15.5148   26.0375 C   0  0  0  0  0  0  0  0  0  0  0  0
    6.2949  -15.8358   25.8601 C   0  0  0  0  0  0  0  0  0  0  0  0
    5.5637  -14.7203   25.9556 N   0  0  0  0  0  0  0  0  0  0  0  0
    6.3918  -13.6774   26.1909 C   0  0  0  0  0  0  0  0  0  0  0  0
    6.0885  -12.3416   26.3743 C   0  0  0  0  0  0  0  0  0  0  0  0
    7.0967  -11.4427   26.6204 C   0  0  0  0  0  0  0  0  0  0  0  0
    8.4010  -11.8852   26.6817 C   0  0  0  0  0  0  0  0  0  0  0  0
    8.6930  -13.2109   26.4983 C   0  0  0  0  0  0  0  0  0  0  0  0
    7.6978  -14.1394   26.2480 C   0  0  0  0  0  0  0  0  0  0  0  0
   10.7638  -17.3415   24.7388 C   0  0  0  0  0  0  0  0  0  0  0  0
   10.8647  -18.1357   23.8056 O   0  0  0  0  0  0  0  0  0  0  0  0
   11.6972  -17.3737   25.7722 O   0  0  0  0  0  0  0  0  0  0  0  0
  2  1  1  1
  2  4  1  0
  2  3  1  0
  4  6  1  0
  4  5  1  6
  6  7  2  0
  9  8  1  1
 10  9  1  0
 10  6  1  0
 11 12  2  0
 11  9  1  0
 13 11  1  0
 14 13  1  0
 14 25  1  0
 14 15  1  1
 16 15  1  0
 17 16  2  0
 18 19  1  0
 18 17  1  0
 19 24  2  0
 20 19  1  0
 20 21  2  0
 21 22  1  0
 22 23  2  0
 24 16  1  0
 24 23  1  0
 25 27  1  0
 26 25  2  0
M  END
$$$$
