TAW.pdb
     RDKit          3D

 27 28  0  0  1  0  0  0  0  0999 V2000
    9.3357  -20.7828   17.7751 C   0  0  0  0  0  0  0  0  0  0  0  0
    9.2637  -19.2828   18.0510 C   0  0  1  0  0  0  0  0  0  0  0  0
    8.4707  -18.6372   17.1194 O   0  0  0  0  0  0  0  0  0  0  0  0
    8.7932  -19.0465   19.4776 C   0  0  2  0  0  0  0  0  0  0  0  0
    7.4694  -19.5710   19.5984 N   0  0  0  0  0  0  0  0  0  0  0  0
    8.8740  -17.6041   19.8318 C   0  0  0  0  0  0  0  0  0  0  0  0
    9.9536  -16.9733   19.6828 O   0  0  0  0  0  0  0  0  0  0  0  0
    6.5521  -14.8884   20.9680 C   0  0  0  0  0  0  0  0  0  0  0  0
    7.9131  -15.5124   20.7111 C   0  0  2  0  0  0  0  0  0  0  0  0
    7.7637  -16.8810   20.3444 N   0  0  0  0  0  0  0  0  0  0  0  0
    8.8238  -15.3096   21.8656 C   0  0  0  0  0  0  0  0  0  0  0  0
    9.5074  -14.2504   21.9051 O   0  0  0  0  0  0  0  0  0  0  0  0
    8.9706  -16.2337   22.9244 N   0  0  0  0  0  0  0  0  0  0  0  0
    9.8327  -15.9955   24.1001 C   0  0  1  0  0  0  0  0  0  0  0  0
    9.5297  -14.6836   24.7149 C   0  0  0  0  0  0  0  0  0  0  0  0
    8.2101  -14.4523   25.2650 C   0  0  0  0  0  0  0  0  0  0  0  0
    7.1405  -15.3483   25.3645 C   0  0  0  0  0  0  0  0  0  0  0  0
    6.0939  -14.7211   25.9115 N   0  0  0  0  0  0  0  0  0  0  0  0
    6.4436  -13.4416   26.1747 C   0  0  0  0  0  0  0  0  0  0  0  0
    5.6976  -12.4295   26.7486 C   0  0  0  0  0  0  0  0  0  0  0  0
    6.2627  -11.1932   26.9411 C   0  0  0  0  0  0  0  0  0  0  0  0
    7.5696  -10.9770   26.5587 C   0  0  0  0  0  0  0  0  0  0  0  0
    8.3018  -11.9854   25.9901 C   0  0  0  0  0  0  0  0  0  0  0  0
    7.7584  -13.2412   25.7832 C   0  0  0  0  0  0  0  0  0  0  0  0
    9.8742  -17.1649   24.9819 C   0  0  0  0  0  0  0  0  0  0  0  0
    9.1127  -18.1210   24.8486 O   0  0  0  0  0  0  0  0  0  0  0  0
   10.8189  -17.1766   26.0054 O   0  0  0  0  0  0  0  0  0  0  0  0
  2  1  1  6
  2  4  1  0
  2  3  1  0
  4  6  1  0
  4  5  1  6
  6  7  2  0
  9  8  1  1
 10  9  1  0
 10  6  1  0
 11 12  2  0
 11  9  1  0
 13 11  1  0
 14 13  1  0
 14 25  1  0
 14 15  1  1
 16 15  1  0
 17 16  2  0
 18 19  1  0
 18 17  1  0
 19 24  2  0
 20 19  1  0
 20 21  2  0
 21 22  1  0
 22 23  2  0
 24 16  1  0
 24 23  1  0
 25 27  1  0
 26 25  2  0
M  END
$$$$
