TAW.pdb
     RDKit          3D

 27 28  0  0  1  0  0  0  0  0999 V2000
   10.4804  -19.3628   18.2213 C   0  0  0  0  0  0  0  0  0  0  0  0
    9.0132  -19.5012   18.6207 C   0  0  1  0  0  0  0  0  0  0  0  0
    8.4853  -20.7047   18.1888 O   0  0  0  0  0  0  0  0  0  0  0  0
    8.8712  -19.3104   20.1227 C   0  0  2  0  0  0  0  0  0  0  0  0
    7.5830  -19.7934   20.5092 N   0  0  0  0  0  0  0  0  0  0  0  0
    9.0884  -17.8883   20.5006 C   0  0  0  0  0  0  0  0  0  0  0  0
   10.2445  -17.3906   20.4617 O   0  0  0  0  0  0  0  0  0  0  0  0
    6.9766  -14.8915   21.2503 C   0  0  0  0  0  0  0  0  0  0  0  0
    8.2832  -15.6642   21.1910 C   0  0  2  0  0  0  0  0  0  0  0  0
    8.0281  -17.0385   20.9152 N   0  0  0  0  0  0  0  0  0  0  0  0
    9.0898  -15.4512   22.4188 C   0  0  0  0  0  0  0  0  0  0  0  0
    9.6934  -14.3517   22.5506 O   0  0  0  0  0  0  0  0  0  0  0  0
    9.2216  -16.4082   23.4500 N   0  0  0  0  0  0  0  0  0  0  0  0
   10.0293  -16.1883   24.6672 C   0  0  1  0  0  0  0  0  0  0  0  0
    9.7050  -14.8817   25.2823 C   0  0  0  0  0  0  0  0  0  0  0  0
    8.3286  -14.5861   25.6220 C   0  0  0  0  0  0  0  0  0  0  0  0
    7.2373  -15.4600   25.6659 C   0  0  0  0  0  0  0  0  0  0  0  0
    6.1397  -14.7728   25.9994 N   0  0  0  0  0  0  0  0  0  0  0  0
    6.4771  -13.4752   26.1763 C   0  0  0  0  0  0  0  0  0  0  0  0
    5.6817  -12.4044   26.5380 C   0  0  0  0  0  0  0  0  0  0  0  0
    6.2411  -11.1586   26.6789 C   0  0  0  0  0  0  0  0  0  0  0  0
    7.5917  -10.9916   26.4573 C   0  0  0  0  0  0  0  0  0  0  0  0
    8.3727  -12.0582   26.0986 C   0  0  0  0  0  0  0  0  0  0  0  0
    7.8364  -13.3250   25.9485 C   0  0  0  0  0  0  0  0  0  0  0  0
   10.0235  -17.3678   25.5364 C   0  0  0  0  0  0  0  0  0  0  0  0
   10.6642  -17.4201   26.5845 O   0  0  0  0  0  0  0  0  0  0  0  0
    9.2570  -18.4628   25.1445 O   0  0  0  0  0  0  0  0  0  0  0  0
  2  1  1  1
  2  4  1  0
  2  3  1  0
  4  6  1  0
  4  5  1  6
  6  7  2  0
  9  8  1  1
 10  9  1  0
 10  6  1  0
 11 12  2  0
 11  9  1  0
 13 11  1  0
 14 13  1  0
 14 25  1  0
 14 15  1  1
 16 15  1  0
 17 16  2  0
 18 19  1  0
 18 17  1  0
 19 24  2  0
 20 19  1  0
 20 21  2  0
 21 22  1  0
 22 23  2  0
 24 16  1  0
 24 23  1  0
 25 27  1  0
 26 25  2  0
M  END
$$$$
