TAW.pdb
     RDKit          3D

 27 28  0  0  1  0  0  0  0  0999 V2000
    7.8231  -20.5671   20.4554 C   0  0  0  0  0  0  0  0  0  0  0  0
    8.3293  -19.2054   20.9254 C   0  0  1  0  0  0  0  0  0  0  0  0
    9.5519  -19.3156   21.5629 O   0  0  0  0  0  0  0  0  0  0  0  0
    8.3720  -18.2415   19.7501 C   0  0  2  0  0  0  0  0  0  0  0  0
    9.2226  -18.8036   18.7488 N   0  0  0  0  0  0  0  0  0  0  0  0
    8.8143  -16.8901   20.1868 C   0  0  0  0  0  0  0  0  0  0  0  0
   10.0285  -16.5649   20.1126 O   0  0  0  0  0  0  0  0  0  0  0  0
    7.2811  -13.6433   21.1959 C   0  0  0  0  0  0  0  0  0  0  0  0
    8.4022  -14.6681   21.1690 C   0  0  2  0  0  0  0  0  0  0  0  0
    7.9111  -15.9199   20.6980 N   0  0  0  0  0  0  0  0  0  0  0  0
    9.0776  -14.7605   22.4877 C   0  0  0  0  0  0  0  0  0  0  0  0
    9.5626  -13.7068   22.9827 O   0  0  0  0  0  0  0  0  0  0  0  0
    9.2095  -15.9604   23.2221 N   0  0  0  0  0  0  0  0  0  0  0  0
    9.8854  -16.0430   24.5332 C   0  0  1  0  0  0  0  0  0  0  0  0
    8.9162  -16.3712   25.6026 C   0  0  0  0  0  0  0  0  0  0  0  0
    7.7180  -15.5688   25.7371 C   0  0  0  0  0  0  0  0  0  0  0  0
    6.3935  -15.9340   25.4746 C   0  0  0  0  0  0  0  0  0  0  0  0
    5.5968  -14.8848   25.7036 N   0  0  0  0  0  0  0  0  0  0  0  0
    6.3574  -13.8426   26.1089 C   0  0  0  0  0  0  0  0  0  0  0  0
    5.9729  -12.5649   26.4690 C   0  0  0  0  0  0  0  0  0  0  0  0
    6.9213  -11.6569   26.8702 C   0  0  0  0  0  0  0  0  0  0  0  0
    8.2475  -12.0322   26.9088 C   0  0  0  0  0  0  0  0  0  0  0  0
    8.6200  -13.3005   26.5497 C   0  0  0  0  0  0  0  0  0  0  0  0
    7.6864  -14.2365   26.1406 C   0  0  0  0  0  0  0  0  0  0  0  0
   11.1095  -16.8445   24.4573 C   0  0  0  0  0  0  0  0  0  0  0  0
   11.4150  -17.4922   23.4578 O   0  0  0  0  0  0  0  0  0  0  0  0
   11.9475  -16.8618   25.5697 O   0  0  0  0  0  0  0  0  0  0  0  0
  2  1  1  6
  2  4  1  0
  2  3  1  0
  4  6  1  0
  4  5  1  6
  6  7  2  0
  9  8  1  1
 10  9  1  0
 10  6  1  0
 11 12  2  0
 11  9  1  0
 13 11  1  0
 14 13  1  0
 14 25  1  0
 14 15  1  1
 16 15  1  0
 17 16  2  0
 18 19  1  0
 18 17  1  0
 19 24  2  0
 20 19  1  0
 20 21  2  0
 21 22  1  0
 22 23  2  0
 24 16  1  0
 24 23  1  0
 25 27  1  0
 26 25  2  0
M  END
$$$$
