TAW.pdb
     RDKit          3D

 27 28  0  0  1  0  0  0  0  0999 V2000
    7.4560  -21.0185   20.9911 C   0  0  0  0  0  0  0  0  0  0  0  0
    8.0053  -19.6444   21.3671 C   0  0  1  0  0  0  0  0  0  0  0  0
    9.2510  -19.7452   21.9599 O   0  0  0  0  0  0  0  0  0  0  0  0
    8.0167  -18.7446   20.1412 C   0  0  2  0  0  0  0  0  0  0  0  0
    8.8176  -19.3741   19.1390 N   0  0  0  0  0  0  0  0  0  0  0  0
    8.4978  -17.3804   20.4877 C   0  0  0  0  0  0  0  0  0  0  0  0
    9.7164  -17.0872   20.3662 O   0  0  0  0  0  0  0  0  0  0  0  0
    7.0341  -14.0421   21.2650 C   0  0  0  0  0  0  0  0  0  0  0  0
    8.1474  -15.0754   21.2853 C   0  0  2  0  0  0  0  0  0  0  0  0
    7.6281  -16.3623   20.9624 N   0  0  0  0  0  0  0  0  0  0  0  0
    8.8848  -15.0457   22.5733 C   0  0  0  0  0  0  0  0  0  0  0  0
    9.4475  -13.9689   22.9118 O   0  0  0  0  0  0  0  0  0  0  0  0
    8.9940  -16.1535   23.4436 N   0  0  0  0  0  0  0  0  0  0  0  0
    9.7426  -16.1187   24.7167 C   0  0  1  0  0  0  0  0  0  0  0  0
    8.8207  -16.2247   25.8698 C   0  0  0  0  0  0  0  0  0  0  0  0
    7.6362  -15.3920   25.9027 C   0  0  0  0  0  0  0  0  0  0  0  0
    6.3098  -15.7572   25.6500 C   0  0  0  0  0  0  0  0  0  0  0  0
    5.5297  -14.6768   25.7613 N   0  0  0  0  0  0  0  0  0  0  0  0
    6.3031  -13.6141   26.0799 C   0  0  0  0  0  0  0  0  0  0  0  0
    5.9372  -12.3010   26.3081 C   0  0  0  0  0  0  0  0  0  0  0  0
    6.8957  -11.3756   26.6393 C   0  0  0  0  0  0  0  0  0  0  0  0
    8.2133  -11.7689   26.7402 C   0  0  0  0  0  0  0  0  0  0  0  0
    8.5674  -13.0723   26.5119 C   0  0  0  0  0  0  0  0  0  0  0  0
    7.6233  -14.0266   26.1759 C   0  0  0  0  0  0  0  0  0  0  0  0
   10.8973  -17.0200   24.6859 C   0  0  0  0  0  0  0  0  0  0  0  0
   11.1076  -17.7939   23.7539 O   0  0  0  0  0  0  0  0  0  0  0  0
   11.7803  -16.9853   25.7626 O   0  0  0  0  0  0  0  0  0  0  0  0
  2  1  1  6
  2  4  1  0
  2  3  1  0
  4  6  1  0
  4  5  1  6
  6  7  2  0
  9  8  1  1
 10  9  1  0
 10  6  1  0
 11 12  2  0
 11  9  1  0
 13 11  1  0
 14 13  1  0
 14 25  1  0
 14 15  1  1
 16 15  1  0
 17 16  2  0
 18 19  1  0
 18 17  1  0
 19 24  2  0
 20 19  1  0
 20 21  2  0
 21 22  1  0
 22 23  2  0
 24 16  1  0
 24 23  1  0
 25 27  1  0
 26 25  2  0
M  END
$$$$
