TAW.pdb
     RDKit          3D

 27 28  0  0  1  0  0  0  0  0999 V2000
   10.0201  -14.1121   16.1938 C   0  0  0  0  0  0  0  0  0  0  0  0
    9.7379  -14.5772   17.6204 C   0  0  1  0  0  0  0  0  0  0  0  0
   10.4215  -13.8084   18.5451 O   0  0  0  0  0  0  0  0  0  0  0  0
    8.2376  -14.5866   17.8686 C   0  0  2  0  0  0  0  0  0  0  0  0
    7.7532  -13.2534   17.6954 N   0  0  0  0  0  0  0  0  0  0  0  0
    7.9247  -15.1412   19.2128 C   0  0  0  0  0  0  0  0  0  0  0  0
    7.8166  -14.3750   20.2063 O   0  0  0  0  0  0  0  0  0  0  0  0
    7.3276  -18.5199   20.7454 C   0  0  0  0  0  0  0  0  0  0  0  0
    7.5433  -17.0163   20.7654 C   0  0  2  0  0  0  0  0  0  0  0  0
    7.7362  -16.5309   19.4398 N   0  0  0  0  0  0  0  0  0  0  0  0
    8.6404  -16.6431   21.6932 C   0  0  0  0  0  0  0  0  0  0  0  0
    9.7675  -16.3653   21.2003 O   0  0  0  0  0  0  0  0  0  0  0  0
    8.4966  -16.5804   23.0974 N   0  0  0  0  0  0  0  0  0  0  0  0
    9.5578  -16.0968   24.0042 C   0  0  1  0  0  0  0  0  0  0  0  0
    9.2421  -14.7397   24.5036 C   0  0  0  0  0  0  0  0  0  0  0  0
    8.0279  -14.5351   25.2660 C   0  0  0  0  0  0  0  0  0  0  0  0
    7.0877  -15.4867   25.6749 C   0  0  0  0  0  0  0  0  0  0  0  0
    6.1010  -14.8712   26.3348 N   0  0  0  0  0  0  0  0  0  0  0  0
    6.3648  -13.5453   26.3722 C   0  0  0  0  0  0  0  0  0  0  0  0
    5.6392  -12.5235   26.9549 C   0  0  0  0  0  0  0  0  0  0  0  0
    6.1052  -11.2339   26.8870 C   0  0  0  0  0  0  0  0  0  0  0  0
    7.2933  -10.9745   26.2374 C   0  0  0  0  0  0  0  0  0  0  0  0
    8.0060  -11.9931   25.6622 C   0  0  0  0  0  0  0  0  0  0  0  0
    7.5606  -13.3023   25.7141 C   0  0  0  0  0  0  0  0  0  0  0  0
    9.9261  -17.1146   24.9917 C   0  0  0  0  0  0  0  0  0  0  0  0
    9.2231  -18.0965   25.2230 O   0  0  0  0  0  0  0  0  0  0  0  0
   11.1220  -16.9471   25.6859 O   0  0  0  0  0  0  0  0  0  0  0  0
  2  1  1  6
  2  4  1  0
  2  3  1  0
  4  6  1  0
  4  5  1  1
  6  7  2  0
  9  8  1  6
 10  9  1  0
 10  6  1  0
 11 12  2  0
 11  9  1  0
 13 11  1  0
 14 13  1  0
 14 25  1  0
 14 15  1  1
 16 15  1  0
 17 16  2  0
 18 19  1  0
 18 17  1  0
 19 24  2  0
 20 19  1  0
 20 21  2  0
 21 22  1  0
 22 23  2  0
 24 16  1  0
 24 23  1  0
 25 27  1  0
 26 25  2  0
M  END
$$$$
