MWQ.pdb
     RDKit          3D

 32 33  0  0  1  0  0  0  0  0999 V2000
   29.9981  -21.2573  -19.3532 C   0  0  0  0  0  0  0  0  0  0  0  0
   28.9191  -21.3538  -17.9229 S   0  0  0  0  0  0  0  0  0  0  0  0
   29.5272  -22.3165  -16.5576 C   0  0  0  0  0  0  0  0  0  0  0  0
   28.6338  -22.3875  -15.3505 C   0  0  0  0  0  0  0  0  0  0  0  0
   27.5800  -21.3497  -15.4069 C   0  0  2  0  0  0  0  0  0  0  0  0
   28.0944  -20.0085  -15.2211 N   0  0  0  0  0  0  0  0  0  0  0  0
   26.5792  -21.6162  -14.3010 C   0  0  0  0  0  0  0  0  0  0  0  0
   25.9789  -22.7091  -14.2257 O   0  0  0  0  0  0  0  0  0  0  0  0
   26.2897  -20.6502  -13.3228 N   0  0  0  0  0  0  0  0  0  0  0  0
   25.3103  -20.8881  -12.2796 C   0  0  1  0  0  0  0  0  0  0  0  0
   25.6371  -20.1895  -11.0176 C   0  0  0  0  0  0  0  0  0  0  0  0
   26.8460  -20.7311  -10.3916 C   0  0  0  0  0  0  0  0  0  0  0  0
   27.7918  -21.5582  -10.9606 C   0  0  0  0  0  0  0  0  0  0  0  0
   28.7277  -21.8623  -10.0463 N   0  0  0  0  0  0  0  0  0  0  0  0
   28.4291  -21.2547   -8.8752 C   0  0  0  0  0  0  0  0  0  0  0  0
   29.1128  -21.2706   -7.6757 C   0  0  0  0  0  0  0  0  0  0  0  0
   28.5893  -20.5346   -6.6326 C   0  0  0  0  0  0  0  0  0  0  0  0
   27.4247  -19.8150   -6.7993 C   0  0  0  0  0  0  0  0  0  0  0  0
   26.7722  -19.8173   -7.9894 C   0  0  0  0  0  0  0  0  0  0  0  0
   27.2581  -20.5474   -9.0815 C   0  0  0  0  0  0  0  0  0  0  0  0
   23.9329  -20.7779  -12.7877 C   0  0  0  0  0  0  0  0  0  0  0  0
   23.5112  -19.7721  -13.4174 O   0  0  0  0  0  0  0  0  0  0  0  0
   17.5146  -23.5028  -13.3455 N   0  0  0  0  0  0  0  0  0  0  0  0
   18.7631  -24.1395  -13.5078 C   0  0  0  0  0  0  0  0  0  0  0  0
   18.8982  -25.3493  -13.2726 O   0  0  0  0  0  0  0  0  0  0  0  0
   19.9820  -23.3825  -13.9714 C   0  0  0  0  0  0  0  0  0  0  0  0
   20.8252  -22.9618  -12.8203 C   0  0  0  0  0  0  0  0  0  0  0  0
   21.5630  -21.6667  -12.9953 C   0  0  2  0  0  0  0  0  0  0  0  0
   22.9645  -21.8165  -12.6012 N   0  0  0  0  0  0  0  0  0  0  0  0
   20.9485  -20.6305  -12.1463 C   0  0  0  0  0  0  0  0  0  0  0  0
   21.2557  -20.3781  -10.9570 O   0  0  0  0  0  0  0  0  0  0  0  0
   19.9220  -19.8470  -12.7135 O   0  0  0  0  0  0  0  0  0  0  0  0
  1  2  1  0
  3  2  1  0
  4  3  1  0
  5  4  1  0
  5  6  1  1
  7  5  1  0
  7  8  2  0
  9  7  1  0
 10  9  1  0
 11 12  1  0
 10 11  1  1
 12 13  2  0
 13 14  1  0
 15 14  1  0
 16 15  2  0
 17 16  1  0
 18 19  1  0
 18 17  2  0
 19 20  2  0
 20 12  1  0
 20 15  1  0
 21 10  1  0
 22 21  2  0
 23 24  1  0
 24 26  1  0
 24 25  2  0
 26 27  1  0
 28 27  1  1
 28 29  1  0
 28 30  1  0
 29 21  1  0
 30 31  2  0
 30 32  1  0
M  END
$$$$
