MWQ.pdb
     RDKit          3D

 32 33  0  0  1  0  0  0  0  0999 V2000
   17.7200  -22.6765  -13.2870 C   0  0  0  0  0  0  0  0  0  0  0  0
   19.3424  -22.0881  -12.7966 S   0  0  0  0  0  0  0  0  0  0  0  0
   19.8321  -20.5168  -13.4687 C   0  0  0  0  0  0  0  0  0  0  0  0
   21.1996  -20.0292  -13.0781 C   0  0  0  0  0  0  0  0  0  0  0  0
   22.0327  -21.1387  -12.5625 C   0  0  2  0  0  0  0  0  0  0  0  0
   21.7456  -21.4692  -11.1818 N   0  0  0  0  0  0  0  0  0  0  0  0
   23.4890  -20.7284  -12.6445 C   0  0  0  0  0  0  0  0  0  0  0  0
   23.8254  -19.6533  -13.1841 O   0  0  0  0  0  0  0  0  0  0  0  0
   24.5112  -21.5365  -12.1193 N   0  0  0  0  0  0  0  0  0  0  0  0
   25.9051  -21.1391  -12.1755 C   0  0  1  0  0  0  0  0  0  0  0  0
   26.7186  -21.7511  -11.1026 C   0  0  0  0  0  0  0  0  0  0  0  0
   26.5317  -21.0685   -9.8197 C   0  0  0  0  0  0  0  0  0  0  0  0
   25.4202  -20.3755   -9.3876 C   0  0  0  0  0  0  0  0  0  0  0  0
   25.6584  -19.8641   -8.1685 N   0  0  0  0  0  0  0  0  0  0  0  0
   26.9075  -20.2012   -7.7737 C   0  0  0  0  0  0  0  0  0  0  0  0
   27.5669  -19.9111   -6.5957 C   0  0  0  0  0  0  0  0  0  0  0  0
   28.8462  -20.4046   -6.4418 C   0  0  0  0  0  0  0  0  0  0  0  0
   29.4298  -21.1585   -7.4382 C   0  0  0  0  0  0  0  0  0  0  0  0
   28.7591  -21.4284   -8.5869 C   0  0  0  0  0  0  0  0  0  0  0  0
   27.4588  -20.9520   -8.7966 C   0  0  0  0  0  0  0  0  0  0  0  0
   26.4325  -21.1889  -13.5492 C   0  0  0  0  0  0  0  0  0  0  0  0
   26.2203  -22.1520  -14.3323 O   0  0  0  0  0  0  0  0  0  0  0  0
   29.3370  -16.2787  -16.4646 N   0  0  0  0  0  0  0  0  0  0  0  0
   29.3262  -17.2617  -17.4765 C   0  0  0  0  0  0  0  0  0  0  0  0
   29.8110  -17.0326  -18.5944 O   0  0  0  0  0  0  0  0  0  0  0  0
   28.7285  -18.6267  -17.2460 C   0  0  0  0  0  0  0  0  0  0  0  0
   28.2996  -18.7954  -15.8315 C   0  0  0  0  0  0  0  0  0  0  0  0
   27.6130  -20.0910  -15.5116 C   0  0  2  0  0  0  0  0  0  0  0  0
   27.2319  -20.1354  -14.0992 N   0  0  0  0  0  0  0  0  0  0  0  0
   28.5279  -21.2141  -15.7827 C   0  0  0  0  0  0  0  0  0  0  0  0
   29.4360  -21.6224  -15.0203 O   0  0  0  0  0  0  0  0  0  0  0  0
   28.3765  -21.8976  -17.0073 O   0  0  0  0  0  0  0  0  0  0  0  0
  1  2  1  0
  3  2  1  0
  4  3  1  0
  5  4  1  0
  5  6  1  1
  7  5  1  0
  7  8  2  0
  9  7  1  0
 10  9  1  0
 11 12  1  0
 10 11  1  1
 12 13  2  0
 13 14  1  0
 15 14  1  0
 16 15  2  0
 17 16  1  0
 18 19  1  0
 18 17  2  0
 19 20  2  0
 20 12  1  0
 20 15  1  0
 21 10  1  0
 22 21  2  0
 23 24  1  0
 24 26  1  0
 24 25  2  0
 26 27  1  0
 28 27  1  1
 28 29  1  0
 28 30  1  0
 29 21  1  0
 30 31  2  0
 30 32  1  0
M  END
$$$$
