MWQ.pdb
     RDKit          3D

 32 33  0  0  1  0  0  0  0  0999 V2000
   26.2448  -23.7739  -19.5627 C   0  0  0  0  0  0  0  0  0  0  0  0
   27.7195  -22.7583  -19.4496 S   0  0  0  0  0  0  0  0  0  0  0  0
   28.8453  -23.1711  -18.1369 C   0  0  0  0  0  0  0  0  0  0  0  0
   28.2723  -23.1560  -16.7470 C   0  0  0  0  0  0  0  0  0  0  0  0
   27.5788  -21.8778  -16.4714 C   0  0  2  0  0  0  0  0  0  0  0  0
   28.4631  -20.7316  -16.5168 N   0  0  0  0  0  0  0  0  0  0  0  0
   26.9800  -21.9425  -15.0810 C   0  0  0  0  0  0  0  0  0  0  0  0
   26.1928  -22.8581  -14.7612 O   0  0  0  0  0  0  0  0  0  0  0  0
   27.2859  -20.9811  -14.1033 N   0  0  0  0  0  0  0  0  0  0  0  0
   26.6699  -21.0032  -12.7902 C   0  0  1  0  0  0  0  0  0  0  0  0
   27.5223  -20.3917  -11.7477 C   0  0  0  0  0  0  0  0  0  0  0  0
   26.8450  -20.3419  -10.4494 C   0  0  0  0  0  0  0  0  0  0  0  0
   25.4907  -20.4232  -10.2015 C   0  0  0  0  0  0  0  0  0  0  0  0
   25.2696  -20.2989   -8.8824 N   0  0  0  0  0  0  0  0  0  0  0  0
   26.4490  -20.1367   -8.2402 C   0  0  0  0  0  0  0  0  0  0  0  0
   26.7039  -19.9884   -6.8913 C   0  0  0  0  0  0  0  0  0  0  0  0
   28.0211  -19.8611   -6.5005 C   0  0  0  0  0  0  0  0  0  0  0  0
   29.0337  -19.8836   -7.4364 C   0  0  0  0  0  0  0  0  0  0  0  0
   28.7551  -20.0302   -8.7567 C   0  0  0  0  0  0  0  0  0  0  0  0
   27.4361  -20.1625   -9.2091 C   0  0  0  0  0  0  0  0  0  0  0  0
   25.2551  -20.5993  -12.8434 C   0  0  0  0  0  0  0  0  0  0  0  0
   24.8859  -19.4192  -13.0820 O   0  0  0  0  0  0  0  0  0  0  0  0
   21.5123  -23.1988  -16.3376 N   0  0  0  0  0  0  0  0  0  0  0  0
   22.7389  -23.6428  -15.8004 C   0  0  0  0  0  0  0  0  0  0  0  0
   23.5091  -24.3499  -16.4667 O   0  0  0  0  0  0  0  0  0  0  0  0
   23.1660  -23.2802  -14.4004 C   0  0  0  0  0  0  0  0  0  0  0  0
   22.1954  -22.3489  -13.7650 C   0  0  0  0  0  0  0  0  0  0  0  0
   22.7973  -21.2256  -12.9723 C   0  0  2  0  0  0  0  0  0  0  0  0
   24.1868  -21.5282  -12.6261 N   0  0  0  0  0  0  0  0  0  0  0  0
   22.0361  -21.0396  -11.7242 C   0  0  0  0  0  0  0  0  0  0  0  0
   20.8927  -20.5333  -11.6297 O   0  0  0  0  0  0  0  0  0  0  0  0
   22.6392  -21.4663  -10.5227 O   0  0  0  0  0  0  0  0  0  0  0  0
  1  2  1  0
  3  2  1  0
  4  3  1  0
  5  4  1  0
  5  6  1  1
  7  5  1  0
  7  8  2  0
  9  7  1  0
 10  9  1  0
 11 12  1  0
 10 11  1  1
 12 13  2  0
 13 14  1  0
 15 14  1  0
 16 15  2  0
 17 16  1  0
 18 19  1  0
 18 17  2  0
 19 20  2  0
 20 12  1  0
 20 15  1  0
 21 10  1  0
 22 21  2  0
 23 24  1  0
 24 26  1  0
 24 25  2  0
 26 27  1  0
 28 27  1  1
 28 29  1  0
 28 30  1  0
 29 21  1  0
 30 31  2  0
 30 32  1  0
M  END
$$$$
