MWQ.pdb
     RDKit          3D

 32 33  0  0  1  0  0  0  0  0999 V2000
   28.2691  -21.0267  -18.2377 C   0  0  0  0  0  0  0  0  0  0  0  0
   29.3171  -19.6294  -17.8275 S   0  0  0  0  0  0  0  0  0  0  0  0
   29.4483  -19.2413  -16.0976 C   0  0  0  0  0  0  0  0  0  0  0  0
   28.6946  -20.1431  -15.1599 C   0  0  0  0  0  0  0  0  0  0  0  0
   27.5249  -19.4473  -14.5782 C   0  0  2  0  0  0  0  0  0  0  0  0
   27.8863  -18.2677  -13.8194 N   0  0  0  0  0  0  0  0  0  0  0  0
   26.8142  -20.3996  -13.6380 C   0  0  0  0  0  0  0  0  0  0  0  0
   26.5244  -21.5608  -13.9959 O   0  0  0  0  0  0  0  0  0  0  0  0
   26.4563  -20.0158  -12.3349 N   0  0  0  0  0  0  0  0  0  0  0  0
   25.4579  -20.7401  -11.5715 C   0  0  1  0  0  0  0  0  0  0  0  0
   25.5777  -20.5160  -10.1145 C   0  0  0  0  0  0  0  0  0  0  0  0
   26.9475  -20.7296   -9.6406 C   0  0  0  0  0  0  0  0  0  0  0  0
   27.9750  -21.3759  -10.2956 C   0  0  0  0  0  0  0  0  0  0  0  0
   29.0643  -21.3942   -9.5098 N   0  0  0  0  0  0  0  0  0  0  0  0
   28.7884  -20.7719   -8.3409 C   0  0  0  0  0  0  0  0  0  0  0  0
   29.6055  -20.5410   -7.2521 C   0  0  0  0  0  0  0  0  0  0  0  0
   29.0670  -19.8531   -6.1841 C   0  0  0  0  0  0  0  0  0  0  0  0
   27.7585  -19.4190   -6.2196 C   0  0  0  0  0  0  0  0  0  0  0  0
   26.9768  -19.6601   -7.3026 C   0  0  0  0  0  0  0  0  0  0  0  0
   27.4714  -20.3544   -8.4139 C   0  0  0  0  0  0  0  0  0  0  0  0
   24.1199  -20.6266  -12.1751 C   0  0  0  0  0  0  0  0  0  0  0  0
   23.4033  -19.5965  -12.0691 O   0  0  0  0  0  0  0  0  0  0  0  0
   22.9229  -24.8741  -15.9695 N   0  0  0  0  0  0  0  0  0  0  0  0
   22.4362  -25.1668  -14.6780 C   0  0  0  0  0  0  0  0  0  0  0  0
   22.4208  -26.3303  -14.2500 O   0  0  0  0  0  0  0  0  0  0  0  0
   21.9157  -24.0850  -13.7656 C   0  0  0  0  0  0  0  0  0  0  0  0
   21.9382  -22.7573  -14.4364 C   0  0  0  0  0  0  0  0  0  0  0  0
   22.2042  -21.5824  -13.5412 C   0  0  2  0  0  0  0  0  0  0  0  0
   23.5316  -21.6893  -12.9341 N   0  0  0  0  0  0  0  0  0  0  0  0
   21.2002  -21.5467  -12.4629 C   0  0  0  0  0  0  0  0  0  0  0  0
   21.3959  -21.8662  -11.2662 O   0  0  0  0  0  0  0  0  0  0  0  0
   19.8995  -21.1155  -12.7970 O   0  0  0  0  0  0  0  0  0  0  0  0
  1  2  1  0
  3  2  1  0
  4  3  1  0
  5  4  1  0
  5  6  1  1
  7  5  1  0
  7  8  2  0
  9  7  1  0
 10  9  1  0
 11 12  1  0
 10 11  1  1
 12 13  2  0
 13 14  1  0
 15 14  1  0
 16 15  2  0
 17 16  1  0
 18 19  1  0
 18 17  2  0
 19 20  2  0
 20 12  1  0
 20 15  1  0
 21 10  1  0
 22 21  2  0
 23 24  1  0
 24 26  1  0
 24 25  2  0
 26 27  1  0
 28 27  1  6
 28 29  1  0
 28 30  1  0
 29 21  1  0
 30 31  2  0
 30 32  1  0
M  END
$$$$
