MWQ.pdb
     RDKit          3D

 32 33  0  0  1  0  0  0  0  0999 V2000
   30.1877  -22.1957  -18.2979 C   0  0  0  0  0  0  0  0  0  0  0  0
   29.4067  -22.6397  -16.7448 S   0  0  0  0  0  0  0  0  0  0  0  0
   28.1558  -21.5204  -16.1593 C   0  0  0  0  0  0  0  0  0  0  0  0
   27.5207  -21.8709  -14.8423 C   0  0  0  0  0  0  0  0  0  0  0  0
   26.4764  -20.8877  -14.4770 C   0  0  2  0  0  0  0  0  0  0  0  0
   26.9451  -19.5180  -14.5256 N   0  0  0  0  0  0  0  0  0  0  0  0
   26.0224  -21.1688  -13.0590 C   0  0  0  0  0  0  0  0  0  0  0  0
   25.6120  -22.3009  -12.7270 O   0  0  0  0  0  0  0  0  0  0  0  0
   26.0460  -20.1729  -12.0684 N   0  0  0  0  0  0  0  0  0  0  0  0
   25.5857  -20.4280  -10.7166 C   0  0  1  0  0  0  0  0  0  0  0  0
   26.3865  -19.7181   -9.6957 C   0  0  0  0  0  0  0  0  0  0  0  0
   26.0476  -20.1522   -8.3379 C   0  0  0  0  0  0  0  0  0  0  0  0
   24.9301  -20.8503   -7.9304 C   0  0  0  0  0  0  0  0  0  0  0  0
   24.9715  -21.0221   -6.5987 N   0  0  0  0  0  0  0  0  0  0  0  0
   26.0954  -20.4539   -6.1049 C   0  0  0  0  0  0  0  0  0  0  0  0
   26.5569  -20.4009   -4.8047 C   0  0  0  0  0  0  0  0  0  0  0  0
   27.7624  -19.7683   -4.5803 C   0  0  0  0  0  0  0  0  0  0  0  0
   28.4677  -19.2146   -5.6281 C   0  0  0  0  0  0  0  0  0  0  0  0
   27.9905  -19.2805   -6.8971 C   0  0  0  0  0  0  0  0  0  0  0  0
   26.7721  -19.9097   -7.1819 C   0  0  0  0  0  0  0  0  0  0  0  0
   24.1191  -20.3491  -10.6147 C   0  0  0  0  0  0  0  0  0  0  0  0
   23.4436  -19.4191  -11.1292 O   0  0  0  0  0  0  0  0  0  0  0  0
   20.2559  -23.9912   -7.0390 N   0  0  0  0  0  0  0  0  0  0  0  0
   19.3526  -23.3604   -7.9203 C   0  0  0  0  0  0  0  0  0  0  0  0
   18.1302  -23.5408   -7.8187 O   0  0  0  0  0  0  0  0  0  0  0  0
   19.8298  -22.4442   -9.0188 C   0  0  0  0  0  0  0  0  0  0  0  0
   21.3067  -22.2718   -8.9732 C   0  0  0  0  0  0  0  0  0  0  0  0
   21.9020  -21.4741  -10.0965 C   0  0  2  0  0  0  0  0  0  0  0  0
   23.3477  -21.3338   -9.9171 N   0  0  0  0  0  0  0  0  0  0  0  0
   21.3024  -20.1280  -10.1173 C   0  0  0  0  0  0  0  0  0  0  0  0
   20.5131  -19.6888  -10.9872 O   0  0  0  0  0  0  0  0  0  0  0  0
   21.6403  -19.2473   -9.0687 O   0  0  0  0  0  0  0  0  0  0  0  0
  1  2  1  0
  3  2  1  0
  4  3  1  0
  5  4  1  0
  5  6  1  1
  7  5  1  0
  7  8  2  0
  9  7  1  0
 10  9  1  0
 11 12  1  0
 10 11  1  1
 12 13  2  0
 13 14  1  0
 15 14  1  0
 16 15  2  0
 17 16  1  0
 18 19  1  0
 18 17  2  0
 19 20  2  0
 20 12  1  0
 20 15  1  0
 21 10  1  0
 22 21  2  0
 23 24  1  0
 24 26  1  0
 24 25  2  0
 26 27  1  0
 28 27  1  1
 28 29  1  0
 28 30  1  0
 29 21  1  0
 30 31  2  0
 30 32  1  0
M  END
$$$$
