MWQ.pdb
     RDKit          3D

 32 33  0  0  1  0  0  0  0  0999 V2000
   27.8937  -24.9424  -17.3897 C   0  0  0  0  0  0  0  0  0  0  0  0
   29.1659  -23.6773  -17.3892 S   0  0  0  0  0  0  0  0  0  0  0  0
   28.7910  -22.2025  -16.4699 C   0  0  0  0  0  0  0  0  0  0  0  0
   27.7538  -22.3433  -15.3907 C   0  0  0  0  0  0  0  0  0  0  0  0
   27.5173  -21.0513  -14.7084 C   0  0  2  0  0  0  0  0  0  0  0  0
   28.7271  -20.2755  -14.5279 N   0  0  0  0  0  0  0  0  0  0  0  0
   26.9390  -21.3282  -13.3355 C   0  0  0  0  0  0  0  0  0  0  0  0
   25.8755  -21.9698  -13.2026 O   0  0  0  0  0  0  0  0  0  0  0  0
   27.5731  -20.8772  -12.1659 N   0  0  0  0  0  0  0  0  0  0  0  0
   26.9531  -21.0077  -10.8610 C   0  0  1  0  0  0  0  0  0  0  0  0
   27.9059  -20.7926   -9.7505 C   0  0  0  0  0  0  0  0  0  0  0  0
   27.2217  -20.6736   -8.4603 C   0  0  0  0  0  0  0  0  0  0  0  0
   25.8906  -20.9095   -8.1871 C   0  0  0  0  0  0  0  0  0  0  0  0
   25.6478  -20.6515   -6.8913 N   0  0  0  0  0  0  0  0  0  0  0  0
   26.7900  -20.2482   -6.2894 C   0  0  0  0  0  0  0  0  0  0  0  0
   27.0151  -19.8971   -4.9732 C   0  0  0  0  0  0  0  0  0  0  0  0
   28.2999  -19.5406   -4.6181 C   0  0  0  0  0  0  0  0  0  0  0  0
   29.3106  -19.5407   -5.5565 C   0  0  0  0  0  0  0  0  0  0  0  0
   29.0615  -19.8897   -6.8442 C   0  0  0  0  0  0  0  0  0  0  0  0
   27.7760  -20.2592   -7.2598 C   0  0  0  0  0  0  0  0  0  0  0  0
   25.6584  -20.3095  -10.7988 C   0  0  0  0  0  0  0  0  0  0  0  0
   25.5560  -19.0645  -10.6396 O   0  0  0  0  0  0  0  0  0  0  0  0
   23.5434  -19.5089  -15.5988 N   0  0  0  0  0  0  0  0  0  0  0  0
   22.3564  -19.1103  -14.9487 C   0  0  0  0  0  0  0  0  0  0  0  0
   21.4535  -18.5288  -15.5682 O   0  0  0  0  0  0  0  0  0  0  0  0
   22.1335  -19.3715  -13.4804 C   0  0  0  0  0  0  0  0  0  0  0  0
   23.3025  -20.0619  -12.8723 C   0  0  0  0  0  0  0  0  0  0  0  0
   23.1924  -20.3538  -11.4043 C   0  0  2  0  0  0  0  0  0  0  0  0
   24.4104  -21.0024  -10.9167 N   0  0  0  0  0  0  0  0  0  0  0  0
   22.0546  -21.2596  -11.1656 C   0  0  0  0  0  0  0  0  0  0  0  0
   22.0984  -22.5128  -11.1774 O   0  0  0  0  0  0  0  0  0  0  0  0
   20.7995  -20.6739  -10.8988 O   0  0  0  0  0  0  0  0  0  0  0  0
  1  2  1  0
  3  2  1  0
  4  3  1  0
  5  4  1  0
  5  6  1  1
  7  5  1  0
  7  8  2  0
  9  7  1  0
 10  9  1  0
 11 12  1  0
 10 11  1  1
 12 13  2  0
 13 14  1  0
 15 14  1  0
 16 15  2  0
 17 16  1  0
 18 19  1  0
 18 17  2  0
 19 20  2  0
 20 12  1  0
 20 15  1  0
 21 10  1  0
 22 21  2  0
 23 24  1  0
 24 26  1  0
 24 25  2  0
 26 27  1  0
 28 27  1  6
 28 29  1  0
 28 30  1  0
 29 21  1  0
 30 31  2  0
 30 32  1  0
M  END
$$$$
