MWQ.pdb
     RDKit          3D

 32 33  0  0  1  0  0  0  0  0999 V2000
   25.5136  -24.0273  -21.3978 C   0  0  0  0  0  0  0  0  0  0  0  0
   27.2560  -24.4462  -21.4846 S   0  0  0  0  0  0  0  0  0  0  0  0
   27.9424  -25.2088  -20.0327 C   0  0  0  0  0  0  0  0  0  0  0  0
   27.4242  -24.7042  -18.7147 C   0  0  0  0  0  0  0  0  0  0  0  0
   28.2861  -23.6253  -18.1821 C   0  0  2  0  0  0  0  0  0  0  0  0
   29.5892  -24.0965  -17.7602 N   0  0  0  0  0  0  0  0  0  0  0  0
   27.6048  -23.0135  -16.9749 C   0  0  0  0  0  0  0  0  0  0  0  0
   26.8522  -23.6944  -16.2467 O   0  0  0  0  0  0  0  0  0  0  0  0
   27.7925  -21.6647  -16.6297 N   0  0  0  0  0  0  0  0  0  0  0  0
   27.1340  -21.0704  -15.4819 C   0  0  1  0  0  0  0  0  0  0  0  0
   27.9022  -19.9495  -14.8981 C   0  0  0  0  0  0  0  0  0  0  0  0
   27.2286  -19.3767  -13.7298 C   0  0  0  0  0  0  0  0  0  0  0  0
   26.9990  -18.0441  -13.4583 C   0  0  0  0  0  0  0  0  0  0  0  0
   26.3860  -17.9295  -12.2686 N   0  0  0  0  0  0  0  0  0  0  0  0
   26.1988  -19.1591  -11.7368 C   0  0  0  0  0  0  0  0  0  0  0  0
   25.5994  -19.5219  -10.5470 C   0  0  0  0  0  0  0  0  0  0  0  0
   25.5216  -20.8683  -10.2558 C   0  0  0  0  0  0  0  0  0  0  0  0
   26.0290  -21.8043  -11.1324 C   0  0  0  0  0  0  0  0  0  0  0  0
   26.6139  -21.4201  -12.2953 C   0  0  0  0  0  0  0  0  0  0  0  0
   26.7207  -20.0670  -12.6410 C   0  0  0  0  0  0  0  0  0  0  0  0
   25.6962  -20.8645  -15.7227 C   0  0  0  0  0  0  0  0  0  0  0  0
   25.2413  -20.3768  -16.7909 O   0  0  0  0  0  0  0  0  0  0  0  0
   20.9810  -22.8499  -11.8616 N   0  0  0  0  0  0  0  0  0  0  0  0
   20.2779  -22.1222  -12.8448 C   0  0  0  0  0  0  0  0  0  0  0  0
   19.0443  -22.0089  -12.7950 O   0  0  0  0  0  0  0  0  0  0  0  0
   20.9902  -21.4539  -13.9936 C   0  0  0  0  0  0  0  0  0  0  0  0
   22.4668  -21.5599  -13.8471 C   0  0  0  0  0  0  0  0  0  0  0  0
   23.2741  -20.9705  -14.9666 C   0  0  2  0  0  0  0  0  0  0  0  0
   24.7020  -21.2079  -14.7505 N   0  0  0  0  0  0  0  0  0  0  0  0
   23.0473  -19.5155  -15.0252 C   0  0  0  0  0  0  0  0  0  0  0  0
   23.6280  -18.6527  -14.3245 O   0  0  0  0  0  0  0  0  0  0  0  0
   22.0934  -19.0408  -15.9494 O   0  0  0  0  0  0  0  0  0  0  0  0
  1  2  1  0
  3  2  1  0
  4  3  1  0
  5  4  1  0
  5  6  1  1
  7  5  1  0
  7  8  2  0
  9  7  1  0
 10  9  1  0
 11 12  1  0
 10 11  1  6
 12 13  2  0
 13 14  1  0
 15 14  1  0
 16 15  2  0
 17 16  1  0
 18 19  1  0
 18 17  2  0
 19 20  2  0
 20 12  1  0
 20 15  1  0
 21 10  1  0
 22 21  2  0
 23 24  1  0
 24 26  1  0
 24 25  2  0
 26 27  1  0
 28 27  1  1
 28 29  1  0
 28 30  1  0
 29 21  1  0
 30 31  2  0
 30 32  1  0
M  END
$$$$
