VIR.pdb
     RDKit          3D

 27 26  0  0  1  0  0  0  0  0999 V2000
   27.6057  -19.5241  -22.8198 C   0  0  0  0  0  0  0  0  0  0  0  0
   27.4472  -19.5848  -21.3387 C   0  0  1  0  0  0  0  0  0  0  0  0
   28.1127  -18.3440  -20.7554 C   0  0  0  0  0  0  0  0  0  0  0  0
   26.0370  -19.5987  -20.8420 C   0  0  2  0  0  0  0  0  0  0  0  0
   25.4102  -18.3792  -21.3709 N   0  0  0  0  0  0  0  0  0  0  0  0
   25.8904  -19.5633  -19.3779 C   0  0  0  0  0  0  0  0  0  0  0  0
   26.1987  -20.5900  -18.7209 O   0  0  0  0  0  0  0  0  0  0  0  0
   26.2775  -15.7567  -14.6402 C   0  0  0  0  0  0  0  0  0  0  0  0
   25.5973  -17.0170  -15.1347 C   0  0  0  0  0  0  0  0  0  0  0  0
   25.7700  -17.0697  -16.6319 C   0  0  2  0  0  0  0  0  0  0  0  0
   25.0424  -15.8932  -17.2508 C   0  0  0  0  0  0  0  0  0  0  0  0
   25.2869  -18.3870  -17.2095 C   0  0  2  0  0  0  0  0  0  0  0  0
   25.4200  -18.4374  -18.6402 N   0  0  0  0  0  0  0  0  0  0  0  0
   23.8541  -18.5285  -16.7876 C   0  0  0  0  0  0  0  0  0  0  0  0
   23.0177  -17.7442  -17.2995 O   0  0  0  0  0  0  0  0  0  0  0  0
   18.1106  -22.9237  -12.3567 N   0  0  0  0  0  0  0  0  0  0  0  0
   18.7583  -23.9072  -13.1509 C   0  0  0  0  0  0  0  0  0  0  0  0
   18.1760  -25.0226  -13.3664 N   0  0  0  0  0  0  0  0  0  0  0  0
   20.0477  -23.6129  -13.6854 N   0  0  0  0  0  0  0  0  0  0  0  0
   20.6073  -22.3053  -13.3547 C   0  0  0  0  0  0  0  0  0  0  0  0
   20.5331  -21.4054  -14.5422 C   0  0  0  0  0  0  0  0  0  0  0  0
   21.9010  -21.1375  -15.0712 C   0  0  0  0  0  0  0  0  0  0  0  0
   22.0261  -19.6876  -15.4624 C   0  0  2  0  0  0  0  0  0  0  0  0
   23.4258  -19.4843  -15.8625 N   0  0  0  0  0  0  0  0  0  0  0  0
   21.7477  -18.9059  -14.2137 C   0  0  0  0  0  0  0  0  0  0  0  0
   20.4734  -18.4190  -13.9706 O   0  0  0  0  0  0  0  0  0  0  0  0
   22.6418  -18.6736  -13.3679 O   0  0  0  0  0  0  0  0  0  0  0  0
  2  4  1  0
  2  1  1  6
  3  2  1  0
  4  5  1  6
  6  4  1  0
  7  6  2  0
  9  8  1  0
 10  9  1  0
 10 11  1  6
 12 10  1  0
 12 13  1  6
 13  6  1  0
 14 15  2  0
 14 12  1  0
 16 17  1  0
 17 18  2  0
 19 17  1  0
 20 19  1  0
 21 20  1  0
 21 22  1  0
 23 22  1  1
 23 24  1  0
 24 14  1  0
 25 26  1  0
 25 23  1  0
 27 25  2  0
M  END
$$$$
