VIR.pdb
     RDKit          3D

 27 26  0  0  1  0  0  0  0  0999 V2000
   28.1249  -27.1748  -16.7931 C   0  0  0  0  0  0  0  0  0  0  0  0
   27.5178  -26.0131  -16.0829 C   0  0  1  0  0  0  0  0  0  0  0  0
   27.9849  -24.7475  -16.7919 C   0  0  0  0  0  0  0  0  0  0  0  0
   26.0231  -25.9782  -16.0659 C   0  0  2  0  0  0  0  0  0  0  0  0
   25.6041  -25.9207  -17.4734 N   0  0  0  0  0  0  0  0  0  0  0  0
   25.4336  -24.8120  -15.3885 C   0  0  0  0  0  0  0  0  0  0  0  0
   25.6137  -24.6849  -14.1507 O   0  0  0  0  0  0  0  0  0  0  0  0
   25.2568  -19.7444  -17.4230 C   0  0  0  0  0  0  0  0  0  0  0  0
   25.3864  -20.9901  -16.5703 C   0  0  0  0  0  0  0  0  0  0  0  0
   23.9932  -21.4487  -16.2199 C   0  0  2  0  0  0  0  0  0  0  0  0
   23.2683  -20.3193  -15.5158 C   0  0  0  0  0  0  0  0  0  0  0  0
   24.0097  -22.7091  -15.3753 C   0  0  2  0  0  0  0  0  0  0  0  0
   24.6649  -23.8029  -16.0397 N   0  0  0  0  0  0  0  0  0  0  0  0
   22.5753  -23.0307  -15.0754 C   0  0  0  0  0  0  0  0  0  0  0  0
   21.8161  -23.2614  -16.0485 O   0  0  0  0  0  0  0  0  0  0  0  0
   18.9102  -25.1767   -7.4388 N   0  0  0  0  0  0  0  0  0  0  0  0
   17.8435  -25.4035   -8.3489 C   0  0  0  0  0  0  0  0  0  0  0  0
   16.8099  -26.0422   -7.9573 N   0  0  0  0  0  0  0  0  0  0  0  0
   17.9641  -24.9058   -9.6802 N   0  0  0  0  0  0  0  0  0  0  0  0
   19.2870  -24.4367  -10.0834 C   0  0  0  0  0  0  0  0  0  0  0  0
   19.2789  -24.0746  -11.5304 C   0  0  0  0  0  0  0  0  0  0  0  0
   20.6207  -23.5727  -11.9429 C   0  0  0  0  0  0  0  0  0  0  0  0
   20.6722  -23.4135  -13.4406 C   0  0  2  0  0  0  0  0  0  0  0  0
   22.0643  -23.0813  -13.7758 N   0  0  0  0  0  0  0  0  0  0  0  0
   19.7922  -22.2407  -13.7534 C   0  0  0  0  0  0  0  0  0  0  0  0
   18.5546  -22.4407  -14.3437 O   0  0  0  0  0  0  0  0  0  0  0  0
   20.1425  -21.0660  -13.4955 O   0  0  0  0  0  0  0  0  0  0  0  0
  2  4  1  0
  2  1  1  6
  3  2  1  0
  4  5  1  6
  6  4  1  0
  7  6  2  0
  9  8  1  0
 10  9  1  0
 10 11  1  1
 12 10  1  0
 12 13  1  6
 13  6  1  0
 14 15  2  0
 14 12  1  0
 16 17  1  0
 17 18  2  0
 19 17  1  0
 20 19  1  0
 21 20  1  0
 21 22  1  0
 23 22  1  1
 23 24  1  0
 24 14  1  0
 25 26  1  0
 25 23  1  0
 27 25  2  0
M  END
$$$$
