VIR.pdb
     RDKit          3D

 27 26  0  0  1  0  0  0  0  0999 V2000
   18.4508  -27.1061   -7.4999 C   0  0  0  0  0  0  0  0  0  0  0  0
   18.5530  -25.7776   -8.1685 C   0  0  1  0  0  0  0  0  0  0  0  0
   17.1850  -25.4548   -8.7578 C   0  0  0  0  0  0  0  0  0  0  0  0
   18.9258  -24.6356   -7.2782 C   0  0  2  0  0  0  0  0  0  0  0  0
   17.8014  -24.4651   -6.3473 N   0  0  0  0  0  0  0  0  0  0  0  0
   19.1222  -23.3480   -7.9637 C   0  0  0  0  0  0  0  0  0  0  0  0
   18.1520  -22.5510   -8.0289 O   0  0  0  0  0  0  0  0  0  0  0  0
   23.9951  -20.7404   -8.0451 C   0  0  0  0  0  0  0  0  0  0  0  0
   22.5067  -20.9983   -7.9287 C   0  0  0  0  0  0  0  0  0  0  0  0
   21.9805  -21.2616   -9.3172 C   0  0  2  0  0  0  0  0  0  0  0  0
   22.1643  -20.0127  -10.1557 C   0  0  0  0  0  0  0  0  0  0  0  0
   20.5302  -21.7071   -9.2959 C   0  0  2  0  0  0  0  0  0  0  0  0
   20.3459  -22.9319   -8.5658 N   0  0  0  0  0  0  0  0  0  0  0  0
   20.1175  -21.8573  -10.7304 C   0  0  0  0  0  0  0  0  0  0  0  0
   20.6222  -22.8032  -11.3840 O   0  0  0  0  0  0  0  0  0  0  0  0
   14.2766  -17.2291  -15.3474 N   0  0  0  0  0  0  0  0  0  0  0  0
   14.7770  -18.1018  -16.3501 C   0  0  0  0  0  0  0  0  0  0  0  0
   14.3001  -18.0376  -17.5325 N   0  0  0  0  0  0  0  0  0  0  0  0
   15.8038  -19.0277  -15.9993 N   0  0  0  0  0  0  0  0  0  0  0  0
   16.2884  -18.9730  -14.6228 C   0  0  0  0  0  0  0  0  0  0  0  0
   17.2455  -20.0902  -14.3760 C   0  0  0  0  0  0  0  0  0  0  0  0
   17.7347  -20.0473  -12.9683 C   0  0  0  0  0  0  0  0  0  0  0  0
   18.7770  -21.1143  -12.7533 C   0  0  2  0  0  0  0  0  0  0  0  0
   19.2084  -20.9978  -11.3530 N   0  0  0  0  0  0  0  0  0  0  0  0
   19.9179  -20.7533  -13.6565 C   0  0  0  0  0  0  0  0  0  0  0  0
   20.0719  -21.4016  -14.8714 O   0  0  0  0  0  0  0  0  0  0  0  0
   20.7512  -19.8711  -13.3461 O   0  0  0  0  0  0  0  0  0  0  0  0
  2  4  1  0
  2  1  1  1
  3  2  1  0
  4  5  1  1
  6  4  1  0
  7  6  2  0
  9  8  1  0
 10  9  1  0
 10 11  1  6
 12 10  1  0
 12 13  1  1
 13  6  1  0
 14 15  2  0
 14 12  1  0
 16 17  1  0
 17 18  2  0
 19 17  1  0
 20 19  1  0
 21 20  1  0
 21 22  1  0
 23 22  1  1
 23 24  1  0
 24 14  1  0
 25 26  1  0
 25 23  1  0
 27 25  2  0
M  END
$$$$
