VIR.pdb
     RDKit          3D

 27 26  0  0  1  0  0  0  0  0999 V2000
   21.0735  -16.8535  -20.7027 C   0  0  0  0  0  0  0  0  0  0  0  0
   21.9025  -17.5212  -19.6591 C   0  0  1  0  0  0  0  0  0  0  0  0
   21.8550  -19.0209  -19.9263 C   0  0  0  0  0  0  0  0  0  0  0  0
   23.3447  -17.1274  -19.6329 C   0  0  2  0  0  0  0  0  0  0  0  0
   23.8924  -17.5117  -20.9414 N   0  0  0  0  0  0  0  0  0  0  0  0
   24.1570  -17.8007  -18.6066 C   0  0  0  0  0  0  0  0  0  0  0  0
   24.6926  -18.9012  -18.8945 O   0  0  0  0  0  0  0  0  0  0  0  0
   26.1127  -14.7909  -16.4584 C   0  0  0  0  0  0  0  0  0  0  0  0
   26.8321  -16.0708  -16.0843 C   0  0  0  0  0  0  0  0  0  0  0  0
   25.8481  -16.9489  -15.3531 C   0  0  2  0  0  0  0  0  0  0  0  0
   26.5675  -17.6529  -14.2201 C   0  0  0  0  0  0  0  0  0  0  0  0
   25.1761  -17.9405  -16.2846 C   0  0  2  0  0  0  0  0  0  0  0  0
   24.3852  -17.2912  -17.2945 N   0  0  0  0  0  0  0  0  0  0  0  0
   24.3337  -18.8266  -15.4151 C   0  0  0  0  0  0  0  0  0  0  0  0
   23.3546  -18.3034  -14.8283 O   0  0  0  0  0  0  0  0  0  0  0  0
   25.9298  -19.1838   -8.7358 N   0  0  0  0  0  0  0  0  0  0  0  0
   25.6055  -20.5497   -8.5205 C   0  0  0  0  0  0  0  0  0  0  0  0
   24.9519  -20.8821   -7.4755 N   0  0  0  0  0  0  0  0  0  0  0  0
   26.0243  -21.5118   -9.4868 N   0  0  0  0  0  0  0  0  0  0  0  0
   26.3319  -21.0040  -10.8210 C   0  0  0  0  0  0  0  0  0  0  0  0
   25.1787  -21.2463  -11.7357 C   0  0  0  0  0  0  0  0  0  0  0  0
   25.4997  -20.7609  -13.1083 C   0  0  0  0  0  0  0  0  0  0  0  0
   24.3049  -20.9394  -14.0093 C   0  0  2  0  0  0  0  0  0  0  0  0
   24.5955  -20.1879  -15.2387 N   0  0  0  0  0  0  0  0  0  0  0  0
   23.1572  -20.2944  -13.2921 C   0  0  0  0  0  0  0  0  0  0  0  0
   21.9655  -20.9830  -13.1311 O   0  0  0  0  0  0  0  0  0  0  0  0
   23.2390  -19.1350  -12.8252 O   0  0  0  0  0  0  0  0  0  0  0  0
  2  4  1  0
  2  1  1  6
  3  2  1  0
  4  5  1  6
  6  4  1  0
  7  6  2  0
  9  8  1  0
 10  9  1  0
 10 11  1  1
 12 10  1  0
 12 13  1  6
 13  6  1  0
 14 15  2  0
 14 12  1  0
 16 17  1  0
 17 18  2  0
 19 17  1  0
 20 19  1  0
 21 20  1  0
 21 22  1  0
 23 22  1  1
 23 24  1  0
 24 14  1  0
 25 26  1  0
 25 23  1  0
 27 25  2  0
M  END
$$$$
