PCN.pdb
     RDKit          3D

 22 22  0  0  1  0  0  0  0  0999 V2000
   28.2635  -19.0382  -16.4935 N   0  0  0  0  0  0  0  0  0  0  0  0
   29.0400  -18.8890  -17.7112 C   0  0  0  0  0  0  0  0  0  0  0  0
   29.7680  -20.2275  -17.8754 C   0  0  0  0  0  0  0  0  0  0  0  0
   28.8402  -21.2127  -17.2007 C   0  0  0  0  0  0  0  0  0  0  0  0
   27.7642  -20.3975  -16.5083 C   0  0  1  0  0  0  0  0  0  0  0  0
   27.6801  -20.8861  -15.1219 C   0  0  0  0  0  0  0  0  0  0  0  0
   27.0410  -21.9459  -14.9105 O   0  0  0  0  0  0  0  0  0  0  0  0
   28.2994  -20.1935  -14.0270 N   0  0  0  0  0  0  0  0  0  0  0  0
   28.0353  -20.6756  -12.7201 C   0  0  1  0  0  0  0  0  0  0  0  0
   29.2109  -20.2117  -11.8433 C   0  0  0  0  0  0  0  0  0  0  0  0
   30.6159  -21.3085  -12.0508 S   0  0  0  0  0  0  0  0  0  0  0  0
   26.8269  -20.0941  -12.0893 C   0  0  0  0  0  0  0  0  0  0  0  0
   26.4040  -19.0521  -12.6451 O   0  0  0  0  0  0  0  0  0  0  0  0
   23.8682  -19.1790  -13.4021 N   0  0  0  0  0  0  0  0  0  0  0  0
   23.2191  -20.2057  -12.6556 C   0  0  0  0  0  0  0  0  0  0  0  0
   21.9502  -20.2546  -12.7531 O   0  0  0  0  0  0  0  0  0  0  0  0
   23.9545  -21.1614  -11.8164 C   0  0  0  0  0  0  0  0  0  0  0  0
   24.7807  -20.5633  -10.7334 C   0  0  2  0  0  0  0  0  0  0  0  0
   26.1880  -20.6336  -10.9715 N   0  0  0  0  0  0  0  0  0  0  0  0
   24.3428  -20.9838   -9.3830 C   0  0  0  0  0  0  0  0  0  0  0  0
   23.2399  -20.6757   -8.8762 O   0  0  0  0  0  0  0  0  0  0  0  0
   25.1729  -21.7816   -8.5722 O   0  0  0  0  0  0  0  0  0  0  0  0
  1  5  1  0
  2  1  1  0
  3  2  1  0
  3  4  1  0
  4  5  1  0
  6  8  1  0
  5  6  1  1
  7  6  2  0
  9 10  1  1
  9  8  1  0
 11 10  1  0
 12  9  1  0
 12 19  1  0
 13 12  2  0
 15 14  1  0
 16 15  2  0
 17 15  1  0
 18 19  1  0
 18 17  1  6
 20 18  1  0
 21 20  2  0
 22 20  1  0
M  END
$$$$
