PCN.pdb
     RDKit          3D

 22 22  0  0  1  0  0  0  0  0999 V2000
   20.1011  -10.5582  -17.9375 N   0  0  0  0  0  0  0  0  0  0  0  0
   19.9129  -11.8980  -18.4646 C   0  0  0  0  0  0  0  0  0  0  0  0
   19.0976  -12.6278  -17.3917 C   0  0  0  0  0  0  0  0  0  0  0  0
   18.3117  -11.5149  -16.7356 C   0  0  0  0  0  0  0  0  0  0  0  0
   18.8532  -10.2105  -17.2900 C   0  0  1  0  0  0  0  0  0  0  0  0
   19.1440   -9.3415  -16.1374 C   0  0  0  0  0  0  0  0  0  0  0  0
   18.1979   -9.0581  -15.3622 O   0  0  0  0  0  0  0  0  0  0  0  0
   20.4578   -8.8205  -15.8834 N   0  0  0  0  0  0  0  0  0  0  0  0
   20.6251   -8.0133  -14.7299 C   0  0  1  0  0  0  0  0  0  0  0  0
   21.9627   -8.4351  -14.0984 C   0  0  0  0  0  0  0  0  0  0  0  0
   21.7523   -9.9320  -13.1313 S   0  0  0  0  0  0  0  0  0  0  0  0
   20.7694   -6.5662  -15.0152 C   0  0  0  0  0  0  0  0  0  0  0  0
   21.4924   -6.3040  -16.0062 O   0  0  0  0  0  0  0  0  0  0  0  0
   20.3182   -1.3375  -15.1415 N   0  0  0  0  0  0  0  0  0  0  0  0
   19.1933   -1.9179  -14.4853 C   0  0  0  0  0  0  0  0  0  0  0  0
   18.2388   -1.1247  -14.1993 O   0  0  0  0  0  0  0  0  0  0  0  0
   19.1212   -3.3464  -14.1500 C   0  0  0  0  0  0  0  0  0  0  0  0
   20.3077   -4.1577  -14.5337 C   0  0  2  0  0  0  0  0  0  0  0  0
   20.1663   -5.5544  -14.2661 N   0  0  0  0  0  0  0  0  0  0  0  0
   21.5825   -3.5509  -14.0878 C   0  0  0  0  0  0  0  0  0  0  0  0
   22.0657   -3.6978  -12.9419 O   0  0  0  0  0  0  0  0  0  0  0  0
   22.3442   -2.7511  -14.9613 O   0  0  0  0  0  0  0  0  0  0  0  0
  1  5  1  0
  2  1  1  0
  3  2  1  0
  3  4  1  0
  4  5  1  0
  6  8  1  0
  5  6  1  1
  7  6  2  0
  9 10  1  6
  9  8  1  0
 11 10  1  0
 12  9  1  0
 12 19  1  0
 13 12  2  0
 15 14  1  0
 16 15  2  0
 17 15  1  0
 18 19  1  0
 18 17  1  1
 20 18  1  0
 21 20  2  0
 22 20  1  0
M  END
$$$$
