PCN.pdb
     RDKit          3D

 22 22  0  0  1  0  0  0  0  0999 V2000
   16.4056  -13.2658  -11.8908 N   0  0  0  0  0  0  0  0  0  0  0  0
   16.4619  -14.6651  -12.2743 C   0  0  0  0  0  0  0  0  0  0  0  0
   15.3136  -14.8416  -13.2736 C   0  0  0  0  0  0  0  0  0  0  0  0
   15.1798  -13.4696  -13.8952 C   0  0  0  0  0  0  0  0  0  0  0  0
   16.0753  -12.5389  -13.0990 C   0  0  1  0  0  0  0  0  0  0  0  0
   15.2628  -11.3652  -12.7381 C   0  0  0  0  0  0  0  0  0  0  0  0
   14.8713  -10.6145  -13.6653 O   0  0  0  0  0  0  0  0  0  0  0  0
   14.9140  -11.0641  -11.3781 N   0  0  0  0  0  0  0  0  0  0  0  0
   14.1498   -9.8925  -11.1471 C   0  0  1  0  0  0  0  0  0  0  0  0
   12.9605  -10.3191  -10.2699 C   0  0  0  0  0  0  0  0  0  0  0  0
   13.4945  -11.4914   -9.0206 S   0  0  0  0  0  0  0  0  0  0  0  0
   14.8552   -8.8498  -10.3650 C   0  0  0  0  0  0  0  0  0  0  0  0
   15.8724   -9.2597   -9.7561 O   0  0  0  0  0  0  0  0  0  0  0  0
   17.7384   -5.2557   -7.9853 N   0  0  0  0  0  0  0  0  0  0  0  0
   17.3757   -5.3291   -9.3621 C   0  0  0  0  0  0  0  0  0  0  0  0
   17.7395   -4.3509  -10.0919 O   0  0  0  0  0  0  0  0  0  0  0  0
   16.6254   -6.4598   -9.9251 C   0  0  0  0  0  0  0  0  0  0  0  0
   15.1725   -6.4898   -9.6068 C   0  0  2  0  0  0  0  0  0  0  0  0
   14.4501   -7.5161  -10.2903 N   0  0  0  0  0  0  0  0  0  0  0  0
   14.5528   -5.1455   -9.6414 C   0  0  0  0  0  0  0  0  0  0  0  0
   14.0209   -4.6448  -10.6586 O   0  0  0  0  0  0  0  0  0  0  0  0
   14.5274   -4.3340   -8.4909 O   0  0  0  0  0  0  0  0  0  0  0  0
  1  5  1  0
  2  1  1  0
  3  2  1  0
  3  4  1  0
  4  5  1  0
  6  8  1  0
  5  6  1  1
  7  6  2  0
  9 10  1  1
  9  8  1  0
 11 10  1  0
 12  9  1  0
 12 19  1  0
 13 12  2  0
 15 14  1  0
 16 15  2  0
 17 15  1  0
 18 19  1  0
 18 17  1  6
 20 18  1  0
 21 20  2  0
 22 20  1  0
M  END
$$$$
