PCN.pdb
     RDKit          3D

 22 22  0  0  1  0  0  0  0  0999 V2000
   19.3468  -14.7770  -18.9871 N   0  0  0  0  0  0  0  0  0  0  0  0
   19.0167  -16.0405  -19.6217 C   0  0  0  0  0  0  0  0  0  0  0  0
   17.4894  -16.0262  -19.7471 C   0  0  0  0  0  0  0  0  0  0  0  0
   17.1629  -14.5531  -19.8486 C   0  0  0  0  0  0  0  0  0  0  0  0
   18.4485  -13.7990  -19.5650 C   0  0  1  0  0  0  0  0  0  0  0  0
   18.1353  -12.7835  -18.5459 C   0  0  0  0  0  0  0  0  0  0  0  0
   17.3893  -11.8295  -18.8773 O   0  0  0  0  0  0  0  0  0  0  0  0
   18.6521  -12.8563  -17.2081 N   0  0  0  0  0  0  0  0  0  0  0  0
   18.3010  -11.8103  -16.3178 C   0  0  1  0  0  0  0  0  0  0  0  0
   18.0364  -12.4738  -14.9555 C   0  0  0  0  0  0  0  0  0  0  0  0
   16.2727  -12.6694  -14.6880 S   0  0  0  0  0  0  0  0  0  0  0  0
   19.3863  -10.8322  -16.0693 C   0  0  0  0  0  0  0  0  0  0  0  0
   20.4784  -11.1222  -16.6140 O   0  0  0  0  0  0  0  0  0  0  0  0
   23.1465   -7.3503  -16.1019 N   0  0  0  0  0  0  0  0  0  0  0  0
   21.7677   -7.0775  -16.3413 C   0  0  0  0  0  0  0  0  0  0  0  0
   21.4503   -5.8499  -16.4605 O   0  0  0  0  0  0  0  0  0  0  0  0
   20.7565   -8.1380  -16.4473 C   0  0  0  0  0  0  0  0  0  0  0  0
   20.2453   -8.6706  -15.1557 C   0  0  2  0  0  0  0  0  0  0  0  0
   19.2407   -9.6765  -15.3001 N   0  0  0  0  0  0  0  0  0  0  0  0
   19.9382   -7.6011  -14.1789 C   0  0  0  0  0  0  0  0  0  0  0  0
   18.7777   -7.2569  -13.8581 O   0  0  0  0  0  0  0  0  0  0  0  0
   20.9723   -6.8931  -13.5368 O   0  0  0  0  0  0  0  0  0  0  0  0
  1  5  1  0
  2  1  1  0
  3  2  1  0
  3  4  1  0
  4  5  1  0
  6  8  1  0
  5  6  1  1
  7  6  2  0
  9 10  1  1
  9  8  1  0
 11 10  1  0
 12  9  1  0
 12 19  1  0
 13 12  2  0
 15 14  1  0
 16 15  2  0
 17 15  1  0
 18 19  1  0
 18 17  1  6
 20 18  1  0
 21 20  2  0
 22 20  1  0
M  END
$$$$
