PCN.pdb
     RDKit          3D

 22 22  0  0  1  0  0  0  0  0999 V2000
   23.8090  -13.4938  -16.8324 N   0  0  0  0  0  0  0  0  0  0  0  0
   24.7413  -14.5736  -17.1029 C   0  0  0  0  0  0  0  0  0  0  0  0
   26.0967  -13.8819  -17.2839 C   0  0  0  0  0  0  0  0  0  0  0  0
   25.9704  -12.6409  -16.4291 C   0  0  0  0  0  0  0  0  0  0  0  0
   24.5219  -12.5606  -15.9849 C   0  0  1  0  0  0  0  0  0  0  0  0
   24.0552  -11.1967  -16.2853 C   0  0  0  0  0  0  0  0  0  0  0  0
   24.6439  -10.2384  -15.7272 O   0  0  0  0  0  0  0  0  0  0  0  0
   22.9645  -10.9410  -17.1836 N   0  0  0  0  0  0  0  0  0  0  0  0
   22.6002   -9.5872  -17.3950 C   0  0  1  0  0  0  0  0  0  0  0  0
   22.2242   -9.4687  -18.8818 C   0  0  0  0  0  0  0  0  0  0  0  0
   23.6986   -9.5063  -19.9040 S   0  0  0  0  0  0  0  0  0  0  0  0
   21.3908   -9.1592  -16.6531 C   0  0  0  0  0  0  0  0  0  0  0  0
   20.4845  -10.0247  -16.5980 O   0  0  0  0  0  0  0  0  0  0  0  0
   18.0043   -6.8301  -13.4112 N   0  0  0  0  0  0  0  0  0  0  0  0
   18.8471   -7.9472  -13.1382 C   0  0  0  0  0  0  0  0  0  0  0  0
   18.5573   -8.6299  -12.1029 O   0  0  0  0  0  0  0  0  0  0  0  0
   19.9889   -8.3058  -13.9903 C   0  0  0  0  0  0  0  0  0  0  0  0
   20.1204   -7.5266  -15.2508 C   0  0  2  0  0  0  0  0  0  0  0  0
   21.2394   -7.9075  -16.0540 N   0  0  0  0  0  0  0  0  0  0  0  0
   19.9546   -6.0703  -15.0415 C   0  0  0  0  0  0  0  0  0  0  0  0
   20.8884   -5.2397  -15.1218 O   0  0  0  0  0  0  0  0  0  0  0  0
   18.6932   -5.5258  -14.7327 O   0  0  0  0  0  0  0  0  0  0  0  0
  1  5  1  0
  2  1  1  0
  3  2  1  0
  3  4  1  0
  4  5  1  0
  6  8  1  0
  5  6  1  6
  7  6  2  0
  9 10  1  6
  9  8  1  0
 11 10  1  0
 12  9  1  0
 12 19  1  0
 13 12  2  0
 15 14  1  0
 16 15  2  0
 17 15  1  0
 18 19  1  0
 18 17  1  1
 20 18  1  0
 21 20  2  0
 22 20  1  0
M  END
$$$$
