PCN.pdb
     RDKit          3D

 22 22  0  0  1  0  0  0  0  0999 V2000
   21.8769  -15.1265  -18.6738 N   0  0  0  0  0  0  0  0  0  0  0  0
   21.7300  -16.5221  -19.0463 C   0  0  0  0  0  0  0  0  0  0  0  0
   21.2099  -17.2107  -17.7799 C   0  0  0  0  0  0  0  0  0  0  0  0
   20.4527  -16.1099  -17.0718 C   0  0  0  0  0  0  0  0  0  0  0  0
   20.7446  -14.8243  -17.8229 C   0  0  1  0  0  0  0  0  0  0  0  0
   21.1574  -13.8262  -16.8222 C   0  0  0  0  0  0  0  0  0  0  0  0
   20.4039  -13.6371  -15.8359 O   0  0  0  0  0  0  0  0  0  0  0  0
   22.3772  -13.0784  -16.9445 N   0  0  0  0  0  0  0  0  0  0  0  0
   22.6272  -12.0787  -15.9708 C   0  0  1  0  0  0  0  0  0  0  0  0
   24.1510  -11.8702  -15.9479 C   0  0  0  0  0  0  0  0  0  0  0  0
   24.9626  -13.2766  -15.1840 S   0  0  0  0  0  0  0  0  0  0  0  0
   22.0583  -10.7508  -16.3016 C   0  0  0  0  0  0  0  0  0  0  0  0
   22.0582  -10.4787  -17.5261 O   0  0  0  0  0  0  0  0  0  0  0  0
   19.5807   -6.1323  -16.2732 N   0  0  0  0  0  0  0  0  0  0  0  0
   18.8834   -7.3749  -16.3228 C   0  0  0  0  0  0  0  0  0  0  0  0
   17.6631   -7.3203  -16.6832 O   0  0  0  0  0  0  0  0  0  0  0  0
   19.5188   -8.6548  -15.9813 C   0  0  0  0  0  0  0  0  0  0  0  0
   20.9729   -8.5890  -15.6739 C   0  0  2  0  0  0  0  0  0  0  0  0
   21.5564   -9.8543  -15.3566 N   0  0  0  0  0  0  0  0  0  0  0  0
   21.3114   -7.4832  -14.7492 C   0  0  0  0  0  0  0  0  0  0  0  0
   21.5713   -7.6400  -13.5343 O   0  0  0  0  0  0  0  0  0  0  0  0
   21.3619   -6.1521  -15.2059 O   0  0  0  0  0  0  0  0  0  0  0  0
  1  5  1  0
  2  1  1  0
  3  2  1  0
  3  4  1  0
  4  5  1  0
  6  8  1  0
  5  6  1  1
  7  6  2  0
  9 10  1  6
  9  8  1  0
 11 10  1  0
 12  9  1  0
 12 19  1  0
 13 12  2  0
 15 14  1  0
 16 15  2  0
 17 15  1  0
 18 19  1  0
 18 17  1  1
 20 18  1  0
 21 20  2  0
 22 20  1  0
M  END
$$$$
