PCN.pdb
     RDKit          3D

 22 22  0  0  1  0  0  0  0  0999 V2000
   20.6047  -11.9867  -18.6124 N   0  0  0  0  0  0  0  0  0  0  0  0
   20.2373  -13.2379  -19.2508 C   0  0  0  0  0  0  0  0  0  0  0  0
   20.1878  -14.2583  -18.1085 C   0  0  0  0  0  0  0  0  0  0  0  0
   19.8265  -13.4161  -16.9057 C   0  0  0  0  0  0  0  0  0  0  0  0
   19.8981  -11.9667  -17.3483 C   0  0  1  0  0  0  0  0  0  0  0  0
   20.7216  -11.2547  -16.3569 C   0  0  0  0  0  0  0  0  0  0  0  0
   20.3231  -11.2373  -15.1664 O   0  0  0  0  0  0  0  0  0  0  0  0
   21.9455  -10.5926  -16.7116 N   0  0  0  0  0  0  0  0  0  0  0  0
   22.5891   -9.8322  -15.7028 C   0  0  1  0  0  0  0  0  0  0  0  0
   24.0998  -10.0424  -15.9020 C   0  0  0  0  0  0  0  0  0  0  0  0
   24.6196  -11.5880  -15.1528 S   0  0  0  0  0  0  0  0  0  0  0  0
   22.3819   -8.3693  -15.8176 C   0  0  0  0  0  0  0  0  0  0  0  0
   22.1971   -7.9636  -16.9901 O   0  0  0  0  0  0  0  0  0  0  0  0
   18.8653   -4.1445  -15.7443 N   0  0  0  0  0  0  0  0  0  0  0  0
   20.2329   -4.5425  -15.6801 C   0  0  0  0  0  0  0  0  0  0  0  0
   21.0950   -3.6152  -15.8168 O   0  0  0  0  0  0  0  0  0  0  0  0
   20.6435   -5.9373  -15.4693 C   0  0  0  0  0  0  0  0  0  0  0  0
   21.9587   -6.1263  -14.8001 C   0  0  2  0  0  0  0  0  0  0  0  0
   22.3856   -7.4885  -14.7346 N   0  0  0  0  0  0  0  0  0  0  0  0
   22.0706   -5.3637  -13.5359 C   0  0  0  0  0  0  0  0  0  0  0  0
   21.8364   -5.8450  -12.4038 O   0  0  0  0  0  0  0  0  0  0  0  0
   22.4620   -4.0110  -13.5427 O   0  0  0  0  0  0  0  0  0  0  0  0
  1  5  1  0
  2  1  1  0
  3  2  1  0
  3  4  1  0
  4  5  1  0
  6  8  1  0
  5  6  1  1
  7  6  2  0
  9 10  1  6
  9  8  1  0
 11 10  1  0
 12  9  1  0
 12 19  1  0
 13 12  2  0
 15 14  1  0
 16 15  2  0
 17 15  1  0
 18 19  1  0
 18 17  1  1
 20 18  1  0
 21 20  2  0
 22 20  1  0
M  END
$$$$
