PCN.pdb
     RDKit          3D

 22 22  0  0  1  0  0  0  0  0999 V2000
   22.6717  -16.0244  -17.1574 N   0  0  0  0  0  0  0  0  0  0  0  0
   22.9695  -17.4334  -17.3417 C   0  0  0  0  0  0  0  0  0  0  0  0
   22.7523  -18.0615  -15.9608 C   0  0  0  0  0  0  0  0  0  0  0  0
   21.7089  -17.1656  -15.3319 C   0  0  0  0  0  0  0  0  0  0  0  0
   21.5381  -15.9755  -16.2574 C   0  0  1  0  0  0  0  0  0  0  0  0
   21.6459  -14.7653  -15.4255 C   0  0  0  0  0  0  0  0  0  0  0  0
   20.7861  -14.5918  -14.5272 O   0  0  0  0  0  0  0  0  0  0  0  0
   22.6901  -13.7976  -15.6132 N   0  0  0  0  0  0  0  0  0  0  0  0
   22.6383  -12.6235  -14.8202 C   0  0  1  0  0  0  0  0  0  0  0  0
   24.0347  -12.4628  -14.1956 C   0  0  0  0  0  0  0  0  0  0  0  0
   25.2962  -12.4853  -15.4717 S   0  0  0  0  0  0  0  0  0  0  0  0
   22.4116  -11.3780  -15.5907 C   0  0  0  0  0  0  0  0  0  0  0  0
   22.4132  -11.5324  -16.8355 O   0  0  0  0  0  0  0  0  0  0  0  0
   19.7598   -7.0487  -16.7828 N   0  0  0  0  0  0  0  0  0  0  0  0
   19.3106   -8.3993  -16.7005 C   0  0  0  0  0  0  0  0  0  0  0  0
   18.1607   -8.6399  -17.1923 O   0  0  0  0  0  0  0  0  0  0  0  0
   20.1135   -9.4659  -16.0871 C   0  0  0  0  0  0  0  0  0  0  0  0
   21.4680   -9.0641  -15.6212 C   0  0  2  0  0  0  0  0  0  0  0  0
   22.2099  -10.1233  -15.0131 N   0  0  0  0  0  0  0  0  0  0  0  0
   21.4590   -7.7848  -14.8758 C   0  0  0  0  0  0  0  0  0  0  0  0
   21.1870   -7.6853  -13.6574 O   0  0  0  0  0  0  0  0  0  0  0  0
   21.7688   -6.5724  -15.5216 O   0  0  0  0  0  0  0  0  0  0  0  0
  1  5  1  0
  2  1  1  0
  3  2  1  0
  3  4  1  0
  4  5  1  0
  6  8  1  0
  5  6  1  1
  7  6  2  0
  9 10  1  6
  9  8  1  0
 11 10  1  0
 12  9  1  0
 12 19  1  0
 13 12  2  0
 15 14  1  0
 16 15  2  0
 17 15  1  0
 18 19  1  0
 18 17  1  1
 20 18  1  0
 21 20  2  0
 22 20  1  0
M  END
$$$$
