PCN.pdb
     RDKit          3D

 22 22  0  0  1  0  0  0  0  0999 V2000
   18.9729  -10.1999  -14.6009 N   0  0  0  0  0  0  0  0  0  0  0  0
   18.2403  -10.4791  -15.8230 C   0  0  0  0  0  0  0  0  0  0  0  0
   17.1557   -9.3981  -15.8827 C   0  0  0  0  0  0  0  0  0  0  0  0
   17.7800   -8.2383  -15.1398 C   0  0  0  0  0  0  0  0  0  0  0  0
   19.0618   -8.7570  -14.5155 C   0  0  1  0  0  0  0  0  0  0  0  0
   19.0383   -8.3643  -13.0965 C   0  0  0  0  0  0  0  0  0  0  0  0
   18.4121   -9.0995  -12.2942 O   0  0  0  0  0  0  0  0  0  0  0  0
   19.7014   -7.1842  -12.6174 N   0  0  0  0  0  0  0  0  0  0  0  0
   19.5332   -6.8543  -11.2489 C   0  0  1  0  0  0  0  0  0  0  0  0
   20.7497   -5.9977  -10.8589 C   0  0  0  0  0  0  0  0  0  0  0  0
   20.9196   -4.6069  -11.9801 S   0  0  0  0  0  0  0  0  0  0  0  0
   18.3527   -6.0034  -10.9683 C   0  0  0  0  0  0  0  0  0  0  0  0
   17.9284   -5.3641  -11.9607 O   0  0  0  0  0  0  0  0  0  0  0  0
   14.1935   -3.6463   -8.7335 N   0  0  0  0  0  0  0  0  0  0  0  0
   14.6772   -4.6839   -7.8837 C   0  0  0  0  0  0  0  0  0  0  0  0
   14.0434   -4.8579   -6.7928 O   0  0  0  0  0  0  0  0  0  0  0  0
   15.8384   -5.5149   -8.2292 C   0  0  0  0  0  0  0  0  0  0  0  0
   16.5817   -5.1052   -9.4510 C   0  0  2  0  0  0  0  0  0  0  0  0
   17.7399   -5.8984   -9.7185 N   0  0  0  0  0  0  0  0  0  0  0  0
   16.7815   -3.6404   -9.5332 C   0  0  0  0  0  0  0  0  0  0  0  0
   15.8516   -2.8125   -9.6674 O   0  0  0  0  0  0  0  0  0  0  0  0
   18.0731   -3.0842   -9.4599 O   0  0  0  0  0  0  0  0  0  0  0  0
  1  5  1  0
  2  1  1  0
  3  2  1  0
  3  4  1  0
  4  5  1  0
  6  8  1  0
  5  6  1  1
  7  6  2  0
  9 10  1  6
  9  8  1  0
 11 10  1  0
 12  9  1  0
 12 19  1  0
 13 12  2  0
 15 14  1  0
 16 15  2  0
 17 15  1  0
 18 19  1  0
 18 17  1  1
 20 18  1  0
 21 20  2  0
 22 20  1  0
M  END
$$$$
