PCN.pdb
     RDKit          3D

 22 22  0  0  1  0  0  0  0  0999 V2000
   25.3122  -20.8748  -16.0466 N   0  0  0  0  0  0  0  0  0  0  0  0
   26.6790  -20.6054  -16.4559 C   0  0  0  0  0  0  0  0  0  0  0  0
   27.4854  -20.6171  -15.1528 C   0  0  0  0  0  0  0  0  0  0  0  0
   26.7004  -21.5581  -14.2669 C   0  0  0  0  0  0  0  0  0  0  0  0
   25.4039  -21.8642  -14.9930 C   0  0  1  0  0  0  0  0  0  0  0  0
   24.3101  -21.6371  -14.0338 C   0  0  0  0  0  0  0  0  0  0  0  0
   24.3122  -22.3063  -12.9716 O   0  0  0  0  0  0  0  0  0  0  0  0
   23.2614  -20.6872  -14.2790 N   0  0  0  0  0  0  0  0  0  0  0  0
   22.2438  -20.5748  -13.2982 C   0  0  1  0  0  0  0  0  0  0  0  0
   22.0255  -19.0688  -13.0738 C   0  0  0  0  0  0  0  0  0  0  0  0
   20.7858  -18.7997  -11.8045 S   0  0  0  0  0  0  0  0  0  0  0  0
   20.9253  -21.0991  -13.7260 C   0  0  0  0  0  0  0  0  0  0  0  0
   20.5306  -20.6639  -14.8343 O   0  0  0  0  0  0  0  0  0  0  0  0
   19.1826  -25.2301  -14.1369 N   0  0  0  0  0  0  0  0  0  0  0  0
   18.5995  -24.9027  -12.8778 C   0  0  0  0  0  0  0  0  0  0  0  0
   18.3340  -25.8831  -12.1095 O   0  0  0  0  0  0  0  0  0  0  0  0
   18.3137  -23.5198  -12.4721 C   0  0  0  0  0  0  0  0  0  0  0  0
   18.8623  -22.4620  -13.3627 C   0  0  2  0  0  0  0  0  0  0  0  0
   20.1610  -22.0012  -12.9840 N   0  0  0  0  0  0  0  0  0  0  0  0
   17.8745  -21.4012  -13.6646 C   0  0  0  0  0  0  0  0  0  0  0  0
   17.5264  -20.5153  -12.8508 O   0  0  0  0  0  0  0  0  0  0  0  0
   17.2559  -21.3310  -14.9277 O   0  0  0  0  0  0  0  0  0  0  0  0
  1  5  1  0
  2  1  1  0
  3  2  1  0
  3  4  1  0
  4  5  1  0
  6  8  1  0
  5  6  1  1
  7  6  2  0
  9 10  1  6
  9  8  1  0
 11 10  1  0
 12  9  1  0
 12 19  1  0
 13 12  2  0
 15 14  1  0
 16 15  2  0
 17 15  1  0
 18 19  1  0
 18 17  1  1
 20 18  1  0
 21 20  2  0
 22 20  1  0
M  END
$$$$
