KYY.pdb
     RDKit          3D

 34 35  0  0  1  0  0  0  0  0999 V2000
   44.7402   -9.6504   -4.4790 N   0  0  0  0  0  0  0  0  0  0  0  0
   44.5918   -9.5060   -5.8978 C   0  0  1  0  0  0  0  0  0  0  0  0
   44.8458  -10.8244   -6.6404 C   0  0  0  0  0  0  0  0  0  0  0  0
   46.2866  -11.1701   -6.4256 C   0  0  0  0  0  0  0  0  0  0  0  0
   46.6815  -12.4243   -7.1834 C   0  0  0  0  0  0  0  0  0  0  0  0
   48.1499  -12.6939   -6.9086 C   0  0  0  0  0  0  0  0  0  0  0  0
   48.4987  -13.9165   -7.6161 N   0  0  0  0  0  0  0  0  0  0  0  0
   43.2087   -9.1201   -6.2484 C   0  0  0  0  0  0  0  0  0  0  0  0
   42.2550   -9.7264   -5.7145 O   0  0  0  0  0  0  0  0  0  0  0  0
   35.8659   -5.0411   -8.2749 O   0  0  0  0  0  0  0  0  0  0  0  0
   37.1957   -5.3494   -8.0189 C   0  0  0  0  0  0  0  0  0  0  0  0
   37.6360   -5.8193   -6.8026 C   0  0  0  0  0  0  0  0  0  0  0  0
   38.9621   -6.1293   -6.5375 C   0  0  0  0  0  0  0  0  0  0  0  0
   39.8623   -5.9488   -7.5598 C   0  0  0  0  0  0  0  0  0  0  0  0
   41.2928   -6.2612   -7.3412 C   0  0  0  0  0  0  0  0  0  0  0  0
   41.5568   -7.7375   -7.4257 C   0  0  2  0  0  0  0  0  0  0  0  0
   42.9196   -8.0866   -7.1714 N   0  0  0  0  0  0  0  0  0  0  0  0
   41.1457   -8.2057   -8.7760 C   0  0  0  0  0  0  0  0  0  0  0  0
   41.9482   -8.0117   -9.7263 O   0  0  0  0  0  0  0  0  0  0  0  0
   39.4726   -5.4827   -8.7915 C   0  0  0  0  0  0  0  0  0  0  0  0
   38.1386   -5.1867   -9.0093 C   0  0  0  0  0  0  0  0  0  0  0  0
   36.8625  -11.7690  -15.6124 O   0  0  0  0  0  0  0  0  0  0  0  0
   37.3693  -11.4830  -14.3343 C   0  0  0  0  0  0  0  0  0  0  0  0
   36.5800  -10.8502  -13.3925 C   0  0  0  0  0  0  0  0  0  0  0  0
   37.0576  -10.5607  -12.1341 C   0  0  0  0  0  0  0  0  0  0  0  0
   38.3662  -10.8952  -11.7529 C   0  0  0  0  0  0  0  0  0  0  0  0
   38.8430  -10.5497  -10.4048 C   0  0  0  0  0  0  0  0  0  0  0  0
   39.5905   -9.2341  -10.3908 C   0  0  2  0  0  0  0  0  0  0  0  0
   39.9094   -8.8495   -9.0231 N   0  0  0  0  0  0  0  0  0  0  0  0
   38.7952   -8.1372  -10.9796 C   0  0  0  0  0  0  0  0  0  0  0  0
   38.0650   -7.3173  -10.1423 O   0  0  0  0  0  0  0  0  0  0  0  0
   39.1252  -11.5248  -12.7161 C   0  0  0  0  0  0  0  0  0  0  0  0
   38.6463  -11.8138  -13.9735 C   0  0  0  0  0  0  0  0  0  0  0  0
   38.7760   -7.9500  -12.1986 O   0  0  0  0  0  0  0  0  0  0  0  0
  2  1  1  1
  2  3  1  0
  4  3  1  0
  5  4  1  0
  6  5  1  0
  7  6  1  0
  8  2  1  0
  8  9  2  0
 10 11  1  0
 11 21  2  0
 11 12  1  0
 12 13  2  0
 13 14  1  0
 14 15  1  0
 16 15  1  6
 16 17  1  0
 17  8  1  0
 18 16  1  0
 19 18  2  0
 20 14  2  0
 21 20  1  0
 23 22  1  0
 23 24  2  0
 25 24  1  0
 26 25  2  0
 27 26  1  0
 28 27  1  1
 28 29  1  0
 28 30  1  0
 29 18  1  0
 30 34  2  0
 30 31  1  0
 32 33  2  0
 32 26  1  0
 33 23  1  0
M  END
$$$$
