KYY.pdb
     RDKit          3D

 34 35  0  0  1  0  0  0  0  0999 V2000
   25.2340  -21.0142  -18.5773 N   0  0  0  0  0  0  0  0  0  0  0  0
   24.4667  -20.0038  -17.9094 C   0  0  1  0  0  0  0  0  0  0  0  0
   23.2309  -19.5899  -18.7192 C   0  0  0  0  0  0  0  0  0  0  0  0
   23.7325  -18.9068  -19.9534 C   0  0  0  0  0  0  0  0  0  0  0  0
   22.9062  -19.2732  -21.1725 C   0  0  0  0  0  0  0  0  0  0  0  0
   21.7732  -18.2697  -21.2882 C   0  0  0  0  0  0  0  0  0  0  0  0
   21.0301  -18.6027  -22.4941 N   0  0  0  0  0  0  0  0  0  0  0  0
   23.9407  -20.5038  -16.6217 C   0  0  0  0  0  0  0  0  0  0  0  0
   23.7122  -21.7259  -16.4923 O   0  0  0  0  0  0  0  0  0  0  0  0
   29.4422  -21.4921  -13.6161 O   0  0  0  0  0  0  0  0  0  0  0  0
   28.1198  -21.0917  -13.4754 C   0  0  0  0  0  0  0  0  0  0  0  0
   27.1926  -21.8064  -12.7519 C   0  0  0  0  0  0  0  0  0  0  0  0
   25.8696  -21.4147  -12.6064 C   0  0  0  0  0  0  0  0  0  0  0  0
   25.4914  -20.2486  -13.2271 C   0  0  0  0  0  0  0  0  0  0  0  0
   24.0934  -19.7756  -13.1106 C   0  0  0  0  0  0  0  0  0  0  0  0
   23.2603  -20.2153  -14.2808 C   0  0  2  0  0  0  0  0  0  0  0  0
   23.6824  -19.6489  -15.5236 N   0  0  0  0  0  0  0  0  0  0  0  0
   21.8441  -19.8566  -14.0027 C   0  0  0  0  0  0  0  0  0  0  0  0
   21.5083  -18.6539  -14.1625 O   0  0  0  0  0  0  0  0  0  0  0  0
   26.3792  -19.4997  -13.9601 C   0  0  0  0  0  0  0  0  0  0  0  0
   27.6889  -19.9304  -14.0772 C   0  0  0  0  0  0  0  0  0  0  0  0
   18.4101  -24.0924  -18.6127 O   0  0  0  0  0  0  0  0  0  0  0  0
   18.5792  -23.0470  -17.6904 C   0  0  0  0  0  0  0  0  0  0  0  0
   17.7553  -22.9469  -16.5851 C   0  0  0  0  0  0  0  0  0  0  0  0
   17.9042  -21.9299  -15.6692 C   0  0  0  0  0  0  0  0  0  0  0  0
   18.8985  -20.9506  -15.8179 C   0  0  0  0  0  0  0  0  0  0  0  0
   19.0101  -19.8696  -14.8264 C   0  0  0  0  0  0  0  0  0  0  0  0
   19.4902  -20.3813  -13.4857 C   0  0  2  0  0  0  0  0  0  0  0  0
   20.8814  -20.8020  -13.5748 N   0  0  0  0  0  0  0  0  0  0  0  0
   18.7092  -21.5474  -13.0244 C   0  0  0  0  0  0  0  0  0  0  0  0
   19.3434  -22.7669  -12.8933 O   0  0  0  0  0  0  0  0  0  0  0  0
   19.7017  -21.0807  -16.9306 C   0  0  0  0  0  0  0  0  0  0  0  0
   19.5519  -22.0981  -17.8451 C   0  0  0  0  0  0  0  0  0  0  0  0
   17.5090  -21.4437  -12.7599 O   0  0  0  0  0  0  0  0  0  0  0  0
  2  1  1  6
  2  3  1  0
  4  3  1  0
  5  4  1  0
  6  5  1  0
  7  6  1  0
  8  2  1  0
  8  9  2  0
 10 11  1  0
 11 21  2  0
 11 12  1  0
 12 13  2  0
 13 14  1  0
 14 15  1  0
 16 15  1  1
 16 17  1  0
 17  8  1  0
 18 16  1  0
 19 18  2  0
 20 14  2  0
 21 20  1  0
 23 22  1  0
 23 24  2  0
 25 24  1  0
 26 25  2  0
 27 26  1  0
 28 27  1  6
 28 29  1  0
 28 30  1  0
 29 18  1  0
 30 34  2  0
 30 31  1  0
 32 33  2  0
 32 26  1  0
 33 23  1  0
M  END
$$$$
