KYY.pdb
     RDKit          3D

 34 35  0  0  1  0  0  0  0  0999 V2000
   21.4204  -23.9350  -14.5742 N   0  0  0  0  0  0  0  0  0  0  0  0
   22.1499  -22.8115  -15.0855 C   0  0  1  0  0  0  0  0  0  0  0  0
   22.3992  -22.9256  -16.5952 C   0  0  0  0  0  0  0  0  0  0  0  0
   23.4514  -23.9745  -16.7808 C   0  0  0  0  0  0  0  0  0  0  0  0
   24.7967  -23.5204  -16.2447 C   0  0  0  0  0  0  0  0  0  0  0  0
   25.8257  -24.5749  -16.6101 C   0  0  0  0  0  0  0  0  0  0  0  0
   27.1177  -24.0861  -16.1532 N   0  0  0  0  0  0  0  0  0  0  0  0
   21.3846  -21.5594  -14.9093 C   0  0  0  0  0  0  0  0  0  0  0  0
   20.1363  -21.5979  -14.9613 O   0  0  0  0  0  0  0  0  0  0  0  0
   19.5957  -20.6916   -8.5904 O   0  0  0  0  0  0  0  0  0  0  0  0
   20.0547  -20.0946   -9.7574 C   0  0  0  0  0  0  0  0  0  0  0  0
   19.3078  -19.1955  -10.4839 C   0  0  0  0  0  0  0  0  0  0  0  0
   19.7576  -18.5948  -11.6509 C   0  0  0  0  0  0  0  0  0  0  0  0
   21.0180  -18.9324  -12.0817 C   0  0  0  0  0  0  0  0  0  0  0  0
   21.5567  -18.3263  -13.3203 C   0  0  0  0  0  0  0  0  0  0  0  0
   21.2063  -19.1401  -14.5333 C   0  0  2  0  0  0  0  0  0  0  0  0
   22.0125  -20.3109  -14.6845 N   0  0  0  0  0  0  0  0  0  0  0  0
   21.3325  -18.2664  -15.7302 C   0  0  0  0  0  0  0  0  0  0  0  0
   22.4607  -18.2021  -16.2849 O   0  0  0  0  0  0  0  0  0  0  0  0
   21.8024  -19.8241  -11.3919 C   0  0  0  0  0  0  0  0  0  0  0  0
   21.3111  -20.3982  -10.2327 C   0  0  0  0  0  0  0  0  0  0  0  0
   21.3379  -14.9215  -23.5623 O   0  0  0  0  0  0  0  0  0  0  0  0
   21.2630  -15.5981  -22.3340 C   0  0  0  0  0  0  0  0  0  0  0  0
   20.1311  -16.3161  -21.9968 C   0  0  0  0  0  0  0  0  0  0  0  0
   20.0374  -16.9863  -20.7978 C   0  0  0  0  0  0  0  0  0  0  0  0
   21.0867  -16.9695  -19.8659 C   0  0  0  0  0  0  0  0  0  0  0  0
   20.9374  -17.6828  -18.5881 C   0  0  0  0  0  0  0  0  0  0  0  0
   20.4601  -16.7661  -17.4828 C   0  0  2  0  0  0  0  0  0  0  0  0
   20.2495  -17.5218  -16.2561 N   0  0  0  0  0  0  0  0  0  0  0  0
   19.1792  -16.1114  -17.8188 C   0  0  0  0  0  0  0  0  0  0  0  0
   19.2012  -14.9033  -18.4870 O   0  0  0  0  0  0  0  0  0  0  0  0
   22.1997  -16.2444  -20.2344 C   0  0  0  0  0  0  0  0  0  0  0  0
   22.2919  -15.5752  -21.4334 C   0  0  0  0  0  0  0  0  0  0  0  0
   18.1020  -16.6271  -17.5100 O   0  0  0  0  0  0  0  0  0  0  0  0
  2  1  1  6
  2  3  1  0
  4  3  1  0
  5  4  1  0
  6  5  1  0
  7  6  1  0
  8  2  1  0
  8  9  2  0
 10 11  1  0
 11 21  2  0
 11 12  1  0
 12 13  2  0
 13 14  1  0
 14 15  1  0
 16 15  1  1
 16 17  1  0
 17  8  1  0
 18 16  1  0
 19 18  2  0
 20 14  2  0
 21 20  1  0
 23 22  1  0
 23 24  2  0
 25 24  1  0
 26 25  2  0
 27 26  1  0
 28 27  1  6
 28 29  1  0
 28 30  1  0
 29 18  1  0
 30 34  2  0
 30 31  1  0
 32 33  2  0
 32 26  1  0
 33 23  1  0
M  END
$$$$
