KYY.pdb
     RDKit          3D

 34 35  0  0  1  0  0  0  0  0999 V2000
   30.2516  -24.0884  -17.5899 N   0  0  0  0  0  0  0  0  0  0  0  0
   28.8997  -24.5601  -17.5150 C   0  0  1  0  0  0  0  0  0  0  0  0
   28.7740  -25.8100  -16.6339 C   0  0  0  0  0  0  0  0  0  0  0  0
   29.0600  -26.9880  -17.5126 C   0  0  0  0  0  0  0  0  0  0  0  0
   27.8555  -27.3644  -18.3557 C   0  0  0  0  0  0  0  0  0  0  0  0
   28.2103  -28.6094  -19.1485 C   0  0  0  0  0  0  0  0  0  0  0  0
   27.0303  -28.9765  -19.9165 N   0  0  0  0  0  0  0  0  0  0  0  0
   28.0211  -23.5502  -16.8883 C   0  0  0  0  0  0  0  0  0  0  0  0
   28.4448  -22.9009  -15.9078 O   0  0  0  0  0  0  0  0  0  0  0  0
   30.4484  -18.0628  -18.4084 O   0  0  0  0  0  0  0  0  0  0  0  0
   29.2797  -18.7856  -18.2070 C   0  0  0  0  0  0  0  0  0  0  0  0
   28.3848  -18.4997  -17.2014 C   0  0  0  0  0  0  0  0  0  0  0  0
   27.2154  -19.2164  -16.9921 C   0  0  0  0  0  0  0  0  0  0  0  0
   26.9614  -20.2612  -17.8477 C   0  0  0  0  0  0  0  0  0  0  0  0
   25.7303  -21.0657  -17.6779 C   0  0  0  0  0  0  0  0  0  0  0  0
   25.9535  -22.2331  -16.7593 C   0  0  2  0  0  0  0  0  0  0  0  0
   26.7109  -23.2888  -17.3557 N   0  0  0  0  0  0  0  0  0  0  0  0
   24.6256  -22.7350  -16.3160 C   0  0  0  0  0  0  0  0  0  0  0  0
   23.9844  -23.4645  -17.1169 O   0  0  0  0  0  0  0  0  0  0  0  0
   27.8230  -20.5862  -18.8667 C   0  0  0  0  0  0  0  0  0  0  0  0
   28.9774  -19.8425  -19.0366 C   0  0  0  0  0  0  0  0  0  0  0  0
   17.5959  -25.2049  -11.5872 O   0  0  0  0  0  0  0  0  0  0  0  0
   18.8125  -24.6297  -11.9888 C   0  0  0  0  0  0  0  0  0  0  0  0
   19.9435  -25.4109  -12.1334 C   0  0  0  0  0  0  0  0  0  0  0  0
   21.1458  -24.8668  -12.5258 C   0  0  0  0  0  0  0  0  0  0  0  0
   21.2753  -23.4957  -12.7959 C   0  0  0  0  0  0  0  0  0  0  0  0
   22.5831  -22.9520  -13.1933 C   0  0  0  0  0  0  0  0  0  0  0  0
   22.7945  -23.0283  -14.6898 C   0  0  2  0  0  0  0  0  0  0  0  0
   24.0710  -22.4276  -15.0504 N   0  0  0  0  0  0  0  0  0  0  0  0
   21.7445  -22.3057  -15.4364 C   0  0  0  0  0  0  0  0  0  0  0  0
   20.6891  -23.0209  -15.9666 O   0  0  0  0  0  0  0  0  0  0  0  0
   20.1283  -22.7468  -12.6417 C   0  0  0  0  0  0  0  0  0  0  0  0
   18.9272  -23.2921  -12.2496 C   0  0  0  0  0  0  0  0  0  0  0  0
   21.8017  -21.0832  -15.5906 O   0  0  0  0  0  0  0  0  0  0  0  0
  2  1  1  1
  2  3  1  0
  4  3  1  0
  5  4  1  0
  6  5  1  0
  7  6  1  0
  8  2  1  0
  8  9  2  0
 10 11  1  0
 11 21  2  0
 11 12  1  0
 12 13  2  0
 13 14  1  0
 14 15  1  0
 16 15  1  6
 16 17  1  0
 17  8  1  0
 18 16  1  0
 19 18  2  0
 20 14  2  0
 21 20  1  0
 23 22  1  0
 23 24  2  0
 25 24  1  0
 26 25  2  0
 27 26  1  0
 28 27  1  1
 28 29  1  0
 28 30  1  0
 29 18  1  0
 30 34  2  0
 30 31  1  0
 32 33  2  0
 32 26  1  0
 33 23  1  0
M  END
$$$$
