KYY.pdb
     RDKit          3D

 34 35  0  0  1  0  0  0  0  0999 V2000
   23.2518   -9.2274  -22.3324 N   0  0  0  0  0  0  0  0  0  0  0  0
   23.6727   -9.0365  -20.9751 C   0  0  1  0  0  0  0  0  0  0  0  0
   24.3911   -7.6950  -20.7783 C   0  0  0  0  0  0  0  0  0  0  0  0
   24.4453   -7.0334  -22.1203 C   0  0  0  0  0  0  0  0  0  0  0  0
   25.1769   -5.7051  -22.0618 C   0  0  0  0  0  0  0  0  0  0  0  0
   25.2434   -5.1453  -23.4712 C   0  0  0  0  0  0  0  0  0  0  0  0
   25.9389   -3.8698  -23.3910 N   0  0  0  0  0  0  0  0  0  0  0  0
   22.5112   -8.9954  -20.0619 C   0  0  0  0  0  0  0  0  0  0  0  0
   21.5945   -8.1746  -20.2816 O   0  0  0  0  0  0  0  0  0  0  0  0
   16.2311  -11.0124  -14.3857 O   0  0  0  0  0  0  0  0  0  0  0  0
   17.2388  -10.9997  -15.3413 C   0  0  0  0  0  0  0  0  0  0  0  0
   17.1837  -10.2278  -16.4793 C   0  0  0  0  0  0  0  0  0  0  0  0
   18.1850  -10.2091  -17.4396 C   0  0  0  0  0  0  0  0  0  0  0  0
   19.2776  -11.0124  -17.2186 C   0  0  0  0  0  0  0  0  0  0  0  0
   20.3809  -11.0381  -18.2055 C   0  0  0  0  0  0  0  0  0  0  0  0
   21.2175   -9.7925  -18.1339 C   0  0  2  0  0  0  0  0  0  0  0  0
   22.3958   -9.8522  -18.9412 N   0  0  0  0  0  0  0  0  0  0  0  0
   21.5766   -9.5562  -16.7103 C   0  0  0  0  0  0  0  0  0  0  0  0
   22.5766  -10.1704  -16.2547 O   0  0  0  0  0  0  0  0  0  0  0  0
   19.3799  -11.8006  -16.0985 C   0  0  0  0  0  0  0  0  0  0  0  0
   18.3559  -11.7862  -15.1681 C   0  0  0  0  0  0  0  0  0  0  0  0
   22.0650   -2.3549  -16.5533 O   0  0  0  0  0  0  0  0  0  0  0  0
   22.2212   -3.6748  -16.0996 C   0  0  0  0  0  0  0  0  0  0  0  0
   21.9018   -4.0111  -14.7975 C   0  0  0  0  0  0  0  0  0  0  0  0
   22.0476   -5.2989  -14.3330 C   0  0  0  0  0  0  0  0  0  0  0  0
   22.5269   -6.3259  -15.1608 C   0  0  0  0  0  0  0  0  0  0  0  0
   22.6864   -7.6839  -14.6185 C   0  0  0  0  0  0  0  0  0  0  0  0
   21.3648   -8.4161  -14.5333 C   0  0  2  0  0  0  0  0  0  0  0  0
   20.8481   -8.6817  -15.8686 N   0  0  0  0  0  0  0  0  0  0  0  0
   20.3399   -7.6304  -13.8160 C   0  0  0  0  0  0  0  0  0  0  0  0
   20.4860   -7.4225  -12.4589 O   0  0  0  0  0  0  0  0  0  0  0  0
   22.8355   -5.9555  -16.4522 C   0  0  0  0  0  0  0  0  0  0  0  0
   22.6889   -4.6679  -16.9153 C   0  0  0  0  0  0  0  0  0  0  0  0
   19.3648   -7.1648  -14.4109 O   0  0  0  0  0  0  0  0  0  0  0  0
  2  1  1  6
  2  3  1  0
  4  3  1  0
  5  4  1  0
  6  5  1  0
  7  6  1  0
  8  2  1  0
  8  9  2  0
 10 11  1  0
 11 21  2  0
 11 12  1  0
 12 13  2  0
 13 14  1  0
 14 15  1  0
 16 15  1  1
 16 17  1  0
 17  8  1  0
 18 16  1  0
 19 18  2  0
 20 14  2  0
 21 20  1  0
 23 22  1  0
 23 24  2  0
 25 24  1  0
 26 25  2  0
 27 26  1  0
 28 27  1  6
 28 29  1  0
 28 30  1  0
 29 18  1  0
 30 34  2  0
 30 31  1  0
 32 33  2  0
 32 26  1  0
 33 23  1  0
M  END
$$$$
