KYY.pdb
     RDKit          3D

 34 35  0  0  1  0  0  0  0  0999 V2000
   27.1094  -25.3218  -17.2970 N   0  0  0  0  0  0  0  0  0  0  0  0
   26.5956  -23.9835  -17.3205 C   0  0  1  0  0  0  0  0  0  0  0  0
   25.4194  -23.8353  -18.2946 C   0  0  0  0  0  0  0  0  0  0  0  0
   25.9850  -23.9557  -19.6757 C   0  0  0  0  0  0  0  0  0  0  0  0
   25.4797  -25.2002  -20.3822 C   0  0  0  0  0  0  0  0  0  0  0  0
   26.0217  -25.1856  -21.8000 C   0  0  0  0  0  0  0  0  0  0  0  0
   27.2225  -26.0072  -21.8059 N   0  0  0  0  0  0  0  0  0  0  0  0
   26.0583  -23.5999  -15.9980 C   0  0  0  0  0  0  0  0  0  0  0  0
   25.3435  -24.4132  -15.3735 O   0  0  0  0  0  0  0  0  0  0  0  0
   24.5913  -20.2091   -8.1573 O   0  0  0  0  0  0  0  0  0  0  0  0
   25.0463  -20.3655   -9.4601 C   0  0  0  0  0  0  0  0  0  0  0  0
   24.5821  -19.6100  -10.5126 C   0  0  0  0  0  0  0  0  0  0  0  0
   25.0302  -19.7596  -11.8171 C   0  0  0  0  0  0  0  0  0  0  0  0
   25.9875  -20.7191  -12.0427 C   0  0  0  0  0  0  0  0  0  0  0  0
   26.5074  -20.9286  -13.4130 C   0  0  0  0  0  0  0  0  0  0  0  0
   25.7961  -22.0535  -14.1095 C   0  0  2  0  0  0  0  0  0  0  0  0
   26.3212  -22.3404  -15.4079 N   0  0  0  0  0  0  0  0  0  0  0  0
   24.3533  -21.7045  -14.2000 C   0  0  0  0  0  0  0  0  0  0  0  0
   24.0227  -20.8143  -15.0263 O   0  0  0  0  0  0  0  0  0  0  0  0
   26.4829  -21.4983  -11.0260 C   0  0  0  0  0  0  0  0  0  0  0  0
   26.0056  -21.3130   -9.7405 C   0  0  0  0  0  0  0  0  0  0  0  0
   15.6843  -20.8181  -12.8037 O   0  0  0  0  0  0  0  0  0  0  0  0
   17.0093  -21.2824  -12.7725 C   0  0  0  0  0  0  0  0  0  0  0  0
   17.5651  -21.8915  -13.8818 C   0  0  0  0  0  0  0  0  0  0  0  0
   18.8619  -22.3537  -13.8720 C   0  0  0  0  0  0  0  0  0  0  0  0
   19.6758  -22.2267  -12.7356 C   0  0  0  0  0  0  0  0  0  0  0  0
   21.0495  -22.7522  -12.7611 C   0  0  0  0  0  0  0  0  0  0  0  0
   22.0006  -21.8105  -13.4672 C   0  0  2  0  0  0  0  0  0  0  0  0
   23.3605  -22.3273  -13.4061 N   0  0  0  0  0  0  0  0  0  0  0  0
   22.0143  -20.4688  -12.8491 C   0  0  0  0  0  0  0  0  0  0  0  0
   21.4218  -19.4177  -13.5205 O   0  0  0  0  0  0  0  0  0  0  0  0
   19.0898  -21.6148  -11.6481 C   0  0  0  0  0  0  0  0  0  0  0  0
   17.7935  -21.1530  -11.6596 C   0  0  0  0  0  0  0  0  0  0  0  0
   22.5457  -20.2801  -11.7521 O   0  0  0  0  0  0  0  0  0  0  0  0
  2  1  1  1
  2  3  1  0
  4  3  1  0
  5  4  1  0
  6  5  1  0
  7  6  1  0
  8  2  1  0
  8  9  2  0
 10 11  1  0
 11 21  2  0
 11 12  1  0
 12 13  2  0
 13 14  1  0
 14 15  1  0
 16 15  1  6
 16 17  1  0
 17  8  1  0
 18 16  1  0
 19 18  2  0
 20 14  2  0
 21 20  1  0
 23 22  1  0
 23 24  2  0
 25 24  1  0
 26 25  2  0
 27 26  1  0
 28 27  1  1
 28 29  1  0
 28 30  1  0
 29 18  1  0
 30 34  2  0
 30 31  1  0
 32 33  2  0
 32 26  1  0
 33 23  1  0
M  END
$$$$
