KYY.pdb
     RDKit          3D

 34 35  0  0  1  0  0  0  0  0999 V2000
   24.6205  -21.1829  -21.4592 N   0  0  0  0  0  0  0  0  0  0  0  0
   25.2259  -21.0934  -20.1626 C   0  0  1  0  0  0  0  0  0  0  0  0
   25.2120  -19.6587  -19.6185 C   0  0  0  0  0  0  0  0  0  0  0  0
   26.3765  -18.9508  -20.2384 C   0  0  0  0  0  0  0  0  0  0  0  0
   25.9594  -17.6401  -20.8799 C   0  0  0  0  0  0  0  0  0  0  0  0
   27.1779  -17.0445  -21.5617 C   0  0  0  0  0  0  0  0  0  0  0  0
   26.7352  -15.8427  -22.2522 N   0  0  0  0  0  0  0  0  0  0  0  0
   24.4759  -21.8942  -19.1722 C   0  0  0  0  0  0  0  0  0  0  0  0
   23.2444  -21.7159  -19.0540 O   0  0  0  0  0  0  0  0  0  0  0  0
   21.7283  -27.4997  -13.1195 O   0  0  0  0  0  0  0  0  0  0  0  0
   22.4874  -26.8686  -14.0964 C   0  0  0  0  0  0  0  0  0  0  0  0
   22.1848  -26.9298  -15.4376 C   0  0  0  0  0  0  0  0  0  0  0  0
   22.9375  -26.3034  -16.4204 C   0  0  0  0  0  0  0  0  0  0  0  0
   24.0373  -25.5913  -16.0063 C   0  0  0  0  0  0  0  0  0  0  0  0
   24.8823  -24.8996  -17.0059 C   0  0  0  0  0  0  0  0  0  0  0  0
   24.3203  -23.5554  -17.3715 C   0  0  2  0  0  0  0  0  0  0  0  0
   25.1005  -22.8593  -18.3463 N   0  0  0  0  0  0  0  0  0  0  0  0
   24.2041  -22.7476  -16.1283 C   0  0  0  0  0  0  0  0  0  0  0  0
   25.2571  -22.2294  -15.6728 O   0  0  0  0  0  0  0  0  0  0  0  0
   24.3810  -25.4999  -14.6797 C   0  0  0  0  0  0  0  0  0  0  0  0
   23.5999  -26.1418  -13.7350 C   0  0  0  0  0  0  0  0  0  0  0  0
   19.1935  -18.1160  -18.1596 O   0  0  0  0  0  0  0  0  0  0  0  0
   20.1881  -18.6242  -17.3082 C   0  0  0  0  0  0  0  0  0  0  0  0
   21.3358  -19.1904  -17.8305 C   0  0  0  0  0  0  0  0  0  0  0  0
   22.3227  -19.6944  -17.0135 C   0  0  0  0  0  0  0  0  0  0  0  0
   22.2065  -19.6554  -15.6154 C   0  0  0  0  0  0  0  0  0  0  0  0
   23.2756  -20.2231  -14.7796 C   0  0  0  0  0  0  0  0  0  0  0  0
   22.9489  -21.6287  -14.3238 C   0  0  2  0  0  0  0  0  0  0  0  0
   22.9754  -22.5450  -15.4551 N   0  0  0  0  0  0  0  0  0  0  0  0
   21.6037  -21.7180  -13.7198 C   0  0  0  0  0  0  0  0  0  0  0  0
   20.6726  -22.5666  -14.2849 O   0  0  0  0  0  0  0  0  0  0  0  0
   21.0500  -19.0842  -15.1291 C   0  0  0  0  0  0  0  0  0  0  0  0
   20.0645  -18.5806  -15.9470 C   0  0  0  0  0  0  0  0  0  0  0  0
   21.3071  -21.0479  -12.7277 O   0  0  0  0  0  0  0  0  0  0  0  0
  2  1  1  6
  2  3  1  0
  4  3  1  0
  5  4  1  0
  6  5  1  0
  7  6  1  0
  8  2  1  0
  8  9  2  0
 10 11  1  0
 11 21  2  0
 11 12  1  0
 12 13  2  0
 13 14  1  0
 14 15  1  0
 16 15  1  1
 16 17  1  0
 17  8  1  0
 18 16  1  0
 19 18  2  0
 20 14  2  0
 21 20  1  0
 23 22  1  0
 23 24  2  0
 25 24  1  0
 26 25  2  0
 27 26  1  0
 28 27  1  6
 28 29  1  0
 28 30  1  0
 29 18  1  0
 30 34  2  0
 30 31  1  0
 32 33  2  0
 32 26  1  0
 33 23  1  0
M  END
$$$$
