KYY.pdb
     RDKit          3D

 34 35  0  0  1  0  0  0  0  0999 V2000
   25.6652  -13.5736  -20.2671 N   0  0  0  0  0  0  0  0  0  0  0  0
   26.0183  -12.4835  -19.4054 C   0  0  1  0  0  0  0  0  0  0  0  0
   26.1112  -11.1544  -20.1666 C   0  0  0  0  0  0  0  0  0  0  0  0
   26.9626  -11.4061  -21.3721 C   0  0  0  0  0  0  0  0  0  0  0  0
   27.1887  -10.1375  -22.1739 C   0  0  0  0  0  0  0  0  0  0  0  0
   28.0247  -10.4952  -23.3893 C   0  0  0  0  0  0  0  0  0  0  0  0
   28.2375   -9.2655  -24.1374 N   0  0  0  0  0  0  0  0  0  0  0  0
   24.9840  -12.2701  -18.3713 C   0  0  0  0  0  0  0  0  0  0  0  0
   23.7911  -12.5256  -18.6435 O   0  0  0  0  0  0  0  0  0  0  0  0
   24.9449  -18.0046  -15.7908 O   0  0  0  0  0  0  0  0  0  0  0  0
   24.8225  -16.6419  -15.5522 C   0  0  0  0  0  0  0  0  0  0  0  0
   23.6188  -16.0334  -15.2787 C   0  0  0  0  0  0  0  0  0  0  0  0
   23.4868  -14.6731  -15.0398 C   0  0  0  0  0  0  0  0  0  0  0  0
   24.6331  -13.9168  -15.0846 C   0  0  0  0  0  0  0  0  0  0  0  0
   24.5601  -12.4587  -14.8385 C   0  0  0  0  0  0  0  0  0  0  0  0
   24.2549  -11.6989  -16.0979 C   0  0  2  0  0  0  0  0  0  0  0  0
   25.2919  -11.7837  -17.0782 N   0  0  0  0  0  0  0  0  0  0  0  0
   24.0018  -10.2795  -15.7334 C   0  0  0  0  0  0  0  0  0  0  0  0
   24.8688   -9.4309  -16.0694 O   0  0  0  0  0  0  0  0  0  0  0  0
   25.8581  -14.4769  -15.3530 C   0  0  0  0  0  0  0  0  0  0  0  0
   25.9406  -15.8386  -15.5850 C   0  0  0  0  0  0  0  0  0  0  0  0
   21.3175   -2.2016  -15.8343 O   0  0  0  0  0  0  0  0  0  0  0  0
   21.6016   -3.5737  -15.9296 C   0  0  0  0  0  0  0  0  0  0  0  0
   22.9023   -4.0293  -15.8250 C   0  0  0  0  0  0  0  0  0  0  0  0
   23.2022   -5.3699  -15.9157 C   0  0  0  0  0  0  0  0  0  0  0  0
   22.2007   -6.3320  -16.1185 C   0  0  0  0  0  0  0  0  0  0  0  0
   22.5670   -7.7524  -16.2295 C   0  0  0  0  0  0  0  0  0  0  0  0
   22.6112   -8.4308  -14.8776 C   0  0  2  0  0  0  0  0  0  0  0  0
   22.8429   -9.8594  -15.0373 N   0  0  0  0  0  0  0  0  0  0  0  0
   21.3436   -8.2734  -14.1356 C   0  0  0  0  0  0  0  0  0  0  0  0
   21.1715   -7.1616  -13.3351 O   0  0  0  0  0  0  0  0  0  0  0  0
   20.9158   -5.8429  -16.2183 C   0  0  0  0  0  0  0  0  0  0  0  0
   20.6175   -4.5026  -16.1271 C   0  0  0  0  0  0  0  0  0  0  0  0
   20.4480   -9.1171  -14.2219 O   0  0  0  0  0  0  0  0  0  0  0  0
  2  1  1  6
  2  3  1  0
  4  3  1  0
  5  4  1  0
  6  5  1  0
  7  6  1  0
  8  2  1  0
  8  9  2  0
 10 11  1  0
 11 21  2  0
 11 12  1  0
 12 13  2  0
 13 14  1  0
 14 15  1  0
 16 15  1  1
 16 17  1  0
 17  8  1  0
 18 16  1  0
 19 18  2  0
 20 14  2  0
 21 20  1  0
 23 22  1  0
 23 24  2  0
 25 24  1  0
 26 25  2  0
 27 26  1  0
 28 27  1  6
 28 29  1  0
 28 30  1  0
 29 18  1  0
 30 34  2  0
 30 31  1  0
 32 33  2  0
 32 26  1  0
 33 23  1  0
M  END
$$$$
