KYY.pdb
     RDKit          3D

 34 35  0  0  1  0  0  0  0  0999 V2000
   25.7293   -8.1418  -25.5291 N   0  0  0  0  0  0  0  0  0  0  0  0
   26.2961   -8.7483  -24.3600 C   0  0  1  0  0  0  0  0  0  0  0  0
   25.6880   -8.1871  -23.0679 C   0  0  0  0  0  0  0  0  0  0  0  0
   26.1602   -6.7714  -22.9479 C   0  0  0  0  0  0  0  0  0  0  0  0
   25.7224   -6.1431  -21.6376 C   0  0  0  0  0  0  0  0  0  0  0  0
   26.1608   -4.6899  -21.6463 C   0  0  0  0  0  0  0  0  0  0  0  0
   25.5678   -4.0586  -20.4772 N   0  0  0  0  0  0  0  0  0  0  0  0
   26.0140  -10.1988  -24.3270 C   0  0  0  0  0  0  0  0  0  0  0  0
   24.9168  -10.6142  -24.7583 O   0  0  0  0  0  0  0  0  0  0  0  0
   26.3582  -18.8578  -24.3530 O   0  0  0  0  0  0  0  0  0  0  0  0
   26.7219  -17.5195  -24.2789 C   0  0  0  0  0  0  0  0  0  0  0  0
   27.1952  -16.9335  -23.1271 C   0  0  0  0  0  0  0  0  0  0  0  0
   27.5602  -15.5975  -23.0433 C   0  0  0  0  0  0  0  0  0  0  0  0
   27.4328  -14.8424  -24.1842 C   0  0  0  0  0  0  0  0  0  0  0  0
   27.8055  -13.4098  -24.1611 C   0  0  0  0  0  0  0  0  0  0  0  0
   26.6202  -12.5336  -23.8714 C   0  0  2  0  0  0  0  0  0  0  0  0
   26.9413  -11.1414  -23.8219 N   0  0  0  0  0  0  0  0  0  0  0  0
   26.0224  -12.9733  -22.5826 C   0  0  0  0  0  0  0  0  0  0  0  0
   26.5480  -12.5432  -21.5227 O   0  0  0  0  0  0  0  0  0  0  0  0
   26.9658  -15.3807  -25.3583 C   0  0  0  0  0  0  0  0  0  0  0  0
   26.6138  -16.7184  -25.3938 C   0  0  0  0  0  0  0  0  0  0  0  0
   18.3604  -15.7831  -22.7516 O   0  0  0  0  0  0  0  0  0  0  0  0
   19.5355  -15.1808  -22.2735 C   0  0  0  0  0  0  0  0  0  0  0  0
   20.2498  -14.3065  -23.0710 C   0  0  0  0  0  0  0  0  0  0  0  0
   21.4040  -13.7056  -22.6215 C   0  0  0  0  0  0  0  0  0  0  0  0
   21.9058  -13.9546  -21.3347 C   0  0  0  0  0  0  0  0  0  0  0  0
   23.1534  -13.3069  -20.9014 C   0  0  0  0  0  0  0  0  0  0  0  0
   24.3656  -14.1636  -21.1963 C   0  0  2  0  0  0  0  0  0  0  0  0
   24.9051  -13.8395  -22.5093 N   0  0  0  0  0  0  0  0  0  0  0  0
   24.0395  -15.6043  -21.2007 C   0  0  0  0  0  0  0  0  0  0  0  0
   23.7880  -16.2363  -19.9991 O   0  0  0  0  0  0  0  0  0  0  0  0
   21.1690  -14.8310  -20.5669 C   0  0  0  0  0  0  0  0  0  0  0  0
   20.0152  -15.4306  -21.0174 C   0  0  0  0  0  0  0  0  0  0  0  0
   23.9918  -16.2416  -22.2557 O   0  0  0  0  0  0  0  0  0  0  0  0
  2  1  1  6
  2  3  1  0
  4  3  1  0
  5  4  1  0
  6  5  1  0
  7  6  1  0
  8  2  1  0
  8  9  2  0
 10 11  1  0
 11 21  2  0
 11 12  1  0
 12 13  2  0
 13 14  1  0
 14 15  1  0
 16 15  1  1
 16 17  1  0
 17  8  1  0
 18 16  1  0
 19 18  2  0
 20 14  2  0
 21 20  1  0
 23 22  1  0
 23 24  2  0
 25 24  1  0
 26 25  2  0
 27 26  1  0
 28 27  1  6
 28 29  1  0
 28 30  1  0
 29 18  1  0
 30 34  2  0
 30 31  1  0
 32 33  2  0
 32 26  1  0
 33 23  1  0
M  END
$$$$
