KYY.pdb
     RDKit          3D

 34 35  0  0  1  0  0  0  0  0999 V2000
   28.9413  -22.6337  -18.1982 N   0  0  0  0  0  0  0  0  0  0  0  0
   28.5658  -21.3222  -17.7571 C   0  0  1  0  0  0  0  0  0  0  0  0
   27.6500  -20.6158  -18.7654 C   0  0  0  0  0  0  0  0  0  0  0  0
   28.5427  -19.9385  -19.7584 C   0  0  0  0  0  0  0  0  0  0  0  0
   28.3950  -20.5370  -21.1452 C   0  0  0  0  0  0  0  0  0  0  0  0
   29.3174  -19.7788  -22.0825 C   0  0  0  0  0  0  0  0  0  0  0  0
   29.2282  -20.4247  -23.3833 N   0  0  0  0  0  0  0  0  0  0  0  0
   27.7875  -21.3888  -16.5023 C   0  0  0  0  0  0  0  0  0  0  0  0
   26.7831  -22.1310  -16.4491 O   0  0  0  0  0  0  0  0  0  0  0  0
   24.6428  -20.5590   -8.4185 O   0  0  0  0  0  0  0  0  0  0  0  0
   25.4606  -20.4721   -9.5376 C   0  0  0  0  0  0  0  0  0  0  0  0
   26.1538  -21.5470  -10.0454 C   0  0  0  0  0  0  0  0  0  0  0  0
   26.9735  -21.4696  -11.1622 C   0  0  0  0  0  0  0  0  0  0  0  0
   27.0811  -20.2442  -11.7744 C   0  0  0  0  0  0  0  0  0  0  0  0
   27.9401  -20.0948  -12.9709 C   0  0  0  0  0  0  0  0  0  0  0  0
   27.3292  -20.7497  -14.1768 C   0  0  2  0  0  0  0  0  0  0  0  0
   28.1352  -20.6402  -15.3525 N   0  0  0  0  0  0  0  0  0  0  0  0
   25.9919  -20.1413  -14.4074 C   0  0  0  0  0  0  0  0  0  0  0  0
   25.9486  -18.9030  -14.6297 O   0  0  0  0  0  0  0  0  0  0  0  0
   26.4094  -19.1414  -11.3063 C   0  0  0  0  0  0  0  0  0  0  0  0
   25.6032  -19.2670  -10.1888 C   0  0  0  0  0  0  0  0  0  0  0  0
   24.9402  -16.6172  -19.3451 O   0  0  0  0  0  0  0  0  0  0  0  0
   24.4067  -17.5173  -18.4083 C   0  0  0  0  0  0  0  0  0  0  0  0
   23.4611  -17.0970  -17.4919 C   0  0  0  0  0  0  0  0  0  0  0  0
   22.9257  -17.9631  -16.5652 C   0  0  0  0  0  0  0  0  0  0  0  0
   23.3167  -19.3099  -16.5105 C   0  0  0  0  0  0  0  0  0  0  0  0
   22.7342  -20.1966  -15.4915 C   0  0  0  0  0  0  0  0  0  0  0  0
   23.5339  -20.1814  -14.2069 C   0  0  2  0  0  0  0  0  0  0  0  0
   24.7920  -20.8921  -14.3872 N   0  0  0  0  0  0  0  0  0  0  0  0
   22.8146  -20.8400  -13.0973 C   0  0  0  0  0  0  0  0  0  0  0  0
   23.3074  -22.0270  -12.5927 O   0  0  0  0  0  0  0  0  0  0  0  0
   24.2609  -19.6947  -17.4383 C   0  0  0  0  0  0  0  0  0  0  0  0
   24.7949  -18.8278  -18.3642 C   0  0  0  0  0  0  0  0  0  0  0  0
   21.7884  -20.3460  -12.6237 O   0  0  0  0  0  0  0  0  0  0  0  0
  2  1  1  6
  2  3  1  0
  4  3  1  0
  5  4  1  0
  6  5  1  0
  7  6  1  0
  8  2  1  0
  8  9  2  0
 10 11  1  0
 11 21  2  0
 11 12  1  0
 12 13  2  0
 13 14  1  0
 14 15  1  0
 16 15  1  1
 16 17  1  0
 17  8  1  0
 18 16  1  0
 19 18  2  0
 20 14  2  0
 21 20  1  0
 23 22  1  0
 23 24  2  0
 25 24  1  0
 26 25  2  0
 27 26  1  0
 28 27  1  6
 28 29  1  0
 28 30  1  0
 29 18  1  0
 30 34  2  0
 30 31  1  0
 32 33  2  0
 32 26  1  0
 33 23  1  0
M  END
$$$$
