KYY.pdb
     RDKit          3D

 34 35  0  0  1  0  0  0  0  0999 V2000
   30.1085  -29.7692  -20.0989 N   0  0  0  0  0  0  0  0  0  0  0  0
   29.4999  -29.0514  -19.0172 C   0  0  1  0  0  0  0  0  0  0  0  0
   29.4882  -27.5372  -19.2654 C   0  0  0  0  0  0  0  0  0  0  0  0
   30.7937  -27.0068  -18.7596 C   0  0  0  0  0  0  0  0  0  0  0  0
   31.9683  -27.5768  -19.5334 C   0  0  0  0  0  0  0  0  0  0  0  0
   33.2354  -26.9308  -19.0030 C   0  0  0  0  0  0  0  0  0  0  0  0
   34.3473  -27.4926  -19.7548 N   0  0  0  0  0  0  0  0  0  0  0  0
   28.0805  -29.4329  -18.8614 C   0  0  0  0  0  0  0  0  0  0  0  0
   27.3075  -29.3083  -19.8357 O   0  0  0  0  0  0  0  0  0  0  0  0
   27.1729  -34.3973  -22.4553 O   0  0  0  0  0  0  0  0  0  0  0  0
   26.9386  -33.7961  -21.2254 C   0  0  0  0  0  0  0  0  0  0  0  0
   27.8088  -33.8957  -20.1639 C   0  0  0  0  0  0  0  0  0  0  0  0
   27.5828  -33.2992  -18.9317 C   0  0  0  0  0  0  0  0  0  0  0  0
   26.4224  -32.5771  -18.7906 C   0  0  0  0  0  0  0  0  0  0  0  0
   26.1221  -31.9160  -17.5004 C   0  0  0  0  0  0  0  0  0  0  0  0
   26.2141  -30.4206  -17.6094 C   0  0  2  0  0  0  0  0  0  0  0  0
   27.5582  -29.9350  -17.6454 N   0  0  0  0  0  0  0  0  0  0  0  0
   25.4792  -29.8258  -16.4614 C   0  0  0  0  0  0  0  0  0  0  0  0
   26.0702  -29.7898  -15.3505 O   0  0  0  0  0  0  0  0  0  0  0  0
   25.5224  -32.4477  -19.8199 C   0  0  0  0  0  0  0  0  0  0  0  0
   25.7906  -33.0607  -21.0311 C   0  0  0  0  0  0  0  0  0  0  0  0
   27.2828  -23.6034  -16.9185 O   0  0  0  0  0  0  0  0  0  0  0  0
   26.2463  -24.5029  -16.6202 C   0  0  0  0  0  0  0  0  0  0  0  0
   25.7836  -25.3829  -17.5805 C   0  0  0  0  0  0  0  0  0  0  0  0
   24.7686  -26.2724  -17.3087 C   0  0  0  0  0  0  0  0  0  0  0  0
   24.1595  -26.3244  -16.0453 C   0  0  0  0  0  0  0  0  0  0  0  0
   23.0646  -27.2765  -15.8033 C   0  0  0  0  0  0  0  0  0  0  0  0
   23.5823  -28.6450  -15.4169 C   0  0  2  0  0  0  0  0  0  0  0  0
   24.1663  -29.3088  -16.5739 N   0  0  0  0  0  0  0  0  0  0  0  0
   22.5082  -29.5210  -14.9059 C   0  0  0  0  0  0  0  0  0  0  0  0
   21.9548  -29.2487  -13.6705 O   0  0  0  0  0  0  0  0  0  0  0  0
   24.6453  -25.4335  -15.1123 C   0  0  0  0  0  0  0  0  0  0  0  0
   25.6601  -24.5451  -15.3854 C   0  0  0  0  0  0  0  0  0  0  0  0
   22.1067  -30.4838  -15.5640 O   0  0  0  0  0  0  0  0  0  0  0  0
  2  1  1  6
  2  3  1  0
  4  3  1  0
  5  4  1  0
  6  5  1  0
  7  6  1  0
  8  2  1  0
  8  9  2  0
 10 11  1  0
 11 21  2  0
 11 12  1  0
 12 13  2  0
 13 14  1  0
 14 15  1  0
 16 15  1  1
 16 17  1  0
 17  8  1  0
 18 16  1  0
 19 18  2  0
 20 14  2  0
 21 20  1  0
 23 22  1  0
 23 24  2  0
 25 24  1  0
 26 25  2  0
 27 26  1  0
 28 27  1  6
 28 29  1  0
 28 30  1  0
 29 18  1  0
 30 34  2  0
 30 31  1  0
 32 33  2  0
 32 26  1  0
 33 23  1  0
M  END
$$$$
