KYY.pdb
     RDKit          3D

 34 35  0  0  1  0  0  0  0  0999 V2000
   27.9364  -21.5544  -18.8037 N   0  0  0  0  0  0  0  0  0  0  0  0
   27.5814  -22.4206  -17.7177 C   0  0  1  0  0  0  0  0  0  0  0  0
   28.5585  -23.5950  -17.5748 C   0  0  0  0  0  0  0  0  0  0  0  0
   27.9111  -24.7770  -18.2272 C   0  0  0  0  0  0  0  0  0  0  0  0
   26.8298  -25.3798  -17.3492 C   0  0  0  0  0  0  0  0  0  0  0  0
   26.2893  -26.6116  -18.0525 C   0  0  0  0  0  0  0  0  0  0  0  0
   25.2496  -27.1676  -17.1998 N   0  0  0  0  0  0  0  0  0  0  0  0
   27.6417  -21.7028  -16.4271 C   0  0  0  0  0  0  0  0  0  0  0  0
   28.7488  -21.5527  -15.8666 O   0  0  0  0  0  0  0  0  0  0  0  0
   29.2483  -16.3709  -18.7058 O   0  0  0  0  0  0  0  0  0  0  0  0
   28.5314  -17.0145  -17.7054 C   0  0  0  0  0  0  0  0  0  0  0  0
   29.0644  -17.3083  -16.4711 C   0  0  0  0  0  0  0  0  0  0  0  0
   28.3563  -17.9515  -15.4661 C   0  0  0  0  0  0  0  0  0  0  0  0
   27.0572  -18.3025  -15.7436 C   0  0  0  0  0  0  0  0  0  0  0  0
   26.2474  -18.9916  -14.7134 C   0  0  0  0  0  0  0  0  0  0  0  0
   26.6329  -20.4374  -14.5812 C   0  0  2  0  0  0  0  0  0  0  0  0
   26.4889  -21.1773  -15.7960 N   0  0  0  0  0  0  0  0  0  0  0  0
   25.8031  -21.0420  -13.5053 C   0  0  0  0  0  0  0  0  0  0  0  0
   24.7249  -21.5953  -13.8460 O   0  0  0  0  0  0  0  0  0  0  0  0
   26.4797  -18.0312  -16.9598 C   0  0  0  0  0  0  0  0  0  0  0  0
   27.2253  -17.3877  -17.9318 C   0  0  0  0  0  0  0  0  0  0  0  0
   26.9773  -17.7076   -6.4510 O   0  0  0  0  0  0  0  0  0  0  0  0
   26.7548  -18.8008   -7.3041 C   0  0  0  0  0  0  0  0  0  0  0  0
   27.7242  -19.1938   -8.2075 C   0  0  0  0  0  0  0  0  0  0  0  0
   27.5260  -20.2624   -9.0527 C   0  0  0  0  0  0  0  0  0  0  0  0
   26.3314  -20.9988   -9.0339 C   0  0  0  0  0  0  0  0  0  0  0  0
   26.1529  -22.1212   -9.9679 C   0  0  0  0  0  0  0  0  0  0  0  0
   25.3398  -21.7224  -11.1802 C   0  0  2  0  0  0  0  0  0  0  0  0
   26.1777  -21.0180  -12.1403 N   0  0  0  0  0  0  0  0  0  0  0  0
   24.2243  -20.8201  -10.8282 C   0  0  0  0  0  0  0  0  0  0  0  0
   23.0648  -21.3617  -10.3098 O   0  0  0  0  0  0  0  0  0  0  0  0
   25.3870  -20.5797   -8.1213 C   0  0  0  0  0  0  0  0  0  0  0  0
   25.5867  -19.5115   -7.2770 C   0  0  0  0  0  0  0  0  0  0  0  0
   24.3170  -19.6012  -10.9929 O   0  0  0  0  0  0  0  0  0  0  0  0
  2  1  1  6
  2  3  1  0
  4  3  1  0
  5  4  1  0
  6  5  1  0
  7  6  1  0
  8  2  1  0
  8  9  2  0
 10 11  1  0
 11 21  2  0
 11 12  1  0
 12 13  2  0
 13 14  1  0
 14 15  1  0
 16 15  1  6
 16 17  1  0
 17  8  1  0
 18 16  1  0
 19 18  2  0
 20 14  2  0
 21 20  1  0
 23 22  1  0
 23 24  2  0
 25 24  1  0
 26 25  2  0
 27 26  1  0
 28 27  1  1
 28 29  1  0
 28 30  1  0
 29 18  1  0
 30 34  2  0
 30 31  1  0
 32 33  2  0
 32 26  1  0
 33 23  1  0
M  END
$$$$
