YGI.pdb
     RDKit          3D

 25 25  0  0  1  0  0  0  0  0999 V2000
   22.2134  -19.6001  -18.2820 O   0  0  0  0  0  0  0  0  0  0  0  0
   22.2855  -19.7022  -16.8955 C   0  0  0  0  0  0  0  0  0  0  0  0
   22.7054  -18.6218  -16.1495 C   0  0  0  0  0  0  0  0  0  0  0  0
   22.7826  -18.7086  -14.7630 C   0  0  0  0  0  0  0  0  0  0  0  0
   22.4460  -19.8634  -14.0990 C   0  0  0  0  0  0  0  0  0  0  0  0
   22.5199  -19.9807  -12.6222 C   0  0  0  0  0  0  0  0  0  0  0  0
   23.9132  -20.4532  -12.2723 C   0  0  2  0  0  0  0  0  0  0  0  0
   24.0046  -21.8413  -12.6739 N   0  0  0  0  0  0  0  0  0  0  0  0
   24.2026  -20.3543  -10.8366 C   0  0  0  0  0  0  0  0  0  0  0  0
   23.6583  -21.1496  -10.0371 O   0  0  0  0  0  0  0  0  0  0  0  0
   22.0282  -20.9388  -14.8395 C   0  0  0  0  0  0  0  0  0  0  0  0
   21.9475  -20.8607  -16.2335 C   0  0  0  0  0  0  0  0  0  0  0  0
   25.0911  -19.3796  -10.2836 N   0  0  0  0  0  0  0  0  0  0  0  0
   25.2638  -19.1812   -8.8864 C   0  0  0  0  0  0  0  0  0  0  0  0
   26.4839  -19.7272   -8.2947 C   0  0  0  0  0  0  0  0  0  0  0  0
   27.2784  -20.4546   -8.9965 O   0  0  0  0  0  0  0  0  0  0  0  0
   28.6771  -17.1206   -4.2823 C   0  0  0  0  0  0  0  0  0  0  0  0
   29.0202  -17.9168   -5.5339 C   0  0  0  0  0  0  0  0  0  0  0  0
   28.6960  -19.3481   -5.2592 C   0  0  2  0  0  0  0  0  0  0  0  0
   29.9383  -20.0186   -4.7107 C   0  0  0  0  0  0  0  0  0  0  0  0
   28.1715  -20.0913   -6.4538 C   0  0  2  0  0  0  0  0  0  0  0  0
   26.9369  -19.5489   -6.9613 N   0  0  0  0  0  0  0  0  0  0  0  0
   27.9247  -21.5061   -6.0851 C   0  0  0  0  0  0  0  0  0  0  0  0
   26.6673  -22.0678   -5.9449 O   0  0  0  0  0  0  0  0  0  0  0  0
   28.9204  -22.2431   -5.8869 O   0  0  0  0  0  0  0  0  0  0  0  0
  2 12  2  0
  2  1  1  0
  3  2  1  0
  4  5  1  0
  4  3  2  0
  5 11  2  0
  6  5  1  0
  7  9  1  0
  7  6  1  0
  7  8  1  1
  9 10  2  0
 11 12  1  0
 13 14  1  0
 13  9  1  0
 15 22  1  0
 15 14  1  0
 16 15  2  0
 18 17  1  0
 19 20  1  6
 19 18  1  0
 21 22  1  1
 21 19  1  0
 23 21  1  0
 24 23  1  0
 25 23  2  0
M  END
$$$$
