YGI.pdb
     RDKit          3D

 25 25  0  0  1  0  0  0  0  0999 V2000
   18.3720  -21.1281  -17.6847 O   0  0  0  0  0  0  0  0  0  0  0  0
   19.4044  -20.7935  -16.8128 C   0  0  0  0  0  0  0  0  0  0  0  0
   19.8962  -19.5059  -16.7949 C   0  0  0  0  0  0  0  0  0  0  0  0
   20.9278  -19.1563  -15.9292 C   0  0  0  0  0  0  0  0  0  0  0  0
   21.4843  -20.0748  -15.0722 C   0  0  0  0  0  0  0  0  0  0  0  0
   22.5844  -19.7267  -14.1402 C   0  0  0  0  0  0  0  0  0  0  0  0
   23.8690  -19.7107  -14.9380 C   0  0  2  0  0  0  0  0  0  0  0  0
   23.9197  -20.9489  -15.6869 N   0  0  0  0  0  0  0  0  0  0  0  0
   25.0635  -19.6198  -14.0896 C   0  0  0  0  0  0  0  0  0  0  0  0
   25.2447  -18.6046  -13.3790 O   0  0  0  0  0  0  0  0  0  0  0  0
   20.9963  -21.3557  -15.0888 C   0  0  0  0  0  0  0  0  0  0  0  0
   19.9596  -21.7162  -15.9556 C   0  0  0  0  0  0  0  0  0  0  0  0
   26.0564  -20.6469  -14.0249 N   0  0  0  0  0  0  0  0  0  0  0  0
   27.2230  -20.5581  -13.2171 C   0  0  0  0  0  0  0  0  0  0  0  0
   27.0912  -20.9953  -11.8285 C   0  0  0  0  0  0  0  0  0  0  0  0
   26.8605  -22.2299  -11.5540 O   0  0  0  0  0  0  0  0  0  0  0  0
   28.5417  -20.7788   -6.4523 C   0  0  0  0  0  0  0  0  0  0  0  0
   27.1911  -20.2203   -6.8790 C   0  0  0  0  0  0  0  0  0  0  0  0
   27.3418  -19.6901   -8.2666 C   0  0  2  0  0  0  0  0  0  0  0  0
   26.5647  -18.3939   -8.3657 C   0  0  0  0  0  0  0  0  0  0  0  0
   26.9111  -20.6538   -9.3344 C   0  0  2  0  0  0  0  0  0  0  0  0
   27.1908  -20.1844  -10.6676 N   0  0  0  0  0  0  0  0  0  0  0  0
   25.4493  -20.8805   -9.2335 C   0  0  0  0  0  0  0  0  0  0  0  0
   24.8574  -21.7791   -8.3628 O   0  0  0  0  0  0  0  0  0  0  0  0
   24.6988  -20.2144   -9.9865 O   0  0  0  0  0  0  0  0  0  0  0  0
  2 12  2  0
  2  1  1  0
  3  2  1  0
  4  5  1  0
  4  3  2  0
  5 11  2  0
  6  5  1  0
  7  9  1  0
  7  6  1  0
  7  8  1  1
  9 10  2  0
 11 12  1  0
 13 14  1  0
 13  9  1  0
 15 22  1  0
 15 14  1  0
 16 15  2  0
 18 17  1  0
 19 20  1  1
 19 18  1  0
 21 22  1  6
 21 19  1  0
 23 21  1  0
 24 23  1  0
 25 23  2  0
M  END
$$$$
