YGI.pdb
     RDKit          3D

 25 25  0  0  1  0  0  0  0  0999 V2000
   23.2152  -25.2878  -16.6462 O   0  0  0  0  0  0  0  0  0  0  0  0
   23.5915  -24.2291  -15.8243 C   0  0  0  0  0  0  0  0  0  0  0  0
   24.7045  -24.3480  -15.0197 C   0  0  0  0  0  0  0  0  0  0  0  0
   25.0931  -23.2986  -14.1929 C   0  0  0  0  0  0  0  0  0  0  0  0
   24.3865  -22.1210  -14.1521 C   0  0  0  0  0  0  0  0  0  0  0  0
   24.7805  -20.9882  -13.2794 C   0  0  0  0  0  0  0  0  0  0  0  0
   24.6564  -21.4535  -11.8458 C   0  0  2  0  0  0  0  0  0  0  0  0
   23.2564  -21.7382  -11.6110 N   0  0  0  0  0  0  0  0  0  0  0  0
   25.1039  -20.4427  -10.8799 C   0  0  0  0  0  0  0  0  0  0  0  0
   24.7101  -19.2593  -10.9921 O   0  0  0  0  0  0  0  0  0  0  0  0
   23.2794  -22.0012  -14.9516 C   0  0  0  0  0  0  0  0  0  0  0  0
   22.8813  -23.0507  -15.7859 C   0  0  0  0  0  0  0  0  0  0  0  0
   25.9843  -20.7368   -9.7919 N   0  0  0  0  0  0  0  0  0  0  0  0
   26.4379  -19.7583   -8.8657 C   0  0  0  0  0  0  0  0  0  0  0  0
   27.3107  -20.2297   -7.7919 C   0  0  0  0  0  0  0  0  0  0  0  0
   27.4726  -21.4892   -7.5905 O   0  0  0  0  0  0  0  0  0  0  0  0
   31.1737  -19.9987   -5.6078 C   0  0  0  0  0  0  0  0  0  0  0  0
   30.5414  -18.6248   -5.4325 C   0  0  0  0  0  0  0  0  0  0  0  0
   29.2032  -18.8231   -4.8006 C   0  0  2  0  0  0  0  0  0  0  0  0
   29.4163  -19.2442   -3.3616 C   0  0  0  0  0  0  0  0  0  0  0  0
   28.3318  -19.8101   -5.5224 C   0  0  2  0  0  0  0  0  0  0  0  0
   28.0512  -19.4291   -6.8833 N   0  0  0  0  0  0  0  0  0  0  0  0
   27.0360  -19.9352   -4.8128 C   0  0  0  0  0  0  0  0  0  0  0  0
   26.7407  -20.9306   -3.8974 O   0  0  0  0  0  0  0  0  0  0  0  0
   26.1483  -19.0831   -5.0575 O   0  0  0  0  0  0  0  0  0  0  0  0
  2 12  2  0
  2  1  1  0
  3  2  1  0
  4  5  1  0
  4  3  2  0
  5 11  2  0
  6  5  1  0
  7  9  1  0
  7  6  1  0
  7  8  1  1
  9 10  2  0
 11 12  1  0
 13 14  1  0
 13  9  1  0
 15 22  1  0
 15 14  1  0
 16 15  2  0
 18 17  1  0
 19 20  1  1
 19 18  1  0
 21 22  1  6
 21 19  1  0
 23 21  1  0
 24 23  1  0
 25 23  2  0
M  END
$$$$
