YGI.pdb
     RDKit          3D

 25 25  0  0  1  0  0  0  0  0999 V2000
   24.9954  -12.7044  -17.5600 O   0  0  0  0  0  0  0  0  0  0  0  0
   25.4471  -13.8261  -16.8704 C   0  0  0  0  0  0  0  0  0  0  0  0
   25.9985  -14.8816  -17.5647 C   0  0  0  0  0  0  0  0  0  0  0  0
   26.4544  -16.0095  -16.8895 C   0  0  0  0  0  0  0  0  0  0  0  0
   26.3704  -16.1066  -15.5216 C   0  0  0  0  0  0  0  0  0  0  0  0
   26.8492  -17.2980  -14.7791 C   0  0  0  0  0  0  0  0  0  0  0  0
   26.0948  -18.4973  -15.3077 C   0  0  2  0  0  0  0  0  0  0  0  0
   24.7108  -18.3363  -14.9139 N   0  0  0  0  0  0  0  0  0  0  0  0
   26.5971  -19.7670  -14.7687 C   0  0  0  0  0  0  0  0  0  0  0  0
   27.8057  -20.0648  -14.9054 O   0  0  0  0  0  0  0  0  0  0  0  0
   25.8222  -15.0578  -14.8296 C   0  0  0  0  0  0  0  0  0  0  0  0
   25.3614  -13.9201  -15.4999 C   0  0  0  0  0  0  0  0  0  0  0  0
   25.7676  -20.7067  -14.0801 N   0  0  0  0  0  0  0  0  0  0  0  0
   26.2592  -21.9101  -13.5046 C   0  0  0  0  0  0  0  0  0  0  0  0
   26.2385  -21.9928  -12.0453 C   0  0  0  0  0  0  0  0  0  0  0  0
   26.6051  -23.0715  -11.4493 O   0  0  0  0  0  0  0  0  0  0  0  0
   27.0277  -19.4524   -6.6511 C   0  0  0  0  0  0  0  0  0  0  0  0
   26.1560  -20.4522   -7.3985 C   0  0  0  0  0  0  0  0  0  0  0  0
   26.4149  -20.2716   -8.8579 C   0  0  2  0  0  0  0  0  0  0  0  0
   26.1461  -18.8237   -9.2113 C   0  0  0  0  0  0  0  0  0  0  0  0
   25.6157  -21.1923   -9.7343 C   0  0  2  0  0  0  0  0  0  0  0  0
   25.8415  -20.9737  -11.1404 N   0  0  0  0  0  0  0  0  0  0  0  0
   24.1703  -20.9906   -9.4728 C   0  0  0  0  0  0  0  0  0  0  0  0
   23.4935  -21.5151   -8.3851 O   0  0  0  0  0  0  0  0  0  0  0  0
   23.5169  -20.2993  -10.2908 O   0  0  0  0  0  0  0  0  0  0  0  0
  2 12  2  0
  2  1  1  0
  3  2  1  0
  4  5  1  0
  4  3  2  0
  5 11  2  0
  6  5  1  0
  7  9  1  0
  7  6  1  0
  7  8  1  1
  9 10  2  0
 11 12  1  0
 13 14  1  0
 13  9  1  0
 15 22  1  0
 15 14  1  0
 16 15  2  0
 18 17  1  0
 19 20  1  6
 19 18  1  0
 21 22  1  6
 21 19  1  0
 23 21  1  0
 24 23  1  0
 25 23  2  0
M  END
$$$$
