YGI.pdb
     RDKit          3D

 25 25  0  0  1  0  0  0  0  0999 V2000
   19.4283  -16.2179  -19.0871 O   0  0  0  0  0  0  0  0  0  0  0  0
   19.9083  -16.8827  -17.9621 C   0  0  0  0  0  0  0  0  0  0  0  0
   19.2112  -16.8125  -16.7750 C   0  0  0  0  0  0  0  0  0  0  0  0
   19.6784  -17.4716  -15.6421 C   0  0  0  0  0  0  0  0  0  0  0  0
   20.8388  -18.2067  -15.6700 C   0  0  0  0  0  0  0  0  0  0  0  0
   21.3573  -18.9180  -14.4762 C   0  0  0  0  0  0  0  0  0  0  0  0
   21.3678  -20.3960  -14.7959 C   0  0  2  0  0  0  0  0  0  0  0  0
   20.0126  -20.8771  -14.6271 N   0  0  0  0  0  0  0  0  0  0  0  0
   22.2567  -21.1617  -13.9135 C   0  0  0  0  0  0  0  0  0  0  0  0
   21.8883  -21.4380  -12.7490 O   0  0  0  0  0  0  0  0  0  0  0  0
   21.5332  -18.2775  -16.8499 C   0  0  0  0  0  0  0  0  0  0  0  0
   21.0713  -17.6183  -17.9936 C   0  0  0  0  0  0  0  0  0  0  0  0
   23.5499  -21.6218  -14.3149 N   0  0  0  0  0  0  0  0  0  0  0  0
   24.4907  -22.1948  -13.4162 C   0  0  0  0  0  0  0  0  0  0  0  0
   25.3708  -21.2650  -12.7107 C   0  0  0  0  0  0  0  0  0  0  0  0
   25.3957  -20.0207  -13.0334 O   0  0  0  0  0  0  0  0  0  0  0  0
   25.8445  -20.5719   -7.4349 C   0  0  0  0  0  0  0  0  0  0  0  0
   25.7510  -20.3579   -8.9394 C   0  0  0  0  0  0  0  0  0  0  0  0
   27.0905  -20.6677   -9.5217 C   0  0  2  0  0  0  0  0  0  0  0  0
   28.1009  -19.7129   -8.9207 C   0  0  0  0  0  0  0  0  0  0  0  0
   27.1280  -20.6101  -11.0217 C   0  0  2  0  0  0  0  0  0  0  0  0
   26.2591  -21.5741  -11.6475 N   0  0  0  0  0  0  0  0  0  0  0  0
   28.5090  -20.8760  -11.4910 C   0  0  0  0  0  0  0  0  0  0  0  0
   29.4605  -19.8951  -11.7116 O   0  0  0  0  0  0  0  0  0  0  0  0
   28.8376  -22.0682  -11.7024 O   0  0  0  0  0  0  0  0  0  0  0  0
  2 12  2  0
  2  1  1  0
  3  2  1  0
  4  5  1  0
  4  3  2  0
  5 11  2  0
  6  5  1  0
  7  9  1  0
  7  6  1  0
  7  8  1  1
  9 10  2  0
 11 12  1  0
 13 14  1  0
 13  9  1  0
 15 22  1  0
 15 14  1  0
 16 15  2  0
 18 17  1  0
 19 20  1  1
 19 18  1  0
 21 22  1  6
 21 19  1  0
 23 21  1  0
 24 23  1  0
 25 23  2  0
M  END
$$$$
