YGI.pdb
     RDKit          3D

 25 25  0  0  1  0  0  0  0  0999 V2000
   29.1141  -19.8146   -3.3398 O   0  0  0  0  0  0  0  0  0  0  0  0
   28.4890  -19.7422   -4.5815 C   0  0  0  0  0  0  0  0  0  0  0  0
   29.0694  -19.0166   -5.5998 C   0  0  0  0  0  0  0  0  0  0  0  0
   28.4567  -18.9349   -6.8464 C   0  0  0  0  0  0  0  0  0  0  0  0
   27.2645  -19.5689   -7.1001 C   0  0  0  0  0  0  0  0  0  0  0  0
   26.5919  -19.4970   -8.4200 C   0  0  0  0  0  0  0  0  0  0  0  0
   26.4087  -20.9140   -8.9154 C   0  0  2  0  0  0  0  0  0  0  0  0
   27.7308  -21.4615   -9.1359 N   0  0  0  0  0  0  0  0  0  0  0  0
   25.6508  -20.9833  -10.1708 C   0  0  0  0  0  0  0  0  0  0  0  0
   24.5168  -20.4568  -10.2414 O   0  0  0  0  0  0  0  0  0  0  0  0
   26.6860  -20.2909   -6.0884 C   0  0  0  0  0  0  0  0  0  0  0  0
   27.2946  -20.3786   -4.8323 C   0  0  0  0  0  0  0  0  0  0  0  0
   26.1430  -21.6323  -11.3462 N   0  0  0  0  0  0  0  0  0  0  0  0
   25.3971  -21.7390  -12.5519 C   0  0  0  0  0  0  0  0  0  0  0  0
   24.8830  -20.4918  -13.1149 C   0  0  0  0  0  0  0  0  0  0  0  0
   24.1749  -19.6960  -12.3950 O   0  0  0  0  0  0  0  0  0  0  0  0
   27.8700  -17.1167  -15.9678 C   0  0  0  0  0  0  0  0  0  0  0  0
   26.9272  -17.8344  -15.0116 C   0  0  0  0  0  0  0  0  0  0  0  0
   25.6097  -17.9747  -15.7000 C   0  0  2  0  0  0  0  0  0  0  0  0
   25.1014  -16.5885  -16.0375 C   0  0  0  0  0  0  0  0  0  0  0  0
   24.5893  -18.7392  -14.9071 C   0  0  2  0  0  0  0  0  0  0  0  0
   25.0745  -20.0119  -14.4370 N   0  0  0  0  0  0  0  0  0  0  0  0
   23.3984  -18.9949  -15.7525 C   0  0  0  0  0  0  0  0  0  0  0  0
   22.2120  -18.2874  -15.6633 O   0  0  0  0  0  0  0  0  0  0  0  0
   23.4699  -19.9126  -16.6048 O   0  0  0  0  0  0  0  0  0  0  0  0
  2 12  2  0
  2  1  1  0
  3  2  1  0
  4  5  1  0
  4  3  2  0
  5 11  2  0
  6  5  1  0
  7  9  1  0
  7  6  1  0
  7  8  1  6
  9 10  2  0
 11 12  1  0
 13 14  1  0
 13  9  1  0
 15 22  1  0
 15 14  1  0
 16 15  2  0
 18 17  1  0
 19 20  1  1
 19 18  1  0
 21 22  1  6
 21 19  1  0
 23 21  1  0
 24 23  1  0
 25 23  2  0
M  END
$$$$
