YGI.pdb
     RDKit          3D

 25 25  0  0  1  0  0  0  0  0999 V2000
   16.7534  -19.8606  -15.5165 O   0  0  0  0  0  0  0  0  0  0  0  0
   17.9463  -20.4121  -15.0573 C   0  0  0  0  0  0  0  0  0  0  0  0
   18.4278  -21.5728  -15.6239 C   0  0  0  0  0  0  0  0  0  0  0  0
   19.6185  -22.1360  -15.1757 C   0  0  0  0  0  0  0  0  0  0  0  0
   20.3460  -21.5585  -14.1632 C   0  0  0  0  0  0  0  0  0  0  0  0
   21.6178  -22.1394  -13.6680 C   0  0  0  0  0  0  0  0  0  0  0  0
   22.7434  -21.2589  -14.1627 C   0  0  2  0  0  0  0  0  0  0  0  0
   22.6659  -21.2421  -15.6084 N   0  0  0  0  0  0  0  0  0  0  0  0
   24.0673  -21.7520  -13.7639 C   0  0  0  0  0  0  0  0  0  0  0  0
   24.5532  -22.7563  -14.3327 O   0  0  0  0  0  0  0  0  0  0  0  0
   19.8685  -20.4041  -13.5987 C   0  0  0  0  0  0  0  0  0  0  0  0
   18.6726  -19.8309  -14.0428 C   0  0  0  0  0  0  0  0  0  0  0  0
   24.8541  -21.1383  -12.7394 N   0  0  0  0  0  0  0  0  0  0  0  0
   26.1298  -21.6203  -12.3378 C   0  0  0  0  0  0  0  0  0  0  0  0
   26.8208  -20.8555  -11.3013 C   0  0  0  0  0  0  0  0  0  0  0  0
   26.6297  -19.5889  -11.1906 O   0  0  0  0  0  0  0  0  0  0  0  0
   26.2260  -20.3979   -6.3444 C   0  0  0  0  0  0  0  0  0  0  0  0
   26.5484  -20.2848   -7.8281 C   0  0  0  0  0  0  0  0  0  0  0  0
   27.9881  -20.6396   -8.0037 C   0  0  2  0  0  0  0  0  0  0  0  0
   28.8086  -19.7598   -7.0837 C   0  0  0  0  0  0  0  0  0  0  0  0
   28.4719  -20.5281   -9.4207 C   0  0  2  0  0  0  0  0  0  0  0  0
   27.7343  -21.3588  -10.3382 N   0  0  0  0  0  0  0  0  0  0  0  0
   29.8960  -20.9350   -9.4890 C   0  0  0  0  0  0  0  0  0  0  0  0
   30.9626  -20.0833   -9.2585 O   0  0  0  0  0  0  0  0  0  0  0  0
   30.1520  -22.1295   -9.7744 O   0  0  0  0  0  0  0  0  0  0  0  0
  2 12  2  0
  2  1  1  0
  3  2  1  0
  4  5  1  0
  4  3  2  0
  5 11  2  0
  6  5  1  0
  7  9  1  0
  7  6  1  0
  7  8  1  6
  9 10  2  0
 11 12  1  0
 13 14  1  0
 13  9  1  0
 15 22  1  0
 15 14  1  0
 16 15  2  0
 18 17  1  0
 19 20  1  1
 19 18  1  0
 21 22  1  6
 21 19  1  0
 23 21  1  0
 24 23  1  0
 25 23  2  0
M  END
$$$$
