YGI.pdb
     RDKit          3D

 25 25  0  0  1  0  0  0  0  0999 V2000
   15.5282  -22.3017  -17.6041 O   0  0  0  0  0  0  0  0  0  0  0  0
   16.3293  -22.7358  -16.5516 C   0  0  0  0  0  0  0  0  0  0  0  0
   15.7837  -22.8966  -15.2960 C   0  0  0  0  0  0  0  0  0  0  0  0
   16.5717  -23.3297  -14.2341 C   0  0  0  0  0  0  0  0  0  0  0  0
   17.9066  -23.6085  -14.4015 C   0  0  0  0  0  0  0  0  0  0  0  0
   18.7672  -24.0714  -13.2857 C   0  0  0  0  0  0  0  0  0  0  0  0
   18.8794  -22.9341  -12.2953 C   0  0  2  0  0  0  0  0  0  0  0  0
   19.8442  -21.9971  -12.8316 N   0  0  0  0  0  0  0  0  0  0  0  0
   19.3328  -23.3767  -10.9711 C   0  0  0  0  0  0  0  0  0  0  0  0
   20.5425  -23.2762  -10.6633 O   0  0  0  0  0  0  0  0  0  0  0  0
   18.4507  -23.4491  -15.6496 C   0  0  0  0  0  0  0  0  0  0  0  0
   17.6663  -23.0142  -16.7228 C   0  0  0  0  0  0  0  0  0  0  0  0
   18.4534  -23.9292   -9.9881 N   0  0  0  0  0  0  0  0  0  0  0  0
   18.8953  -24.4152   -8.7272 C   0  0  0  0  0  0  0  0  0  0  0  0
   17.8602  -24.8879   -7.8096 C   0  0  0  0  0  0  0  0  0  0  0  0
   16.6889  -25.1860   -8.2478 O   0  0  0  0  0  0  0  0  0  0  0  0
   18.8577  -27.7839   -3.1708 C   0  0  0  0  0  0  0  0  0  0  0  0
   18.3213  -27.3477   -4.5273 C   0  0  0  0  0  0  0  0  0  0  0  0
   17.4070  -26.1897   -4.2981 C   0  0  2  0  0  0  0  0  0  0  0  0
   16.2447  -26.6641   -3.4510 C   0  0  0  0  0  0  0  0  0  0  0  0
   16.9178  -25.5436   -5.5621 C   0  0  2  0  0  0  0  0  0  0  0  0
   17.9854  -25.0734   -6.4079 N   0  0  0  0  0  0  0  0  0  0  0  0
   16.0652  -24.3790   -5.2225 C   0  0  0  0  0  0  0  0  0  0  0  0
   16.5479  -23.1077   -4.9643 O   0  0  0  0  0  0  0  0  0  0  0  0
   14.8247  -24.5569   -5.1653 O   0  0  0  0  0  0  0  0  0  0  0  0
  2 12  2  0
  2  1  1  0
  3  2  1  0
  4  5  1  0
  4  3  2  0
  5 11  2  0
  6  5  1  0
  7  9  1  0
  7  6  1  0
  7  8  1  6
  9 10  2  0
 11 12  1  0
 13 14  1  0
 13  9  1  0
 15 22  1  0
 15 14  1  0
 16 15  2  0
 18 17  1  0
 19 20  1  6
 19 18  1  0
 21 22  1  6
 21 19  1  0
 23 21  1  0
 24 23  1  0
 25 23  2  0
M  END
$$$$
