YYQ.pdb
     RDKit          3D

 34 35  0  0  1  0  0  0  0  0999 V2000
   32.3765   -8.0806  -17.9437 O   0  0  0  0  0  0  0  0  0  0  0  0
   30.9922   -8.0526  -17.8325 C   0  0  0  0  0  0  0  0  0  0  0  0
   30.3574   -6.9218  -18.3305 C   0  0  0  0  0  0  0  0  0  0  0  0
   28.9635   -6.8866  -18.2220 C   0  0  0  0  0  0  0  0  0  0  0  0
   28.2710   -7.9275  -17.6483 C   0  0  0  0  0  0  0  0  0  0  0  0
   26.8048   -7.8479  -17.5553 C   0  0  0  0  0  0  0  0  0  0  0  0
   26.2122   -9.0235  -18.3276 C   0  0  2  0  0  0  0  0  0  0  0  0
   26.5183   -8.9194  -19.7346 N   0  0  0  0  0  0  0  0  0  0  0  0
   24.7466   -8.9590  -18.1448 C   0  0  0  0  0  0  0  0  0  0  0  0
   23.9812   -8.5008  -19.0385 O   0  0  0  0  0  0  0  0  0  0  0  0
   28.9274   -9.0282  -17.1670 C   0  0  0  0  0  0  0  0  0  0  0  0
   30.3165   -9.1014  -17.2564 C   0  0  0  0  0  0  0  0  0  0  0  0
   17.0535  -10.9621  -14.0871 O   0  0  0  0  0  0  0  0  0  0  0  0
   18.3945  -10.8454  -14.4466 C   0  0  0  0  0  0  0  0  0  0  0  0
   18.8238  -11.2260  -15.7014 C   0  0  0  0  0  0  0  0  0  0  0  0
   20.1446  -11.1279  -16.1013 C   0  0  0  0  0  0  0  0  0  0  0  0
   21.0971  -10.6349  -15.2384 C   0  0  0  0  0  0  0  0  0  0  0  0
   22.5293  -10.4985  -15.5891 C   0  0  0  0  0  0  0  0  0  0  0  0
   22.7595   -9.4582  -16.6613 C   0  0  2  0  0  0  0  0  0  0  0  0
   24.1849   -9.4253  -16.9302 N   0  0  0  0  0  0  0  0  0  0  0  0
   22.3542   -8.1400  -16.0843 C   0  0  0  0  0  0  0  0  0  0  0  0
   23.0380   -7.6464  -15.1588 O   0  0  0  0  0  0  0  0  0  0  0  0
   20.6830  -10.2515  -13.9838 C   0  0  0  0  0  0  0  0  0  0  0  0
   19.3531  -10.3518  -13.5853 C   0  0  0  0  0  0  0  0  0  0  0  0
   19.3283   -3.6652  -19.1191 N   0  0  0  0  0  0  0  0  0  0  0  0
   19.2776   -3.1713  -17.8027 C   0  0  0  0  0  0  0  0  0  0  0  0
   18.8408   -2.0335  -17.5648 O   0  0  0  0  0  0  0  0  0  0  0  0
   19.7513   -4.0139  -16.6667 C   0  0  0  0  0  0  0  0  0  0  0  0
   20.2962   -5.3274  -17.1429 C   0  0  0  0  0  0  0  0  0  0  0  0
   20.7933   -6.1350  -15.9723 C   0  0  2  0  0  0  0  0  0  0  0  0
   21.2280   -7.4236  -16.5397 N   0  0  0  0  0  0  0  0  0  0  0  0
   19.6908   -6.4620  -15.0431 C   0  0  0  0  0  0  0  0  0  0  0  0
   19.5366   -5.8703  -13.8104 O   0  0  0  0  0  0  0  0  0  0  0  0
   18.8176   -7.3403  -15.3726 O   0  0  0  0  0  0  0  0  0  0  0  0
  2  1  1  0
  2  3  2  0
  4  3  1  0
  5  4  2  0
  6  5  1  0
  7  6  1  0
  7  8  1  6
  9 10  2  0
  9  7  1  0
 11 12  2  0
 11  5  1  0
 12  2  1  0
 13 14  1  0
 14 15  2  0
 15 16  1  0
 17 16  2  0
 17 18  1  0
 19 18  1  1
 19 20  1  0
 20  9  1  0
 21 19  1  0
 21 31  1  0
 22 21  2  0
 23 17  1  0
 24 14  1  0
 24 23  2  0
 25 26  1  0
 26 27  2  0
 26 28  1  0
 28 29  1  0
 30 29  1  6
 30 31  1  0
 30 32  1  0
 32 34  2  0
 32 33  1  0
M  END
$$$$
