YYQ.pdb
     RDKit          3D

 34 35  0  0  1  0  0  0  0  0999 V2000
   22.2296  -31.0255  -16.7291 O   0  0  0  0  0  0  0  0  0  0  0  0
   22.6974  -29.9014  -17.3976 C   0  0  0  0  0  0  0  0  0  0  0  0
   22.0411  -28.7072  -17.1277 C   0  0  0  0  0  0  0  0  0  0  0  0
   22.5066  -27.5709  -17.7972 C   0  0  0  0  0  0  0  0  0  0  0  0
   23.5624  -27.6489  -18.6755 C   0  0  0  0  0  0  0  0  0  0  0  0
   24.0191  -26.4279  -19.3575 C   0  0  0  0  0  0  0  0  0  0  0  0
   25.2459  -25.8985  -18.6197 C   0  0  2  0  0  0  0  0  0  0  0  0
   25.6753  -24.6380  -19.1775 N   0  0  0  0  0  0  0  0  0  0  0  0
   26.3185  -26.8993  -18.8022 C   0  0  0  0  0  0  0  0  0  0  0  0
   26.9081  -27.0530  -19.9083 O   0  0  0  0  0  0  0  0  0  0  0  0
   24.1877  -28.8421  -18.9191 C   0  0  0  0  0  0  0  0  0  0  0  0
   23.7535  -29.9976  -18.2716 C   0  0  0  0  0  0  0  0  0  0  0  0
   32.5199  -32.7200  -16.3086 O   0  0  0  0  0  0  0  0  0  0  0  0
   31.5036  -31.7674  -16.3374 C   0  0  0  0  0  0  0  0  0  0  0  0
   30.3305  -31.9666  -15.6387 C   0  0  0  0  0  0  0  0  0  0  0  0
   29.2954  -31.0486  -15.6385 C   0  0  0  0  0  0  0  0  0  0  0  0
   29.4051  -29.8775  -16.3535 C   0  0  0  0  0  0  0  0  0  0  0  0
   28.3441  -28.8459  -16.4052 C   0  0  0  0  0  0  0  0  0  0  0  0
   27.7112  -28.7437  -17.7741 C   0  0  2  0  0  0  0  0  0  0  0  0
   26.6957  -27.7098  -17.7027 N   0  0  0  0  0  0  0  0  0  0  0  0
   27.0395  -30.0518  -18.0429 C   0  0  0  0  0  0  0  0  0  0  0  0
   25.9792  -30.3259  -17.4357 O   0  0  0  0  0  0  0  0  0  0  0  0
   30.5695  -29.6659  -17.0550 C   0  0  0  0  0  0  0  0  0  0  0  0
   31.6087  -30.5919  -17.0525 C   0  0  0  0  0  0  0  0  0  0  0  0
   24.3119  -30.0251  -21.3676 N   0  0  0  0  0  0  0  0  0  0  0  0
   25.4239  -30.5266  -22.0686 C   0  0  0  0  0  0  0  0  0  0  0  0
   25.7401  -30.0651  -23.1771 O   0  0  0  0  0  0  0  0  0  0  0  0
   26.2441  -31.6275  -21.4851 C   0  0  0  0  0  0  0  0  0  0  0  0
   25.7553  -32.0177  -20.1221 C   0  0  0  0  0  0  0  0  0  0  0  0
   26.9249  -32.3051  -19.2171 C   0  0  2  0  0  0  0  0  0  0  0  0
   27.5510  -30.9968  -18.9561 N   0  0  0  0  0  0  0  0  0  0  0  0
   27.9542  -33.1059  -19.9135 C   0  0  0  0  0  0  0  0  0  0  0  0
   27.7760  -34.4216  -20.2749 O   0  0  0  0  0  0  0  0  0  0  0  0
   29.0835  -32.5765  -20.2084 O   0  0  0  0  0  0  0  0  0  0  0  0
  2  1  1  0
  2  3  2  0
  4  3  1  0
  5  4  2  0
  6  5  1  0
  7  6  1  0
  7  8  1  6
  9 10  2  0
  9  7  1  0
 11 12  2  0
 11  5  1  0
 12  2  1  0
 13 14  1  0
 14 15  2  0
 15 16  1  0
 17 16  2  0
 17 18  1  0
 19 18  1  1
 19 20  1  0
 20  9  1  0
 21 19  1  0
 21 31  1  0
 22 21  2  0
 23 17  1  0
 24 14  1  0
 24 23  2  0
 25 26  1  0
 26 27  2  0
 26 28  1  0
 28 29  1  0
 30 29  1  6
 30 31  1  0
 30 32  1  0
 32 34  2  0
 32 33  1  0
M  END
$$$$
