YYQ.pdb
     RDKit          3D

 34 35  0  0  1  0  0  0  0  0999 V2000
   31.5408  -21.6514  -11.0115 O   0  0  0  0  0  0  0  0  0  0  0  0
   30.2103  -21.2751  -11.1433 C   0  0  0  0  0  0  0  0  0  0  0  0
   29.9094  -20.4415  -12.2130 C   0  0  0  0  0  0  0  0  0  0  0  0
   28.5715  -20.0584  -12.3521 C   0  0  0  0  0  0  0  0  0  0  0  0
   27.6140  -20.4940  -11.4658 C   0  0  0  0  0  0  0  0  0  0  0  0
   26.2185  -20.0660  -11.6506 C   0  0  0  0  0  0  0  0  0  0  0  0
   25.5614  -21.0017  -12.6618 C   0  0  2  0  0  0  0  0  0  0  0  0
   26.1897  -20.8808  -13.9560 N   0  0  0  0  0  0  0  0  0  0  0  0
   24.1464  -20.5874  -12.7698 C   0  0  0  0  0  0  0  0  0  0  0  0
   23.7938  -19.3794  -12.6650 O   0  0  0  0  0  0  0  0  0  0  0  0
   27.9441  -21.3154  -10.4216 C   0  0  0  0  0  0  0  0  0  0  0  0
   29.2668  -21.7197  -10.2485 C   0  0  0  0  0  0  0  0  0  0  0  0
   23.4368  -16.3300  -16.9917 O   0  0  0  0  0  0  0  0  0  0  0  0
   22.9874  -17.5295  -16.4438 C   0  0  0  0  0  0  0  0  0  0  0  0
   21.7435  -17.6123  -15.8523 C   0  0  0  0  0  0  0  0  0  0  0  0
   21.2565  -18.7816  -15.2959 C   0  0  0  0  0  0  0  0  0  0  0  0
   22.0165  -19.9292  -15.3150 C   0  0  0  0  0  0  0  0  0  0  0  0
   21.5685  -21.2188  -14.7415 C   0  0  0  0  0  0  0  0  0  0  0  0
   21.7588  -21.2758  -13.2430 C   0  0  2  0  0  0  0  0  0  0  0  0
   23.1570  -21.5760  -12.9978 N   0  0  0  0  0  0  0  0  0  0  0  0
   20.9328  -22.4164  -12.7414 C   0  0  0  0  0  0  0  0  0  0  0  0
   21.3275  -23.5873  -12.9446 O   0  0  0  0  0  0  0  0  0  0  0  0
   23.2589  -19.8611  -15.9017 C   0  0  0  0  0  0  0  0  0  0  0  0
   23.7452  -18.6827  -16.4604 C   0  0  0  0  0  0  0  0  0  0  0  0
   19.3693  -24.0183   -7.8291 N   0  0  0  0  0  0  0  0  0  0  0  0
   18.1625  -24.5430   -8.3268 C   0  0  0  0  0  0  0  0  0  0  0  0
   17.5754  -25.4638   -7.7355 O   0  0  0  0  0  0  0  0  0  0  0  0
   17.5675  -23.9963   -9.5806 C   0  0  0  0  0  0  0  0  0  0  0  0
   18.4302  -22.9264  -10.1806 C   0  0  0  0  0  0  0  0  0  0  0  0
   18.8773  -23.3368  -11.5595 C   0  0  2  0  0  0  0  0  0  0  0  0
   19.7208  -22.2302  -12.0450 N   0  0  0  0  0  0  0  0  0  0  0  0
   17.7333  -23.4032  -12.4935 C   0  0  0  0  0  0  0  0  0  0  0  0
   17.0731  -22.2919  -12.9652 O   0  0  0  0  0  0  0  0  0  0  0  0
   17.3084  -24.5411  -12.9026 O   0  0  0  0  0  0  0  0  0  0  0  0
  2  1  1  0
  2  3  2  0
  4  3  1  0
  5  4  2  0
  6  5  1  0
  7  6  1  0
  7  8  1  6
  9 10  2  0
  9  7  1  0
 11 12  2  0
 11  5  1  0
 12  2  1  0
 13 14  1  0
 14 15  2  0
 15 16  1  0
 17 16  2  0
 17 18  1  0
 19 18  1  6
 19 20  1  0
 20  9  1  0
 21 19  1  0
 21 31  1  0
 22 21  2  0
 23 17  1  0
 24 14  1  0
 24 23  2  0
 25 26  1  0
 26 27  2  0
 26 28  1  0
 28 29  1  0
 30 29  1  1
 30 31  1  0
 30 32  1  0
 32 34  2  0
 32 33  1  0
M  END
$$$$
