YYQ.pdb
     RDKit          3D

 34 35  0  0  1  0  0  0  0  0999 V2000
   22.8437  -11.7331  -19.7420 O   0  0  0  0  0  0  0  0  0  0  0  0
   22.7979  -13.0749  -19.3858 C   0  0  0  0  0  0  0  0  0  0  0  0
   22.6714  -13.3477  -18.0296 C   0  0  0  0  0  0  0  0  0  0  0  0
   22.6246  -14.6966  -17.6633 C   0  0  0  0  0  0  0  0  0  0  0  0
   22.7012  -15.6911  -18.6106 C   0  0  0  0  0  0  0  0  0  0  0  0
   22.6477  -17.0969  -18.1800 C   0  0  0  0  0  0  0  0  0  0  0  0
   24.0238  -17.4864  -17.6468 C   0  0  2  0  0  0  0  0  0  0  0  0
   24.9853  -17.5684  -18.7206 N   0  0  0  0  0  0  0  0  0  0  0  0
   23.8786  -18.8192  -17.0239 C   0  0  0  0  0  0  0  0  0  0  0  0
   23.8264  -19.8765  -17.7122 O   0  0  0  0  0  0  0  0  0  0  0  0
   22.8255  -15.3879  -19.9398 C   0  0  0  0  0  0  0  0  0  0  0  0
   22.8757  -14.0554  -20.3455 C   0  0  0  0  0  0  0  0  0  0  0  0
   29.6832  -21.3311  -17.0290 O   0  0  0  0  0  0  0  0  0  0  0  0
   28.5321  -21.0583  -16.2931 C   0  0  0  0  0  0  0  0  0  0  0  0
   27.6460  -22.0657  -15.9707 C   0  0  0  0  0  0  0  0  0  0  0  0
   26.4914  -21.8410  -15.2424 C   0  0  0  0  0  0  0  0  0  0  0  0
   26.1815  -20.5732  -14.8049 C   0  0  0  0  0  0  0  0  0  0  0  0
   24.9669  -20.2501  -14.0219 C   0  0  0  0  0  0  0  0  0  0  0  0
   23.7316  -20.1684  -14.8892 C   0  0  2  0  0  0  0  0  0  0  0  0
   23.7957  -18.9121  -15.6122 N   0  0  0  0  0  0  0  0  0  0  0  0
   22.5543  -20.1276  -13.9690 C   0  0  0  0  0  0  0  0  0  0  0  0
   22.2811  -19.0570  -13.3797 O   0  0  0  0  0  0  0  0  0  0  0  0
   27.0562  -19.5590  -15.1192 C   0  0  0  0  0  0  0  0  0  0  0  0
   28.2169  -19.7892  -15.8521 C   0  0  0  0  0  0  0  0  0  0  0  0
   17.4734  -20.3940  -15.3570 N   0  0  0  0  0  0  0  0  0  0  0  0
   17.1788  -20.1761  -13.9986 C   0  0  0  0  0  0  0  0  0  0  0  0
   16.0047  -20.0606  -13.6112 O   0  0  0  0  0  0  0  0  0  0  0  0
   18.2810  -20.0803  -12.9980 C   0  0  0  0  0  0  0  0  0  0  0  0
   19.6285  -20.1574  -13.6517 C   0  0  0  0  0  0  0  0  0  0  0  0
   20.4761  -21.1970  -12.9657 C   0  0  2  0  0  0  0  0  0  0  0  0
   21.7326  -21.2493  -13.7338 N   0  0  0  0  0  0  0  0  0  0  0  0
   19.8768  -22.5426  -13.0927 C   0  0  0  0  0  0  0  0  0  0  0  0
   19.0072  -23.0762  -12.1694 O   0  0  0  0  0  0  0  0  0  0  0  0
   20.1641  -23.2765  -14.1033 O   0  0  0  0  0  0  0  0  0  0  0  0
  2  1  1  0
  2  3  2  0
  4  3  1  0
  5  4  2  0
  6  5  1  0
  7  6  1  0
  7  8  1  6
  9 10  2  0
  9  7  1  0
 11 12  2  0
 11  5  1  0
 12  2  1  0
 13 14  1  0
 14 15  2  0
 15 16  1  0
 17 16  2  0
 17 18  1  0
 19 18  1  1
 19 20  1  0
 20  9  1  0
 21 19  1  0
 21 31  1  0
 22 21  2  0
 23 17  1  0
 24 14  1  0
 24 23  2  0
 25 26  1  0
 26 27  2  0
 26 28  1  0
 28 29  1  0
 30 29  1  6
 30 31  1  0
 30 32  1  0
 32 34  2  0
 32 33  1  0
M  END
$$$$
