YYQ.pdb
     RDKit          3D

 34 35  0  0  1  0  0  0  0  0999 V2000
   16.7751  -23.6858  -16.3426 O   0  0  0  0  0  0  0  0  0  0  0  0
   17.8621  -22.8474  -16.1309 C   0  0  0  0  0  0  0  0  0  0  0  0
   19.1015  -23.3350  -16.5255 C   0  0  0  0  0  0  0  0  0  0  0  0
   20.2008  -22.4963  -16.3155 C   0  0  0  0  0  0  0  0  0  0  0  0
   20.0455  -21.2540  -15.7456 C   0  0  0  0  0  0  0  0  0  0  0  0
   21.2300  -20.4050  -15.5436 C   0  0  0  0  0  0  0  0  0  0  0  0
   22.0925  -21.0385  -14.4553 C   0  0  2  0  0  0  0  0  0  0  0  0
   21.4487  -20.9376  -13.1671 N   0  0  0  0  0  0  0  0  0  0  0  0
   23.3622  -20.2821  -14.4227 C   0  0  0  0  0  0  0  0  0  0  0  0
   23.4682  -19.1799  -13.8158 O   0  0  0  0  0  0  0  0  0  0  0  0
   18.8093  -20.8034  -15.3677 C   0  0  0  0  0  0  0  0  0  0  0  0
   17.6886  -21.6094  -15.5602 C   0  0  0  0  0  0  0  0  0  0  0  0
   25.4554  -20.4709   -8.7155 O   0  0  0  0  0  0  0  0  0  0  0  0
   25.7616  -20.5961  -10.0688 C   0  0  0  0  0  0  0  0  0  0  0  0
   26.3727  -19.5645  -10.7518 C   0  0  0  0  0  0  0  0  0  0  0  0
   26.6949  -19.6447  -12.0949 C   0  0  0  0  0  0  0  0  0  0  0  0
   26.4091  -20.7849  -12.8112 C   0  0  0  0  0  0  0  0  0  0  0  0
   26.7210  -20.9493  -14.2494 C   0  0  0  0  0  0  0  0  0  0  0  0
   25.7868  -20.1538  -15.1323 C   0  0  2  0  0  0  0  0  0  0  0  0
   24.4937  -20.8105  -15.0928 N   0  0  0  0  0  0  0  0  0  0  0  0
   26.3223  -20.2419  -16.5252 C   0  0  0  0  0  0  0  0  0  0  0  0
   26.0796  -21.2650  -17.2052 O   0  0  0  0  0  0  0  0  0  0  0  0
   25.7999  -21.8214  -12.1428 C   0  0  0  0  0  0  0  0  0  0  0  0
   25.4772  -21.7369  -10.7914 C   0  0  0  0  0  0  0  0  0  0  0  0
   23.9005  -17.9106  -19.3281 N   0  0  0  0  0  0  0  0  0  0  0  0
   24.5315  -18.5564  -20.4071 C   0  0  0  0  0  0  0  0  0  0  0  0
   23.8693  -19.0099  -21.3546 O   0  0  0  0  0  0  0  0  0  0  0  0
   26.0155  -18.7061  -20.4276 C   0  0  0  0  0  0  0  0  0  0  0  0
   26.6436  -18.1540  -19.1828 C   0  0  0  0  0  0  0  0  0  0  0  0
   27.5003  -19.2054  -18.5269 C   0  0  2  0  0  0  0  0  0  0  0  0
   27.0937  -19.2167  -17.1105 N   0  0  0  0  0  0  0  0  0  0  0  0
   28.9248  -18.8097  -18.5278 C   0  0  0  0  0  0  0  0  0  0  0  0
   29.5670  -18.2836  -17.4305 O   0  0  0  0  0  0  0  0  0  0  0  0
   29.6255  -18.9494  -19.5919 O   0  0  0  0  0  0  0  0  0  0  0  0
  2  1  1  0
  2  3  2  0
  4  3  1  0
  5  4  2  0
  6  5  1  0
  7  6  1  0
  7  8  1  1
  9 10  2  0
  9  7  1  0
 11 12  2  0
 11  5  1  0
 12  2  1  0
 13 14  1  0
 14 15  2  0
 15 16  1  0
 17 16  2  0
 17 18  1  0
 19 18  1  1
 19 20  1  0
 20  9  1  0
 21 19  1  0
 21 31  1  0
 22 21  2  0
 23 17  1  0
 24 14  1  0
 24 23  2  0
 25 26  1  0
 26 27  2  0
 26 28  1  0
 28 29  1  0
 30 29  1  6
 30 31  1  0
 30 32  1  0
 32 34  2  0
 32 33  1  0
M  END
$$$$
