YYQ.pdb
     RDKit          3D

 34 35  0  0  1  0  0  0  0  0999 V2000
   31.3583  -24.2838  -18.4190 O   0  0  0  0  0  0  0  0  0  0  0  0
   30.4893  -23.3443  -17.8790 C   0  0  0  0  0  0  0  0  0  0  0  0
   30.8818  -22.0154  -17.9761 C   0  0  0  0  0  0  0  0  0  0  0  0
   30.0118  -21.0636  -17.4346 C   0  0  0  0  0  0  0  0  0  0  0  0
   28.8306  -21.4411  -16.8391 C   0  0  0  0  0  0  0  0  0  0  0  0
   27.9456  -20.4059  -16.2828 C   0  0  0  0  0  0  0  0  0  0  0  0
   26.9701  -19.9738  -17.3743 C   0  0  2  0  0  0  0  0  0  0  0  0
   27.5947  -19.0382  -18.2793 N   0  0  0  0  0  0  0  0  0  0  0  0
   25.8376  -19.3085  -16.6957 C   0  0  0  0  0  0  0  0  0  0  0  0
   25.8593  -18.0790  -16.4089 O   0  0  0  0  0  0  0  0  0  0  0  0
   28.4733  -22.7602  -16.7598 C   0  0  0  0  0  0  0  0  0  0  0  0
   29.3133  -23.7393  -17.2877 C   0  0  0  0  0  0  0  0  0  0  0  0
   17.5115  -17.6508  -14.4540 O   0  0  0  0  0  0  0  0  0  0  0  0
   18.7279  -18.0419  -15.0092 C   0  0  0  0  0  0  0  0  0  0  0  0
   19.7549  -17.1341  -15.1681 C   0  0  0  0  0  0  0  0  0  0  0  0
   20.9787  -17.4778  -15.7141 C   0  0  0  0  0  0  0  0  0  0  0  0
   21.2173  -18.7690  -16.1271 C   0  0  0  0  0  0  0  0  0  0  0  0
   22.4979  -19.2165  -16.7210 C   0  0  0  0  0  0  0  0  0  0  0  0
   23.5365  -19.5338  -15.6696 C   0  0  2  0  0  0  0  0  0  0  0  0
   24.6941  -20.0742  -16.3574 N   0  0  0  0  0  0  0  0  0  0  0  0
   22.9611  -20.6019  -14.7963 C   0  0  0  0  0  0  0  0  0  0  0  0
   22.6412  -21.6986  -15.3092 O   0  0  0  0  0  0  0  0  0  0  0  0
   20.2021  -19.6847  -15.9746 C   0  0  0  0  0  0  0  0  0  0  0  0
   18.9722  -19.3351  -15.4247 C   0  0  0  0  0  0  0  0  0  0  0  0
   25.2973  -21.6011   -9.5150 N   0  0  0  0  0  0  0  0  0  0  0  0
   24.5905  -20.3998   -9.7071 C   0  0  0  0  0  0  0  0  0  0  0  0
   24.8322  -19.3995   -9.0122 O   0  0  0  0  0  0  0  0  0  0  0  0
   23.5336  -20.3110  -10.7560 C   0  0  0  0  0  0  0  0  0  0  0  0
   23.3269  -21.6271  -11.4446 C   0  0  0  0  0  0  0  0  0  0  0  0
   22.2746  -21.4903  -12.5141 C   0  0  2  0  0  0  0  0  0  0  0  0
   22.7614  -20.4275  -13.4112 N   0  0  0  0  0  0  0  0  0  0  0  0
   21.0047  -20.9840  -11.9513 C   0  0  0  0  0  0  0  0  0  0  0  0
   20.0588  -21.7929  -11.3644 O   0  0  0  0  0  0  0  0  0  0  0  0
   20.7399  -19.7309  -11.9990 O   0  0  0  0  0  0  0  0  0  0  0  0
  2  1  1  0
  2  3  2  0
  4  3  1  0
  5  4  2  0
  6  5  1  0
  7  6  1  0
  7  8  1  6
  9 10  2  0
  9  7  1  0
 11 12  2  0
 11  5  1  0
 12  2  1  0
 13 14  1  0
 14 15  2  0
 15 16  1  0
 17 16  2  0
 17 18  1  0
 19 18  1  6
 19 20  1  0
 20  9  1  0
 21 19  1  0
 21 31  1  0
 22 21  2  0
 23 17  1  0
 24 14  1  0
 24 23  2  0
 25 26  1  0
 26 27  2  0
 26 28  1  0
 28 29  1  0
 30 29  1  1
 30 31  1  0
 30 32  1  0
 32 34  2  0
 32 33  1  0
M  END
$$$$
