SYV.pdb
     RDKit          3D

 26 26  0  0  1  0  0  0  0  0999 V2000
   28.4788  -20.5733  -19.0050 O   0  0  0  0  0  0  0  0  0  0  0  0
   27.9277  -20.3251  -17.7544 C   0  0  0  0  0  0  0  0  0  0  0  0
   28.6445  -21.1819  -16.7335 C   0  0  2  0  0  0  0  0  0  0  0  0
   29.2903  -22.3281  -17.3337 N   0  0  0  0  0  0  0  0  0  0  0  0
   27.7098  -21.6132  -15.6456 C   0  0  0  0  0  0  0  0  0  0  0  0
   27.2660  -22.7923  -15.6046 O   0  0  0  0  0  0  0  0  0  0  0  0
   23.4112  -20.7548   -7.7623 O   0  0  0  0  0  0  0  0  0  0  0  0
   24.1688  -20.6355   -8.9368 C   0  0  0  0  0  0  0  0  0  0  0  0
   25.4942  -21.0169   -8.9122 C   0  0  0  0  0  0  0  0  0  0  0  0
   26.2646  -20.9114  -10.0507 C   0  0  0  0  0  0  0  0  0  0  0  0
   25.7536  -20.4262  -11.2518 C   0  0  0  0  0  0  0  0  0  0  0  0
   26.5964  -20.2969  -12.4263 C   0  0  0  0  0  0  0  0  0  0  0  0
   26.3159  -21.1547  -13.6018 C   0  0  2  0  0  0  0  0  0  0  0  0
   27.2884  -20.7351  -14.6317 N   0  0  0  0  0  0  0  0  0  0  0  0
   24.9722  -21.0264  -14.1649 C   0  0  0  0  0  0  0  0  0  0  0  0
   24.7356  -20.0049  -14.9041 O   0  0  0  0  0  0  0  0  0  0  0  0
   24.4305  -20.0557  -11.2405 C   0  0  0  0  0  0  0  0  0  0  0  0
   23.6504  -20.1589  -10.1005 C   0  0  0  0  0  0  0  0  0  0  0  0
   21.0032  -22.6257  -16.2771 C   0  0  0  0  0  0  0  0  0  0  0  0
   22.3642  -22.7488  -15.6895 C   0  0  2  0  0  0  0  0  0  0  0  0
   22.5149  -24.1281  -15.1043 C   0  0  0  0  0  0  0  0  0  0  0  0
   22.6600  -21.7013  -14.6328 C   0  0  2  0  0  0  0  0  0  0  0  0
   23.9066  -21.9529  -13.9616 N   0  0  0  0  0  0  0  0  0  0  0  0
   21.5526  -21.6609  -13.6616 C   0  0  0  0  0  0  0  0  0  0  0  0
   21.6943  -22.1097  -12.5134 O   0  0  0  0  0  0  0  0  0  0  0  0
   20.2991  -21.1098  -14.0120 O   0  0  0  0  0  0  0  0  0  0  0  0
  2  1  1  0
  3  2  1  0
  3  4  1  6
  5  3  1  0
  6  5  2  0
  7  8  1  0
  8  9  2  0
  9 10  1  0
 11 10  2  0
 11 12  1  0
 13 12  1  1
 13 14  1  0
 14  5  1  0
 15 13  1  0
 15 16  2  0
 17 11  1  0
 18 17  2  0
 18  8  1  0
 20 19  1  1
 20 21  1  0
 22 20  1  0
 22 23  1  1
 23 15  1  0
 24 22  1  0
 25 24  2  0
 26 24  1  0
M  END
$$$$
