SYV.pdb
     RDKit          3D

 26 26  0  0  1  0  0  0  0  0999 V2000
   16.0079  -14.7241  -17.1568 O   0  0  0  0  0  0  0  0  0  0  0  0
   16.9344  -13.9487  -16.4715 C   0  0  0  0  0  0  0  0  0  0  0  0
   18.2950  -14.1553  -17.1009 C   0  0  2  0  0  0  0  0  0  0  0  0
   18.6572  -15.5530  -17.1814 N   0  0  0  0  0  0  0  0  0  0  0  0
   19.3467  -13.3795  -16.3691 C   0  0  0  0  0  0  0  0  0  0  0  0
   19.3180  -13.2776  -15.1131 O   0  0  0  0  0  0  0  0  0  0  0  0
   27.4633   -9.5604  -16.0612 O   0  0  0  0  0  0  0  0  0  0  0  0
   26.3034  -10.3350  -16.2105 C   0  0  0  0  0  0  0  0  0  0  0  0
   25.5376  -10.1698  -17.3457 C   0  0  0  0  0  0  0  0  0  0  0  0
   24.3920  -10.9167  -17.5210 C   0  0  0  0  0  0  0  0  0  0  0  0
   23.9633  -11.8517  -16.5824 C   0  0  0  0  0  0  0  0  0  0  0  0
   22.7362  -12.6015  -16.7787 C   0  0  0  0  0  0  0  0  0  0  0  0
   21.4606  -12.0168  -16.3021 C   0  0  2  0  0  0  0  0  0  0  0  0
   20.4020  -12.7366  -17.0396 N   0  0  0  0  0  0  0  0  0  0  0  0
   21.2958  -10.5850  -16.5506 C   0  0  0  0  0  0  0  0  0  0  0  0
   21.2272  -10.2006  -17.7727 O   0  0  0  0  0  0  0  0  0  0  0  0
   24.7497  -11.9905  -15.4641 C   0  0  0  0  0  0  0  0  0  0  0  0
   25.9018  -11.2436  -15.2812 C   0  0  0  0  0  0  0  0  0  0  0  0
   19.3622   -6.3896  -16.3700 C   0  0  0  0  0  0  0  0  0  0  0  0
   19.5697   -7.8276  -16.0505 C   0  0  2  0  0  0  0  0  0  0  0  0
   18.8706   -8.1404  -14.7540 C   0  0  0  0  0  0  0  0  0  0  0  0
   21.0327   -8.2183  -15.9588 C   0  0  2  0  0  0  0  0  0  0  0  0
   21.1986   -9.5835  -15.5391 N   0  0  0  0  0  0  0  0  0  0  0  0
   21.7242   -7.3074  -15.0295 C   0  0  0  0  0  0  0  0  0  0  0  0
   22.0722   -7.6903  -13.9016 O   0  0  0  0  0  0  0  0  0  0  0  0
   22.0095   -5.9731  -15.3980 O   0  0  0  0  0  0  0  0  0  0  0  0
  2  1  1  0
  3  2  1  0
  3  4  1  1
  5  3  1  0
  6  5  2  0
  7  8  1  0
  8  9  2  0
  9 10  1  0
 11 10  2  0
 11 12  1  0
 13 12  1  6
 13 14  1  0
 14  5  1  0
 15 13  1  0
 15 16  2  0
 17 11  1  0
 18 17  2  0
 18  8  1  0
 20 19  1  1
 20 21  1  0
 22 20  1  0
 22 23  1  1
 23 15  1  0
 24 22  1  0
 25 24  2  0
 26 24  1  0
M  END
$$$$
