SYV.pdb
     RDKit          3D

 26 26  0  0  1  0  0  0  0  0999 V2000
   27.7922  -20.6227  -19.7222 O   0  0  0  0  0  0  0  0  0  0  0  0
   27.6790  -20.3120  -18.3731 C   0  0  0  0  0  0  0  0  0  0  0  0
   28.3130  -21.4252  -17.5676 C   0  0  2  0  0  0  0  0  0  0  0  0
   28.4912  -22.6326  -18.3433 N   0  0  0  0  0  0  0  0  0  0  0  0
   27.5209  -21.7072  -16.3281 C   0  0  0  0  0  0  0  0  0  0  0  0
   26.8286  -22.7557  -16.2282 O   0  0  0  0  0  0  0  0  0  0  0  0
   25.1108  -20.4205   -7.7428 O   0  0  0  0  0  0  0  0  0  0  0  0
   25.6784  -20.3997   -9.0254 C   0  0  0  0  0  0  0  0  0  0  0  0
   26.0588  -21.5940   -9.6014 C   0  0  0  0  0  0  0  0  0  0  0  0
   26.6195  -21.6058  -10.8609 C   0  0  0  0  0  0  0  0  0  0  0  0
   26.8239  -20.4401  -11.5947 C   0  0  0  0  0  0  0  0  0  0  0  0
   27.4451  -20.4798  -12.9058 C   0  0  0  0  0  0  0  0  0  0  0  0
   26.7029  -21.1032  -14.0267 C   0  0  2  0  0  0  0  0  0  0  0  0
   27.5122  -20.8273  -15.2315 N   0  0  0  0  0  0  0  0  0  0  0  0
   25.3557  -20.5814  -14.2536 C   0  0  0  0  0  0  0  0  0  0  0  0
   25.2530  -19.4343  -14.8189 O   0  0  0  0  0  0  0  0  0  0  0  0
   26.4335  -19.2691  -10.9909 C   0  0  0  0  0  0  0  0  0  0  0  0
   25.8696  -19.2495   -9.7259 C   0  0  0  0  0  0  0  0  0  0  0  0
   21.7237  -22.5672  -14.9369 C   0  0  0  0  0  0  0  0  0  0  0  0
   22.0466  -21.1317  -15.1552 C   0  0  2  0  0  0  0  0  0  0  0  0
   22.7333  -20.9880  -16.4877 C   0  0  0  0  0  0  0  0  0  0  0  0
   22.9101  -20.5360  -14.0594 C   0  0  2  0  0  0  0  0  0  0  0  0
   24.1468  -21.2522  -13.9013 N   0  0  0  0  0  0  0  0  0  0  0  0
   22.1558  -20.5276  -12.7935 C   0  0  0  0  0  0  0  0  0  0  0  0
   22.4727  -21.2777  -11.8571 O   0  0  0  0  0  0  0  0  0  0  0  0
   21.0510  -19.6650  -12.6121 O   0  0  0  0  0  0  0  0  0  0  0  0
  2  1  1  0
  3  2  1  0
  3  4  1  6
  5  3  1  0
  6  5  2  0
  7  8  1  0
  8  9  2  0
  9 10  1  0
 11 10  2  0
 11 12  1  0
 13 12  1  1
 13 14  1  0
 14  5  1  0
 15 13  1  0
 15 16  2  0
 17 11  1  0
 18 17  2  0
 18  8  1  0
 20 19  1  1
 20 21  1  0
 22 20  1  0
 22 23  1  1
 23 15  1  0
 24 22  1  0
 25 24  2  0
 26 24  1  0
M  END
$$$$
