SYV.pdb
     RDKit          3D

 26 26  0  0  1  0  0  0  0  0999 V2000
   23.2185   -7.6255  -22.3219 O   0  0  0  0  0  0  0  0  0  0  0  0
   22.6319   -7.1847  -21.1425 C   0  0  0  0  0  0  0  0  0  0  0  0
   23.4858   -7.6415  -19.9798 C   0  0  2  0  0  0  0  0  0  0  0  0
   23.4638   -9.0777  -19.8120 N   0  0  0  0  0  0  0  0  0  0  0  0
   23.0755   -6.9565  -18.7126 C   0  0  0  0  0  0  0  0  0  0  0  0
   22.0419   -7.3178  -18.0881 O   0  0  0  0  0  0  0  0  0  0  0  0
   24.8417  -10.9261  -14.2074 O   0  0  0  0  0  0  0  0  0  0  0  0
   24.7770   -9.5951  -14.6456 C   0  0  0  0  0  0  0  0  0  0  0  0
   23.7237   -8.8096  -14.2259 C   0  0  0  0  0  0  0  0  0  0  0  0
   23.6328   -7.4975  -14.6397 C   0  0  0  0  0  0  0  0  0  0  0  0
   24.5777   -6.9162  -15.4813 C   0  0  0  0  0  0  0  0  0  0  0  0
   24.4395   -5.5415  -15.9259 C   0  0  0  0  0  0  0  0  0  0  0  0
   23.3912   -5.2174  -16.9220 C   0  0  2  0  0  0  0  0  0  0  0  0
   23.8140   -5.8920  -18.1665 N   0  0  0  0  0  0  0  0  0  0  0  0
   23.2198   -3.7940  -17.2111 C   0  0  0  0  0  0  0  0  0  0  0  0
   24.1788   -3.1935  -17.8159 O   0  0  0  0  0  0  0  0  0  0  0  0
   25.6130   -7.7271  -15.8798 C   0  0  0  0  0  0  0  0  0  0  0  0
   25.7109   -9.0460  -15.4682 C   0  0  0  0  0  0  0  0  0  0  0  0
   21.0552   -2.1795  -19.5571 C   0  0  0  0  0  0  0  0  0  0  0  0
   20.9140   -1.3958  -18.3006 C   0  0  2  0  0  0  0  0  0  0  0  0
   20.8576    0.0683  -18.6480 C   0  0  0  0  0  0  0  0  0  0  0  0
   22.0294   -1.6504  -17.3044 C   0  0  2  0  0  0  0  0  0  0  0  0
   22.0661   -3.0234  -16.8788 N   0  0  0  0  0  0  0  0  0  0  0  0
   21.8617   -0.7572  -16.1445 C   0  0  0  0  0  0  0  0  0  0  0  0
   21.2245   -1.1229  -15.1446 O   0  0  0  0  0  0  0  0  0  0  0  0
   22.4224    0.5402  -16.1400 O   0  0  0  0  0  0  0  0  0  0  0  0
  2  1  1  0
  3  2  1  0
  3  4  1  1
  5  3  1  0
  6  5  2  0
  7  8  1  0
  8  9  2  0
  9 10  1  0
 11 10  2  0
 11 12  1  0
 13 12  1  1
 13 14  1  0
 14  5  1  0
 15 13  1  0
 15 16  2  0
 17 11  1  0
 18 17  2  0
 18  8  1  0
 20 19  1  6
 20 21  1  0
 22 20  1  0
 22 23  1  1
 23 15  1  0
 24 22  1  0
 25 24  2  0
 26 24  1  0
M  END
$$$$
