SYV.pdb
     RDKit          3D

 26 26  0  0  1  0  0  0  0  0999 V2000
   17.1585  -13.9122  -18.7517 O   0  0  0  0  0  0  0  0  0  0  0  0
   17.0421  -13.0205  -17.6930 C   0  0  0  0  0  0  0  0  0  0  0  0
   18.3663  -12.9643  -16.9627 C   0  0  2  0  0  0  0  0  0  0  0  0
   18.6126  -14.1538  -16.1781 N   0  0  0  0  0  0  0  0  0  0  0  0
   18.4530  -11.7397  -16.1047 C   0  0  0  0  0  0  0  0  0  0  0  0
   17.7395  -11.6221  -15.0724 O   0  0  0  0  0  0  0  0  0  0  0  0
   22.7401   -4.2670  -13.4526 O   0  0  0  0  0  0  0  0  0  0  0  0
   22.2776   -5.4936  -13.9520 C   0  0  0  0  0  0  0  0  0  0  0  0
   21.8782   -6.4651  -13.0579 C   0  0  0  0  0  0  0  0  0  0  0  0
   21.4189   -7.6808  -13.5184 C   0  0  0  0  0  0  0  0  0  0  0  0
   21.3381   -7.9791  -14.8762 C   0  0  0  0  0  0  0  0  0  0  0  0
   20.8799   -9.2789  -15.3313 C   0  0  0  0  0  0  0  0  0  0  0  0
   19.4269   -9.4922  -15.5299 C   0  0  2  0  0  0  0  0  0  0  0  0
   19.3229  -10.6771  -16.4061 N   0  0  0  0  0  0  0  0  0  0  0  0
   18.7130   -8.3880  -16.1702 C   0  0  0  0  0  0  0  0  0  0  0  0
   18.8580   -8.2452  -17.4369 O   0  0  0  0  0  0  0  0  0  0  0  0
   21.7438   -6.9889  -15.7382 C   0  0  0  0  0  0  0  0  0  0  0  0
   22.2064   -5.7653  -15.2829 C   0  0  0  0  0  0  0  0  0  0  0  0
   15.1883   -6.4781  -14.9556 C   0  0  0  0  0  0  0  0  0  0  0  0
   15.8171   -6.3807  -16.3002 C   0  0  2  0  0  0  0  0  0  0  0  0
   15.3418   -7.5361  -17.1408 C   0  0  0  0  0  0  0  0  0  0  0  0
   17.3333   -6.3607  -16.2550 C   0  0  2  0  0  0  0  0  0  0  0  0
   17.8624   -7.4617  -15.4965 N   0  0  0  0  0  0  0  0  0  0  0  0
   17.7881   -5.0795  -15.6865 C   0  0  0  0  0  0  0  0  0  0  0  0
   18.2587   -5.0216  -14.5398 O   0  0  0  0  0  0  0  0  0  0  0  0
   17.7005   -3.8822  -16.4324 O   0  0  0  0  0  0  0  0  0  0  0  0
  2  1  1  0
  3  2  1  0
  3  4  1  1
  5  3  1  0
  6  5  2  0
  7  8  1  0
  8  9  2  0
  9 10  1  0
 11 10  2  0
 11 12  1  0
 13 12  1  6
 13 14  1  0
 14  5  1  0
 15 13  1  0
 15 16  2  0
 17 11  1  0
 18 17  2  0
 18  8  1  0
 20 19  1  1
 20 21  1  0
 22 20  1  0
 22 23  1  1
 23 15  1  0
 24 22  1  0
 25 24  2  0
 26 24  1  0
M  END
$$$$
