SYV.pdb
     RDKit          3D

 26 26  0  0  1  0  0  0  0  0999 V2000
   29.5019  -24.4151  -16.9117 O   0  0  0  0  0  0  0  0  0  0  0  0
   29.1517  -23.2336  -16.2707 C   0  0  0  0  0  0  0  0  0  0  0  0
   28.5705  -22.2837  -17.2954 C   0  0  2  0  0  0  0  0  0  0  0  0
   29.5916  -21.5283  -17.9867 N   0  0  0  0  0  0  0  0  0  0  0  0
   27.5700  -21.3640  -16.6658 C   0  0  0  0  0  0  0  0  0  0  0  0
   27.8784  -20.1781  -16.3706 O   0  0  0  0  0  0  0  0  0  0  0  0
   19.2898  -18.6912  -14.5077 O   0  0  0  0  0  0  0  0  0  0  0  0
   20.4749  -19.2238  -15.0365 C   0  0  0  0  0  0  0  0  0  0  0  0
   20.7357  -20.5665  -14.8579 C   0  0  0  0  0  0  0  0  0  0  0  0
   21.8922  -21.1191  -15.3659 C   0  0  0  0  0  0  0  0  0  0  0  0
   22.8303  -20.3659  -16.0672 C   0  0  0  0  0  0  0  0  0  0  0  0
   24.0541  -20.9679  -16.5637 C   0  0  0  0  0  0  0  0  0  0  0  0
   25.2837  -20.8611  -15.7435 C   0  0  2  0  0  0  0  0  0  0  0  0
   26.2563  -21.7743  -16.3781 N   0  0  0  0  0  0  0  0  0  0  0  0
   25.1384  -21.2529  -14.3419 C   0  0  0  0  0  0  0  0  0  0  0  0
   25.0592  -22.5071  -14.0834 O   0  0  0  0  0  0  0  0  0  0  0  0
   22.5387  -19.0326  -16.2264 C   0  0  0  0  0  0  0  0  0  0  0  0
   21.3789  -18.4705  -15.7188 C   0  0  0  0  0  0  0  0  0  0  0  0
   27.1715  -20.9243  -11.1767 C   0  0  0  0  0  0  0  0  0  0  0  0
   25.7891  -20.4520  -10.8962 C   0  0  2  0  0  0  0  0  0  0  0  0
   25.3734  -20.9531   -9.5384 C   0  0  0  0  0  0  0  0  0  0  0  0
   24.7806  -20.8886  -11.9420 C   0  0  2  0  0  0  0  0  0  0  0  0
   25.0849  -20.3489  -13.2395 N   0  0  0  0  0  0  0  0  0  0  0  0
   23.4298  -20.4788  -11.5189 C   0  0  0  0  0  0  0  0  0  0  0  0
   22.9170  -20.9401  -10.4874 O   0  0  0  0  0  0  0  0  0  0  0  0
   22.6823  -19.5492  -12.2769 O   0  0  0  0  0  0  0  0  0  0  0  0
  2  1  1  0
  3  2  1  0
  3  4  1  1
  5  3  1  0
  6  5  2  0
  7  8  1  0
  8  9  2  0
  9 10  1  0
 11 10  2  0
 11 12  1  0
 13 12  1  6
 13 14  1  0
 14  5  1  0
 15 13  1  0
 15 16  2  0
 17 11  1  0
 18 17  2  0
 18  8  1  0
 20 19  1  6
 20 21  1  0
 22 20  1  0
 22 23  1  6
 23 15  1  0
 24 22  1  0
 25 24  2  0
 26 24  1  0
M  END
$$$$
