SYV.pdb
     RDKit          3D

 26 26  0  0  1  0  0  0  0  0999 V2000
   21.9597  -12.2216  -20.3249 O   0  0  0  0  0  0  0  0  0  0  0  0
   22.2688  -11.2334  -19.3989 C   0  0  0  0  0  0  0  0  0  0  0  0
   23.7726  -11.1748  -19.2408 C   0  0  2  0  0  0  0  0  0  0  0  0
   24.3532  -12.4800  -19.0154 N   0  0  0  0  0  0  0  0  0  0  0  0
   24.1593  -10.2297  -18.1451 C   0  0  0  0  0  0  0  0  0  0  0  0
   24.4533  -10.6574  -16.9965 O   0  0  0  0  0  0  0  0  0  0  0  0
   25.0854   -4.0360  -22.4648 O   0  0  0  0  0  0  0  0  0  0  0  0
   25.2454   -4.8285  -21.3185 C   0  0  0  0  0  0  0  0  0  0  0  0
   24.8360   -4.3243  -20.1016 C   0  0  0  0  0  0  0  0  0  0  0  0
   24.9802   -5.0794  -18.9571 C   0  0  0  0  0  0  0  0  0  0  0  0
   25.5331   -6.3574  -18.9744 C   0  0  0  0  0  0  0  0  0  0  0  0
   25.7014   -7.1172  -17.7493 C   0  0  0  0  0  0  0  0  0  0  0  0
   24.5594   -7.9149  -17.2438 C   0  0  2  0  0  0  0  0  0  0  0  0
   24.2121   -8.8387  -18.3432 N   0  0  0  0  0  0  0  0  0  0  0  0
   23.3631   -7.1479  -16.8983 C   0  0  0  0  0  0  0  0  0  0  0  0
   22.5737   -6.8200  -17.8550 O   0  0  0  0  0  0  0  0  0  0  0  0
   25.9300   -6.8281  -20.2029 C   0  0  0  0  0  0  0  0  0  0  0  0
   25.7882   -6.0752  -21.3568 C   0  0  0  0  0  0  0  0  0  0  0  0
   21.0710   -7.5773  -13.5218 C   0  0  0  0  0  0  0  0  0  0  0  0
   20.6838   -6.9730  -14.8248 C   0  0  2  0  0  0  0  0  0  0  0  0
   20.3687   -8.0797  -15.7961 C   0  0  0  0  0  0  0  0  0  0  0  0
   21.7482   -6.0608  -15.4046 C   0  0  2  0  0  0  0  0  0  0  0  0
   23.0024   -6.7421  -15.5789 N   0  0  0  0  0  0  0  0  0  0  0  0
   21.9178   -4.8889  -14.5275 C   0  0  0  0  0  0  0  0  0  0  0  0
   22.9584   -4.7287  -13.8708 O   0  0  0  0  0  0  0  0  0  0  0  0
   20.8994   -3.9158  -14.4108 O   0  0  0  0  0  0  0  0  0  0  0  0
  2  1  1  0
  3  2  1  0
  3  4  1  1
  5  3  1  0
  6  5  2  0
  7  8  1  0
  8  9  2  0
  9 10  1  0
 11 10  2  0
 11 12  1  0
 13 12  1  6
 13 14  1  0
 14  5  1  0
 15 13  1  0
 15 16  2  0
 17 11  1  0
 18 17  2  0
 18  8  1  0
 20 19  1  1
 20 21  1  0
 22 20  1  0
 22 23  1  1
 23 15  1  0
 24 22  1  0
 25 24  2  0
 26 24  1  0
M  END
$$$$
