VWP.pdb
     RDKit          3D

 29 31  0  0  1  0  0  0  0  0999 V2000
   20.2775  -22.6752  -13.5768 C   0  0  0  0  0  0  0  0  0  0  0  0
   21.5960  -22.0671  -13.2342 C   0  0  1  0  0  0  0  0  0  0  0  0
   22.1309  -21.3038  -14.4468 C   0  0  0  0  0  0  0  0  0  0  0  0
   21.5607  -21.1043  -12.0730 C   0  0  2  0  0  0  0  0  0  0  0  0
   20.6099  -20.0470  -12.4545 N   0  0  0  0  0  0  0  0  0  0  0  0
   22.9004  -20.4983  -11.7954 C   0  0  0  0  0  0  0  0  0  0  0  0
   23.1978  -19.4887  -12.4285 O   0  0  0  0  0  0  0  0  0  0  0  0
   23.7452  -21.0846  -10.8515 N   0  0  0  0  0  0  0  0  0  0  0  0
   25.1346  -20.6653  -10.7218 C   0  0  1  0  0  0  0  0  0  0  0  0
   25.7244  -21.2276   -9.4446 C   0  0  0  0  0  0  0  0  0  0  0  0
   26.3690  -20.2099   -8.6119 C   0  0  0  0  0  0  0  0  0  0  0  0
   26.3097  -18.8254   -8.8138 C   0  0  0  0  0  0  0  0  0  0  0  0
   27.0130  -18.2246   -7.8689 N   0  0  0  0  0  0  0  0  0  0  0  0
   27.5621  -19.1250   -7.0143 C   0  0  0  0  0  0  0  0  0  0  0  0
   28.3603  -18.9896   -5.8952 C   0  0  0  0  0  0  0  0  0  0  0  0
   28.7810  -20.1053   -5.2047 C   0  0  0  0  0  0  0  0  0  0  0  0
   28.3893  -21.3380   -5.6545 C   0  0  0  0  0  0  0  0  0  0  0  0
   27.5964  -21.4733   -6.7654 C   0  0  0  0  0  0  0  0  0  0  0  0
   27.1493  -20.3640   -7.4935 C   0  0  0  0  0  0  0  0  0  0  0  0
   25.9403  -21.1108  -11.8611 C   0  0  0  0  0  0  0  0  0  0  0  0
   25.7201  -22.2321  -12.3768 O   0  0  0  0  0  0  0  0  0  0  0  0
   26.9682  -20.3146  -12.4095 N   0  0  0  0  0  0  0  0  0  0  0  0
   27.4716  -19.0499  -11.9448 C   0  0  0  0  0  0  0  0  0  0  0  0
   27.6572  -18.2730  -13.2401 C   0  0  0  0  0  0  0  0  0  0  0  0
   27.8389  -19.3200  -14.3069 C   0  0  0  0  0  0  0  0  0  0  0  0
   27.7705  -20.6384  -13.5994 C   0  0  1  0  0  0  0  0  0  0  0  0
   29.0774  -21.1487  -13.1338 C   0  0  0  0  0  0  0  0  0  0  0  0
   29.2088  -22.3617  -12.8684 O   0  0  0  0  0  0  0  0  0  0  0  0
   30.1900  -20.3354  -12.9718 O   0  0  0  0  0  0  0  0  0  0  0  0
  2  3  1  6
  2  1  1  0
  4  2  1  0
  4  5  1  6
  6  8  1  0
  6  4  1  0
  7  6  2  0
  9  8  1  0
  9 10  1  1
 10 11  1  0
 11 12  2  0
 11 19  1  0
 12 13  1  0
 13 14  1  0
 14 15  2  0
 16 15  1  0
 17 16  2  0
 18 19  2  0
 18 17  1  0
 19 14  1  0
 20 21  2  0
 20  9  1  0
 22 20  1  0
 23 22  1  0
 24 23  1  0
 25 24  1  0
 25 26  1  0
 26 22  1  0
 27 29  1  0
 26 27  1  1
 28 27  2  0
M  END
$$$$
