VWP.pdb
     RDKit          3D

 29 31  0  0  1  0  0  0  0  0999 V2000
   21.8628  -34.2690  -14.8147 C   0  0  0  0  0  0  0  0  0  0  0  0
   23.1671  -34.0922  -15.5169 C   0  0  1  0  0  0  0  0  0  0  0  0
   23.1599  -34.9095  -16.8096 C   0  0  0  0  0  0  0  0  0  0  0  0
   23.4938  -32.6659  -15.8852 C   0  0  2  0  0  0  0  0  0  0  0  0
   24.9351  -32.6466  -16.1842 N   0  0  0  0  0  0  0  0  0  0  0  0
   23.1989  -31.7092  -14.7730 C   0  0  0  0  0  0  0  0  0  0  0  0
   24.0169  -31.6475  -13.8589 O   0  0  0  0  0  0  0  0  0  0  0  0
   22.0352  -30.9392  -14.8100 N   0  0  0  0  0  0  0  0  0  0  0  0
   21.7014  -30.0275  -13.7236 C   0  0  1  0  0  0  0  0  0  0  0  0
   20.7827  -28.9356  -14.2326 C   0  0  0  0  0  0  0  0  0  0  0  0
   20.5885  -27.8511  -13.2677 C   0  0  0  0  0  0  0  0  0  0  0  0
   21.5196  -26.8527  -12.9561 C   0  0  0  0  0  0  0  0  0  0  0  0
   20.9985  -26.0518  -12.0420 N   0  0  0  0  0  0  0  0  0  0  0  0
   19.7449  -26.4436  -11.6993 C   0  0  0  0  0  0  0  0  0  0  0  0
   18.8156  -25.9405  -10.8098 C   0  0  0  0  0  0  0  0  0  0  0  0
   17.5924  -26.5574  -10.6626 C   0  0  0  0  0  0  0  0  0  0  0  0
   17.3274  -27.6704  -11.4150 C   0  0  0  0  0  0  0  0  0  0  0  0
   18.2495  -28.1704  -12.2987 C   0  0  0  0  0  0  0  0  0  0  0  0
   19.5029  -27.5721  -12.4759 C   0  0  0  0  0  0  0  0  0  0  0  0
   21.0491  -30.7272  -12.6143 C   0  0  0  0  0  0  0  0  0  0  0  0
   20.2212  -31.6374  -12.8552 O   0  0  0  0  0  0  0  0  0  0  0  0
   21.3216  -30.4131  -11.2658 N   0  0  0  0  0  0  0  0  0  0  0  0
   22.0985  -29.3253  -10.7347 C   0  0  0  0  0  0  0  0  0  0  0  0
   22.8744  -29.9935   -9.6089 C   0  0  0  0  0  0  0  0  0  0  0  0
   22.0450  -31.1851   -9.2096 C   0  0  0  0  0  0  0  0  0  0  0  0
   20.8344  -31.1523  -10.0909 C   0  0  1  0  0  0  0  0  0  0  0  0
   19.6923  -30.4001   -9.5296 C   0  0  0  0  0  0  0  0  0  0  0  0
   19.4796  -29.2281   -9.9044 O   0  0  0  0  0  0  0  0  0  0  0  0
   18.8253  -30.9369   -8.5885 O   0  0  0  0  0  0  0  0  0  0  0  0
  2  3  1  6
  2  1  1  0
  4  2  1  0
  4  5  1  1
  6  8  1  0
  6  4  1  0
  7  6  2  0
  9  8  1  0
  9 10  1  6
 10 11  1  0
 11 12  2  0
 11 19  1  0
 12 13  1  0
 13 14  1  0
 14 15  2  0
 16 15  1  0
 17 16  2  0
 18 19  2  0
 18 17  1  0
 19 14  1  0
 20 21  2  0
 20  9  1  0
 22 20  1  0
 23 22  1  0
 24 23  1  0
 25 24  1  0
 25 26  1  0
 26 22  1  0
 27 29  1  0
 26 27  1  1
 28 27  2  0
M  END
$$$$
