VWP.pdb
     RDKit          3D

 29 31  0  0  1  0  0  0  0  0999 V2000
   21.7128  -17.8330  -13.1409 C   0  0  0  0  0  0  0  0  0  0  0  0
   22.9909  -18.5148  -12.7844 C   0  0  1  0  0  0  0  0  0  0  0  0
   23.5985  -19.1390  -14.0416 C   0  0  0  0  0  0  0  0  0  0  0  0
   24.0362  -17.6120  -12.1770 C   0  0  2  0  0  0  0  0  0  0  0  0
   24.3655  -16.6211  -13.2147 N   0  0  0  0  0  0  0  0  0  0  0  0
   25.2728  -18.3572  -11.7839 C   0  0  0  0  0  0  0  0  0  0  0  0
   26.2389  -18.2713  -12.5374 O   0  0  0  0  0  0  0  0  0  0  0  0
   25.2872  -19.1054  -10.6055 N   0  0  0  0  0  0  0  0  0  0  0  0
   26.2973  -20.1303  -10.3773 C   0  0  1  0  0  0  0  0  0  0  0  0
   26.1730  -20.6699   -8.9671 C   0  0  0  0  0  0  0  0  0  0  0  0
   26.8038  -19.8090   -7.9642 C   0  0  0  0  0  0  0  0  0  0  0  0
   26.8130  -18.4088   -7.9728 C   0  0  0  0  0  0  0  0  0  0  0  0
   27.4783  -17.9786   -6.9141 N   0  0  0  0  0  0  0  0  0  0  0  0
   27.9355  -19.0137   -6.1644 C   0  0  0  0  0  0  0  0  0  0  0  0
   28.6659  -19.0726   -4.9935 C   0  0  0  0  0  0  0  0  0  0  0  0
   28.9967  -20.2919   -4.4436 C   0  0  0  0  0  0  0  0  0  0  0  0
   28.5853  -21.4304   -5.0836 C   0  0  0  0  0  0  0  0  0  0  0  0
   27.8597  -21.3728   -6.2461 C   0  0  0  0  0  0  0  0  0  0  0  0
   27.5046  -20.1534   -6.8357 C   0  0  0  0  0  0  0  0  0  0  0  0
   26.1673  -21.2362  -11.3291 C   0  0  0  0  0  0  0  0  0  0  0  0
   25.0463  -21.7652  -11.5170 O   0  0  0  0  0  0  0  0  0  0  0  0
   27.2703  -21.7352  -12.0540 N   0  0  0  0  0  0  0  0  0  0  0  0
   28.6381  -21.8710  -11.6305 C   0  0  0  0  0  0  0  0  0  0  0  0
   29.4107  -21.4201  -12.8616 C   0  0  0  0  0  0  0  0  0  0  0  0
   28.4823  -21.6625  -14.0220 C   0  0  0  0  0  0  0  0  0  0  0  0
   27.2374  -22.2500  -13.4317 C   0  0  1  0  0  0  0  0  0  0  0  0
   27.2356  -23.7265  -13.3588 C   0  0  0  0  0  0  0  0  0  0  0  0
   27.1182  -24.3972  -14.4056 O   0  0  0  0  0  0  0  0  0  0  0  0
   27.3594  -24.4226  -12.1649 O   0  0  0  0  0  0  0  0  0  0  0  0
  2  3  1  6
  2  1  1  0
  4  2  1  0
  4  5  1  6
  6  8  1  0
  6  4  1  0
  7  6  2  0
  9  8  1  0
  9 10  1  1
 10 11  1  0
 11 12  2  0
 11 19  1  0
 12 13  1  0
 13 14  1  0
 14 15  2  0
 16 15  1  0
 17 16  2  0
 18 19  2  0
 18 17  1  0
 19 14  1  0
 20 21  2  0
 20  9  1  0
 22 20  1  0
 23 22  1  0
 24 23  1  0
 25 24  1  0
 25 26  1  0
 26 22  1  0
 27 29  1  0
 26 27  1  1
 28 27  2  0
M  END
$$$$
