VWP.pdb
     RDKit          3D

 29 31  0  0  1  0  0  0  0  0999 V2000
   25.8722  -17.5387  -20.7598 C   0  0  0  0  0  0  0  0  0  0  0  0
   25.7015  -18.3797  -19.5395 C   0  0  1  0  0  0  0  0  0  0  0  0
   25.0199  -19.6941  -19.9230 C   0  0  0  0  0  0  0  0  0  0  0  0
   26.9878  -18.7269  -18.8312 C   0  0  2  0  0  0  0  0  0  0  0  0
   27.7859  -19.4974  -19.7990 N   0  0  0  0  0  0  0  0  0  0  0  0
   26.7567  -19.5498  -17.6030 C   0  0  0  0  0  0  0  0  0  0  0  0
   26.7491  -20.7701  -17.7425 O   0  0  0  0  0  0  0  0  0  0  0  0
   26.5627  -18.9205  -16.3722 N   0  0  0  0  0  0  0  0  0  0  0  0
   26.3365  -19.6945  -15.1587 C   0  0  1  0  0  0  0  0  0  0  0  0
   26.5243  -18.8107  -13.9425 C   0  0  0  0  0  0  0  0  0  0  0  0
   26.5834  -19.5638  -12.6878 C   0  0  0  0  0  0  0  0  0  0  0  0
   25.5019  -19.8331  -11.8400 C   0  0  0  0  0  0  0  0  0  0  0  0
   25.9340  -20.5322  -10.8041 N   0  0  0  0  0  0  0  0  0  0  0  0
   27.2687  -20.7649  -10.8877 C   0  0  0  0  0  0  0  0  0  0  0  0
   28.1571  -21.4333  -10.0681 C   0  0  0  0  0  0  0  0  0  0  0  0
   29.4895  -21.5136  -10.4098 C   0  0  0  0  0  0  0  0  0  0  0  0
   29.9028  -20.9190  -11.5719 C   0  0  0  0  0  0  0  0  0  0  0  0
   29.0212  -20.2553  -12.3865 C   0  0  0  0  0  0  0  0  0  0  0  0
   27.6605  -20.1517  -12.0733 C   0  0  0  0  0  0  0  0  0  0  0  0
   24.9906  -20.2720  -15.1310 C   0  0  0  0  0  0  0  0  0  0  0  0
   24.0465  -19.6739  -15.6990 O   0  0  0  0  0  0  0  0  0  0  0  0
   24.7121  -21.4936  -14.4819 N   0  0  0  0  0  0  0  0  0  0  0  0
   25.5413  -22.2393  -13.5735 C   0  0  0  0  0  0  0  0  0  0  0  0
   25.3205  -23.6746  -14.0284 C   0  0  0  0  0  0  0  0  0  0  0  0
   23.9731  -23.6738  -14.7005 C   0  0  0  0  0  0  0  0  0  0  0  0
   23.4665  -22.2682  -14.5957 C   0  0  1  0  0  0  0  0  0  0  0  0
   22.6595  -21.9999  -13.3866 C   0  0  0  0  0  0  0  0  0  0  0  0
   21.4938  -22.4411  -13.3107 O   0  0  0  0  0  0  0  0  0  0  0  0
   23.1368  -21.2683  -12.3084 O   0  0  0  0  0  0  0  0  0  0  0  0
  2  3  1  6
  2  1  1  0
  4  2  1  0
  4  5  1  6
  6  8  1  0
  6  4  1  0
  7  6  2  0
  9  8  1  0
  9 10  1  1
 10 11  1  0
 11 12  2  0
 11 19  1  0
 12 13  1  0
 13 14  1  0
 14 15  2  0
 16 15  1  0
 17 16  2  0
 18 19  2  0
 18 17  1  0
 19 14  1  0
 20 21  2  0
 20  9  1  0
 22 20  1  0
 23 22  1  0
 24 23  1  0
 25 24  1  0
 25 26  1  0
 26 22  1  0
 27 29  1  0
 26 27  1  1
 28 27  2  0
M  END
$$$$
