VWP.pdb
     RDKit          3D

 29 31  0  0  1  0  0  0  0  0999 V2000
   22.2722  -22.0792  -15.2058 C   0  0  0  0  0  0  0  0  0  0  0  0
   21.4066  -21.3725  -14.2175 C   0  0  1  0  0  0  0  0  0  0  0  0
   20.0225  -22.0229  -14.2018 C   0  0  0  0  0  0  0  0  0  0  0  0
   21.9291  -21.3864  -12.8020 C   0  0  2  0  0  0  0  0  0  0  0  0
   20.9546  -20.6236  -12.0048 N   0  0  0  0  0  0  0  0  0  0  0  0
   23.2789  -20.7506  -12.6875 C   0  0  0  0  0  0  0  0  0  0  0  0
   23.3660  -19.5664  -13.0016 O   0  0  0  0  0  0  0  0  0  0  0  0
   24.3652  -21.5040  -12.2394 N   0  0  0  0  0  0  0  0  0  0  0  0
   25.7308  -21.0188  -12.3903 C   0  0  1  0  0  0  0  0  0  0  0  0
   26.6260  -21.6727  -11.3577 C   0  0  0  0  0  0  0  0  0  0  0  0
   26.5757  -21.0120  -10.0517 C   0  0  0  0  0  0  0  0  0  0  0  0
   25.4414  -20.4367   -9.4656 C   0  0  0  0  0  0  0  0  0  0  0  0
   25.7762  -19.9328   -8.2898 N   0  0  0  0  0  0  0  0  0  0  0  0
   27.0931  -20.1290   -8.0256 C   0  0  0  0  0  0  0  0  0  0  0  0
   27.8943  -19.7923   -6.9520 C   0  0  0  0  0  0  0  0  0  0  0  0
   29.2312  -20.1258   -6.9534 C   0  0  0  0  0  0  0  0  0  0  0  0
   29.7369  -20.7930   -8.0369 C   0  0  0  0  0  0  0  0  0  0  0  0
   28.9419  -21.1280   -9.1033 C   0  0  0  0  0  0  0  0  0  0  0  0
   27.5797  -20.8063   -9.1390 C   0  0  0  0  0  0  0  0  0  0  0  0
   26.2566  -21.2972  -13.7289 C   0  0  0  0  0  0  0  0  0  0  0  0
   25.8292  -22.2857  -14.3707 O   0  0  0  0  0  0  0  0  0  0  0  0
   27.2383  -20.4833  -14.3331 N   0  0  0  0  0  0  0  0  0  0  0  0
   28.1681  -19.5811  -13.7083 C   0  0  0  0  0  0  0  0  0  0  0  0
   28.1454  -18.3829  -14.6462 C   0  0  0  0  0  0  0  0  0  0  0  0
   27.7172  -18.9331  -15.9808 C   0  0  0  0  0  0  0  0  0  0  0  0
   27.5287  -20.4045  -15.7731 C   0  0  1  0  0  0  0  0  0  0  0  0
   28.7368  -21.2161  -16.0321 C   0  0  0  0  0  0  0  0  0  0  0  0
   29.3670  -21.7102  -15.0740 O   0  0  0  0  0  0  0  0  0  0  0  0
   29.2192  -21.4638  -17.3094 O   0  0  0  0  0  0  0  0  0  0  0  0
  2  3  1  1
  2  1  1  0
  4  2  1  0
  4  5  1  1
  6  8  1  0
  6  4  1  0
  7  6  2  0
  9  8  1  0
  9 10  1  1
 10 11  1  0
 11 12  2  0
 11 19  1  0
 12 13  1  0
 13 14  1  0
 14 15  2  0
 16 15  1  0
 17 16  2  0
 18 19  2  0
 18 17  1  0
 19 14  1  0
 20 21  2  0
 20  9  1  0
 22 20  1  0
 23 22  1  0
 24 23  1  0
 25 24  1  0
 25 26  1  0
 26 22  1  0
 27 29  1  0
 26 27  1  1
 28 27  2  0
M  END
$$$$
