VWP.pdb
     RDKit          3D

 29 31  0  0  1  0  0  0  0  0999 V2000
   14.2333  -20.7408    1.6832 C   0  0  0  0  0  0  0  0  0  0  0  0
   15.5154  -20.6081    2.4342 C   0  0  1  0  0  0  0  0  0  0  0  0
   16.5772  -19.9982    1.5177 C   0  0  0  0  0  0  0  0  0  0  0  0
   15.4335  -19.7447    3.6689 C   0  0  2  0  0  0  0  0  0  0  0  0
   14.7992  -18.4872    3.2404 N   0  0  0  0  0  0  0  0  0  0  0  0
   16.7813  -19.4543    4.2505 C   0  0  0  0  0  0  0  0  0  0  0  0
   17.4610  -20.4188    4.5919 O   0  0  0  0  0  0  0  0  0  0  0  0
   17.2103  -18.1326    4.3825 N   0  0  0  0  0  0  0  0  0  0  0  0
   18.4589  -17.8108    5.0610 C   0  0  1  0  0  0  0  0  0  0  0  0
   19.1520  -16.6678    4.3479 C   0  0  0  0  0  0  0  0  0  0  0  0
   18.5926  -15.3567    4.6835 C   0  0  0  0  0  0  0  0  0  0  0  0
   17.2765  -14.9406    4.4473 C   0  0  0  0  0  0  0  0  0  0  0  0
   17.1366  -13.6984    4.8784 N   0  0  0  0  0  0  0  0  0  0  0  0
   18.2944  -13.2255    5.4060 C   0  0  0  0  0  0  0  0  0  0  0  0
   18.6412  -12.0140    5.9715 C   0  0  0  0  0  0  0  0  0  0  0  0
   19.9223  -11.8066    6.4345 C   0  0  0  0  0  0  0  0  0  0  0  0
   20.8312  -12.8244    6.3195 C   0  0  0  0  0  0  0  0  0  0  0  0
   20.4875  -14.0279    5.7584 C   0  0  0  0  0  0  0  0  0  0  0  0
   19.1967  -14.2764    5.2763 C   0  0  0  0  0  0  0  0  0  0  0  0
   18.2317  -17.4387    6.4594 C   0  0  0  0  0  0  0  0  0  0  0  0
   17.1043  -17.0218    6.8158 O   0  0  0  0  0  0  0  0  0  0  0  0
   19.2466  -17.5343    7.4352 N   0  0  0  0  0  0  0  0  0  0  0  0
   20.6388  -17.8488    7.2573 C   0  0  0  0  0  0  0  0  0  0  0  0
   20.9200  -18.7751    8.4316 C   0  0  0  0  0  0  0  0  0  0  0  0
   19.8922  -18.4179    9.4723 C   0  0  0  0  0  0  0  0  0  0  0  0
   19.0812  -17.3071    8.8792 C   0  0  1  0  0  0  0  0  0  0  0  0
   19.5902  -15.9525    9.1813 C   0  0  0  0  0  0  0  0  0  0  0  0
   20.3640  -15.3895    8.3790 O   0  0  0  0  0  0  0  0  0  0  0  0
   19.2481  -15.2578   10.3328 O   0  0  0  0  0  0  0  0  0  0  0  0
  2  3  1  6
  2  1  1  0
  4  2  1  0
  4  5  1  6
  6  8  1  0
  6  4  1  0
  7  6  2  0
  9  8  1  0
  9 10  1  6
 10 11  1  0
 11 12  2  0
 11 19  1  0
 12 13  1  0
 13 14  1  0
 14 15  2  0
 16 15  1  0
 17 16  2  0
 18 19  2  0
 18 17  1  0
 19 14  1  0
 20 21  2  0
 20  9  1  0
 22 20  1  0
 23 22  1  0
 24 23  1  0
 25 24  1  0
 25 26  1  0
 26 22  1  0
 27 29  1  0
 26 27  1  6
 28 27  2  0
M  END
$$$$
