DEF.pdb
     RDKit          3D

 29 29  0  0  1  0  0  0  0  0999 V2000
   27.8542  -32.4522  -17.5970 N   0  0  0  0  0  0  0  0  0  0  0  0
   28.3601  -32.9656  -16.3382 C   0  0  1  0  0  0  0  0  0  0  0  0
   29.1525  -31.8699  -15.6832 C   0  0  0  0  0  0  0  0  0  0  0  0
   30.5629  -31.9846  -16.1891 C   0  0  0  0  0  0  0  0  0  0  0  0
   30.8872  -31.5730  -17.3474 O   0  0  0  0  0  0  0  0  0  0  0  0
   27.2747  -33.4885  -15.4902 C   0  0  0  0  0  0  0  0  0  0  0  0
   26.1126  -32.9979  -15.6196 O   0  0  0  0  0  0  0  0  0  0  0  0
   31.5791  -32.5410  -15.4268 O   0  0  0  0  0  0  0  0  0  0  0  0
   27.4333  -34.5093  -14.5304 N   0  0  0  0  0  0  0  0  0  0  0  0
   26.3650  -35.0351  -13.6971 C   0  0  1  0  0  0  0  0  0  0  0  0
   26.0550  -36.4634  -13.9916 C   0  0  0  0  0  0  0  0  0  0  0  0
   25.1725  -36.7285  -15.1515 C   0  0  0  0  0  0  0  0  0  0  0  0
   24.8403  -38.1562  -15.2933 C   0  0  0  0  0  0  0  0  0  0  0  0
   24.1695  -38.7956  -14.4788 O   0  0  0  0  0  0  0  0  0  0  0  0
   26.6818  -34.8617  -12.2514 C   0  0  0  0  0  0  0  0  0  0  0  0
   27.8228  -35.1813  -11.8524 O   0  0  0  0  0  0  0  0  0  0  0  0
   25.3088  -38.8559  -16.4246 O   0  0  0  0  0  0  0  0  0  0  0  0
   25.7595  -34.3550  -11.3086 N   0  0  0  0  0  0  0  0  0  0  0  0
   26.0773  -34.1818   -9.9155 C   0  0  1  0  0  0  0  0  0  0  0  0
   26.1247  -32.7339   -9.4949 C   0  0  0  0  0  0  0  0  0  0  0  0
   26.4615  -32.5804   -8.0592 C   0  0  0  0  0  0  0  0  0  0  0  0
   27.7023  -32.8609   -7.5294 C   0  0  0  0  0  0  0  0  0  0  0  0
   27.9960  -32.7126   -6.1923 C   0  0  0  0  0  0  0  0  0  0  0  0
   27.0216  -32.2649   -5.3248 C   0  0  0  0  0  0  0  0  0  0  0  0
   25.7746  -31.9798   -5.8395 C   0  0  0  0  0  0  0  0  0  0  0  0
   25.4949  -32.1326   -7.1782 C   0  0  0  0  0  0  0  0  0  0  0  0
   25.0903  -34.8979   -9.0419 C   0  0  0  0  0  0  0  0  0  0  0  0
   23.8620  -34.6615   -9.1127 O   0  0  0  0  0  0  0  0  0  0  0  0
   25.4917  -35.8511   -8.1190 O   0  0  0  0  0  0  0  0  0  0  0  0
  2  3  1  0
  2  1  1  6
  3  4  1  0
  4  5  2  0
  4  8  1  0
  6  2  1  0
  7  6  2  0
  9  6  1  0
 10  9  1  0
 10 11  1  1
 12 11  1  0
 13 12  1  0
 13 14  2  0
 15 18  1  0
 15 10  1  0
 16 15  2  0
 17 13  1  0
 19 18  1  0
 19 20  1  1
 21 26  2  0
 21 20  1  0
 22 21  1  0
 23 24  1  0
 23 22  2  0
 24 25  2  0
 25 26  1  0
 27 19  1  0
 28 27  2  0
 29 27  1  0
M  END
$$$$
