DEF.pdb
     RDKit          3D

 29 29  0  0  1  0  0  0  0  0999 V2000
   19.5328  -11.3019  -19.0353 N   0  0  0  0  0  0  0  0  0  0  0  0
   19.5398  -11.3591  -17.5859 C   0  0  1  0  0  0  0  0  0  0  0  0
   20.8312  -11.9985  -17.1601 C   0  0  0  0  0  0  0  0  0  0  0  0
   20.7468  -13.4514  -17.5347 C   0  0  0  0  0  0  0  0  0  0  0  0
   19.6502  -14.0909  -17.4666 O   0  0  0  0  0  0  0  0  0  0  0  0
   19.3218  -10.0297  -16.9894 C   0  0  0  0  0  0  0  0  0  0  0  0
   19.9077   -9.0296  -17.5037 O   0  0  0  0  0  0  0  0  0  0  0  0
   21.8510  -14.1678  -17.9714 O   0  0  0  0  0  0  0  0  0  0  0  0
   18.4978   -9.7819  -15.8723 N   0  0  0  0  0  0  0  0  0  0  0  0
   18.2943   -8.4762  -15.2673 C   0  0  1  0  0  0  0  0  0  0  0  0
   17.0105   -8.3840  -14.5150 C   0  0  0  0  0  0  0  0  0  0  0  0
   15.8083   -8.0033  -15.2922 C   0  0  0  0  0  0  0  0  0  0  0  0
   14.5585   -8.4491  -14.6533 C   0  0  0  0  0  0  0  0  0  0  0  0
   14.5070   -9.0538  -13.5790 O   0  0  0  0  0  0  0  0  0  0  0  0
   19.4387   -8.1132  -14.3846 C   0  0  0  0  0  0  0  0  0  0  0  0
   19.7301   -8.8849  -13.4450 O   0  0  0  0  0  0  0  0  0  0  0  0
   13.3314   -8.1781  -15.2933 O   0  0  0  0  0  0  0  0  0  0  0  0
   20.2109   -6.9423  -14.5547 N   0  0  0  0  0  0  0  0  0  0  0  0
   21.3145   -6.5992  -13.6967 C   0  0  1  0  0  0  0  0  0  0  0  0
   22.5785   -7.3527  -14.0286 C   0  0  0  0  0  0  0  0  0  0  0  0
   23.0810   -7.0296  -15.3855 C   0  0  0  0  0  0  0  0  0  0  0  0
   23.6582   -5.8243  -15.7216 C   0  0  0  0  0  0  0  0  0  0  0  0
   24.1186   -5.5423  -16.9884 C   0  0  0  0  0  0  0  0  0  0  0  0
   24.0082   -6.4925  -17.9821 C   0  0  0  0  0  0  0  0  0  0  0  0
   23.4328   -7.7040  -17.6617 C   0  0  0  0  0  0  0  0  0  0  0  0
   22.9769   -7.9722  -16.3914 C   0  0  0  0  0  0  0  0  0  0  0  0
   21.6089   -5.1296  -13.7545 C   0  0  0  0  0  0  0  0  0  0  0  0
   20.9900   -4.3687  -14.5342 O   0  0  0  0  0  0  0  0  0  0  0  0
   22.5763   -4.5482  -12.9499 O   0  0  0  0  0  0  0  0  0  0  0  0
  2  3  1  0
  2  1  1  6
  3  4  1  0
  4  5  2  0
  4  8  1  0
  6  2  1  0
  7  6  2  0
  9  6  1  0
 10  9  1  0
 10 11  1  1
 12 11  1  0
 13 12  1  0
 13 14  2  0
 15 18  1  0
 15 10  1  0
 16 15  2  0
 17 13  1  0
 19 18  1  0
 19 20  1  6
 21 26  2  0
 21 20  1  0
 22 21  1  0
 23 24  1  0
 23 22  2  0
 24 25  2  0
 25 26  1  0
 27 19  1  0
 28 27  2  0
 29 27  1  0
M  END
$$$$
