DEF.pdb
     RDKit          3D

 29 29  0  0  1  0  0  0  0  0999 V2000
   20.2320  -20.0536  -17.0835 N   0  0  0  0  0  0  0  0  0  0  0  0
   20.4041  -19.8744  -15.6544 C   0  0  1  0  0  0  0  0  0  0  0  0
   19.1529  -20.3602  -14.9790 C   0  0  0  0  0  0  0  0  0  0  0  0
   18.0272  -19.4883  -15.4593 C   0  0  0  0  0  0  0  0  0  0  0  0
   16.8474  -19.9426  -15.5929 O   0  0  0  0  0  0  0  0  0  0  0  0
   21.6260  -20.5381  -15.1676 C   0  0  0  0  0  0  0  0  0  0  0  0
   21.8136  -20.6235  -13.9164 O   0  0  0  0  0  0  0  0  0  0  0  0
   18.2120  -18.1518  -15.7802 O   0  0  0  0  0  0  0  0  0  0  0  0
   22.6180  -21.0942  -16.0013 N   0  0  0  0  0  0  0  0  0  0  0  0
   23.8361  -21.7299  -15.5276 C   0  0  1  0  0  0  0  0  0  0  0  0
   24.4417  -22.6407  -16.5407 C   0  0  0  0  0  0  0  0  0  0  0  0
   25.7583  -23.2304  -16.2044 C   0  0  0  0  0  0  0  0  0  0  0  0
   26.2952  -24.0686  -17.2899 C   0  0  0  0  0  0  0  0  0  0  0  0
   26.3645  -23.7137  -18.4695 O   0  0  0  0  0  0  0  0  0  0  0  0
   24.8315  -20.7126  -15.0857 C   0  0  0  0  0  0  0  0  0  0  0  0
   24.9093  -19.6423  -15.7272 O   0  0  0  0  0  0  0  0  0  0  0  0
   26.7653  -25.3623  -16.9832 O   0  0  0  0  0  0  0  0  0  0  0  0
   25.6913  -20.8954  -13.9796 N   0  0  0  0  0  0  0  0  0  0  0  0
   26.6838  -19.9286  -13.5896 C   0  0  1  0  0  0  0  0  0  0  0  0
   26.2043  -18.9915  -12.5091 C   0  0  0  0  0  0  0  0  0  0  0  0
   25.7851  -19.7174  -11.2863 C   0  0  0  0  0  0  0  0  0  0  0  0
   24.5085  -20.1922  -11.0772 C   0  0  0  0  0  0  0  0  0  0  0  0
   24.1377  -20.8641   -9.9339 C   0  0  0  0  0  0  0  0  0  0  0  0
   25.0677  -21.0838   -8.9392 C   0  0  0  0  0  0  0  0  0  0  0  0
   26.3498  -20.6149   -9.1333 C   0  0  0  0  0  0  0  0  0  0  0  0
   26.7065  -19.9449  -10.2811 C   0  0  0  0  0  0  0  0  0  0  0  0
   27.9370  -20.6011  -13.1131 C   0  0  0  0  0  0  0  0  0  0  0  0
   27.9476  -21.8117  -12.7903 O   0  0  0  0  0  0  0  0  0  0  0  0
   29.1371  -19.9153  -13.0087 O   0  0  0  0  0  0  0  0  0  0  0  0
  2  3  1  0
  2  1  1  6
  3  4  1  0
  4  5  2  0
  4  8  1  0
  6  2  1  0
  7  6  2  0
  9  6  1  0
 10  9  1  0
 10 11  1  6
 12 11  1  0
 13 12  1  0
 13 14  2  0
 15 18  1  0
 15 10  1  0
 16 15  2  0
 17 13  1  0
 19 18  1  0
 19 20  1  1
 21 26  2  0
 21 20  1  0
 22 21  1  0
 23 24  1  0
 23 22  2  0
 24 25  2  0
 25 26  1  0
 27 19  1  0
 28 27  2  0
 29 27  1  0
M  END
$$$$
