DEF.pdb
     RDKit          3D

 29 29  0  0  1  0  0  0  0  0999 V2000
   29.1530  -20.1443  -17.4469 N   0  0  0  0  0  0  0  0  0  0  0  0
   27.7034  -20.1675  -17.4960 C   0  0  1  0  0  0  0  0  0  0  0  0
   27.2853  -21.5134  -18.0171 C   0  0  0  0  0  0  0  0  0  0  0  0
   27.3639  -21.4481  -19.5164 C   0  0  0  0  0  0  0  0  0  0  0  0
   26.5933  -20.6926  -20.1883 O   0  0  0  0  0  0  0  0  0  0  0  0
   27.1109  -19.8378  -16.1880 C   0  0  0  0  0  0  0  0  0  0  0  0
   27.7830  -19.1312  -15.3774 O   0  0  0  0  0  0  0  0  0  0  0  0
   28.2735  -22.2020  -20.2427 O   0  0  0  0  0  0  0  0  0  0  0  0
   25.8328  -20.2552  -15.7631 N   0  0  0  0  0  0  0  0  0  0  0  0
   25.1951  -19.8383  -14.5255 C   0  0  1  0  0  0  0  0  0  0  0  0
   23.7203  -19.6706  -14.6659 C   0  0  0  0  0  0  0  0  0  0  0  0
   22.9709  -19.3093  -13.4403 C   0  0  0  0  0  0  0  0  0  0  0  0
   21.5132  -19.3077  -13.6498 C   0  0  0  0  0  0  0  0  0  0  0  0
   20.7225  -20.0185  -13.0237 O   0  0  0  0  0  0  0  0  0  0  0  0
   25.5050  -20.7878  -13.4196 C   0  0  0  0  0  0  0  0  0  0  0  0
   25.5298  -22.0108  -13.6784 O   0  0  0  0  0  0  0  0  0  0  0  0
   20.9654  -18.4466  -14.6231 O   0  0  0  0  0  0  0  0  0  0  0  0
   25.7722  -20.3773  -12.0944 N   0  0  0  0  0  0  0  0  0  0  0  0
   25.9623  -21.3041  -11.0096 C   0  0  1  0  0  0  0  0  0  0  0  0
   27.3106  -21.1701  -10.3464 C   0  0  0  0  0  0  0  0  0  0  0  0
   27.2412  -20.3763   -9.0961 C   0  0  0  0  0  0  0  0  0  0  0  0
   26.7060  -20.8489   -7.9175 C   0  0  0  0  0  0  0  0  0  0  0  0
   26.6498  -20.0959   -6.7660 C   0  0  0  0  0  0  0  0  0  0  0  0
   27.1449  -18.8085   -6.7673 C   0  0  0  0  0  0  0  0  0  0  0  0
   27.6840  -18.3208   -7.9391 C   0  0  0  0  0  0  0  0  0  0  0  0
   27.7336  -19.0846   -9.0827 C   0  0  0  0  0  0  0  0  0  0  0  0
   24.9002  -21.1386   -9.9634 C   0  0  0  0  0  0  0  0  0  0  0  0
   24.1333  -20.1478   -9.9608 O   0  0  0  0  0  0  0  0  0  0  0  0
   24.7194  -22.0722   -8.9549 O   0  0  0  0  0  0  0  0  0  0  0  0
  2  3  1  0
  2  1  1  1
  3  4  1  0
  4  5  2  0
  4  8  1  0
  6  2  1  0
  7  6  2  0
  9  6  1  0
 10  9  1  0
 10 11  1  6
 12 11  1  0
 13 12  1  0
 13 14  2  0
 15 18  1  0
 15 10  1  0
 16 15  2  0
 17 13  1  0
 19 18  1  0
 19 20  1  1
 21 26  2  0
 21 20  1  0
 22 21  1  0
 23 24  1  0
 23 22  2  0
 24 25  2  0
 25 26  1  0
 27 19  1  0
 28 27  2  0
 29 27  1  0
M  END
$$$$
