DEF.pdb
     RDKit          3D

 29 29  0  0  1  0  0  0  0  0999 V2000
   23.6507  -12.7662  -20.4074 N   0  0  0  0  0  0  0  0  0  0  0  0
   22.6350  -12.6307  -19.3806 C   0  0  1  0  0  0  0  0  0  0  0  0
   23.0623  -13.4602  -18.2029 C   0  0  0  0  0  0  0  0  0  0  0  0
   22.8839  -14.9007  -18.5919 C   0  0  0  0  0  0  0  0  0  0  0  0
   22.2962  -15.2281  -19.6706 O   0  0  0  0  0  0  0  0  0  0  0  0
   22.3910  -11.2177  -19.0421 C   0  0  0  0  0  0  0  0  0  0  0  0
   23.3489  -10.3935  -19.1479 O   0  0  0  0  0  0  0  0  0  0  0  0
   23.3466  -15.9427  -17.8023 O   0  0  0  0  0  0  0  0  0  0  0  0
   21.1532  -10.7049  -18.6024 N   0  0  0  0  0  0  0  0  0  0  0  0
   20.8983   -9.3073  -18.2960 C   0  0  1  0  0  0  0  0  0  0  0  0
   19.4686   -8.9284  -18.4833 C   0  0  0  0  0  0  0  0  0  0  0  0
   19.1089   -7.5206  -18.1952 C   0  0  0  0  0  0  0  0  0  0  0  0
   17.7061   -7.3716  -17.7723 C   0  0  0  0  0  0  0  0  0  0  0  0
   17.1617   -6.2874  -17.5476 O   0  0  0  0  0  0  0  0  0  0  0  0
   21.3452   -8.9741  -16.9140 C   0  0  0  0  0  0  0  0  0  0  0  0
   21.2218   -9.8450  -16.0253 O   0  0  0  0  0  0  0  0  0  0  0  0
   16.9172   -8.5289  -17.6077 O   0  0  0  0  0  0  0  0  0  0  0  0
   21.9008   -7.7253  -16.5564 N   0  0  0  0  0  0  0  0  0  0  0  0
   22.3176   -7.4074  -15.2158 C   0  0  1  0  0  0  0  0  0  0  0  0
   23.7840   -7.6668  -14.9750 C   0  0  0  0  0  0  0  0  0  0  0  0
   24.6463   -6.9115  -15.9152 C   0  0  0  0  0  0  0  0  0  0  0  0
   25.1803   -7.4500  -17.0658 C   0  0  0  0  0  0  0  0  0  0  0  0
   25.9800   -6.7323  -17.9269 C   0  0  0  0  0  0  0  0  0  0  0  0
   26.2738   -5.4141  -17.6471 C   0  0  0  0  0  0  0  0  0  0  0  0
   25.7469   -4.8604  -16.4994 C   0  0  0  0  0  0  0  0  0  0  0  0
   24.9491   -5.5894  -15.6476 C   0  0  0  0  0  0  0  0  0  0  0  0
   22.0285   -5.9733  -14.8846 C   0  0  0  0  0  0  0  0  0  0  0  0
   21.6631   -5.1596  -15.7644 O   0  0  0  0  0  0  0  0  0  0  0  0
   22.1522   -5.4848  -13.5933 O   0  0  0  0  0  0  0  0  0  0  0  0
  2  3  1  0
  2  1  1  6
  3  4  1  0
  4  5  2  0
  4  8  1  0
  6  2  1  0
  7  6  2  0
  9  6  1  0
 10  9  1  0
 10 11  1  1
 12 11  1  0
 13 12  1  0
 13 14  2  0
 15 18  1  0
 15 10  1  0
 16 15  2  0
 17 13  1  0
 19 18  1  0
 19 20  1  6
 21 26  2  0
 21 20  1  0
 22 21  1  0
 23 24  1  0
 23 22  2  0
 24 25  2  0
 25 26  1  0
 27 19  1  0
 28 27  2  0
 29 27  1  0
M  END
$$$$
