GLF.pdb
     RDKit          3D

 24 24  0  0  1  0  0  0  0  0999 V2000
   22.4672  -16.6161  -16.2053 N   0  0  0  0  0  0  0  0  0  0  0  0
   23.0682  -17.2444  -15.0593 C   0  0  0  0  0  0  0  0  0  0  0  0
   23.8623  -18.4493  -15.4622 C   0  0  0  0  0  0  0  0  0  0  0  0
   23.2638  -19.4137  -16.0061 O   0  0  0  0  0  0  0  0  0  0  0  0
   29.5262  -17.8823  -16.0847 C   0  0  0  0  0  0  0  0  0  0  0  0
   28.0239  -18.0139  -16.0414 C   0  0  1  0  0  0  0  0  0  0  0  0
   27.5345  -17.7805  -17.4790 C   0  0  0  0  0  0  0  0  0  0  0  0
   27.5474  -19.3591  -15.6435 C   0  0  0  0  0  0  0  0  0  0  0  0
   26.0797  -19.5898  -15.6280 C   0  0  2  0  0  0  0  0  0  0  0  0
   25.2649  -18.4864  -15.2274 N   0  0  0  0  0  0  0  0  0  0  0  0
   25.8581  -20.7704  -14.7066 C   0  0  0  0  0  0  0  0  0  0  0  0
   26.1685  -21.9156  -15.1194 O   0  0  0  0  0  0  0  0  0  0  0  0
   25.3223  -20.6388  -13.4151 N   0  0  0  0  0  0  0  0  0  0  0  0
   24.7041  -21.7348  -12.6871 C   0  0  1  0  0  0  0  0  0  0  0  0
   25.7529  -22.1930  -11.6651 C   0  0  0  0  0  0  0  0  0  0  0  0
   25.8287  -21.1424  -10.6346 C   0  0  0  0  0  0  0  0  0  0  0  0
   26.8022  -20.1701  -10.7221 C   0  0  0  0  0  0  0  0  0  0  0  0
   26.9073  -19.1695   -9.7785 C   0  0  0  0  0  0  0  0  0  0  0  0
   26.0376  -19.1032   -8.7056 C   0  0  0  0  0  0  0  0  0  0  0  0
   25.0704  -20.0879   -8.6385 C   0  0  0  0  0  0  0  0  0  0  0  0
   24.9437  -21.0942   -9.5634 C   0  0  0  0  0  0  0  0  0  0  0  0
   23.5294  -21.3036  -11.9202 C   0  0  0  0  0  0  0  0  0  0  0  0
   22.7333  -22.2721  -11.3269 O   0  0  0  0  0  0  0  0  0  0  0  0
   23.2201  -20.1080  -11.7815 O   0  0  0  0  0  0  0  0  0  0  0  0
  1  2  1  0
  3  4  2  0
  3  2  1  0
  6  5  1  6
  6  8  1  0
  7  6  1  0
  9  8  1  1
  9 11  1  0
  9 10  1  0
 10  3  1  0
 11 12  2  0
 13 11  1  0
 13 14  1  0
 14 15  1  1
 14 22  1  0
 16 15  1  0
 17 16  2  0
 18 17  1  0
 19 20  1  0
 19 18  2  0
 20 21  2  0
 21 16  1  0
 22 24  2  0
 22 23  1  0
M  END
$$$$
