GLF.pdb
     RDKit          3D

 24 24  0  0  1  0  0  0  0  0999 V2000
   21.4973  -21.4802  -13.6676 N   0  0  0  0  0  0  0  0  0  0  0  0
   21.9024  -20.4844  -12.7117 C   0  0  0  0  0  0  0  0  0  0  0  0
   23.1665  -20.8895  -12.0172 C   0  0  0  0  0  0  0  0  0  0  0  0
   23.1626  -21.9339  -11.3148 O   0  0  0  0  0  0  0  0  0  0  0  0
   28.3315  -19.5049  -14.1169 C   0  0  0  0  0  0  0  0  0  0  0  0
   27.0603  -20.1266  -13.5937 C   0  0  1  0  0  0  0  0  0  0  0  0
   27.2373  -21.6457  -13.7407 C   0  0  0  0  0  0  0  0  0  0  0  0
   26.8078  -19.8654  -12.1575 C   0  0  0  0  0  0  0  0  0  0  0  0
   25.5848  -20.4582  -11.5573 C   0  0  2  0  0  0  0  0  0  0  0  0
   24.3399  -20.0978  -12.1594 N   0  0  0  0  0  0  0  0  0  0  0  0
   25.6024  -20.0510  -10.0993 C   0  0  0  0  0  0  0  0  0  0  0  0
   25.0679  -18.9605   -9.7782 O   0  0  0  0  0  0  0  0  0  0  0  0
   26.1892  -20.8385   -9.0953 N   0  0  0  0  0  0  0  0  0  0  0  0
   26.4324  -20.3645   -7.7428 C   0  0  1  0  0  0  0  0  0  0  0  0
   27.3544  -21.4095   -7.1004 C   0  0  0  0  0  0  0  0  0  0  0  0
   27.9366  -20.7817   -5.9011 C   0  0  0  0  0  0  0  0  0  0  0  0
   29.1828  -20.1964   -5.9744 C   0  0  0  0  0  0  0  0  0  0  0  0
   29.7631  -19.5984   -4.8753 C   0  0  0  0  0  0  0  0  0  0  0  0
   29.1153  -19.5630   -3.6542 C   0  0  0  0  0  0  0  0  0  0  0  0
   27.8679  -20.1557   -3.6044 C   0  0  0  0  0  0  0  0  0  0  0  0
   27.2679  -20.7572   -4.6824 C   0  0  0  0  0  0  0  0  0  0  0  0
   27.1602  -19.0903   -7.7199 C   0  0  0  0  0  0  0  0  0  0  0  0
   26.7810  -18.1270   -6.7968 O   0  0  0  0  0  0  0  0  0  0  0  0
   28.1006  -18.8403   -8.4930 O   0  0  0  0  0  0  0  0  0  0  0  0
  1  2  1  0
  3  4  2  0
  3  2  1  0
  6  5  1  1
  6  8  1  0
  7  6  1  0
  9  8  1  6
  9 11  1  0
  9 10  1  0
 10  3  1  0
 11 12  2  0
 13 11  1  0
 13 14  1  0
 14 15  1  1
 14 22  1  0
 16 15  1  0
 17 16  2  0
 18 17  1  0
 19 20  1  0
 19 18  2  0
 20 21  2  0
 21 16  1  0
 22 24  2  0
 22 23  1  0
M  END
$$$$
