GLF.pdb
     RDKit          3D

 24 24  0  0  1  0  0  0  0  0999 V2000
   15.1420  -24.4475   -2.4784 N   0  0  0  0  0  0  0  0  0  0  0  0
   14.7108  -23.2345   -1.8365 C   0  0  0  0  0  0  0  0  0  0  0  0
   15.5922  -22.9006   -0.6719 C   0  0  0  0  0  0  0  0  0  0  0  0
   16.7255  -23.4428   -0.5962 O   0  0  0  0  0  0  0  0  0  0  0  0
   18.1520  -19.4657    2.4048 C   0  0  0  0  0  0  0  0  0  0  0  0
   16.6999  -19.5388    2.8075 C   0  0  1  0  0  0  0  0  0  0  0  0
   16.2556  -18.0904    3.0632 C   0  0  0  0  0  0  0  0  0  0  0  0
   15.8081  -20.0770    1.7540 C   0  0  0  0  0  0  0  0  0  0  0  0
   15.9966  -21.4958    1.3550 C   0  0  2  0  0  0  0  0  0  0  0  0
   15.1415  -21.9863    0.3205 N   0  0  0  0  0  0  0  0  0  0  0  0
   15.8125  -22.3072    2.6198 C   0  0  0  0  0  0  0  0  0  0  0  0
   14.6484  -22.4590    3.0668 O   0  0  0  0  0  0  0  0  0  0  0  0
   16.8847  -22.8947    3.3109 N   0  0  0  0  0  0  0  0  0  0  0  0
   16.7306  -23.6330    4.5537 C   0  0  1  0  0  0  0  0  0  0  0  0
   17.2941  -25.0324    4.2732 C   0  0  0  0  0  0  0  0  0  0  0  0
   18.5141  -24.8452    3.4683 C   0  0  0  0  0  0  0  0  0  0  0  0
   18.4649  -25.0282    2.1027 C   0  0  0  0  0  0  0  0  0  0  0  0
   19.5840  -24.8629    1.3134 C   0  0  0  0  0  0  0  0  0  0  0  0
   20.8015  -24.5062    1.8633 C   0  0  0  0  0  0  0  0  0  0  0  0
   20.8268  -24.3283    3.2335 C   0  0  0  0  0  0  0  0  0  0  0  0
   19.7287  -24.4863    4.0417 C   0  0  0  0  0  0  0  0  0  0  0  0
   17.5339  -23.0663    5.6433 C   0  0  0  0  0  0  0  0  0  0  0  0
   17.4200  -23.6222    6.9089 O   0  0  0  0  0  0  0  0  0  0  0  0
   18.3105  -22.1103    5.4777 O   0  0  0  0  0  0  0  0  0  0  0  0
  1  2  1  0
  3  4  2  0
  3  2  1  0
  6  5  1  6
  6  8  1  0
  7  6  1  0
  9  8  1  1
  9 11  1  0
  9 10  1  0
 10  3  1  0
 11 12  2  0
 13 11  1  0
 13 14  1  0
 14 15  1  6
 14 22  1  0
 16 15  1  0
 17 16  2  0
 18 17  1  0
 19 20  1  0
 19 18  2  0
 20 21  2  0
 21 16  1  0
 22 24  2  0
 22 23  1  0
M  END
$$$$
