GLF.pdb
     RDKit          3D

 24 24  0  0  1  0  0  0  0  0999 V2000
   14.5165  -11.8189  -16.7906 N   0  0  0  0  0  0  0  0  0  0  0  0
   13.9054  -10.9401  -15.8296 C   0  0  0  0  0  0  0  0  0  0  0  0
   14.3295   -9.5208  -16.0539 C   0  0  0  0  0  0  0  0  0  0  0  0
   15.0345   -9.2523  -17.0613 O   0  0  0  0  0  0  0  0  0  0  0  0
   10.9358   -5.3254  -14.3557 C   0  0  0  0  0  0  0  0  0  0  0  0
   11.8509   -6.2221  -15.1525 C   0  0  1  0  0  0  0  0  0  0  0  0
   11.7867   -5.7160  -16.6018 C   0  0  0  0  0  0  0  0  0  0  0  0
   13.2723   -6.1523  -14.7407 C   0  0  0  0  0  0  0  0  0  0  0  0
   14.2129   -7.1239  -15.3561 C   0  0  2  0  0  0  0  0  0  0  0  0
   13.9344   -8.5081  -15.1361 N   0  0  0  0  0  0  0  0  0  0  0  0
   15.5824   -6.7698  -14.8164 C   0  0  0  0  0  0  0  0  0  0  0  0
   15.8518   -7.0737  -13.6277 O   0  0  0  0  0  0  0  0  0  0  0  0
   16.5596   -6.1184  -15.5866 N   0  0  0  0  0  0  0  0  0  0  0  0
   17.8786   -5.7715  -15.0833 C   0  0  1  0  0  0  0  0  0  0  0  0
   18.8177   -5.8633  -16.2933 C   0  0  0  0  0  0  0  0  0  0  0  0
   20.1501   -5.4378  -15.8297 C   0  0  0  0  0  0  0  0  0  0  0  0
   20.9708   -6.3425  -15.1904 C   0  0  0  0  0  0  0  0  0  0  0  0
   22.2249   -5.9846  -14.7411 C   0  0  0  0  0  0  0  0  0  0  0  0
   22.7082   -4.7009  -14.9152 C   0  0  0  0  0  0  0  0  0  0  0  0
   21.8685   -3.8115  -15.5583 C   0  0  0  0  0  0  0  0  0  0  0  0
   20.6168   -4.1413  -16.0150 C   0  0  0  0  0  0  0  0  0  0  0  0
   17.9462   -4.3867  -14.6020 C   0  0  0  0  0  0  0  0  0  0  0  0
   18.8009   -4.0918  -13.5501 O   0  0  0  0  0  0  0  0  0  0  0  0
   17.2699   -3.4698  -15.0981 O   0  0  0  0  0  0  0  0  0  0  0  0
  1  2  1  0
  3  4  2  0
  3  2  1  0
  6  5  1  1
  6  8  1  0
  7  6  1  0
  9  8  1  1
  9 11  1  0
  9 10  1  0
 10  3  1  0
 11 12  2  0
 13 11  1  0
 13 14  1  0
 14 15  1  6
 14 22  1  0
 16 15  1  0
 17 16  2  0
 18 17  1  0
 19 20  1  0
 19 18  2  0
 20 21  2  0
 21 16  1  0
 22 24  2  0
 22 23  1  0
M  END
$$$$
