GLF.pdb
     RDKit          3D

 24 24  0  0  1  0  0  0  0  0999 V2000
   25.7788  -20.5831   -8.3642 N   0  0  0  0  0  0  0  0  0  0  0  0
   26.2630  -21.1503   -9.5943 C   0  0  0  0  0  0  0  0  0  0  0  0
   25.6641  -20.4553  -10.7787 C   0  0  0  0  0  0  0  0  0  0  0  0
   24.7417  -19.6206  -10.5873 O   0  0  0  0  0  0  0  0  0  0  0  0
   28.6159  -18.9168  -15.4794 C   0  0  0  0  0  0  0  0  0  0  0  0
   27.6625  -18.9129  -14.3101 C   0  0  1  0  0  0  0  0  0  0  0  0
   26.9477  -17.5533  -14.3482 C   0  0  0  0  0  0  0  0  0  0  0  0
   26.6074  -19.9499  -14.3886 C   0  0  0  0  0  0  0  0  0  0  0  0
   25.6641  -20.0562  -13.2457 C   0  0  2  0  0  0  0  0  0  0  0  0
   26.1404  -20.7447  -12.0876 N   0  0  0  0  0  0  0  0  0  0  0  0
   24.4287  -20.7386  -13.7935 C   0  0  0  0  0  0  0  0  0  0  0  0
   24.5042  -21.9555  -14.0960 O   0  0  0  0  0  0  0  0  0  0  0  0
   23.2071  -20.0703  -13.9765 N   0  0  0  0  0  0  0  0  0  0  0  0
   22.0115  -20.7119  -14.4983 C   0  0  1  0  0  0  0  0  0  0  0  0
   20.8449  -19.8032  -14.0882 C   0  0  0  0  0  0  0  0  0  0  0  0
   19.6091  -20.4747  -14.5277 C   0  0  0  0  0  0  0  0  0  0  0  0
   19.0763  -21.4909  -13.7634 C   0  0  0  0  0  0  0  0  0  0  0  0
   17.9214  -22.1449  -14.1393 C   0  0  0  0  0  0  0  0  0  0  0  0
   17.2521  -21.8053  -15.3005 C   0  0  0  0  0  0  0  0  0  0  0  0
   17.8044  -20.7842  -16.0503 C   0  0  0  0  0  0  0  0  0  0  0  0
   18.9516  -20.1174  -15.6994 C   0  0  0  0  0  0  0  0  0  0  0  0
   22.0039  -20.7707  -15.9647 C   0  0  0  0  0  0  0  0  0  0  0  0
   21.4289  -21.8723  -16.5807 O   0  0  0  0  0  0  0  0  0  0  0  0
   22.4910  -19.8748  -16.6750 O   0  0  0  0  0  0  0  0  0  0  0  0
  1  2  1  0
  3  4  2  0
  3  2  1  0
  6  5  1  6
  6  8  1  0
  7  6  1  0
  9  8  1  6
  9 11  1  0
  9 10  1  0
 10  3  1  0
 11 12  2  0
 13 11  1  0
 13 14  1  0
 14 15  1  6
 14 22  1  0
 16 15  1  0
 17 16  2  0
 18 17  1  0
 19 20  1  0
 19 18  2  0
 20 21  2  0
 21 16  1  0
 22 24  2  0
 22 23  1  0
M  END
$$$$
