GLF.pdb
     RDKit          3D

 24 24  0  0  1  0  0  0  0  0999 V2000
   23.8355  -25.1069  -14.4286 N   0  0  0  0  0  0  0  0  0  0  0  0
   23.5899  -23.7356  -14.0699 C   0  0  0  0  0  0  0  0  0  0  0  0
   24.7805  -23.1381  -13.3845 C   0  0  0  0  0  0  0  0  0  0  0  0
   25.5801  -23.9032  -12.7849 O   0  0  0  0  0  0  0  0  0  0  0  0
   28.9749  -19.9204  -13.1696 C   0  0  0  0  0  0  0  0  0  0  0  0
   27.7399  -19.1907  -12.7024 C   0  0  1  0  0  0  0  0  0  0  0  0
   27.8496  -17.7649  -13.2646 C   0  0  0  0  0  0  0  0  0  0  0  0
   26.4727  -19.7557  -13.2216 C   0  0  0  0  0  0  0  0  0  0  0  0
   26.0692  -21.0990  -12.7313 C   0  0  2  0  0  0  0  0  0  0  0  0
   24.9887  -21.7313  -13.4203 N   0  0  0  0  0  0  0  0  0  0  0  0
   25.7266  -20.9174  -11.2679 C   0  0  0  0  0  0  0  0  0  0  0  0
   24.6047  -20.4350  -10.9734 O   0  0  0  0  0  0  0  0  0  0  0  0
   26.6074  -21.2645  -10.2305 N   0  0  0  0  0  0  0  0  0  0  0  0
   26.2586  -21.1860   -8.8214 C   0  0  1  0  0  0  0  0  0  0  0  0
   27.5328  -21.5750   -8.0601 C   0  0  0  0  0  0  0  0  0  0  0  0
   27.7122  -20.5742   -6.9935 C   0  0  0  0  0  0  0  0  0  0  0  0
   26.9845  -20.6823   -5.8275 C   0  0  0  0  0  0  0  0  0  0  0  0
   27.1228  -19.7668   -4.8051 C   0  0  0  0  0  0  0  0  0  0  0  0
   27.9990  -18.7024   -4.9109 C   0  0  0  0  0  0  0  0  0  0  0  0
   28.7174  -18.6144   -6.0881 C   0  0  0  0  0  0  0  0  0  0  0  0
   28.5991  -19.5111   -7.1205 C   0  0  0  0  0  0  0  0  0  0  0  0
   25.9199  -19.8201   -8.4051 C   0  0  0  0  0  0  0  0  0  0  0  0
   24.8772  -19.6400   -7.5084 O   0  0  0  0  0  0  0  0  0  0  0  0
   26.5286  -18.8205   -8.8230 O   0  0  0  0  0  0  0  0  0  0  0  0
  1  2  1  0
  3  4  2  0
  3  2  1  0
  6  5  1  6
  6  8  1  0
  7  6  1  0
  9  8  1  6
  9 11  1  0
  9 10  1  0
 10  3  1  0
 11 12  2  0
 13 11  1  0
 13 14  1  0
 14 15  1  1
 14 22  1  0
 16 15  1  0
 17 16  2  0
 18 17  1  0
 19 20  1  0
 19 18  2  0
 20 21  2  0
 21 16  1  0
 22 24  2  0
 22 23  1  0
M  END
$$$$
