CAM.pdb
     RDKit          3D

 20 19  0  0  1  0  0  0  0  0999 V2000
    5.8417  -19.6392   21.1881 N   0  0  0  0  0  0  0  0  0  0  0  0
    5.9562  -18.5816   22.1707 C   0  0  1  0  0  0  0  0  0  0  0  0
    6.4362  -19.2637   23.4584 C   0  0  0  0  0  0  0  0  0  0  0  0
    6.2196  -18.0828   24.8446 S   0  0  0  0  0  0  0  0  0  0  0  0
    6.9905  -17.5899   21.8100 C   0  0  0  0  0  0  0  0  0  0  0  0
    8.1400  -18.0136   21.5246 O   0  0  0  0  0  0  0  0  0  0  0  0
    7.0316  -13.9329   21.0800 C   0  0  0  0  0  0  0  0  0  0  0  0
    7.7940  -15.2151   21.4441 C   0  0  2  0  0  0  0  0  0  0  0  0
    6.7759  -16.1968   21.7638 N   0  0  0  0  0  0  0  0  0  0  0  0
    8.5933  -14.9752   22.6834 C   0  0  0  0  0  0  0  0  0  0  0  0
    9.6573  -14.2787   22.6664 O   0  0  0  0  0  0  0  0  0  0  0  0
    6.7377  -10.6714   26.9483 C   0  0  0  0  0  0  0  0  0  0  0  0
    6.6926  -12.4798   26.9523 S   0  0  0  0  0  0  0  0  0  0  0  0
    8.1733  -13.1848   26.1449 C   0  0  0  0  0  0  0  0  0  0  0  0
    8.1594  -14.6867   26.2226 C   0  0  0  0  0  0  0  0  0  0  0  0
    9.0123  -15.2826   25.1506 C   0  0  2  0  0  0  0  0  0  0  0  0
    8.2065  -15.5104   23.9354 N   0  0  0  0  0  0  0  0  0  0  0  0
    9.5253  -16.5958   25.5724 C   0  0  0  0  0  0  0  0  0  0  0  0
   10.4411  -16.6343   26.6447 O   0  0  0  0  0  0  0  0  0  0  0  0
    9.2157  -17.7019   25.0552 O   0  0  0  0  0  0  0  0  0  0  0  0
  2  1  1  6
  3  2  1  0
  4  3  1  0
  5  2  1  0
  6  5  2  0
  8  7  1  1
  8 10  1  0
  8  9  1  0
  9  5  1  0
 10 11  2  0
 13 12  1  0
 13 14  1  0
 14 15  1  0
 16 15  1  1
 17 16  1  0
 17 10  1  0
 18 19  1  0
 18 16  1  0
 20 18  2  0
M  END
$$$$
