CAM.pdb
     RDKit          3D

 20 19  0  0  1  0  0  0  0  0999 V2000
    5.5904  -19.5029   21.7330 N   0  0  0  0  0  0  0  0  0  0  0  0
    5.8195  -18.4042   22.6480 C   0  0  1  0  0  0  0  0  0  0  0  0
    6.3111  -19.0471   23.9514 C   0  0  0  0  0  0  0  0  0  0  0  0
    6.3939  -17.7411   25.2362 S   0  0  0  0  0  0  0  0  0  0  0  0
    6.9000  -17.5070   22.1887 C   0  0  0  0  0  0  0  0  0  0  0  0
    8.0302  -18.0115   21.9644 O   0  0  0  0  0  0  0  0  0  0  0  0
    7.1280  -13.9140   21.1778 C   0  0  0  0  0  0  0  0  0  0  0  0
    7.8179  -15.2239   21.5855 C   0  0  2  0  0  0  0  0  0  0  0  0
    6.7497  -16.1198   21.9838 N   0  0  0  0  0  0  0  0  0  0  0  0
    8.6696  -14.9759   22.7878 C   0  0  0  0  0  0  0  0  0  0  0  0
    9.7878  -14.3765   22.7008 O   0  0  0  0  0  0  0  0  0  0  0  0
    6.0215  -11.8593   26.5761 C   0  0  0  0  0  0  0  0  0  0  0  0
    7.6119  -12.1537   27.3862 S   0  0  0  0  0  0  0  0  0  0  0  0
    8.7558  -13.0707   26.2944 C   0  0  0  0  0  0  0  0  0  0  0  0
    8.4781  -14.5478   26.3506 C   0  0  0  0  0  0  0  0  0  0  0  0
    9.1772  -15.2629   25.2407 C   0  0  2  0  0  0  0  0  0  0  0  0
    8.2746  -15.3954   24.0807 N   0  0  0  0  0  0  0  0  0  0  0  0
    9.5383  -16.6277   25.6559 C   0  0  0  0  0  0  0  0  0  0  0  0
   10.4674  -16.7748   26.7072 O   0  0  0  0  0  0  0  0  0  0  0  0
    9.0864  -17.6893   25.1502 O   0  0  0  0  0  0  0  0  0  0  0  0
  2  1  1  6
  3  2  1  0
  4  3  1  0
  5  2  1  0
  6  5  2  0
  8  7  1  1
  8 10  1  0
  8  9  1  0
  9  5  1  0
 10 11  2  0
 13 12  1  0
 13 14  1  0
 14 15  1  0
 16 15  1  1
 17 16  1  0
 17 10  1  0
 18 19  1  0
 18 16  1  0
 20 18  2  0
M  END
$$$$
