CAM.pdb
     RDKit          3D

 20 19  0  0  1  0  0  0  0  0999 V2000
    7.7474  -14.7840   17.7050 N   0  0  0  0  0  0  0  0  0  0  0  0
    8.5209  -14.4180   18.8733 C   0  0  1  0  0  0  0  0  0  0  0  0
    7.9449  -13.0772   19.3470 C   0  0  0  0  0  0  0  0  0  0  0  0
    8.8195  -11.7337   18.4563 S   0  0  0  0  0  0  0  0  0  0  0  0
    8.3388  -15.3706   19.9881 C   0  0  0  0  0  0  0  0  0  0  0  0
    7.1797  -15.8068   20.2079 O   0  0  0  0  0  0  0  0  0  0  0  0
   10.3546  -17.7962   21.7315 C   0  0  0  0  0  0  0  0  0  0  0  0
    9.2140  -16.7823   21.9013 C   0  0  2  0  0  0  0  0  0  0  0  0
    9.3792  -15.8253   20.8245 N   0  0  0  0  0  0  0  0  0  0  0  0
    9.3987  -16.0476   23.1891 C   0  0  0  0  0  0  0  0  0  0  0  0
    9.8940  -14.8767   23.2237 O   0  0  0  0  0  0  0  0  0  0  0  0
    6.8796  -11.6343   27.5712 C   0  0  0  0  0  0  0  0  0  0  0  0
    7.5936  -12.7249   26.3170 S   0  0  0  0  0  0  0  0  0  0  0  0
    6.6369  -14.2745   26.1592 C   0  0  0  0  0  0  0  0  0  0  0  0
    7.2066  -15.1451   25.0732 C   0  0  0  0  0  0  0  0  0  0  0  0
    8.4764  -15.7921   25.5216 C   0  0  2  0  0  0  0  0  0  0  0  0
    9.0322  -16.6175   24.4318 N   0  0  0  0  0  0  0  0  0  0  0  0
    8.2200  -16.6984   26.6523 C   0  0  0  0  0  0  0  0  0  0  0  0
    8.8146  -16.3905   27.8941 O   0  0  0  0  0  0  0  0  0  0  0  0
    7.5085  -17.7369   26.6099 O   0  0  0  0  0  0  0  0  0  0  0  0
  2  1  1  6
  3  2  1  0
  4  3  1  0
  5  2  1  0
  6  5  2  0
  8  7  1  6
  8 10  1  0
  8  9  1  0
  9  5  1  0
 10 11  2  0
 13 12  1  0
 13 14  1  0
 14 15  1  0
 16 15  1  6
 17 16  1  0
 17 10  1  0
 18 19  1  0
 18 16  1  0
 20 18  2  0
M  END
$$$$
