CAM.pdb
     RDKit          3D

 20 19  0  0  1  0  0  0  0  0999 V2000
    7.3434  -13.8556   18.1477 N   0  0  0  0  0  0  0  0  0  0  0  0
    8.6113  -14.2722   18.7096 C   0  0  1  0  0  0  0  0  0  0  0  0
    9.3299  -12.9782   19.1135 C   0  0  0  0  0  0  0  0  0  0  0  0
    8.2677  -12.0861   20.3131 S   0  0  0  0  0  0  0  0  0  0  0  0
    8.4444  -15.0634   19.9464 C   0  0  0  0  0  0  0  0  0  0  0  0
    7.3968  -14.8900   20.6207 O   0  0  0  0  0  0  0  0  0  0  0  0
   10.4030  -17.7775   21.6341 C   0  0  0  0  0  0  0  0  0  0  0  0
    9.2018  -16.8213   21.6063 C   0  0  2  0  0  0  0  0  0  0  0  0
    9.3822  -16.0025   20.4234 N   0  0  0  0  0  0  0  0  0  0  0  0
    9.2671  -15.9173   22.7941 C   0  0  0  0  0  0  0  0  0  0  0  0
   10.0204  -14.8927   22.8117 O   0  0  0  0  0  0  0  0  0  0  0  0
    6.5612  -10.9829   27.2958 C   0  0  0  0  0  0  0  0  0  0  0  0
    6.6041  -12.1405   25.9064 S   0  0  0  0  0  0  0  0  0  0  0  0
    6.8968  -13.8529   26.4750 C   0  0  0  0  0  0  0  0  0  0  0  0
    7.0009  -14.7930   25.3057 C   0  0  0  0  0  0  0  0  0  0  0  0
    8.4244  -15.1663   25.0486 C   0  0  2  0  0  0  0  0  0  0  0  0
    8.4952  -16.1562   23.9563 N   0  0  0  0  0  0  0  0  0  0  0  0
    9.0114  -15.8037   26.2380 C   0  0  0  0  0  0  0  0  0  0  0  0
    9.2866  -17.1861   26.1792 O   0  0  0  0  0  0  0  0  0  0  0  0
    9.2936  -15.2181   27.3170 O   0  0  0  0  0  0  0  0  0  0  0  0
  2  1  1  1
  3  2  1  0
  4  3  1  0
  5  2  1  0
  6  5  2  0
  8  7  1  1
  8 10  1  0
  8  9  1  0
  9  5  1  0
 10 11  2  0
 13 12  1  0
 13 14  1  0
 14 15  1  0
 16 15  1  1
 17 16  1  0
 17 10  1  0
 18 19  1  0
 18 16  1  0
 20 18  2  0
M  END
$$$$
