CAM.pdb
     RDKit          3D

 20 19  0  0  1  0  0  0  0  0999 V2000
    7.6389  -14.9624   17.7341 N   0  0  0  0  0  0  0  0  0  0  0  0
    8.6411  -14.6117   18.7187 C   0  0  1  0  0  0  0  0  0  0  0  0
    8.3388  -13.1616   19.1182 C   0  0  0  0  0  0  0  0  0  0  0  0
    9.0136  -12.0588   17.8175 S   0  0  0  0  0  0  0  0  0  0  0  0
    8.5247  -15.4196   19.9505 C   0  0  0  0  0  0  0  0  0  0  0  0
    7.4033  -15.4713   20.5182 O   0  0  0  0  0  0  0  0  0  0  0  0
   10.6871  -17.8888   21.7123 C   0  0  0  0  0  0  0  0  0  0  0  0
    9.4798  -16.9403   21.7378 C   0  0  2  0  0  0  0  0  0  0  0  0
    9.5881  -16.1385   20.5344 N   0  0  0  0  0  0  0  0  0  0  0  0
    9.6055  -16.0178   22.9064 C   0  0  0  0  0  0  0  0  0  0  0  0
   10.4753  -15.0903   22.9333 O   0  0  0  0  0  0  0  0  0  0  0  0
    6.1752  -11.2807   27.9039 C   0  0  0  0  0  0  0  0  0  0  0  0
    6.0537  -12.5730   26.6440 S   0  0  0  0  0  0  0  0  0  0  0  0
    7.6272  -13.4878   26.4743 C   0  0  0  0  0  0  0  0  0  0  0  0
    7.5810  -14.4139   25.2902 C   0  0  0  0  0  0  0  0  0  0  0  0
    8.8578  -15.1791   25.1634 C   0  0  2  0  0  0  0  0  0  0  0  0
    8.7643  -16.1305   24.0392 N   0  0  0  0  0  0  0  0  0  0  0  0
    9.1014  -15.9769   26.3758 C   0  0  0  0  0  0  0  0  0  0  0  0
    9.5910  -15.3102   27.5185 O   0  0  0  0  0  0  0  0  0  0  0  0
    8.9094  -17.2170   26.4856 O   0  0  0  0  0  0  0  0  0  0  0  0
  2  1  1  6
  3  2  1  0
  4  3  1  0
  5  2  1  0
  6  5  2  0
  8  7  1  6
  8 10  1  0
  8  9  1  0
  9  5  1  0
 10 11  2  0
 13 12  1  0
 13 14  1  0
 14 15  1  0
 16 15  1  1
 17 16  1  0
 17 10  1  0
 18 19  1  0
 18 16  1  0
 20 18  2  0
M  END
$$$$
