CAM.pdb
     RDKit          3D

 20 19  0  0  1  0  0  0  0  0999 V2000
    6.0387  -19.6329   21.0942 N   0  0  0  0  0  0  0  0  0  0  0  0
    5.8884  -18.4382   21.8986 C   0  0  1  0  0  0  0  0  0  0  0  0
    6.0851  -18.8904   23.3514 C   0  0  0  0  0  0  0  0  0  0  0  0
    5.5737  -17.5151   24.4515 S   0  0  0  0  0  0  0  0  0  0  0  0
    6.9423  -17.4398   21.6232 C   0  0  0  0  0  0  0  0  0  0  0  0
    8.1368  -17.8336   21.6015 O   0  0  0  0  0  0  0  0  0  0  0  0
    6.9513  -13.8096   20.6907 C   0  0  0  0  0  0  0  0  0  0  0  0
    7.7108  -15.1111   20.9861 C   0  0  2  0  0  0  0  0  0  0  0  0
    6.6995  -16.0716   21.3823 N   0  0  0  0  0  0  0  0  0  0  0  0
    8.6126  -14.8974   22.1580 C   0  0  0  0  0  0  0  0  0  0  0  0
    9.6140  -14.1158   22.0951 O   0  0  0  0  0  0  0  0  0  0  0  0
    6.6625  -11.3371   28.3054 C   0  0  0  0  0  0  0  0  0  0  0  0
    6.2525  -12.4668   26.9533 S   0  0  0  0  0  0  0  0  0  0  0  0
    7.7046  -13.4551   26.4476 C   0  0  0  0  0  0  0  0  0  0  0  0
    7.4752  -14.0919   25.1045 C   0  0  0  0  0  0  0  0  0  0  0  0
    8.6706  -14.8802   24.6785 C   0  0  2  0  0  0  0  0  0  0  0  0
    8.3975  -15.5531   23.3938 N   0  0  0  0  0  0  0  0  0  0  0  0
    8.9642  -15.9384   25.6582 C   0  0  0  0  0  0  0  0  0  0  0  0
    9.4654  -15.5515   26.9188 O   0  0  0  0  0  0  0  0  0  0  0  0
    8.8059  -17.1737   25.4693 O   0  0  0  0  0  0  0  0  0  0  0  0
  2  1  1  6
  3  2  1  0
  4  3  1  0
  5  2  1  0
  6  5  2  0
  8  7  1  1
  8 10  1  0
  8  9  1  0
  9  5  1  0
 10 11  2  0
 13 12  1  0
 13 14  1  0
 14 15  1  0
 16 15  1  1
 17 16  1  0
 17 10  1  0
 18 19  1  0
 18 16  1  0
 20 18  2  0
M  END
$$$$
