MYK.pdb
     RDKit          3D

 30 30  0  0  1  0  0  0  0  0999 V2000
   21.7267  -17.0579  -21.1200 C   0  0  0  0  0  0  0  0  0  0  0  0
   23.3523  -16.4463  -20.5510 S   0  0  0  0  0  0  0  0  0  0  0  0
   23.4447  -16.6103  -18.7378 C   0  0  0  0  0  0  0  0  0  0  0  0
   22.8771  -15.3926  -18.0787 C   0  0  0  0  0  0  0  0  0  0  0  0
   23.5321  -14.1520  -18.5907 C   0  0  2  0  0  0  0  0  0  0  0  0
   24.9332  -14.2360  -18.0966 N   0  0  0  0  0  0  0  0  0  0  0  0
   22.9226  -12.9411  -17.9998 C   0  0  0  0  0  0  0  0  0  0  0  0
   21.6841  -12.6706  -18.1507 O   0  0  0  0  0  0  0  0  0  0  0  0
   22.0733   -5.4789  -13.2643 O   0  0  0  0  0  0  0  0  0  0  0  0
   22.5399   -6.6491  -13.8523 C   0  0  0  0  0  0  0  0  0  0  0  0
   23.5182   -6.6338  -14.8227 C   0  0  0  0  0  0  0  0  0  0  0  0
   23.9345   -7.8336  -15.3635 C   0  0  0  0  0  0  0  0  0  0  0  0
   23.4168   -9.0473  -14.9778 C   0  0  0  0  0  0  0  0  0  0  0  0
   23.8357  -10.3283  -15.5455 C   0  0  0  0  0  0  0  0  0  0  0  0
   23.0137  -10.7552  -16.7686 C   0  0  2  0  0  0  0  0  0  0  0  0
   23.6484  -11.9793  -17.2138 N   0  0  0  0  0  0  0  0  0  0  0  0
   23.1485   -9.7301  -17.8012 C   0  0  0  0  0  0  0  0  0  0  0  0
   24.3010   -9.6039  -18.3503 O   0  0  0  0  0  0  0  0  0  0  0  0
   22.4397   -9.0364  -14.0059 C   0  0  0  0  0  0  0  0  0  0  0  0
   21.9963   -7.8438  -13.4387 C   0  0  0  0  0  0  0  0  0  0  0  0
   22.1349   -8.8694  -18.2519 N   0  0  0  0  0  0  0  0  0  0  0  0
   22.4396   -7.9507  -19.3512 C   0  0  1  0  0  0  0  0  0  0  0  0
   21.5359   -8.2037  -20.5166 C   0  0  0  0  0  0  0  0  0  0  0  0
   21.8283   -7.2358  -21.6241 C   0  0  0  0  0  0  0  0  0  0  0  0
   20.9972   -7.4695  -22.8622 C   0  0  0  0  0  0  0  0  0  0  0  0
   21.5235   -6.5062  -23.9329 C   0  0  0  0  0  0  0  0  0  0  0  0
   20.6205   -6.5910  -25.0600 N   0  0  0  0  0  0  0  0  0  0  0  0
   22.3579   -6.5640  -18.8379 C   0  0  0  0  0  0  0  0  0  0  0  0
   21.3615   -6.2241  -17.9303 O   0  0  0  0  0  0  0  0  0  0  0  0
   23.1416   -5.6585  -19.1730 O   0  0  0  0  0  0  0  0  0  0  0  0
  1  2  1  0
  2  3  1  0
  4  5  1  0
  4  3  1  0
  5  6  1  1
  7  5  1  0
  7  8  2  0
  9 10  1  0
 10 11  2  0
 11 12  1  0
 13 12  2  0
 13 14  1  0
 15 14  1  1
 15 16  1  0
 16  7  1  0
 17 15  1  0
 18 17  2  0
 19 13  1  0
 20 10  1  0
 20 19  2  0
 21 17  1  0
 22 21  1  0
 22 28  1  0
 22 23  1  6
 24 23  1  0
 25 26  1  0
 25 24  1  0
 27 26  1  0
 28 29  1  0
 30 28  2  0
M  END
$$$$
