MYK.pdb
     RDKit          3D

 30 30  0  0  1  0  0  0  0  0999 V2000
   31.4483  -21.7767  -18.6129 C   0  0  0  0  0  0  0  0  0  0  0  0
   31.0381  -23.4400  -19.2500 S   0  0  0  0  0  0  0  0  0  0  0  0
   29.2253  -23.6271  -19.2923 C   0  0  0  0  0  0  0  0  0  0  0  0
   28.6775  -23.6747  -17.9006 C   0  0  0  0  0  0  0  0  0  0  0  0
   27.4749  -22.7993  -17.7680 C   0  0  2  0  0  0  0  0  0  0  0  0
   27.9944  -21.4172  -17.9532 N   0  0  0  0  0  0  0  0  0  0  0  0
   26.8996  -22.8811  -16.4082 C   0  0  0  0  0  0  0  0  0  0  0  0
   26.4952  -23.9872  -15.9154 O   0  0  0  0  0  0  0  0  0  0  0  0
   24.2882  -20.4439   -8.2762 O   0  0  0  0  0  0  0  0  0  0  0  0
   24.8274  -20.4914   -9.5567 C   0  0  0  0  0  0  0  0  0  0  0  0
   24.2034  -19.8934  -10.6299 C   0  0  0  0  0  0  0  0  0  0  0  0
   24.7954  -19.9798  -11.8738 C   0  0  0  0  0  0  0  0  0  0  0  0
   25.9827  -20.6371  -12.0927 C   0  0  0  0  0  0  0  0  0  0  0  0
   26.6211  -20.7498  -13.4037 C   0  0  0  0  0  0  0  0  0  0  0  0
   26.0479  -21.8790  -14.2697 C   0  0  2  0  0  0  0  0  0  0  0  0
   26.7495  -21.7507  -15.5310 N   0  0  0  0  0  0  0  0  0  0  0  0
   24.6225  -21.6309  -14.4750 C   0  0  0  0  0  0  0  0  0  0  0  0
   24.3055  -20.6398  -15.2253 O   0  0  0  0  0  0  0  0  0  0  0  0
   26.5874  -21.2271  -11.0038 C   0  0  0  0  0  0  0  0  0  0  0  0
   26.0176  -21.1591   -9.7345 C   0  0  0  0  0  0  0  0  0  0  0  0
   23.5647  -22.3758  -13.9297 N   0  0  0  0  0  0  0  0  0  0  0  0
   22.1929  -21.9651  -14.2376 C   0  0  1  0  0  0  0  0  0  0  0  0
   21.4230  -23.1011  -14.8342 C   0  0  0  0  0  0  0  0  0  0  0  0
   21.1551  -24.1516  -13.7982 C   0  0  0  0  0  0  0  0  0  0  0  0
   20.7300  -25.4772  -14.3817 C   0  0  0  0  0  0  0  0  0  0  0  0
   20.4415  -26.4065  -13.1967 C   0  0  0  0  0  0  0  0  0  0  0  0
   19.9487  -27.6515  -13.7446 N   0  0  0  0  0  0  0  0  0  0  0  0
   21.5779  -21.4264  -13.0029 C   0  0  0  0  0  0  0  0  0  0  0  0
   22.2223  -21.5958  -11.7830 O   0  0  0  0  0  0  0  0  0  0  0  0
   20.4945  -20.8161  -12.9830 O   0  0  0  0  0  0  0  0  0  0  0  0
  1  2  1  0
  2  3  1  0
  4  5  1  0
  4  3  1  0
  5  6  1  1
  7  5  1  0
  7  8  2  0
  9 10  1  0
 10 11  2  0
 11 12  1  0
 13 12  2  0
 13 14  1  0
 15 14  1  1
 15 16  1  0
 16  7  1  0
 17 15  1  0
 18 17  2  0
 19 13  1  0
 20 10  1  0
 20 19  2  0
 21 17  1  0
 22 21  1  0
 22 28  1  0
 22 23  1  1
 24 23  1  0
 25 26  1  0
 25 24  1  0
 27 26  1  0
 28 29  1  0
 30 28  2  0
M  END
$$$$
