MYK.pdb
     RDKit          3D

 30 30  0  0  1  0  0  0  0  0999 V2000
   22.9992  -10.9981  -23.7470 C   0  0  0  0  0  0  0  0  0  0  0  0
   23.8708  -12.2629  -22.7567 S   0  0  0  0  0  0  0  0  0  0  0  0
   22.6392  -13.3678  -21.9914 C   0  0  0  0  0  0  0  0  0  0  0  0
   21.9631  -12.6765  -20.8494 C   0  0  0  0  0  0  0  0  0  0  0  0
   22.9149  -12.4498  -19.7212 C   0  0  2  0  0  0  0  0  0  0  0  0
   23.1165  -13.7976  -19.1236 N   0  0  0  0  0  0  0  0  0  0  0  0
   22.3171  -11.5854  -18.6809 C   0  0  0  0  0  0  0  0  0  0  0  0
   21.1016  -11.7184  -18.3142 O   0  0  0  0  0  0  0  0  0  0  0  0
   21.6358   -6.5930  -11.4589 O   0  0  0  0  0  0  0  0  0  0  0  0
   22.1064   -7.2543  -12.5877 C   0  0  0  0  0  0  0  0  0  0  0  0
   22.6596   -6.5731  -13.6502 C   0  0  0  0  0  0  0  0  0  0  0  0
   23.1068   -7.2936  -14.7392 C   0  0  0  0  0  0  0  0  0  0  0  0
   23.0258   -8.6639  -14.8135 C   0  0  0  0  0  0  0  0  0  0  0  0
   23.4834   -9.4453  -15.9620 C   0  0  0  0  0  0  0  0  0  0  0  0
   22.3787   -9.7338  -16.9867 C   0  0  2  0  0  0  0  0  0  0  0  0
   23.0325  -10.5418  -17.9963 N   0  0  0  0  0  0  0  0  0  0  0  0
   21.9479   -8.4679  -17.5761 C   0  0  0  0  0  0  0  0  0  0  0  0
   22.7479   -7.9112  -18.4102 O   0  0  0  0  0  0  0  0  0  0  0  0
   22.4687   -9.3223  -13.7386 C   0  0  0  0  0  0  0  0  0  0  0  0
   22.0073   -8.6263  -12.6235 C   0  0  0  0  0  0  0  0  0  0  0  0
   20.7392   -7.8021  -17.3175 N   0  0  0  0  0  0  0  0  0  0  0  0
   20.4702   -6.5479  -18.0245 C   0  0  1  0  0  0  0  0  0  0  0  0
   19.0362   -6.4763  -18.4457 C   0  0  0  0  0  0  0  0  0  0  0  0
   18.7731   -5.2005  -19.1885 C   0  0  0  0  0  0  0  0  0  0  0  0
   17.3638   -5.0925  -19.7182 C   0  0  0  0  0  0  0  0  0  0  0  0
   17.3012   -3.7996  -20.5401 C   0  0  0  0  0  0  0  0  0  0  0  0
   15.9808   -3.7344  -21.1278 N   0  0  0  0  0  0  0  0  0  0  0  0
   20.8809   -5.4229  -17.1535 C   0  0  0  0  0  0  0  0  0  0  0  0
   20.5206   -5.4253  -15.8110 O   0  0  0  0  0  0  0  0  0  0  0  0
   21.5441   -4.4496  -17.5528 O   0  0  0  0  0  0  0  0  0  0  0  0
  1  2  1  0
  2  3  1  0
  4  5  1  0
  4  3  1  0
  5  6  1  1
  7  5  1  0
  7  8  2  0
  9 10  1  0
 10 11  2  0
 11 12  1  0
 13 12  2  0
 13 14  1  0
 15 14  1  1
 15 16  1  0
 16  7  1  0
 17 15  1  0
 18 17  2  0
 19 13  1  0
 20 10  1  0
 20 19  2  0
 21 17  1  0
 22 21  1  0
 22 28  1  0
 22 23  1  1
 24 23  1  0
 25 26  1  0
 25 24  1  0
 27 26  1  0
 28 29  1  0
 30 28  2  0
M  END
$$$$
