MYK.pdb
     RDKit          3D

 30 30  0  0  1  0  0  0  0  0999 V2000
   30.1992  -20.5767  -10.5069 C   0  0  0  0  0  0  0  0  0  0  0  0
   29.1690  -20.4340   -9.0040 S   0  0  0  0  0  0  0  0  0  0  0  0
   27.5628  -21.2404   -9.3087 C   0  0  0  0  0  0  0  0  0  0  0  0
   26.7247  -20.3971  -10.2174 C   0  0  0  0  0  0  0  0  0  0  0  0
   25.4777  -21.1156  -10.6161 C   0  0  2  0  0  0  0  0  0  0  0  0
   25.9496  -22.2455  -11.4617 N   0  0  0  0  0  0  0  0  0  0  0  0
   24.6119  -20.2607  -11.4566 C   0  0  0  0  0  0  0  0  0  0  0  0
   24.0510  -19.2116  -10.9934 O   0  0  0  0  0  0  0  0  0  0  0  0
   22.0174  -20.2229  -19.8333 O   0  0  0  0  0  0  0  0  0  0  0  0
   22.5396  -19.9264  -18.5795 C   0  0  0  0  0  0  0  0  0  0  0  0
   22.0778  -18.8638  -17.8334 C   0  0  0  0  0  0  0  0  0  0  0  0
   22.6418  -18.6275  -16.5961 C   0  0  0  0  0  0  0  0  0  0  0  0
   23.6464  -19.4055  -16.0714 C   0  0  0  0  0  0  0  0  0  0  0  0
   24.2651  -19.1660  -14.7680 C   0  0  0  0  0  0  0  0  0  0  0  0
   23.4241  -19.6705  -13.5881 C   0  0  2  0  0  0  0  0  0  0  0  0
   24.3307  -20.5207  -12.8433 N   0  0  0  0  0  0  0  0  0  0  0  0
   22.3202  -20.4719  -14.1119 C   0  0  0  0  0  0  0  0  0  0  0  0
   22.6191  -21.6045  -14.6350 O   0  0  0  0  0  0  0  0  0  0  0  0
   24.0913  -20.4620  -16.8364 C   0  0  0  0  0  0  0  0  0  0  0  0
   23.5442  -20.7291  -18.0894 C   0  0  0  0  0  0  0  0  0  0  0  0
   20.9608  -20.1210  -14.0962 N   0  0  0  0  0  0  0  0  0  0  0  0
   19.9858  -21.0903  -14.6012 C   0  0  1  0  0  0  0  0  0  0  0  0
   20.0287  -22.3508  -13.7959 C   0  0  0  0  0  0  0  0  0  0  0  0
   19.4127  -22.1298  -12.4466 C   0  0  0  0  0  0  0  0  0  0  0  0
   19.2811  -23.3932  -11.6313 C   0  0  0  0  0  0  0  0  0  0  0  0
   18.6227  -22.9937  -10.3053 C   0  0  0  0  0  0  0  0  0  0  0  0
   18.4147  -24.2110   -9.5518 N   0  0  0  0  0  0  0  0  0  0  0  0
   18.6513  -20.4485  -14.6123 C   0  0  0  0  0  0  0  0  0  0  0  0
   17.5625  -21.1344  -15.1379 O   0  0  0  0  0  0  0  0  0  0  0  0
   18.4329  -19.3064  -14.1712 O   0  0  0  0  0  0  0  0  0  0  0  0
  1  2  1  0
  2  3  1  0
  4  5  1  0
  4  3  1  0
  5  6  1  6
  7  5  1  0
  7  8  2  0
  9 10  1  0
 10 11  2  0
 11 12  1  0
 13 12  2  0
 13 14  1  0
 15 14  1  6
 15 16  1  0
 16  7  1  0
 17 15  1  0
 18 17  2  0
 19 13  1  0
 20 10  1  0
 20 19  2  0
 21 17  1  0
 22 21  1  0
 22 28  1  0
 22 23  1  1
 24 23  1  0
 25 26  1  0
 25 24  1  0
 27 26  1  0
 28 29  1  0
 30 28  2  0
M  END
$$$$
