MYK.pdb
     RDKit          3D

 30 30  0  0  1  0  0  0  0  0999 V2000
   32.5224  -22.6932   -7.4279 C   0  0  0  0  0  0  0  0  0  0  0  0
   33.3754  -22.6949   -9.0443 S   0  0  0  0  0  0  0  0  0  0  0  0
   32.1968  -22.1798  -10.3361 C   0  0  0  0  0  0  0  0  0  0  0  0
   30.7943  -22.2680   -9.8216 C   0  0  0  0  0  0  0  0  0  0  0  0
   29.8144  -21.8299  -10.8598 C   0  0  2  0  0  0  0  0  0  0  0  0
   30.1790  -20.4162  -11.1473 N   0  0  0  0  0  0  0  0  0  0  0  0
   28.4337  -21.8357  -10.3301 C   0  0  0  0  0  0  0  0  0  0  0  0
   27.8380  -22.9213  -10.0195 O   0  0  0  0  0  0  0  0  0  0  0  0
   29.1673  -20.1714   -3.8372 O   0  0  0  0  0  0  0  0  0  0  0  0
   28.4798  -19.9808   -5.0304 C   0  0  0  0  0  0  0  0  0  0  0  0
   28.9481  -19.1330   -6.0106 C   0  0  0  0  0  0  0  0  0  0  0  0
   28.2143  -18.9916   -7.1710 C   0  0  0  0  0  0  0  0  0  0  0  0
   27.0339  -19.6595   -7.3953 C   0  0  0  0  0  0  0  0  0  0  0  0
   26.2357  -19.5156   -8.6124 C   0  0  0  0  0  0  0  0  0  0  0  0
   26.3207  -20.7283   -9.5483 C   0  0  2  0  0  0  0  0  0  0  0  0
   27.6518  -20.6474  -10.1149 N   0  0  0  0  0  0  0  0  0  0  0  0
   25.3270  -20.5694  -10.6079 C   0  0  0  0  0  0  0  0  0  0  0  0
   25.4867  -19.5841  -11.4138 O   0  0  0  0  0  0  0  0  0  0  0  0
   26.5863  -20.5014   -6.4002 C   0  0  0  0  0  0  0  0  0  0  0  0
   27.3020  -20.6677   -5.2167 C   0  0  0  0  0  0  0  0  0  0  0  0
   24.2129  -21.3944  -10.8298 N   0  0  0  0  0  0  0  0  0  0  0  0
   23.2997  -21.0520  -11.9226 C   0  0  1  0  0  0  0  0  0  0  0  0
   23.3228  -22.1095  -12.9809 C   0  0  0  0  0  0  0  0  0  0  0  0
   24.5190  -21.9345  -13.8681 C   0  0  0  0  0  0  0  0  0  0  0  0
   24.5857  -22.9388  -14.9929 C   0  0  0  0  0  0  0  0  0  0  0  0
   25.8277  -22.5889  -15.8213 C   0  0  0  0  0  0  0  0  0  0  0  0
   25.9315  -23.5808  -16.8693 N   0  0  0  0  0  0  0  0  0  0  0  0
   21.9522  -20.8249  -11.3520 C   0  0  0  0  0  0  0  0  0  0  0  0
   20.9303  -20.3535  -12.1677 O   0  0  0  0  0  0  0  0  0  0  0  0
   21.6653  -21.0330  -10.1599 O   0  0  0  0  0  0  0  0  0  0  0  0
  1  2  1  0
  2  3  1  0
  4  5  1  0
  4  3  1  0
  5  6  1  1
  7  5  1  0
  7  8  2  0
  9 10  1  0
 10 11  2  0
 11 12  1  0
 13 12  2  0
 13 14  1  0
 15 14  1  1
 15 16  1  0
 16  7  1  0
 17 15  1  0
 18 17  2  0
 19 13  1  0
 20 10  1  0
 20 19  2  0
 21 17  1  0
 22 21  1  0
 22 28  1  0
 22 23  1  6
 24 23  1  0
 25 26  1  0
 25 24  1  0
 27 26  1  0
 28 29  1  0
 30 28  2  0
M  END
$$$$
