MYK.pdb
     RDKit          3D

 30 30  0  0  1  0  0  0  0  0999 V2000
   22.8840  -19.6344  -14.9576 C   0  0  0  0  0  0  0  0  0  0  0  0
   21.8795  -20.5568  -13.7408 S   0  0  0  0  0  0  0  0  0  0  0  0
   20.1197  -20.4107  -14.1938 C   0  0  0  0  0  0  0  0  0  0  0  0
   19.2718  -21.1781  -13.2287 C   0  0  0  0  0  0  0  0  0  0  0  0
   19.6016  -22.6341  -13.2662 C   0  0  2  0  0  0  0  0  0  0  0  0
   18.4493  -23.2621  -13.9677 N   0  0  0  0  0  0  0  0  0  0  0  0
   19.6598  -23.2059  -11.9036 C   0  0  0  0  0  0  0  0  0  0  0  0
   20.5955  -22.9057  -11.0887 O   0  0  0  0  0  0  0  0  0  0  0  0
   17.0132  -25.7356   -4.0089 O   0  0  0  0  0  0  0  0  0  0  0  0
   17.2307  -25.2269   -5.2844 C   0  0  0  0  0  0  0  0  0  0  0  0
   16.1967  -25.0324   -6.1744 C   0  0  0  0  0  0  0  0  0  0  0  0
   16.4850  -24.5235   -7.4246 C   0  0  0  0  0  0  0  0  0  0  0  0
   17.7598  -24.2004   -7.8247 C   0  0  0  0  0  0  0  0  0  0  0  0
   18.0881  -23.6706   -9.1477 C   0  0  0  0  0  0  0  0  0  0  0  0
   18.8295  -24.6722  -10.0427 C   0  0  2  0  0  0  0  0  0  0  0  0
   18.6885  -24.1278  -11.3781 N   0  0  0  0  0  0  0  0  0  0  0  0
   18.1459  -25.9613   -9.9648 C   0  0  0  0  0  0  0  0  0  0  0  0
   16.9127  -25.9894  -10.3171 O   0  0  0  0  0  0  0  0  0  0  0  0
   18.7767  -24.4039   -6.9170 C   0  0  0  0  0  0  0  0  0  0  0  0
   18.5213  -24.9158   -5.6468 C   0  0  0  0  0  0  0  0  0  0  0  0
   18.7112  -27.1749   -9.5417 N   0  0  0  0  0  0  0  0  0  0  0  0
   17.8635  -28.3693   -9.5251 C   0  0  1  0  0  0  0  0  0  0  0  0
   18.6063  -29.5514  -10.0634 C   0  0  0  0  0  0  0  0  0  0  0  0
   20.0263  -29.5396   -9.5818 C   0  0  0  0  0  0  0  0  0  0  0  0
   20.8350  -30.7192  -10.0644 C   0  0  0  0  0  0  0  0  0  0  0  0
   22.2583  -30.5250   -9.5281 C   0  0  0  0  0  0  0  0  0  0  0  0
   23.0296  -31.6751   -9.9469 N   0  0  0  0  0  0  0  0  0  0  0  0
   17.3659  -28.5701   -8.1449 C   0  0  0  0  0  0  0  0  0  0  0  0
   16.2730  -29.3994   -7.9215 O   0  0  0  0  0  0  0  0  0  0  0  0
   17.8734  -28.0324   -7.1450 O   0  0  0  0  0  0  0  0  0  0  0  0
  1  2  1  0
  2  3  1  0
  4  5  1  0
  4  3  1  0
  5  6  1  6
  7  5  1  0
  7  8  2  0
  9 10  1  0
 10 11  2  0
 11 12  1  0
 13 12  2  0
 13 14  1  0
 15 14  1  1
 15 16  1  0
 16  7  1  0
 17 15  1  0
 18 17  2  0
 19 13  1  0
 20 10  1  0
 20 19  2  0
 21 17  1  0
 22 21  1  0
 22 28  1  0
 22 23  1  1
 24 23  1  0
 25 26  1  0
 25 24  1  0
 27 26  1  0
 28 29  1  0
 30 28  2  0
M  END
$$$$
