MYK.pdb
     RDKit          3D

 30 30  0  0  1  0  0  0  0  0999 V2000
   23.0562   -9.1322  -12.9075 C   0  0  0  0  0  0  0  0  0  0  0  0
   21.5505   -8.3289  -12.2533 S   0  0  0  0  0  0  0  0  0  0  0  0
   20.4154   -7.9828  -13.6371 C   0  0  0  0  0  0  0  0  0  0  0  0
   19.1775   -7.3089  -13.1345 C   0  0  0  0  0  0  0  0  0  0  0  0
   18.4012   -8.2152  -12.2367 C   0  0  2  0  0  0  0  0  0  0  0  0
   17.8629   -9.2678  -13.1404 N   0  0  0  0  0  0  0  0  0  0  0  0
   17.2480   -7.5130  -11.6332 C   0  0  0  0  0  0  0  0  0  0  0  0
   16.1994   -7.2404  -12.3083 O   0  0  0  0  0  0  0  0  0  0  0  0
   11.1502  -10.0598   -8.6109 O   0  0  0  0  0  0  0  0  0  0  0  0
   12.2555   -9.2185   -8.5542 C   0  0  0  0  0  0  0  0  0  0  0  0
   12.1278   -7.8672   -8.3162 C   0  0  0  0  0  0  0  0  0  0  0  0
   13.2683   -7.0909   -8.2730 C   0  0  0  0  0  0  0  0  0  0  0  0
   14.5300   -7.6047   -8.4569 C   0  0  0  0  0  0  0  0  0  0  0  0
   15.7498   -6.7984   -8.4260 C   0  0  0  0  0  0  0  0  0  0  0  0
   16.1358   -6.2178   -9.7926 C   0  0  2  0  0  0  0  0  0  0  0  0
   17.1976   -7.0857  -10.2604 N   0  0  0  0  0  0  0  0  0  0  0  0
   16.6586   -4.8677   -9.5943 C   0  0  0  0  0  0  0  0  0  0  0  0
   17.9064   -4.6854   -9.8298 O   0  0  0  0  0  0  0  0  0  0  0  0
   14.6316   -8.9586   -8.6935 C   0  0  0  0  0  0  0  0  0  0  0  0
   13.5013   -9.7714   -8.7435 C   0  0  0  0  0  0  0  0  0  0  0  0
   15.9241   -3.7484   -9.1713 N   0  0  0  0  0  0  0  0  0  0  0  0
   16.0328   -2.5108   -9.9471 C   0  0  1  0  0  0  0  0  0  0  0  0
   15.7432   -2.7667  -11.3927 C   0  0  0  0  0  0  0  0  0  0  0  0
   15.7334   -1.4780  -12.1594 C   0  0  0  0  0  0  0  0  0  0  0  0
   17.0111   -1.2215  -12.9210 C   0  0  0  0  0  0  0  0  0  0  0  0
   16.8342    0.1236  -13.6355 C   0  0  0  0  0  0  0  0  0  0  0  0
   18.0609    0.3849  -14.3567 N   0  0  0  0  0  0  0  0  0  0  0  0
   15.1369   -1.4992   -9.3413 C   0  0  0  0  0  0  0  0  0  0  0  0
   15.6133   -0.2164   -9.0971 O   0  0  0  0  0  0  0  0  0  0  0  0
   13.9550   -1.7259   -9.0276 O   0  0  0  0  0  0  0  0  0  0  0  0
  1  2  1  0
  2  3  1  0
  4  5  1  0
  4  3  1  0
  5  6  1  6
  7  5  1  0
  7  8  2  0
  9 10  1  0
 10 11  2  0
 11 12  1  0
 13 12  2  0
 13 14  1  0
 15 14  1  1
 15 16  1  0
 16  7  1  0
 17 15  1  0
 18 17  2  0
 19 13  1  0
 20 10  1  0
 20 19  2  0
 21 17  1  0
 22 21  1  0
 22 28  1  0
 22 23  1  6
 24 23  1  0
 25 26  1  0
 25 24  1  0
 27 26  1  0
 28 29  1  0
 30 28  2  0
M  END
$$$$
