MYK.pdb
     RDKit          3D

 30 30  0  0  1  0  0  0  0  0999 V2000
   24.9538  -13.0769  -22.7977 C   0  0  0  0  0  0  0  0  0  0  0  0
   24.4088  -14.7357  -22.2577 S   0  0  0  0  0  0  0  0  0  0  0  0
   24.8253  -14.9512  -20.4961 C   0  0  0  0  0  0  0  0  0  0  0  0
   24.1275  -13.9174  -19.6694 C   0  0  0  0  0  0  0  0  0  0  0  0
   24.6806  -13.8775  -18.2828 C   0  0  2  0  0  0  0  0  0  0  0  0
   24.4002  -15.2294  -17.7277 N   0  0  0  0  0  0  0  0  0  0  0  0
   23.9601  -12.8935  -17.4463 C   0  0  0  0  0  0  0  0  0  0  0  0
   22.7640  -13.0972  -17.0497 O   0  0  0  0  0  0  0  0  0  0  0  0
   22.2719   -5.0986  -13.5327 O   0  0  0  0  0  0  0  0  0  0  0  0
   22.8967   -6.2119  -14.0830 C   0  0  0  0  0  0  0  0  0  0  0  0
   23.8126   -6.0986  -15.1064 C   0  0  0  0  0  0  0  0  0  0  0  0
   24.3948   -7.2463  -15.6052 C   0  0  0  0  0  0  0  0  0  0  0  0
   24.1026   -8.5016  -15.1272 C   0  0  0  0  0  0  0  0  0  0  0  0
   24.6996   -9.7306  -15.6487 C   0  0  0  0  0  0  0  0  0  0  0  0
   23.6992  -10.6367  -16.3781 C   0  0  2  0  0  0  0  0  0  0  0  0
   24.5268  -11.6464  -17.0065 N   0  0  0  0  0  0  0  0  0  0  0  0
   23.0217   -9.8496  -17.4062 C   0  0  0  0  0  0  0  0  0  0  0  0
   23.7035   -9.5417  -18.4484 O   0  0  0  0  0  0  0  0  0  0  0  0
   23.1836   -8.5889  -14.1038 C   0  0  0  0  0  0  0  0  0  0  0  0
   22.5771   -7.4510  -13.5767 C   0  0  0  0  0  0  0  0  0  0  0  0
   21.6928   -9.3986  -17.3632 N   0  0  0  0  0  0  0  0  0  0  0  0
   21.1777   -8.6405  -18.5057 C   0  0  1  0  0  0  0  0  0  0  0  0
   19.8146   -9.1245  -18.8891 C   0  0  0  0  0  0  0  0  0  0  0  0
   19.2921   -8.3425  -20.0571 C   0  0  0  0  0  0  0  0  0  0  0  0
   17.9023   -8.7510  -20.4811 C   0  0  0  0  0  0  0  0  0  0  0  0
   17.5277   -7.8624  -21.6732 C   0  0  0  0  0  0  0  0  0  0  0  0
   16.2332   -8.3063  -22.1424 N   0  0  0  0  0  0  0  0  0  0  0  0
   21.2122   -7.1998  -18.1647 C   0  0  0  0  0  0  0  0  0  0  0  0
   21.6932   -6.2844  -19.0935 O   0  0  0  0  0  0  0  0  0  0  0  0
   20.8296   -6.7411  -17.0739 O   0  0  0  0  0  0  0  0  0  0  0  0
  1  2  1  0
  2  3  1  0
  4  5  1  0
  4  3  1  0
  5  6  1  1
  7  5  1  0
  7  8  2  0
  9 10  1  0
 10 11  2  0
 11 12  1  0
 13 12  2  0
 13 14  1  0
 15 14  1  6
 15 16  1  0
 16  7  1  0
 17 15  1  0
 18 17  2  0
 19 13  1  0
 20 10  1  0
 20 19  2  0
 21 17  1  0
 22 21  1  0
 22 28  1  0
 22 23  1  1
 24 23  1  0
 25 26  1  0
 25 24  1  0
 27 26  1  0
 28 29  1  0
 30 28  2  0
M  END
$$$$
