TYI.pdb
     RDKit          3D

 28 28  0  0  1  0  0  0  0  0999 V2000
   21.6467  -14.9295  -17.4978 C   0  0  0  0  0  0  0  0  0  0  0  0
   20.8623  -15.3914  -18.7060 C   0  0  1  0  0  0  0  0  0  0  0  0
   20.5040  -16.7145  -18.4818 O   0  0  0  0  0  0  0  0  0  0  0  0
   19.5885  -14.5893  -18.8847 C   0  0  2  0  0  0  0  0  0  0  0  0
   18.8376  -15.0912  -20.0434 N   0  0  0  0  0  0  0  0  0  0  0  0
   19.8730  -13.1474  -19.0599 C   0  0  0  0  0  0  0  0  0  0  0  0
   20.3537  -12.7649  -20.1594 O   0  0  0  0  0  0  0  0  0  0  0  0
   13.5826  -10.6807  -17.8850 O   0  0  0  0  0  0  0  0  0  0  0  0
   14.9310  -10.5054  -18.2083 C   0  0  0  0  0  0  0  0  0  0  0  0
   15.5114  -11.5001  -18.9638 C   0  0  0  0  0  0  0  0  0  0  0  0
   16.8349  -11.3600  -19.2995 C   0  0  0  0  0  0  0  0  0  0  0  0
   17.5923  -10.2705  -18.9103 C   0  0  0  0  0  0  0  0  0  0  0  0
   19.0099  -10.2474  -19.3432 C   0  0  0  0  0  0  0  0  0  0  0  0
   19.9408  -10.7579  -18.2663 C   0  0  2  0  0  0  0  0  0  0  0  0
   19.6458  -12.1674  -18.0881 N   0  0  0  0  0  0  0  0  0  0  0  0
   19.6597   -9.9741  -17.0428 C   0  0  0  0  0  0  0  0  0  0  0  0
   18.7540  -10.3769  -16.2792 O   0  0  0  0  0  0  0  0  0  0  0  0
   16.9903   -9.3038  -18.1641 C   0  0  0  0  0  0  0  0  0  0  0  0
   15.6498   -9.4094  -17.8032 C   0  0  0  0  0  0  0  0  0  0  0  0
   23.7472  -10.8385  -14.7520 C   0  0  0  0  0  0  0  0  0  0  0  0
   22.3031  -10.4978  -15.0584 C   0  0  0  0  0  0  0  0  0  0  0  0
   22.1866   -8.9995  -15.0875 C   0  0  2  0  0  0  0  0  0  0  0  0
   22.5071   -8.4857  -13.6987 C   0  0  0  0  0  0  0  0  0  0  0  0
   20.7976   -8.5214  -15.4292 C   0  0  2  0  0  0  0  0  0  0  0  0
   20.4132   -8.8068  -16.7745 N   0  0  0  0  0  0  0  0  0  0  0  0
   20.7904   -7.0524  -15.2374 C   0  0  0  0  0  0  0  0  0  0  0  0
   20.8811   -6.2280  -16.1847 O   0  0  0  0  0  0  0  0  0  0  0  0
   20.6793   -6.5355  -13.9632 O   0  0  0  0  0  0  0  0  0  0  0  0
  2  1  1  1
  3  2  1  0
  4  2  1  0
  4  6  1  0
  4  5  1  6
  6 15  1  0
  7  6  2  0
  9  8  1  0
 10  9  2  0
 11 10  1  0
 12 11  2  0
 12 18  1  0
 13 12  1  0
 14 16  1  0
 14 13  1  6
 15 14  1  0
 16 25  1  0
 17 16  2  0
 18 19  2  0
 19  9  1  0
 21 20  1  0
 22 21  1  0
 22 24  1  0
 22 23  1  1
 24 26  1  0
 24 25  1  6
 26 27  2  0
 26 28  1  0
M  END
$$$$
