TYI.pdb
     RDKit          3D

 28 28  0  0  1  0  0  0  0  0999 V2000
   27.5221   -9.9471  -21.0898 C   0  0  0  0  0  0  0  0  0  0  0  0
   26.6903   -9.5173  -19.9016 C   0  0  1  0  0  0  0  0  0  0  0  0
   26.8829  -10.4624  -18.9021 O   0  0  0  0  0  0  0  0  0  0  0  0
   27.1392   -8.1735  -19.3626 C   0  0  2  0  0  0  0  0  0  0  0  0
   28.4994   -8.2801  -18.8178 N   0  0  0  0  0  0  0  0  0  0  0  0
   26.2198   -7.6716  -18.3168 C   0  0  0  0  0  0  0  0  0  0  0  0
   26.6566   -7.5683  -17.1400 O   0  0  0  0  0  0  0  0  0  0  0  0
   26.1244   -0.9117  -18.7461 O   0  0  0  0  0  0  0  0  0  0  0  0
   25.4103   -2.1113  -18.6765 C   0  0  0  0  0  0  0  0  0  0  0  0
   24.8340   -2.4082  -17.4613 C   0  0  0  0  0  0  0  0  0  0  0  0
   24.1251   -3.5791  -17.3576 C   0  0  0  0  0  0  0  0  0  0  0  0
   23.9732   -4.4559  -18.4161 C   0  0  0  0  0  0  0  0  0  0  0  0
   23.1819   -5.6839  -18.1643 C   0  0  0  0  0  0  0  0  0  0  0  0
   24.0097   -6.7693  -17.5135 C   0  0  2  0  0  0  0  0  0  0  0  0
   24.8899   -7.2990  -18.5382 N   0  0  0  0  0  0  0  0  0  0  0  0
   23.0656   -7.7923  -17.0112 C   0  0  0  0  0  0  0  0  0  0  0  0
   22.4823   -8.5180  -17.8472 O   0  0  0  0  0  0  0  0  0  0  0  0
   24.5548   -4.1344  -19.6045 C   0  0  0  0  0  0  0  0  0  0  0  0
   25.2818   -2.9561  -19.7498 C   0  0  0  0  0  0  0  0  0  0  0  0
   22.9085  -12.3842  -13.6277 C   0  0  0  0  0  0  0  0  0  0  0  0
   21.9913  -11.2419  -14.0137 C   0  0  0  0  0  0  0  0  0  0  0  0
   22.8487  -10.1389  -14.5685 C   0  0  2  0  0  0  0  0  0  0  0  0
   23.6786   -9.5835  -13.4292 C   0  0  0  0  0  0  0  0  0  0  0  0
   22.0459   -8.9939  -15.1336 C   0  0  2  0  0  0  0  0  0  0  0  0
   22.8519   -7.9194  -15.6182 N   0  0  0  0  0  0  0  0  0  0  0  0
   21.1918   -8.4856  -14.0350 C   0  0  0  0  0  0  0  0  0  0  0  0
   21.4858   -7.4813  -13.3349 O   0  0  0  0  0  0  0  0  0  0  0  0
   20.0068   -9.1292  -13.7442 O   0  0  0  0  0  0  0  0  0  0  0  0
  2  1  1  6
  3  2  1  0
  4  2  1  0
  4  6  1  0
  4  5  1  1
  6 15  1  0
  7  6  2  0
  9  8  1  0
 10  9  2  0
 11 10  1  0
 12 11  2  0
 12 18  1  0
 13 12  1  0
 14 16  1  0
 14 13  1  6
 15 14  1  0
 16 25  1  0
 17 16  2  0
 18 19  2  0
 19  9  1  0
 21 20  1  0
 22 21  1  0
 22 24  1  0
 22 23  1  1
 24 26  1  0
 24 25  1  1
 26 27  2  0
 26 28  1  0
M  END
$$$$
