TYI.pdb
     RDKit          3D

 28 28  0  0  1  0  0  0  0  0999 V2000
   29.5103  -20.4825  -12.6304 C   0  0  0  0  0  0  0  0  0  0  0  0
   28.9303  -19.8493  -13.8758 C   0  0  1  0  0  0  0  0  0  0  0  0
   29.6720  -20.3117  -14.9552 O   0  0  0  0  0  0  0  0  0  0  0  0
   27.4880  -20.2627  -14.0924 C   0  0  2  0  0  0  0  0  0  0  0  0
   26.9491  -19.5977  -15.2864 N   0  0  0  0  0  0  0  0  0  0  0  0
   26.6468  -19.9398  -12.9180 C   0  0  0  0  0  0  0  0  0  0  0  0
   26.3195  -18.7379  -12.7327 O   0  0  0  0  0  0  0  0  0  0  0  0
   20.7167  -18.8034  -14.7480 O   0  0  0  0  0  0  0  0  0  0  0  0
   21.5759  -19.4606  -13.8629 C   0  0  0  0  0  0  0  0  0  0  0  0
   21.5594  -19.0213  -12.5576 C   0  0  0  0  0  0  0  0  0  0  0  0
   22.3912  -19.6448  -11.6613 C   0  0  0  0  0  0  0  0  0  0  0  0
   23.2315  -20.6827  -12.0202 C   0  0  0  0  0  0  0  0  0  0  0  0
   24.0765  -21.2649  -10.9503 C   0  0  0  0  0  0  0  0  0  0  0  0
   25.3986  -20.5434  -10.8152 C   0  0  2  0  0  0  0  0  0  0  0  0
   26.1826  -20.8774  -11.9896 N   0  0  0  0  0  0  0  0  0  0  0  0
   26.0325  -21.0294   -9.5693 C   0  0  0  0  0  0  0  0  0  0  0  0
   26.5181  -22.1826   -9.5654 O   0  0  0  0  0  0  0  0  0  0  0  0
   23.2251  -21.0945  -13.3179 C   0  0  0  0  0  0  0  0  0  0  0  0
   22.3958  -20.4875  -14.2571 C   0  0  0  0  0  0  0  0  0  0  0  0
   28.8867  -17.9310   -5.9427 C   0  0  0  0  0  0  0  0  0  0  0  0
   28.4490  -19.0387   -6.8790 C   0  0  0  0  0  0  0  0  0  0  0  0
   27.1894  -19.6365   -6.3174 C   0  0  2  0  0  0  0  0  0  0  0  0
   27.5414  -20.2998   -5.0016 C   0  0  0  0  0  0  0  0  0  0  0  0
   26.5927  -20.6993   -7.2058 C   0  0  2  0  0  0  0  0  0  0  0  0
   26.0712  -20.1875   -8.4326 N   0  0  0  0  0  0  0  0  0  0  0  0
   25.4847  -21.3220   -6.4446 C   0  0  0  0  0  0  0  0  0  0  0  0
   24.2939  -20.9162   -6.4948 O   0  0  0  0  0  0  0  0  0  0  0  0
   25.7457  -22.4049   -5.6309 O   0  0  0  0  0  0  0  0  0  0  0  0
  2  1  1  1
  3  2  1  0
  4  2  1  0
  4  6  1  0
  4  5  1  6
  6 15  1  0
  7  6  2  0
  9  8  1  0
 10  9  2  0
 11 10  1  0
 12 11  2  0
 12 18  1  0
 13 12  1  0
 14 16  1  0
 14 13  1  6
 15 14  1  0
 16 25  1  0
 17 16  2  0
 18 19  2  0
 19  9  1  0
 21 20  1  0
 22 21  1  0
 22 24  1  0
 22 23  1  1
 24 26  1  0
 24 25  1  6
 26 27  2  0
 26 28  1  0
M  END
$$$$
