TYI.pdb
     RDKit          3D

 28 28  0  0  1  0  0  0  0  0999 V2000
   30.2744  -20.4120  -12.3626 C   0  0  0  0  0  0  0  0  0  0  0  0
   29.8607  -19.4187  -13.4259 C   0  0  1  0  0  0  0  0  0  0  0  0
   30.6994  -19.6112  -14.5162 O   0  0  0  0  0  0  0  0  0  0  0  0
   28.4367  -19.6562  -13.8880 C   0  0  2  0  0  0  0  0  0  0  0  0
   28.1002  -18.7273  -14.9753 N   0  0  0  0  0  0  0  0  0  0  0  0
   27.4704  -19.4973  -12.7780 C   0  0  0  0  0  0  0  0  0  0  0  0
   27.0177  -18.3458  -12.5432 O   0  0  0  0  0  0  0  0  0  0  0  0
   20.3148  -20.0884   -8.1391 O   0  0  0  0  0  0  0  0  0  0  0  0
   21.4209  -20.3289   -8.9590 C   0  0  0  0  0  0  0  0  0  0  0  0
   22.3096  -21.2849   -8.5193 C   0  0  0  0  0  0  0  0  0  0  0  0
   23.4076  -21.5463   -9.3005 C   0  0  0  0  0  0  0  0  0  0  0  0
   23.6467  -20.8920  -10.4949 C   0  0  0  0  0  0  0  0  0  0  0  0
   24.8717  -21.2733  -11.2375 C   0  0  0  0  0  0  0  0  0  0  0  0
   26.0426  -20.3781  -10.8993 C   0  0  2  0  0  0  0  0  0  0  0  0
   27.0168  -20.5392  -11.9624 N   0  0  0  0  0  0  0  0  0  0  0  0
   26.5696  -20.8288   -9.5918 C   0  0  0  0  0  0  0  0  0  0  0  0
   27.1410  -21.9407   -9.5377 O   0  0  0  0  0  0  0  0  0  0  0  0
   22.7499  -19.9522  -10.9028 C   0  0  0  0  0  0  0  0  0  0  0  0
   21.6238  -19.6584  -10.1386 C   0  0  0  0  0  0  0  0  0  0  0  0
   29.7168  -18.3890   -5.6169 C   0  0  0  0  0  0  0  0  0  0  0  0
   29.1161  -19.5943   -6.3109 C   0  0  0  0  0  0  0  0  0  0  0  0
   27.6352  -19.3627   -6.4224 C   0  0  2  0  0  0  0  0  0  0  0  0
   27.0615  -19.3669   -5.0202 C   0  0  0  0  0  0  0  0  0  0  0  0
   26.9246  -20.4443   -7.1971 C   0  0  2  0  0  0  0  0  0  0  0  0
   26.4146  -20.0008   -8.4549 N   0  0  0  0  0  0  0  0  0  0  0  0
   25.7892  -20.8962   -6.3596 C   0  0  0  0  0  0  0  0  0  0  0  0
   24.6097  -20.4810   -6.5067 O   0  0  0  0  0  0  0  0  0  0  0  0
   26.0099  -21.8200   -5.3593 O   0  0  0  0  0  0  0  0  0  0  0  0
  2  1  1  1
  3  2  1  0
  4  2  1  0
  4  6  1  0
  4  5  1  6
  6 15  1  0
  7  6  2  0
  9  8  1  0
 10  9  2  0
 11 10  1  0
 12 11  2  0
 12 18  1  0
 13 12  1  0
 14 16  1  0
 14 13  1  6
 15 14  1  0
 16 25  1  0
 17 16  2  0
 18 19  2  0
 19  9  1  0
 21 20  1  0
 22 21  1  0
 22 24  1  0
 22 23  1  1
 24 26  1  0
 24 25  1  6
 26 27  2  0
 26 28  1  0
M  END
$$$$
