TYI.pdb
     RDKit          3D

 28 28  0  0  1  0  0  0  0  0999 V2000
   14.6559   -8.3919  -15.8242 C   0  0  0  0  0  0  0  0  0  0  0  0
   15.0926   -9.7986  -15.4795 C   0  0  1  0  0  0  0  0  0  0  0  0
   14.6609  -10.6263  -16.5080 O   0  0  0  0  0  0  0  0  0  0  0  0
   16.6021   -9.9100  -15.3965 C   0  0  2  0  0  0  0  0  0  0  0  0
   16.9899  -11.3065  -15.1560 N   0  0  0  0  0  0  0  0  0  0  0  0
   17.1539   -9.0469  -14.3281 C   0  0  0  0  0  0  0  0  0  0  0  0
   17.1250   -9.4740  -13.1436 O   0  0  0  0  0  0  0  0  0  0  0  0
   23.3232  -10.5734  -14.8620 O   0  0  0  0  0  0  0  0  0  0  0  0
   22.3765   -9.5546  -14.7226 C   0  0  0  0  0  0  0  0  0  0  0  0
   22.3031   -8.9555  -13.4845 C   0  0  0  0  0  0  0  0  0  0  0  0
   21.3839   -7.9507  -13.3126 C   0  0  0  0  0  0  0  0  0  0  0  0
   20.5428   -7.5273  -14.3252 C   0  0  0  0  0  0  0  0  0  0  0  0
   19.5979   -6.4320  -14.0011 C   0  0  0  0  0  0  0  0  0  0  0  0
   18.2767   -6.9560  -13.4847 C   0  0  2  0  0  0  0  0  0  0  0  0
   17.7110   -7.7809  -14.5359 N   0  0  0  0  0  0  0  0  0  0  0  0
   17.4298   -5.7792  -13.1876 C   0  0  0  0  0  0  0  0  0  0  0  0
   16.8062   -5.2473  -14.1331 O   0  0  0  0  0  0  0  0  0  0  0  0
   20.6392   -8.1391  -15.5377 C   0  0  0  0  0  0  0  0  0  0  0  0
   21.5589   -9.1621  -15.7519 C   0  0  0  0  0  0  0  0  0  0  0  0
   13.9819   -3.6559   -8.7187 C   0  0  0  0  0  0  0  0  0  0  0  0
   14.7774   -3.2735   -9.9501 C   0  0  0  0  0  0  0  0  0  0  0  0
   15.6916   -4.4217  -10.2746 C   0  0  2  0  0  0  0  0  0  0  0  0
   16.7159   -4.5231   -9.1629 C   0  0  0  0  0  0  0  0  0  0  0  0
   16.4511   -4.2263  -11.5629 C   0  0  2  0  0  0  0  0  0  0  0  0
   17.3500   -5.2952  -11.8604 N   0  0  0  0  0  0  0  0  0  0  0  0
   17.2344   -2.9777  -11.4139 C   0  0  0  0  0  0  0  0  0  0  0  0
   16.7337   -1.8273  -11.5192 O   0  0  0  0  0  0  0  0  0  0  0  0
   18.5854   -3.0528  -11.1455 O   0  0  0  0  0  0  0  0  0  0  0  0
  2  1  1  6
  3  2  1  0
  4  2  1  0
  4  6  1  0
  4  5  1  1
  6 15  1  0
  7  6  2  0
  9  8  1  0
 10  9  2  0
 11 10  1  0
 12 11  2  0
 12 18  1  0
 13 12  1  0
 14 16  1  0
 14 13  1  6
 15 14  1  0
 16 25  1  0
 17 16  2  0
 18 19  2  0
 19  9  1  0
 21 20  1  0
 22 21  1  0
 22 24  1  0
 22 23  1  1
 24 26  1  0
 24 25  1  1
 26 27  2  0
 26 28  1  0
M  END
$$$$
