TYI.pdb
     RDKit          3D

 28 28  0  0  1  0  0  0  0  0999 V2000
   20.5727   -9.7365  -19.2931 C   0  0  0  0  0  0  0  0  0  0  0  0
   20.7561  -11.2078  -18.9931 C   0  0  1  0  0  0  0  0  0  0  0  0
   20.3776  -11.9092  -20.1307 O   0  0  0  0  0  0  0  0  0  0  0  0
   22.2059  -11.5419  -18.7027 C   0  0  2  0  0  0  0  0  0  0  0  0
   22.3501  -12.9837  -18.4605 N   0  0  0  0  0  0  0  0  0  0  0  0
   22.7159  -10.7858  -17.5369 C   0  0  0  0  0  0  0  0  0  0  0  0
   22.5182  -11.2602  -16.3871 O   0  0  0  0  0  0  0  0  0  0  0  0
   29.1918  -12.0305  -17.8201 O   0  0  0  0  0  0  0  0  0  0  0  0
   28.2061  -11.0933  -17.4984 C   0  0  0  0  0  0  0  0  0  0  0  0
   27.6178  -10.4388  -18.5579 C   0  0  0  0  0  0  0  0  0  0  0  0
   26.6453   -9.5114  -18.2778 C   0  0  0  0  0  0  0  0  0  0  0  0
   26.2436   -9.2176  -16.9877 C   0  0  0  0  0  0  0  0  0  0  0  0
   25.1825   -8.1945  -16.8300 C   0  0  0  0  0  0  0  0  0  0  0  0
   23.8505   -8.8097  -16.4637 C   0  0  2  0  0  0  0  0  0  0  0  0
   23.4081   -9.5729  -17.6157 N   0  0  0  0  0  0  0  0  0  0  0  0
   22.9292   -7.6945  -16.1509 C   0  0  0  0  0  0  0  0  0  0  0  0
   22.3639   -7.1115  -17.1029 O   0  0  0  0  0  0  0  0  0  0  0  0
   26.8439   -9.8812  -15.9616 C   0  0  0  0  0  0  0  0  0  0  0  0
   27.8344  -10.8290  -16.2045 C   0  0  0  0  0  0  0  0  0  0  0  0
   19.4969   -8.2550  -11.9887 C   0  0  0  0  0  0  0  0  0  0  0  0
   20.2002   -8.0384  -13.3130 C   0  0  0  0  0  0  0  0  0  0  0  0
   20.9263   -6.7248  -13.2318 C   0  0  2  0  0  0  0  0  0  0  0  0
   19.8905   -5.6380  -13.0286 C   0  0  0  0  0  0  0  0  0  0  0  0
   21.6823   -6.3887  -14.4928 C   0  0  2  0  0  0  0  0  0  0  0  0
   22.7162   -7.3239  -14.8020 N   0  0  0  0  0  0  0  0  0  0  0  0
   22.2971   -5.0573  -14.2823 C   0  0  0  0  0  0  0  0  0  0  0  0
   23.4421   -4.8920  -13.7855 O   0  0  0  0  0  0  0  0  0  0  0  0
   21.5983   -3.9234  -14.6414 O   0  0  0  0  0  0  0  0  0  0  0  0
  2  1  1  6
  3  2  1  0
  4  2  1  0
  4  6  1  0
  4  5  1  1
  6 15  1  0
  7  6  2  0
  9  8  1  0
 10  9  2  0
 11 10  1  0
 12 11  2  0
 12 18  1  0
 13 12  1  0
 14 16  1  0
 14 13  1  6
 15 14  1  0
 16 25  1  0
 17 16  2  0
 18 19  2  0
 19  9  1  0
 21 20  1  0
 22 21  1  0
 22 24  1  0
 22 23  1  6
 24 26  1  0
 24 25  1  1
 26 27  2  0
 26 28  1  0
M  END
$$$$
