TYI.pdb
     RDKit          3D

 28 28  0  0  1  0  0  0  0  0999 V2000
   14.5807  -27.9284    0.7058 C   0  0  0  0  0  0  0  0  0  0  0  0
   15.7390  -28.1457   -0.2425 C   0  0  1  0  0  0  0  0  0  0  0  0
   15.4156  -29.2335   -1.0434 O   0  0  0  0  0  0  0  0  0  0  0  0
   15.9510  -26.9490   -1.1484 C   0  0  2  0  0  0  0  0  0  0  0  0
   16.9646  -27.2620   -2.1648 N   0  0  0  0  0  0  0  0  0  0  0  0
   16.3648  -25.7523   -0.3818 C   0  0  0  0  0  0  0  0  0  0  0  0
   17.5402  -25.7112    0.0688 O   0  0  0  0  0  0  0  0  0  0  0  0
   15.8269  -17.7441    3.4430 O   0  0  0  0  0  0  0  0  0  0  0  0
   15.6662  -18.8877    2.6558 C   0  0  0  0  0  0  0  0  0  0  0  0
   14.5715  -19.6742    2.9391 C   0  0  0  0  0  0  0  0  0  0  0  0
   14.3832  -20.8055    2.1849 C   0  0  0  0  0  0  0  0  0  0  0  0
   15.2425  -21.1754    1.1666 C   0  0  0  0  0  0  0  0  0  0  0  0
   14.9189  -22.4220    0.4326 C   0  0  0  0  0  0  0  0  0  0  0  0
   15.9400  -23.5092    0.6821 C   0  0  2  0  0  0  0  0  0  0  0  0
   15.5419  -24.6525   -0.1177 N   0  0  0  0  0  0  0  0  0  0  0  0
   15.9090  -23.8090    2.1311 C   0  0  0  0  0  0  0  0  0  0  0  0
   14.9872  -24.5364    2.5634 O   0  0  0  0  0  0  0  0  0  0  0  0
   16.3156  -20.3774    0.9106 C   0  0  0  0  0  0  0  0  0  0  0  0
   16.5412  -19.2216    1.6533 C   0  0  0  0  0  0  0  0  0  0  0  0
   19.2531  -25.3744    6.7165 C   0  0  0  0  0  0  0  0  0  0  0  0
   18.0692  -24.4962    6.3668 C   0  0  0  0  0  0  0  0  0  0  0  0
   18.0762  -24.2968    4.8770 C   0  0  2  0  0  0  0  0  0  0  0  0
   19.2892  -23.4579    4.5304 C   0  0  0  0  0  0  0  0  0  0  0  0
   16.8634  -23.5543    4.3745 C   0  0  2  0  0  0  0  0  0  0  0  0
   16.9092  -23.2718    2.9756 N   0  0  0  0  0  0  0  0  0  0  0  0
   16.8090  -22.2717    5.1140 C   0  0  0  0  0  0  0  0  0  0  0  0
   16.3774  -22.1673    6.2921 O   0  0  0  0  0  0  0  0  0  0  0  0
   17.2486  -21.1166    4.5013 O   0  0  0  0  0  0  0  0  0  0  0  0
  2  1  1  1
  3  2  1  0
  4  2  1  0
  4  6  1  0
  4  5  1  6
  6 15  1  0
  7  6  2  0
  9  8  1  0
 10  9  2  0
 11 10  1  0
 12 11  2  0
 12 18  1  0
 13 12  1  0
 14 16  1  0
 14 13  1  1
 15 14  1  0
 16 25  1  0
 17 16  2  0
 18 19  2  0
 19  9  1  0
 21 20  1  0
 22 21  1  0
 22 24  1  0
 22 23  1  1
 24 26  1  0
 24 25  1  6
 26 27  2  0
 26 28  1  0
M  END
$$$$
