TYI.pdb
     RDKit          3D

 28 28  0  0  1  0  0  0  0  0999 V2000
   29.2301  -21.0610  -12.8823 C   0  0  0  0  0  0  0  0  0  0  0  0
   28.5923  -20.3725  -14.0687 C   0  0  1  0  0  0  0  0  0  0  0  0
   29.1342  -20.9416  -15.2139 O   0  0  0  0  0  0  0  0  0  0  0  0
   27.0933  -20.5956  -14.1042 C   0  0  2  0  0  0  0  0  0  0  0  0
   26.5051  -19.8734  -15.2403 N   0  0  0  0  0  0  0  0  0  0  0  0
   26.4478  -20.1586  -12.8459 C   0  0  0  0  0  0  0  0  0  0  0  0
   26.2614  -18.9255  -12.6697 O   0  0  0  0  0  0  0  0  0  0  0  0
   20.4981  -18.7677  -14.2023 O   0  0  0  0  0  0  0  0  0  0  0  0
   21.3882  -19.4262  -13.3494 C   0  0  0  0  0  0  0  0  0  0  0  0
   21.5629  -18.8688  -12.1020 C   0  0  0  0  0  0  0  0  0  0  0  0
   22.4305  -19.4901  -11.2386 C   0  0  0  0  0  0  0  0  0  0  0  0
   23.1234  -20.6385  -11.5746 C   0  0  0  0  0  0  0  0  0  0  0  0
   24.0278  -21.2042  -10.5452 C   0  0  0  0  0  0  0  0  0  0  0  0
   25.4038  -20.5786  -10.5926 C   0  0  2  0  0  0  0  0  0  0  0  0
   26.0244  -21.0193  -11.8279 N   0  0  0  0  0  0  0  0  0  0  0  0
   26.1394  -21.0582   -9.4013 C   0  0  0  0  0  0  0  0  0  0  0  0
   26.4432  -22.2707   -9.3440 O   0  0  0  0  0  0  0  0  0  0  0  0
   22.9295  -21.1655  -12.8150 C   0  0  0  0  0  0  0  0  0  0  0  0
   22.0580  -20.5649  -13.7194 C   0  0  0  0  0  0  0  0  0  0  0  0
   29.7418  -18.9440   -4.9407 C   0  0  0  0  0  0  0  0  0  0  0  0
   28.8679  -20.0772   -5.4381 C   0  0  0  0  0  0  0  0  0  0  0  0
   28.0914  -19.5667   -6.6195 C   0  0  2  0  0  0  0  0  0  0  0  0
   27.1985  -18.4436   -6.1331 C   0  0  0  0  0  0  0  0  0  0  0  0
   27.1955  -20.6127   -7.2345 C   0  0  2  0  0  0  0  0  0  0  0  0
   26.4740  -20.1442   -8.3742 N   0  0  0  0  0  0  0  0  0  0  0  0
   26.2229  -21.0117   -6.1907 C   0  0  0  0  0  0  0  0  0  0  0  0
   25.0201  -20.6395   -6.1838 O   0  0  0  0  0  0  0  0  0  0  0  0
   26.6320  -21.8340   -5.1614 O   0  0  0  0  0  0  0  0  0  0  0  0
  2  1  1  1
  3  2  1  0
  4  2  1  0
  4  6  1  0
  4  5  1  6
  6 15  1  0
  7  6  2  0
  9  8  1  0
 10  9  2  0
 11 10  1  0
 12 11  2  0
 12 18  1  0
 13 12  1  0
 14 16  1  0
 14 13  1  1
 15 14  1  0
 16 25  1  0
 17 16  2  0
 18 19  2  0
 19  9  1  0
 21 20  1  0
 22 21  1  0
 22 24  1  0
 22 23  1  1
 24 26  1  0
 24 25  1  6
 26 27  2  0
 26 28  1  0
M  END
$$$$
