TYI.pdb
     RDKit          3D

 28 28  0  0  1  0  0  0  0  0999 V2000
   28.7439  -18.8220  -13.6580 C   0  0  0  0  0  0  0  0  0  0  0  0
   28.3254  -20.2333  -14.0061 C   0  0  1  0  0  0  0  0  0  0  0  0
   28.9583  -21.0828  -13.1078 O   0  0  0  0  0  0  0  0  0  0  0  0
   26.8297  -20.4261  -13.8524 C   0  0  2  0  0  0  0  0  0  0  0  0
   26.1166  -19.6686  -14.8898 N   0  0  0  0  0  0  0  0  0  0  0  0
   26.3609  -20.0033  -12.5136 C   0  0  0  0  0  0  0  0  0  0  0  0
   26.0551  -18.7932  -12.3449 O   0  0  0  0  0  0  0  0  0  0  0  0
   19.9384  -18.9638  -12.1826 O   0  0  0  0  0  0  0  0  0  0  0  0
   21.0876  -19.5605  -11.6564 C   0  0  0  0  0  0  0  0  0  0  0  0
   21.4147  -19.2185  -10.3630 C   0  0  0  0  0  0  0  0  0  0  0  0
   22.5377  -19.7863   -9.8147 C   0  0  0  0  0  0  0  0  0  0  0  0
   23.3382  -20.6761  -10.5072 C   0  0  0  0  0  0  0  0  0  0  0  0
   24.5211  -21.2132   -9.7932 C   0  0  0  0  0  0  0  0  0  0  0  0
   25.7755  -20.4267  -10.1007 C   0  0  2  0  0  0  0  0  0  0  0  0
   26.2298  -20.8537  -11.4109 N   0  0  0  0  0  0  0  0  0  0  0  0
   26.7587  -20.7470   -9.0419 C   0  0  0  0  0  0  0  0  0  0  0  0
   27.5137  -21.7296   -9.2155 O   0  0  0  0  0  0  0  0  0  0  0  0
   22.9887  -20.9944  -11.7841 C   0  0  0  0  0  0  0  0  0  0  0  0
   21.8570  -20.4396  -12.3756 C   0  0  0  0  0  0  0  0  0  0  0  0
   29.8872  -18.1390   -4.5286 C   0  0  0  0  0  0  0  0  0  0  0  0
   29.3464  -19.4315   -5.1048 C   0  0  0  0  0  0  0  0  0  0  0  0
   28.3856  -19.0719   -6.2034 C   0  0  2  0  0  0  0  0  0  0  0  0
   27.2697  -18.2518   -5.5889 C   0  0  0  0  0  0  0  0  0  0  0  0
   27.7485  -20.2768   -6.8492 C   0  0  2  0  0  0  0  0  0  0  0  0
   26.8164  -19.9437   -7.8784 N   0  0  0  0  0  0  0  0  0  0  0  0
   27.0299  -21.0071   -5.7791 C   0  0  0  0  0  0  0  0  0  0  0  0
   25.7785  -20.9839   -5.6425 O   0  0  0  0  0  0  0  0  0  0  0  0
   27.7470  -21.7594   -4.8722 O   0  0  0  0  0  0  0  0  0  0  0  0
  2  1  1  1
  3  2  1  0
  4  2  1  0
  4  6  1  0
  4  5  1  6
  6 15  1  0
  7  6  2  0
  9  8  1  0
 10  9  2  0
 11 10  1  0
 12 11  2  0
 12 18  1  0
 13 12  1  0
 14 16  1  0
 14 13  1  1
 15 14  1  0
 16 25  1  0
 17 16  2  0
 18 19  2  0
 19  9  1  0
 21 20  1  0
 22 21  1  0
 22 24  1  0
 22 23  1  1
 24 26  1  0
 24 25  1  6
 26 27  2  0
 26 28  1  0
M  END
$$$$
