TYI.pdb
     RDKit          3D

 28 28  0  0  1  0  0  0  0  0999 V2000
   28.1883  -22.3573  -15.4674 C   0  0  0  0  0  0  0  0  0  0  0  0
   28.2184  -21.3224  -16.5703 C   0  0  1  0  0  0  0  0  0  0  0  0
   28.7318  -21.9430  -17.7019 O   0  0  0  0  0  0  0  0  0  0  0  0
   26.8269  -20.8232  -16.9056 C   0  0  2  0  0  0  0  0  0  0  0  0
   26.8920  -19.8628  -18.0153 N   0  0  0  0  0  0  0  0  0  0  0  0
   26.1784  -20.1910  -15.7348 C   0  0  0  0  0  0  0  0  0  0  0  0
   26.4682  -18.9947  -15.4679 O   0  0  0  0  0  0  0  0  0  0  0  0
   20.8904  -16.6951  -17.4615 O   0  0  0  0  0  0  0  0  0  0  0  0
   21.4484  -17.6686  -16.6282 C   0  0  0  0  0  0  0  0  0  0  0  0
   21.7465  -17.2732  -15.3430 C   0  0  0  0  0  0  0  0  0  0  0  0
   22.2960  -18.2044  -14.4974 C   0  0  0  0  0  0  0  0  0  0  0  0
   22.5557  -19.5054  -14.8874 C   0  0  0  0  0  0  0  0  0  0  0  0
   23.1511  -20.4062  -13.8716 C   0  0  0  0  0  0  0  0  0  0  0  0
   24.6436  -20.2033  -13.7378 C   0  0  2  0  0  0  0  0  0  0  0  0
   25.2588  -20.8270  -14.8945 N   0  0  0  0  0  0  0  0  0  0  0  0
   25.0576  -20.8512  -12.4732 C   0  0  0  0  0  0  0  0  0  0  0  0
   24.8974  -22.0874  -12.3636 O   0  0  0  0  0  0  0  0  0  0  0  0
   22.2500  -19.8660  -16.1642 C   0  0  0  0  0  0  0  0  0  0  0  0
   21.6916  -18.9505  -17.0521 C   0  0  0  0  0  0  0  0  0  0  0  0
   27.9942  -19.5224   -7.1999 C   0  0  0  0  0  0  0  0  0  0  0  0
   27.1122  -20.4751   -7.9808 C   0  0  0  0  0  0  0  0  0  0  0  0
   26.7796  -19.8159   -9.2901 C   0  0  2  0  0  0  0  0  0  0  0  0
   25.9719  -18.5707   -8.9866 C   0  0  0  0  0  0  0  0  0  0  0  0
   25.9375  -20.6838  -10.1914 C   0  0  2  0  0  0  0  0  0  0  0  0
   25.6156  -20.0651  -11.4374 N   0  0  0  0  0  0  0  0  0  0  0  0
   24.6780  -20.9632   -9.4633 C   0  0  0  0  0  0  0  0  0  0  0  0
   23.6112  -20.3209   -9.6497 O   0  0  0  0  0  0  0  0  0  0  0  0
   24.6464  -21.9754   -8.5266 O   0  0  0  0  0  0  0  0  0  0  0  0
  2  1  1  1
  3  2  1  0
  4  2  1  0
  4  6  1  0
  4  5  1  6
  6 15  1  0
  7  6  2  0
  9  8  1  0
 10  9  2  0
 11 10  1  0
 12 11  2  0
 12 18  1  0
 13 12  1  0
 14 16  1  0
 14 13  1  6
 15 14  1  0
 16 25  1  0
 17 16  2  0
 18 19  2  0
 19  9  1  0
 21 20  1  0
 22 21  1  0
 22 24  1  0
 22 23  1  1
 24 26  1  0
 24 25  1  6
 26 27  2  0
 26 28  1  0
M  END
$$$$
