FCC.pdb
     RDKit          3D

 24 24  0  0  1  0  0  0  0  0999 V2000
   23.8443  -11.2194  -14.5200 N   0  0  0  0  0  0  0  0  0  0  0  0
   23.5084   -9.8412  -14.9172 C   0  0  1  0  0  0  0  0  0  0  0  0
   23.9608   -9.7108  -16.3538 C   0  0  0  0  0  0  0  0  0  0  0  0
   25.4320   -9.7498  -16.5183 C   0  0  0  0  0  0  0  0  0  0  0  0
   26.2099   -8.6159  -16.6017 C   0  0  0  0  0  0  0  0  0  0  0  0
   27.5867   -8.6739  -16.7480 C   0  0  0  0  0  0  0  0  0  0  0  0
   28.2322   -9.8953  -16.8161 C   0  0  0  0  0  0  0  0  0  0  0  0
   27.4721  -11.0327  -16.7349 C   0  0  0  0  0  0  0  0  0  0  0  0
   26.1136  -10.9622  -16.5904 C   0  0  0  0  0  0  0  0  0  0  0  0
   22.0427   -9.6323  -14.8558 C   0  0  0  0  0  0  0  0  0  0  0  0
   21.2260  -10.6001  -14.8675 O   0  0  0  0  0  0  0  0  0  0  0  0
   21.4501   -8.3433  -14.7801 N   0  0  0  0  0  0  0  0  0  0  0  0
   19.9878   -8.1859  -14.6458 C   0  0  1  0  0  0  0  0  0  0  0  0
   19.7055   -8.4867  -13.1834 C   0  0  0  0  0  0  0  0  0  0  0  0
   21.0068   -9.3973  -12.3639 S   0  0  0  0  0  0  0  0  0  0  0  0
   19.5715   -6.8388  -15.0221 C   0  0  0  0  0  0  0  0  0  0  0  0
   20.3055   -5.8276  -14.8120 O   0  0  0  0  0  0  0  0  0  0  0  0
   18.3246   -6.5987  -15.6432 N   0  0  0  0  0  0  0  0  0  0  0  0
   17.9736   -5.2719  -16.1569 C   0  0  1  0  0  0  0  0  0  0  0  0
   16.7793   -5.3586  -17.0870 C   0  0  0  0  0  0  0  0  0  0  0  0
   17.0073   -6.6125  -18.3570 S   0  0  0  0  0  0  0  0  0  0  0  0
   17.6002   -4.3832  -15.0390 C   0  0  0  0  0  0  0  0  0  0  0  0
   17.5455   -3.0142  -15.1292 O   0  0  0  0  0  0  0  0  0  0  0  0
   17.3127   -4.8996  -13.9317 O   0  0  0  0  0  0  0  0  0  0  0  0
  2  1  1  6
  2 10  1  0
  3  2  1  0
  4  3  1  0
  5  4  2  0
  6  5  1  0
  7  6  2  0
  7  8  1  0
  8  9  2  0
  9  4  1  0
 10 11  2  0
 12 10  1  0
 12 13  1  0
 13 14  1  1
 14 15  1  0
 16 17  2  0
 16 13  1  0
 18 16  1  0
 19 18  1  0
 19 20  1  6
 21 20  1  0
 22 19  1  0
 23 22  1  0
 24 22  2  0
M  END
$$$$
