FCC.pdb
     RDKit          3D

 24 24  0  0  1  0  0  0  0  0999 V2000
   27.5846  -20.8605  -15.9858 N   0  0  0  0  0  0  0  0  0  0  0  0
   27.1844  -19.9671  -14.8849 C   0  0  1  0  0  0  0  0  0  0  0  0
   26.4440  -18.8230  -15.5390 C   0  0  0  0  0  0  0  0  0  0  0  0
   27.3045  -17.9683  -16.3888 C   0  0  0  0  0  0  0  0  0  0  0  0
   27.0350  -17.7126  -17.7154 C   0  0  0  0  0  0  0  0  0  0  0  0
   27.8491  -16.9035  -18.4918 C   0  0  0  0  0  0  0  0  0  0  0  0
   28.9776  -16.3180  -17.9471 C   0  0  0  0  0  0  0  0  0  0  0  0
   29.2596  -16.5630  -16.6285 C   0  0  0  0  0  0  0  0  0  0  0  0
   28.4479  -17.3636  -15.8725 C   0  0  0  0  0  0  0  0  0  0  0  0
   26.2614  -20.6703  -13.9632 C   0  0  0  0  0  0  0  0  0  0  0  0
   25.5451  -21.6428  -14.3439 O   0  0  0  0  0  0  0  0  0  0  0  0
   26.1128  -20.3095  -12.5972 N   0  0  0  0  0  0  0  0  0  0  0  0
   25.0600  -20.9196  -11.7603 C   0  0  1  0  0  0  0  0  0  0  0  0
   25.3852  -20.4641  -10.3476 C   0  0  0  0  0  0  0  0  0  0  0  0
   26.9732  -21.0258   -9.7499 S   0  0  0  0  0  0  0  0  0  0  0  0
   23.7350  -20.4837  -12.1889 C   0  0  0  0  0  0  0  0  0  0  0  0
   23.4659  -19.2630  -12.3964 O   0  0  0  0  0  0  0  0  0  0  0  0
   22.6855  -21.4079  -12.3955 N   0  0  0  0  0  0  0  0  0  0  0  0
   21.3545  -20.9653  -12.8198 C   0  0  1  0  0  0  0  0  0  0  0  0
   20.8075  -21.8783  -13.8996 C   0  0  0  0  0  0  0  0  0  0  0  0
   21.8990  -21.9579  -15.3277 S   0  0  0  0  0  0  0  0  0  0  0  0
   20.4197  -21.0199  -11.6787 C   0  0  0  0  0  0  0  0  0  0  0  0
   19.1472  -20.5048  -11.7008 O   0  0  0  0  0  0  0  0  0  0  0  0
   20.8006  -21.5692  -10.6163 O   0  0  0  0  0  0  0  0  0  0  0  0
  2  1  1  6
  2 10  1  0
  3  2  1  0
  4  3  1  0
  5  4  2  0
  6  5  1  0
  7  6  2  0
  7  8  1  0
  8  9  2  0
  9  4  1  0
 10 11  2  0
 12 10  1  0
 12 13  1  0
 13 14  1  1
 14 15  1  0
 16 17  2  0
 16 13  1  0
 18 16  1  0
 19 18  1  0
 19 20  1  6
 21 20  1  0
 22 19  1  0
 23 22  1  0
 24 22  2  0
M  END
$$$$
