FCC.pdb
     RDKit          3D

 24 24  0  0  1  0  0  0  0  0999 V2000
   24.9172  -10.3872  -18.2299 N   0  0  0  0  0  0  0  0  0  0  0  0
   24.4709   -9.8758  -16.9224 C   0  0  1  0  0  0  0  0  0  0  0  0
   25.6797   -9.2002  -16.3163 C   0  0  0  0  0  0  0  0  0  0  0  0
   26.8467  -10.0989  -16.1625 C   0  0  0  0  0  0  0  0  0  0  0  0
   28.0373   -9.9064  -16.8282 C   0  0  0  0  0  0  0  0  0  0  0  0
   29.1205  -10.7551  -16.6646 C   0  0  0  0  0  0  0  0  0  0  0  0
   29.0360  -11.8410  -15.8120 C   0  0  0  0  0  0  0  0  0  0  0  0
   27.8579  -12.0462  -15.1426 C   0  0  0  0  0  0  0  0  0  0  0  0
   26.7958  -11.2011  -15.3126 C   0  0  0  0  0  0  0  0  0  0  0  0
   23.3999   -8.8679  -17.1042 C   0  0  0  0  0  0  0  0  0  0  0  0
   23.3472   -8.1218  -18.1260 O   0  0  0  0  0  0  0  0  0  0  0  0
   22.3624   -8.6656  -16.1549 N   0  0  0  0  0  0  0  0  0  0  0  0
   21.2992   -7.6685  -16.3921 C   0  0  1  0  0  0  0  0  0  0  0  0
   20.0821   -8.2330  -15.6787 C   0  0  0  0  0  0  0  0  0  0  0  0
   18.6940   -7.1092  -15.6088 S   0  0  0  0  0  0  0  0  0  0  0  0
   21.6854   -6.3606  -15.8728 C   0  0  0  0  0  0  0  0  0  0  0  0
   22.3961   -6.2367  -14.8312 O   0  0  0  0  0  0  0  0  0  0  0  0
   21.2842   -5.1653  -16.5120 N   0  0  0  0  0  0  0  0  0  0  0  0
   21.6277   -3.8534  -15.9569 C   0  0  1  0  0  0  0  0  0  0  0  0
   22.4062   -3.0336  -16.9672 C   0  0  0  0  0  0  0  0  0  0  0  0
   22.8694   -1.4236  -16.3111 S   0  0  0  0  0  0  0  0  0  0  0  0
   20.3961   -3.1060  -15.6354 C   0  0  0  0  0  0  0  0  0  0  0  0
   20.2518   -2.2965  -14.5358 O   0  0  0  0  0  0  0  0  0  0  0  0
   19.4123   -3.2090  -16.4081 O   0  0  0  0  0  0  0  0  0  0  0  0
  2  1  1  6
  2 10  1  0
  3  2  1  0
  4  3  1  0
  5  4  2  0
  6  5  1  0
  7  6  2  0
  7  8  1  0
  8  9  2  0
  9  4  1  0
 10 11  2  0
 12 10  1  0
 12 13  1  0
 13 14  1  1
 14 15  1  0
 16 17  2  0
 16 13  1  0
 18 16  1  0
 19 18  1  0
 19 20  1  6
 21 20  1  0
 22 19  1  0
 23 22  1  0
 24 22  2  0
M  END
$$$$
