FCC.pdb
     RDKit          3D

 24 24  0  0  1  0  0  0  0  0999 V2000
   28.2214  -20.4318  -15.6810 N   0  0  0  0  0  0  0  0  0  0  0  0
   27.5215  -19.6399  -14.6547 C   0  0  1  0  0  0  0  0  0  0  0  0
   26.5769  -18.7359  -15.4135 C   0  0  0  0  0  0  0  0  0  0  0  0
   27.2454  -17.5744  -16.0437 C   0  0  0  0  0  0  0  0  0  0  0  0
   27.7585  -17.6041  -17.3218 C   0  0  0  0  0  0  0  0  0  0  0  0
   28.3740  -16.5035  -17.8964 C   0  0  0  0  0  0  0  0  0  0  0  0
   28.4936  -15.3206  -17.1897 C   0  0  0  0  0  0  0  0  0  0  0  0
   27.9883  -15.2751  -15.9166 C   0  0  0  0  0  0  0  0  0  0  0  0
   27.3828  -16.3685  -15.3606 C   0  0  0  0  0  0  0  0  0  0  0  0
   26.7289  -20.5288  -13.7729 C   0  0  0  0  0  0  0  0  0  0  0  0
   26.1782  -21.5843  -14.2045 O   0  0  0  0  0  0  0  0  0  0  0  0
   26.5297  -20.2656  -12.3911 N   0  0  0  0  0  0  0  0  0  0  0  0
   25.5222  -21.0139  -11.6125 C   0  0  1  0  0  0  0  0  0  0  0  0
   25.8202  -20.6601  -10.1652 C   0  0  0  0  0  0  0  0  0  0  0  0
   24.6205  -21.2916   -9.0005 S   0  0  0  0  0  0  0  0  0  0  0  0
   24.1699  -20.6322  -12.0063 C   0  0  0  0  0  0  0  0  0  0  0  0
   23.8229  -19.4190  -12.1212 O   0  0  0  0  0  0  0  0  0  0  0  0
   23.1800  -21.6032  -12.2811 N   0  0  0  0  0  0  0  0  0  0  0  0
   21.8052  -21.2163  -12.6093 C   0  0  1  0  0  0  0  0  0  0  0  0
   21.3489  -21.8980  -13.8844 C   0  0  0  0  0  0  0  0  0  0  0  0
   22.5259  -21.6692  -15.2259 S   0  0  0  0  0  0  0  0  0  0  0  0
   20.8926  -21.6410  -11.5295 C   0  0  0  0  0  0  0  0  0  0  0  0
   21.2779  -22.3934  -10.4476 O   0  0  0  0  0  0  0  0  0  0  0  0
   19.6866  -21.2990  -11.5936 O   0  0  0  0  0  0  0  0  0  0  0  0
  2  1  1  6
  2 10  1  0
  3  2  1  0
  4  3  1  0
  5  4  2  0
  6  5  1  0
  7  6  2  0
  7  8  1  0
  8  9  2  0
  9  4  1  0
 10 11  2  0
 12 10  1  0
 12 13  1  0
 13 14  1  1
 14 15  1  0
 16 17  2  0
 16 13  1  0
 18 16  1  0
 19 18  1  0
 19 20  1  6
 21 20  1  0
 22 19  1  0
 23 22  1  0
 24 22  2  0
M  END
$$$$
