FCC.pdb
     RDKit          3D

 24 24  0  0  1  0  0  0  0  0999 V2000
   22.6814  -19.5757  -16.8062 N   0  0  0  0  0  0  0  0  0  0  0  0
   22.0044  -18.7623  -15.7814 C   0  0  1  0  0  0  0  0  0  0  0  0
   20.9266  -17.9982  -16.5159 C   0  0  0  0  0  0  0  0  0  0  0  0
   21.4549  -17.0141  -17.4884 C   0  0  0  0  0  0  0  0  0  0  0  0
   21.4866  -17.2414  -18.8467 C   0  0  0  0  0  0  0  0  0  0  0  0
   21.9783  -16.3041  -19.7411 C   0  0  0  0  0  0  0  0  0  0  0  0
   22.4612  -15.0900  -19.2873 C   0  0  0  0  0  0  0  0  0  0  0  0
   22.4368  -14.8489  -17.9385 C   0  0  0  0  0  0  0  0  0  0  0  0
   21.9486  -15.7824  -17.0657 C   0  0  0  0  0  0  0  0  0  0  0  0
   21.3664  -19.6379  -14.7705 C   0  0  0  0  0  0  0  0  0  0  0  0
   20.9799  -20.8116  -15.0476 O   0  0  0  0  0  0  0  0  0  0  0  0
   21.1430  -19.2300  -13.4280 N   0  0  0  0  0  0  0  0  0  0  0  0
   20.5397  -20.1516  -12.4442 C   0  0  1  0  0  0  0  0  0  0  0  0
   21.0980  -19.6979  -11.1058 C   0  0  0  0  0  0  0  0  0  0  0  0
   20.5310  -20.6671   -9.7152 S   0  0  0  0  0  0  0  0  0  0  0  0
   19.0829  -20.0795  -12.4870 C   0  0  0  0  0  0  0  0  0  0  0  0
   18.4706  -18.9796  -12.6310 O   0  0  0  0  0  0  0  0  0  0  0  0
   18.2833  -21.2395  -12.3713 N   0  0  0  0  0  0  0  0  0  0  0  0
   16.8212  -21.1650  -12.4346 C   0  0  1  0  0  0  0  0  0  0  0  0
   16.2569  -22.3664  -13.1675 C   0  0  0  0  0  0  0  0  0  0  0  0
   17.2967  -22.8578  -14.5512 S   0  0  0  0  0  0  0  0  0  0  0  0
   16.2582  -21.1746  -11.0700 C   0  0  0  0  0  0  0  0  0  0  0  0
   14.9348  -20.9498  -10.7818 O   0  0  0  0  0  0  0  0  0  0  0  0
   17.0278  -21.4013  -10.1047 O   0  0  0  0  0  0  0  0  0  0  0  0
  2  1  1  6
  2 10  1  0
  3  2  1  0
  4  3  1  0
  5  4  2  0
  6  5  1  0
  7  6  2  0
  7  8  1  0
  8  9  2  0
  9  4  1  0
 10 11  2  0
 12 10  1  0
 12 13  1  0
 13 14  1  1
 14 15  1  0
 16 17  2  0
 16 13  1  0
 18 16  1  0
 19 18  1  0
 19 20  1  6
 21 20  1  0
 22 19  1  0
 23 22  1  0
 24 22  2  0
M  END
$$$$
