FCC.pdb
     RDKit          3D

 24 24  0  0  1  0  0  0  0  0999 V2000
   27.8408  -21.0435  -15.9850 N   0  0  0  0  0  0  0  0  0  0  0  0
   27.3503  -20.0561  -15.0078 C   0  0  1  0  0  0  0  0  0  0  0  0
   26.6385  -18.9991  -15.8208 C   0  0  0  0  0  0  0  0  0  0  0  0
   27.5554  -18.1083  -16.5684 C   0  0  0  0  0  0  0  0  0  0  0  0
   28.0104  -18.3912  -17.8375 C   0  0  0  0  0  0  0  0  0  0  0  0
   28.8625  -17.5403  -18.5234 C   0  0  0  0  0  0  0  0  0  0  0  0
   29.2892  -16.3599  -17.9424 C   0  0  0  0  0  0  0  0  0  0  0  0
   28.8455  -16.0642  -16.6799 C   0  0  0  0  0  0  0  0  0  0  0  0
   28.0043  -16.9124  -16.0133 C   0  0  0  0  0  0  0  0  0  0  0  0
   26.3772  -20.6870  -14.0854 C   0  0  0  0  0  0  0  0  0  0  0  0
   25.6263  -21.6389  -14.4509 O   0  0  0  0  0  0  0  0  0  0  0  0
   26.2156  -20.2749  -12.7354 N   0  0  0  0  0  0  0  0  0  0  0  0
   25.1637  -20.8632  -11.8820 C   0  0  1  0  0  0  0  0  0  0  0  0
   25.5084  -20.3971  -10.4774 C   0  0  0  0  0  0  0  0  0  0  0  0
   26.9970  -21.1298   -9.8128 S   0  0  0  0  0  0  0  0  0  0  0  0
   23.8400  -20.4154  -12.3023 C   0  0  0  0  0  0  0  0  0  0  0  0
   23.6658  -19.3166  -12.9088 O   0  0  0  0  0  0  0  0  0  0  0  0
   22.6851  -21.1915  -12.0528 N   0  0  0  0  0  0  0  0  0  0  0  0
   21.3814  -20.8151  -12.6060 C   0  0  1  0  0  0  0  0  0  0  0  0
   21.3245  -21.1165  -14.0908 C   0  0  0  0  0  0  0  0  0  0  0  0
   19.8936  -22.1203  -14.5176 S   0  0  0  0  0  0  0  0  0  0  0  0
   20.3139  -21.5991  -11.9541 C   0  0  0  0  0  0  0  0  0  0  0  0
   18.9779  -21.2915  -12.0288 O   0  0  0  0  0  0  0  0  0  0  0  0
   20.6354  -22.6125  -11.2870 O   0  0  0  0  0  0  0  0  0  0  0  0
  2  1  1  6
  2 10  1  0
  3  2  1  0
  4  3  1  0
  5  4  2  0
  6  5  1  0
  7  6  2  0
  7  8  1  0
  8  9  2  0
  9  4  1  0
 10 11  2  0
 12 10  1  0
 12 13  1  0
 13 14  1  1
 14 15  1  0
 16 17  2  0
 16 13  1  0
 18 16  1  0
 19 18  1  0
 19 20  1  6
 21 20  1  0
 22 19  1  0
 23 22  1  0
 24 22  2  0
M  END
$$$$
