FCC.pdb
     RDKit          3D

 24 24  0  0  1  0  0  0  0  0999 V2000
   25.7192  -21.5228  -15.1537 N   0  0  0  0  0  0  0  0  0  0  0  0
   24.6552  -20.7486  -15.8161 C   0  0  1  0  0  0  0  0  0  0  0  0
   24.2950  -21.5327  -17.0573 C   0  0  0  0  0  0  0  0  0  0  0  0
   25.2634  -21.3669  -18.1654 C   0  0  0  0  0  0  0  0  0  0  0  0
   25.2402  -20.2952  -19.0307 C   0  0  0  0  0  0  0  0  0  0  0  0
   26.1605  -20.1546  -20.0571 C   0  0  0  0  0  0  0  0  0  0  0  0
   27.1478  -21.1046  -20.2466 C   0  0  0  0  0  0  0  0  0  0  0  0
   27.1840  -22.1771  -19.3941 C   0  0  0  0  0  0  0  0  0  0  0  0
   26.2698  -22.3043  -18.3845 C   0  0  0  0  0  0  0  0  0  0  0  0
   23.4625  -20.6629  -14.9409 C   0  0  0  0  0  0  0  0  0  0  0  0
   23.3292  -21.3931  -13.9149 O   0  0  0  0  0  0  0  0  0  0  0  0
   22.3899  -19.7638  -15.1853 N   0  0  0  0  0  0  0  0  0  0  0  0
   21.2317  -19.6962  -14.2715 C   0  0  1  0  0  0  0  0  0  0  0  0
   20.7567  -18.2559  -14.3651 C   0  0  0  0  0  0  0  0  0  0  0  0
   19.4321  -17.8522  -13.2351 S   0  0  0  0  0  0  0  0  0  0  0  0
   20.1971  -20.6451  -14.6698 C   0  0  0  0  0  0  0  0  0  0  0  0
   19.9000  -20.8408  -15.8859 O   0  0  0  0  0  0  0  0  0  0  0  0
   19.4760  -21.3949  -13.7126 N   0  0  0  0  0  0  0  0  0  0  0  0
   18.4393  -22.3484  -14.1170 C   0  0  1  0  0  0  0  0  0  0  0  0
   18.6153  -23.6678  -13.3911 C   0  0  0  0  0  0  0  0  0  0  0  0
   20.3434  -24.1612  -13.3050 S   0  0  0  0  0  0  0  0  0  0  0  0
   17.1067  -21.8221  -13.7616 C   0  0  0  0  0  0  0  0  0  0  0  0
   15.9302  -22.4958  -13.9782 O   0  0  0  0  0  0  0  0  0  0  0  0
   17.0318  -20.6887  -13.2274 O   0  0  0  0  0  0  0  0  0  0  0  0
  2  1  1  1
  2 10  1  0
  3  2  1  0
  4  3  1  0
  5  4  2  0
  6  5  1  0
  7  6  2  0
  7  8  1  0
  8  9  2  0
  9  4  1  0
 10 11  2  0
 12 10  1  0
 12 13  1  0
 13 14  1  6
 14 15  1  0
 16 17  2  0
 16 13  1  0
 18 16  1  0
 19 18  1  0
 19 20  1  1
 21 20  1  0
 22 19  1  0
 23 22  1  0
 24 22  2  0
M  END
$$$$
