FCC.pdb
     RDKit          3D

 24 24  0  0  1  0  0  0  0  0999 V2000
   22.2459  -15.2918  -18.3448 N   0  0  0  0  0  0  0  0  0  0  0  0
   22.7775  -13.9381  -18.5793 C   0  0  1  0  0  0  0  0  0  0  0  0
   22.2614  -13.5291  -19.9400 C   0  0  0  0  0  0  0  0  0  0  0  0
   22.8164  -14.3348  -21.0517 C   0  0  0  0  0  0  0  0  0  0  0  0
   24.0868  -14.1519  -21.5521 C   0  0  0  0  0  0  0  0  0  0  0  0
   24.5903  -14.9219  -22.5884 C   0  0  0  0  0  0  0  0  0  0  0  0
   23.8172  -15.9152  -23.1616 C   0  0  0  0  0  0  0  0  0  0  0  0
   22.5508  -16.1094  -22.6750 C   0  0  0  0  0  0  0  0  0  0  0  0
   22.0653  -15.3427  -21.6514 C   0  0  0  0  0  0  0  0  0  0  0  0
   22.2496  -12.9966  -17.5640 C   0  0  0  0  0  0  0  0  0  0  0  0
   21.1064  -13.1463  -17.0404 O   0  0  0  0  0  0  0  0  0  0  0  0
   22.9798  -11.8669  -17.1067 N   0  0  0  0  0  0  0  0  0  0  0  0
   22.3963  -10.9322  -16.1233 C   0  0  1  0  0  0  0  0  0  0  0  0
   23.4332  -10.8491  -15.0157 C   0  0  0  0  0  0  0  0  0  0  0  0
   23.0439   -9.6559  -13.7432 S   0  0  0  0  0  0  0  0  0  0  0  0
   22.1338   -9.6320  -16.7316 C   0  0  0  0  0  0  0  0  0  0  0  0
   22.9617   -9.0801  -17.5161 O   0  0  0  0  0  0  0  0  0  0  0  0
   20.9369   -8.9253  -16.4740 N   0  0  0  0  0  0  0  0  0  0  0  0
   20.6618   -7.6362  -17.1142 C   0  0  1  0  0  0  0  0  0  0  0  0
   19.1777   -7.3280  -17.0772 C   0  0  0  0  0  0  0  0  0  0  0  0
   18.3492   -7.8341  -18.5920 S   0  0  0  0  0  0  0  0  0  0  0  0
   21.3564   -6.5558  -16.3867 C   0  0  0  0  0  0  0  0  0  0  0  0
   21.5892   -5.3055  -16.9041 O   0  0  0  0  0  0  0  0  0  0  0  0
   21.7643   -6.7823  -15.2215 O   0  0  0  0  0  0  0  0  0  0  0  0
  2  1  1  1
  2 10  1  0
  3  2  1  0
  4  3  1  0
  5  4  2  0
  6  5  1  0
  7  6  2  0
  7  8  1  0
  8  9  2  0
  9  4  1  0
 10 11  2  0
 12 10  1  0
 12 13  1  0
 13 14  1  1
 14 15  1  0
 16 17  2  0
 16 13  1  0
 18 16  1  0
 19 18  1  0
 19 20  1  1
 21 20  1  0
 22 19  1  0
 23 22  1  0
 24 22  2  0
M  END
$$$$
