WEM.pdb
     RDKit          3D

 32 33  0  0  1  0  0  0  0  0999 V2000
   25.2201  -21.4720  -13.8204 N   0  0  0  0  0  0  0  0  0  0  0  0
   24.7307  -21.4341  -12.4514 C   0  0  1  0  0  0  0  0  0  0  0  0
   25.4426  -20.2681  -11.7585 C   0  0  0  0  0  0  0  0  0  0  0  0
   26.8122  -20.6846  -11.4267 C   0  0  0  0  0  0  0  0  0  0  0  0
   27.7916  -21.0287  -12.3330 C   0  0  0  0  0  0  0  0  0  0  0  0
   28.8958  -21.3494  -11.6491 N   0  0  0  0  0  0  0  0  0  0  0  0
   28.6312  -21.2145  -10.3261 C   0  0  0  0  0  0  0  0  0  0  0  0
   29.4097  -21.4197   -9.2254 C   0  0  0  0  0  0  0  0  0  0  0  0
   28.8982  -21.2124   -7.9555 C   0  0  0  0  0  0  0  0  0  0  0  0
   27.5822  -20.7915   -7.7945 C   0  0  0  0  0  0  0  0  0  0  0  0
   26.8018  -20.5863   -8.9135 C   0  0  0  0  0  0  0  0  0  0  0  0
   27.3250  -20.7965  -10.1564 C   0  0  0  0  0  0  0  0  0  0  0  0
   23.2833  -21.1014  -12.3785 C   0  0  0  0  0  0  0  0  0  0  0  0
   22.8963  -19.9436  -12.7463 O   0  0  0  0  0  0  0  0  0  0  0  0
   22.3377  -22.0117  -11.9239 N   0  0  0  0  0  0  0  0  0  0  0  0
   20.8408  -21.6504  -11.9031 C   0  0  1  0  0  0  0  0  0  0  0  0
   20.5045  -21.2456  -13.2542 C   0  0  0  0  0  0  0  0  0  0  0  0
   20.5665  -22.1351  -14.4006 C   0  0  0  0  0  0  0  0  0  0  0  0
   19.3938  -22.6941  -15.0327 C   0  0  0  0  0  0  0  0  0  0  0  0
   18.2724  -22.1805  -14.9274 O   0  0  0  0  0  0  0  0  0  0  0  0
   20.2808  -22.7361  -11.1808 C   0  0  0  0  0  0  0  0  0  0  0  0
   20.7661  -23.9264  -11.3491 O   0  0  0  0  0  0  0  0  0  0  0  0
   19.4538  -23.8671  -15.8145 O   0  0  0  0  0  0  0  0  0  0  0  0
   16.3230  -25.4269   -4.8749 C   0  0  0  0  0  0  0  0  0  0  0  0
   16.9219  -24.1660   -5.9639 S   0  0  0  0  0  0  0  0  0  0  0  0
   17.5057  -24.6651   -7.5602 C   0  0  0  0  0  0  0  0  0  0  0  0
   18.1730  -23.6059   -8.3479 C   0  0  0  0  0  0  0  0  0  0  0  0
   18.6970  -23.9403   -9.6942 C   0  0  2  0  0  0  0  0  0  0  0  0
   19.2386  -22.6870  -10.2621 N   0  0  0  0  0  0  0  0  0  0  0  0
   17.7127  -24.5695  -10.6098 C   0  0  0  0  0  0  0  0  0  0  0  0
   16.6459  -23.8775  -11.1341 O   0  0  0  0  0  0  0  0  0  0  0  0
   17.8320  -25.7667  -10.9381 O   0  0  0  0  0  0  0  0  0  0  0  0
  2  1  1  6
  2 13  1  0
  3  4  1  0
  3  2  1  0
  4 12  1  0
  4  5  2  0
  5  6  1  0
  7  8  2  0
  7  6  1  0
  9  8  1  0
 10  9  2  0
 11 10  1  0
 11 12  2  0
 12  7  1  0
 13 14  2  0
 15 13  1  0
 15 16  1  0
 16 17  1  6
 18 17  1  0
 19 18  1  0
 20 19  2  0
 21 16  1  0
 21 22  2  0
 23 19  1  0
 25 24  1  0
 25 26  1  0
 26 27  1  0
 28 27  1  1
 28 29  1  0
 29 21  1  0
 30 28  1  0
 31 30  1  0
 32 30  2  0
M  END
$$$$
