WEM.pdb
     RDKit          3D

 32 33  0  0  1  0  0  0  0  0999 V2000
   24.0456  -20.5093  -10.4294 N   0  0  0  0  0  0  0  0  0  0  0  0
   25.2578  -20.0395  -11.0813 C   0  0  1  0  0  0  0  0  0  0  0  0
   26.4113  -20.8869  -10.5356 C   0  0  0  0  0  0  0  0  0  0  0  0
   26.4276  -20.7699   -9.0708 C   0  0  0  0  0  0  0  0  0  0  0  0
   25.5202  -21.3432   -8.2066 C   0  0  0  0  0  0  0  0  0  0  0  0
   25.8670  -21.0085   -6.9586 N   0  0  0  0  0  0  0  0  0  0  0  0
   26.9777  -20.2331   -7.0189 C   0  0  0  0  0  0  0  0  0  0  0  0
   27.7167  -19.6387   -6.0389 C   0  0  0  0  0  0  0  0  0  0  0  0
   28.8280  -18.8784   -6.3617 C   0  0  0  0  0  0  0  0  0  0  0  0
   29.1988  -18.7161   -7.6925 C   0  0  0  0  0  0  0  0  0  0  0  0
   28.4454  -19.3209   -8.6773 C   0  0  0  0  0  0  0  0  0  0  0  0
   27.3535  -20.0661   -8.3382 C   0  0  0  0  0  0  0  0  0  0  0  0
   25.2476  -20.2978  -12.5456 C   0  0  0  0  0  0  0  0  0  0  0  0
   24.9639  -21.4682  -12.9644 O   0  0  0  0  0  0  0  0  0  0  0  0
   25.5359  -19.3050  -13.4734 N   0  0  0  0  0  0  0  0  0  0  0  0
   25.3398  -19.5526  -14.9806 C   0  0  1  0  0  0  0  0  0  0  0  0
   24.2138  -18.7317  -15.3815 C   0  0  0  0  0  0  0  0  0  0  0  0
   24.3377  -17.3515  -15.8162 C   0  0  0  0  0  0  0  0  0  0  0  0
   23.7629  -16.8544  -17.0450 C   0  0  0  0  0  0  0  0  0  0  0  0
   22.9912  -17.5287  -17.7392 O   0  0  0  0  0  0  0  0  0  0  0  0
   26.6679  -19.4664  -15.4734 C   0  0  0  0  0  0  0  0  0  0  0  0
   27.6204  -19.1121  -14.6684 O   0  0  0  0  0  0  0  0  0  0  0  0
   24.0467  -15.5614  -17.5332 O   0  0  0  0  0  0  0  0  0  0  0  0
   31.1939  -24.9307  -15.6300 C   0  0  0  0  0  0  0  0  0  0  0  0
   29.7922  -23.8641  -15.4507 S   0  0  0  0  0  0  0  0  0  0  0  0
   29.8114  -22.3241  -16.3260 C   0  0  0  0  0  0  0  0  0  0  0  0
   28.5817  -21.5117  -16.2014 C   0  0  0  0  0  0  0  0  0  0  0  0
   28.4718  -20.2580  -16.9858 C   0  0  2  0  0  0  0  0  0  0  0  0
   27.1054  -19.7377  -16.7647 N   0  0  0  0  0  0  0  0  0  0  0  0
   28.7713  -20.3975  -18.4329 C   0  0  0  0  0  0  0  0  0  0  0  0
   27.9991  -21.1628  -19.2754 O   0  0  0  0  0  0  0  0  0  0  0  0
   29.7495  -19.8085  -18.9343 O   0  0  0  0  0  0  0  0  0  0  0  0
  2  1  1  1
  2 13  1  0
  3  4  1  0
  3  2  1  0
  4 12  1  0
  4  5  2  0
  5  6  1  0
  7  8  2  0
  7  6  1  0
  9  8  1  0
 10  9  2  0
 11 10  1  0
 11 12  2  0
 12  7  1  0
 13 14  2  0
 15 13  1  0
 15 16  1  0
 16 17  1  6
 18 17  1  0
 19 18  1  0
 20 19  2  0
 21 16  1  0
 21 22  2  0
 23 19  1  0
 25 24  1  0
 25 26  1  0
 26 27  1  0
 28 27  1  1
 28 29  1  0
 29 21  1  0
 30 28  1  0
 31 30  1  0
 32 30  2  0
M  END
$$$$
