WEM.pdb
     RDKit          3D

 32 33  0  0  1  0  0  0  0  0999 V2000
   28.5207  -23.1429  -16.1926 N   0  0  0  0  0  0  0  0  0  0  0  0
   28.8891  -22.4913  -14.9456 C   0  0  1  0  0  0  0  0  0  0  0  0
   30.1740  -21.7039  -15.2199 C   0  0  0  0  0  0  0  0  0  0  0  0
   31.3252  -22.5835  -14.9737 C   0  0  0  0  0  0  0  0  0  0  0  0
   31.9146  -23.4172  -15.8993 C   0  0  0  0  0  0  0  0  0  0  0  0
   32.9271  -24.0534  -15.2994 N   0  0  0  0  0  0  0  0  0  0  0  0
   32.9878  -23.6366  -14.0105 C   0  0  0  0  0  0  0  0  0  0  0  0
   33.8266  -23.9782  -12.9910 C   0  0  0  0  0  0  0  0  0  0  0  0
   33.6799  -23.4042  -11.7394 C   0  0  0  0  0  0  0  0  0  0  0  0
   32.6725  -22.4720  -11.5140 C   0  0  0  0  0  0  0  0  0  0  0  0
   31.8284  -22.1324  -12.5511 C   0  0  0  0  0  0  0  0  0  0  0  0
   31.9897  -22.7097  -13.7772 C   0  0  0  0  0  0  0  0  0  0  0  0
   27.8924  -21.4705  -14.5265 C   0  0  0  0  0  0  0  0  0  0  0  0
   27.7814  -20.3990  -15.2085 O   0  0  0  0  0  0  0  0  0  0  0  0
   27.0764  -21.6465  -13.4161 N   0  0  0  0  0  0  0  0  0  0  0  0
   26.1540  -20.5142  -12.9274 C   0  0  1  0  0  0  0  0  0  0  0  0
   25.1355  -20.3548  -13.9470 C   0  0  0  0  0  0  0  0  0  0  0  0
   24.4641  -21.4674  -14.5956 C   0  0  0  0  0  0  0  0  0  0  0  0
   24.7217  -21.8590  -15.9623 C   0  0  0  0  0  0  0  0  0  0  0  0
   24.9782  -23.0267  -16.2828 O   0  0  0  0  0  0  0  0  0  0  0  0
   25.9436  -20.8651  -11.5685 C   0  0  0  0  0  0  0  0  0  0  0  0
   25.9009  -22.1177  -11.2370 O   0  0  0  0  0  0  0  0  0  0  0  0
   24.6965  -20.9293  -17.0233 O   0  0  0  0  0  0  0  0  0  0  0  0
   29.5459  -19.8444   -5.8745 C   0  0  0  0  0  0  0  0  0  0  0  0
   27.9447  -19.3264   -6.4244 S   0  0  0  0  0  0  0  0  0  0  0  0
   27.1369  -20.3130   -7.6540 C   0  0  0  0  0  0  0  0  0  0  0  0
   25.8351  -19.7928   -8.1257 C   0  0  0  0  0  0  0  0  0  0  0  0
   25.1525  -20.4859   -9.2450 C   0  0  2  0  0  0  0  0  0  0  0  0
   25.7826  -20.0007  -10.4916 N   0  0  0  0  0  0  0  0  0  0  0  0
   23.6785  -20.3151   -9.2804 C   0  0  0  0  0  0  0  0  0  0  0  0
   23.0443  -19.5814  -10.2557 O   0  0  0  0  0  0  0  0  0  0  0  0
   22.9607  -20.8472   -8.4103 O   0  0  0  0  0  0  0  0  0  0  0  0
  2  1  1  6
  2 13  1  0
  3  4  1  0
  3  2  1  0
  4 12  1  0
  4  5  2  0
  5  6  1  0
  7  8  2  0
  7  6  1  0
  9  8  1  0
 10  9  2  0
 11 10  1  0
 11 12  2  0
 12  7  1  0
 13 14  2  0
 15 13  1  0
 15 16  1  0
 16 17  1  6
 18 17  1  0
 19 18  1  0
 20 19  2  0
 21 16  1  0
 21 22  2  0
 23 19  1  0
 25 24  1  0
 25 26  1  0
 26 27  1  0
 28 27  1  1
 28 29  1  0
 29 21  1  0
 30 28  1  0
 31 30  1  0
 32 30  2  0
M  END
$$$$
