WEM.pdb
     RDKit          3D

 32 33  0  0  1  0  0  0  0  0999 V2000
   26.5303  -18.3236  -16.4190 N   0  0  0  0  0  0  0  0  0  0  0  0
   26.5709  -19.5616  -15.6568 C   0  0  1  0  0  0  0  0  0  0  0  0
   26.2529  -19.1976  -14.2033 C   0  0  0  0  0  0  0  0  0  0  0  0
   27.5175  -18.9951  -13.4826 C   0  0  0  0  0  0  0  0  0  0  0  0
   28.2888  -17.8535  -13.5139 C   0  0  0  0  0  0  0  0  0  0  0  0
   29.3579  -18.0535  -12.7351 N   0  0  0  0  0  0  0  0  0  0  0  0
   29.2762  -19.3019  -12.2123 C   0  0  0  0  0  0  0  0  0  0  0  0
   30.1050  -19.9828  -11.3701 C   0  0  0  0  0  0  0  0  0  0  0  0
   29.7981  -21.2743  -10.9760 C   0  0  0  0  0  0  0  0  0  0  0  0
   28.6380  -21.8868  -11.4382 C   0  0  0  0  0  0  0  0  0  0  0  0
   27.8053  -21.1906  -12.2898 C   0  0  0  0  0  0  0  0  0  0  0  0
   28.1259  -19.9186  -12.6665 C   0  0  0  0  0  0  0  0  0  0  0  0
   25.4985  -20.5089  -16.0614 C   0  0  0  0  0  0  0  0  0  0  0  0
   24.3762  -20.0431  -16.4476 O   0  0  0  0  0  0  0  0  0  0  0  0
   25.6796  -21.8859  -16.0339 N   0  0  0  0  0  0  0  0  0  0  0  0
   24.5322  -22.8403  -16.4136 C   0  0  1  0  0  0  0  0  0  0  0  0
   25.1598  -24.0364  -16.9409 C   0  0  0  0  0  0  0  0  0  0  0  0
   24.4630  -25.2974  -17.1246 C   0  0  0  0  0  0  0  0  0  0  0  0
   24.4268  -26.3350  -16.1199 C   0  0  0  0  0  0  0  0  0  0  0  0
   23.3897  -26.9461  -15.8314 O   0  0  0  0  0  0  0  0  0  0  0  0
   23.6867  -22.7591  -15.2767 C   0  0  0  0  0  0  0  0  0  0  0  0
   24.2155  -22.5939  -14.1046 O   0  0  0  0  0  0  0  0  0  0  0  0
   25.5783  -26.7192  -15.4007 O   0  0  0  0  0  0  0  0  0  0  0  0
   20.3326  -18.3876  -10.6142 C   0  0  0  0  0  0  0  0  0  0  0  0
   21.1628  -19.0304  -12.0397 S   0  0  0  0  0  0  0  0  0  0  0  0
   20.9574  -20.7512  -12.4067 C   0  0  0  0  0  0  0  0  0  0  0  0
   21.7000  -21.2375  -13.5898 C   0  0  0  0  0  0  0  0  0  0  0  0
   21.5733  -22.6637  -13.9756 C   0  0  2  0  0  0  0  0  0  0  0  0
   22.2982  -22.8232  -15.2546 N   0  0  0  0  0  0  0  0  0  0  0  0
   20.1791  -23.1628  -14.0767 C   0  0  0  0  0  0  0  0  0  0  0  0
   19.5207  -23.7325  -13.0119 O   0  0  0  0  0  0  0  0  0  0  0  0
   19.5533  -23.0729  -15.1517 O   0  0  0  0  0  0  0  0  0  0  0  0
  2  1  1  6
  2 13  1  0
  3  4  1  0
  3  2  1  0
  4 12  1  0
  4  5  2  0
  5  6  1  0
  7  8  2  0
  7  6  1  0
  9  8  1  0
 10  9  2  0
 11 10  1  0
 11 12  2  0
 12  7  1  0
 13 14  2  0
 15 13  1  0
 15 16  1  0
 16 17  1  1
 18 17  1  0
 19 18  1  0
 20 19  2  0
 21 16  1  0
 21 22  2  0
 23 19  1  0
 25 24  1  0
 25 26  1  0
 26 27  1  0
 28 27  1  6
 28 29  1  0
 29 21  1  0
 30 28  1  0
 31 30  1  0
 32 30  2  0
M  END
$$$$
