WEM.pdb
     RDKit          3D

 32 33  0  0  1  0  0  0  0  0999 V2000
   19.0899   -8.3382  -16.2008 N   0  0  0  0  0  0  0  0  0  0  0  0
   20.2822   -9.1677  -16.2761 C   0  0  1  0  0  0  0  0  0  0  0  0
   20.4918   -9.7697  -14.8833 C   0  0  0  0  0  0  0  0  0  0  0  0
   20.5823   -8.6748  -13.9073 C   0  0  0  0  0  0  0  0  0  0  0  0
   19.8596   -8.5757  -12.7382 C   0  0  0  0  0  0  0  0  0  0  0  0
   20.2180   -7.4429  -12.1234 N   0  0  0  0  0  0  0  0  0  0  0  0
   21.1545   -6.8238  -12.8838 C   0  0  0  0  0  0  0  0  0  0  0  0
   21.8301   -5.6526  -12.7061 C   0  0  0  0  0  0  0  0  0  0  0  0
   22.7528   -5.2251  -13.6459 C   0  0  0  0  0  0  0  0  0  0  0  0
   22.9972   -5.9910  -14.7810 C   0  0  0  0  0  0  0  0  0  0  0  0
   22.3092   -7.1745  -14.9527 C   0  0  0  0  0  0  0  0  0  0  0  0
   21.4038   -7.5780  -14.0147 C   0  0  0  0  0  0  0  0  0  0  0  0
   20.1012  -10.3354  -17.1786 C   0  0  0  0  0  0  0  0  0  0  0  0
   18.9196  -10.6880  -17.5032 O   0  0  0  0  0  0  0  0  0  0  0  0
   21.1778  -11.0549  -17.6814 N   0  0  0  0  0  0  0  0  0  0  0  0
   20.9719  -12.1279  -18.7668 C   0  0  1  0  0  0  0  0  0  0  0  0
   22.1989  -12.1621  -19.5385 C   0  0  0  0  0  0  0  0  0  0  0  0
   22.4449  -13.1009  -20.6191 C   0  0  0  0  0  0  0  0  0  0  0  0
   22.7963  -12.6906  -21.9590 C   0  0  0  0  0  0  0  0  0  0  0  0
   22.9249  -11.5017  -22.2787 O   0  0  0  0  0  0  0  0  0  0  0  0
   20.4080  -13.1988  -18.0257 C   0  0  0  0  0  0  0  0  0  0  0  0
   20.7596  -13.3679  -16.7894 O   0  0  0  0  0  0  0  0  0  0  0  0
   23.0164  -13.6250  -22.9931 O   0  0  0  0  0  0  0  0  0  0  0  0
   14.2938  -17.5798  -15.9546 C   0  0  0  0  0  0  0  0  0  0  0  0
   15.1691  -16.2805  -16.7793 S   0  0  0  0  0  0  0  0  0  0  0  0
   16.9389  -16.3564  -16.7893 C   0  0  0  0  0  0  0  0  0  0  0  0
   17.6138  -15.2597  -17.5169 C   0  0  0  0  0  0  0  0  0  0  0  0
   19.0944  -15.2632  -17.6001 C   0  0  2  0  0  0  0  0  0  0  0  0
   19.4731  -14.1277  -18.4683 N   0  0  0  0  0  0  0  0  0  0  0  0
   19.6908  -16.5349  -18.0797 C   0  0  0  0  0  0  0  0  0  0  0  0
   20.0348  -17.5565  -17.2254 O   0  0  0  0  0  0  0  0  0  0  0  0
   19.8962  -16.7160  -19.2964 O   0  0  0  0  0  0  0  0  0  0  0  0
  2  1  1  1
  2 13  1  0
  3  4  1  0
  3  2  1  0
  4 12  1  0
  4  5  2  0
  5  6  1  0
  7  8  2  0
  7  6  1  0
  9  8  1  0
 10  9  2  0
 11 10  1  0
 11 12  2  0
 12  7  1  0
 13 14  2  0
 15 13  1  0
 15 16  1  0
 16 17  1  1
 18 17  1  0
 19 18  1  0
 20 19  2  0
 21 16  1  0
 21 22  2  0
 23 19  1  0
 25 24  1  0
 25 26  1  0
 26 27  1  0
 28 27  1  6
 28 29  1  0
 29 21  1  0
 30 28  1  0
 31 30  1  0
 32 30  2  0
M  END
$$$$
