WEM.pdb
     RDKit          3D

 32 33  0  0  1  0  0  0  0  0999 V2000
   27.2639  -21.4238  -15.6513 N   0  0  0  0  0  0  0  0  0  0  0  0
   26.5688  -22.0328  -14.5282 C   0  0  1  0  0  0  0  0  0  0  0  0
   26.3319  -20.9231  -13.4993 C   0  0  0  0  0  0  0  0  0  0  0  0
   27.6339  -20.3872  -13.0785 C   0  0  0  0  0  0  0  0  0  0  0  0
   28.3188  -19.3604  -13.6914 C   0  0  0  0  0  0  0  0  0  0  0  0
   29.4592  -19.1635  -13.0204 N   0  0  0  0  0  0  0  0  0  0  0  0
   29.5074  -20.0483  -11.9941 C   0  0  0  0  0  0  0  0  0  0  0  0
   30.4476  -20.2594  -11.0290 C   0  0  0  0  0  0  0  0  0  0  0  0
   30.2645  -21.2461  -10.0749 C   0  0  0  0  0  0  0  0  0  0  0  0
   29.1159  -22.0304  -10.0950 C   0  0  0  0  0  0  0  0  0  0  0  0
   28.1701  -21.8099  -11.0749 C   0  0  0  0  0  0  0  0  0  0  0  0
   28.3696  -20.8325  -12.0063 C   0  0  0  0  0  0  0  0  0  0  0  0
   25.2111  -22.5131  -14.8982 C   0  0  0  0  0  0  0  0  0  0  0  0
   24.4881  -21.7929  -15.6625 O   0  0  0  0  0  0  0  0  0  0  0  0
   24.7044  -23.7224  -14.4394 N   0  0  0  0  0  0  0  0  0  0  0  0
   23.3080  -24.2075  -14.8712 C   0  0  1  0  0  0  0  0  0  0  0  0
   23.3952  -25.6514  -14.9706 C   0  0  0  0  0  0  0  0  0  0  0  0
   23.9085  -26.3489  -16.1365 C   0  0  0  0  0  0  0  0  0  0  0  0
   23.4474  -26.0887  -17.4808 C   0  0  0  0  0  0  0  0  0  0  0  0
   24.2159  -25.7737  -18.3986 O   0  0  0  0  0  0  0  0  0  0  0  0
   22.4551  -23.4683  -14.0109 C   0  0  0  0  0  0  0  0  0  0  0  0
   22.3834  -23.7933  -12.7579 O   0  0  0  0  0  0  0  0  0  0  0  0
   22.0842  -26.1783  -17.8336 O   0  0  0  0  0  0  0  0  0  0  0  0
   23.4581  -20.7174   -8.8115 C   0  0  0  0  0  0  0  0  0  0  0  0
   23.0279  -19.7255  -10.2134 S   0  0  0  0  0  0  0  0  0  0  0  0
   21.6785  -20.2690  -11.2244 C   0  0  0  0  0  0  0  0  0  0  0  0
   22.0527  -21.1307  -12.3668 C   0  0  0  0  0  0  0  0  0  0  0  0
   20.9876  -21.6005  -13.2855 C   0  0  2  0  0  0  0  0  0  0  0  0
   21.6577  -22.3806  -14.3481 N   0  0  0  0  0  0  0  0  0  0  0  0
   20.1358  -20.5273  -13.8562 C   0  0  0  0  0  0  0  0  0  0  0  0
   20.0104  -20.3272  -15.2112 O   0  0  0  0  0  0  0  0  0  0  0  0
   19.4943  -19.7651  -13.1059 O   0  0  0  0  0  0  0  0  0  0  0  0
  2  1  1  6
  2 13  1  0
  3  4  1  0
  3  2  1  0
  4 12  1  0
  4  5  2  0
  5  6  1  0
  7  8  2  0
  7  6  1  0
  9  8  1  0
 10  9  2  0
 11 10  1  0
 11 12  2  0
 12  7  1  0
 13 14  2  0
 15 13  1  0
 15 16  1  0
 16 17  1  1
 18 17  1  0
 19 18  1  0
 20 19  2  0
 21 16  1  0
 21 22  2  0
 23 19  1  0
 25 24  1  0
 25 26  1  0
 26 27  1  0
 28 27  1  1
 28 29  1  0
 29 21  1  0
 30 28  1  0
 31 30  1  0
 32 30  2  0
M  END
$$$$
