WEM.pdb
     RDKit          3D

 32 33  0  0  1  0  0  0  0  0999 V2000
   27.1015  -20.0796  -16.0057 N   0  0  0  0  0  0  0  0  0  0  0  0
   26.2971  -20.8144  -15.0422 C   0  0  1  0  0  0  0  0  0  0  0  0
   26.2883  -19.9894  -13.7516 C   0  0  0  0  0  0  0  0  0  0  0  0
   27.6740  -19.8225  -13.2915 C   0  0  0  0  0  0  0  0  0  0  0  0
   28.5637  -18.8716  -13.7424 C   0  0  0  0  0  0  0  0  0  0  0  0
   29.7185  -19.0408  -13.0888 N   0  0  0  0  0  0  0  0  0  0  0  0
   29.5746  -20.0825  -12.2328 C   0  0  0  0  0  0  0  0  0  0  0  0
   30.4460  -20.6535  -11.3528 C   0  0  0  0  0  0  0  0  0  0  0  0
   30.0545  -21.7316  -10.5771 C   0  0  0  0  0  0  0  0  0  0  0  0
   28.7648  -22.2402  -10.6911 C   0  0  0  0  0  0  0  0  0  0  0  0
   27.8899  -21.6564  -11.5838 C   0  0  0  0  0  0  0  0  0  0  0  0
   28.2955  -20.5946  -12.3393 C   0  0  0  0  0  0  0  0  0  0  0  0
   24.8707  -20.9067  -15.4516 C   0  0  0  0  0  0  0  0  0  0  0  0
   24.3035  -19.8795  -15.9506 O   0  0  0  0  0  0  0  0  0  0  0  0
   24.1351  -22.0765  -15.3097 N   0  0  0  0  0  0  0  0  0  0  0  0
   22.6282  -22.1043  -15.6260 C   0  0  1  0  0  0  0  0  0  0  0  0
   22.4478  -23.1230  -16.6420 C   0  0  0  0  0  0  0  0  0  0  0  0
   21.1657  -23.4390  -17.2469 C   0  0  0  0  0  0  0  0  0  0  0  0
   20.9771  -24.5272  -18.1783 C   0  0  0  0  0  0  0  0  0  0  0  0
   19.8798  -24.7809  -18.6919 O   0  0  0  0  0  0  0  0  0  0  0  0
   22.0500  -22.0897  -14.3301 C   0  0  0  0  0  0  0  0  0  0  0  0
   22.7366  -22.5360  -13.3251 O   0  0  0  0  0  0  0  0  0  0  0  0
   22.0383  -25.3738  -18.5631 O   0  0  0  0  0  0  0  0  0  0  0  0
   23.2066  -19.9336   -8.5795 C   0  0  0  0  0  0  0  0  0  0  0  0
   22.7142  -20.5565  -10.1619 S   0  0  0  0  0  0  0  0  0  0  0  0
   22.3001  -19.3785  -11.4185 C   0  0  0  0  0  0  0  0  0  0  0  0
   21.9286  -19.9567  -12.7282 C   0  0  0  0  0  0  0  0  0  0  0  0
   20.6397  -20.6799  -12.8496 C   0  0  2  0  0  0  0  0  0  0  0  0
   20.7882  -21.6251  -13.9771 N   0  0  0  0  0  0  0  0  0  0  0  0
   19.4491  -19.8109  -13.0238 C   0  0  0  0  0  0  0  0  0  0  0  0
   18.5339  -19.6034  -12.0182 O   0  0  0  0  0  0  0  0  0  0  0  0
   19.2451  -19.2304  -14.1086 O   0  0  0  0  0  0  0  0  0  0  0  0
  2  1  1  6
  2 13  1  0
  3  4  1  0
  3  2  1  0
  4 12  1  0
  4  5  2  0
  5  6  1  0
  7  8  2  0
  7  6  1  0
  9  8  1  0
 10  9  2  0
 11 10  1  0
 11 12  2  0
 12  7  1  0
 13 14  2  0
 15 13  1  0
 15 16  1  0
 16 17  1  1
 18 17  1  0
 19 18  1  0
 20 19  2  0
 21 16  1  0
 21 22  2  0
 23 19  1  0
 25 24  1  0
 25 26  1  0
 26 27  1  0
 28 27  1  6
 28 29  1  0
 29 21  1  0
 30 28  1  0
 31 30  1  0
 32 30  2  0
M  END
$$$$
