WEM.pdb
     RDKit          3D

 32 33  0  0  1  0  0  0  0  0999 V2000
   27.6532  -20.9481  -12.5721 N   0  0  0  0  0  0  0  0  0  0  0  0
   26.5488  -21.7451  -12.0620 C   0  0  1  0  0  0  0  0  0  0  0  0
   26.2234  -21.2085  -10.6647 C   0  0  0  0  0  0  0  0  0  0  0  0
   27.4671  -21.1461   -9.8844 C   0  0  0  0  0  0  0  0  0  0  0  0
   28.6795  -21.6854  -10.2562 C   0  0  0  0  0  0  0  0  0  0  0  0
   29.5646  -21.4240   -9.2877 N   0  0  0  0  0  0  0  0  0  0  0  0
   28.9326  -20.7290   -8.3098 C   0  0  0  0  0  0  0  0  0  0  0  0
   29.3822  -20.2324   -7.1219 C   0  0  0  0  0  0  0  0  0  0  0  0
   28.5242  -19.5478   -6.2778 C   0  0  0  0  0  0  0  0  0  0  0  0
   27.1937  -19.3616   -6.6381 C   0  0  0  0  0  0  0  0  0  0  0  0
   26.7474  -19.8674   -7.8416 C   0  0  0  0  0  0  0  0  0  0  0  0
   27.6091  -20.5394   -8.6592 C   0  0  0  0  0  0  0  0  0  0  0  0
   25.3026  -21.5523  -12.8499 C   0  0  0  0  0  0  0  0  0  0  0  0
   24.9397  -20.3679  -13.1520 O   0  0  0  0  0  0  0  0  0  0  0  0
   24.5205  -22.6210  -13.2693 N   0  0  0  0  0  0  0  0  0  0  0  0
   23.5005  -22.4522  -14.4107 C   0  0  1  0  0  0  0  0  0  0  0  0
   23.6872  -23.5895  -15.2904 C   0  0  0  0  0  0  0  0  0  0  0  0
   24.6725  -24.6317  -15.0615 C   0  0  0  0  0  0  0  0  0  0  0  0
   25.9788  -24.6348  -15.6787 C   0  0  0  0  0  0  0  0  0  0  0  0
   26.8328  -25.4940  -15.4245 O   0  0  0  0  0  0  0  0  0  0  0  0
   22.3163  -22.1126  -13.7061 C   0  0  0  0  0  0  0  0  0  0  0  0
   22.0989  -22.6396  -12.5418 O   0  0  0  0  0  0  0  0  0  0  0  0
   26.3649  -23.6530  -16.6156 O   0  0  0  0  0  0  0  0  0  0  0  0
   20.0426  -16.1736  -12.4822 C   0  0  0  0  0  0  0  0  0  0  0  0
   18.5953  -17.1809  -12.6405 S   0  0  0  0  0  0  0  0  0  0  0  0
   18.7951  -18.9364  -12.5118 C   0  0  0  0  0  0  0  0  0  0  0  0
   19.9362  -19.4989  -13.2664 C   0  0  0  0  0  0  0  0  0  0  0  0
   20.1686  -20.9628  -13.2230 C   0  0  2  0  0  0  0  0  0  0  0  0
   21.3167  -21.2367  -14.1137 N   0  0  0  0  0  0  0  0  0  0  0  0
   18.9925  -21.7937  -13.5833 C   0  0  0  0  0  0  0  0  0  0  0  0
   18.0024  -22.1016  -12.6797 O   0  0  0  0  0  0  0  0  0  0  0  0
   18.8666  -22.2404  -14.7409 O   0  0  0  0  0  0  0  0  0  0  0  0
  2  1  1  6
  2 13  1  0
  3  4  1  0
  3  2  1  0
  4 12  1  0
  4  5  2  0
  5  6  1  0
  7  8  2  0
  7  6  1  0
  9  8  1  0
 10  9  2  0
 11 10  1  0
 11 12  2  0
 12  7  1  0
 13 14  2  0
 15 13  1  0
 15 16  1  0
 16 17  1  1
 18 17  1  0
 19 18  1  0
 20 19  2  0
 21 16  1  0
 21 22  2  0
 23 19  1  0
 25 24  1  0
 25 26  1  0
 26 27  1  0
 28 27  1  6
 28 29  1  0
 29 21  1  0
 30 28  1  0
 31 30  1  0
 32 30  2  0
M  END
$$$$
