WEM.pdb
     RDKit          3D

 32 33  0  0  1  0  0  0  0  0999 V2000
   25.2386  -18.8900  -11.0494 N   0  0  0  0  0  0  0  0  0  0  0  0
   25.0918  -20.3020  -11.3653 C   0  0  1  0  0  0  0  0  0  0  0  0
   25.0478  -21.0525  -10.0307 C   0  0  0  0  0  0  0  0  0  0  0  0
   26.2085  -20.6472   -9.2258 C   0  0  0  0  0  0  0  0  0  0  0  0
   26.1969  -19.7234   -8.2033 C   0  0  0  0  0  0  0  0  0  0  0  0
   27.4397  -19.6261   -7.7178 N   0  0  0  0  0  0  0  0  0  0  0  0
   28.2369  -20.4721   -8.4159 C   0  0  0  0  0  0  0  0  0  0  0  0
   29.5698  -20.7431   -8.3169 C   0  0  0  0  0  0  0  0  0  0  0  0
   30.1636  -21.6634   -9.1640 C   0  0  0  0  0  0  0  0  0  0  0  0
   29.4010  -22.3199  -10.1244 C   0  0  0  0  0  0  0  0  0  0  0  0
   28.0533  -22.0397  -10.2174 C   0  0  0  0  0  0  0  0  0  0  0  0
   27.4873  -21.1291   -9.3731 C   0  0  0  0  0  0  0  0  0  0  0  0
   23.7908  -20.6015  -12.0202 C   0  0  0  0  0  0  0  0  0  0  0  0
   22.7163  -20.1732  -11.4839 O   0  0  0  0  0  0  0  0  0  0  0  0
   23.7074  -21.3319  -13.1988 N   0  0  0  0  0  0  0  0  0  0  0  0
   22.3568  -21.5259  -13.9129 C   0  0  1  0  0  0  0  0  0  0  0  0
   22.6594  -21.6326  -15.3269 C   0  0  0  0  0  0  0  0  0  0  0  0
   21.6455  -21.7148  -16.3635 C   0  0  0  0  0  0  0  0  0  0  0  0
   20.3217  -21.1537  -16.2217 C   0  0  0  0  0  0  0  0  0  0  0  0
   20.1298  -19.9604  -15.9544 O   0  0  0  0  0  0  0  0  0  0  0  0
   21.7298  -22.5099  -13.1050 C   0  0  0  0  0  0  0  0  0  0  0  0
   22.4120  -23.5434  -12.7215 O   0  0  0  0  0  0  0  0  0  0  0  0
   19.1579  -21.9355  -16.3803 O   0  0  0  0  0  0  0  0  0  0  0  0
   18.0730  -24.9465   -6.8381 C   0  0  0  0  0  0  0  0  0  0  0  0
   18.8404  -23.8184   -7.9664 S   0  0  0  0  0  0  0  0  0  0  0  0
   18.9973  -24.3233   -9.6571 C   0  0  0  0  0  0  0  0  0  0  0  0
   19.6318  -23.3340  -10.5551 C   0  0  0  0  0  0  0  0  0  0  0  0
   19.8717  -23.7053  -11.9706 C   0  0  2  0  0  0  0  0  0  0  0  0
   20.4208  -22.5049  -12.6369 N   0  0  0  0  0  0  0  0  0  0  0  0
   18.6835  -24.2289  -12.6898 C   0  0  0  0  0  0  0  0  0  0  0  0
   18.4602  -25.5750  -12.8631 O   0  0  0  0  0  0  0  0  0  0  0  0
   17.8362  -23.4453  -13.1623 O   0  0  0  0  0  0  0  0  0  0  0  0
  2  1  1  1
  2 13  1  0
  3  4  1  0
  3  2  1  0
  4 12  1  0
  4  5  2  0
  5  6  1  0
  7  8  2  0
  7  6  1  0
  9  8  1  0
 10  9  2  0
 11 10  1  0
 11 12  2  0
 12  7  1  0
 13 14  2  0
 15 13  1  0
 15 16  1  0
 16 17  1  6
 18 17  1  0
 19 18  1  0
 20 19  2  0
 21 16  1  0
 21 22  2  0
 23 19  1  0
 25 24  1  0
 25 26  1  0
 26 27  1  0
 28 27  1  1
 28 29  1  0
 29 21  1  0
 30 28  1  0
 31 30  1  0
 32 30  2  0
M  END
$$$$
