WEM.pdb
     RDKit          3D

 32 33  0  0  1  0  0  0  0  0999 V2000
   28.4348  -21.4725  -10.5178 N   0  0  0  0  0  0  0  0  0  0  0  0
   27.0509  -21.5512  -10.0774 C   0  0  1  0  0  0  0  0  0  0  0  0
   26.8944  -20.5515   -8.9275 C   0  0  0  0  0  0  0  0  0  0  0  0
   28.0411  -20.6965   -8.0200 C   0  0  0  0  0  0  0  0  0  0  0  0
   29.2029  -21.3855   -8.2933 C   0  0  0  0  0  0  0  0  0  0  0  0
   30.0026  -21.2907   -7.2251 N   0  0  0  0  0  0  0  0  0  0  0  0
   29.3665  -20.5542   -6.2810 C   0  0  0  0  0  0  0  0  0  0  0  0
   29.7452  -20.1744   -5.0271 C   0  0  0  0  0  0  0  0  0  0  0  0
   28.8998  -19.4109   -4.2399 C   0  0  0  0  0  0  0  0  0  0  0  0
   27.6548  -19.0249   -4.7255 C   0  0  0  0  0  0  0  0  0  0  0  0
   27.2799  -19.4135   -5.9950 C   0  0  0  0  0  0  0  0  0  0  0  0
   28.1277  -20.1662   -6.7549 C   0  0  0  0  0  0  0  0  0  0  0  0
   26.0990  -21.0902  -11.1226 C   0  0  0  0  0  0  0  0  0  0  0  0
   26.2605  -19.9358  -11.6393 O   0  0  0  0  0  0  0  0  0  0  0  0
   25.0393  -21.8768  -11.5561 N   0  0  0  0  0  0  0  0  0  0  0  0
   24.2156  -21.4780  -12.7946 C   0  0  1  0  0  0  0  0  0  0  0  0
   24.3625  -22.5640  -13.7440 C   0  0  0  0  0  0  0  0  0  0  0  0
   25.4822  -22.6864  -14.6608 C   0  0  0  0  0  0  0  0  0  0  0  0
   26.1269  -21.5505  -15.2784 C   0  0  0  0  0  0  0  0  0  0  0  0
   25.5174  -20.7505  -16.0001 O   0  0  0  0  0  0  0  0  0  0  0  0
   23.0046  -21.0196  -12.2137 C   0  0  0  0  0  0  0  0  0  0  0  0
   23.0432  -20.3961  -11.0777 O   0  0  0  0  0  0  0  0  0  0  0  0
   27.4997  -21.2803  -15.0963 O   0  0  0  0  0  0  0  0  0  0  0  0
   20.1240  -15.6406  -12.1905 C   0  0  0  0  0  0  0  0  0  0  0  0
   21.0075  -16.5309  -13.4399 S   0  0  0  0  0  0  0  0  0  0  0  0
   20.8137  -18.2911  -13.4902 C   0  0  0  0  0  0  0  0  0  0  0  0
   20.9247  -18.9760  -12.1839 C   0  0  0  0  0  0  0  0  0  0  0  0
   20.5969  -20.4201  -12.1049 C   0  0  2  0  0  0  0  0  0  0  0  0
   21.7215  -21.1454  -12.7339 N   0  0  0  0  0  0  0  0  0  0  0  0
   19.2979  -20.8007  -12.7139 C   0  0  0  0  0  0  0  0  0  0  0  0
   19.2140  -21.5550  -13.8610 O   0  0  0  0  0  0  0  0  0  0  0  0
   18.2254  -20.4424  -12.1878 O   0  0  0  0  0  0  0  0  0  0  0  0
  2  1  1  6
  2 13  1  0
  3  4  1  0
  3  2  1  0
  4 12  1  0
  4  5  2  0
  5  6  1  0
  7  8  2  0
  7  6  1  0
  9  8  1  0
 10  9  2  0
 11 10  1  0
 11 12  2  0
 12  7  1  0
 13 14  2  0
 15 13  1  0
 15 16  1  0
 16 17  1  6
 18 17  1  0
 19 18  1  0
 20 19  2  0
 21 16  1  0
 21 22  2  0
 23 19  1  0
 25 24  1  0
 25 26  1  0
 26 27  1  0
 28 27  1  6
 28 29  1  0
 29 21  1  0
 30 28  1  0
 31 30  1  0
 32 30  2  0
M  END
$$$$
