QVV.pdb
     RDKit          3D

 24 23  0  0  1  0  0  0  0  0999 V2000
   35.0241  -13.2340  -18.8853 N   0  0  0  0  0  0  0  0  0  0  0  0
   34.8923  -14.3591  -19.7072 C   0  0  0  0  0  0  0  0  0  0  0  0
   35.5658  -15.3826  -19.4367 O   0  0  0  0  0  0  0  0  0  0  0  0
   33.9987  -14.3954  -20.8849 C   0  0  0  0  0  0  0  0  0  0  0  0
   33.3676  -13.0012  -21.0629 C   0  0  0  0  0  0  0  0  0  0  0  0
   32.1438  -12.8905  -20.2058 C   0  0  2  0  0  0  0  0  0  0  0  0
   31.1988  -13.9123  -20.6306 N   0  0  0  0  0  0  0  0  0  0  0  0
   31.5518  -11.5460  -20.1480 C   0  0  0  0  0  0  0  0  0  0  0  0
   30.6722  -11.1391  -20.9252 O   0  0  0  0  0  0  0  0  0  0  0  0
   29.3433  -10.2148  -18.0058 C   0  0  0  0  0  0  0  0  0  0  0  0
   30.5306   -9.2697  -17.7923 C   0  0  2  0  0  0  0  0  0  0  0  0
   30.0126   -7.8521  -17.5635 C   0  0  0  0  0  0  0  0  0  0  0  0
   31.5001   -9.3598  -18.9262 C   0  0  2  0  0  0  0  0  0  0  0  0
   32.0437  -10.6743  -19.1217 N   0  0  0  0  0  0  0  0  0  0  0  0
   32.6342   -8.3520  -18.8023 C   0  0  0  0  0  0  0  0  0  0  0  0
   33.5098   -8.5437  -17.9366 O   0  0  0  0  0  0  0  0  0  0  0  0
   34.5267   -7.0529  -21.7913 C   0  0  0  0  0  0  0  0  0  0  0  0
   33.9689   -5.7934  -21.1283 C   0  0  1  0  0  0  0  0  0  0  0  0
   32.8057   -5.3026  -21.9015 C   0  0  0  0  0  0  0  0  0  0  0  0
   33.6262   -6.1579  -19.7003 C   0  0  2  0  0  0  0  0  0  0  0  0
   32.6910   -7.2245  -19.6313 N   0  0  0  0  0  0  0  0  0  0  0  0
   33.3473   -4.9433  -18.9152 C   0  0  0  0  0  0  0  0  0  0  0  0
   32.0415   -4.6202  -18.5746 O   0  0  0  0  0  0  0  0  0  0  0  0
   34.2351   -4.1384  -18.5438 O   0  0  0  0  0  0  0  0  0  0  0  0
  2  1  1  0
  2  3  2  0
  4  5  1  0
  4  2  1  0
  6  5  1  0
  6  7  1  6
  8 14  1  0
  8  6  1  0
  9  8  2  0
 11 10  1  6
 11 13  1  0
 11 12  1  0
 13 14  1  1
 15 13  1  0
 16 15  2  0
 18 20  1  0
 18 17  1  6
 19 18  1  0
 20 22  1  0
 20 21  1  6
 21 15  1  0
 22 23  1  0
 24 22  2  0
M  END
$$$$
