QVV.pdb
     RDKit          3D

 24 23  0  0  1  0  0  0  0  0999 V2000
   21.0580  -10.5301  -22.6106 N   0  0  0  0  0  0  0  0  0  0  0  0
   21.7210  -11.7570  -22.4923 C   0  0  0  0  0  0  0  0  0  0  0  0
   22.2087  -12.2780  -23.5244 O   0  0  0  0  0  0  0  0  0  0  0  0
   21.8686  -12.4715  -21.2060 C   0  0  0  0  0  0  0  0  0  0  0  0
   21.1573  -11.6560  -20.1094 C   0  0  0  0  0  0  0  0  0  0  0  0
   21.2584  -12.3783  -18.8007 C   0  0  2  0  0  0  0  0  0  0  0  0
   20.5537  -13.6452  -18.9265 N   0  0  0  0  0  0  0  0  0  0  0  0
   20.8334  -11.5958  -17.6308 C   0  0  0  0  0  0  0  0  0  0  0  0
   19.7294  -11.7197  -17.0747 O   0  0  0  0  0  0  0  0  0  0  0  0
   22.0489   -9.2665  -13.5962 C   0  0  0  0  0  0  0  0  0  0  0  0
   22.3885  -10.1522  -14.7998 C   0  0  2  0  0  0  0  0  0  0  0  0
   23.8694   -9.9993  -15.1371 C   0  0  0  0  0  0  0  0  0  0  0  0
   21.4931   -9.8517  -15.9581 C   0  0  2  0  0  0  0  0  0  0  0  0
   21.7730  -10.6375  -17.1269 N   0  0  0  0  0  0  0  0  0  0  0  0
   21.4933   -8.3743  -16.3247 C   0  0  0  0  0  0  0  0  0  0  0  0
   22.4983   -7.9005  -16.8890 O   0  0  0  0  0  0  0  0  0  0  0  0
   19.6494   -6.5499  -18.5452 C   0  0  0  0  0  0  0  0  0  0  0  0
   19.1732   -5.8589  -17.2674 C   0  0  1  0  0  0  0  0  0  0  0  0
   17.8113   -6.3309  -16.9293 C   0  0  0  0  0  0  0  0  0  0  0  0
   20.1942   -6.1609  -16.1923 C   0  0  2  0  0  0  0  0  0  0  0  0
   20.3964   -7.5566  -16.0250 N   0  0  0  0  0  0  0  0  0  0  0  0
   19.9254   -5.3533  -14.9903 C   0  0  0  0  0  0  0  0  0  0  0  0
   20.2810   -4.0123  -14.9599 O   0  0  0  0  0  0  0  0  0  0  0  0
   19.4051   -5.8152  -13.9463 O   0  0  0  0  0  0  0  0  0  0  0  0
  2  1  1  0
  2  3  2  0
  4  5  1  0
  4  2  1  0
  6  5  1  0
  6  7  1  6
  8 14  1  0
  8  6  1  0
  9  8  2  0
 11 10  1  1
 11 13  1  0
 11 12  1  0
 13 14  1  6
 15 13  1  0
 16 15  2  0
 18 20  1  0
 18 17  1  6
 19 18  1  0
 20 22  1  0
 20 21  1  1
 21 15  1  0
 22 23  1  0
 24 22  2  0
M  END
$$$$
