QVV.pdb
     RDKit          3D

 24 23  0  0  1  0  0  0  0  0999 V2000
   18.5741  -15.7271  -20.0592 N   0  0  0  0  0  0  0  0  0  0  0  0
   19.2511  -15.2290  -21.1783 C   0  0  0  0  0  0  0  0  0  0  0  0
   19.1047  -15.8144  -22.2785 O   0  0  0  0  0  0  0  0  0  0  0  0
   20.1369  -14.0461  -21.1228 C   0  0  0  0  0  0  0  0  0  0  0  0
   20.0101  -13.4056  -19.7273 C   0  0  0  0  0  0  0  0  0  0  0  0
   21.1492  -13.8538  -18.8634 C   0  0  2  0  0  0  0  0  0  0  0  0
   21.0158  -15.2862  -18.6444 N   0  0  0  0  0  0  0  0  0  0  0  0
   21.3130  -13.0926  -17.6163 C   0  0  0  0  0  0  0  0  0  0  0  0
   20.5730  -13.2126  -16.6257 O   0  0  0  0  0  0  0  0  0  0  0  0
   24.3667  -13.0031  -15.5253 C   0  0  0  0  0  0  0  0  0  0  0  0
   24.0766  -11.5428  -15.8881 C   0  0  2  0  0  0  0  0  0  0  0  0
   24.3733  -10.6547  -14.6825 C   0  0  0  0  0  0  0  0  0  0  0  0
   22.6816  -11.3829  -16.4002 C   0  0  2  0  0  0  0  0  0  0  0  0
   22.4018  -12.1610  -17.5741 N   0  0  0  0  0  0  0  0  0  0  0  0
   22.3197   -9.9265  -16.6554 C   0  0  0  0  0  0  0  0  0  0  0  0
   22.7865   -9.3646  -17.6650 O   0  0  0  0  0  0  0  0  0  0  0  0
   19.5905   -8.4895  -17.6904 C   0  0  0  0  0  0  0  0  0  0  0  0
   19.6024   -7.7942  -16.3289 C   0  0  1  0  0  0  0  0  0  0  0  0
   18.6011   -8.4287  -15.4420 C   0  0  0  0  0  0  0  0  0  0  0  0
   21.0156   -7.8857  -15.7960 C   0  0  2  0  0  0  0  0  0  0  0  0
   21.4915   -9.2236  -15.7715 N   0  0  0  0  0  0  0  0  0  0  0  0
   21.1529   -7.0815  -14.5697 C   0  0  0  0  0  0  0  0  0  0  0  0
   21.3990   -7.7038  -13.3541 O   0  0  0  0  0  0  0  0  0  0  0  0
   21.0314   -5.8331  -14.5416 O   0  0  0  0  0  0  0  0  0  0  0  0
  2  1  1  0
  2  3  2  0
  4  5  1  0
  4  2  1  0
  6  5  1  0
  6  7  1  1
  8 14  1  0
  8  6  1  0
  9  8  2  0
 11 10  1  1
 11 13  1  0
 11 12  1  0
 13 14  1  6
 15 13  1  0
 16 15  2  0
 18 20  1  0
 18 17  1  6
 19 18  1  0
 20 22  1  0
 20 21  1  1
 21 15  1  0
 22 23  1  0
 24 22  2  0
M  END
$$$$
