QVV.pdb
     RDKit          3D

 24 23  0  0  1  0  0  0  0  0999 V2000
   22.8155  -18.2236  -17.5647 N   0  0  0  0  0  0  0  0  0  0  0  0
   22.3463  -18.0819  -16.2537 C   0  0  0  0  0  0  0  0  0  0  0  0
   22.6507  -17.0452  -15.6157 O   0  0  0  0  0  0  0  0  0  0  0  0
   21.5116  -19.1017  -15.5828 C   0  0  0  0  0  0  0  0  0  0  0  0
   22.2940  -19.6583  -14.3779 C   0  0  0  0  0  0  0  0  0  0  0  0
   23.3115  -20.6495  -14.8540 C   0  0  2  0  0  0  0  0  0  0  0  0
   22.6095  -21.7323  -15.5267 N   0  0  0  0  0  0  0  0  0  0  0  0
   24.2429  -21.1215  -13.8190 C   0  0  0  0  0  0  0  0  0  0  0  0
   23.9870  -22.0352  -13.0171 O   0  0  0  0  0  0  0  0  0  0  0  0
   28.1576  -21.5888  -14.3820 C   0  0  0  0  0  0  0  0  0  0  0  0
   27.8938  -20.6729  -13.1820 C   0  0  2  0  0  0  0  0  0  0  0  0
   28.8936  -20.9926  -12.0737 C   0  0  0  0  0  0  0  0  0  0  0  0
   26.4724  -20.7733  -12.7312 C   0  0  2  0  0  0  0  0  0  0  0  0
   25.5154  -20.4644  -13.7562 N   0  0  0  0  0  0  0  0  0  0  0  0
   26.1923  -19.9244  -11.4992 C   0  0  0  0  0  0  0  0  0  0  0  0
   26.2192  -18.6836  -11.6118 O   0  0  0  0  0  0  0  0  0  0  0  0
   23.4843  -20.7789   -8.9849 C   0  0  0  0  0  0  0  0  0  0  0  0
   24.7506  -20.6845   -8.1336 C   0  0  1  0  0  0  0  0  0  0  0  0
   25.1734  -22.0435   -7.7257 C   0  0  0  0  0  0  0  0  0  0  0  0
   25.7890  -19.9592   -8.9613 C   0  0  2  0  0  0  0  0  0  0  0  0
   25.9227  -20.5186  -10.2599 N   0  0  0  0  0  0  0  0  0  0  0  0
   27.0141  -19.7453   -8.1721 C   0  0  0  0  0  0  0  0  0  0  0  0
   27.1114  -18.6533   -7.3215 O   0  0  0  0  0  0  0  0  0  0  0  0
   28.0207  -20.4913   -8.2381 O   0  0  0  0  0  0  0  0  0  0  0  0
  2  1  1  0
  2  3  2  0
  4  5  1  0
  4  2  1  0
  6  5  1  0
  6  7  1  1
  8 14  1  0
  8  6  1  0
  9  8  2  0
 11 10  1  6
 11 13  1  0
 11 12  1  0
 13 14  1  6
 15 13  1  0
 16 15  2  0
 18 20  1  0
 18 17  1  6
 19 18  1  0
 20 22  1  0
 20 21  1  6
 21 15  1  0
 22 23  1  0
 24 22  2  0
M  END
$$$$
