QVV.pdb
     RDKit          3D

 24 23  0  0  1  0  0  0  0  0999 V2000
   16.5275   -8.8378  -19.9778 N   0  0  0  0  0  0  0  0  0  0  0  0
   16.8060  -10.0842  -20.5502 C   0  0  0  0  0  0  0  0  0  0  0  0
   16.2130  -10.4050  -21.6085 O   0  0  0  0  0  0  0  0  0  0  0  0
   17.7643  -11.0443  -19.9615 C   0  0  0  0  0  0  0  0  0  0  0  0
   18.3375  -10.4326  -18.6689 C   0  0  0  0  0  0  0  0  0  0  0  0
   19.3037  -11.3922  -18.0442 C   0  0  2  0  0  0  0  0  0  0  0  0
   18.6263  -12.6682  -17.8693 N   0  0  0  0  0  0  0  0  0  0  0  0
   19.9454  -10.9067  -16.8138 C   0  0  0  0  0  0  0  0  0  0  0  0
   19.4212  -10.9584  -15.6887 O   0  0  0  0  0  0  0  0  0  0  0  0
   23.1285  -11.9683  -15.3398 C   0  0  0  0  0  0  0  0  0  0  0  0
   23.2948  -10.4662  -15.5935 C   0  0  2  0  0  0  0  0  0  0  0  0
   24.0691   -9.8415  -14.4357 C   0  0  0  0  0  0  0  0  0  0  0  0
   21.9724   -9.8113  -15.8306 C   0  0  2  0  0  0  0  0  0  0  0  0
   21.2555  -10.3422  -16.9558 N   0  0  0  0  0  0  0  0  0  0  0  0
   22.0888   -8.2997  -15.9671 C   0  0  0  0  0  0  0  0  0  0  0  0
   22.7195   -7.8358  -16.9365 O   0  0  0  0  0  0  0  0  0  0  0  0
   20.2527   -3.9330  -14.9466 C   0  0  0  0  0  0  0  0  0  0  0  0
   20.1155   -5.4549  -14.9016 C   0  0  1  0  0  0  0  0  0  0  0  0
   19.2895   -5.9099  -16.0429 C   0  0  0  0  0  0  0  0  0  0  0  0
   21.5160   -6.0274  -14.9121 C   0  0  2  0  0  0  0  0  0  0  0  0
   21.5132   -7.4436  -15.0199 N   0  0  0  0  0  0  0  0  0  0  0  0
   22.3258   -5.4180  -13.8433 C   0  0  0  0  0  0  0  0  0  0  0  0
   23.2183   -4.3985  -14.1428 O   0  0  0  0  0  0  0  0  0  0  0  0
   22.2841   -5.7875  -12.6451 O   0  0  0  0  0  0  0  0  0  0  0  0
  2  1  1  0
  2  3  2  0
  4  5  1  0
  4  2  1  0
  6  5  1  0
  6  7  1  1
  8 14  1  0
  8  6  1  0
  9  8  2  0
 11 10  1  1
 11 13  1  0
 11 12  1  0
 13 14  1  6
 15 13  1  0
 16 15  2  0
 18 20  1  0
 18 17  1  6
 19 18  1  0
 20 22  1  0
 20 21  1  1
 21 15  1  0
 22 23  1  0
 24 22  2  0
M  END
$$$$
