QVV.pdb
     RDKit          3D

 24 23  0  0  1  0  0  0  0  0999 V2000
   21.2200  -14.1300  -19.4811 N   0  0  0  0  0  0  0  0  0  0  0  0
   21.1260  -14.7767  -18.2435 C   0  0  0  0  0  0  0  0  0  0  0  0
   21.4293  -15.9924  -18.1765 O   0  0  0  0  0  0  0  0  0  0  0  0
   20.6798  -14.0935  -17.0101 C   0  0  0  0  0  0  0  0  0  0  0  0
   20.4736  -12.5997  -17.3260 C   0  0  0  0  0  0  0  0  0  0  0  0
   19.3719  -12.0526  -16.4708 C   0  0  2  0  0  0  0  0  0  0  0  0
   18.1800  -12.8560  -16.6982 N   0  0  0  0  0  0  0  0  0  0  0  0
   19.1324  -10.6101  -16.6231 C   0  0  0  0  0  0  0  0  0  0  0  0
   18.9304  -10.0495  -17.7132 O   0  0  0  0  0  0  0  0  0  0  0  0
   16.4708   -8.4488  -15.9696 C   0  0  0  0  0  0  0  0  0  0  0  0
   17.5480   -8.0172  -14.9687 C   0  0  2  0  0  0  0  0  0  0  0  0
   17.4215   -6.5188  -14.7059 C   0  0  0  0  0  0  0  0  0  0  0  0
   18.9098   -8.4131  -15.4403 C   0  0  2  0  0  0  0  0  0  0  0  0
   19.1416   -9.8300  -15.4203 N   0  0  0  0  0  0  0  0  0  0  0  0
   20.0185   -7.7040  -14.6754 C   0  0  0  0  0  0  0  0  0  0  0  0
   20.2243   -8.0261  -13.4893 O   0  0  0  0  0  0  0  0  0  0  0  0
   23.9437   -4.7155  -15.1505 C   0  0  0  0  0  0  0  0  0  0  0  0
   22.8340   -5.5111  -15.8380 C   0  0  1  0  0  0  0  0  0  0  0  0
   23.4199   -6.6875  -16.5197 C   0  0  0  0  0  0  0  0  0  0  0  0
   21.8257   -5.8794  -14.7717 C   0  0  2  0  0  0  0  0  0  0  0  0
   20.7854   -6.7009  -15.2814 N   0  0  0  0  0  0  0  0  0  0  0  0
   21.4460   -4.6880  -13.9933 C   0  0  0  0  0  0  0  0  0  0  0  0
   22.0878   -4.4063  -12.7957 O   0  0  0  0  0  0  0  0  0  0  0  0
   20.5330   -3.8982  -14.3350 O   0  0  0  0  0  0  0  0  0  0  0  0
  2  1  1  0
  2  3  2  0
  4  5  1  0
  4  2  1  0
  6  5  1  0
  6  7  1  6
  8 14  1  0
  8  6  1  0
  9  8  2  0
 11 10  1  6
 11 13  1  0
 11 12  1  0
 13 14  1  1
 15 13  1  0
 16 15  2  0
 18 20  1  0
 18 17  1  1
 19 18  1  0
 20 22  1  0
 20 21  1  6
 21 15  1  0
 22 23  1  0
 24 22  2  0
M  END
$$$$
