QVV.pdb
     RDKit          3D

 24 23  0  0  1  0  0  0  0  0999 V2000
   22.8128  -25.2020  -19.2427 N   0  0  0  0  0  0  0  0  0  0  0  0
   22.5291  -25.6059  -17.9331 C   0  0  0  0  0  0  0  0  0  0  0  0
   22.4657  -26.8341  -17.6838 O   0  0  0  0  0  0  0  0  0  0  0  0
   22.2946  -24.6505  -16.8289 C   0  0  0  0  0  0  0  0  0  0  0  0
   23.3165  -24.9346  -15.7114 C   0  0  0  0  0  0  0  0  0  0  0  0
   24.6928  -24.5832  -16.1879 C   0  0  2  0  0  0  0  0  0  0  0  0
   25.3956  -25.8198  -16.4955 N   0  0  0  0  0  0  0  0  0  0  0  0
   25.4486  -23.6988  -15.2890 C   0  0  0  0  0  0  0  0  0  0  0  0
   26.0616  -24.0898  -14.2817 O   0  0  0  0  0  0  0  0  0  0  0  0
   27.9002  -20.9139  -16.5819 C   0  0  0  0  0  0  0  0  0  0  0  0
   26.8661  -20.2936  -15.6364 C   0  0  2  0  0  0  0  0  0  0  0  0
   27.5438  -19.2323  -14.7734 C   0  0  0  0  0  0  0  0  0  0  0  0
   26.1752  -21.3457  -14.8305 C   0  0  2  0  0  0  0  0  0  0  0  0
   25.4568  -22.3044  -15.6220 N   0  0  0  0  0  0  0  0  0  0  0  0
   25.2473  -20.7555  -13.7779 C   0  0  0  0  0  0  0  0  0  0  0  0
   24.1765  -20.2381  -14.1503 O   0  0  0  0  0  0  0  0  0  0  0  0
   24.0064  -22.4083  -10.8989 C   0  0  0  0  0  0  0  0  0  0  0  0
   24.6667  -21.2134  -10.2109 C   0  0  1  0  0  0  0  0  0  0  0  0
   25.8732  -21.6678   -9.4831 C   0  0  0  0  0  0  0  0  0  0  0  0
   24.9669  -20.1922  -11.2862 C   0  0  2  0  0  0  0  0  0  0  0  0
   25.5899  -20.7781  -12.4201 N   0  0  0  0  0  0  0  0  0  0  0  0
   25.5923  -18.9964  -10.6958 C   0  0  0  0  0  0  0  0  0  0  0  0
   24.8166  -18.0739  -10.0083 O   0  0  0  0  0  0  0  0  0  0  0  0
   26.8141  -18.7304  -10.7982 O   0  0  0  0  0  0  0  0  0  0  0  0
  2  1  1  0
  2  3  2  0
  4  5  1  0
  4  2  1  0
  6  5  1  0
  6  7  1  1
  8 14  1  0
  8  6  1  0
  9  8  2  0
 11 10  1  1
 11 13  1  0
 11 12  1  0
 13 14  1  6
 15 13  1  0
 16 15  2  0
 18 20  1  0
 18 17  1  6
 19 18  1  0
 20 22  1  0
 20 21  1  6
 21 15  1  0
 22 23  1  0
 24 22  2  0
M  END
$$$$
