QVV.pdb
     RDKit          3D

 24 23  0  0  1  0  0  0  0  0999 V2000
   24.3216  -27.6051  -16.9090 N   0  0  0  0  0  0  0  0  0  0  0  0
   23.1498  -26.8551  -16.7576 C   0  0  0  0  0  0  0  0  0  0  0  0
   22.0898  -27.2868  -17.2718 O   0  0  0  0  0  0  0  0  0  0  0  0
   23.1044  -25.5723  -16.0231 C   0  0  0  0  0  0  0  0  0  0  0  0
   24.4879  -25.3200  -15.3940 C   0  0  0  0  0  0  0  0  0  0  0  0
   25.3320  -24.5218  -16.3401 C   0  0  2  0  0  0  0  0  0  0  0  0
   26.1414  -25.4482  -17.1174 N   0  0  0  0  0  0  0  0  0  0  0  0
   26.1225  -23.4545  -15.7097 C   0  0  0  0  0  0  0  0  0  0  0  0
   27.3297  -23.5533  -15.4336 O   0  0  0  0  0  0  0  0  0  0  0  0
   26.6577  -19.8857  -16.7893 C   0  0  0  0  0  0  0  0  0  0  0  0
   25.9583  -19.8411  -15.4265 C   0  0  2  0  0  0  0  0  0  0  0  0
   26.5151  -18.6768  -14.6113 C   0  0  0  0  0  0  0  0  0  0  0  0
   26.0720  -21.1536  -14.7206 C   0  0  2  0  0  0  0  0  0  0  0  0
   25.4270  -22.2384  -15.4053 N   0  0  0  0  0  0  0  0  0  0  0  0
   25.5705  -21.0865  -13.2849 C   0  0  0  0  0  0  0  0  0  0  0  0
   24.3433  -21.0023  -13.0858 O   0  0  0  0  0  0  0  0  0  0  0  0
   28.5700  -21.7010  -10.6832 C   0  0  0  0  0  0  0  0  0  0  0  0
   27.5626  -20.7296  -10.0679 C   0  0  1  0  0  0  0  0  0  0  0  0
   28.0961  -19.3506  -10.1456 C   0  0  0  0  0  0  0  0  0  0  0  0
   26.2594  -20.9088  -10.8154 C   0  0  2  0  0  0  0  0  0  0  0  0
   26.4646  -21.1049  -12.2070 N   0  0  0  0  0  0  0  0  0  0  0  0
   25.2856  -19.8854  -10.3986 C   0  0  0  0  0  0  0  0  0  0  0  0
   24.4858  -20.0995   -9.2850 O   0  0  0  0  0  0  0  0  0  0  0  0
   25.1029  -18.8091  -11.0169 O   0  0  0  0  0  0  0  0  0  0  0  0
  2  1  1  0
  2  3  2  0
  4  5  1  0
  4  2  1  0
  6  5  1  0
  6  7  1  1
  8 14  1  0
  8  6  1  0
  9  8  2  0
 11 10  1  6
 11 13  1  0
 11 12  1  0
 13 14  1  6
 15 13  1  0
 16 15  2  0
 18 20  1  0
 18 17  1  6
 19 18  1  0
 20 22  1  0
 20 21  1  6
 21 15  1  0
 22 23  1  0
 24 22  2  0
M  END
$$$$
