QVV.pdb
     RDKit          3D

 24 23  0  0  1  0  0  0  0  0999 V2000
   26.1321  -10.9002  -15.2355 N   0  0  0  0  0  0  0  0  0  0  0  0
   26.3231  -12.0748  -15.9721 C   0  0  0  0  0  0  0  0  0  0  0  0
   27.0893  -12.9550  -15.5110 O   0  0  0  0  0  0  0  0  0  0  0  0
   25.6668  -12.3244  -17.2737 C   0  0  0  0  0  0  0  0  0  0  0  0
   24.7489  -11.1296  -17.5954 C   0  0  0  0  0  0  0  0  0  0  0  0
   23.3338  -11.4743  -17.2442 C   0  0  2  0  0  0  0  0  0  0  0  0
   22.9207  -12.5953  -18.0752 N   0  0  0  0  0  0  0  0  0  0  0  0
   22.3946  -10.3443  -17.2921 C   0  0  0  0  0  0  0  0  0  0  0  0
   22.0385   -9.7794  -18.3396 O   0  0  0  0  0  0  0  0  0  0  0  0
   18.9627  -10.2904  -16.6329 C   0  0  0  0  0  0  0  0  0  0  0  0
   19.5295   -9.3406  -15.5723 C   0  0  2  0  0  0  0  0  0  0  0  0
   18.5365   -8.2074  -15.3271 C   0  0  0  0  0  0  0  0  0  0  0  0
   20.8877   -8.8516  -15.9593 C   0  0  2  0  0  0  0  0  0  0  0  0
   21.8780   -9.8885  -16.0348 N   0  0  0  0  0  0  0  0  0  0  0  0
   21.3848   -7.7369  -15.0496 C   0  0  0  0  0  0  0  0  0  0  0  0
   21.7614   -8.0304  -13.8986 O   0  0  0  0  0  0  0  0  0  0  0  0
   21.8969   -3.8884  -16.8865 C   0  0  0  0  0  0  0  0  0  0  0  0
   22.7235   -4.3692  -15.6937 C   0  0  1  0  0  0  0  0  0  0  0  0
   23.2869   -3.2004  -14.9806 C   0  0  0  0  0  0  0  0  0  0  0  0
   21.8096   -5.2117  -14.8310 C   0  0  2  0  0  0  0  0  0  0  0  0
   21.4083   -6.4062  -15.4861 N   0  0  0  0  0  0  0  0  0  0  0  0
   20.7627   -4.3725  -14.2232 C   0  0  0  0  0  0  0  0  0  0  0  0
   21.0225   -3.6775  -13.0506 O   0  0  0  0  0  0  0  0  0  0  0  0
   19.6045   -4.2602  -14.6922 O   0  0  0  0  0  0  0  0  0  0  0  0
  2  1  1  0
  2  3  2  0
  4  5  1  0
  4  2  1  0
  6  5  1  0
  6  7  1  6
  8 14  1  0
  8  6  1  0
  9  8  2  0
 11 10  1  6
 11 13  1  0
 11 12  1  0
 13 14  1  1
 15 13  1  0
 16 15  2  0
 18 20  1  0
 18 17  1  6
 19 18  1  0
 20 22  1  0
 20 21  1  6
 21 15  1  0
 22 23  1  0
 24 22  2  0
M  END
$$$$
