QVV.pdb
     RDKit          3D

 24 23  0  0  1  0  0  0  0  0999 V2000
   14.9352  -10.8147  -18.0957 N   0  0  0  0  0  0  0  0  0  0  0  0
   15.6801  -11.2407  -19.2013 C   0  0  0  0  0  0  0  0  0  0  0  0
   15.0675  -11.6698  -20.2089 O   0  0  0  0  0  0  0  0  0  0  0  0
   17.1583  -11.2135  -19.2349 C   0  0  0  0  0  0  0  0  0  0  0  0
   17.6643  -10.5404  -17.9448 C   0  0  0  0  0  0  0  0  0  0  0  0
   18.8120  -11.3245  -17.3857 C   0  0  2  0  0  0  0  0  0  0  0  0
   18.3254  -12.6488  -17.0293 N   0  0  0  0  0  0  0  0  0  0  0  0
   19.5351  -10.6619  -16.2905 C   0  0  0  0  0  0  0  0  0  0  0  0
   19.0863  -10.5307  -15.1395 O   0  0  0  0  0  0  0  0  0  0  0  0
   22.5960  -11.6874  -14.7287 C   0  0  0  0  0  0  0  0  0  0  0  0
   22.9171  -10.3074  -15.3125 C   0  0  2  0  0  0  0  0  0  0  0  0
   23.8640   -9.5686  -14.3702 C   0  0  0  0  0  0  0  0  0  0  0  0
   21.6665   -9.5412  -15.6003 C   0  0  2  0  0  0  0  0  0  0  0  0
   20.8347  -10.1440  -16.6036 N   0  0  0  0  0  0  0  0  0  0  0  0
   21.9458   -8.0919  -15.9727 C   0  0  0  0  0  0  0  0  0  0  0  0
   22.6086   -7.8582  -17.0018 O   0  0  0  0  0  0  0  0  0  0  0  0
   19.8432   -5.5931  -16.9478 C   0  0  0  0  0  0  0  0  0  0  0  0
   20.3466   -4.9428  -15.6592 C   0  0  1  0  0  0  0  0  0  0  0  0
   19.3062   -5.0529  -14.6117 C   0  0  0  0  0  0  0  0  0  0  0  0
   21.6414   -5.6331  -15.2899 C   0  0  2  0  0  0  0  0  0  0  0  0
   21.4823   -7.0395  -15.1732 N   0  0  0  0  0  0  0  0  0  0  0  0
   22.3047   -4.9193  -14.1853 C   0  0  0  0  0  0  0  0  0  0  0  0
   23.1256   -3.8331  -14.4532 O   0  0  0  0  0  0  0  0  0  0  0  0
   22.1980   -5.2530  -12.9807 O   0  0  0  0  0  0  0  0  0  0  0  0
  2  1  1  0
  2  3  2  0
  4  5  1  0
  4  2  1  0
  6  5  1  0
  6  7  1  1
  8 14  1  0
  8  6  1  0
  9  8  2  0
 11 10  1  1
 11 13  1  0
 11 12  1  0
 13 14  1  6
 15 13  1  0
 16 15  2  0
 18 20  1  0
 18 17  1  6
 19 18  1  0
 20 22  1  0
 20 21  1  1
 21 15  1  0
 22 23  1  0
 24 22  2  0
M  END
$$$$
