GSR.pdb
     RDKit          3D

 22 21  0  0  1  0  0  0  0  0999 V2000
   25.5390  -12.8163  -16.1994 N   0  0  0  0  0  0  0  0  0  0  0  0
   26.4814  -13.8957  -16.3747 C   0  0  0  0  0  0  0  0  0  0  0  0
   25.6781  -15.1752  -16.4631 C   0  0  0  0  0  0  0  0  0  0  0  0
   24.5934  -15.2817  -15.8382 O   0  0  0  0  0  0  0  0  0  0  0  0
   27.0255  -18.4727  -18.7644 O   0  0  0  0  0  0  0  0  0  0  0  0
   25.6520  -18.1701  -18.6645 C   0  0  0  0  0  0  0  0  0  0  0  0
   25.4324  -17.5260  -17.3171 C   0  0  2  0  0  0  0  0  0  0  0  0
   26.1273  -16.2647  -17.2425 N   0  0  0  0  0  0  0  0  0  0  0  0
   25.7675  -18.4453  -16.2103 C   0  0  0  0  0  0  0  0  0  0  0  0
   26.9264  -18.4480  -15.7165 O   0  0  0  0  0  0  0  0  0  0  0  0
   26.5400  -20.2079   -9.2612 N   0  0  0  0  0  0  0  0  0  0  0  0
   25.1831  -20.6251   -9.0666 C   0  0  0  0  0  0  0  0  0  0  0  0
   24.7248  -20.5881   -7.8737 N   0  0  0  0  0  0  0  0  0  0  0  0
   24.4268  -21.0491  -10.1707 N   0  0  0  0  0  0  0  0  0  0  0  0
   24.6859  -20.3609  -11.4588 C   0  0  0  0  0  0  0  0  0  0  0  0
   23.7446  -20.8827  -12.4858 C   0  0  0  0  0  0  0  0  0  0  0  0
   23.8767  -20.3698  -13.8412 C   0  0  0  0  0  0  0  0  0  0  0  0
   25.1682  -20.2295  -14.5258 C   0  0  2  0  0  0  0  0  0  0  0  0
   24.8087  -19.3234  -15.6967 N   0  0  0  0  0  0  0  0  0  0  0  0
   25.8431  -21.3413  -15.1501 C   0  0  0  0  0  0  0  0  0  0  0  0
   25.4017  -21.8048  -16.2628 O   0  0  0  0  0  0  0  0  0  0  0  0
   26.9675  -21.9777  -14.6594 O   0  0  0  0  0  0  0  0  0  0  0  0
  1  2  1  0
  2  3  1  0
  3  4  2  0
  3  8  1  0
  5  6  1  0
  7  6  1  6
  7  9  1  0
  8  7  1  0
  9 10  2  0
  9 19  1  0
 11 12  1  0
 12 13  2  0
 12 14  1  0
 14 15  1  0
 15 16  1  0
 17 16  1  0
 18 17  1  6
 18 20  1  0
 19 18  1  0
 20 22  1  0
 21 20  2  0
M  END
$$$$
