GSR.pdb
     RDKit          3D

 22 21  0  0  1  0  0  0  0  0999 V2000
   12.5900   -9.9758   -8.4165 N   0  0  0  0  0  0  0  0  0  0  0  0
   14.0176   -9.7652   -8.3739 C   0  0  0  0  0  0  0  0  0  0  0  0
   14.3072   -8.5260   -9.1927 C   0  0  0  0  0  0  0  0  0  0  0  0
   13.4736   -8.1240  -10.0423 O   0  0  0  0  0  0  0  0  0  0  0  0
   17.1784   -5.9449   -7.9908 O   0  0  0  0  0  0  0  0  0  0  0  0
   16.2105   -5.4853   -8.9073 C   0  0  0  0  0  0  0  0  0  0  0  0
   15.8582   -6.6459   -9.8058 C   0  0  2  0  0  0  0  0  0  0  0  0
   15.5090   -7.8034   -9.0199 N   0  0  0  0  0  0  0  0  0  0  0  0
   16.9197   -6.9110  -10.7986 C   0  0  0  0  0  0  0  0  0  0  0  0
   18.0244   -7.3934  -10.4327 O   0  0  0  0  0  0  0  0  0  0  0  0
   18.8462  -12.7089  -15.2102 N   0  0  0  0  0  0  0  0  0  0  0  0
   17.4803  -12.3273  -15.4140 C   0  0  0  0  0  0  0  0  0  0  0  0
   16.8057  -13.0001  -16.2664 N   0  0  0  0  0  0  0  0  0  0  0  0
   16.9484  -11.2521  -14.6847 N   0  0  0  0  0  0  0  0  0  0  0  0
   17.5533   -9.9197  -14.9265 C   0  0  0  0  0  0  0  0  0  0  0  0
   16.8373   -8.9055  -14.1068 C   0  0  0  0  0  0  0  0  0  0  0  0
   17.2617   -7.5191  -14.2313 C   0  0  0  0  0  0  0  0  0  0  0  0
   17.8763   -6.7644  -13.1317 C   0  0  2  0  0  0  0  0  0  0  0  0
   16.7163   -6.6308  -12.1529 N   0  0  0  0  0  0  0  0  0  0  0  0
   18.3495   -5.4104  -13.2860 C   0  0  0  0  0  0  0  0  0  0  0  0
   19.4637   -5.1945  -13.8857 O   0  0  0  0  0  0  0  0  0  0  0  0
   17.6954   -4.2751  -12.8463 O   0  0  0  0  0  0  0  0  0  0  0  0
  1  2  1  0
  2  3  1  0
  3  4  2  0
  3  8  1  0
  5  6  1  0
  7  6  1  1
  7  9  1  0
  8  7  1  0
  9 10  2  0
  9 19  1  0
 11 12  1  0
 12 13  2  0
 12 14  1  0
 14 15  1  0
 15 16  1  0
 17 16  1  0
 18 17  1  6
 18 20  1  0
 19 18  1  0
 20 22  1  0
 21 20  2  0
M  END
$$$$
