GSR.pdb
     RDKit          3D

 22 21  0  0  1  0  0  0  0  0999 V2000
   31.5793  -14.0815  -18.1180 N   0  0  0  0  0  0  0  0  0  0  0  0
   32.5693  -13.0367  -18.0058 C   0  0  0  0  0  0  0  0  0  0  0  0
   31.8236  -11.7462  -17.7435 C   0  0  0  0  0  0  0  0  0  0  0  0
   30.5829  -11.6868  -17.9321 O   0  0  0  0  0  0  0  0  0  0  0  0
   33.9237   -8.2593  -17.0252 O   0  0  0  0  0  0  0  0  0  0  0  0
   32.7600   -8.4194  -16.2451 C   0  0  0  0  0  0  0  0  0  0  0  0
   31.8382   -9.3452  -17.0012 C   0  0  2  0  0  0  0  0  0  0  0  0
   32.5010  -10.5938  -17.2860 N   0  0  0  0  0  0  0  0  0  0  0  0
   31.2740   -8.6949  -18.2018 C   0  0  0  0  0  0  0  0  0  0  0  0
   31.8927   -8.7408  -19.2982 O   0  0  0  0  0  0  0  0  0  0  0  0
   23.5054   -9.3223  -19.9482 N   0  0  0  0  0  0  0  0  0  0  0  0
   23.8130   -8.8193  -21.2541 C   0  0  0  0  0  0  0  0  0  0  0  0
   22.8300   -8.4704  -21.9933 N   0  0  0  0  0  0  0  0  0  0  0  0
   25.1535   -8.7314  -21.6612 N   0  0  0  0  0  0  0  0  0  0  0  0
   26.1756   -9.1942  -20.6911 C   0  0  0  0  0  0  0  0  0  0  0  0
   27.2058   -8.1335  -20.5284 C   0  0  0  0  0  0  0  0  0  0  0  0
   28.3351   -8.4212  -19.6568 C   0  0  0  0  0  0  0  0  0  0  0  0
   29.4290   -7.4712  -19.4178 C   0  0  2  0  0  0  0  0  0  0  0  0
   30.0512   -8.0203  -18.1400 N   0  0  0  0  0  0  0  0  0  0  0  0
   29.1992   -6.0797  -19.1140 C   0  0  0  0  0  0  0  0  0  0  0  0
   29.4586   -5.6383  -17.9369 O   0  0  0  0  0  0  0  0  0  0  0  0
   28.7190   -5.1323  -19.9984 O   0  0  0  0  0  0  0  0  0  0  0  0
  1  2  1  0
  2  3  1  0
  3  4  2  0
  3  8  1  0
  5  6  1  0
  7  6  1  6
  7  9  1  0
  8  7  1  0
  9 10  2  0
  9 19  1  0
 11 12  1  0
 12 13  2  0
 12 14  1  0
 14 15  1  0
 15 16  1  0
 17 16  1  0
 18 17  1  1
 18 20  1  0
 19 18  1  0
 20 22  1  0
 21 20  2  0
M  END
$$$$
