GSR.pdb
     RDKit          3D

 22 21  0  0  1  0  0  0  0  0999 V2000
   23.5267  -20.2820   -8.9284 N   0  0  0  0  0  0  0  0  0  0  0  0
   24.4914  -21.1952   -9.4939 C   0  0  0  0  0  0  0  0  0  0  0  0
   24.9779  -20.5802  -10.7882 C   0  0  0  0  0  0  0  0  0  0  0  0
   24.4834  -19.4999  -11.1965 O   0  0  0  0  0  0  0  0  0  0  0  0
   28.1566  -20.7570  -14.4344 O   0  0  0  0  0  0  0  0  0  0  0  0
   27.7752  -21.3015  -13.1909 C   0  0  0  0  0  0  0  0  0  0  0  0
   26.4393  -20.6989  -12.8293 C   0  0  2  0  0  0  0  0  0  0  0  0
   25.9879  -21.2023  -11.5556 N   0  0  0  0  0  0  0  0  0  0  0  0
   25.4494  -20.8735  -13.9119 C   0  0  0  0  0  0  0  0  0  0  0  0
   24.8174  -21.9574  -14.0249 O   0  0  0  0  0  0  0  0  0  0  0  0
   19.3809  -16.2046  -16.1442 N   0  0  0  0  0  0  0  0  0  0  0  0
   19.6973  -16.3751  -17.5312 C   0  0  0  0  0  0  0  0  0  0  0  0
   18.7419  -16.2412  -18.3701 N   0  0  0  0  0  0  0  0  0  0  0  0
   21.0163  -16.6761  -17.9058 N   0  0  0  0  0  0  0  0  0  0  0  0
   21.9886  -16.8887  -16.8061 C   0  0  0  0  0  0  0  0  0  0  0  0
   22.4518  -18.3020  -16.8341 C   0  0  0  0  0  0  0  0  0  0  0  0
   23.4782  -18.6922  -15.8792 C   0  0  0  0  0  0  0  0  0  0  0  0
   24.1115  -20.0171  -15.8757 C   0  0  2  0  0  0  0  0  0  0  0  0
   25.2006  -19.8442  -14.8243 N   0  0  0  0  0  0  0  0  0  0  0  0
   24.8199  -20.5443  -17.0164 C   0  0  0  0  0  0  0  0  0  0  0  0
   26.0783  -20.3217  -17.1374 O   0  0  0  0  0  0  0  0  0  0  0  0
   24.2632  -21.3040  -18.0279 O   0  0  0  0  0  0  0  0  0  0  0  0
  1  2  1  0
  2  3  1  0
  3  4  2  0
  3  8  1  0
  5  6  1  0
  7  6  1  6
  7  9  1  0
  8  7  1  0
  9 10  2  0
  9 19  1  0
 11 12  1  0
 12 13  2  0
 12 14  1  0
 14 15  1  0
 15 16  1  0
 17 16  1  0
 18 17  1  6
 18 20  1  0
 19 18  1  0
 20 22  1  0
 21 20  2  0
M  END
$$$$
