GSR.pdb
     RDKit          3D

 22 21  0  0  1  0  0  0  0  0999 V2000
   19.2539  -27.9306   -1.9838 N   0  0  0  0  0  0  0  0  0  0  0  0
   18.3205  -26.8487   -1.7776 C   0  0  0  0  0  0  0  0  0  0  0  0
   17.5403  -26.6856   -3.0640 C   0  0  0  0  0  0  0  0  0  0  0  0
   17.9503  -27.2257   -4.1216 O   0  0  0  0  0  0  0  0  0  0  0  0
   13.4539  -25.1570   -5.1467 O   0  0  0  0  0  0  0  0  0  0  0  0
   14.2219  -25.1440   -3.9642 C   0  0  0  0  0  0  0  0  0  0  0  0
   15.5710  -25.7317   -4.3003 C   0  0  2  0  0  0  0  0  0  0  0  0
   16.3469  -25.9302   -3.1011 N   0  0  0  0  0  0  0  0  0  0  0  0
   16.2740  -24.9357   -5.3272 C   0  0  0  0  0  0  0  0  0  0  0  0
   16.8560  -23.8642   -5.0109 O   0  0  0  0  0  0  0  0  0  0  0  0
   20.7226  -28.3882  -11.4055 N   0  0  0  0  0  0  0  0  0  0  0  0
   19.3021  -28.3570  -11.2203 C   0  0  0  0  0  0  0  0  0  0  0  0
   18.6219  -29.3002  -11.7515 N   0  0  0  0  0  0  0  0  0  0  0  0
   18.7260  -27.3138  -10.4783 N   0  0  0  0  0  0  0  0  0  0  0  0
   19.6463  -26.2598   -9.9863 C   0  0  0  0  0  0  0  0  0  0  0  0
   18.8459  -25.1532   -9.3967 C   0  0  0  0  0  0  0  0  0  0  0  0
   17.9032  -25.4934   -8.3415 C   0  0  0  0  0  0  0  0  0  0  0  0
   17.0224  -24.5081   -7.7014 C   0  0  2  0  0  0  0  0  0  0  0  0
   16.3032  -25.3563   -6.6600 N   0  0  0  0  0  0  0  0  0  0  0  0
   15.9487  -23.8504   -8.4055 C   0  0  0  0  0  0  0  0  0  0  0  0
   16.2238  -23.0200   -9.3449 O   0  0  0  0  0  0  0  0  0  0  0  0
   14.5997  -24.0377   -8.1706 O   0  0  0  0  0  0  0  0  0  0  0  0
  1  2  1  0
  2  3  1  0
  3  4  2  0
  3  8  1  0
  5  6  1  0
  7  6  1  1
  7  9  1  0
  8  7  1  0
  9 10  2  0
  9 19  1  0
 11 12  1  0
 12 13  2  0
 12 14  1  0
 14 15  1  0
 15 16  1  0
 17 16  1  0
 18 17  1  6
 18 20  1  0
 19 18  1  0
 20 22  1  0
 21 20  2  0
M  END
$$$$
