GSR.pdb
     RDKit          3D

 22 21  0  0  1  0  0  0  0  0999 V2000
   28.6110  -22.8855  -16.3359 N   0  0  0  0  0  0  0  0  0  0  0  0
   28.3872  -21.5369  -16.8000 C   0  0  0  0  0  0  0  0  0  0  0  0
   27.4590  -20.8745  -15.8052 C   0  0  0  0  0  0  0  0  0  0  0  0
   26.8485  -21.5692  -14.9549 O   0  0  0  0  0  0  0  0  0  0  0  0
   26.5695  -16.7768  -16.1158 O   0  0  0  0  0  0  0  0  0  0  0  0
   26.6804  -17.3379  -14.8270 C   0  0  0  0  0  0  0  0  0  0  0  0
   26.3290  -18.8013  -14.9443 C   0  0  2  0  0  0  0  0  0  0  0  0
   27.2622  -19.4754  -15.8127 N   0  0  0  0  0  0  0  0  0  0  0  0
   24.9183  -18.9952  -15.3377 C   0  0  0  0  0  0  0  0  0  0  0  0
   24.6142  -19.1586  -16.5492 O   0  0  0  0  0  0  0  0  0  0  0  0
   19.5338  -23.0301  -10.0889 N   0  0  0  0  0  0  0  0  0  0  0  0
   18.8220  -23.1294  -11.3284 C   0  0  0  0  0  0  0  0  0  0  0  0
   17.8477  -23.9556  -11.3791 N   0  0  0  0  0  0  0  0  0  0  0  0
   19.2147  -22.3323  -12.4151 N   0  0  0  0  0  0  0  0  0  0  0  0
   20.4174  -21.4865  -12.2200 C   0  0  0  0  0  0  0  0  0  0  0  0
   20.7805  -20.8526  -13.5159 C   0  0  0  0  0  0  0  0  0  0  0  0
   22.0090  -20.0739  -13.5626 C   0  0  0  0  0  0  0  0  0  0  0  0
   22.4893  -19.4016  -14.7765 C   0  0  2  0  0  0  0  0  0  0  0  0
   23.9034  -18.9992  -14.3765 N   0  0  0  0  0  0  0  0  0  0  0  0
   21.9117  -18.1739  -15.2668 C   0  0  0  0  0  0  0  0  0  0  0  0
   22.3687  -17.0493  -14.8495 O   0  0  0  0  0  0  0  0  0  0  0  0
   20.8826  -18.0799  -16.1846 O   0  0  0  0  0  0  0  0  0  0  0  0
  1  2  1  0
  2  3  1  0
  3  4  2  0
  3  8  1  0
  5  6  1  0
  7  6  1  6
  7  9  1  0
  8  7  1  0
  9 10  2  0
  9 19  1  0
 11 12  1  0
 12 13  2  0
 12 14  1  0
 14 15  1  0
 15 16  1  0
 17 16  1  0
 18 17  1  1
 18 20  1  0
 19 18  1  0
 20 22  1  0
 21 20  2  0
M  END
$$$$
