PIL.pdb
     RDKit          3D

 24 24  0  0  1  0  0  0  0  0999 V2000
   26.2091  -19.0232  -16.6507 N   0  0  0  0  0  0  0  0  0  0  0  0
   25.9584  -18.7910  -18.0601 C   0  0  0  0  0  0  0  0  0  0  0  0
   25.4665  -20.0838  -18.6332 C   0  0  0  0  0  0  0  0  0  0  0  0
   25.5342  -21.0564  -17.4796 C   0  0  0  0  0  0  0  0  0  0  0  0
   25.3859  -20.1502  -16.2866 C   0  0  1  0  0  0  0  0  0  0  0  0
   25.7615  -20.7690  -15.0145 C   0  0  0  0  0  0  0  0  0  0  0  0
   25.0473  -21.7097  -14.5824 O   0  0  0  0  0  0  0  0  0  0  0  0
   30.5928  -21.8960  -11.3994 C   0  0  0  0  0  0  0  0  0  0  0  0
   29.1020  -21.7870  -11.5420 C   0  0  0  0  0  0  0  0  0  0  0  0
   28.7373  -21.0743  -12.8563 C   0  0  2  0  0  0  0  0  0  0  0  0
   29.3880  -19.7276  -12.7880 C   0  0  0  0  0  0  0  0  0  0  0  0
   27.2339  -21.0445  -12.9925 C   0  0  2  0  0  0  0  0  0  0  0  0
   26.8881  -20.3538  -14.2573 N   0  0  0  0  0  0  0  0  0  0  0  0
   26.5763  -20.3212  -11.8779 C   0  0  0  0  0  0  0  0  0  0  0  0
   26.6727  -19.0546  -11.7622 O   0  0  0  0  0  0  0  0  0  0  0  0
   22.5753  -19.3184  -11.1832 C   0  0  0  0  0  0  0  0  0  0  0  0
   22.9580  -20.7663  -10.8982 C   0  0  2  0  0  0  0  0  0  0  0  0
   21.6756  -21.5284  -10.6682 C   0  0  0  0  0  0  0  0  0  0  0  0
   23.7804  -20.7882   -9.6487 C   0  0  0  0  0  0  0  0  0  0  0  0
   25.1466  -20.1659   -9.8138 C   0  0  2  0  0  0  0  0  0  0  0  0
   25.8044  -20.9444  -10.8746 N   0  0  0  0  0  0  0  0  0  0  0  0
   25.9819  -20.2701   -8.5988 C   0  0  0  0  0  0  0  0  0  0  0  0
   26.9403  -21.2684   -8.4315 O   0  0  0  0  0  0  0  0  0  0  0  0
   25.8719  -19.4582   -7.6441 O   0  0  0  0  0  0  0  0  0  0  0  0
  1  5  1  0
  2  1  1  0
  2  3  1  0
  3  4  1  0
  4  5  1  0
  5  6  1  1
  6  7  2  0
  8  9  1  0
  9 10  1  0
 10 11  1  1
 10 12  1  0
 12 13  1  6
 12 14  1  0
 13  6  1  0
 14 21  1  0
 15 14  2  0
 17 16  1  1
 17 19  1  0
 18 17  1  0
 20 19  1  1
 20 22  1  0
 21 20  1  0
 22 24  2  0
 22 23  1  0
M  END
$$$$
