PIL.pdb
     RDKit          3D

 24 24  0  0  1  0  0  0  0  0999 V2000
   27.7747  -19.5026  -15.4221 N   0  0  0  0  0  0  0  0  0  0  0  0
   29.0533  -19.3420  -16.0874 C   0  0  0  0  0  0  0  0  0  0  0  0
   29.7358  -20.6739  -16.0458 C   0  0  0  0  0  0  0  0  0  0  0  0
   28.7963  -21.5532  -15.2550 C   0  0  0  0  0  0  0  0  0  0  0  0
   27.4606  -20.9076  -15.5108 C   0  0  1  0  0  0  0  0  0  0  0  0
   26.4036  -21.3352  -14.5932 C   0  0  0  0  0  0  0  0  0  0  0  0
   25.8836  -22.4653  -14.7777 O   0  0  0  0  0  0  0  0  0  0  0  0
   26.6779  -20.4923   -9.3512 C   0  0  0  0  0  0  0  0  0  0  0  0
   26.3356  -21.1099  -10.6764 C   0  0  0  0  0  0  0  0  0  0  0  0
   25.0595  -20.4725  -11.2541 C   0  0  2  0  0  0  0  0  0  0  0  0
   23.9655  -20.7891  -10.2822 C   0  0  0  0  0  0  0  0  0  0  0  0
   24.8393  -21.0042  -12.6499 C   0  0  2  0  0  0  0  0  0  0  0  0
   25.9469  -20.5331  -13.5147 N   0  0  0  0  0  0  0  0  0  0  0  0
   23.5625  -20.5373  -13.2413 C   0  0  0  0  0  0  0  0  0  0  0  0
   23.3196  -19.2948  -13.3958 O   0  0  0  0  0  0  0  0  0  0  0  0
   19.7809  -19.7748  -16.3310 C   0  0  0  0  0  0  0  0  0  0  0  0
   20.0240  -21.2745  -16.4566 C   0  0  2  0  0  0  0  0  0  0  0  0
   18.8242  -21.9710  -15.8618 C   0  0  0  0  0  0  0  0  0  0  0  0
   21.2423  -21.6126  -15.6568 C   0  0  0  0  0  0  0  0  0  0  0  0
   21.3255  -20.8746  -14.3417 C   0  0  2  0  0  0  0  0  0  0  0  0
   22.5307  -21.3950  -13.6778 N   0  0  0  0  0  0  0  0  0  0  0  0
   20.1747  -21.1413  -13.4533 C   0  0  0  0  0  0  0  0  0  0  0  0
   19.0687  -20.2957  -13.3851 O   0  0  0  0  0  0  0  0  0  0  0  0
   20.1315  -22.1525  -12.7060 O   0  0  0  0  0  0  0  0  0  0  0  0
  1  5  1  0
  2  1  1  0
  2  3  1  0
  3  4  1  0
  4  5  1  0
  5  6  1  1
  6  7  2  0
  8  9  1  0
  9 10  1  0
 10 11  1  1
 10 12  1  0
 12 13  1  6
 12 14  1  0
 13  6  1  0
 14 21  1  0
 15 14  2  0
 17 16  1  1
 17 19  1  0
 18 17  1  0
 20 19  1  6
 20 22  1  0
 21 20  1  0
 22 24  2  0
 22 23  1  0
M  END
$$$$
