PIL.pdb
     RDKit          3D

 24 24  0  0  1  0  0  0  0  0999 V2000
   22.9110  -19.4491  -12.8261 N   0  0  0  0  0  0  0  0  0  0  0  0
   21.7688  -19.4512  -13.7197 C   0  0  0  0  0  0  0  0  0  0  0  0
   21.0625  -20.7561  -13.5200 C   0  0  0  0  0  0  0  0  0  0  0  0
   21.9218  -21.5004  -12.5255 C   0  0  0  0  0  0  0  0  0  0  0  0
   22.5858  -20.3787  -11.7723 C   0  0  1  0  0  0  0  0  0  0  0  0
   23.7404  -20.7945  -10.9748 C   0  0  0  0  0  0  0  0  0  0  0  0
   23.5474  -21.6117  -10.0385 O   0  0  0  0  0  0  0  0  0  0  0  0
   28.4864  -21.6701  -13.4242 C   0  0  0  0  0  0  0  0  0  0  0  0
   27.2639  -21.7130  -12.5533 C   0  0  0  0  0  0  0  0  0  0  0  0
   27.4361  -20.7856  -11.3373 C   0  0  2  0  0  0  0  0  0  0  0  0
   28.7080  -21.2114  -10.6723 C   0  0  0  0  0  0  0  0  0  0  0  0
   26.2041  -20.8866  -10.4703 C   0  0  2  0  0  0  0  0  0  0  0  0
   25.0556  -20.3167  -11.2137 N   0  0  0  0  0  0  0  0  0  0  0  0
   26.3432  -20.1420   -9.1959 C   0  0  0  0  0  0  0  0  0  0  0  0
   26.0503  -18.9031   -9.1176 O   0  0  0  0  0  0  0  0  0  0  0  0
   29.1097  -19.4706   -4.6646 C   0  0  0  0  0  0  0  0  0  0  0  0
   27.8048  -20.2189   -4.4174 C   0  0  2  0  0  0  0  0  0  0  0  0
   28.0895  -21.2797   -3.3820 C   0  0  0  0  0  0  0  0  0  0  0  0
   27.3981  -20.8725   -5.7002 C   0  0  0  0  0  0  0  0  0  0  0  0
   27.0747  -19.8914   -6.8020 C   0  0  2  0  0  0  0  0  0  0  0  0
   26.7946  -20.7151   -7.9882 N   0  0  0  0  0  0  0  0  0  0  0  0
   28.2051  -18.9988   -7.1338 C   0  0  0  0  0  0  0  0  0  0  0  0
   28.2357  -17.6568   -6.7583 O   0  0  0  0  0  0  0  0  0  0  0  0
   29.2069  -19.4051   -7.7773 O   0  0  0  0  0  0  0  0  0  0  0  0
  1  5  1  0
  2  1  1  0
  2  3  1  0
  3  4  1  0
  4  5  1  0
  5  6  1  6
  6  7  2  0
  8  9  1  0
  9 10  1  0
 10 11  1  1
 10 12  1  0
 12 13  1  6
 12 14  1  0
 13  6  1  0
 14 21  1  0
 15 14  2  0
 17 16  1  6
 17 19  1  0
 18 17  1  0
 20 19  1  1
 20 22  1  0
 21 20  1  0
 22 24  2  0
 22 23  1  0
M  END
$$$$
