PIL.pdb
     RDKit          3D

 24 24  0  0  1  0  0  0  0  0999 V2000
   18.1300  -13.4038  -17.8582 N   0  0  0  0  0  0  0  0  0  0  0  0
   17.9363  -14.7397  -18.3884 C   0  0  0  0  0  0  0  0  0  0  0  0
   19.0290  -14.9752  -19.3844 C   0  0  0  0  0  0  0  0  0  0  0  0
   19.7861  -13.6690  -19.4279 C   0  0  0  0  0  0  0  0  0  0  0  0
   19.5262  -13.1016  -18.0579 C   0  0  1  0  0  0  0  0  0  0  0  0
   19.8467  -11.6794  -17.9283 C   0  0  0  0  0  0  0  0  0  0  0  0
   21.0582  -11.3532  -17.8409 O   0  0  0  0  0  0  0  0  0  0  0  0
   17.0559   -9.1300  -20.6320 C   0  0  0  0  0  0  0  0  0  0  0  0
   18.3716   -8.6928  -20.0554 C   0  0  0  0  0  0  0  0  0  0  0  0
   18.2318   -8.4087  -18.5494 C   0  0  2  0  0  0  0  0  0  0  0  0
   18.3938   -6.9285  -18.3934 C   0  0  0  0  0  0  0  0  0  0  0  0
   19.2473   -9.2387  -17.8015 C   0  0  2  0  0  0  0  0  0  0  0  0
   18.8547  -10.6646  -17.8977 N   0  0  0  0  0  0  0  0  0  0  0  0
   19.3289   -8.8792  -16.3655 C   0  0  0  0  0  0  0  0  0  0  0  0
   18.3882   -9.1717  -15.5553 O   0  0  0  0  0  0  0  0  0  0  0  0
   22.4577   -6.9740  -12.2137 C   0  0  0  0  0  0  0  0  0  0  0  0
   21.7552   -8.3252  -12.2829 C   0  0  2  0  0  0  0  0  0  0  0  0
   22.6938   -9.3457  -11.6862 C   0  0  0  0  0  0  0  0  0  0  0  0
   21.5198   -8.6490  -13.7244 C   0  0  0  0  0  0  0  0  0  0  0  0
   20.4187   -7.8302  -14.3554 C   0  0  2  0  0  0  0  0  0  0  0  0
   20.4201   -8.2047  -15.7779 N   0  0  0  0  0  0  0  0  0  0  0  0
   20.6604   -6.3742  -14.2758 C   0  0  0  0  0  0  0  0  0  0  0  0
   20.0855   -5.5716  -13.2917 O   0  0  0  0  0  0  0  0  0  0  0  0
   21.4029   -5.7772  -15.0975 O   0  0  0  0  0  0  0  0  0  0  0  0
  1  5  1  0
  2  1  1  0
  2  3  1  0
  3  4  1  0
  4  5  1  0
  5  6  1  6
  6  7  2  0
  8  9  1  0
  9 10  1  0
 10 11  1  6
 10 12  1  0
 12 13  1  1
 12 14  1  0
 13  6  1  0
 14 21  1  0
 15 14  2  0
 17 16  1  6
 17 19  1  0
 18 17  1  0
 20 19  1  1
 20 22  1  0
 21 20  1  0
 22 24  2  0
 22 23  1  0
M  END
$$$$
