PIL.pdb
     RDKit          3D

 24 24  0  0  1  0  0  0  0  0999 V2000
   19.5844  -13.3726  -18.8621 N   0  0  0  0  0  0  0  0  0  0  0  0
   19.2186  -14.6178  -19.5093 C   0  0  0  0  0  0  0  0  0  0  0  0
   18.3195  -15.3519  -18.5638 C   0  0  0  0  0  0  0  0  0  0  0  0
   18.2740  -14.4776  -17.3330 C   0  0  0  0  0  0  0  0  0  0  0  0
   18.5415  -13.1094  -17.9010 C   0  0  1  0  0  0  0  0  0  0  0  0
   18.9018  -12.1053  -16.8991 C   0  0  0  0  0  0  0  0  0  0  0  0
   18.0447  -11.8060  -16.0288 O   0  0  0  0  0  0  0  0  0  0  0  0
   23.5497  -10.3311  -13.4760 C   0  0  0  0  0  0  0  0  0  0  0  0
   22.2136   -9.9710  -14.0589 C   0  0  0  0  0  0  0  0  0  0  0  0
   21.8890  -10.8752  -15.2611 C   0  0  2  0  0  0  0  0  0  0  0  0
   22.9927  -10.6575  -16.2491 C   0  0  0  0  0  0  0  0  0  0  0  0
   20.5089  -10.5329  -15.7686 C   0  0  2  0  0  0  0  0  0  0  0  0
   20.1672  -11.4626  -16.8711 N   0  0  0  0  0  0  0  0  0  0  0  0
   20.4222   -9.1479  -16.2903 C   0  0  0  0  0  0  0  0  0  0  0  0
   21.0790   -8.7868  -17.3223 O   0  0  0  0  0  0  0  0  0  0  0  0
   16.3879   -4.9059  -17.1632 C   0  0  0  0  0  0  0  0  0  0  0  0
   17.8959   -5.1247  -17.1198 C   0  0  2  0  0  0  0  0  0  0  0  0
   18.4001   -5.0312  -18.5394 C   0  0  0  0  0  0  0  0  0  0  0  0
   18.1468   -6.5022  -16.5927 C   0  0  0  0  0  0  0  0  0  0  0  0
   19.5979   -6.7712  -16.2719 C   0  0  2  0  0  0  0  0  0  0  0  0
   19.6287   -8.1326  -15.7155 N   0  0  0  0  0  0  0  0  0  0  0  0
   20.1445   -5.8566  -15.2474 C   0  0  0  0  0  0  0  0  0  0  0  0
   20.8651   -4.7092  -15.5747 O   0  0  0  0  0  0  0  0  0  0  0  0
   19.9877   -6.0662  -14.0168 O   0  0  0  0  0  0  0  0  0  0  0  0
  1  5  1  0
  2  1  1  0
  2  3  1  0
  3  4  1  0
  4  5  1  0
  5  6  1  1
  6  7  2  0
  8  9  1  0
  9 10  1  0
 10 11  1  6
 10 12  1  0
 12 13  1  6
 12 14  1  0
 13  6  1  0
 14 21  1  0
 15 14  2  0
 17 16  1  6
 17 19  1  0
 18 17  1  0
 20 19  1  1
 20 22  1  0
 21 20  1  0
 22 24  2  0
 22 23  1  0
M  END
$$$$
