PIL.pdb
     RDKit          3D

 24 24  0  0  1  0  0  0  0  0999 V2000
   23.5588  -19.4274  -12.5104 N   0  0  0  0  0  0  0  0  0  0  0  0
   22.4611  -19.4452  -13.4580 C   0  0  0  0  0  0  0  0  0  0  0  0
   21.9015  -20.8338  -13.4494 C   0  0  0  0  0  0  0  0  0  0  0  0
   22.7999  -21.5954  -12.5038 C   0  0  0  0  0  0  0  0  0  0  0  0
   23.3003  -20.5081  -11.5908 C   0  0  1  0  0  0  0  0  0  0  0  0
   24.4621  -20.8894  -10.7865 C   0  0  0  0  0  0  0  0  0  0  0  0
   24.3021  -21.7626   -9.8957 O   0  0  0  0  0  0  0  0  0  0  0  0
   29.1521  -21.3875  -13.2413 C   0  0  0  0  0  0  0  0  0  0  0  0
   27.9730  -21.5543  -12.3267 C   0  0  0  0  0  0  0  0  0  0  0  0
   28.1470  -20.6953  -11.0616 C   0  0  2  0  0  0  0  0  0  0  0  0
   29.4123  -21.1671  -10.4152 C   0  0  0  0  0  0  0  0  0  0  0  0
   26.9102  -20.8327  -10.2066 C   0  0  2  0  0  0  0  0  0  0  0  0
   25.7488  -20.3186  -10.9703 N   0  0  0  0  0  0  0  0  0  0  0  0
   27.0056  -20.0657   -8.9414 C   0  0  0  0  0  0  0  0  0  0  0  0
   26.5672  -18.8710   -8.8568 O   0  0  0  0  0  0  0  0  0  0  0  0
   26.2953  -20.4198   -4.0949 C   0  0  0  0  0  0  0  0  0  0  0  0
   27.2033  -21.4087   -4.8170 C   0  0  2  0  0  0  0  0  0  0  0  0
   27.8086  -22.3066   -3.7654 C   0  0  0  0  0  0  0  0  0  0  0  0
   28.2887  -20.6305   -5.4910 C   0  0  0  0  0  0  0  0  0  0  0  0
   27.7861  -19.7086   -6.5767 C   0  0  2  0  0  0  0  0  0  0  0  0
   27.5689  -20.5692   -7.7498 N   0  0  0  0  0  0  0  0  0  0  0  0
   28.7683  -18.6720   -6.9579 C   0  0  0  0  0  0  0  0  0  0  0  0
   28.8303  -17.4302   -6.3277 O   0  0  0  0  0  0  0  0  0  0  0  0
   29.6066  -18.8560   -7.8778 O   0  0  0  0  0  0  0  0  0  0  0  0
  1  5  1  0
  2  1  1  0
  2  3  1  0
  3  4  1  0
  4  5  1  0
  5  6  1  6
  6  7  2  0
  8  9  1  0
  9 10  1  0
 10 11  1  1
 10 12  1  0
 12 13  1  6
 12 14  1  0
 13  6  1  0
 14 21  1  0
 15 14  2  0
 17 16  1  1
 17 19  1  0
 18 17  1  0
 20 19  1  1
 20 22  1  0
 21 20  1  0
 22 24  2  0
 22 23  1  0
M  END
$$$$
