PIL.pdb
     RDKit          3D

 24 24  0  0  1  0  0  0  0  0999 V2000
   27.9091  -21.4304  -15.0019 N   0  0  0  0  0  0  0  0  0  0  0  0
   28.5292  -21.4515  -16.3127 C   0  0  0  0  0  0  0  0  0  0  0  0
   28.5720  -20.0354  -16.7966 C   0  0  0  0  0  0  0  0  0  0  0  0
   27.8729  -19.2470  -15.7144 C   0  0  0  0  0  0  0  0  0  0  0  0
   28.1114  -20.0956  -14.4941 C   0  0  1  0  0  0  0  0  0  0  0  0
   27.2547  -19.7610  -13.3556 C   0  0  0  0  0  0  0  0  0  0  0  0
   27.3505  -18.6074  -12.8640 O   0  0  0  0  0  0  0  0  0  0  0  0
   22.2878  -20.1084  -14.0648 C   0  0  0  0  0  0  0  0  0  0  0  0
   23.6599  -19.7806  -13.5503 C   0  0  0  0  0  0  0  0  0  0  0  0
   23.9592  -20.5780  -12.2685 C   0  0  2  0  0  0  0  0  0  0  0  0
   22.8547  -20.2496  -11.3126 C   0  0  0  0  0  0  0  0  0  0  0  0
   25.3432  -20.2185  -11.7840 C   0  0  2  0  0  0  0  0  0  0  0  0
   26.3297  -20.6775  -12.7903 N   0  0  0  0  0  0  0  0  0  0  0  0
   25.6757  -20.8572  -10.4881 C   0  0  0  0  0  0  0  0  0  0  0  0
   25.8276  -22.1200  -10.3920 O   0  0  0  0  0  0  0  0  0  0  0  0
   28.9124  -20.6548   -7.3464 C   0  0  0  0  0  0  0  0  0  0  0  0
   27.9828  -19.4565   -7.5004 C   0  0  2  0  0  0  0  0  0  0  0  0
   28.5018  -18.3707   -6.5893 C   0  0  0  0  0  0  0  0  0  0  0  0
   26.6173  -19.8716   -7.0517 C   0  0  0  0  0  0  0  0  0  0  0  0
   25.9453  -20.8488   -7.9869 C   0  0  2  0  0  0  0  0  0  0  0  0
   25.8530  -20.1518   -9.2790 N   0  0  0  0  0  0  0  0  0  0  0  0
   24.5718  -21.2004   -7.5690 C   0  0  0  0  0  0  0  0  0  0  0  0
   24.3062  -22.1883   -6.6221 O   0  0  0  0  0  0  0  0  0  0  0  0
   23.5621  -20.6232   -8.0488 O   0  0  0  0  0  0  0  0  0  0  0  0
  1  5  1  0
  2  1  1  0
  2  3  1  0
  3  4  1  0
  4  5  1  0
  5  6  1  1
  6  7  2  0
  8  9  1  0
  9 10  1  0
 10 11  1  1
 10 12  1  0
 12 13  1  6
 12 14  1  0
 13  6  1  0
 14 21  1  0
 15 14  2  0
 17 16  1  1
 17 19  1  0
 18 17  1  0
 20 19  1  1
 20 22  1  0
 21 20  1  0
 22 24  2  0
 22 23  1  0
M  END
$$$$
