PIL.pdb
     RDKit          3D

 24 24  0  0  1  0  0  0  0  0999 V2000
   27.7452  -22.4685  -15.5634 N   0  0  0  0  0  0  0  0  0  0  0  0
   28.0676  -23.0034  -16.8722 C   0  0  0  0  0  0  0  0  0  0  0  0
   28.8857  -21.9662  -17.5768 C   0  0  0  0  0  0  0  0  0  0  0  0
   28.9294  -20.8037  -16.6135 C   0  0  0  0  0  0  0  0  0  0  0  0
   28.7612  -21.4842  -15.2812 C   0  0  1  0  0  0  0  0  0  0  0  0
   28.4164  -20.5775  -14.1852 C   0  0  0  0  0  0  0  0  0  0  0  0
   28.6714  -19.3544  -14.3289 O   0  0  0  0  0  0  0  0  0  0  0  0
   23.4663  -18.7406  -13.3737 C   0  0  0  0  0  0  0  0  0  0  0  0
   24.6874  -18.9413  -12.5233 C   0  0  0  0  0  0  0  0  0  0  0  0
   25.6194  -19.9888  -13.1577 C   0  0  2  0  0  0  0  0  0  0  0  0
   24.7917  -21.2243  -13.3309 C   0  0  0  0  0  0  0  0  0  0  0  0
   26.8326  -20.1585  -12.2751 C   0  0  2  0  0  0  0  0  0  0  0  0
   27.8120  -21.0195  -12.9793 N   0  0  0  0  0  0  0  0  0  0  0  0
   26.5068  -20.7973  -10.9775 C   0  0  0  0  0  0  0  0  0  0  0  0
   26.2029  -22.0340  -10.9062 O   0  0  0  0  0  0  0  0  0  0  0  0
   28.8625  -20.8033   -6.9596 C   0  0  0  0  0  0  0  0  0  0  0  0
   28.1103  -19.5462   -7.3817 C   0  0  2  0  0  0  0  0  0  0  0  0
   28.3912  -18.4893   -6.3413 C   0  0  0  0  0  0  0  0  0  0  0  0
   26.6483  -19.8636   -7.3861 C   0  0  0  0  0  0  0  0  0  0  0  0
   26.2427  -20.8274   -8.4759 C   0  0  2  0  0  0  0  0  0  0  0  0
   26.5053  -20.1209   -9.7392 N   0  0  0  0  0  0  0  0  0  0  0  0
   24.8046  -21.1671   -8.4438 C   0  0  0  0  0  0  0  0  0  0  0  0
   24.3059  -22.2490   -7.7199 O   0  0  0  0  0  0  0  0  0  0  0  0
   23.9477  -20.4937   -9.0724 O   0  0  0  0  0  0  0  0  0  0  0  0
  1  5  1  0
  2  1  1  0
  2  3  1  0
  3  4  1  0
  4  5  1  0
  5  6  1  1
  6  7  2  0
  8  9  1  0
  9 10  1  0
 10 11  1  1
 10 12  1  0
 12 13  1  6
 12 14  1  0
 13  6  1  0
 14 21  1  0
 15 14  2  0
 17 16  1  1
 17 19  1  0
 18 17  1  0
 20 19  1  1
 20 22  1  0
 21 20  1  0
 22 24  2  0
 22 23  1  0
M  END
$$$$
