LEW.pdb
     RDKit          3D

 32 33  0  0  1  0  0  0  0  0999 V2000
    7.7803  -12.6380   21.6734 C   0  0  0  0  0  0  0  0  0  0  0  0
    7.9779  -13.8073   20.7757 C   0  0  2  0  0  0  0  0  0  0  0  0
    7.4674  -13.4150   19.3889 C   0  0  0  0  0  0  0  0  0  0  0  0
    7.2979  -15.0557   21.1641 C   0  0  0  0  0  0  0  0  0  0  0  0
    7.9256  -16.3457   20.8071 C   0  0  2  0  0  0  0  0  0  0  0  0
    7.1021  -17.3012   20.1384 N   0  0  0  0  0  0  0  0  0  0  0  0
    8.7443  -16.9605   21.9033 C   0  0  0  0  0  0  0  0  0  0  0  0
    8.2057  -17.7919   22.6969 O   0  0  0  0  0  0  0  0  0  0  0  0
   10.1089  -16.6512   22.0967 N   0  0  0  0  0  0  0  0  0  0  0  0
   10.9370  -17.3162   23.1577 C   0  0  1  0  0  0  0  0  0  0  0  0
   12.0545  -18.0067   22.5041 C   0  0  0  0  0  0  0  0  0  0  0  0
   12.1358  -18.1884   21.0558 C   0  0  0  0  0  0  0  0  0  0  0  0
   13.4875  -18.2222   20.4540 C   0  0  0  0  0  0  0  0  0  0  0  0
   14.4556  -18.1602   21.2886 O   0  0  0  0  0  0  0  0  0  0  0  0
   11.0755  -16.4573   24.2973 C   0  0  0  0  0  0  0  0  0  0  0  0
   12.2422  -15.9580   24.5255 O   0  0  0  0  0  0  0  0  0  0  0  0
   13.7285  -18.3159   19.1041 O   0  0  0  0  0  0  0  0  0  0  0  0
   10.0711  -16.0608   25.2232 N   0  0  0  0  0  0  0  0  0  0  0  0
   10.2616  -16.2674   26.6670 C   0  0  1  0  0  0  0  0  0  0  0  0
    8.8921  -16.4448   27.2842 C   0  0  0  0  0  0  0  0  0  0  0  0
    7.8147  -15.6891   26.6673 C   0  0  0  0  0  0  0  0  0  0  0  0
    6.6519  -16.1748   26.0602 C   0  0  0  0  0  0  0  0  0  0  0  0
    5.9588  -15.1442   25.6057 N   0  0  0  0  0  0  0  0  0  0  0  0
    6.5824  -13.9803   25.8684 C   0  0  0  0  0  0  0  0  0  0  0  0
    6.2517  -12.6703   25.6143 C   0  0  0  0  0  0  0  0  0  0  0  0
    7.0900  -11.6647   26.0283 C   0  0  0  0  0  0  0  0  0  0  0  0
    8.2670  -11.9902   26.7019 C   0  0  0  0  0  0  0  0  0  0  0  0
    8.6060  -13.2958   26.9597 C   0  0  0  0  0  0  0  0  0  0  0  0
    7.7647  -14.3065   26.5436 C   0  0  0  0  0  0  0  0  0  0  0  0
   11.1327  -17.3698   26.9411 C   0  0  0  0  0  0  0  0  0  0  0  0
   12.3454  -17.2792   27.2959 O   0  0  0  0  0  0  0  0  0  0  0  0
   10.6677  -18.6926   26.8282 O   0  0  0  0  0  0  0  0  0  0  0  0
  2  1  1  1
  3  2  1  0
  4  2  1  0
  5  4  1  0
  5  6  1  1
  7  5  1  0
  7  8  2  0
  9  7  1  0
 10  9  1  0
 10 11  1  6
 11 12  1  0
 12 13  1  0
 13 17  1  0
 14 13  2  0
 15 10  1  0
 16 15  2  0
 18 15  1  0
 19 18  1  0
 19 20  1  1
 20 21  1  0
 21 29  1  0
 22 21  2  0
 22 23  1  0
 23 24  1  0
 24 25  1  0
 25 26  2  0
 27 26  1  0
 28 27  2  0
 29 24  2  0
 29 28  1  0
 30 32  1  0
 30 19  1  0
 31 30  2  0
M  END
$$$$
