LEW.pdb
     RDKit          3D

 32 33  0  0  1  0  0  0  0  0999 V2000
    8.4922  -11.8332   19.7394 C   0  0  0  0  0  0  0  0  0  0  0  0
    8.0607  -13.2304   19.4675 C   0  0  2  0  0  0  0  0  0  0  0  0
    6.6374  -13.1733   18.9119 C   0  0  0  0  0  0  0  0  0  0  0  0
    8.0533  -14.1511   20.6181 C   0  0  0  0  0  0  0  0  0  0  0  0
    8.1177  -15.6058   20.3627 C   0  0  2  0  0  0  0  0  0  0  0  0
    6.9062  -16.2451   19.9608 N   0  0  0  0  0  0  0  0  0  0  0  0
    8.8592  -16.3858   21.4076 C   0  0  0  0  0  0  0  0  0  0  0  0
    8.2152  -16.9404   22.3505 O   0  0  0  0  0  0  0  0  0  0  0  0
   10.2640  -16.5332   21.3910 N   0  0  0  0  0  0  0  0  0  0  0  0
   11.0061  -17.2474   22.4832 C   0  0  1  0  0  0  0  0  0  0  0  0
   12.3392  -17.5982   21.9807 C   0  0  0  0  0  0  0  0  0  0  0  0
   13.3574  -18.2365   22.8132 C   0  0  0  0  0  0  0  0  0  0  0  0
   14.6802  -18.4796   22.1956 C   0  0  0  0  0  0  0  0  0  0  0  0
   14.8822  -19.6792   21.7983 O   0  0  0  0  0  0  0  0  0  0  0  0
   10.7606  -16.6204   23.7489 C   0  0  0  0  0  0  0  0  0  0  0  0
   11.0424  -15.3665   23.8544 O   0  0  0  0  0  0  0  0  0  0  0  0
   15.6468  -17.5152   22.0383 O   0  0  0  0  0  0  0  0  0  0  0  0
   10.2211  -17.2064   24.9274 N   0  0  0  0  0  0  0  0  0  0  0  0
   10.6167  -16.7140   26.2558 C   0  0  1  0  0  0  0  0  0  0  0  0
   10.1218  -15.2898   26.3773 C   0  0  0  0  0  0  0  0  0  0  0  0
    8.6811  -15.1102   26.3099 C   0  0  0  0  0  0  0  0  0  0  0  0
    7.6930  -16.0848   26.1354 C   0  0  0  0  0  0  0  0  0  0  0  0
    6.5160  -15.4824   26.1044 N   0  0  0  0  0  0  0  0  0  0  0  0
    6.6438  -14.1499   26.2484 C   0  0  0  0  0  0  0  0  0  0  0  0
    5.7255  -13.1278   26.2975 C   0  0  0  0  0  0  0  0  0  0  0  0
    6.1548  -11.8364   26.4801 C   0  0  0  0  0  0  0  0  0  0  0  0
    7.5195  -11.5822   26.6132 C   0  0  0  0  0  0  0  0  0  0  0  0
    8.4441  -12.5966   26.5650 C   0  0  0  0  0  0  0  0  0  0  0  0
    8.0138  -13.8940   26.3809 C   0  0  0  0  0  0  0  0  0  0  0  0
   10.1292  -17.5546   27.3070 C   0  0  0  0  0  0  0  0  0  0  0  0
   10.2616  -17.3340   28.5474 O   0  0  0  0  0  0  0  0  0  0  0  0
    9.4341  -18.7406   27.0086 O   0  0  0  0  0  0  0  0  0  0  0  0
  2  1  1  1
  3  2  1  0
  4  2  1  0
  5  4  1  0
  5  6  1  1
  7  5  1  0
  7  8  2  0
  9  7  1  0
 10  9  1  0
 10 11  1  6
 11 12  1  0
 12 13  1  0
 13 17  1  0
 14 13  2  0
 15 10  1  0
 16 15  2  0
 18 15  1  0
 19 18  1  0
 19 20  1  1
 20 21  1  0
 21 29  1  0
 22 21  2  0
 22 23  1  0
 23 24  1  0
 24 25  1  0
 25 26  2  0
 27 26  1  0
 28 27  2  0
 29 24  2  0
 29 28  1  0
 30 32  1  0
 30 19  1  0
 31 30  2  0
M  END
$$$$
