LEW.pdb
     RDKit          3D

 32 33  0  0  1  0  0  0  0  0999 V2000
    8.7471  -12.9505   18.6464 C   0  0  0  0  0  0  0  0  0  0  0  0
    7.7474  -13.2654   19.7017 C   0  0  2  0  0  0  0  0  0  0  0  0
    7.3757  -11.9521   20.3909 C   0  0  0  0  0  0  0  0  0  0  0  0
    8.1725  -14.2125   20.7475 C   0  0  0  0  0  0  0  0  0  0  0  0
    8.6744  -15.5418   20.3390 C   0  0  2  0  0  0  0  0  0  0  0  0
    7.8447  -16.3034   19.4617 N   0  0  0  0  0  0  0  0  0  0  0  0
    9.2311  -16.3655   21.4620 C   0  0  0  0  0  0  0  0  0  0  0  0
    8.4400  -16.9098   22.2922 O   0  0  0  0  0  0  0  0  0  0  0  0
   10.6178  -16.5662   21.6418 N   0  0  0  0  0  0  0  0  0  0  0  0
   11.1681  -17.3695   22.7844 C   0  0  1  0  0  0  0  0  0  0  0  0
   12.4565  -17.9364   22.3702 C   0  0  0  0  0  0  0  0  0  0  0  0
   12.6346  -18.6673   21.1168 C   0  0  0  0  0  0  0  0  0  0  0  0
   13.9999  -19.1426   20.8000 C   0  0  0  0  0  0  0  0  0  0  0  0
   14.7172  -19.4500   21.8143 O   0  0  0  0  0  0  0  0  0  0  0  0
   10.9485  -16.6891   24.0271 C   0  0  0  0  0  0  0  0  0  0  0  0
   11.4420  -15.5042   24.1498 O   0  0  0  0  0  0  0  0  0  0  0  0
   14.4982  -19.2628   19.5247 O   0  0  0  0  0  0  0  0  0  0  0  0
   10.2295  -17.1510   25.1642 N   0  0  0  0  0  0  0  0  0  0  0  0
   10.5505  -16.6455   26.5078 C   0  0  1  0  0  0  0  0  0  0  0  0
    9.9794  -15.2489   26.6151 C   0  0  0  0  0  0  0  0  0  0  0  0
    8.5753  -15.1085   26.2671 C   0  0  0  0  0  0  0  0  0  0  0  0
    7.6433  -16.1166   25.9992 C   0  0  0  0  0  0  0  0  0  0  0  0
    6.4888  -15.5460   25.6983 N   0  0  0  0  0  0  0  0  0  0  0  0
    6.5788  -14.2035   25.7459 C   0  0  0  0  0  0  0  0  0  0  0  0
    5.6609  -13.2021   25.5343 C   0  0  0  0  0  0  0  0  0  0  0  0
    6.0402  -11.8903   25.6789 C   0  0  0  0  0  0  0  0  0  0  0  0
    7.3546  -11.5948   26.0392 C   0  0  0  0  0  0  0  0  0  0  0  0
    8.2786  -12.5883   26.2521 C   0  0  0  0  0  0  0  0  0  0  0  0
    7.8985  -13.9062   26.1063 C   0  0  0  0  0  0  0  0  0  0  0  0
   10.0684  -17.5149   27.5378 C   0  0  0  0  0  0  0  0  0  0  0  0
    9.4021  -18.5763   27.3530 O   0  0  0  0  0  0  0  0  0  0  0  0
   10.3211  -17.2272   28.8913 O   0  0  0  0  0  0  0  0  0  0  0  0
  2  1  1  6
  3  2  1  0
  4  2  1  0
  5  4  1  0
  5  6  1  1
  7  5  1  0
  7  8  2  0
  9  7  1  0
 10  9  1  0
 10 11  1  6
 11 12  1  0
 12 13  1  0
 13 17  1  0
 14 13  2  0
 15 10  1  0
 16 15  2  0
 18 15  1  0
 19 18  1  0
 19 20  1  1
 20 21  1  0
 21 29  1  0
 22 21  2  0
 22 23  1  0
 23 24  1  0
 24 25  1  0
 25 26  2  0
 27 26  1  0
 28 27  2  0
 29 24  2  0
 29 28  1  0
 30 32  1  0
 30 19  1  0
 31 30  2  0
M  END
$$$$
