LEW.pdb
     RDKit          3D

 32 33  0  0  1  0  0  0  0  0999 V2000
    8.0903  -13.4416   18.4416 C   0  0  0  0  0  0  0  0  0  0  0  0
    7.5236  -13.1941   19.7943 C   0  0  2  0  0  0  0  0  0  0  0  0
    7.8270  -11.7414   20.1623 C   0  0  0  0  0  0  0  0  0  0  0  0
    8.0313  -14.0452   20.8849 C   0  0  0  0  0  0  0  0  0  0  0  0
    7.8773  -15.5112   20.7707 C   0  0  2  0  0  0  0  0  0  0  0  0
    6.5462  -16.0132   20.6525 N   0  0  0  0  0  0  0  0  0  0  0  0
    8.7036  -16.2983   21.7441 C   0  0  0  0  0  0  0  0  0  0  0  0
    8.1349  -16.8990   22.7070 O   0  0  0  0  0  0  0  0  0  0  0  0
   10.1082  -16.4031   21.6374 N   0  0  0  0  0  0  0  0  0  0  0  0
   10.9340  -17.1445   22.6483 C   0  0  1  0  0  0  0  0  0  0  0  0
   12.2592  -17.3910   22.0688 C   0  0  0  0  0  0  0  0  0  0  0  0
   13.3245  -18.0828   22.7924 C   0  0  0  0  0  0  0  0  0  0  0  0
   14.4496  -18.6153   21.9918 C   0  0  0  0  0  0  0  0  0  0  0  0
   14.4592  -19.8868   21.8466 O   0  0  0  0  0  0  0  0  0  0  0  0
   10.7143  -16.6132   23.9617 C   0  0  0  0  0  0  0  0  0  0  0  0
   11.0513  -15.3860   24.1692 O   0  0  0  0  0  0  0  0  0  0  0  0
   15.4303  -17.8360   21.4261 O   0  0  0  0  0  0  0  0  0  0  0  0
   10.1471  -17.2695   25.0891 N   0  0  0  0  0  0  0  0  0  0  0  0
   10.5635  -16.9075   26.4527 C   0  0  1  0  0  0  0  0  0  0  0  0
    9.9823  -15.5446   26.7574 C   0  0  0  0  0  0  0  0  0  0  0  0
    8.5668  -15.3796   26.4722 C   0  0  0  0  0  0  0  0  0  0  0  0
    7.6183  -16.3679   26.1889 C   0  0  0  0  0  0  0  0  0  0  0  0
    6.4569  -15.7770   25.9633 N   0  0  0  0  0  0  0  0  0  0  0  0
    6.5577  -14.4392   26.0768 C   0  0  0  0  0  0  0  0  0  0  0  0
    5.6391  -13.4238   25.9533 C   0  0  0  0  0  0  0  0  0  0  0  0
    6.0326  -12.1232   26.1508 C   0  0  0  0  0  0  0  0  0  0  0  0
    7.3620  -11.8531   26.4744 C   0  0  0  0  0  0  0  0  0  0  0  0
    8.2868  -12.8607   26.5993 C   0  0  0  0  0  0  0  0  0  0  0  0
    7.8924  -14.1673   26.4004 C   0  0  0  0  0  0  0  0  0  0  0  0
   10.1748  -17.8956   27.4128 C   0  0  0  0  0  0  0  0  0  0  0  0
    9.4828  -18.9280   27.1677 O   0  0  0  0  0  0  0  0  0  0  0  0
   10.5610  -17.7731   28.7598 O   0  0  0  0  0  0  0  0  0  0  0  0
  2  1  1  6
  3  2  1  0
  4  2  1  0
  5  4  1  0
  5  6  1  1
  7  5  1  0
  7  8  2  0
  9  7  1  0
 10  9  1  0
 10 11  1  6
 11 12  1  0
 12 13  1  0
 13 17  1  0
 14 13  2  0
 15 10  1  0
 16 15  2  0
 18 15  1  0
 19 18  1  0
 19 20  1  1
 20 21  1  0
 21 29  1  0
 22 21  2  0
 22 23  1  0
 23 24  1  0
 24 25  1  0
 25 26  2  0
 27 26  1  0
 28 27  2  0
 29 24  2  0
 29 28  1  0
 30 32  1  0
 30 19  1  0
 31 30  2  0
M  END
$$$$
