LEW.pdb
     RDKit          3D

 32 33  0  0  1  0  0  0  0  0999 V2000
    8.1591  -13.3122   18.2801 C   0  0  0  0  0  0  0  0  0  0  0  0
    7.4759  -13.2266   19.5984 C   0  0  2  0  0  0  0  0  0  0  0  0
    7.5942  -11.7823   20.0859 C   0  0  0  0  0  0  0  0  0  0  0  0
    7.9950  -14.1008   20.6651 C   0  0  0  0  0  0  0  0  0  0  0  0
    7.9950  -15.5630   20.4466 C   0  0  2  0  0  0  0  0  0  0  0  0
    6.7716  -16.1493   20.0019 N   0  0  0  0  0  0  0  0  0  0  0  0
    8.6450  -16.3531   21.5434 C   0  0  0  0  0  0  0  0  0  0  0  0
    7.9688  -16.6778   22.5675 O   0  0  0  0  0  0  0  0  0  0  0  0
    9.9971  -16.7583   21.4888 N   0  0  0  0  0  0  0  0  0  0  0  0
   10.6779  -17.4304   22.6458 C   0  0  1  0  0  0  0  0  0  0  0  0
   11.9390  -18.0068   22.1662 C   0  0  0  0  0  0  0  0  0  0  0  0
   12.0653  -18.6691   20.8690 C   0  0  0  0  0  0  0  0  0  0  0  0
   13.1946  -18.2557   20.0065 C   0  0  0  0  0  0  0  0  0  0  0  0
   14.3581  -18.4777   20.4911 O   0  0  0  0  0  0  0  0  0  0  0  0
   10.5546  -16.6339   23.8315 C   0  0  0  0  0  0  0  0  0  0  0  0
   11.1076  -15.4691   23.8237 O   0  0  0  0  0  0  0  0  0  0  0  0
   13.0478  -17.6761   18.7689 O   0  0  0  0  0  0  0  0  0  0  0  0
    9.8752  -16.9580   25.0384 N   0  0  0  0  0  0  0  0  0  0  0  0
   10.5012  -16.6937   26.3430 C   0  0  1  0  0  0  0  0  0  0  0  0
    9.8975  -15.4171   26.8852 C   0  0  0  0  0  0  0  0  0  0  0  0
    8.5250  -15.1463   26.4913 C   0  0  0  0  0  0  0  0  0  0  0  0
    7.5226  -16.0621   26.1548 C   0  0  0  0  0  0  0  0  0  0  0  0
    6.4330  -15.3858   25.8320 N   0  0  0  0  0  0  0  0  0  0  0  0
    6.6338  -14.0580   25.9293 C   0  0  0  0  0  0  0  0  0  0  0  0
    5.8125  -12.9757   25.7192 C   0  0  0  0  0  0  0  0  0  0  0  0
    6.2950  -11.7064   25.9229 C   0  0  0  0  0  0  0  0  0  0  0  0
    7.6145  -11.5357   26.3409 C   0  0  0  0  0  0  0  0  0  0  0  0
    8.4424  -12.6108   26.5528 C   0  0  0  0  0  0  0  0  0  0  0  0
    7.9587  -13.8861   26.3477 C   0  0  0  0  0  0  0  0  0  0  0  0
   10.3509  -17.7961   27.2437 C   0  0  0  0  0  0  0  0  0  0  0  0
   10.8517  -17.8716   28.4049 O   0  0  0  0  0  0  0  0  0  0  0  0
    9.5951  -18.9231   26.8731 O   0  0  0  0  0  0  0  0  0  0  0  0
  2  1  1  6
  3  2  1  0
  4  2  1  0
  5  4  1  0
  5  6  1  1
  7  5  1  0
  7  8  2  0
  9  7  1  0
 10  9  1  0
 10 11  1  6
 11 12  1  0
 12 13  1  0
 13 17  1  0
 14 13  2  0
 15 10  1  0
 16 15  2  0
 18 15  1  0
 19 18  1  0
 19 20  1  1
 20 21  1  0
 21 29  1  0
 22 21  2  0
 22 23  1  0
 23 24  1  0
 24 25  1  0
 25 26  2  0
 27 26  1  0
 28 27  2  0
 29 24  2  0
 29 28  1  0
 30 32  1  0
 30 19  1  0
 31 30  2  0
M  END
$$$$
