LEW.pdb
     RDKit          3D

 32 33  0  0  1  0  0  0  0  0999 V2000
    7.9889  -13.4654   18.4463 C   0  0  0  0  0  0  0  0  0  0  0  0
    7.4148  -13.2090   19.7942 C   0  0  2  0  0  0  0  0  0  0  0  0
    7.7635  -11.7705   20.1776 C   0  0  0  0  0  0  0  0  0  0  0  0
    7.8798  -14.0856   20.8836 C   0  0  0  0  0  0  0  0  0  0  0  0
    7.6865  -15.5453   20.7508 C   0  0  2  0  0  0  0  0  0  0  0  0
    6.3402  -16.0142   20.6772 N   0  0  0  0  0  0  0  0  0  0  0  0
    8.5315  -16.3687   21.6771 C   0  0  0  0  0  0  0  0  0  0  0  0
    7.9828  -16.9984   22.6330 O   0  0  0  0  0  0  0  0  0  0  0  0
    9.9326  -16.4767   21.5328 N   0  0  0  0  0  0  0  0  0  0  0  0
   10.7858  -17.2024   22.5323 C   0  0  1  0  0  0  0  0  0  0  0  0
   12.0928  -17.4632   21.9187 C   0  0  0  0  0  0  0  0  0  0  0  0
   13.1338  -18.2516   22.5759 C   0  0  0  0  0  0  0  0  0  0  0  0
   13.8855  -19.2113   21.7368 C   0  0  0  0  0  0  0  0  0  0  0  0
   14.4350  -20.1758   22.3737 O   0  0  0  0  0  0  0  0  0  0  0  0
   10.6061  -16.6469   23.8418 C   0  0  0  0  0  0  0  0  0  0  0  0
   11.0005  -15.4339   24.0308 O   0  0  0  0  0  0  0  0  0  0  0  0
   14.0062  -19.1121   20.3712 O   0  0  0  0  0  0  0  0  0  0  0  0
   10.0237  -17.2640   24.9833 N   0  0  0  0  0  0  0  0  0  0  0  0
   10.4875  -16.9218   26.3366 C   0  0  1  0  0  0  0  0  0  0  0  0
    9.9845  -15.5300   26.6498 C   0  0  0  0  0  0  0  0  0  0  0  0
    8.5746  -15.2909   26.3901 C   0  0  0  0  0  0  0  0  0  0  0  0
    7.5794  -16.2239   26.0808 C   0  0  0  0  0  0  0  0  0  0  0  0
    6.4433  -15.5732   25.8941 N   0  0  0  0  0  0  0  0  0  0  0  0
    6.6055  -14.2469   26.0589 C   0  0  0  0  0  0  0  0  0  0  0  0
    5.7322  -13.1875   25.9879 C   0  0  0  0  0  0  0  0  0  0  0  0
    6.1861  -11.9146   26.2312 C   0  0  0  0  0  0  0  0  0  0  0  0
    7.5299  -11.7171   26.5475 C   0  0  0  0  0  0  0  0  0  0  0  0
    8.4098  -12.7691   26.6202 C   0  0  0  0  0  0  0  0  0  0  0  0
    7.9547  -14.0479   26.3752 C   0  0  0  0  0  0  0  0  0  0  0  0
   10.0687  -17.8867   27.3077 C   0  0  0  0  0  0  0  0  0  0  0  0
    9.3181  -18.8816   27.0806 O   0  0  0  0  0  0  0  0  0  0  0  0
   10.4905  -17.7827   28.6456 O   0  0  0  0  0  0  0  0  0  0  0  0
  2  1  1  6
  3  2  1  0
  4  2  1  0
  5  4  1  0
  5  6  1  1
  7  5  1  0
  7  8  2  0
  9  7  1  0
 10  9  1  0
 10 11  1  6
 11 12  1  0
 12 13  1  0
 13 17  1  0
 14 13  2  0
 15 10  1  0
 16 15  2  0
 18 15  1  0
 19 18  1  0
 19 20  1  1
 20 21  1  0
 21 29  1  0
 22 21  2  0
 22 23  1  0
 23 24  1  0
 24 25  1  0
 25 26  2  0
 27 26  1  0
 28 27  2  0
 29 24  2  0
 29 28  1  0
 30 32  1  0
 30 19  1  0
 31 30  2  0
M  END
$$$$
