LEW.pdb
     RDKit          3D

 32 33  0  0  1  0  0  0  0  0999 V2000
    9.5087  -13.3668   20.1646 C   0  0  0  0  0  0  0  0  0  0  0  0
    8.4904  -13.5311   19.0931 C   0  0  2  0  0  0  0  0  0  0  0  0
    7.4794  -12.3935   19.2399 C   0  0  0  0  0  0  0  0  0  0  0  0
    7.7381  -14.7982   19.0907 C   0  0  0  0  0  0  0  0  0  0  0  0
    8.4879  -16.0679   18.9831 C   0  0  2  0  0  0  0  0  0  0  0  0
    7.8192  -17.1612   18.3543 N   0  0  0  0  0  0  0  0  0  0  0  0
    9.1990  -16.4755   20.2393 C   0  0  0  0  0  0  0  0  0  0  0  0
    8.5246  -16.8373   21.2521 O   0  0  0  0  0  0  0  0  0  0  0  0
   10.6073  -16.4745   20.3493 N   0  0  0  0  0  0  0  0  0  0  0  0
   11.3142  -16.9809   21.5730 C   0  0  1  0  0  0  0  0  0  0  0  0
   12.6727  -17.3796   21.1881 C   0  0  0  0  0  0  0  0  0  0  0  0
   13.3433  -16.8614   19.9969 C   0  0  0  0  0  0  0  0  0  0  0  0
   14.6906  -17.3939   19.6946 C   0  0  0  0  0  0  0  0  0  0  0  0
   14.7905  -18.6694   19.7265 O   0  0  0  0  0  0  0  0  0  0  0  0
   11.0057  -16.1587   22.7063 C   0  0  0  0  0  0  0  0  0  0  0  0
   10.7005  -14.9265   22.4797 O   0  0  0  0  0  0  0  0  0  0  0  0
   15.7796  -16.6112   19.3938 O   0  0  0  0  0  0  0  0  0  0  0  0
   10.9759  -16.5326   24.0784 N   0  0  0  0  0  0  0  0  0  0  0  0
    9.9968  -15.9306   24.9963 C   0  0  1  0  0  0  0  0  0  0  0  0
    8.6976  -15.7779   24.2369 C   0  0  0  0  0  0  0  0  0  0  0  0
    7.6021  -15.1649   24.9693 C   0  0  0  0  0  0  0  0  0  0  0  0
    6.3966  -15.7473   25.3745 C   0  0  0  0  0  0  0  0  0  0  0  0
    5.6750  -14.8247   25.9886 N   0  0  0  0  0  0  0  0  0  0  0  0
    6.3198  -13.6434   26.0266 C   0  0  0  0  0  0  0  0  0  0  0  0
    5.9897  -12.4208   26.5617 C   0  0  0  0  0  0  0  0  0  0  0  0
    6.8752  -11.3757   26.4669 C   0  0  0  0  0  0  0  0  0  0  0  0
    8.0987  -11.5725   25.8271 C   0  0  0  0  0  0  0  0  0  0  0  0
    8.4369  -12.7899   25.2891 C   0  0  0  0  0  0  0  0  0  0  0  0
    7.5477  -13.8401   25.3834 C   0  0  0  0  0  0  0  0  0  0  0  0
    9.8433  -16.6971   26.1956 C   0  0  0  0  0  0  0  0  0  0  0  0
    9.6913  -17.9535   26.2518 O   0  0  0  0  0  0  0  0  0  0  0  0
    9.8543  -16.0661   27.4527 O   0  0  0  0  0  0  0  0  0  0  0  0
  2  1  1  1
  3  2  1  0
  4  2  1  0
  5  4  1  0
  5  6  1  1
  7  5  1  0
  7  8  2  0
  9  7  1  0
 10  9  1  0
 10 11  1  6
 11 12  1  0
 12 13  1  0
 13 17  1  0
 14 13  2  0
 15 10  1  0
 16 15  2  0
 18 15  1  0
 19 18  1  0
 19 20  1  6
 20 21  1  0
 21 29  1  0
 22 21  2  0
 22 23  1  0
 23 24  1  0
 24 25  1  0
 25 26  2  0
 27 26  1  0
 28 27  2  0
 29 24  2  0
 29 28  1  0
 30 32  1  0
 30 19  1  0
 31 30  2  0
M  END
$$$$
