WKF.pdb
     RDKit          3D

 35 37  0  0  1  0  0  0  0  0999 V2000
   26.1535  -19.4758  -11.6508 N   0  0  0  0  0  0  0  0  0  0  0  0
   26.2239  -20.9116  -11.7944 C   0  0  1  0  0  0  0  0  0  0  0  0
   25.7297  -21.6118  -10.5489 C   0  0  0  0  0  0  0  0  0  0  0  0
   26.3576  -21.0176   -9.3609 C   0  0  0  0  0  0  0  0  0  0  0  0
   25.7153  -20.2376   -8.4040 C   0  0  0  0  0  0  0  0  0  0  0  0
   26.5832  -19.8911   -7.4468 N   0  0  0  0  0  0  0  0  0  0  0  0
   27.7628  -20.4283   -7.7678 C   0  0  0  0  0  0  0  0  0  0  0  0
   28.9725  -20.3569   -7.1181 C   0  0  0  0  0  0  0  0  0  0  0  0
   30.0811  -20.9825   -7.6361 C   0  0  0  0  0  0  0  0  0  0  0  0
   29.9573  -21.6806   -8.8173 C   0  0  0  0  0  0  0  0  0  0  0  0
   28.7612  -21.7755   -9.4975 C   0  0  0  0  0  0  0  0  0  0  0  0
   27.6578  -21.1407   -8.9605 C   0  0  0  0  0  0  0  0  0  0  0  0
   25.3025  -21.2256  -12.9499 C   0  0  0  0  0  0  0  0  0  0  0  0
   24.3117  -20.5182  -13.2489 O   0  0  0  0  0  0  0  0  0  0  0  0
   25.6121  -22.3870  -13.7041 N   0  0  0  0  0  0  0  0  0  0  0  0
   24.7984  -22.7778  -14.8882 C   0  0  1  0  0  0  0  0  0  0  0  0
   25.7490  -23.5876  -15.7231 C   0  0  0  0  0  0  0  0  0  0  0  0
   27.0959  -23.0142  -15.9371 C   0  0  0  0  0  0  0  0  0  0  0  0
   27.9862  -23.8424  -16.8282 C   0  0  0  0  0  0  0  0  0  0  0  0
   29.3756  -23.2368  -16.9525 C   0  0  0  0  0  0  0  0  0  0  0  0
   29.1770  -21.8408  -17.3193 N   0  0  0  0  0  0  0  0  0  0  0  0
   23.5924  -23.4756  -14.4420 C   0  0  0  0  0  0  0  0  0  0  0  0
   23.7329  -24.3668  -13.5221 O   0  0  0  0  0  0  0  0  0  0  0  0
   22.2878  -23.2468  -14.9381 N   0  0  0  0  0  0  0  0  0  0  0  0
   21.2343  -22.7710  -14.0289 C   0  0  1  0  0  0  0  0  0  0  0  0
   21.7544  -21.6212  -13.2200 C   0  0  0  0  0  0  0  0  0  0  0  0
   20.6870  -21.0884  -12.3512 C   0  0  0  0  0  0  0  0  0  0  0  0
   20.1848  -21.9352  -11.3713 C   0  0  0  0  0  0  0  0  0  0  0  0
   19.2061  -21.4998  -10.5009 C   0  0  0  0  0  0  0  0  0  0  0  0
   18.7542  -20.2277  -10.6326 C   0  0  0  0  0  0  0  0  0  0  0  0
   19.2431  -19.3651  -11.6042 C   0  0  0  0  0  0  0  0  0  0  0  0
   20.2171  -19.8013  -12.4695 C   0  0  0  0  0  0  0  0  0  0  0  0
   20.0707  -22.3907  -14.8318 C   0  0  0  0  0  0  0  0  0  0  0  0
   20.1885  -21.6114  -15.9547 O   0  0  0  0  0  0  0  0  0  0  0  0
   18.9189  -22.7802  -14.4932 O   0  0  0  0  0  0  0  0  0  0  0  0
  2  1  1  1
  3  2  1  0
  4  5  2  0
  4  3  1  0
  6  5  1  0
  7 12  2  0
  7  6  1  0
  8  7  1  0
  9 10  1  0
  9  8  2  0
 10 11  2  0
 11 12  1  0
 12  4  1  0
 13  2  1  0
 14 13  2  0
 15 13  1  0
 16 22  1  0
 16 15  1  0
 16 17  1  6
 18 17  1  0
 19 18  1  0
 20 19  1  0
 21 20  1  0
 22 23  2  0
 24 25  1  0
 24 22  1  0
 25 26  1  6
 25 33  1  0
 26 27  1  0
 27 28  2  0
 28 29  1  0
 30 29  2  0
 31 30  1  0
 32 27  1  0
 32 31  2  0
 33 35  2  0
 33 34  1  0
M  END
$$$$
