WKF.pdb
     RDKit          3D

 35 37  0  0  1  0  0  0  0  0999 V2000
   27.7145  -21.8683  -10.4618 N   0  0  0  0  0  0  0  0  0  0  0  0
   26.7261  -21.0709   -9.7731 C   0  0  1  0  0  0  0  0  0  0  0  0
   27.3455  -19.8298   -9.1716 C   0  0  0  0  0  0  0  0  0  0  0  0
   28.4531  -20.2065   -8.2827 C   0  0  0  0  0  0  0  0  0  0  0  0
   29.6690  -20.7527   -8.6828 C   0  0  0  0  0  0  0  0  0  0  0  0
   30.4519  -20.9431   -7.6149 N   0  0  0  0  0  0  0  0  0  0  0  0
   29.7676  -20.5341   -6.5436 C   0  0  0  0  0  0  0  0  0  0  0  0
   30.1238  -20.5313   -5.2155 C   0  0  0  0  0  0  0  0  0  0  0  0
   29.2503  -20.0713   -4.2594 C   0  0  0  0  0  0  0  0  0  0  0  0
   28.0128  -19.6145   -4.6567 C   0  0  0  0  0  0  0  0  0  0  0  0
   27.6197  -19.6009   -5.9787 C   0  0  0  0  0  0  0  0  0  0  0  0
   28.5119  -20.0664   -6.9252 C   0  0  0  0  0  0  0  0  0  0  0  0
   25.7400  -20.6738  -10.8467 C   0  0  0  0  0  0  0  0  0  0  0  0
   24.8781  -19.7773  -10.6887 O   0  0  0  0  0  0  0  0  0  0  0  0
   25.8309  -21.3768  -12.0760 N   0  0  0  0  0  0  0  0  0  0  0  0
   24.9250  -21.0607  -13.2145 C   0  0  1  0  0  0  0  0  0  0  0  0
   25.6332  -21.6402  -14.4058 C   0  0  0  0  0  0  0  0  0  0  0  0
   25.0403  -21.3568  -15.7312 C   0  0  0  0  0  0  0  0  0  0  0  0
   24.9431  -19.8897  -16.0643 C   0  0  0  0  0  0  0  0  0  0  0  0
   24.2772  -19.6632  -17.4126 C   0  0  0  0  0  0  0  0  0  0  0  0
   25.2578  -20.0503  -18.4182 N   0  0  0  0  0  0  0  0  0  0  0  0
   23.5931  -21.6018  -12.9424 C   0  0  0  0  0  0  0  0  0  0  0  0
   23.5254  -22.8169  -12.5191 O   0  0  0  0  0  0  0  0  0  0  0  0
   22.3781  -20.8961  -13.1044 N   0  0  0  0  0  0  0  0  0  0  0  0
   21.1058  -21.5427  -12.7496 C   0  0  1  0  0  0  0  0  0  0  0  0
   20.4951  -20.8342  -11.5782 C   0  0  0  0  0  0  0  0  0  0  0  0
   20.0603  -19.4808  -11.9744 C   0  0  0  0  0  0  0  0  0  0  0  0
   21.0283  -18.4849  -11.9977 C   0  0  0  0  0  0  0  0  0  0  0  0
   20.7054  -17.2004  -12.3861 C   0  0  0  0  0  0  0  0  0  0  0  0
   19.4218  -16.9443  -12.7417 C   0  0  0  0  0  0  0  0  0  0  0  0
   18.4395  -17.9251  -12.7264 C   0  0  0  0  0  0  0  0  0  0  0  0
   18.7636  -19.2028  -12.3390 C   0  0  0  0  0  0  0  0  0  0  0  0
   20.2306  -21.5111  -13.9228 C   0  0  0  0  0  0  0  0  0  0  0  0
   19.0316  -22.1772  -13.9504 O   0  0  0  0  0  0  0  0  0  0  0  0
   20.5758  -20.8595  -14.9471 O   0  0  0  0  0  0  0  0  0  0  0  0
  2  1  1  6
  3  2  1  0
  4  5  2  0
  4  3  1  0
  6  5  1  0
  7 12  2  0
  7  6  1  0
  8  7  1  0
  9 10  1  0
  9  8  2  0
 10 11  2  0
 11 12  1  0
 12  4  1  0
 13  2  1  0
 14 13  2  0
 15 13  1  0
 16 22  1  0
 16 15  1  0
 16 17  1  6
 18 17  1  0
 19 18  1  0
 20 19  1  0
 21 20  1  0
 22 23  2  0
 24 25  1  0
 24 22  1  0
 25 26  1  1
 25 33  1  0
 26 27  1  0
 27 28  2  0
 28 29  1  0
 30 29  2  0
 31 30  1  0
 32 27  1  0
 32 31  2  0
 33 35  2  0
 33 34  1  0
M  END
$$$$
