WKF.pdb
     RDKit          3D

 35 37  0  0  1  0  0  0  0  0999 V2000
   21.2547  -18.4170  -16.7511 N   0  0  0  0  0  0  0  0  0  0  0  0
   22.3791  -17.6782  -16.2249 C   0  0  1  0  0  0  0  0  0  0  0  0
   21.9538  -16.7587  -15.1027 C   0  0  0  0  0  0  0  0  0  0  0  0
   21.1008  -15.6866  -15.6332 C   0  0  0  0  0  0  0  0  0  0  0  0
   19.7589  -15.4849  -15.3240 C   0  0  0  0  0  0  0  0  0  0  0  0
   19.3062  -14.4002  -15.9627 N   0  0  0  0  0  0  0  0  0  0  0  0
   20.3231  -13.9046  -16.6723 C   0  0  0  0  0  0  0  0  0  0  0  0
   20.3704  -12.8103  -17.5035 C   0  0  0  0  0  0  0  0  0  0  0  0
   21.5333  -12.4797  -18.1570 C   0  0  0  0  0  0  0  0  0  0  0  0
   22.6486  -13.2650  -17.9640 C   0  0  0  0  0  0  0  0  0  0  0  0
   22.6405  -14.3696  -17.1380 C   0  0  0  0  0  0  0  0  0  0  0  0
   21.4624  -14.6853  -16.4891 C   0  0  0  0  0  0  0  0  0  0  0  0
   23.3125  -18.7364  -15.6847 C   0  0  0  0  0  0  0  0  0  0  0  0
   22.9152  -19.7435  -15.0527 O   0  0  0  0  0  0  0  0  0  0  0  0
   24.6964  -18.5386  -15.9281 N   0  0  0  0  0  0  0  0  0  0  0  0
   25.7081  -19.5380  -15.4869 C   0  0  1  0  0  0  0  0  0  0  0  0
   26.9643  -19.1084  -16.1896 C   0  0  0  0  0  0  0  0  0  0  0  0
   28.1461  -19.9834  -16.0274 C   0  0  0  0  0  0  0  0  0  0  0  0
   27.9108  -21.4197  -16.4203 C   0  0  0  0  0  0  0  0  0  0  0  0
   29.1939  -22.2341  -16.3652 C   0  0  0  0  0  0  0  0  0  0  0  0
   28.8275  -23.5923  -16.7443 N   0  0  0  0  0  0  0  0  0  0  0  0
   25.7718  -19.5544  -14.0253 C   0  0  0  0  0  0  0  0  0  0  0  0
   25.8184  -18.4157  -13.4243 O   0  0  0  0  0  0  0  0  0  0  0  0
   25.7832  -20.7193  -13.2232 N   0  0  0  0  0  0  0  0  0  0  0  0
   26.1752  -20.6275  -11.8087 C   0  0  1  0  0  0  0  0  0  0  0  0
   25.2347  -19.7091  -11.0883 C   0  0  0  0  0  0  0  0  0  0  0  0
   25.5540  -19.6844   -9.6477 C   0  0  0  0  0  0  0  0  0  0  0  0
   26.4496  -18.7156   -9.2130 C   0  0  0  0  0  0  0  0  0  0  0  0
   26.7757  -18.6097   -7.8760 C   0  0  0  0  0  0  0  0  0  0  0  0
   26.1976  -19.4760   -7.0071 C   0  0  0  0  0  0  0  0  0  0  0  0
   25.2996  -20.4506   -7.4204 C   0  0  0  0  0  0  0  0  0  0  0  0
   24.9770  -20.5539   -8.7520 C   0  0  0  0  0  0  0  0  0  0  0  0
   26.1635  -21.9762  -11.2394 C   0  0  0  0  0  0  0  0  0  0  0  0
   25.2302  -22.9110  -11.6099 O   0  0  0  0  0  0  0  0  0  0  0  0
   27.0280  -22.3032  -10.3800 O   0  0  0  0  0  0  0  0  0  0  0  0
  2  1  1  1
  3  2  1  0
  4  5  2  0
  4  3  1  0
  6  5  1  0
  7 12  2  0
  7  6  1  0
  8  7  1  0
  9 10  1  0
  9  8  2  0
 10 11  2  0
 11 12  1  0
 12  4  1  0
 13  2  1  0
 14 13  2  0
 15 13  1  0
 16 22  1  0
 16 15  1  0
 16 17  1  6
 18 17  1  0
 19 18  1  0
 20 19  1  0
 21 20  1  0
 22 23  2  0
 24 25  1  0
 24 22  1  0
 25 26  1  1
 25 33  1  0
 26 27  1  0
 27 28  2  0
 28 29  1  0
 30 29  2  0
 31 30  1  0
 32 27  1  0
 32 31  2  0
 33 35  2  0
 33 34  1  0
M  END
$$$$
