WKF.pdb
     RDKit          3D

 35 37  0  0  1  0  0  0  0  0999 V2000
   23.5325  -16.8910  -17.4894 N   0  0  0  0  0  0  0  0  0  0  0  0
   24.6710  -17.5162  -16.8570 C   0  0  1  0  0  0  0  0  0  0  0  0
   25.1683  -16.6953  -15.6888 C   0  0  0  0  0  0  0  0  0  0  0  0
   26.4430  -16.0535  -16.0377 C   0  0  0  0  0  0  0  0  0  0  0  0
   26.6883  -14.6837  -16.0523 C   0  0  0  0  0  0  0  0  0  0  0  0
   27.9635  -14.4566  -16.3868 N   0  0  0  0  0  0  0  0  0  0  0  0
   28.5386  -15.6450  -16.5872 C   0  0  0  0  0  0  0  0  0  0  0  0
   29.8265  -15.9524  -16.9576 C   0  0  0  0  0  0  0  0  0  0  0  0
   30.2118  -17.2611  -17.1234 C   0  0  0  0  0  0  0  0  0  0  0  0
   29.2840  -18.2573  -16.9124 C   0  0  0  0  0  0  0  0  0  0  0  0
   27.9835  -17.9888  -16.5396 C   0  0  0  0  0  0  0  0  0  0  0  0
   27.6154  -16.6671  -16.3770 C   0  0  0  0  0  0  0  0  0  0  0  0
   24.1492  -18.8428  -16.3565 C   0  0  0  0  0  0  0  0  0  0  0  0
   22.9625  -19.0203  -15.9934 O   0  0  0  0  0  0  0  0  0  0  0  0
   25.0831  -19.9103  -16.3121 N   0  0  0  0  0  0  0  0  0  0  0  0
   24.6935  -21.2561  -15.8084 C   0  0  1  0  0  0  0  0  0  0  0  0
   25.5645  -22.1964  -16.5918 C   0  0  0  0  0  0  0  0  0  0  0  0
   25.3240  -23.6425  -16.3933 C   0  0  0  0  0  0  0  0  0  0  0  0
   26.1519  -24.5350  -17.2825 C   0  0  0  0  0  0  0  0  0  0  0  0
   25.7389  -25.9931  -17.1552 C   0  0  0  0  0  0  0  0  0  0  0  0
   26.1894  -26.4277  -15.8396 N   0  0  0  0  0  0  0  0  0  0  0  0
   24.8586  -21.2993  -14.3553 C   0  0  0  0  0  0  0  0  0  0  0  0
   25.9432  -20.8013  -13.8700 O   0  0  0  0  0  0  0  0  0  0  0  0
   23.9217  -21.8408  -13.4445 N   0  0  0  0  0  0  0  0  0  0  0  0
   23.6343  -21.1345  -12.1870 C   0  0  1  0  0  0  0  0  0  0  0  0
   24.7051  -20.1176  -11.9292 C   0  0  0  0  0  0  0  0  0  0  0  0
   25.5744  -20.5656  -10.8240 C   0  0  0  0  0  0  0  0  0  0  0  0
   25.1465  -20.2949   -9.5305 C   0  0  0  0  0  0  0  0  0  0  0  0
   25.8900  -20.7081   -8.4436 C   0  0  0  0  0  0  0  0  0  0  0  0
   27.0436  -21.3821   -8.6780 C   0  0  0  0  0  0  0  0  0  0  0  0
   27.4887  -21.6637   -9.9624 C   0  0  0  0  0  0  0  0  0  0  0  0
   26.7466  -21.2509  -11.0425 C   0  0  0  0  0  0  0  0  0  0  0  0
   22.3114  -20.5173  -12.2978 C   0  0  0  0  0  0  0  0  0  0  0  0
   21.6151  -20.5031  -13.4797 O   0  0  0  0  0  0  0  0  0  0  0  0
   21.7838  -19.9760  -11.2870 O   0  0  0  0  0  0  0  0  0  0  0  0
  2  1  1  1
  3  2  1  0
  4  5  2  0
  4  3  1  0
  6  5  1  0
  7 12  2  0
  7  6  1  0
  8  7  1  0
  9 10  1  0
  9  8  2  0
 10 11  2  0
 11 12  1  0
 12  4  1  0
 13  2  1  0
 14 13  2  0
 15 13  1  0
 16 22  1  0
 16 15  1  0
 16 17  1  6
 18 17  1  0
 19 18  1  0
 20 19  1  0
 21 20  1  0
 22 23  2  0
 24 25  1  0
 24 22  1  0
 25 26  1  6
 25 33  1  0
 26 27  1  0
 27 28  2  0
 28 29  1  0
 30 29  2  0
 31 30  1  0
 32 27  1  0
 32 31  2  0
 33 35  2  0
 33 34  1  0
M  END
$$$$
