WKF.pdb
     RDKit          3D

 35 37  0  0  1  0  0  0  0  0999 V2000
   27.8900  -20.1800   -9.8817 N   0  0  0  0  0  0  0  0  0  0  0  0
   26.7932  -21.1128   -9.7644 C   0  0  1  0  0  0  0  0  0  0  0  0
   25.9798  -20.8485   -8.5177 C   0  0  0  0  0  0  0  0  0  0  0  0
   26.8212  -20.2015   -7.5018 C   0  0  0  0  0  0  0  0  0  0  0  0
   26.8617  -18.8381   -7.2254 C   0  0  0  0  0  0  0  0  0  0  0  0
   27.7153  -18.6058   -6.2219 N   0  0  0  0  0  0  0  0  0  0  0  0
   28.2216  -19.7844   -5.8510 C   0  0  0  0  0  0  0  0  0  0  0  0
   29.1448  -20.0825   -4.8767 C   0  0  0  0  0  0  0  0  0  0  0  0
   29.5428  -21.3809   -4.6658 C   0  0  0  0  0  0  0  0  0  0  0  0
   29.0003  -22.3762   -5.4488 C   0  0  0  0  0  0  0  0  0  0  0  0
   28.0717  -22.1168   -6.4350 C   0  0  0  0  0  0  0  0  0  0  0  0
   27.6834  -20.8056   -6.6313 C   0  0  0  0  0  0  0  0  0  0  0  0
   25.9421  -20.8575  -10.9864 C   0  0  0  0  0  0  0  0  0  0  0  0
   25.5802  -19.7114  -11.3429 O   0  0  0  0  0  0  0  0  0  0  0  0
   25.5575  -21.9996  -11.7355 N   0  0  0  0  0  0  0  0  0  0  0  0
   24.7390  -21.8714  -12.9726 C   0  0  1  0  0  0  0  0  0  0  0  0
   24.9939  -23.1584  -13.7043 C   0  0  0  0  0  0  0  0  0  0  0  0
   26.2477  -23.2389  -14.4854 C   0  0  0  0  0  0  0  0  0  0  0  0
   26.5511  -22.0051  -15.2969 C   0  0  0  0  0  0  0  0  0  0  0  0
   27.7844  -22.1944  -16.1663 C   0  0  0  0  0  0  0  0  0  0  0  0
   27.9680  -20.9411  -16.8862 N   0  0  0  0  0  0  0  0  0  0  0  0
   23.3454  -21.6122  -12.6102 C   0  0  0  0  0  0  0  0  0  0  0  0
   22.8025  -22.4039  -11.7509 O   0  0  0  0  0  0  0  0  0  0  0  0
   22.5512  -20.5617  -13.1260 N   0  0  0  0  0  0  0  0  0  0  0  0
   21.1752  -20.3807  -12.6396 C   0  0  1  0  0  0  0  0  0  0  0  0
   20.8684  -18.9167  -12.5417 C   0  0  0  0  0  0  0  0  0  0  0  0
   19.4521  -18.7185  -12.1776 C   0  0  0  0  0  0  0  0  0  0  0  0
   19.1245  -18.8100  -10.8309 C   0  0  0  0  0  0  0  0  0  0  0  0
   17.8261  -18.6077  -10.4084 C   0  0  0  0  0  0  0  0  0  0  0  0
   16.8877  -18.3187  -11.3443 C   0  0  0  0  0  0  0  0  0  0  0  0
   17.1941  -18.2217  -12.6947 C   0  0  0  0  0  0  0  0  0  0  0  0
   18.4874  -18.4239  -13.1124 C   0  0  0  0  0  0  0  0  0  0  0  0
   20.2675  -21.0676  -13.5602 C   0  0  0  0  0  0  0  0  0  0  0  0
   19.1142  -21.6702  -13.1258 O   0  0  0  0  0  0  0  0  0  0  0  0
   20.5409  -21.1184  -14.7914 O   0  0  0  0  0  0  0  0  0  0  0  0
  2  1  1  6
  3  2  1  0
  4  5  2  0
  4  3  1  0
  6  5  1  0
  7 12  2  0
  7  6  1  0
  8  7  1  0
  9 10  1  0
  9  8  2  0
 10 11  2  0
 11 12  1  0
 12  4  1  0
 13  2  1  0
 14 13  2  0
 15 13  1  0
 16 22  1  0
 16 15  1  0
 16 17  1  1
 18 17  1  0
 19 18  1  0
 20 19  1  0
 21 20  1  0
 22 23  2  0
 24 25  1  0
 24 22  1  0
 25 26  1  6
 25 33  1  0
 26 27  1  0
 27 28  2  0
 28 29  1  0
 30 29  2  0
 31 30  1  0
 32 27  1  0
 32 31  2  0
 33 35  2  0
 33 34  1  0
M  END
$$$$
