WKF.pdb
     RDKit          3D

 35 37  0  0  1  0  0  0  0  0999 V2000
   27.5585  -19.4955  -10.2646 N   0  0  0  0  0  0  0  0  0  0  0  0
   26.9357  -20.7987  -10.2352 C   0  0  1  0  0  0  0  0  0  0  0  0
   26.1923  -21.0216   -8.9378 C   0  0  0  0  0  0  0  0  0  0  0  0
   26.8163  -20.2356   -7.8647 C   0  0  0  0  0  0  0  0  0  0  0  0
   26.8140  -18.8475   -7.7646 C   0  0  0  0  0  0  0  0  0  0  0  0
   27.4480  -18.4741   -6.6475 N   0  0  0  0  0  0  0  0  0  0  0  0
   27.8561  -19.5868   -6.0322 C   0  0  0  0  0  0  0  0  0  0  0  0
   28.5588  -19.7419   -4.8607 C   0  0  0  0  0  0  0  0  0  0  0  0
   28.8921  -20.9957   -4.4072 C   0  0  0  0  0  0  0  0  0  0  0  0
   28.5098  -22.0922   -5.1484 C   0  0  0  0  0  0  0  0  0  0  0  0
   27.8038  -21.9771   -6.3277 C   0  0  0  0  0  0  0  0  0  0  0  0
   27.4772  -20.7085   -6.7667 C   0  0  0  0  0  0  0  0  0  0  0  0
   25.9535  -20.7787  -11.3832 C   0  0  0  0  0  0  0  0  0  0  0  0
   25.0726  -19.8969  -11.5169 O   0  0  0  0  0  0  0  0  0  0  0  0
   26.0713  -21.8284  -12.3307 N   0  0  0  0  0  0  0  0  0  0  0  0
   25.2735  -21.8264  -13.5878 C   0  0  1  0  0  0  0  0  0  0  0  0
   26.0068  -22.7894  -14.4775 C   0  0  0  0  0  0  0  0  0  0  0  0
   25.4489  -22.9958  -15.8320 C   0  0  0  0  0  0  0  0  0  0  0  0
   26.1891  -24.0179  -16.6567 C   0  0  0  0  0  0  0  0  0  0  0  0
   25.6497  -24.0907  -18.0767 C   0  0  0  0  0  0  0  0  0  0  0  0
   26.4367  -25.1111  -18.7565 N   0  0  0  0  0  0  0  0  0  0  0  0
   23.8850  -22.1734  -13.2844 C   0  0  0  0  0  0  0  0  0  0  0  0
   23.6859  -23.1009  -12.4125 O   0  0  0  0  0  0  0  0  0  0  0  0
   22.7476  -21.5698  -13.8696 N   0  0  0  0  0  0  0  0  0  0  0  0
   21.4039  -22.0602  -13.5277 C   0  0  1  0  0  0  0  0  0  0  0  0
   20.5414  -20.9061  -13.1138 C   0  0  0  0  0  0  0  0  0  0  0  0
   20.7903  -20.5687  -11.6989 C   0  0  0  0  0  0  0  0  0  0  0  0
   21.4876  -19.3957  -11.4396 C   0  0  0  0  0  0  0  0  0  0  0  0
   21.7337  -18.9971  -10.1413 C   0  0  0  0  0  0  0  0  0  0  0  0
   21.2759  -19.7824   -9.1345 C   0  0  0  0  0  0  0  0  0  0  0  0
   20.5763  -20.9577   -9.3718 C   0  0  0  0  0  0  0  0  0  0  0  0
   20.3330  -21.3522  -10.6652 C   0  0  0  0  0  0  0  0  0  0  0  0
   20.8584  -22.7583  -14.6931 C   0  0  0  0  0  0  0  0  0  0  0  0
   19.7303  -23.5346  -14.6102 O   0  0  0  0  0  0  0  0  0  0  0  0
   21.4321  -22.6558  -15.8126 O   0  0  0  0  0  0  0  0  0  0  0  0
  2  1  1  1
  3  2  1  0
  4  5  2  0
  4  3  1  0
  6  5  1  0
  7 12  2  0
  7  6  1  0
  8  7  1  0
  9 10  1  0
  9  8  2  0
 10 11  2  0
 11 12  1  0
 12  4  1  0
 13  2  1  0
 14 13  2  0
 15 13  1  0
 16 22  1  0
 16 15  1  0
 16 17  1  6
 18 17  1  0
 19 18  1  0
 20 19  1  0
 21 20  1  0
 22 23  2  0
 24 25  1  0
 24 22  1  0
 25 26  1  6
 25 33  1  0
 26 27  1  0
 27 28  2  0
 28 29  1  0
 30 29  2  0
 31 30  1  0
 32 27  1  0
 32 31  2  0
 33 35  2  0
 33 34  1  0
M  END
$$$$
