WKF.pdb
     RDKit          3D

 35 37  0  0  1  0  0  0  0  0999 V2000
   24.0664  -16.2669  -17.2906 N   0  0  0  0  0  0  0  0  0  0  0  0
   24.3514  -17.2819  -16.3029 C   0  0  1  0  0  0  0  0  0  0  0  0
   25.0510  -16.6936  -15.0987 C   0  0  0  0  0  0  0  0  0  0  0  0
   26.4160  -16.2904  -15.4631 C   0  0  0  0  0  0  0  0  0  0  0  0
   26.9786  -15.0352  -15.2516 C   0  0  0  0  0  0  0  0  0  0  0  0
   28.2463  -15.0305  -15.6787 N   0  0  0  0  0  0  0  0  0  0  0  0
   28.5076  -16.2490  -16.1584 C   0  0  0  0  0  0  0  0  0  0  0  0
   29.6582  -16.7494  -16.7208 C   0  0  0  0  0  0  0  0  0  0  0  0
   29.7093  -18.0480  -17.1676 C   0  0  0  0  0  0  0  0  0  0  0  0
   28.5871  -18.8371  -17.0421 C   0  0  0  0  0  0  0  0  0  0  0  0
   27.4153  -18.3715  -16.4831 C   0  0  0  0  0  0  0  0  0  0  0  0
   27.3837  -17.0637  -16.0389 C   0  0  0  0  0  0  0  0  0  0  0  0
   22.9954  -17.8073  -15.8928 C   0  0  0  0  0  0  0  0  0  0  0  0
   22.0119  -17.0640  -15.6655 O   0  0  0  0  0  0  0  0  0  0  0  0
   22.8767  -19.2161  -15.7712 N   0  0  0  0  0  0  0  0  0  0  0  0
   21.6006  -19.8484  -15.3367 C   0  0  1  0  0  0  0  0  0  0  0  0
   21.4209  -20.9877  -16.2990 C   0  0  0  0  0  0  0  0  0  0  0  0
   20.2393  -21.8524  -16.0882 C   0  0  0  0  0  0  0  0  0  0  0  0
   20.1638  -23.0347  -17.0206 C   0  0  0  0  0  0  0  0  0  0  0  0
   18.9112  -23.8621  -16.7776 C   0  0  0  0  0  0  0  0  0  0  0  0
   18.9418  -24.9398  -17.7577 N   0  0  0  0  0  0  0  0  0  0  0  0
   21.6964  -20.2190  -13.9246 C   0  0  0  0  0  0  0  0  0  0  0  0
   22.8003  -20.7526  -13.5285 O   0  0  0  0  0  0  0  0  0  0  0  0
   20.6760  -20.0348  -12.9627 N   0  0  0  0  0  0  0  0  0  0  0  0
   20.8670  -20.5318  -11.5918 C   0  0  1  0  0  0  0  0  0  0  0  0
   20.5994  -19.4247  -10.6173 C   0  0  0  0  0  0  0  0  0  0  0  0
   19.2266  -18.9133  -10.7951 C   0  0  0  0  0  0  0  0  0  0  0  0
   19.0399  -17.9123  -11.7399 C   0  0  0  0  0  0  0  0  0  0  0  0
   17.7805  -17.4034  -11.9847 C   0  0  0  0  0  0  0  0  0  0  0  0
   16.7389  -17.9088  -11.2779 C   0  0  0  0  0  0  0  0  0  0  0  0
   16.9035  -18.9097  -10.3302 C   0  0  0  0  0  0  0  0  0  0  0  0
   18.1584  -19.4142  -10.0883 C   0  0  0  0  0  0  0  0  0  0  0  0
   19.9686  -21.6691  -11.3852 C   0  0  0  0  0  0  0  0  0  0  0  0
   19.9850  -22.4045  -10.2272 O   0  0  0  0  0  0  0  0  0  0  0  0
   19.1517  -21.9973  -12.2897 O   0  0  0  0  0  0  0  0  0  0  0  0
  2  1  1  6
  3  2  1  0
  4  5  2  0
  4  3  1  0
  6  5  1  0
  7 12  2  0
  7  6  1  0
  8  7  1  0
  9 10  1  0
  9  8  2  0
 10 11  2  0
 11 12  1  0
 12  4  1  0
 13  2  1  0
 14 13  2  0
 15 13  1  0
 16 22  1  0
 16 15  1  0
 16 17  1  6
 18 17  1  0
 19 18  1  0
 20 19  1  0
 21 20  1  0
 22 23  2  0
 24 25  1  0
 24 22  1  0
 25 26  1  1
 25 33  1  0
 26 27  1  0
 27 28  2  0
 28 29  1  0
 30 29  2  0
 31 30  1  0
 32 27  1  0
 32 31  2  0
 33 35  2  0
 33 34  1  0
M  END
$$$$
