WKF.pdb
     RDKit          3D

 35 37  0  0  1  0  0  0  0  0999 V2000
   21.2384  -21.5933  -14.4954 N   0  0  0  0  0  0  0  0  0  0  0  0
   21.9642  -20.5586  -13.7958 C   0  0  1  0  0  0  0  0  0  0  0  0
   21.0869  -19.8668  -12.7773 C   0  0  0  0  0  0  0  0  0  0  0  0
   20.0822  -19.0427  -13.4630 C   0  0  0  0  0  0  0  0  0  0  0  0
   18.7096  -19.0745  -13.2356 C   0  0  0  0  0  0  0  0  0  0  0  0
   18.1018  -18.1716  -14.0134 N   0  0  0  0  0  0  0  0  0  0  0  0
   19.0498  -17.5650  -14.7321 C   0  0  0  0  0  0  0  0  0  0  0  0
   18.9423  -16.5759  -15.6810 C   0  0  0  0  0  0  0  0  0  0  0  0
   20.0610  -16.0959  -16.3189 C   0  0  0  0  0  0  0  0  0  0  0  0
   21.2899  -16.6247  -15.9903 C   0  0  0  0  0  0  0  0  0  0  0  0
   21.4380  -17.6168  -15.0437 C   0  0  0  0  0  0  0  0  0  0  0  0
   20.3020  -18.0857  -14.4127 C   0  0  0  0  0  0  0  0  0  0  0  0
   23.0818  -21.2882  -13.0874 C   0  0  0  0  0  0  0  0  0  0  0  0
   22.9646  -22.4531  -12.6395 O   0  0  0  0  0  0  0  0  0  0  0  0
   24.3039  -20.5814  -12.9450 N   0  0  0  0  0  0  0  0  0  0  0  0
   25.5093  -21.2336  -12.3632 C   0  0  1  0  0  0  0  0  0  0  0  0
   26.5892  -20.9489  -13.3678 C   0  0  0  0  0  0  0  0  0  0  0  0
   27.8863  -21.6281  -13.1561 C   0  0  0  0  0  0  0  0  0  0  0  0
   28.9059  -21.3644  -14.2348 C   0  0  0  0  0  0  0  0  0  0  0  0
   30.1982  -22.1258  -13.9840 C   0  0  0  0  0  0  0  0  0  0  0  0
   30.7649  -21.5694  -12.7625 N   0  0  0  0  0  0  0  0  0  0  0  0
   25.7424  -20.7133  -11.0157 C   0  0  0  0  0  0  0  0  0  0  0  0
   25.4499  -19.4768  -10.8022 O   0  0  0  0  0  0  0  0  0  0  0  0
   26.2594  -21.4605   -9.9319 N   0  0  0  0  0  0  0  0  0  0  0  0
   26.5471  -20.7904   -8.6548 C   0  0  1  0  0  0  0  0  0  0  0  0
   27.4458  -21.6582   -7.8265 C   0  0  0  0  0  0  0  0  0  0  0  0
   27.7728  -20.9828   -6.5558 C   0  0  0  0  0  0  0  0  0  0  0  0
   28.9475  -20.2428   -6.5146 C   0  0  0  0  0  0  0  0  0  0  0  0
   29.3069  -19.5583   -5.3712 C   0  0  0  0  0  0  0  0  0  0  0  0
   28.4817  -19.6313   -4.2972 C   0  0  0  0  0  0  0  0  0  0  0  0
   27.3029  -20.3642   -4.3176 C   0  0  0  0  0  0  0  0  0  0  0  0
   26.9479  -21.0449   -5.4571 C   0  0  0  0  0  0  0  0  0  0  0  0
   27.1580  -19.4917   -8.9439 C   0  0  0  0  0  0  0  0  0  0  0  0
   26.7500  -18.3429   -8.3147 O   0  0  0  0  0  0  0  0  0  0  0  0
   28.0857  -19.4092   -9.7957 O   0  0  0  0  0  0  0  0  0  0  0  0
  2  1  1  1
  3  2  1  0
  4  5  2  0
  4  3  1  0
  6  5  1  0
  7 12  2  0
  7  6  1  0
  8  7  1  0
  9 10  1  0
  9  8  2  0
 10 11  2  0
 11 12  1  0
 12  4  1  0
 13  2  1  0
 14 13  2  0
 15 13  1  0
 16 22  1  0
 16 15  1  0
 16 17  1  6
 18 17  1  0
 19 18  1  0
 20 19  1  0
 21 20  1  0
 22 23  2  0
 24 25  1  0
 24 22  1  0
 25 26  1  1
 25 33  1  0
 26 27  1  0
 27 28  2  0
 28 29  1  0
 30 29  2  0
 31 30  1  0
 32 27  1  0
 32 31  2  0
 33 35  2  0
 33 34  1  0
M  END
$$$$
