WKF.pdb
     RDKit          3D

 35 37  0  0  1  0  0  0  0  0999 V2000
   23.6674  -14.3506  -17.0867 N   0  0  0  0  0  0  0  0  0  0  0  0
   24.3554  -13.3265  -17.8384 C   0  0  1  0  0  0  0  0  0  0  0  0
   24.5066  -12.0596  -17.0272 C   0  0  0  0  0  0  0  0  0  0  0  0
   23.2965  -11.2368  -17.1582 C   0  0  0  0  0  0  0  0  0  0  0  0
   22.1523  -11.5786  -17.8730 C   0  0  0  0  0  0  0  0  0  0  0  0
   21.2376  -10.6100  -17.7516 N   0  0  0  0  0  0  0  0  0  0  0  0
   21.7678   -9.6584  -16.9792 C   0  0  0  0  0  0  0  0  0  0  0  0
   21.2387   -8.4583  -16.5667 C   0  0  0  0  0  0  0  0  0  0  0  0
   21.9710   -7.6085  -15.7726 C   0  0  0  0  0  0  0  0  0  0  0  0
   23.2435   -7.9816  -15.3993 C   0  0  0  0  0  0  0  0  0  0  0  0
   23.8082   -9.1770  -15.7923 C   0  0  0  0  0  0  0  0  0  0  0  0
   23.0561  -10.0182  -16.5895 C   0  0  0  0  0  0  0  0  0  0  0  0
   25.7196  -13.9113  -18.1209 C   0  0  0  0  0  0  0  0  0  0  0  0
   26.3797  -14.5542  -17.2709 O   0  0  0  0  0  0  0  0  0  0  0  0
   26.2386  -13.6970  -19.4241 N   0  0  0  0  0  0  0  0  0  0  0  0
   27.5829  -14.2058  -19.8126 C   0  0  1  0  0  0  0  0  0  0  0  0
   27.3993  -14.6486  -21.2362 C   0  0  0  0  0  0  0  0  0  0  0  0
   28.5703  -15.2705  -21.8925 C   0  0  0  0  0  0  0  0  0  0  0  0
   28.8255  -16.6976  -21.4790 C   0  0  0  0  0  0  0  0  0  0  0  0
   30.0078  -17.2954  -22.2257 C   0  0  0  0  0  0  0  0  0  0  0  0
   30.1355  -18.6665  -21.7496 N   0  0  0  0  0  0  0  0  0  0  0  0
   28.5814  -13.1582  -19.5972 C   0  0  0  0  0  0  0  0  0  0  0  0
   28.2613  -11.9586  -19.9415 O   0  0  0  0  0  0  0  0  0  0  0  0
   29.8655  -13.3587  -19.0393 N   0  0  0  0  0  0  0  0  0  0  0  0
   30.7693  -12.2129  -18.8577 C   0  0  1  0  0  0  0  0  0  0  0  0
   31.0679  -12.0384  -17.3992 C   0  0  0  0  0  0  0  0  0  0  0  0
   29.8351  -11.6882  -16.6675 C   0  0  0  0  0  0  0  0  0  0  0  0
   29.3263  -12.6379  -15.7908 C   0  0  0  0  0  0  0  0  0  0  0  0
   28.1933  -12.3729  -15.0483 C   0  0  0  0  0  0  0  0  0  0  0  0
   27.5976  -11.1640  -15.2015 C   0  0  0  0  0  0  0  0  0  0  0  0
   28.0902  -10.2008  -16.0713 C   0  0  0  0  0  0  0  0  0  0  0  0
   29.2180  -10.4674  -16.8094 C   0  0  0  0  0  0  0  0  0  0  0  0
   31.9840  -12.4568  -19.6377 C   0  0  0  0  0  0  0  0  0  0  0  0
   32.1833  -13.6297  -20.3208 O   0  0  0  0  0  0  0  0  0  0  0  0
   32.8846  -11.5741  -19.6909 O   0  0  0  0  0  0  0  0  0  0  0  0
  2  1  1  1
  3  2  1  0
  4  5  2  0
  4  3  1  0
  6  5  1  0
  7 12  2  0
  7  6  1  0
  8  7  1  0
  9 10  1  0
  9  8  2  0
 10 11  2  0
 11 12  1  0
 12  4  1  0
 13  2  1  0
 14 13  2  0
 15 13  1  0
 16 22  1  0
 16 15  1  0
 16 17  1  6
 18 17  1  0
 19 18  1  0
 20 19  1  0
 21 20  1  0
 22 23  2  0
 24 25  1  0
 24 22  1  0
 25 26  1  1
 25 33  1  0
 26 27  1  0
 27 28  2  0
 28 29  1  0
 30 29  2  0
 31 30  1  0
 32 27  1  0
 32 31  2  0
 33 35  2  0
 33 34  1  0
M  END
$$$$
