WKF.pdb
     RDKit          3D

 35 37  0  0  1  0  0  0  0  0999 V2000
   26.5267  -18.3165   -9.1045 N   0  0  0  0  0  0  0  0  0  0  0  0
   26.9715  -19.6511   -9.4334 C   0  0  1  0  0  0  0  0  0  0  0  0
   26.2815  -20.6860   -8.5739 C   0  0  0  0  0  0  0  0  0  0  0  0
   26.6613  -20.4986   -7.1670 C   0  0  0  0  0  0  0  0  0  0  0  0
   25.7938  -20.1913   -6.1231 C   0  0  0  0  0  0  0  0  0  0  0  0
   26.4756  -20.1241   -4.9741 N   0  0  0  0  0  0  0  0  0  0  0  0
   27.7555  -20.3791   -5.2569 C   0  0  0  0  0  0  0  0  0  0  0  0
   28.8526  -20.4186   -4.4292 C   0  0  0  0  0  0  0  0  0  0  0  0
   30.1004  -20.6917   -4.9364 C   0  0  0  0  0  0  0  0  0  0  0  0
   30.2305  -20.9239   -6.2880 C   0  0  0  0  0  0  0  0  0  0  0  0
   29.1540  -20.8936   -7.1498 C   0  0  0  0  0  0  0  0  0  0  0  0
   27.9077  -20.6183   -6.6210 C   0  0  0  0  0  0  0  0  0  0  0  0
   26.5685  -19.8432  -10.8769 C   0  0  0  0  0  0  0  0  0  0  0  0
   25.4634  -19.4699  -11.3360 O   0  0  0  0  0  0  0  0  0  0  0  0
   27.5182  -20.4819  -11.7158 N   0  0  0  0  0  0  0  0  0  0  0  0
   27.3011  -20.5898  -13.1848 C   0  0  1  0  0  0  0  0  0  0  0  0
   28.6246  -21.0715  -13.7069 C   0  0  0  0  0  0  0  0  0  0  0  0
   28.7431  -21.2208  -15.1740 C   0  0  0  0  0  0  0  0  0  0  0  0
   29.3189  -22.5419  -15.6167 C   0  0  0  0  0  0  0  0  0  0  0  0
   29.4544  -22.6164  -17.1295 C   0  0  0  0  0  0  0  0  0  0  0  0
   30.1429  -23.8688  -17.4128 N   0  0  0  0  0  0  0  0  0  0  0  0
   26.1587  -21.4659  -13.4455 C   0  0  0  0  0  0  0  0  0  0  0  0
   26.1444  -22.6090  -12.8513 O   0  0  0  0  0  0  0  0  0  0  0  0
   25.0706  -21.1554  -14.2941 N   0  0  0  0  0  0  0  0  0  0  0  0
   23.7960  -21.8724  -14.1386 C   0  0  1  0  0  0  0  0  0  0  0  0
   22.8874  -21.0872  -13.2415 C   0  0  0  0  0  0  0  0  0  0  0  0
   22.6557  -19.7431  -13.8051 C   0  0  0  0  0  0  0  0  0  0  0  0
   21.5559  -19.5857  -14.6388 C   0  0  0  0  0  0  0  0  0  0  0  0
   21.2561  -18.3523  -15.1809 C   0  0  0  0  0  0  0  0  0  0  0  0
   22.0643  -17.3068  -14.8751 C   0  0  0  0  0  0  0  0  0  0  0  0
   23.1676  -17.4423  -14.0435 C   0  0  0  0  0  0  0  0  0  0  0  0
   23.4638  -18.6714  -13.5056 C   0  0  0  0  0  0  0  0  0  0  0  0
   23.2136  -22.0694  -15.4673 C   0  0  0  0  0  0  0  0  0  0  0  0
   23.7737  -21.5199  -16.5926 O   0  0  0  0  0  0  0  0  0  0  0  0
   22.1649  -22.7593  -15.5978 O   0  0  0  0  0  0  0  0  0  0  0  0
  2  1  1  1
  3  2  1  0
  4  5  2  0
  4  3  1  0
  6  5  1  0
  7 12  2  0
  7  6  1  0
  8  7  1  0
  9 10  1  0
  9  8  2  0
 10 11  2  0
 11 12  1  0
 12  4  1  0
 13  2  1  0
 14 13  2  0
 15 13  1  0
 16 22  1  0
 16 15  1  0
 16 17  1  6
 18 17  1  0
 19 18  1  0
 20 19  1  0
 21 20  1  0
 22 23  2  0
 24 25  1  0
 24 22  1  0
 25 26  1  1
 25 33  1  0
 26 27  1  0
 27 28  2  0
 28 29  1  0
 30 29  2  0
 31 30  1  0
 32 27  1  0
 32 31  2  0
 33 35  2  0
 33 34  1  0
M  END
$$$$
