TGS.pdb
     RDKit          3D

 18 17  0  0  1  0  0  0  0  0999 V2000
   20.1622  -11.4631  -16.3414 C   0  0  0  0  0  0  0  0  0  0  0  0
   19.4652  -10.1487  -16.5730 C   0  0  1  0  0  0  0  0  0  0  0  0
   18.2064  -10.4372  -17.1206 O   0  0  0  0  0  0  0  0  0  0  0  0
   19.2162   -9.4225  -15.2752 C   0  0  2  0  0  0  0  0  0  0  0  0
   18.2193   -8.4113  -15.4469 N   0  0  0  0  0  0  0  0  0  0  0  0
   20.4671   -8.9025  -14.6663 C   0  0  0  0  0  0  0  0  0  0  0  0
   21.2897   -9.7097  -14.1954 O   0  0  0  0  0  0  0  0  0  0  0  0
   20.7652   -7.5022  -14.5997 N   0  0  0  0  0  0  0  0  0  0  0  0
   21.9395   -6.9865  -13.9482 C   0  0  0  0  0  0  0  0  0  0  0  0
   22.0394   -5.5079  -14.0345 C   0  0  0  0  0  0  0  0  0  0  0  0
   22.9418   -4.8302  -13.5065 O   0  0  0  0  0  0  0  0  0  0  0  0
   21.5571   -3.8623  -17.3281 O   0  0  0  0  0  0  0  0  0  0  0  0
   20.6764   -3.2089  -16.4919 C   0  0  0  0  0  0  0  0  0  0  0  0
   21.0473   -3.4069  -15.0224 C   0  0  2  0  0  0  0  0  0  0  0  0
   21.0294   -4.8337  -14.7734 N   0  0  0  0  0  0  0  0  0  0  0  0
   20.0323   -2.7114  -14.1889 C   0  0  0  0  0  0  0  0  0  0  0  0
   20.0189   -1.3308  -14.0650 O   0  0  0  0  0  0  0  0  0  0  0  0
   19.1530   -3.3624  -13.5698 O   0  0  0  0  0  0  0  0  0  0  0  0
  2  3  1  0
  2  1  1  1
  4  2  1  0
  4  5  1  6
  6  4  1  0
  7  6  2  0
  8  6  1  0
  9  8  1  0
 10  9  1  0
 10 15  1  0
 11 10  2  0
 12 13  1  0
 14 13  1  6
 14 15  1  0
 14 16  1  0
 16 18  2  0
 16 17  1  0
M  END
$$$$
