TGS.pdb
     RDKit          3D

 18 17  0  0  1  0  0  0  0  0999 V2000
   18.1772  -13.3227  -19.3207 C   0  0  0  0  0  0  0  0  0  0  0  0
   19.3056  -12.5596  -18.6795 C   0  0  1  0  0  0  0  0  0  0  0  0
   19.5142  -11.4041  -19.4470 O   0  0  0  0  0  0  0  0  0  0  0  0
   18.9377  -12.0967  -17.2923 C   0  0  2  0  0  0  0  0  0  0  0  0
   17.7162  -11.3531  -17.3166 N   0  0  0  0  0  0  0  0  0  0  0  0
   20.0453  -11.3660  -16.6252 C   0  0  0  0  0  0  0  0  0  0  0  0
   21.0819  -11.9861  -16.3237 O   0  0  0  0  0  0  0  0  0  0  0  0
   19.9668   -9.9692  -16.3137 N   0  0  0  0  0  0  0  0  0  0  0  0
   20.9760   -9.2838  -15.5515 C   0  0  0  0  0  0  0  0  0  0  0  0
   20.7023   -7.8311  -15.4149 C   0  0  0  0  0  0  0  0  0  0  0  0
   19.8619   -7.2056  -16.0893 O   0  0  0  0  0  0  0  0  0  0  0  0
   21.9626   -4.0373  -12.6020 O   0  0  0  0  0  0  0  0  0  0  0  0
   22.0235   -5.3821  -12.9014 C   0  0  0  0  0  0  0  0  0  0  0  0
   21.3276   -5.6933  -14.2262 C   0  0  2  0  0  0  0  0  0  0  0  0
   21.4587   -7.1191  -14.4445 N   0  0  0  0  0  0  0  0  0  0  0  0
   22.0109   -4.9281  -15.3015 C   0  0  0  0  0  0  0  0  0  0  0  0
   23.1427   -5.4194  -15.9334 O   0  0  0  0  0  0  0  0  0  0  0  0
   21.5767   -3.8069  -15.6684 O   0  0  0  0  0  0  0  0  0  0  0  0
  2  3  1  0
  2  1  1  6
  4  2  1  0
  4  5  1  6
  6  4  1  0
  7  6  2  0
  8  6  1  0
  9  8  1  0
 10  9  1  0
 10 15  1  0
 11 10  2  0
 12 13  1  0
 14 13  1  1
 14 15  1  0
 14 16  1  0
 16 18  2  0
 16 17  1  0
M  END
$$$$
