TGS.pdb
     RDKit          3D

 18 17  0  0  1  0  0  0  0  0999 V2000
   21.0034  -13.1115  -20.4351 C   0  0  0  0  0  0  0  0  0  0  0  0
   21.8526  -12.1514  -19.6452 C   0  0  1  0  0  0  0  0  0  0  0  0
   21.9453  -10.9677  -20.3921 O   0  0  0  0  0  0  0  0  0  0  0  0
   21.1979  -11.7869  -18.3366 C   0  0  2  0  0  0  0  0  0  0  0  0
   19.8716  -11.2985  -18.5556 N   0  0  0  0  0  0  0  0  0  0  0  0
   22.0278  -10.8601  -17.5253 C   0  0  0  0  0  0  0  0  0  0  0  0
   23.0835  -11.2824  -17.0182 O   0  0  0  0  0  0  0  0  0  0  0  0
   21.6590   -9.4932  -17.3026 N   0  0  0  0  0  0  0  0  0  0  0  0
   22.3700   -8.6332  -16.3947 C   0  0  0  0  0  0  0  0  0  0  0  0
   21.8788   -7.2327  -16.4295 C   0  0  0  0  0  0  0  0  0  0  0  0
   21.1219   -6.7726  -17.3057 O   0  0  0  0  0  0  0  0  0  0  0  0
   21.6611   -5.3054  -12.9490 O   0  0  0  0  0  0  0  0  0  0  0  0
   21.0565   -4.8049  -14.0829 C   0  0  0  0  0  0  0  0  0  0  0  0
   21.9488   -4.9694  -15.3128 C   0  0  2  0  0  0  0  0  0  0  0  0
   22.3102   -6.3701  -15.3852 N   0  0  0  0  0  0  0  0  0  0  0  0
   23.1548   -4.1205  -15.1294 C   0  0  0  0  0  0  0  0  0  0  0  0
   23.0872   -2.7382  -15.2100 O   0  0  0  0  0  0  0  0  0  0  0  0
   24.2760   -4.6381  -14.8944 O   0  0  0  0  0  0  0  0  0  0  0  0
  2  3  1  0
  2  1  1  6
  4  2  1  0
  4  5  1  6
  6  4  1  0
  7  6  2  0
  8  6  1  0
  9  8  1  0
 10  9  1  0
 10 15  1  0
 11 10  2  0
 12 13  1  0
 14 13  1  1
 14 15  1  0
 14 16  1  0
 16 18  2  0
 16 17  1  0
M  END
$$$$
