TGS.pdb
     RDKit          3D

 18 17  0  0  1  0  0  0  0  0999 V2000
   16.7297  -13.6044  -15.9230 C   0  0  0  0  0  0  0  0  0  0  0  0
   17.0525  -12.1530  -16.1605 C   0  0  1  0  0  0  0  0  0  0  0  0
   16.7880  -11.4680  -14.9653 O   0  0  0  0  0  0  0  0  0  0  0  0
   18.5181  -11.9570  -16.4561 C   0  0  2  0  0  0  0  0  0  0  0  0
   19.3205  -12.4758  -15.3919 N   0  0  0  0  0  0  0  0  0  0  0  0
   18.8460  -10.5481  -16.7925 C   0  0  0  0  0  0  0  0  0  0  0  0
   18.3544  -10.0426  -17.8186 O   0  0  0  0  0  0  0  0  0  0  0  0
   19.7097   -9.7446  -15.9786 N   0  0  0  0  0  0  0  0  0  0  0  0
   20.1629   -8.4390  -16.3778 C   0  0  0  0  0  0  0  0  0  0  0  0
   21.0270   -7.7958  -15.3563 C   0  0  0  0  0  0  0  0  0  0  0  0
   21.2132   -8.2422  -14.2080 O   0  0  0  0  0  0  0  0  0  0  0  0
   23.9209   -5.5264  -16.8998 O   0  0  0  0  0  0  0  0  0  0  0  0
   23.3916   -4.9204  -15.7799 C   0  0  0  0  0  0  0  0  0  0  0  0
   22.6587   -5.9258  -14.8922 C   0  0  2  0  0  0  0  0  0  0  0  0
   21.6798   -6.5891  -15.7286 N   0  0  0  0  0  0  0  0  0  0  0  0
   21.9954   -5.1781  -13.7923 C   0  0  0  0  0  0  0  0  0  0  0  0
   20.7585   -4.5771  -13.9676 O   0  0  0  0  0  0  0  0  0  0  0  0
   22.5431   -5.0707  -12.6660 O   0  0  0  0  0  0  0  0  0  0  0  0
  2  3  1  0
  2  1  1  1
  4  2  1  0
  4  5  1  1
  6  4  1  0
  7  6  2  0
  8  6  1  0
  9  8  1  0
 10  9  1  0
 10 15  1  0
 11 10  2  0
 12 13  1  0
 14 13  1  6
 14 15  1  0
 14 16  1  0
 16 18  2  0
 16 17  1  0
M  END
$$$$
