RTK.pdb
     RDKit          3D

 28 27  0  0  1  0  0  0  0  0999 V2000
   26.9185  -29.9802  -16.1368 N   0  0  0  0  0  0  0  0  0  0  0  0
   27.1282  -30.2792  -17.5156 C   0  0  0  0  0  0  0  0  0  0  0  0
   26.2115  -29.9794  -18.3507 N   0  0  0  0  0  0  0  0  0  0  0  0
   28.3140  -30.8968  -17.9850 N   0  0  0  0  0  0  0  0  0  0  0  0
   29.3581  -31.2150  -17.0367 C   0  0  0  0  0  0  0  0  0  0  0  0
   29.9584  -32.5622  -17.4557 C   0  0  0  0  0  0  0  0  0  0  0  0
   31.1057  -32.2125  -18.3901 C   0  0  0  0  0  0  0  0  0  0  0  0
   32.4355  -32.1611  -17.6687 C   0  0  2  0  0  0  0  0  0  0  0  0
   32.4539  -33.0794  -16.5703 N   0  0  0  0  0  0  0  0  0  0  0  0
   32.5894  -30.7414  -17.2044 C   0  0  0  0  0  0  0  0  0  0  0  0
   32.8005  -30.4604  -15.9998 O   0  0  0  0  0  0  0  0  0  0  0  0
   26.2156  -30.2557  -19.3561 C   0  0  0  0  0  0  0  0  0  0  0  0
   35.2324  -28.4641  -18.3808 C   0  0  2  0  0  0  0  0  0  0  0  0
   33.9185  -27.8053  -18.6911 O   0  0  0  0  0  0  0  0  0  0  0  0
   33.6255  -28.0602  -20.0227 C   0  0  2  0  0  0  0  0  0  0  0  0
   32.8139  -28.3476  -17.8204 N   0  0  0  0  0  0  0  0  0  0  0  0
   32.4894  -29.7227  -18.1683 C   0  0  0  0  0  0  0  0  0  0  0  0
   31.5911  -27.5523  -18.1083 O   0  0  0  0  0  0  0  0  0  0  0  0
   30.7545  -27.9057  -19.0112 N   0  0  0  0  0  0  0  0  0  0  0  0
   31.2512  -26.3565  -17.4200 C   0  0  1  0  0  0  0  0  0  0  0  0
   30.0816  -25.5872  -17.8034 C   0  0  0  0  0  0  0  0  0  0  0  0
   29.7859  -24.5399  -16.7536 C   0  0  0  0  0  0  0  0  0  0  0  0
   28.6124  -23.6928  -17.1475 C   0  0  0  0  0  0  0  0  0  0  0  0
   28.4222  -22.5349  -16.1961 C   0  0  0  0  0  0  0  0  0  0  0  0
   27.1895  -21.7217  -16.5045 N   0  0  0  0  0  0  0  0  0  0  0  0
   27.0627  -20.6012  -15.5913 C   0  0  0  0  0  0  0  0  0  0  0  0
   30.2890  -24.9418  -19.1229 O   0  0  0  0  0  0  0  0  0  0  0  0
   31.4335  -24.5477  -19.4233 O   0  0  0  0  0  0  0  0  0  0  0  0
  2  3  2  0
  2  1  1  0
  4  2  1  0
  5  4  1  0
  6  5  1  0
  7  8  1  0
  7  6  1  0
  8  9  1  1
 10  8  1  0
 10 11  2  0
 13 12  1  6
 13 15  1  0
 14 13  1  0
 15 16  1  1
 16 10  1  0
 17 15  1  0
 18 17  2  0
 19 17  1  0
 20 19  1  0
 20 26  1  0
 20 21  1  6
 22 21  1  0
 23 22  1  0
 24 23  1  0
 25 24  1  0
 26 28  1  0
 27 26  2  0
M  END
$$$$
