RTK.pdb
     RDKit          3D

 28 27  0  0  1  0  0  0  0  0999 V2000
   20.3430  -16.3264  -14.7147 N   0  0  0  0  0  0  0  0  0  0  0  0
   19.9047  -17.0443  -15.8667 C   0  0  0  0  0  0  0  0  0  0  0  0
   19.7853  -18.3119  -15.7861 N   0  0  0  0  0  0  0  0  0  0  0  0
   19.6016  -16.3992  -17.0914 N   0  0  0  0  0  0  0  0  0  0  0  0
   19.6588  -14.9558  -17.1533 C   0  0  0  0  0  0  0  0  0  0  0  0
   18.3645  -14.4218  -16.5283 C   0  0  0  0  0  0  0  0  0  0  0  0
   18.4585  -12.9093  -16.6514 C   0  0  0  0  0  0  0  0  0  0  0  0
   17.2799  -12.2089  -16.0098 C   0  0  2  0  0  0  0  0  0  0  0  0
   16.0441  -12.7478  -16.4921 N   0  0  0  0  0  0  0  0  0  0  0  0
   17.4271  -10.7582  -16.3682 C   0  0  0  0  0  0  0  0  0  0  0  0
   17.0849  -10.3182  -17.4924 O   0  0  0  0  0  0  0  0  0  0  0  0
   19.5203  -18.9315  -16.5816 C   0  0  0  0  0  0  0  0  0  0  0  0
   15.8022   -7.8196  -15.0864 C   0  0  2  0  0  0  0  0  0  0  0  0
   17.2606   -7.6345  -14.7777 O   0  0  0  0  0  0  0  0  0  0  0  0
   17.4620   -8.0150  -13.4591 C   0  0  2  0  0  0  0  0  0  0  0  0
   18.1238   -8.4770  -15.6817 N   0  0  0  0  0  0  0  0  0  0  0  0
   17.9655   -9.8953  -15.3974 C   0  0  0  0  0  0  0  0  0  0  0  0
   19.5410   -8.1522  -15.3710 O   0  0  0  0  0  0  0  0  0  0  0  0
   20.2682   -8.9255  -14.6546 N   0  0  0  0  0  0  0  0  0  0  0  0
   20.1984   -6.9803  -15.8335 C   0  0  1  0  0  0  0  0  0  0  0  0
   21.5690   -6.6979  -15.4482 C   0  0  0  0  0  0  0  0  0  0  0  0
   22.4224   -6.5049  -16.6814 C   0  0  0  0  0  0  0  0  0  0  0  0
   23.8649   -6.3120  -16.3183 C   0  0  0  0  0  0  0  0  0  0  0  0
   24.7420   -6.2594  -17.5471 C   0  0  0  0  0  0  0  0  0  0  0  0
   26.2136   -6.2595  -17.2150 N   0  0  0  0  0  0  0  0  0  0  0  0
   27.0199   -6.2418  -18.4213 C   0  0  0  0  0  0  0  0  0  0  0  0
   21.6331   -5.4898  -14.5898 O   0  0  0  0  0  0  0  0  0  0  0  0
   20.7872   -4.5892  -14.7596 O   0  0  0  0  0  0  0  0  0  0  0  0
  2  3  2  0
  2  1  1  0
  4  2  1  0
  5  4  1  0
  6  5  1  0
  7  8  1  0
  7  6  1  0
  8  9  1  6
 10  8  1  0
 10 11  2  0
 13 12  1  1
 13 15  1  0
 14 13  1  0
 15 16  1  6
 16 10  1  0
 17 15  1  0
 18 17  2  0
 19 17  1  0
 20 19  1  0
 20 26  1  0
 20 21  1  1
 22 21  1  0
 23 22  1  0
 24 23  1  0
 25 24  1  0
 26 28  1  0
 27 26  2  0
M  END
$$$$
