RTK.pdb
     RDKit          3D

 28 27  0  0  1  0  0  0  0  0999 V2000
   30.6428  -21.4021   -9.1235 N   0  0  0  0  0  0  0  0  0  0  0  0
   31.0673  -21.8417  -10.4123 C   0  0  0  0  0  0  0  0  0  0  0  0
   32.0845  -22.6076  -10.4908 N   0  0  0  0  0  0  0  0  0  0  0  0
   30.4009  -21.4558  -11.6018 N   0  0  0  0  0  0  0  0  0  0  0  0
   29.1645  -20.7130  -11.5001 C   0  0  0  0  0  0  0  0  0  0  0  0
   28.0162  -21.7166  -11.6580 C   0  0  0  0  0  0  0  0  0  0  0  0
   26.7913  -20.8724  -11.9722 C   0  0  0  0  0  0  0  0  0  0  0  0
   25.5380  -21.7108  -12.1060 C   0  0  2  0  0  0  0  0  0  0  0  0
   25.6917  -22.6947  -13.1347 N   0  0  0  0  0  0  0  0  0  0  0  0
   24.4361  -20.7428  -12.4277 C   0  0  0  0  0  0  0  0  0  0  0  0
   24.1000  -19.8360  -11.6281 O   0  0  0  0  0  0  0  0  0  0  0  0
   32.4634  -22.9964  -11.3809 C   0  0  0  0  0  0  0  0  0  0  0  0
   23.9242  -18.3679  -15.2988 C   0  0  2  0  0  0  0  0  0  0  0  0
   22.8088  -19.3737  -15.3291 O   0  0  0  0  0  0  0  0  0  0  0  0
   23.1284  -20.3260  -16.2858 C   0  0  2  0  0  0  0  0  0  0  0  0
   22.6383  -20.0440  -13.9897 N   0  0  0  0  0  0  0  0  0  0  0  0
   23.7829  -20.8817  -13.6650 C   0  0  0  0  0  0  0  0  0  0  0  0
   21.4750  -20.9635  -14.0987 O   0  0  0  0  0  0  0  0  0  0  0  0
   21.6235  -22.2126  -14.3390 N   0  0  0  0  0  0  0  0  0  0  0  0
   20.1255  -20.5449  -13.9475 C   0  0  1  0  0  0  0  0  0  0  0  0
   19.0342  -21.4889  -14.1053 C   0  0  0  0  0  0  0  0  0  0  0  0
   19.1902  -22.6269  -13.1220 C   0  0  0  0  0  0  0  0  0  0  0  0
   18.1821  -22.5302  -12.0156 C   0  0  0  0  0  0  0  0  0  0  0  0
   18.2576  -23.7239  -11.0929 C   0  0  0  0  0  0  0  0  0  0  0  0
   17.3250  -23.6100   -9.9125 N   0  0  0  0  0  0  0  0  0  0  0  0
   17.4424  -24.7652   -9.0424 C   0  0  0  0  0  0  0  0  0  0  0  0
   17.7273  -20.8166  -13.9036 O   0  0  0  0  0  0  0  0  0  0  0  0
   16.6827  -21.4803  -14.0568 O   0  0  0  0  0  0  0  0  0  0  0  0
  2  3  2  0
  2  1  1  0
  4  2  1  0
  5  4  1  0
  6  5  1  0
  7  8  1  0
  7  6  1  0
  8  9  1  6
 10  8  1  0
 10 11  2  0
 13 12  1  6
 13 15  1  0
 14 13  1  0
 15 16  1  1
 16 10  1  0
 17 15  1  0
 18 17  2  0
 19 17  1  0
 20 19  1  0
 20 26  1  0
 20 21  1  6
 22 21  1  0
 23 22  1  0
 24 23  1  0
 25 24  1  0
 26 28  1  0
 27 26  2  0
M  END
$$$$
