RTK.pdb
     RDKit          3D

 28 27  0  0  1  0  0  0  0  0999 V2000
   23.8817  -20.0375   -7.3338 N   0  0  0  0  0  0  0  0  0  0  0  0
   23.6752  -21.4478   -7.3869 C   0  0  0  0  0  0  0  0  0  0  0  0
   22.8245  -21.9696   -6.5921 N   0  0  0  0  0  0  0  0  0  0  0  0
   24.3817  -22.2835   -8.2870 N   0  0  0  0  0  0  0  0  0  0  0  0
   25.1107  -21.6762   -9.3780 C   0  0  0  0  0  0  0  0  0  0  0  0
   24.1402  -20.7408  -10.1089 C   0  0  0  0  0  0  0  0  0  0  0  0
   24.9278  -20.1951  -11.2894 C   0  0  0  0  0  0  0  0  0  0  0  0
   24.2935  -20.5557  -12.6158 C   0  0  2  0  0  0  0  0  0  0  0  0
   24.2335  -21.9766  -12.7812 N   0  0  0  0  0  0  0  0  0  0  0  0
   25.1553  -19.9134  -13.6644 C   0  0  0  0  0  0  0  0  0  0  0  0
   25.5140  -18.7139  -13.5798 O   0  0  0  0  0  0  0  0  0  0  0  0
   22.6180  -22.9901   -6.5358 C   0  0  0  0  0  0  0  0  0  0  0  0
   28.5095  -20.7409  -14.4140 C   0  0  2  0  0  0  0  0  0  0  0  0
   27.7935  -20.9266  -15.7215 O   0  0  0  0  0  0  0  0  0  0  0  0
   27.5500  -22.2832  -15.8776 C   0  0  2  0  0  0  0  0  0  0  0  0
   26.4867  -20.1755  -15.7426 N   0  0  0  0  0  0  0  0  0  0  0  0
   25.5546  -20.7026  -14.7573 C   0  0  0  0  0  0  0  0  0  0  0  0
   25.8593  -20.4141  -17.0693 O   0  0  0  0  0  0  0  0  0  0  0  0
   25.1468  -21.4527  -17.3008 N   0  0  0  0  0  0  0  0  0  0  0  0
   25.9921  -19.5280  -18.1723 C   0  0  1  0  0  0  0  0  0  0  0  0
   25.3035  -19.7918  -19.4225 C   0  0  0  0  0  0  0  0  0  0  0  0
   24.9641  -18.4884  -20.1097 C   0  0  0  0  0  0  0  0  0  0  0  0
   24.2457  -18.7285  -21.4043 C   0  0  0  0  0  0  0  0  0  0  0  0
   23.9271  -17.4308  -22.1088 C   0  0  0  0  0  0  0  0  0  0  0  0
   23.1376  -17.6335  -23.3782 N   0  0  0  0  0  0  0  0  0  0  0  0
   22.6536  -16.3684  -23.8984 C   0  0  0  0  0  0  0  0  0  0  0  0
   26.1390  -20.6348  -20.3124 O   0  0  0  0  0  0  0  0  0  0  0  0
   27.3743  -20.6441  -20.1418 O   0  0  0  0  0  0  0  0  0  0  0  0
  2  3  2  0
  2  1  1  0
  4  2  1  0
  5  4  1  0
  6  5  1  0
  7  8  1  0
  7  6  1  0
  8  9  1  6
 10  8  1  0
 10 11  2  0
 13 12  1  6
 13 15  1  0
 14 13  1  0
 15 16  1  6
 16 10  1  0
 17 15  1  0
 18 17  2  0
 19 17  1  0
 20 19  1  0
 20 26  1  0
 20 21  1  6
 22 21  1  0
 23 22  1  0
 24 23  1  0
 25 24  1  0
 26 28  1  0
 27 26  2  0
M  END
$$$$
