RTK.pdb
     RDKit          3D

 28 27  0  0  1  0  0  0  0  0999 V2000
   48.8621  -10.2949   -5.8998 N   0  0  0  0  0  0  0  0  0  0  0  0
   48.5545  -11.4509   -5.1230 C   0  0  0  0  0  0  0  0  0  0  0  0
   48.6649  -11.3797   -3.8540 N   0  0  0  0  0  0  0  0  0  0  0  0
   48.1348  -12.6696   -5.7117 N   0  0  0  0  0  0  0  0  0  0  0  0
   47.3472  -12.6249   -6.9235 C   0  0  0  0  0  0  0  0  0  0  0  0
   45.9073  -12.2886   -6.5183 C   0  0  0  0  0  0  0  0  0  0  0  0
   45.0920  -13.5158   -6.8939 C   0  0  0  0  0  0  0  0  0  0  0  0
   44.6432  -13.4839   -8.3393 C   0  0  2  0  0  0  0  0  0  0  0  0
   43.7030  -12.4262   -8.5565 N   0  0  0  0  0  0  0  0  0  0  0  0
   44.0314  -14.8296   -8.6029 C   0  0  0  0  0  0  0  0  0  0  0  0
   42.8111  -14.9598   -8.8646 O   0  0  0  0  0  0  0  0  0  0  0  0
   48.5267  -12.1827   -3.2035 C   0  0  0  0  0  0  0  0  0  0  0  0
   43.1923  -16.0748  -10.8513 C   0  0  2  0  0  0  0  0  0  0  0  0
   44.1101  -17.2122  -10.5040 O   0  0  0  0  0  0  0  0  0  0  0  0
   45.2908  -17.0289  -11.2087 C   0  0  2  0  0  0  0  0  0  0  0  0
   44.4064  -17.2462   -9.0264 N   0  0  0  0  0  0  0  0  0  0  0  0
   44.8738  -15.9540   -8.5481 C   0  0  0  0  0  0  0  0  0  0  0  0
   45.5354  -18.1919   -8.8221 O   0  0  0  0  0  0  0  0  0  0  0  0
   46.7490  -17.7885   -8.7567 N   0  0  0  0  0  0  0  0  0  0  0  0
   45.3689  -19.5963   -8.6831 C   0  0  1  0  0  0  0  0  0  0  0  0
   46.5188  -20.4665   -8.5172 C   0  0  0  0  0  0  0  0  0  0  0  0
   46.0787  -21.8034   -7.9646 C   0  0  0  0  0  0  0  0  0  0  0  0
   46.0252  -21.7800   -6.4658 C   0  0  0  0  0  0  0  0  0  0  0  0
   45.6026  -23.1182   -5.9067 C   0  0  0  0  0  0  0  0  0  0  0  0
   45.5853  -23.1422   -4.3984 N   0  0  0  0  0  0  0  0  0  0  0  0
   45.1801  -24.4443   -3.9026 C   0  0  0  0  0  0  0  0  0  0  0  0
   47.2226  -20.6558   -9.8092 O   0  0  0  0  0  0  0  0  0  0  0  0
   48.4073  -21.0453   -9.7942 O   0  0  0  0  0  0  0  0  0  0  0  0
  2  3  2  0
  2  1  1  0
  4  2  1  0
  5  4  1  0
  6  5  1  0
  7  8  1  0
  7  6  1  0
  8  9  1  1
 10  8  1  0
 10 11  2  0
 13 12  1  6
 13 15  1  0
 14 13  1  0
 15 16  1  1
 16 10  1  0
 17 15  1  0
 18 17  2  0
 19 17  1  0
 20 19  1  0
 20 26  1  0
 20 21  1  6
 22 21  1  0
 23 22  1  0
 24 23  1  0
 25 24  1  0
 26 28  1  0
 27 26  2  0
M  END
$$$$
