RTK.pdb
     RDKit          3D

 28 27  0  0  1  0  0  0  0  0999 V2000
   22.1929  -27.6007  -16.4832 N   0  0  0  0  0  0  0  0  0  0  0  0
   22.1297  -28.4632  -15.3489 C   0  0  0  0  0  0  0  0  0  0  0  0
   22.9975  -29.3921  -15.2402 N   0  0  0  0  0  0  0  0  0  0  0  0
   21.1388  -28.3239  -14.3456 N   0  0  0  0  0  0  0  0  0  0  0  0
   20.2156  -27.2140  -14.4252 C   0  0  0  0  0  0  0  0  0  0  0  0
   21.0516  -25.9346  -14.5483 C   0  0  0  0  0  0  0  0  0  0  0  0
   20.7985  -25.1691  -13.2592 C   0  0  0  0  0  0  0  0  0  0  0  0
   19.4888  -24.4106  -13.2923 C   0  0  2  0  0  0  0  0  0  0  0  0
   19.4522  -23.5074  -14.4026 N   0  0  0  0  0  0  0  0  0  0  0  0
   19.4112  -23.6798  -11.9829 C   0  0  0  0  0  0  0  0  0  0  0  0
   19.8789  -22.5238  -11.8437 O   0  0  0  0  0  0  0  0  0  0  0  0
   23.0244  -30.0866  -14.4632 C   0  0  0  0  0  0  0  0  0  0  0  0
   16.3388  -22.8987  -10.5083 C   0  0  2  0  0  0  0  0  0  0  0  0
   17.6163  -22.4648   -9.8477 O   0  0  0  0  0  0  0  0  0  0  0  0
   17.2877  -21.9243   -8.6132 C   0  0  1  0  0  0  0  0  0  0  0  0
   18.5557  -23.6276   -9.6536 N   0  0  0  0  0  0  0  0  0  0  0  0
   18.7923  -24.3343  -10.9034 C   0  0  0  0  0  0  0  0  0  0  0  0
   17.8789  -24.5995   -8.7547 O   0  0  0  0  0  0  0  0  0  0  0  0
   16.9629  -25.3866   -9.1808 N   0  0  0  0  0  0  0  0  0  0  0  0
   18.1842  -24.7373   -7.3737 C   0  0  1  0  0  0  0  0  0  0  0  0
   17.4911  -25.7152   -6.5551 C   0  0  0  0  0  0  0  0  0  0  0  0
   18.1907  -25.8615   -5.2226 C   0  0  0  0  0  0  0  0  0  0  0  0
   17.5630  -26.9443   -4.3961 C   0  0  0  0  0  0  0  0  0  0  0  0
   18.1796  -27.0164   -3.0189 C   0  0  0  0  0  0  0  0  0  0  0  0
   17.7309  -28.2284   -2.2405 N   0  0  0  0  0  0  0  0  0  0  0  0
   18.4350  -28.3250   -0.9754 C   0  0  0  0  0  0  0  0  0  0  0  0
   16.0775  -25.3165   -6.3475 O   0  0  0  0  0  0  0  0  0  0  0  0
   15.2047  -26.2062   -6.3037 O   0  0  0  0  0  0  0  0  0  0  0  0
  2  3  2  0
  2  1  1  0
  4  2  1  0
  5  4  1  0
  6  5  1  0
  7  8  1  0
  7  6  1  0
  8  9  1  6
 10  8  1  0
 10 11  2  0
 13 12  1  6
 13 15  1  0
 14 13  1  0
 15 16  1  6
 16 10  1  0
 17 15  1  0
 18 17  2  0
 19 17  1  0
 20 19  1  0
 20 26  1  0
 20 21  1  1
 22 21  1  0
 23 22  1  0
 24 23  1  0
 25 24  1  0
 26 28  1  0
 27 26  2  0
M  END
$$$$
