RTK.pdb
     RDKit          3D

 28 27  0  0  1  0  0  0  0  0999 V2000
   30.1563  -24.3009  -16.9315 N   0  0  0  0  0  0  0  0  0  0  0  0
   30.9690  -23.4977  -17.7851 C   0  0  0  0  0  0  0  0  0  0  0  0
   32.1363  -23.9157  -18.0858 N   0  0  0  0  0  0  0  0  0  0  0  0
   30.5255  -22.2564  -18.3053 N   0  0  0  0  0  0  0  0  0  0  0  0
   29.1618  -21.8435  -18.0594 C   0  0  0  0  0  0  0  0  0  0  0  0
   28.6731  -22.6020  -16.8198 C   0  0  0  0  0  0  0  0  0  0  0  0
   27.2725  -22.0720  -16.5564 C   0  0  0  0  0  0  0  0  0  0  0  0
   27.2199  -21.1763  -15.3372 C   0  0  2  0  0  0  0  0  0  0  0  0
   28.4765  -21.1770  -14.6510 N   0  0  0  0  0  0  0  0  0  0  0  0
   26.1202  -21.7283  -14.4766 C   0  0  0  0  0  0  0  0  0  0  0  0
   25.6664  -22.8856  -14.6476 O   0  0  0  0  0  0  0  0  0  0  0  0
   32.8401  -23.3652  -18.6230 C   0  0  0  0  0  0  0  0  0  0  0  0
   26.1549  -21.7164  -10.6744 C   0  0  2  0  0  0  0  0  0  0  0  0
   24.8819  -21.0604  -11.1281 O   0  0  0  0  0  0  0  0  0  0  0  0
   25.0477  -19.6892  -11.0002 C   0  0  2  0  0  0  0  0  0  0  0  0
   24.5728  -21.3978  -12.5644 N   0  0  0  0  0  0  0  0  0  0  0  0
   25.6065  -20.9028  -13.4610 C   0  0  0  0  0  0  0  0  0  0  0  0
   23.3286  -20.6719  -12.9327 O   0  0  0  0  0  0  0  0  0  0  0  0
   23.3519  -19.4578  -13.3394 N   0  0  0  0  0  0  0  0  0  0  0  0
   22.0324  -21.2509  -12.8679 C   0  0  1  0  0  0  0  0  0  0  0  0
   20.8510  -20.4583  -13.1555 C   0  0  0  0  0  0  0  0  0  0  0  0
   20.2882  -20.8419  -14.5055 C   0  0  0  0  0  0  0  0  0  0  0  0
   19.0755  -20.0252  -14.8399 C   0  0  0  0  0  0  0  0  0  0  0  0
   18.4261  -20.4979  -16.1193 C   0  0  0  0  0  0  0  0  0  0  0  0
   17.2339  -19.6615  -16.5131 N   0  0  0  0  0  0  0  0  0  0  0  0
   16.6495  -20.1384  -17.7527 C   0  0  0  0  0  0  0  0  0  0  0  0
   19.8238  -20.6487  -12.1023 O   0  0  0  0  0  0  0  0  0  0  0  0
   20.0069  -21.5308  -11.2400 O   0  0  0  0  0  0  0  0  0  0  0  0
  2  3  2  0
  2  1  1  0
  4  2  1  0
  5  4  1  0
  6  5  1  0
  7  8  1  0
  7  6  1  0
  8  9  1  1
 10  8  1  0
 10 11  2  0
 13 12  1  1
 13 15  1  0
 14 13  1  0
 15 16  1  1
 16 10  1  0
 17 15  1  0
 18 17  2  0
 19 17  1  0
 20 19  1  0
 20 26  1  0
 20 21  1  1
 22 21  1  0
 23 22  1  0
 24 23  1  0
 25 24  1  0
 26 28  1  0
 27 26  2  0
M  END
$$$$
