RTK.pdb
     RDKit          3D

 28 27  0  0  1  0  0  0  0  0999 V2000
   20.2048  -16.9488  -19.2022 N   0  0  0  0  0  0  0  0  0  0  0  0
   20.4808  -16.9893  -17.8034 C   0  0  0  0  0  0  0  0  0  0  0  0
   19.6607  -17.5963  -17.0375 N   0  0  0  0  0  0  0  0  0  0  0  0
   21.6285  -16.3786  -17.2397 N   0  0  0  0  0  0  0  0  0  0  0  0
   22.4998  -15.6052  -18.0962 C   0  0  0  0  0  0  0  0  0  0  0  0
   23.6296  -16.5348  -18.5547 C   0  0  0  0  0  0  0  0  0  0  0  0
   24.3228  -16.9781  -17.2761 C   0  0  0  0  0  0  0  0  0  0  0  0
   25.5288  -17.8502  -17.5523 C   0  0  2  0  0  0  0  0  0  0  0  0
   25.5386  -18.2876  -18.9156 N   0  0  0  0  0  0  0  0  0  0  0  0
   25.4178  -19.0072  -16.6017 C   0  0  0  0  0  0  0  0  0  0  0  0
   24.5441  -19.8966  -16.7440 O   0  0  0  0  0  0  0  0  0  0  0  0
   19.7733  -17.6858  -16.0049 C   0  0  0  0  0  0  0  0  0  0  0  0
   27.7432  -21.6086  -16.1125 C   0  0  2  0  0  0  0  0  0  0  0  0
   27.5991  -21.0067  -14.7437 O   0  0  0  0  0  0  0  0  0  0  0  0
   28.6897  -20.1757  -14.5338 C   0  0  2  0  0  0  0  0  0  0  0  0
   26.3272  -20.2060  -14.6278 N   0  0  0  0  0  0  0  0  0  0  0  0
   26.3310  -19.0678  -15.5344 C   0  0  0  0  0  0  0  0  0  0  0  0
   26.2849  -19.6366  -13.2550 O   0  0  0  0  0  0  0  0  0  0  0  0
   26.1048  -18.3855  -13.0496 N   0  0  0  0  0  0  0  0  0  0  0  0
   26.4363  -20.4155  -12.0761 C   0  0  1  0  0  0  0  0  0  0  0  0
   25.5808  -20.1922  -10.9249 C   0  0  0  0  0  0  0  0  0  0  0  0
   24.1431  -20.4921  -11.2846 C   0  0  0  0  0  0  0  0  0  0  0  0
   23.2419  -20.3334  -10.0961 C   0  0  0  0  0  0  0  0  0  0  0  0
   21.8052  -20.6415  -10.4465 C   0  0  0  0  0  0  0  0  0  0  0  0
   20.8496  -20.3298   -9.3216 N   0  0  0  0  0  0  0  0  0  0  0  0
   19.4923  -20.7046   -9.6721 C   0  0  0  0  0  0  0  0  0  0  0  0
   26.0078  -21.0382   -9.7836 O   0  0  0  0  0  0  0  0  0  0  0  0
   26.2722  -22.2386   -9.9941 O   0  0  0  0  0  0  0  0  0  0  0  0
  2  3  2  0
  2  1  1  0
  4  2  1  0
  5  4  1  0
  6  5  1  0
  7  8  1  0
  7  6  1  0
  8  9  1  6
 10  8  1  0
 10 11  2  0
 13 12  1  1
 13 15  1  0
 14 13  1  0
 15 16  1  1
 16 10  1  0
 17 15  1  0
 18 17  2  0
 19 17  1  0
 20 19  1  0
 20 26  1  0
 20 21  1  1
 22 21  1  0
 23 22  1  0
 24 23  1  0
 25 24  1  0
 26 28  1  0
 27 26  2  0
M  END
$$$$
