TCC.pdb
     RDKit          3D

 20 19  0  0  1  0  0  0  0  0999 V2000
   10.6859  -25.7022   28.7508 C   0  0  0  0  0  0  0  0  0  0  0  0
   11.8372  -24.8547   29.2998 C   0  0  1  0  0  0  0  0  0  0  0  0
   12.9267  -25.1085   28.4719 O   0  0  0  0  0  0  0  0  0  0  0  0
   11.4478  -23.3793   29.2826 C   0  0  2  0  0  0  0  0  0  0  0  0
   11.1630  -22.9127   27.9636 N   0  0  0  0  0  0  0  0  0  0  0  0
   12.6011  -22.6448   29.9003 C   0  0  0  0  0  0  0  0  0  0  0  0
   13.1843  -21.7121   29.2936 O   0  0  0  0  0  0  0  0  0  0  0  0
   13.0948  -22.9612   31.1976 N   0  0  0  0  0  0  0  0  0  0  0  0
   14.1838  -22.2549   31.8197 C   0  0  1  0  0  0  0  0  0  0  0  0
   13.7409  -20.9456   32.4397 C   0  0  0  0  0  0  0  0  0  0  0  0
   12.3691  -21.3163   33.5673 S   0  0  0  0  0  0  0  0  0  0  0  0
   14.9247  -23.1051   32.7893 C   0  0  0  0  0  0  0  0  0  0  0  0
   14.3708  -24.0991   33.3246 O   0  0  0  0  0  0  0  0  0  0  0  0
   16.2756  -22.8525   33.1631 N   0  0  0  0  0  0  0  0  0  0  0  0
   17.0233  -23.6767   34.0657 C   0  0  1  0  0  0  0  0  0  0  0  0
   18.5199  -23.4605   33.8663 C   0  0  0  0  0  0  0  0  0  0  0  0
   18.9137  -23.0590   32.1624 S   0  0  0  0  0  0  0  0  0  0  0  0
   16.6284  -23.5276   35.4669 C   0  0  0  0  0  0  0  0  0  0  0  0
   17.1507  -24.3376   36.4921 O   0  0  0  0  0  0  0  0  0  0  0  0
   15.7979  -22.6614   35.8186 O   0  0  0  0  0  0  0  0  0  0  0  0
  2  4  1  0
  2  3  1  0
  2  1  1  6
  4  5  1  6
  6  8  1  0
  6  4  1  0
  7  6  2  0
  9 12  1  0
  9 10  1  1
  9  8  1  0
 11 10  1  0
 12 14  1  0
 13 12  2  0
 14 15  1  0
 15 16  1  1
 16 17  1  0
 18 19  1  0
 18 15  1  0
 20 18  2  0
M  END
$$$$
