TCC.pdb
     RDKit          3D

 20 19  0  0  1  0  0  0  0  0999 V2000
    6.1594  -16.1856   20.8243 C   0  0  0  0  0  0  0  0  0  0  0  0
    6.9263  -15.7967   22.0915 C   0  0  1  0  0  0  0  0  0  0  0  0
    7.8555  -16.8111   22.3019 O   0  0  0  0  0  0  0  0  0  0  0  0
    7.6040  -14.4441   21.8918 C   0  0  2  0  0  0  0  0  0  0  0  0
    8.4767  -14.4406   20.7617 N   0  0  0  0  0  0  0  0  0  0  0  0
    8.3392  -14.1626   23.1690 C   0  0  0  0  0  0  0  0  0  0  0  0
    9.5802  -14.3348   23.2622 O   0  0  0  0  0  0  0  0  0  0  0  0
    7.6773  -13.6886   24.3369 N   0  0  0  0  0  0  0  0  0  0  0  0
    8.3411  -13.5128   25.6018 C   0  0  1  0  0  0  0  0  0  0  0  0
    7.5481  -12.6381   26.5511 C   0  0  0  0  0  0  0  0  0  0  0  0
    5.8212  -13.1889   26.4811 S   0  0  0  0  0  0  0  0  0  0  0  0
    8.7163  -14.8099   26.2252 C   0  0  0  0  0  0  0  0  0  0  0  0
    7.9268  -15.7883   26.1943 O   0  0  0  0  0  0  0  0  0  0  0  0
    9.9633  -15.0198   26.8804 N   0  0  0  0  0  0  0  0  0  0  0  0
   10.3247  -16.2389   27.5408 C   0  0  1  0  0  0  0  0  0  0  0  0
   11.6292  -16.7855   26.9702 C   0  0  0  0  0  0  0  0  0  0  0  0
   11.6181  -16.7975   25.1760 S   0  0  0  0  0  0  0  0  0  0  0  0
   10.3655  -16.1310   28.9997 C   0  0  0  0  0  0  0  0  0  0  0  0
   10.6696  -17.2236   29.8326 O   0  0  0  0  0  0  0  0  0  0  0  0
   10.1285  -15.0475   29.5772 O   0  0  0  0  0  0  0  0  0  0  0  0
  2  4  1  0
  2  3  1  0
  2  1  1  6
  4  5  1  6
  6  8  1  0
  6  4  1  0
  7  6  2  0
  9 12  1  0
  9 10  1  1
  9  8  1  0
 11 10  1  0
 12 14  1  0
 13 12  2  0
 14 15  1  0
 15 16  1  6
 16 17  1  0
 18 19  1  0
 18 15  1  0
 20 18  2  0
M  END
$$$$
