TCC.pdb
     RDKit          3D

 20 19  0  0  1  0  0  0  0  0999 V2000
    6.2911  -14.2901   19.0016 C   0  0  0  0  0  0  0  0  0  0  0  0
    7.0087  -14.4031   20.3497 C   0  0  1  0  0  0  0  0  0  0  0  0
    8.0457  -15.3106   20.1553 O   0  0  0  0  0  0  0  0  0  0  0  0
    7.5305  -13.0335   20.7749 C   0  0  2  0  0  0  0  0  0  0  0  0
    8.3940  -12.4580   19.7942 N   0  0  0  0  0  0  0  0  0  0  0  0
    8.2335  -13.2516   22.0823 C   0  0  0  0  0  0  0  0  0  0  0  0
    9.4808  -13.3900   22.1403 O   0  0  0  0  0  0  0  0  0  0  0  0
    7.5323  -13.3134   23.3197 N   0  0  0  0  0  0  0  0  0  0  0  0
    8.1541  -13.7003   24.5588 C   0  0  1  0  0  0  0  0  0  0  0  0
    7.3652  -13.2392   25.7671 C   0  0  0  0  0  0  0  0  0  0  0  0
    5.6057  -13.3458   25.3386 S   0  0  0  0  0  0  0  0  0  0  0  0
    8.4465  -15.1576   24.6104 C   0  0  0  0  0  0  0  0  0  0  0  0
    7.9134  -15.9480   23.7903 O   0  0  0  0  0  0  0  0  0  0  0  0
    9.3273  -15.7352   25.5690 N   0  0  0  0  0  0  0  0  0  0  0  0
   10.0032  -16.9849   25.3836 C   0  0  1  0  0  0  0  0  0  0  0  0
   11.0167  -16.8773   24.2489 C   0  0  0  0  0  0  0  0  0  0  0  0
   11.9052  -18.4163   24.0012 S   0  0  0  0  0  0  0  0  0  0  0  0
   10.6024  -17.5198   26.6068 C   0  0  0  0  0  0  0  0  0  0  0  0
   10.7572  -18.8997   26.8347 O   0  0  0  0  0  0  0  0  0  0  0  0
   11.0086  -16.7627   27.5154 O   0  0  0  0  0  0  0  0  0  0  0  0
  2  4  1  0
  2  3  1  0
  2  1  1  6
  4  5  1  6
  6  8  1  0
  6  4  1  0
  7  6  2  0
  9 12  1  0
  9 10  1  1
  9  8  1  0
 11 10  1  0
 12 14  1  0
 13 12  2  0
 14 15  1  0
 15 16  1  6
 16 17  1  0
 18 19  1  0
 18 15  1  0
 20 18  2  0
M  END
$$$$
