TCC.pdb
     RDKit          3D

 20 19  0  0  1  0  0  0  0  0999 V2000
    7.4782  -15.3854   16.2284 C   0  0  0  0  0  0  0  0  0  0  0  0
    8.1266  -15.3039   17.6133 C   0  0  1  0  0  0  0  0  0  0  0  0
    9.4805  -15.5589   17.4166 O   0  0  0  0  0  0  0  0  0  0  0  0
    7.8949  -13.9198   18.2128 C   0  0  2  0  0  0  0  0  0  0  0  0
    8.3861  -12.8782   17.3687 N   0  0  0  0  0  0  0  0  0  0  0  0
    8.5820  -13.9316   19.5465 C   0  0  0  0  0  0  0  0  0  0  0  0
    9.7148  -13.4120   19.7045 O   0  0  0  0  0  0  0  0  0  0  0  0
    7.9935  -14.5274   20.6979 N   0  0  0  0  0  0  0  0  0  0  0  0
    8.6691  -14.6281   21.9648 C   0  0  1  0  0  0  0  0  0  0  0  0
    7.7021  -14.7564   23.1239 C   0  0  0  0  0  0  0  0  0  0  0  0
    6.9778  -13.1180   23.4096 S   0  0  0  0  0  0  0  0  0  0  0  0
    9.6912  -15.7085   21.9729 C   0  0  0  0  0  0  0  0  0  0  0  0
    9.4256  -16.8459   21.5067 O   0  0  0  0  0  0  0  0  0  0  0  0
   11.0030  -15.5267   22.4967 N   0  0  0  0  0  0  0  0  0  0  0  0
   12.0268  -16.5282   22.4554 C   0  0  1  0  0  0  0  0  0  0  0  0
   13.3766  -15.8950   22.1339 C   0  0  0  0  0  0  0  0  0  0  0  0
   13.3039  -14.8888   20.6501 S   0  0  0  0  0  0  0  0  0  0  0  0
   12.0839  -17.3647   23.6548 C   0  0  0  0  0  0  0  0  0  0  0  0
   12.9636  -18.4561   23.7769 O   0  0  0  0  0  0  0  0  0  0  0  0
   11.3426  -17.1423   24.6370 O   0  0  0  0  0  0  0  0  0  0  0  0
  2  4  1  0
  2  3  1  0
  2  1  1  6
  4  5  1  6
  6  8  1  0
  6  4  1  0
  7  6  2  0
  9 12  1  0
  9 10  1  1
  9  8  1  0
 11 10  1  0
 12 14  1  0
 13 12  2  0
 14 15  1  0
 15 16  1  1
 16 17  1  0
 18 19  1  0
 18 15  1  0
 20 18  2  0
M  END
$$$$
