TCC.pdb
     RDKit          3D

 20 19  0  0  1  0  0  0  0  0999 V2000
    9.0387  -19.7485   18.7976 C   0  0  0  0  0  0  0  0  0  0  0  0
    9.8982  -19.1467   17.6822 C   0  0  1  0  0  0  0  0  0  0  0  0
    9.7106  -19.9648   16.5720 O   0  0  0  0  0  0  0  0  0  0  0  0
    9.4577  -17.7120   17.4060 C   0  0  2  0  0  0  0  0  0  0  0  0
   10.0993  -17.1638   16.2543 N   0  0  0  0  0  0  0  0  0  0  0  0
    9.7816  -16.9381   18.6499 C   0  0  0  0  0  0  0  0  0  0  0  0
   10.9671  -16.6578   18.9570 O   0  0  0  0  0  0  0  0  0  0  0  0
    8.7721  -16.4822   19.5442 N   0  0  0  0  0  0  0  0  0  0  0  0
    9.0530  -15.6814   20.7067 C   0  0  1  0  0  0  0  0  0  0  0  0
    7.8055  -15.0399   21.2787 C   0  0  0  0  0  0  0  0  0  0  0  0
    6.6945  -16.3786   21.7927 S   0  0  0  0  0  0  0  0  0  0  0  0
    9.8121  -16.4360   21.7394 C   0  0  0  0  0  0  0  0  0  0  0  0
    9.6431  -17.6739   21.8826 O   0  0  0  0  0  0  0  0  0  0  0  0
   10.7551  -15.8184   22.6098 N   0  0  0  0  0  0  0  0  0  0  0  0
   11.4362  -16.5042   23.6675 C   0  0  1  0  0  0  0  0  0  0  0  0
   12.8787  -16.0199   23.7720 C   0  0  0  0  0  0  0  0  0  0  0  0
   13.8026  -16.9399   25.0046 S   0  0  0  0  0  0  0  0  0  0  0  0
   10.7417  -16.4441   24.9542 C   0  0  0  0  0  0  0  0  0  0  0  0
   10.9684  -17.3777   25.9824 O   0  0  0  0  0  0  0  0  0  0  0  0
    9.9050  -15.5477   25.1988 O   0  0  0  0  0  0  0  0  0  0  0  0
  2  4  1  0
  2  3  1  0
  2  1  1  1
  4  5  1  6
  6  8  1  0
  6  4  1  0
  7  6  2  0
  9 12  1  0
  9 10  1  1
  9  8  1  0
 11 10  1  0
 12 14  1  0
 13 12  2  0
 14 15  1  0
 15 16  1  1
 16 17  1  0
 18 19  1  0
 18 15  1  0
 20 18  2  0
M  END
$$$$
