TCC.pdb
     RDKit          3D

 20 19  0  0  1  0  0  0  0  0999 V2000
    8.4977  -18.3443   20.9877 C   0  0  0  0  0  0  0  0  0  0  0  0
    8.9684  -17.6067   22.2445 C   0  0  1  0  0  0  0  0  0  0  0  0
    9.9522  -18.4103   22.8129 O   0  0  0  0  0  0  0  0  0  0  0  0
    9.5128  -16.2326   21.8649 C   0  0  2  0  0  0  0  0  0  0  0  0
   10.6476  -16.3222   21.0029 N   0  0  0  0  0  0  0  0  0  0  0  0
    9.8450  -15.5523   23.1602 C   0  0  0  0  0  0  0  0  0  0  0  0
   11.0326  -15.4354   23.5531 O   0  0  0  0  0  0  0  0  0  0  0  0
    8.8415  -15.0058   24.0094 N   0  0  0  0  0  0  0  0  0  0  0  0
    9.1195  -14.4808   25.3203 C   0  0  1  0  0  0  0  0  0  0  0  0
    8.0494  -13.5185   25.7936 C   0  0  0  0  0  0  0  0  0  0  0  0
    8.5218  -12.9554   27.4520 S   0  0  0  0  0  0  0  0  0  0  0  0
    9.3767  -15.5568   26.3143 C   0  0  0  0  0  0  0  0  0  0  0  0
    8.4911  -16.4093   26.5800 O   0  0  0  0  0  0  0  0  0  0  0  0
   10.6124  -15.6858   27.0106 N   0  0  0  0  0  0  0  0  0  0  0  0
   10.8738  -16.6921   27.9964 C   0  0  1  0  0  0  0  0  0  0  0  0
   12.3118  -17.1874   27.8813 C   0  0  0  0  0  0  0  0  0  0  0  0
   12.7906  -17.4513   26.1723 S   0  0  0  0  0  0  0  0  0  0  0  0
   10.5413  -16.2826   29.3614 C   0  0  0  0  0  0  0  0  0  0  0  0
   10.6295  -17.1591   30.4587 O   0  0  0  0  0  0  0  0  0  0  0  0
   10.1589  -15.1194   29.6151 O   0  0  0  0  0  0  0  0  0  0  0  0
  2  4  1  0
  2  3  1  0
  2  1  1  6
  4  5  1  6
  6  8  1  0
  6  4  1  0
  7  6  2  0
  9 12  1  0
  9 10  1  1
  9  8  1  0
 11 10  1  0
 12 14  1  0
 13 12  2  0
 14 15  1  0
 15 16  1  1
 16 17  1  0
 18 19  1  0
 18 15  1  0
 20 18  2  0
M  END
$$$$
