RFR.pdb
     RDKit          3D

 34 34  0  0  1  0  0  0  0  0999 V2000
   26.9148  -22.2038  -21.3937 N   0  0  0  0  0  0  0  0  0  0  0  0
   28.0209  -22.9134  -20.8380 C   0  0  0  0  0  0  0  0  0  0  0  0
   29.2229  -22.6344  -21.1678 N   0  0  0  0  0  0  0  0  0  0  0  0
   27.7955  -23.9637  -19.8884 N   0  0  0  0  0  0  0  0  0  0  0  0
   26.5132  -24.5154  -19.5804 C   0  0  0  0  0  0  0  0  0  0  0  0
   25.5825  -23.5590  -18.9229 C   0  0  0  0  0  0  0  0  0  0  0  0
   24.9800  -24.0054  -17.6253 C   0  0  0  0  0  0  0  0  0  0  0  0
   25.7643  -23.6444  -16.4300 C   0  0  2  0  0  0  0  0  0  0  0  0
   26.5257  -24.7855  -15.9813 N   0  0  0  0  0  0  0  0  0  0  0  0
   25.0007  -23.1108  -15.3022 C   0  0  0  0  0  0  0  0  0  0  0  0
   24.6178  -23.9305  -14.4144 O   0  0  0  0  0  0  0  0  0  0  0  0
   30.0769  -23.1072  -20.8527 N   0  0  0  0  0  0  0  0  0  0  0  0
   24.6921  -21.7192  -15.1946 C   0  0  2  0  0  0  0  0  0  0  0  0
   24.0103  -21.1623  -14.0760 C   0  0  0  0  0  0  0  0  0  0  0  0
   24.8617  -19.9733  -13.5999 C   0  0  0  0  0  0  0  0  0  0  0  0
   26.1167  -20.4499  -12.9686 C   0  0  0  0  0  0  0  0  0  0  0  0
   27.2736  -20.3548  -13.7013 C   0  0  0  0  0  0  0  0  0  0  0  0
   28.4795  -20.7826  -13.1672 C   0  0  0  0  0  0  0  0  0  0  0  0
   28.5522  -21.3116  -11.8971 C   0  0  0  0  0  0  0  0  0  0  0  0
   27.3879  -21.4037  -11.1687 C   0  0  0  0  0  0  0  0  0  0  0  0
   26.1764  -20.9698  -11.7149 C   0  0  0  0  0  0  0  0  0  0  0  0
   22.6427  -20.7028  -14.4009 O   0  0  0  0  0  0  0  0  0  0  0  0
   22.3420  -20.1579  -15.4958 N   0  0  0  0  0  0  0  0  0  0  0  0
   18.9407  -25.0555  -10.2024 C   0  0  0  0  0  0  0  0  0  0  0  0
   17.9162  -24.0880   -9.9950 N   0  0  0  0  0  0  0  0  0  0  0  0
   17.4222  -23.9602   -8.8134 N   0  0  0  0  0  0  0  0  0  0  0  0
   17.4462  -23.2713  -11.0798 C   0  0  0  0  0  0  0  0  0  0  0  0
   18.1948  -23.2885  -12.3011 C   0  0  0  0  0  0  0  0  0  0  0  0
   19.0711  -22.0336  -12.3095 C   0  0  0  0  0  0  0  0  0  0  0  0
   19.2856  -21.5529  -13.7178 C   0  0  1  0  0  0  0  0  0  0  0  0
   20.2321  -20.4094  -13.7422 N   0  0  0  0  0  0  0  0  0  0  0  0
   21.6133  -20.8750  -13.4487 C   0  0  0  0  0  0  0  0  0  0  0  0
   19.8802  -19.3033  -12.8578 O   0  0  0  0  0  0  0  0  0  0  0  0
   18.8560  -18.5880  -12.9358 O   0  0  0  0  0  0  0  0  0  0  0  0
  2  3  2  0
  2  1  1  0
  4  2  1  0
  5  4  1  0
  6  5  1  0
  6  7  1  0
  8  7  1  0
  8  9  1  1
 10 11  2  0
 10  8  1  0
 12 10  1  0
 13 12  1  0
 13 14  1  1
 15 16  2  0
 15 14  1  0
 17 16  1  0
 18 17  2  0
 19 18  1  0
 19 20  2  0
 20 15  1  0
 21 13  1  0
 21 31  1  0
 22 21  2  0
 23 24  1  0
 24 26  1  0
 24 25  2  0
 26 27  1  0
 27 28  1  0
 28 29  1  0
 30 29  1  6
 30 31  1  0
 30 32  1  0
 32 33  2  0
 32 34  1  0
M  END
$$$$
