RFR.pdb
     RDKit          3D

 34 34  0  0  1  0  0  0  0  0999 V2000
   28.4524  -17.9547  -19.1222 N   0  0  0  0  0  0  0  0  0  0  0  0
   27.4765  -17.3580  -18.2693 C   0  0  0  0  0  0  0  0  0  0  0  0
   26.5099  -16.6710  -18.7441 N   0  0  0  0  0  0  0  0  0  0  0  0
   27.5683  -17.5236  -16.8481 N   0  0  0  0  0  0  0  0  0  0  0  0
   28.5414  -18.3371  -16.1889 C   0  0  0  0  0  0  0  0  0  0  0  0
   28.0308  -19.6666  -15.7586 C   0  0  0  0  0  0  0  0  0  0  0  0
   27.0082  -19.6617  -14.6630 C   0  0  0  0  0  0  0  0  0  0  0  0
   27.4167  -20.3790  -13.4413 C   0  0  2  0  0  0  0  0  0  0  0  0
   28.3577  -21.4207  -13.7770 N   0  0  0  0  0  0  0  0  0  0  0  0
   26.3327  -20.9572  -12.6474 C   0  0  0  0  0  0  0  0  0  0  0  0
   26.1662  -22.2122  -12.7103 O   0  0  0  0  0  0  0  0  0  0  0  0
   25.7963  -16.1585  -18.2148 N   0  0  0  0  0  0  0  0  0  0  0  0
   25.4868  -20.1474  -11.8276 C   0  0  2  0  0  0  0  0  0  0  0  0
   24.3990  -20.6773  -11.0778 C   0  0  0  0  0  0  0  0  0  0  0  0
   24.2246  -19.7547   -9.8598 C   0  0  0  0  0  0  0  0  0  0  0  0
   25.3001  -19.9933   -8.8663 C   0  0  0  0  0  0  0  0  0  0  0  0
   26.2231  -18.9953   -8.6755 C   0  0  0  0  0  0  0  0  0  0  0  0
   27.2522  -19.1570   -7.7606 C   0  0  0  0  0  0  0  0  0  0  0  0
   27.3788  -20.3136   -7.0227 C   0  0  0  0  0  0  0  0  0  0  0  0
   26.4495  -21.3097   -7.2197 C   0  0  0  0  0  0  0  0  0  0  0  0
   25.4149  -21.1382   -8.1440 C   0  0  0  0  0  0  0  0  0  0  0  0
   23.1381  -20.7359  -11.8484 O   0  0  0  0  0  0  0  0  0  0  0  0
   22.8732  -19.9486  -12.7951 N   0  0  0  0  0  0  0  0  0  0  0  0
   17.5144  -27.2803  -13.1475 C   0  0  0  0  0  0  0  0  0  0  0  0
   18.2702  -26.6102  -14.1518 N   0  0  0  0  0  0  0  0  0  0  0  0
   18.5379  -27.2400  -15.2418 N   0  0  0  0  0  0  0  0  0  0  0  0
   18.7220  -25.2606  -13.9535 C   0  0  0  0  0  0  0  0  0  0  0  0
   18.4353  -24.6390  -12.6951 C   0  0  0  0  0  0  0  0  0  0  0  0
   18.9445  -23.1980  -12.7787 C   0  0  0  0  0  0  0  0  0  0  0  0
   20.1414  -23.0119  -11.8880 C   0  0  2  0  0  0  0  0  0  0  0  0
   20.8915  -21.7885  -12.2678 N   0  0  0  0  0  0  0  0  0  0  0  0
   22.1741  -21.7149  -11.5193 C   0  0  0  0  0  0  0  0  0  0  0  0
   20.1503  -20.5413  -12.1106 O   0  0  0  0  0  0  0  0  0  0  0  0
   19.4725  -19.9650  -12.9912 O   0  0  0  0  0  0  0  0  0  0  0  0
  2  3  2  0
  2  1  1  0
  4  2  1  0
  5  4  1  0
  6  5  1  0
  6  7  1  0
  8  7  1  0
  8  9  1  6
 10 11  2  0
 10  8  1  0
 12 10  1  0
 13 12  1  0
 13 14  1  6
 15 16  2  0
 15 14  1  0
 17 16  1  0
 18 17  2  0
 19 18  1  0
 19 20  2  0
 20 15  1  0
 21 13  1  0
 21 31  1  0
 22 21  2  0
 23 24  1  0
 24 26  1  0
 24 25  2  0
 26 27  1  0
 27 28  1  0
 28 29  1  0
 30 29  1  6
 30 31  1  0
 30 32  1  0
 32 33  2  0
 32 34  1  0
M  END
$$$$
