RFR.pdb
     RDKit          3D

 34 34  0  0  1  0  0  0  0  0999 V2000
   16.8923  -12.2605    2.8907 N   0  0  0  0  0  0  0  0  0  0  0  0
   15.5721  -11.7368    2.7549 C   0  0  0  0  0  0  0  0  0  0  0  0
   15.2271  -11.0626    1.7263 N   0  0  0  0  0  0  0  0  0  0  0  0
   14.6009  -11.9632    3.7850 N   0  0  0  0  0  0  0  0  0  0  0  0
   14.8137  -12.7912    4.9307 C   0  0  0  0  0  0  0  0  0  0  0  0
   14.5119  -14.2303    4.7045 C   0  0  0  0  0  0  0  0  0  0  0  0
   14.5835  -15.1203    5.9082 C   0  0  0  0  0  0  0  0  0  0  0  0
   14.3732  -16.5518    5.6244 C   0  0  2  0  0  0  0  0  0  0  0  0
   13.0506  -16.9455    6.0476 N   0  0  0  0  0  0  0  0  0  0  0  0
   15.3508  -17.4693    6.2093 C   0  0  0  0  0  0  0  0  0  0  0  0
   15.2939  -17.6657    7.4603 O   0  0  0  0  0  0  0  0  0  0  0  0
   14.3196  -10.6164    1.5544 N   0  0  0  0  0  0  0  0  0  0  0  0
   16.3377  -18.1257    5.4101 C   0  0  2  0  0  0  0  0  0  0  0  0
   17.4457  -18.8238    5.9681 C   0  0  0  0  0  0  0  0  0  0  0  0
   17.8672  -19.8700    4.9226 C   0  0  0  0  0  0  0  0  0  0  0  0
   19.0064  -20.6779    5.4228 C   0  0  0  0  0  0  0  0  0  0  0  0
   18.7164  -21.7984    6.1608 C   0  0  0  0  0  0  0  0  0  0  0  0
   19.7368  -22.5958    6.6561 C   0  0  0  0  0  0  0  0  0  0  0  0
   21.0603  -22.2900    6.4254 C   0  0  0  0  0  0  0  0  0  0  0  0
   21.3429  -21.1648    5.6847 C   0  0  0  0  0  0  0  0  0  0  0  0
   20.3079  -20.3666    5.1888 C   0  0  0  0  0  0  0  0  0  0  0  0
   18.5885  -17.9397    6.2832 O   0  0  0  0  0  0  0  0  0  0  0  0
   19.0371  -17.0816    5.4778 N   0  0  0  0  0  0  0  0  0  0  0  0
   21.9869  -11.7814    7.4847 C   0  0  0  0  0  0  0  0  0  0  0  0
   20.6200  -12.1777    7.4280 N   0  0  0  0  0  0  0  0  0  0  0  0
   19.8512  -11.6104    6.5657 N   0  0  0  0  0  0  0  0  0  0  0  0
   20.1110  -13.1897    8.3120 C   0  0  0  0  0  0  0  0  0  0  0  0
   21.0255  -13.7882    9.2382 C   0  0  0  0  0  0  0  0  0  0  0  0
   21.3768  -15.1741    8.6917 C   0  0  0  0  0  0  0  0  0  0  0  0
   20.1269  -15.9300    8.3355 C   0  0  1  0  0  0  0  0  0  0  0  0
   20.4608  -17.2860    7.8319 N   0  0  0  0  0  0  0  0  0  0  0  0
   19.2188  -18.0506    7.5428 C   0  0  0  0  0  0  0  0  0  0  0  0
   21.3350  -18.0654    8.7025 O   0  0  0  0  0  0  0  0  0  0  0  0
   21.0264  -19.1082    9.3223 O   0  0  0  0  0  0  0  0  0  0  0  0
  2  3  2  0
  2  1  1  0
  4  2  1  0
  5  4  1  0
  6  5  1  0
  6  7  1  0
  8  7  1  0
  8  9  1  1
 10 11  2  0
 10  8  1  0
 12 10  1  0
 13 12  1  0
 13 14  1  6
 15 16  2  0
 15 14  1  0
 17 16  1  0
 18 17  2  0
 19 18  1  0
 19 20  2  0
 20 15  1  0
 21 13  1  0
 21 31  1  0
 22 21  2  0
 23 24  1  0
 24 26  1  0
 24 25  2  0
 26 27  1  0
 27 28  1  0
 28 29  1  0
 30 29  1  6
 30 31  1  0
 30 32  1  0
 32 33  2  0
 32 34  1  0
M  END
$$$$
