RFR.pdb
     RDKit          3D

 34 34  0  0  1  0  0  0  0  0999 V2000
   30.6539  -21.6358  -19.6314 N   0  0  0  0  0  0  0  0  0  0  0  0
   30.7416  -22.5493  -18.5388 C   0  0  0  0  0  0  0  0  0  0  0  0
   31.7759  -23.2778  -18.3629 N   0  0  0  0  0  0  0  0  0  0  0  0
   29.6551  -22.6635  -17.6102 N   0  0  0  0  0  0  0  0  0  0  0  0
   28.2730  -22.6403  -17.9743 C   0  0  0  0  0  0  0  0  0  0  0  0
   27.6121  -21.3237  -17.7664 C   0  0  0  0  0  0  0  0  0  0  0  0
   26.9788  -21.1036  -16.4260 C   0  0  0  0  0  0  0  0  0  0  0  0
   26.6498  -22.3405  -15.6940 C   0  0  2  0  0  0  0  0  0  0  0  0
   25.8265  -23.1927  -16.5184 N   0  0  0  0  0  0  0  0  0  0  0  0
   25.9968  -22.1610  -14.3975 C   0  0  0  0  0  0  0  0  0  0  0  0
   24.7920  -22.5406  -14.2913 O   0  0  0  0  0  0  0  0  0  0  0  0
   31.9189  -23.9837  -17.6326 N   0  0  0  0  0  0  0  0  0  0  0  0
   26.6815  -21.5808  -13.2849 C   0  0  1  0  0  0  0  0  0  0  0  0
   26.0589  -21.3570  -12.0245 C   0  0  0  0  0  0  0  0  0  0  0  0
   27.1851  -20.9781  -11.0482 C   0  0  0  0  0  0  0  0  0  0  0  0
   26.6315  -20.6727   -9.7062 C   0  0  0  0  0  0  0  0  0  0  0  0
   26.5718  -19.3547   -9.3273 C   0  0  0  0  0  0  0  0  0  0  0  0
   26.0643  -19.0039   -8.0856 C   0  0  0  0  0  0  0  0  0  0  0  0
   25.6093  -19.9587   -7.2026 C   0  0  0  0  0  0  0  0  0  0  0  0
   25.6725  -21.2781   -7.5899 C   0  0  0  0  0  0  0  0  0  0  0  0
   26.1855  -21.6229   -8.8437 C   0  0  0  0  0  0  0  0  0  0  0  0
   25.0439  -20.2822  -12.0623 O   0  0  0  0  0  0  0  0  0  0  0  0
   25.2666  -19.1424  -12.5496 N   0  0  0  0  0  0  0  0  0  0  0  0
   18.4975  -18.8176  -15.2453 C   0  0  0  0  0  0  0  0  0  0  0  0
   19.3571  -18.0286  -16.0622 N   0  0  0  0  0  0  0  0  0  0  0  0
   18.8680  -16.9908  -16.6456 N   0  0  0  0  0  0  0  0  0  0  0  0
   20.7398  -18.3819  -16.2297 C   0  0  0  0  0  0  0  0  0  0  0  0
   21.1926  -19.6050  -15.6371 C   0  0  0  0  0  0  0  0  0  0  0  0
   21.2757  -19.3697  -14.1270 C   0  0  0  0  0  0  0  0  0  0  0  0
   22.5048  -20.0248  -13.5607 C   0  0  1  0  0  0  0  0  0  0  0  0
   22.5676  -19.8367  -12.0895 N   0  0  0  0  0  0  0  0  0  0  0  0
   23.7586  -20.5289  -11.5299 C   0  0  0  0  0  0  0  0  0  0  0  0
   21.3676  -20.2465  -11.3671 O   0  0  0  0  0  0  0  0  0  0  0  0
   21.2051  -21.3227  -10.7489 O   0  0  0  0  0  0  0  0  0  0  0  0
  2  3  2  0
  2  1  1  0
  4  2  1  0
  5  4  1  0
  6  5  1  0
  6  7  1  0
  8  7  1  0
  8  9  1  6
 10 11  2  0
 10  8  1  0
 12 10  1  0
 13 12  1  0
 13 14  1  6
 15 16  2  0
 15 14  1  0
 17 16  1  0
 18 17  2  0
 19 18  1  0
 19 20  2  0
 20 15  1  0
 21 13  1  0
 21 31  1  0
 22 21  2  0
 23 24  1  0
 24 26  1  0
 24 25  2  0
 26 27  1  0
 27 28  1  0
 28 29  1  0
 30 29  1  6
 30 31  1  0
 30 32  1  0
 32 33  2  0
 32 34  1  0
M  END
$$$$
