RFR.pdb
     RDKit          3D

 34 34  0  0  1  0  0  0  0  0999 V2000
   28.4588  -18.0841  -20.7613 N   0  0  0  0  0  0  0  0  0  0  0  0
   29.3476  -19.1032  -21.2167 C   0  0  0  0  0  0  0  0  0  0  0  0
   30.5177  -18.8219  -21.6447 N   0  0  0  0  0  0  0  0  0  0  0  0
   28.9341  -20.4759  -21.1996 N   0  0  0  0  0  0  0  0  0  0  0  0
   27.8986  -20.9993  -20.3647 C   0  0  0  0  0  0  0  0  0  0  0  0
   27.3894  -20.0357  -19.3521 C   0  0  0  0  0  0  0  0  0  0  0  0
   26.8102  -20.6293  -18.1038 C   0  0  0  0  0  0  0  0  0  0  0  0
   27.7979  -21.2671  -17.2140 C   0  0  2  0  0  0  0  0  0  0  0  0
   28.2710  -22.4945  -17.8081 N   0  0  0  0  0  0  0  0  0  0  0  0
   27.3448  -21.5440  -15.8510 C   0  0  0  0  0  0  0  0  0  0  0  0
   26.7328  -22.6354  -15.6480 O   0  0  0  0  0  0  0  0  0  0  0  0
   31.2080  -19.4737  -22.0331 N   0  0  0  0  0  0  0  0  0  0  0  0
   27.5778  -20.6260  -14.7803 C   0  0  1  0  0  0  0  0  0  0  0  0
   27.1302  -20.8602  -13.4495 C   0  0  0  0  0  0  0  0  0  0  0  0
   27.9633  -19.9362  -12.5453 C   0  0  0  0  0  0  0  0  0  0  0  0
   27.6001  -20.1344  -11.1207 C   0  0  0  0  0  0  0  0  0  0  0  0
   26.6670  -19.2865  -10.5780 C   0  0  0  0  0  0  0  0  0  0  0  0
   26.2845  -19.4203   -9.2521 C   0  0  0  0  0  0  0  0  0  0  0  0
   26.8249  -20.3987   -8.4464 C   0  0  0  0  0  0  0  0  0  0  0  0
   27.7600  -21.2450   -8.9979 C   0  0  0  0  0  0  0  0  0  0  0  0
   28.1397  -21.1031  -10.3358 C   0  0  0  0  0  0  0  0  0  0  0  0
   25.6902  -20.5790  -13.2645 O   0  0  0  0  0  0  0  0  0  0  0  0
   25.1415  -19.5143  -13.6538 N   0  0  0  0  0  0  0  0  0  0  0  0
   18.0326  -21.0990  -12.3096 C   0  0  0  0  0  0  0  0  0  0  0  0
   18.1837  -21.7033  -13.5905 N   0  0  0  0  0  0  0  0  0  0  0  0
   17.1955  -22.3702  -14.0754 N   0  0  0  0  0  0  0  0  0  0  0  0
   19.4109  -21.5697  -14.3258 C   0  0  0  0  0  0  0  0  0  0  0  0
   20.5419  -21.0169  -13.6421 C   0  0  0  0  0  0  0  0  0  0  0  0
   21.1584  -22.1430  -12.8087 C   0  0  0  0  0  0  0  0  0  0  0  0
   22.6175  -22.2997  -13.1361 C   0  0  1  0  0  0  0  0  0  0  0  0
   23.4270  -21.2825  -12.4194 N   0  0  0  0  0  0  0  0  0  0  0  0
   24.8774  -21.5395  -12.6218 C   0  0  0  0  0  0  0  0  0  0  0  0
   23.1363  -21.1603  -10.9945 O   0  0  0  0  0  0  0  0  0  0  0  0
   23.7241  -21.7559  -10.0637 O   0  0  0  0  0  0  0  0  0  0  0  0
  2  3  2  0
  2  1  1  0
  4  2  1  0
  5  4  1  0
  6  5  1  0
  6  7  1  0
  8  7  1  0
  8  9  1  6
 10 11  2  0
 10  8  1  0
 12 10  1  0
 13 12  1  0
 13 14  1  6
 15 16  2  0
 15 14  1  0
 17 16  1  0
 18 17  2  0
 19 18  1  0
 19 20  2  0
 20 15  1  0
 21 13  1  0
 21 31  1  0
 22 21  2  0
 23 24  1  0
 24 26  1  0
 24 25  2  0
 26 27  1  0
 27 28  1  0
 28 29  1  0
 30 29  1  6
 30 31  1  0
 30 32  1  0
 32 33  2  0
 32 34  1  0
M  END
$$$$
