RFR.pdb
     RDKit          3D

 34 34  0  0  1  0  0  0  0  0999 V2000
   28.3598  -24.5430  -16.7127 N   0  0  0  0  0  0  0  0  0  0  0  0
   29.0550  -23.7822  -17.6993 C   0  0  0  0  0  0  0  0  0  0  0  0
   30.2871  -23.4767  -17.5567 N   0  0  0  0  0  0  0  0  0  0  0  0
   28.3712  -23.3442  -18.8810 N   0  0  0  0  0  0  0  0  0  0  0  0
   26.9939  -23.6034  -19.1625 C   0  0  0  0  0  0  0  0  0  0  0  0
   26.0522  -22.6478  -18.5194 C   0  0  0  0  0  0  0  0  0  0  0  0
   25.7059  -22.9202  -17.0869 C   0  0  0  0  0  0  0  0  0  0  0  0
   24.9023  -21.8665  -16.4405 C   0  0  2  0  0  0  0  0  0  0  0  0
   25.7564  -20.7709  -16.0486 N   0  0  0  0  0  0  0  0  0  0  0  0
   24.1094  -22.2861  -15.2852 C   0  0  0  0  0  0  0  0  0  0  0  0
   23.8385  -23.5198  -15.1781 O   0  0  0  0  0  0  0  0  0  0  0  0
   30.8561  -22.8929  -18.1792 N   0  0  0  0  0  0  0  0  0  0  0  0
   23.6519  -21.3493  -14.3072 C   0  0  1  0  0  0  0  0  0  0  0  0
   22.8039  -21.7143  -13.2237 C   0  0  0  0  0  0  0  0  0  0  0  0
   23.0726  -20.6954  -12.1034 C   0  0  0  0  0  0  0  0  0  0  0  0
   21.9649  -19.7127  -12.0151 C   0  0  0  0  0  0  0  0  0  0  0  0
   21.8174  -18.8251  -13.0518 C   0  0  0  0  0  0  0  0  0  0  0  0
   20.8011  -17.8824  -13.0291 C   0  0  0  0  0  0  0  0  0  0  0  0
   19.9171  -17.8081  -11.9749 C   0  0  0  0  0  0  0  0  0  0  0  0
   20.0715  -18.7015  -10.9392 C   0  0  0  0  0  0  0  0  0  0  0  0
   21.0989  -19.6489  -10.9703 C   0  0  0  0  0  0  0  0  0  0  0  0
   21.3690  -21.7013  -13.5810 O   0  0  0  0  0  0  0  0  0  0  0  0
   20.8471  -20.8086  -14.3001 N   0  0  0  0  0  0  0  0  0  0  0  0
   16.2114  -26.4374   -9.0249 C   0  0  0  0  0  0  0  0  0  0  0  0
   15.7357  -25.4154   -9.8954 N   0  0  0  0  0  0  0  0  0  0  0  0
   14.4671  -25.3131  -10.0870 N   0  0  0  0  0  0  0  0  0  0  0  0
   16.6512  -24.5171  -10.5433 C   0  0  0  0  0  0  0  0  0  0  0  0
   18.0456  -24.6562  -10.2460 C   0  0  0  0  0  0  0  0  0  0  0  0
   18.7909  -23.6176  -11.0879 C   0  0  0  0  0  0  0  0  0  0  0  0
   18.3698  -23.7097  -12.5283 C   0  0  1  0  0  0  0  0  0  0  0  0
   19.0636  -22.6811  -13.3433 N   0  0  0  0  0  0  0  0  0  0  0  0
   20.5297  -22.7313  -13.1006 C   0  0  0  0  0  0  0  0  0  0  0  0
   18.5739  -21.3189  -13.1579 O   0  0  0  0  0  0  0  0  0  0  0  0
   19.1541  -20.4001  -12.5368 O   0  0  0  0  0  0  0  0  0  0  0  0
  2  3  2  0
  2  1  1  0
  4  2  1  0
  5  4  1  0
  6  5  1  0
  6  7  1  0
  8  7  1  0
  8  9  1  1
 10 11  2  0
 10  8  1  0
 12 10  1  0
 13 12  1  0
 13 14  1  1
 15 16  2  0
 15 14  1  0
 17 16  1  0
 18 17  2  0
 19 18  1  0
 19 20  2  0
 20 15  1  0
 21 13  1  0
 21 31  1  0
 22 21  2  0
 23 24  1  0
 24 26  1  0
 24 25  2  0
 26 27  1  0
 27 28  1  0
 28 29  1  0
 30 29  1  6
 30 31  1  0
 30 32  1  0
 32 33  2  0
 32 34  1  0
M  END
$$$$
