RFR.pdb
     RDKit          3D

 34 34  0  0  1  0  0  0  0  0999 V2000
   19.5605  -24.2589  -12.5278 N   0  0  0  0  0  0  0  0  0  0  0  0
   18.6020  -24.7043  -11.5693 C   0  0  0  0  0  0  0  0  0  0  0  0
   17.3861  -24.3155  -11.6152 N   0  0  0  0  0  0  0  0  0  0  0  0
   18.9955  -25.6069  -10.5272 N   0  0  0  0  0  0  0  0  0  0  0  0
   20.2583  -26.2742  -10.4680 C   0  0  0  0  0  0  0  0  0  0  0  0
   20.3179  -27.5329  -11.2589 C   0  0  0  0  0  0  0  0  0  0  0  0
   20.2475  -28.8105  -10.4787 C   0  0  0  0  0  0  0  0  0  0  0  0
   21.4059  -29.7041  -10.6618 C   0  0  2  0  0  0  0  0  0  0  0  0
   21.3653  -30.2945  -11.9783 N   0  0  0  0  0  0  0  0  0  0  0  0
   21.5549  -30.7683   -9.6693 C   0  0  0  0  0  0  0  0  0  0  0  0
   20.9659  -31.8675   -9.8968 O   0  0  0  0  0  0  0  0  0  0  0  0
   16.6450  -24.5196  -10.9361 N   0  0  0  0  0  0  0  0  0  0  0  0
   22.3330  -30.5872   -8.4840 C   0  0  1  0  0  0  0  0  0  0  0  0
   22.4336  -31.5770   -7.4659 C   0  0  0  0  0  0  0  0  0  0  0  0
   23.9230  -31.6618   -7.0922 C   0  0  0  0  0  0  0  0  0  0  0  0
   24.6693  -32.4554   -8.0991 C   0  0  0  0  0  0  0  0  0  0  0  0
   25.2490  -31.7768   -9.1420 C   0  0  0  0  0  0  0  0  0  0  0  0
   25.9605  -32.4613  -10.1154 C   0  0  0  0  0  0  0  0  0  0  0  0
   26.1053  -33.8306  -10.0661 C   0  0  0  0  0  0  0  0  0  0  0  0
   25.5211  -34.5039   -9.0174 C   0  0  0  0  0  0  0  0  0  0  0  0
   24.8056  -33.8058   -8.0402 C   0  0  0  0  0  0  0  0  0  0  0  0
   21.6317  -31.2570   -6.2653 O   0  0  0  0  0  0  0  0  0  0  0  0
   21.2058  -30.0993   -6.0109 N   0  0  0  0  0  0  0  0  0  0  0  0
   17.3152  -26.6321   -4.1240 C   0  0  0  0  0  0  0  0  0  0  0  0
   17.7390  -27.1531   -5.3800 N   0  0  0  0  0  0  0  0  0  0  0  0
   18.0263  -26.3255   -6.3229 N   0  0  0  0  0  0  0  0  0  0  0  0
   17.8455  -28.5707   -5.5893 C   0  0  0  0  0  0  0  0  0  0  0  0
   17.6436  -29.4290   -4.4603 C   0  0  0  0  0  0  0  0  0  0  0  0
   19.0087  -30.0138   -4.0898 C   0  0  0  0  0  0  0  0  0  0  0  0
   19.1573  -31.3988   -4.6556 C   0  0  2  0  0  0  0  0  0  0  0  0
   20.4242  -32.0198   -4.1938 N   0  0  0  0  0  0  0  0  0  0  0  0
   21.3206  -32.2869   -5.3496 C   0  0  0  0  0  0  0  0  0  0  0  0
   20.2586  -33.2333   -3.4003 O   0  0  0  0  0  0  0  0  0  0  0  0
   19.8957  -33.2936   -2.2039 O   0  0  0  0  0  0  0  0  0  0  0  0
  2  3  2  0
  2  1  1  0
  4  2  1  0
  5  4  1  0
  6  5  1  0
  6  7  1  0
  8  7  1  0
  8  9  1  6
 10 11  2  0
 10  8  1  0
 12 10  1  0
 13 12  1  0
 13 14  1  1
 15 16  2  0
 15 14  1  0
 17 16  1  0
 18 17  2  0
 19 18  1  0
 19 20  2  0
 20 15  1  0
 21 13  1  0
 21 31  1  0
 22 21  2  0
 23 24  1  0
 24 26  1  0
 24 25  2  0
 26 27  1  0
 27 28  1  0
 28 29  1  0
 30 29  1  1
 30 31  1  0
 30 32  1  0
 32 33  2  0
 32 34  1  0
M  END
$$$$
