RFR.pdb
     RDKit          3D

 34 34  0  0  1  0  0  0  0  0999 V2000
   28.1259  -20.0083  -20.2934 N   0  0  0  0  0  0  0  0  0  0  0  0
   26.9547  -19.6739  -19.5503 C   0  0  0  0  0  0  0  0  0  0  0  0
   25.8511  -19.4052  -20.1345 N   0  0  0  0  0  0  0  0  0  0  0  0
   27.0009  -19.6345  -18.1178 N   0  0  0  0  0  0  0  0  0  0  0  0
   28.1862  -19.8191  -17.3405 C   0  0  0  0  0  0  0  0  0  0  0  0
   28.0380  -20.7980  -16.2299 C   0  0  0  0  0  0  0  0  0  0  0  0
   27.2404  -22.0300  -16.5336 C   0  0  0  0  0  0  0  0  0  0  0  0
   27.0246  -22.9197  -15.3777 C   0  0  2  0  0  0  0  0  0  0  0  0
   27.0010  -24.2946  -15.8162 N   0  0  0  0  0  0  0  0  0  0  0  0
   25.8255  -22.6549  -14.5830 C   0  0  0  0  0  0  0  0  0  0  0  0
   24.7784  -23.3104  -14.8672 O   0  0  0  0  0  0  0  0  0  0  0  0
   24.9661  -19.1352  -19.6918 N   0  0  0  0  0  0  0  0  0  0  0  0
   25.8227  -21.6956  -13.5232 C   0  0  2  0  0  0  0  0  0  0  0  0
   24.6768  -21.4329  -12.7206 C   0  0  0  0  0  0  0  0  0  0  0  0
   25.1345  -20.4609  -11.6201 C   0  0  0  0  0  0  0  0  0  0  0  0
   24.0367  -20.2127  -10.6537 C   0  0  0  0  0  0  0  0  0  0  0  0
   22.9996  -19.4110  -11.0608 C   0  0  0  0  0  0  0  0  0  0  0  0
   21.9432  -19.1413  -10.2043 C   0  0  0  0  0  0  0  0  0  0  0  0
   21.9033  -19.6644   -8.9302 C   0  0  0  0  0  0  0  0  0  0  0  0
   22.9470  -20.4672   -8.5294 C   0  0  0  0  0  0  0  0  0  0  0  0
   24.0080  -20.7342   -9.3996 C   0  0  0  0  0  0  0  0  0  0  0  0
   23.5589  -20.8374  -13.4838 O   0  0  0  0  0  0  0  0  0  0  0  0
   23.7284  -20.1138  -14.5007 N   0  0  0  0  0  0  0  0  0  0  0  0
   21.0026  -24.3780  -19.1151 C   0  0  0  0  0  0  0  0  0  0  0  0
   22.0439  -23.6964  -18.4223 N   0  0  0  0  0  0  0  0  0  0  0  0
   23.1882  -23.5750  -18.9987 N   0  0  0  0  0  0  0  0  0  0  0  0
   21.8212  -23.1545  -17.1103 C   0  0  0  0  0  0  0  0  0  0  0  0
   20.7231  -23.6740  -16.3510 C   0  0  0  0  0  0  0  0  0  0  0  0
   20.6907  -22.9092  -15.0256 C   0  0  0  0  0  0  0  0  0  0  0  0
   21.1711  -21.4982  -15.2221 C   0  0  1  0  0  0  0  0  0  0  0  0
   21.0886  -20.7353  -13.9512 N   0  0  0  0  0  0  0  0  0  0  0  0
   22.2316  -21.0810  -13.0654 C   0  0  0  0  0  0  0  0  0  0  0  0
   19.8316  -20.8871  -13.2255 O   0  0  0  0  0  0  0  0  0  0  0  0
   18.7234  -20.4057  -13.5525 O   0  0  0  0  0  0  0  0  0  0  0  0
  2  3  2  0
  2  1  1  0
  4  2  1  0
  5  4  1  0
  6  5  1  0
  6  7  1  0
  8  7  1  0
  8  9  1  6
 10 11  2  0
 10  8  1  0
 12 10  1  0
 13 12  1  0
 13 14  1  1
 15 16  2  0
 15 14  1  0
 17 16  1  0
 18 17  2  0
 19 18  1  0
 19 20  2  0
 20 15  1  0
 21 13  1  0
 21 31  1  0
 22 21  2  0
 23 24  1  0
 24 26  1  0
 24 25  2  0
 26 27  1  0
 27 28  1  0
 28 29  1  0
 30 29  1  6
 30 31  1  0
 30 32  1  0
 32 33  2  0
 32 34  1  0
M  END
$$$$
