CDQ.pdb
     RDKit          3D

 24 23  0  0  1  0  0  0  0  0999 V2000
   14.0391  -10.9550  -10.6946 N   0  0  0  0  0  0  0  0  0  0  0  0
   15.2519  -10.3424  -10.1957 C   0  0  1  0  0  0  0  0  0  0  0  0
   16.4171  -10.9221  -10.9445 C   0  0  0  0  0  0  0  0  0  0  0  0
   16.7663  -12.5848  -10.3599 S   0  0  0  0  0  0  0  0  0  0  0  0
   15.2063   -8.8650  -10.3034 C   0  0  0  0  0  0  0  0  0  0  0  0
   14.7260   -8.3760  -11.3565 O   0  0  0  0  0  0  0  0  0  0  0  0
   15.6799   -8.0270   -9.2725 N   0  0  0  0  0  0  0  0  0  0  0  0
   15.6204   -6.5902   -9.3350 C   0  0  1  0  0  0  0  0  0  0  0  0
   15.2476   -5.9764   -8.0129 C   0  0  0  0  0  0  0  0  0  0  0  0
   15.0486   -4.5215   -8.0939 C   0  0  0  0  0  0  0  0  0  0  0  0
   16.0210   -3.7759   -8.3472 O   0  0  0  0  0  0  0  0  0  0  0  0
   16.9409   -6.0272   -9.7246 C   0  0  0  0  0  0  0  0  0  0  0  0
   17.9312   -6.2837   -9.0252 O   0  0  0  0  0  0  0  0  0  0  0  0
   13.8073   -3.9519   -7.8963 O   0  0  0  0  0  0  0  0  0  0  0  0
   20.3011   -8.8034  -12.1745 N   0  0  0  0  0  0  0  0  0  0  0  0
   21.0044   -7.6599  -12.5858 C   0  0  0  0  0  0  0  0  0  0  0  0
   22.1567   -7.7527  -13.0327 O   0  0  0  0  0  0  0  0  0  0  0  0
   20.3637   -6.3349  -12.4843 C   0  0  0  0  0  0  0  0  0  0  0  0
   19.0435   -6.3712  -11.7982 C   0  0  0  0  0  0  0  0  0  0  0  0
   18.4211   -5.0479  -11.5286 C   0  0  2  0  0  0  0  0  0  0  0  0
   17.1111   -5.2050  -10.8701 N   0  0  0  0  0  0  0  0  0  0  0  0
   18.2581   -4.1590  -12.6756 C   0  0  0  0  0  0  0  0  0  0  0  0
   16.9941   -4.0495  -13.2941 O   0  0  0  0  0  0  0  0  0  0  0  0
   19.1461   -3.4454  -13.2055 O   0  0  0  0  0  0  0  0  0  0  0  0
  2  5  1  0
  2  1  1  6
  3  2  1  0
  4  3  1  0
  5  6  2  0
  7  5  1  0
  8  7  1  0
  8  9  1  1
  8 12  1  0
  9 10  1  0
 10 14  1  0
 11 10  2  0
 12 13  2  0
 16 17  2  0
 16 15  1  0
 18 16  1  0
 19 18  1  0
 20 19  1  6
 21 12  1  0
 21 20  1  0
 22 23  1  0
 22 20  1  0
 24 22  2  0
M  END
$$$$
