CDQ.pdb
     RDKit          3D

 24 23  0  0  1  0  0  0  0  0999 V2000
   25.7986  -15.2564  -15.6498 N   0  0  0  0  0  0  0  0  0  0  0  0
   24.7875  -14.6157  -16.4634 C   0  0  1  0  0  0  0  0  0  0  0  0
   23.5019  -14.5917  -15.6880 C   0  0  0  0  0  0  0  0  0  0  0  0
   22.9099  -16.2659  -15.4144 S   0  0  0  0  0  0  0  0  0  0  0  0
   25.2020  -13.2574  -16.8871 C   0  0  0  0  0  0  0  0  0  0  0  0
   25.8633  -12.5720  -16.0676 O   0  0  0  0  0  0  0  0  0  0  0  0
   24.8744  -12.7400  -18.1577 N   0  0  0  0  0  0  0  0  0  0  0  0
   25.2283  -11.4110  -18.5825 C   0  0  1  0  0  0  0  0  0  0  0  0
   25.5148  -11.3407  -20.0578 C   0  0  0  0  0  0  0  0  0  0  0  0
   26.6690  -12.1607  -20.4558 C   0  0  0  0  0  0  0  0  0  0  0  0
   27.7815  -11.9682  -19.9166 O   0  0  0  0  0  0  0  0  0  0  0  0
   24.1200  -10.4589  -18.3039 C   0  0  0  0  0  0  0  0  0  0  0  0
   22.9622  -10.8936  -18.2268 O   0  0  0  0  0  0  0  0  0  0  0  0
   26.5566  -13.1451  -21.4163 O   0  0  0  0  0  0  0  0  0  0  0  0
   21.9537   -9.6656  -13.7911 N   0  0  0  0  0  0  0  0  0  0  0  0
   21.4543   -8.4178  -14.1971 C   0  0  0  0  0  0  0  0  0  0  0  0
   20.6359   -7.8055  -13.4960 O   0  0  0  0  0  0  0  0  0  0  0  0
   21.9095   -7.8307  -15.4717 C   0  0  0  0  0  0  0  0  0  0  0  0
   22.8760   -8.6932  -16.2044 C   0  0  0  0  0  0  0  0  0  0  0  0
   23.3109   -8.1881  -17.5336 C   0  0  2  0  0  0  0  0  0  0  0  0
   24.3380   -9.0673  -18.1222 N   0  0  0  0  0  0  0  0  0  0  0  0
   23.7985   -6.8124  -17.5799 C   0  0  0  0  0  0  0  0  0  0  0  0
   22.9046   -5.7508  -17.3224 O   0  0  0  0  0  0  0  0  0  0  0  0
   24.9710   -6.4387  -17.8327 O   0  0  0  0  0  0  0  0  0  0  0  0
  2  5  1  0
  2  1  1  1
  3  2  1  0
  4  3  1  0
  5  6  2  0
  7  5  1  0
  8  7  1  0
  8  9  1  6
  8 12  1  0
  9 10  1  0
 10 14  1  0
 11 10  2  0
 12 13  2  0
 16 17  2  0
 16 15  1  0
 18 16  1  0
 19 18  1  0
 20 19  1  1
 21 12  1  0
 21 20  1  0
 22 23  1  0
 22 20  1  0
 24 22  2  0
M  END
$$$$
