CDQ.pdb
     RDKit          3D

 24 23  0  0  1  0  0  0  0  0999 V2000
   28.8954  -20.7579  -16.4077 N   0  0  0  0  0  0  0  0  0  0  0  0
   28.2069  -19.8474  -15.5178 C   0  0  1  0  0  0  0  0  0  0  0  0
   27.5503  -18.7817  -16.3471 C   0  0  0  0  0  0  0  0  0  0  0  0
   28.2350  -17.1703  -15.9436 S   0  0  0  0  0  0  0  0  0  0  0  0
   27.2314  -20.5544  -14.6547 C   0  0  0  0  0  0  0  0  0  0  0  0
   26.6909  -21.5892  -15.1193 O   0  0  0  0  0  0  0  0  0  0  0  0
   26.9118  -20.0960  -13.3597 N   0  0  0  0  0  0  0  0  0  0  0  0
   25.9779  -20.7674  -12.4943 C   0  0  1  0  0  0  0  0  0  0  0  0
   26.1707  -20.3963  -11.0490 C   0  0  0  0  0  0  0  0  0  0  0  0
   25.3051  -21.1641  -10.1412 C   0  0  0  0  0  0  0  0  0  0  0  0
   25.2963  -20.8963   -8.9190 O   0  0  0  0  0  0  0  0  0  0  0  0
   24.5794  -20.4130  -12.8565 C   0  0  0  0  0  0  0  0  0  0  0  0
   24.2715  -19.2170  -12.9573 O   0  0  0  0  0  0  0  0  0  0  0  0
   24.4955  -22.1805  -10.6055 O   0  0  0  0  0  0  0  0  0  0  0  0
   24.0276  -23.4857  -15.2885 N   0  0  0  0  0  0  0  0  0  0  0  0
   23.6338  -22.5587  -16.2668 C   0  0  0  0  0  0  0  0  0  0  0  0
   24.2426  -22.4781  -17.3434 O   0  0  0  0  0  0  0  0  0  0  0  0
   22.4832  -21.6721  -16.0089 C   0  0  0  0  0  0  0  0  0  0  0  0
   21.8242  -21.9297  -14.6996 C   0  0  0  0  0  0  0  0  0  0  0  0
   22.2373  -21.0377  -13.5840 C   0  0  2  0  0  0  0  0  0  0  0  0
   23.5807  -21.3951  -13.0920 N   0  0  0  0  0  0  0  0  0  0  0  0
   21.3316  -20.9620  -12.4410 C   0  0  0  0  0  0  0  0  0  0  0  0
   20.0196  -20.4758  -12.6268 O   0  0  0  0  0  0  0  0  0  0  0  0
   21.5877  -21.2918  -11.2560 O   0  0  0  0  0  0  0  0  0  0  0  0
  2  5  1  0
  2  1  1  6
  3  2  1  0
  4  3  1  0
  5  6  2  0
  7  5  1  0
  8  7  1  0
  8  9  1  1
  8 12  1  0
  9 10  1  0
 10 14  1  0
 11 10  2  0
 12 13  2  0
 16 17  2  0
 16 15  1  0
 18 16  1  0
 19 18  1  0
 20 19  1  6
 21 12  1  0
 21 20  1  0
 22 23  1  0
 22 20  1  0
 24 22  2  0
M  END
$$$$
