IER.pdb
     RDKit          3D

 29 28  0  0  1  0  0  0  0  0999 V2000
   27.1544  -17.8902  -18.4394 C   0  0  0  0  0  0  0  0  0  0  0  0
   27.2328  -17.6674  -16.9687 C   0  0  0  0  0  0  0  0  0  0  0  0
   25.9304  -17.5566  -16.2539 C   0  0  2  0  0  0  0  0  0  0  0  0
   26.0392  -16.8172  -14.9393 C   0  0  0  0  0  0  0  0  0  0  0  0
   25.2020  -18.8644  -16.0646 C   0  0  2  0  0  0  0  0  0  0  0  0
   25.1051  -19.5801  -17.2762 N   0  0  0  0  0  0  0  0  0  0  0  0
   23.9093  -18.5655  -15.4150 C   0  0  0  0  0  0  0  0  0  0  0  0
   23.9340  -18.0253  -14.2809 O   0  0  0  0  0  0  0  0  0  0  0  0
   22.6799  -18.8585  -16.0090 N   0  0  0  0  0  0  0  0  0  0  0  0
   21.3873  -18.5177  -15.4458 C   0  0  1  0  0  0  0  0  0  0  0  0
   20.6995  -17.6833  -16.5165 C   0  0  0  0  0  0  0  0  0  0  0  0
   19.8065  -16.6217  -15.9806 C   0  0  0  0  0  0  0  0  0  0  0  0
   18.4062  -16.9969  -16.3766 C   0  0  0  0  0  0  0  0  0  0  0  0
   18.1029  -17.3720  -17.5372 O   0  0  0  0  0  0  0  0  0  0  0  0
   20.6792  -19.7804  -15.1869 C   0  0  0  0  0  0  0  0  0  0  0  0
   20.8099  -20.7237  -15.9890 O   0  0  0  0  0  0  0  0  0  0  0  0
   17.3743  -16.9375  -15.4400 O   0  0  0  0  0  0  0  0  0  0  0  0
   17.6227  -25.5121   -9.4861 N   0  0  0  0  0  0  0  0  0  0  0  0
   18.8167  -25.8367  -10.1828 C   0  0  0  0  0  0  0  0  0  0  0  0
   19.1757  -27.0684  -10.2509 N   0  0  0  0  0  0  0  0  0  0  0  0
   19.6117  -24.8344  -10.7972 N   0  0  0  0  0  0  0  0  0  0  0  0
   19.1659  -23.4693  -10.7728 C   0  0  0  0  0  0  0  0  0  0  0  0
   18.7622  -23.0047  -12.1850 C   0  0  0  0  0  0  0  0  0  0  0  0
   19.4770  -21.7314  -12.4619 C   0  0  0  0  0  0  0  0  0  0  0  0
   19.2087  -21.2166  -13.8341 C   0  0  2  0  0  0  0  0  0  0  0  0
   19.8679  -19.9261  -14.0566 N   0  0  0  0  0  0  0  0  0  0  0  0
   17.7978  -21.0154  -14.1737 C   0  0  0  0  0  0  0  0  0  0  0  0
   17.2840  -19.8874  -14.1441 O   0  0  0  0  0  0  0  0  0  0  0  0
   16.9337  -22.0635  -14.5519 O   0  0  0  0  0  0  0  0  0  0  0  0
  2  1  1  0
  3  2  1  0
  3  4  1  1
  5  3  1  0
  5  6  1  6
  7  8  2  0
  7  5  1  0
  9  7  1  0
 10  9  1  0
 11 12  1  0
 10 11  1  6
 12 13  1  0
 13 14  2  0
 15 16  2  0
 15 10  1  0
 17 13  1  0
 18 19  1  0
 19 20  2  0
 21 19  1  0
 21 22  1  0
 22 23  1  0
 23 24  1  0
 25 24  1  1
 25 27  1  0
 25 26  1  0
 26 15  1  0
 27 29  1  0
 28 27  2  0
M  END
$$$$
