IER.pdb
     RDKit          3D

 29 28  0  0  1  0  0  0  0  0999 V2000
   26.7140  -22.8453  -18.0843 C   0  0  0  0  0  0  0  0  0  0  0  0
   26.9153  -22.6091  -16.6275 C   0  0  0  0  0  0  0  0  0  0  0  0
   25.8369  -21.8513  -15.9329 C   0  0  2  0  0  0  0  0  0  0  0  0
   24.4883  -22.5299  -16.0194 C   0  0  0  0  0  0  0  0  0  0  0  0
   25.7247  -20.4017  -16.3366 C   0  0  2  0  0  0  0  0  0  0  0  0
   26.9805  -19.7601  -16.3071 N   0  0  0  0  0  0  0  0  0  0  0  0
   24.6897  -19.7801  -15.4854 C   0  0  0  0  0  0  0  0  0  0  0  0
   24.8330  -19.8542  -14.2394 O   0  0  0  0  0  0  0  0  0  0  0  0
   23.5747  -19.1232  -16.0102 N   0  0  0  0  0  0  0  0  0  0  0  0
   22.4982  -18.5596  -15.2178 C   0  0  1  0  0  0  0  0  0  0  0  0
   21.9463  -17.4184  -16.0597 C   0  0  0  0  0  0  0  0  0  0  0  0
   20.7246  -16.7831  -15.4978 C   0  0  0  0  0  0  0  0  0  0  0  0
   20.3489  -15.6697  -16.4346 C   0  0  0  0  0  0  0  0  0  0  0  0
   21.2001  -14.9430  -17.0065 O   0  0  0  0  0  0  0  0  0  0  0  0
   21.5066  -19.6257  -15.0107 C   0  0  0  0  0  0  0  0  0  0  0  0
   21.3847  -20.5155  -15.8730 O   0  0  0  0  0  0  0  0  0  0  0  0
   19.0062  -15.4040  -16.7031 O   0  0  0  0  0  0  0  0  0  0  0  0
   18.7244  -24.7955  -10.0257 N   0  0  0  0  0  0  0  0  0  0  0  0
   18.1046  -25.2984  -11.2001 C   0  0  0  0  0  0  0  0  0  0  0  0
   17.2112  -26.2142  -11.0824 N   0  0  0  0  0  0  0  0  0  0  0  0
   18.4522  -24.8126  -12.4875 N   0  0  0  0  0  0  0  0  0  0  0  0
   19.4289  -23.7660  -12.6046 C   0  0  0  0  0  0  0  0  0  0  0  0
   18.8453  -22.4229  -12.1264 C   0  0  0  0  0  0  0  0  0  0  0  0
   19.8750  -21.3764  -12.3575 C   0  0  0  0  0  0  0  0  0  0  0  0
   19.7488  -20.7425  -13.6999 C   0  0  2  0  0  0  0  0  0  0  0  0
   20.7076  -19.6453  -13.8625 N   0  0  0  0  0  0  0  0  0  0  0  0
   18.4331  -20.1818  -14.0177 C   0  0  0  0  0  0  0  0  0  0  0  0
   18.2470  -18.9563  -14.0494 O   0  0  0  0  0  0  0  0  0  0  0  0
   17.3017  -20.9725  -14.3056 O   0  0  0  0  0  0  0  0  0  0  0  0
  2  1  1  0
  3  2  1  0
  3  4  1  6
  5  3  1  0
  5  6  1  1
  7  8  2  0
  7  5  1  0
  9  7  1  0
 10  9  1  0
 11 12  1  0
 10 11  1  6
 12 13  1  0
 13 14  2  0
 15 16  2  0
 15 10  1  0
 17 13  1  0
 18 19  1  0
 19 20  2  0
 21 19  1  0
 21 22  1  0
 22 23  1  0
 23 24  1  0
 25 24  1  1
 25 27  1  0
 25 26  1  0
 26 15  1  0
 27 29  1  0
 28 27  2  0
M  END
$$$$
