IER.pdb
     RDKit          3D

 29 28  0  0  1  0  0  0  0  0999 V2000
   29.7759  -20.3341  -10.3276 C   0  0  0  0  0  0  0  0  0  0  0  0
   28.8934  -21.1054  -11.2468 C   0  0  0  0  0  0  0  0  0  0  0  0
   27.5186  -20.5648  -11.4399 C   0  0  2  0  0  0  0  0  0  0  0  0
   26.8060  -20.2836  -10.1360 C   0  0  0  0  0  0  0  0  0  0  0  0
   26.6415  -21.3846  -12.3540 C   0  0  2  0  0  0  0  0  0  0  0  0
   27.3333  -21.7721  -13.5205 N   0  0  0  0  0  0  0  0  0  0  0  0
   25.4035  -20.6150  -12.5932 C   0  0  0  0  0  0  0  0  0  0  0  0
   24.6036  -20.4780  -11.6340 O   0  0  0  0  0  0  0  0  0  0  0  0
   25.0964  -20.0435  -13.8299 N   0  0  0  0  0  0  0  0  0  0  0  0
   23.9049  -19.2641  -14.1076 C   0  0  1  0  0  0  0  0  0  0  0  0
   24.2932  -18.3497  -15.2603 C   0  0  0  0  0  0  0  0  0  0  0  0
   24.9582  -19.0471  -16.3931 C   0  0  0  0  0  0  0  0  0  0  0  0
   25.3300  -17.9877  -17.3921 C   0  0  0  0  0  0  0  0  0  0  0  0
   25.0973  -16.7661  -17.2093 O   0  0  0  0  0  0  0  0  0  0  0  0
   22.8440  -20.2106  -14.4837 C   0  0  0  0  0  0  0  0  0  0  0  0
   23.1595  -21.3087  -14.9785 O   0  0  0  0  0  0  0  0  0  0  0  0
   25.9620  -18.3409  -18.5843 O   0  0  0  0  0  0  0  0  0  0  0  0
   22.3311  -25.7794  -13.8206 N   0  0  0  0  0  0  0  0  0  0  0  0
   21.0300  -26.2295  -13.4729 C   0  0  0  0  0  0  0  0  0  0  0  0
   20.8929  -27.4185  -13.0057 N   0  0  0  0  0  0  0  0  0  0  0  0
   19.8911  -25.3977  -13.6320 N   0  0  0  0  0  0  0  0  0  0  0  0
   20.0588  -24.0644  -14.1389 C   0  0  0  0  0  0  0  0  0  0  0  0
   19.8487  -23.0275  -13.0192 C   0  0  0  0  0  0  0  0  0  0  0  0
   20.8829  -21.9726  -13.1821 C   0  0  0  0  0  0  0  0  0  0  0  0
   20.5201  -20.9792  -14.2316 C   0  0  2  0  0  0  0  0  0  0  0  0
   21.4967  -19.8873  -14.2912 N   0  0  0  0  0  0  0  0  0  0  0  0
   19.2091  -20.3430  -14.0797 C   0  0  0  0  0  0  0  0  0  0  0  0
   19.0577  -19.3470  -13.3569 O   0  0  0  0  0  0  0  0  0  0  0  0
   18.0440  -20.8023  -14.7276 O   0  0  0  0  0  0  0  0  0  0  0  0
  2  1  1  0
  3  2  1  0
  3  4  1  1
  5  3  1  0
  5  6  1  6
  7  8  2  0
  7  5  1  0
  9  7  1  0
 10  9  1  0
 11 12  1  0
 10 11  1  6
 12 13  1  0
 13 14  2  0
 15 16  2  0
 15 10  1  0
 17 13  1  0
 18 19  1  0
 19 20  2  0
 21 19  1  0
 21 22  1  0
 22 23  1  0
 23 24  1  0
 25 24  1  1
 25 27  1  0
 25 26  1  0
 26 15  1  0
 27 29  1  0
 28 27  2  0
M  END
$$$$
