IER.pdb
     RDKit          3D

 29 28  0  0  1  0  0  0  0  0999 V2000
   17.1452  -19.6306  -15.8271 C   0  0  0  0  0  0  0  0  0  0  0  0
   18.6072  -19.8847  -15.6972 C   0  0  0  0  0  0  0  0  0  0  0  0
   19.4749  -18.6771  -15.6049 C   0  0  2  0  0  0  0  0  0  0  0  0
   19.1871  -17.6590  -16.6853 C   0  0  0  0  0  0  0  0  0  0  0  0
   20.9539  -18.9677  -15.5346 C   0  0  2  0  0  0  0  0  0  0  0  0
   21.2574  -19.8402  -14.4687 N   0  0  0  0  0  0  0  0  0  0  0  0
   21.6621  -17.6718  -15.4970 C   0  0  0  0  0  0  0  0  0  0  0  0
   21.5550  -16.9749  -14.4570 O   0  0  0  0  0  0  0  0  0  0  0  0
   22.4344  -17.2019  -16.5615 N   0  0  0  0  0  0  0  0  0  0  0  0
   23.1799  -15.9576  -16.5562 C   0  0  1  0  0  0  0  0  0  0  0  0
   24.2772  -16.1523  -17.5924 C   0  0  0  0  0  0  0  0  0  0  0  0
   25.1112  -14.9441  -17.8301 C   0  0  0  0  0  0  0  0  0  0  0  0
   26.1125  -15.3138  -18.8880 C   0  0  0  0  0  0  0  0  0  0  0  0
   25.8182  -15.3946  -20.1073 O   0  0  0  0  0  0  0  0  0  0  0  0
   22.2437  -14.8882  -16.9342 C   0  0  0  0  0  0  0  0  0  0  0  0
   21.3124  -15.1478  -17.7186 O   0  0  0  0  0  0  0  0  0  0  0  0
   27.4346  -15.5853  -18.5360 O   0  0  0  0  0  0  0  0  0  0  0  0
   15.8488  -10.9984  -13.6544 N   0  0  0  0  0  0  0  0  0  0  0  0
   15.8993  -10.4851  -14.9774 C   0  0  0  0  0  0  0  0  0  0  0  0
   14.8595   -9.8979  -15.4514 N   0  0  0  0  0  0  0  0  0  0  0  0
   17.0658  -10.6093  -15.7762 N   0  0  0  0  0  0  0  0  0  0  0  0
   18.1035  -11.5155  -15.3703 C   0  0  0  0  0  0  0  0  0  0  0  0
   19.2946  -11.4484  -16.3449 C   0  0  0  0  0  0  0  0  0  0  0  0
   20.2717  -12.4904  -15.9346 C   0  0  0  0  0  0  0  0  0  0  0  0
   21.4433  -12.5627  -16.8522 C   0  0  2  0  0  0  0  0  0  0  0  0
   22.3924  -13.5946  -16.4230 N   0  0  0  0  0  0  0  0  0  0  0  0
   22.2207  -11.3286  -16.9902 C   0  0  0  0  0  0  0  0  0  0  0  0
   23.2763  -11.1602  -16.3620 O   0  0  0  0  0  0  0  0  0  0  0  0
   21.8389  -10.2607  -17.8280 O   0  0  0  0  0  0  0  0  0  0  0  0
  2  1  1  0
  3  2  1  0
  3  4  1  6
  5  3  1  0
  5  6  1  1
  7  8  2  0
  7  5  1  0
  9  7  1  0
 10  9  1  0
 11 12  1  0
 10 11  1  6
 12 13  1  0
 13 14  2  0
 15 16  2  0
 15 10  1  0
 17 13  1  0
 18 19  1  0
 19 20  2  0
 21 19  1  0
 21 22  1  0
 22 23  1  0
 23 24  1  0
 25 24  1  1
 25 27  1  0
 25 26  1  0
 26 15  1  0
 27 29  1  0
 28 27  2  0
M  END
$$$$
