IER.pdb
     RDKit          3D

 29 28  0  0  1  0  0  0  0  0999 V2000
   29.4866  -18.2277  -18.2271 C   0  0  0  0  0  0  0  0  0  0  0  0
   28.6964  -17.7545  -17.0564 C   0  0  0  0  0  0  0  0  0  0  0  0
   28.0867  -18.8160  -16.2070 C   0  0  2  0  0  0  0  0  0  0  0  0
   27.3980  -19.8944  -17.0130 C   0  0  0  0  0  0  0  0  0  0  0  0
   27.1735  -18.3060  -15.1195 C   0  0  2  0  0  0  0  0  0  0  0  0
   27.8276  -17.3657  -14.2964 N   0  0  0  0  0  0  0  0  0  0  0  0
   26.6273  -19.4799  -14.4083 C   0  0  0  0  0  0  0  0  0  0  0  0
   26.0673  -20.3722  -15.0931 O   0  0  0  0  0  0  0  0  0  0  0  0
   26.7105  -19.6294  -13.0223 N   0  0  0  0  0  0  0  0  0  0  0  0
   26.0769  -20.6926  -12.2658 C   0  0  1  0  0  0  0  0  0  0  0  0
   26.9501  -20.8719  -11.0325 C   0  0  0  0  0  0  0  0  0  0  0  0
   28.4092  -20.9022  -11.3190 C   0  0  0  0  0  0  0  0  0  0  0  0
   29.1060  -21.0139   -9.9922 C   0  0  0  0  0  0  0  0  0  0  0  0
   30.0839  -21.7791   -9.7976 O   0  0  0  0  0  0  0  0  0  0  0  0
   24.7217  -20.2350  -11.9239 C   0  0  0  0  0  0  0  0  0  0  0  0
   24.5486  -19.0468  -11.5947 O   0  0  0  0  0  0  0  0  0  0  0  0
   28.6744  -20.2493   -8.9084 O   0  0  0  0  0  0  0  0  0  0  0  0
   18.5532  -20.8940  -17.5088 N   0  0  0  0  0  0  0  0  0  0  0  0
   17.8300  -20.4514  -16.3698 C   0  0  0  0  0  0  0  0  0  0  0  0
   16.5849  -20.1638  -16.5030 N   0  0  0  0  0  0  0  0  0  0  0  0
   18.4528  -20.3216  -15.1012 N   0  0  0  0  0  0  0  0  0  0  0  0
   19.8819  -20.4279  -15.0045 C   0  0  0  0  0  0  0  0  0  0  0  0
   20.3467  -20.1960  -13.5543 C   0  0  0  0  0  0  0  0  0  0  0  0
   21.7441  -20.6899  -13.4446 C   0  0  0  0  0  0  0  0  0  0  0  0
   22.2861  -20.5575  -12.0631 C   0  0  2  0  0  0  0  0  0  0  0  0
   23.6375  -21.1180  -11.9657 N   0  0  0  0  0  0  0  0  0  0  0  0
   21.5021  -21.2032  -11.0073 C   0  0  0  0  0  0  0  0  0  0  0  0
   21.8941  -22.2451  -10.4613 O   0  0  0  0  0  0  0  0  0  0  0  0
   20.2694  -20.7028  -10.5400 O   0  0  0  0  0  0  0  0  0  0  0  0
  2  1  1  0
  3  2  1  0
  3  4  1  6
  5  3  1  0
  5  6  1  1
  7  8  2  0
  7  5  1  0
  9  7  1  0
 10  9  1  0
 11 12  1  0
 10 11  1  1
 12 13  1  0
 13 14  2  0
 15 16  2  0
 15 10  1  0
 17 13  1  0
 18 19  1  0
 19 20  2  0
 21 19  1  0
 21 22  1  0
 22 23  1  0
 23 24  1  0
 25 24  1  6
 25 27  1  0
 25 26  1  0
 26 15  1  0
 27 29  1  0
 28 27  2  0
M  END
$$$$
