GMN.pdb
     RDKit          3D

 21 20  0  0  1  0  0  0  0  0999 V2000
    5.8738  -18.7363   21.6836 N   0  0  0  0  0  0  0  0  0  0  0  0
    5.5952  -18.1833   22.9901 C   0  0  0  0  0  0  0  0  0  0  0  0
    6.6175  -17.1154   23.3280 C   0  0  0  0  0  0  0  0  0  0  0  0
    7.6185  -17.0006   22.5849 O   0  0  0  0  0  0  0  0  0  0  0  0
    5.5484  -11.3607   26.0987 C   0  0  0  0  0  0  0  0  0  0  0  0
    7.1755  -11.7393   26.8155 S   0  0  0  0  0  0  0  0  0  0  0  0
    7.9399  -13.1548   25.9742 C   0  0  0  0  0  0  0  0  0  0  0  0
    6.9219  -14.1928   25.6326 C   0  0  0  0  0  0  0  0  0  0  0  0
    7.4571  -15.3546   24.8815 C   0  0  2  0  0  0  0  0  0  0  0  0
    6.4634  -16.2743   24.4333 N   0  0  0  0  0  0  0  0  0  0  0  0
    8.6724  -15.9734   25.4753 C   0  0  0  0  0  0  0  0  0  0  0  0
    9.5834  -15.2446   25.8935 O   0  0  0  0  0  0  0  0  0  0  0  0
    7.8150  -20.0407   28.0713 N   0  0  0  0  0  0  0  0  0  0  0  0
    9.0050  -19.3001   27.9311 C   0  0  0  0  0  0  0  0  0  0  0  0
    9.3503  -18.5857   28.9203 O   0  0  0  0  0  0  0  0  0  0  0  0
    9.8822  -19.2728   26.7588 C   0  0  0  0  0  0  0  0  0  0  0  0
   10.0513  -17.9287   26.1327 C   0  0  2  0  0  0  0  0  0  0  0  0
    8.8400  -17.3751   25.5869 N   0  0  0  0  0  0  0  0  0  0  0  0
   11.1302  -18.0018   25.0913 C   0  0  0  0  0  0  0  0  0  0  0  0
   10.8981  -17.6623   23.9046 O   0  0  0  0  0  0  0  0  0  0  0  0
   12.4151  -18.4418   25.3884 O   0  0  0  0  0  0  0  0  0  0  0  0
  1  2  1  0
  2  3  1  0
  3 10  1  0
  3  4  2  0
  6  5  1  0
  7  6  1  0
  8  7  1  0
  9  8  1  1
 10  9  1  0
 11  9  1  0
 11 18  1  0
 12 11  2  0
 13 14  1  0
 14 15  2  0
 14 16  1  0
 17 16  1  6
 17 19  1  0
 18 17  1  0
 19 20  2  0
 19 21  1  0
M  END
$$$$
