GMN.pdb
     RDKit          3D

 21 20  0  0  1  0  0  0  0  0999 V2000
    7.7073  -13.1319   19.5508 N   0  0  0  0  0  0  0  0  0  0  0  0
    7.2412  -14.2357   20.3600 C   0  0  0  0  0  0  0  0  0  0  0  0
    7.9610  -14.2382   21.6947 C   0  0  0  0  0  0  0  0  0  0  0  0
    9.1882  -13.9904   21.7038 O   0  0  0  0  0  0  0  0  0  0  0  0
    6.0616  -10.1786   26.6479 C   0  0  0  0  0  0  0  0  0  0  0  0
    6.5078  -11.9335   26.8085 S   0  0  0  0  0  0  0  0  0  0  0  0
    6.7402  -12.6942   25.1766 C   0  0  0  0  0  0  0  0  0  0  0  0
    7.1498  -14.1250   25.3023 C   0  0  0  0  0  0  0  0  0  0  0  0
    7.9356  -14.6422   24.1553 C   0  0  2  0  0  0  0  0  0  0  0  0
    7.2901  -14.5071   22.8907 N   0  0  0  0  0  0  0  0  0  0  0  0
    8.5955  -15.9537   24.3939 C   0  0  0  0  0  0  0  0  0  0  0  0
    7.9467  -16.9981   24.2378 O   0  0  0  0  0  0  0  0  0  0  0  0
   12.9809  -15.8399   22.8536 N   0  0  0  0  0  0  0  0  0  0  0  0
   12.1568  -16.9351   23.1790 C   0  0  0  0  0  0  0  0  0  0  0  0
   11.5461  -17.4929   22.2178 O   0  0  0  0  0  0  0  0  0  0  0  0
   11.9352  -17.4931   24.5147 C   0  0  0  0  0  0  0  0  0  0  0  0
   10.5402  -17.3585   25.0275 C   0  0  2  0  0  0  0  0  0  0  0  0
    9.9483  -16.0669   24.7965 N   0  0  0  0  0  0  0  0  0  0  0  0
   10.5145  -17.7124   26.4863 C   0  0  0  0  0  0  0  0  0  0  0  0
   10.9869  -18.8045   26.8882 O   0  0  0  0  0  0  0  0  0  0  0  0
    9.9752  -16.8608   27.4437 O   0  0  0  0  0  0  0  0  0  0  0  0
  1  2  1  0
  2  3  1  0
  3 10  1  0
  3  4  2  0
  6  5  1  0
  7  6  1  0
  8  7  1  0
  9  8  1  1
 10  9  1  0
 11  9  1  0
 11 18  1  0
 12 11  2  0
 13 14  1  0
 14 15  2  0
 14 16  1  0
 17 16  1  1
 17 19  1  0
 18 17  1  0
 19 20  2  0
 19 21  1  0
M  END
$$$$
