GMN.pdb
     RDKit          3D

 21 20  0  0  1  0  0  0  0  0999 V2000
    5.6244  -18.8029   20.6143 N   0  0  0  0  0  0  0  0  0  0  0  0
    5.4453  -18.5423   22.0252 C   0  0  0  0  0  0  0  0  0  0  0  0
    6.3676  -17.4219   22.4650 C   0  0  0  0  0  0  0  0  0  0  0  0
    7.3159  -17.1077   21.7103 O   0  0  0  0  0  0  0  0  0  0  0  0
    7.6198  -11.2583   27.2772 C   0  0  0  0  0  0  0  0  0  0  0  0
    6.5674  -12.6777   26.8499 S   0  0  0  0  0  0  0  0  0  0  0  0
    7.3915  -13.7542   25.6425 C   0  0  0  0  0  0  0  0  0  0  0  0
    6.4688  -14.8225   25.1549 C   0  0  0  0  0  0  0  0  0  0  0  0
    7.0810  -15.7710   24.1924 C   0  0  2  0  0  0  0  0  0  0  0  0
    6.1800  -16.7478   23.6746 N   0  0  0  0  0  0  0  0  0  0  0  0
    8.4165  -16.2889   24.5930 C   0  0  0  0  0  0  0  0  0  0  0  0
    8.4907  -17.3421   25.2419 O   0  0  0  0  0  0  0  0  0  0  0  0
   13.4773  -17.3438   22.2589 N   0  0  0  0  0  0  0  0  0  0  0  0
   13.1810  -16.3958   23.2578 C   0  0  0  0  0  0  0  0  0  0  0  0
   14.0883  -16.1692   24.1142 O   0  0  0  0  0  0  0  0  0  0  0  0
   11.9314  -15.6466   23.4058 C   0  0  0  0  0  0  0  0  0  0  0  0
   10.8590  -16.3581   24.1614 C   0  0  2  0  0  0  0  0  0  0  0  0
    9.6238  -15.6263   24.2635 N   0  0  0  0  0  0  0  0  0  0  0  0
   11.3787  -16.7346   25.5187 C   0  0  0  0  0  0  0  0  0  0  0  0
   12.1702  -17.7001   25.6556 O   0  0  0  0  0  0  0  0  0  0  0  0
   11.0131  -16.0427   26.6677 O   0  0  0  0  0  0  0  0  0  0  0  0
  1  2  1  0
  2  3  1  0
  3 10  1  0
  3  4  2  0
  6  5  1  0
  7  6  1  0
  8  7  1  0
  9  8  1  1
 10  9  1  0
 11  9  1  0
 11 18  1  0
 12 11  2  0
 13 14  1  0
 14 15  2  0
 14 16  1  0
 17 16  1  1
 17 19  1  0
 18 17  1  0
 19 20  2  0
 19 21  1  0
M  END
$$$$
