GMN.pdb
     RDKit          3D

 21 20  0  0  1  0  0  0  0  0999 V2000
    7.9407  -15.5386   19.1347 N   0  0  0  0  0  0  0  0  0  0  0  0
    7.2675  -16.0598   20.3033 C   0  0  0  0  0  0  0  0  0  0  0  0
    7.9086  -15.5038   21.5600 C   0  0  0  0  0  0  0  0  0  0  0  0
    9.1583  -15.4462   21.6090 O   0  0  0  0  0  0  0  0  0  0  0  0
    7.3891  -11.2942   28.1416 C   0  0  0  0  0  0  0  0  0  0  0  0
    6.5778  -11.9118   26.6365 S   0  0  0  0  0  0  0  0  0  0  0  0
    7.3823  -13.4272   26.0429 C   0  0  0  0  0  0  0  0  0  0  0  0
    6.7795  -13.8891   24.7569 C   0  0  0  0  0  0  0  0  0  0  0  0
    7.6855  -14.7048   23.9117 C   0  0  2  0  0  0  0  0  0  0  0  0
    7.1424  -15.0636   22.6426 N   0  0  0  0  0  0  0  0  0  0  0  0
    8.3917  -15.7983   24.6316 C   0  0  0  0  0  0  0  0  0  0  0  0
    7.7708  -16.8274   24.9337 O   0  0  0  0  0  0  0  0  0  0  0  0
   12.8055  -16.0702   23.1046 N   0  0  0  0  0  0  0  0  0  0  0  0
   12.2033  -17.0533   23.9141 C   0  0  0  0  0  0  0  0  0  0  0  0
   11.9189  -18.1551   23.3545 O   0  0  0  0  0  0  0  0  0  0  0  0
   11.8734  -16.9302   25.3356 C   0  0  0  0  0  0  0  0  0  0  0  0
   10.4150  -16.8262   25.6346 C   0  0  2  0  0  0  0  0  0  0  0  0
    9.7584  -15.7176   24.9930 N   0  0  0  0  0  0  0  0  0  0  0  0
   10.2182  -16.7843   27.1224 C   0  0  0  0  0  0  0  0  0  0  0  0
    9.5966  -15.8341   27.6591 O   0  0  0  0  0  0  0  0  0  0  0  0
   10.7075  -17.7797   27.9606 O   0  0  0  0  0  0  0  0  0  0  0  0
  1  2  1  0
  2  3  1  0
  3 10  1  0
  3  4  2  0
  6  5  1  0
  7  6  1  0
  8  7  1  0
  9  8  1  1
 10  9  1  0
 11  9  1  0
 11 18  1  0
 12 11  2  0
 13 14  1  0
 14 15  2  0
 14 16  1  0
 17 16  1  1
 17 19  1  0
 18 17  1  0
 19 20  2  0
 19 21  1  0
M  END
$$$$
