GMN.pdb
     RDKit          3D

 21 20  0  0  1  0  0  0  0  0999 V2000
    7.9607  -15.7951   18.8903 N   0  0  0  0  0  0  0  0  0  0  0  0
    7.0785  -15.6408   20.0254 C   0  0  0  0  0  0  0  0  0  0  0  0
    7.8713  -15.1971   21.2396 C   0  0  0  0  0  0  0  0  0  0  0  0
    9.1007  -15.4331   21.2600 O   0  0  0  0  0  0  0  0  0  0  0  0
    5.4403  -12.2304   27.1723 C   0  0  0  0  0  0  0  0  0  0  0  0
    7.0716  -11.6596   26.6087 S   0  0  0  0  0  0  0  0  0  0  0  0
    7.9316  -12.9660   25.6872 C   0  0  0  0  0  0  0  0  0  0  0  0
    7.2365  -13.2641   24.3993 C   0  0  0  0  0  0  0  0  0  0  0  0
    7.9083  -14.2871   23.5610 C   0  0  2  0  0  0  0  0  0  0  0  0
    7.2641  -14.5422   22.3144 N   0  0  0  0  0  0  0  0  0  0  0  0
    8.3634  -15.4957   24.2990 C   0  0  0  0  0  0  0  0  0  0  0  0
    7.5715  -16.4317   24.4797 O   0  0  0  0  0  0  0  0  0  0  0  0
   13.2369  -18.8519   25.5882 N   0  0  0  0  0  0  0  0  0  0  0  0
   11.9590  -18.6283   25.0392 C   0  0  0  0  0  0  0  0  0  0  0  0
   11.1978  -19.6377   24.9400 O   0  0  0  0  0  0  0  0  0  0  0  0
   11.4224  -17.3482   24.5722 C   0  0  0  0  0  0  0  0  0  0  0  0
   10.1673  -16.9092   25.2499 C   0  0  2  0  0  0  0  0  0  0  0  0
    9.6765  -15.6291   24.8119 N   0  0  0  0  0  0  0  0  0  0  0  0
   10.3767  -16.9287   26.7364 C   0  0  0  0  0  0  0  0  0  0  0  0
   10.5064  -15.8571   27.3785 O   0  0  0  0  0  0  0  0  0  0  0  0
   10.4357  -18.1152   27.4587 O   0  0  0  0  0  0  0  0  0  0  0  0
  1  2  1  0
  2  3  1  0
  3 10  1  0
  3  4  2  0
  6  5  1  0
  7  6  1  0
  8  7  1  0
  9  8  1  1
 10  9  1  0
 11  9  1  0
 11 18  1  0
 12 11  2  0
 13 14  1  0
 14 15  2  0
 14 16  1  0
 17 16  1  6
 17 19  1  0
 18 17  1  0
 19 20  2  0
 19 21  1  0
M  END
$$$$
