GMN.pdb
     RDKit          3D

 21 20  0  0  1  0  0  0  0  0999 V2000
    7.6474  -14.1783   19.7836 N   0  0  0  0  0  0  0  0  0  0  0  0
    7.1239  -15.0427   20.8177 C   0  0  0  0  0  0  0  0  0  0  0  0
    7.9084  -14.8474   22.1007 C   0  0  0  0  0  0  0  0  0  0  0  0
    9.1323  -14.5989   22.0120 O   0  0  0  0  0  0  0  0  0  0  0  0
    6.1595  -10.2980   26.7475 C   0  0  0  0  0  0  0  0  0  0  0  0
    6.7439  -11.9946   27.0387 S   0  0  0  0  0  0  0  0  0  0  0  0
    6.7112  -12.9630   25.5035 C   0  0  0  0  0  0  0  0  0  0  0  0
    7.2315  -14.3450   25.7268 C   0  0  0  0  0  0  0  0  0  0  0  0
    8.0090  -14.8997   24.5918 C   0  0  2  0  0  0  0  0  0  0  0  0
    7.2995  -14.9383   23.3552 N   0  0  0  0  0  0  0  0  0  0  0  0
    8.7918  -16.1232   24.9125 C   0  0  0  0  0  0  0  0  0  0  0  0
    8.2365  -17.2300   24.8653 O   0  0  0  0  0  0  0  0  0  0  0  0
   13.3487  -15.3507   23.6981 N   0  0  0  0  0  0  0  0  0  0  0  0
   12.6073  -16.5367   23.8658 C   0  0  0  0  0  0  0  0  0  0  0  0
   12.1266  -17.0605   22.8157 O   0  0  0  0  0  0  0  0  0  0  0  0
   12.3365  -17.2244   25.1301 C   0  0  0  0  0  0  0  0  0  0  0  0
   10.8946  -17.2979   25.5081 C   0  0  2  0  0  0  0  0  0  0  0  0
   10.1603  -16.0823   25.2742 N   0  0  0  0  0  0  0  0  0  0  0  0
   10.7819  -17.7311   26.9411 C   0  0  0  0  0  0  0  0  0  0  0  0
   11.3479  -18.7792   27.3392 O   0  0  0  0  0  0  0  0  0  0  0  0
   10.0571  -17.0033   27.8781 O   0  0  0  0  0  0  0  0  0  0  0  0
  1  2  1  0
  2  3  1  0
  3 10  1  0
  3  4  2  0
  6  5  1  0
  7  6  1  0
  8  7  1  0
  9  8  1  1
 10  9  1  0
 11  9  1  0
 11 18  1  0
 12 11  2  0
 13 14  1  0
 14 15  2  0
 14 16  1  0
 17 16  1  1
 17 19  1  0
 18 17  1  0
 19 20  2  0
 19 21  1  0
M  END
$$$$
