GMN.pdb
     RDKit          3D

 21 20  0  0  1  0  0  0  0  0999 V2000
    8.8225  -18.4557   20.7246 N   0  0  0  0  0  0  0  0  0  0  0  0
    7.9725  -18.1876   21.8631 C   0  0  0  0  0  0  0  0  0  0  0  0
    8.2636  -16.8039   22.4110 C   0  0  0  0  0  0  0  0  0  0  0  0
    9.2813  -16.2061   21.9934 O   0  0  0  0  0  0  0  0  0  0  0  0
    6.4210  -11.0179   27.3402 C   0  0  0  0  0  0  0  0  0  0  0  0
    5.9327  -12.6228   26.6397 S   0  0  0  0  0  0  0  0  0  0  0  0
    6.7001  -12.8802   25.0147 C   0  0  0  0  0  0  0  0  0  0  0  0
    6.4781  -14.2748   24.5286 C   0  0  0  0  0  0  0  0  0  0  0  0
    7.6740  -14.9133   23.9264 C   0  0  2  0  0  0  0  0  0  0  0  0
    7.4311  -16.1975   23.3554 N   0  0  0  0  0  0  0  0  0  0  0  0
    8.9139  -14.8054   24.7409 C   0  0  0  0  0  0  0  0  0  0  0  0
    9.3105  -13.6874   25.0994 O   0  0  0  0  0  0  0  0  0  0  0  0
   11.5031  -14.4732   29.1640 N   0  0  0  0  0  0  0  0  0  0  0  0
   10.7649  -15.5915   28.7296 C   0  0  0  0  0  0  0  0  0  0  0  0
   10.8842  -16.6526   29.4138 O   0  0  0  0  0  0  0  0  0  0  0  0
    9.8746  -15.6511   27.5685 C   0  0  0  0  0  0  0  0  0  0  0  0
   10.5616  -15.8682   26.2615 C   0  0  2  0  0  0  0  0  0  0  0  0
    9.6729  -15.9354   25.1313 N   0  0  0  0  0  0  0  0  0  0  0  0
   11.4160  -17.0994   26.3519 C   0  0  0  0  0  0  0  0  0  0  0  0
   12.3605  -17.1636   27.1772 O   0  0  0  0  0  0  0  0  0  0  0  0
   11.2040  -18.2071   25.5390 O   0  0  0  0  0  0  0  0  0  0  0  0
  1  2  1  0
  2  3  1  0
  3 10  1  0
  3  4  2  0
  6  5  1  0
  7  6  1  0
  8  7  1  0
  9  8  1  1
 10  9  1  0
 11  9  1  0
 11 18  1  0
 12 11  2  0
 13 14  1  0
 14 15  2  0
 14 16  1  0
 17 16  1  1
 17 19  1  0
 18 17  1  0
 19 20  2  0
 19 21  1  0
M  END
$$$$
