GMN.pdb
     RDKit          3D

 21 20  0  0  1  0  0  0  0  0999 V2000
    6.7406  -17.5251   20.9764 N   0  0  0  0  0  0  0  0  0  0  0  0
    6.4329  -17.4203   22.3853 C   0  0  0  0  0  0  0  0  0  0  0  0
    7.2257  -16.2855   23.0044 C   0  0  0  0  0  0  0  0  0  0  0  0
    8.2801  -15.9230   22.4349 O   0  0  0  0  0  0  0  0  0  0  0  0
    7.1577  -10.3371   26.0700 C   0  0  0  0  0  0  0  0  0  0  0  0
    6.4113  -11.7416   26.9504 S   0  0  0  0  0  0  0  0  0  0  0  0
    6.1492  -13.1439   25.8276 C   0  0  0  0  0  0  0  0  0  0  0  0
    7.0012  -14.3087   26.2121 C   0  0  0  0  0  0  0  0  0  0  0  0
    7.6836  -14.9729   25.0746 C   0  0  2  0  0  0  0  0  0  0  0  0
    6.8069  -15.6506   24.1766 N   0  0  0  0  0  0  0  0  0  0  0  0
    8.9185  -15.7178   25.4387 C   0  0  0  0  0  0  0  0  0  0  0  0
    9.8641  -15.1095   25.9600 O   0  0  0  0  0  0  0  0  0  0  0  0
   12.6505  -19.3775   26.2887 N   0  0  0  0  0  0  0  0  0  0  0  0
   11.3656  -19.9443   26.1780 C   0  0  0  0  0  0  0  0  0  0  0  0
   11.2769  -21.1946   26.3704 O   0  0  0  0  0  0  0  0  0  0  0  0
   10.1237  -19.2348   25.8635 C   0  0  0  0  0  0  0  0  0  0  0  0
   10.2895  -17.7820   25.5648 C   0  0  2  0  0  0  0  0  0  0  0  0
    9.0669  -17.1081   25.2145 N   0  0  0  0  0  0  0  0  0  0  0  0
   11.3264  -17.6142   24.4921 C   0  0  0  0  0  0  0  0  0  0  0  0
   12.5249  -17.9220   24.7069 O   0  0  0  0  0  0  0  0  0  0  0  0
   11.0121  -17.1181   23.2320 O   0  0  0  0  0  0  0  0  0  0  0  0
  1  2  1  0
  2  3  1  0
  3 10  1  0
  3  4  2  0
  6  5  1  0
  7  6  1  0
  8  7  1  0
  9  8  1  1
 10  9  1  0
 11  9  1  0
 11 18  1  0
 12 11  2  0
 13 14  1  0
 14 15  2  0
 14 16  1  0
 17 16  1  6
 17 19  1  0
 18 17  1  0
 19 20  2  0
 19 21  1  0
M  END
$$$$
