LGY.pdb
     RDKit          3D

 25 25  0  0  1  0  0  0  0  0999 V2000
    5.3636  -12.5988   26.5150 C   0  0  0  0  0  0  0  0  0  0  0  0
    6.8356  -12.7102   26.2106 C   0  0  2  0  0  0  0  0  0  0  0  0
    7.5878  -11.6025   26.8954 C   0  0  0  0  0  0  0  0  0  0  0  0
    7.1706  -12.9114   24.7801 C   0  0  0  0  0  0  0  0  0  0  0  0
    6.8636  -14.2471   24.1996 C   0  0  2  0  0  0  0  0  0  0  0  0
    6.5675  -15.2687   25.1527 N   0  0  0  0  0  0  0  0  0  0  0  0
    7.8893  -14.7544   23.2498 C   0  0  0  0  0  0  0  0  0  0  0  0
    8.4693  -13.9649   22.4300 O   0  0  0  0  0  0  0  0  0  0  0  0
    8.2882  -16.1221   23.1868 N   0  0  0  0  0  0  0  0  0  0  0  0
    9.2335  -16.6521   22.2662 C   0  0  0  0  0  0  0  0  0  0  0  0
   10.5746  -16.9415   22.8137 C   0  0  0  0  0  0  0  0  0  0  0  0
   11.4522  -17.2588   21.9673 O   0  0  0  0  0  0  0  0  0  0  0  0
    9.5858  -14.9572   30.1617 O   0  0  0  0  0  0  0  0  0  0  0  0
   10.3742  -15.1874   29.0342 C   0  0  0  0  0  0  0  0  0  0  0  0
   11.2687  -16.2200   28.9777 C   0  0  0  0  0  0  0  0  0  0  0  0
   12.0301  -16.4146   27.8450 C   0  0  0  0  0  0  0  0  0  0  0  0
   11.9455  -15.6096   26.7287 C   0  0  0  0  0  0  0  0  0  0  0  0
   12.7500  -15.7967   25.4922 C   0  0  0  0  0  0  0  0  0  0  0  0
   12.3186  -16.9260   24.6416 C   0  0  2  0  0  0  0  0  0  0  0  0
   10.9784  -16.9020   24.1513 N   0  0  0  0  0  0  0  0  0  0  0  0
   12.5394  -18.1865   25.3907 C   0  0  0  0  0  0  0  0  0  0  0  0
   11.5353  -18.9103   25.6131 O   0  0  0  0  0  0  0  0  0  0  0  0
   11.0175  -14.5647   26.8294 C   0  0  0  0  0  0  0  0  0  0  0  0
   10.2552  -14.3581   27.9451 C   0  0  0  0  0  0  0  0  0  0  0  0
   13.7751  -18.5913   25.8451 O   0  0  0  0  0  0  0  0  0  0  0  0
  2  1  1  6
  2  4  1  0
  3  2  1  0
  4  5  1  0
  5  6  1  1
  7  8  2  0
  7  5  1  0
  9  7  1  0
 10  9  1  0
 11 10  1  0
 11 20  1  0
 12 11  2  0
 13 14  1  0
 14 15  2  0
 15 16  1  0
 17 16  2  0
 17 18  1  0
 19 18  1  1
 19 20  1  0
 19 21  1  0
 21 25  1  0
 22 21  2  0
 23 17  1  0
 24 14  1  0
 24 23  2  0
M  END
$$$$
