LGY.pdb
     RDKit          3D

 25 25  0  0  1  0  0  0  0  0999 V2000
    6.9567  -14.0271   19.9702 C   0  0  0  0  0  0  0  0  0  0  0  0
    7.5555  -13.3598   21.1817 C   0  0  2  0  0  0  0  0  0  0  0  0
    7.4793  -11.8649   21.0362 C   0  0  0  0  0  0  0  0  0  0  0  0
    8.8754  -13.8871   21.6047 C   0  0  0  0  0  0  0  0  0  0  0  0
    8.9689  -15.3539   21.8396 C   0  0  2  0  0  0  0  0  0  0  0  0
    7.8417  -15.9358   22.4957 N   0  0  0  0  0  0  0  0  0  0  0  0
   10.2100  -15.7865   22.5354 C   0  0  0  0  0  0  0  0  0  0  0  0
   11.3374  -15.2569   22.2522 O   0  0  0  0  0  0  0  0  0  0  0  0
   10.2307  -16.7972   23.5412 N   0  0  0  0  0  0  0  0  0  0  0  0
   11.3986  -17.2537   24.2118 C   0  0  0  0  0  0  0  0  0  0  0  0
   11.5568  -16.8042   25.6100 C   0  0  0  0  0  0  0  0  0  0  0  0
   12.5325  -17.2992   26.2347 O   0  0  0  0  0  0  0  0  0  0  0  0
    5.7379  -12.7476   24.9633 O   0  0  0  0  0  0  0  0  0  0  0  0
    6.8671  -13.0871   25.7087 C   0  0  0  0  0  0  0  0  0  0  0  0
    8.0730  -12.4733   25.5118 C   0  0  0  0  0  0  0  0  0  0  0  0
    9.1661  -12.8370   26.2691 C   0  0  0  0  0  0  0  0  0  0  0  0
    9.1213  -13.8110   27.2440 C   0  0  0  0  0  0  0  0  0  0  0  0
   10.2814  -14.2217   28.0786 C   0  0  0  0  0  0  0  0  0  0  0  0
   10.9122  -15.4954   27.6726 C   0  0  2  0  0  0  0  0  0  0  0  0
   10.7562  -15.8991   26.3125 N   0  0  0  0  0  0  0  0  0  0  0  0
   10.4071  -16.5710   28.5596 C   0  0  0  0  0  0  0  0  0  0  0  0
   10.6784  -16.4853   29.7845 O   0  0  0  0  0  0  0  0  0  0  0  0
    7.8676  -14.4134   27.4124 C   0  0  0  0  0  0  0  0  0  0  0  0
    6.7741  -14.0645   26.6699 C   0  0  0  0  0  0  0  0  0  0  0  0
    9.6667  -17.6408   28.1072 O   0  0  0  0  0  0  0  0  0  0  0  0
  2  1  1  6
  2  4  1  0
  3  2  1  0
  4  5  1  0
  5  6  1  1
  7  8  2  0
  7  5  1  0
  9  7  1  0
 10  9  1  0
 11 10  1  0
 11 20  1  0
 12 11  2  0
 13 14  1  0
 14 15  2  0
 15 16  1  0
 17 16  2  0
 17 18  1  0
 19 18  1  6
 19 20  1  0
 19 21  1  0
 21 25  1  0
 22 21  2  0
 23 17  1  0
 24 14  1  0
 24 23  2  0
M  END
$$$$
