LGY.pdb
     RDKit          3D

 25 25  0  0  1  0  0  0  0  0999 V2000
    7.1342  -14.3434   18.8613 C   0  0  0  0  0  0  0  0  0  0  0  0
    7.4075  -13.6307   20.1609 C   0  0  2  0  0  0  0  0  0  0  0  0
    7.1822  -12.1531   19.9948 C   0  0  0  0  0  0  0  0  0  0  0  0
    8.6763  -14.0051   20.8310 C   0  0  0  0  0  0  0  0  0  0  0  0
    8.9174  -15.4574   21.0500 C   0  0  2  0  0  0  0  0  0  0  0  0
    7.8607  -16.1543   21.7113 N   0  0  0  0  0  0  0  0  0  0  0  0
   10.2029  -15.7711   21.7288 C   0  0  0  0  0  0  0  0  0  0  0  0
   11.2857  -15.8821   21.0604 O   0  0  0  0  0  0  0  0  0  0  0  0
   10.3162  -15.9661   23.1369 N   0  0  0  0  0  0  0  0  0  0  0  0
   11.5337  -15.9150   23.8698 C   0  0  0  0  0  0  0  0  0  0  0  0
   11.4285  -16.1974   25.3159 C   0  0  0  0  0  0  0  0  0  0  0  0
   12.5081  -16.1390   25.9627 O   0  0  0  0  0  0  0  0  0  0  0  0
    6.8023  -11.2501   25.9623 O   0  0  0  0  0  0  0  0  0  0  0  0
    7.3279  -12.4291   26.4910 C   0  0  0  0  0  0  0  0  0  0  0  0
    8.3092  -12.4185   27.4431 C   0  0  0  0  0  0  0  0  0  0  0  0
    8.8030  -13.6055   27.9410 C   0  0  0  0  0  0  0  0  0  0  0  0
    8.3571  -14.8432   27.5280 C   0  0  0  0  0  0  0  0  0  0  0  0
    8.8672  -16.1392   28.0488 C   0  0  0  0  0  0  0  0  0  0  0  0
   10.1523  -16.5756   27.4632 C   0  0  2  0  0  0  0  0  0  0  0  0
   10.2782  -16.5170   26.0427 N   0  0  0  0  0  0  0  0  0  0  0  0
   10.4276  -17.9597   27.9186 C   0  0  0  0  0  0  0  0  0  0  0  0
   10.5240  -18.1523   29.1576 O   0  0  0  0  0  0  0  0  0  0  0  0
    7.3523  -14.8078   26.5523 C   0  0  0  0  0  0  0  0  0  0  0  0
    6.8521  -13.6397   26.0483 C   0  0  0  0  0  0  0  0  0  0  0  0
   10.5796  -19.0244   27.0579 O   0  0  0  0  0  0  0  0  0  0  0  0
  2  1  1  6
  2  4  1  0
  3  2  1  0
  4  5  1  0
  5  6  1  1
  7  8  2  0
  7  5  1  0
  9  7  1  0
 10  9  1  0
 11 10  1  0
 11 20  1  0
 12 11  2  0
 13 14  1  0
 14 15  2  0
 15 16  1  0
 17 16  2  0
 17 18  1  0
 19 18  1  6
 19 20  1  0
 19 21  1  0
 21 25  1  0
 22 21  2  0
 23 17  1  0
 24 14  1  0
 24 23  2  0
M  END
$$$$
