HEW.pdb
     RDKit          3D

 34 36  0  0  1  0  0  0  0  0999 V2000
   10.1765  -13.5639   18.7013 N   0  0  0  0  0  0  0  0  0  0  0  0
   10.2893  -15.0049   18.9428 C   0  0  1  0  0  0  0  0  0  0  0  0
   11.6011  -15.4853   18.5102 C   0  0  0  0  0  0  0  0  0  0  0  0
   12.7912  -14.8720   19.1683 C   0  0  0  0  0  0  0  0  0  0  0  0
   13.0830  -14.8328   20.5046 C   0  0  0  0  0  0  0  0  0  0  0  0
   14.2506  -14.2208   20.6833 N   0  0  0  0  0  0  0  0  0  0  0  0
   14.6894  -13.8774   19.4598 C   0  0  0  0  0  0  0  0  0  0  0  0
   13.8074  -14.2700   18.5323 N   0  0  0  0  0  0  0  0  0  0  0  0
    9.7547  -15.4039   20.2539 C   0  0  0  0  0  0  0  0  0  0  0  0
    9.5830  -14.5066   21.1722 O   0  0  0  0  0  0  0  0  0  0  0  0
    9.4236  -16.7539   20.5078 N   0  0  0  0  0  0  0  0  0  0  0  0
    8.8840  -17.2727   21.7175 C   0  0  1  0  0  0  0  0  0  0  0  0
    8.0743  -18.4675   21.7951 C   0  0  0  0  0  0  0  0  0  0  0  0
    7.3408  -19.0395   20.6600 C   0  0  0  0  0  0  0  0  0  0  0  0
    7.2436  -20.4956   20.5202 C   0  0  0  0  0  0  0  0  0  0  0  0
    7.8329  -21.2761   21.3630 O   0  0  0  0  0  0  0  0  0  0  0  0
    9.8309  -17.0836   22.8846 C   0  0  0  0  0  0  0  0  0  0  0  0
   10.9007  -16.4554   22.7073 O   0  0  0  0  0  0  0  0  0  0  0  0
    6.5509  -21.1462   19.5236 O   0  0  0  0  0  0  0  0  0  0  0  0
    9.5836  -17.5781   24.1856 N   0  0  0  0  0  0  0  0  0  0  0  0
   10.4212  -17.1876   25.3236 C   0  0  1  0  0  0  0  0  0  0  0  0
   10.4063  -15.6862   25.3357 C   0  0  0  0  0  0  0  0  0  0  0  0
    9.2665  -15.0428   25.9844 C   0  0  0  0  0  0  0  0  0  0  0  0
    8.7695  -15.3596   27.2333 C   0  0  0  0  0  0  0  0  0  0  0  0
    7.7049  -14.5833   27.4783 N   0  0  0  0  0  0  0  0  0  0  0  0
    7.4871  -13.7565   26.4146 C   0  0  0  0  0  0  0  0  0  0  0  0
    6.5659  -12.7782   26.1490 C   0  0  0  0  0  0  0  0  0  0  0  0
    6.5963  -12.0723   24.9643 C   0  0  0  0  0  0  0  0  0  0  0  0
    7.5702  -12.3553   24.0309 C   0  0  0  0  0  0  0  0  0  0  0  0
    8.4891  -13.3235   24.2820 C   0  0  0  0  0  0  0  0  0  0  0  0
    8.4664  -14.0443   25.4778 C   0  0  0  0  0  0  0  0  0  0  0  0
   10.0706  -17.8387   26.5692 C   0  0  0  0  0  0  0  0  0  0  0  0
   10.9102  -17.9417   27.6767 O   0  0  0  0  0  0  0  0  0  0  0  0
    8.9280  -18.3550   26.6776 O   0  0  0  0  0  0  0  0  0  0  0  0
  2  1  1  1
  2  9  1  0
  2  3  1  0
  3  4  1  0
  4  5  2  0
  5  6  1  0
  7  6  1  0
  8  4  1  0
  8  7  2  0
  9 10  2  0
 11 12  1  0
 11  9  1  0
 12 13  1  6
 13 14  1  0
 14 15  1  0
 15 16  2  0
 15 19  1  0
 17 12  1  0
 18 17  2  0
 20 17  1  0
 21 22  1  1
 21 20  1  0
 22 23  1  0
 23 31  1  0
 24 23  2  0
 24 25  1  0
 25 26  1  0
 26 27  1  0
 27 28  2  0
 29 28  1  0
 30 29  2  0
 31 26  2  0
 31 30  1  0
 32 33  1  0
 32 21  1  0
 34 32  2  0
M  END
$$$$
