HEW.pdb
     RDKit          3D

 34 36  0  0  1  0  0  0  0  0999 V2000
    9.2794  -16.7111   20.0932 N   0  0  0  0  0  0  0  0  0  0  0  0
    9.4356  -15.7686   21.2043 C   0  0  1  0  0  0  0  0  0  0  0  0
    8.2499  -14.9193   21.3128 C   0  0  0  0  0  0  0  0  0  0  0  0
    7.9141  -14.0805   20.1257 C   0  0  0  0  0  0  0  0  0  0  0  0
    8.7694  -13.5885   19.1778 C   0  0  0  0  0  0  0  0  0  0  0  0
    8.0757  -12.9113   18.2667 N   0  0  0  0  0  0  0  0  0  0  0  0
    6.7872  -12.9798   18.6439 C   0  0  0  0  0  0  0  0  0  0  0  0
    6.6800  -13.6894   19.7741 N   0  0  0  0  0  0  0  0  0  0  0  0
   10.0028  -16.3983   22.4067 C   0  0  0  0  0  0  0  0  0  0  0  0
    9.2682  -17.1953   23.1158 O   0  0  0  0  0  0  0  0  0  0  0  0
   11.3410  -16.1421   22.7817 N   0  0  0  0  0  0  0  0  0  0  0  0
   12.0113  -16.6757   23.9173 C   0  0  1  0  0  0  0  0  0  0  0  0
   13.4470  -16.8061   24.0217 C   0  0  0  0  0  0  0  0  0  0  0  0
   14.2886  -17.4656   23.0165 C   0  0  0  0  0  0  0  0  0  0  0  0
   15.7426  -17.5022   23.2005 C   0  0  0  0  0  0  0  0  0  0  0  0
   16.3892  -16.4340   23.5283 O   0  0  0  0  0  0  0  0  0  0  0  0
   11.3239  -16.2904   25.2110 C   0  0  0  0  0  0  0  0  0  0  0  0
   11.4502  -15.1216   25.6449 O   0  0  0  0  0  0  0  0  0  0  0  0
   16.5274  -18.6233   23.0469 O   0  0  0  0  0  0  0  0  0  0  0  0
   10.5342  -17.1786   25.9763 N   0  0  0  0  0  0  0  0  0  0  0  0
   10.3447  -16.9851   27.4170 C   0  0  1  0  0  0  0  0  0  0  0  0
    9.8584  -15.5729   27.5712 C   0  0  0  0  0  0  0  0  0  0  0  0
    8.5831  -15.2416   26.9404 C   0  0  0  0  0  0  0  0  0  0  0  0
    7.6736  -16.1531   26.4412 C   0  0  0  0  0  0  0  0  0  0  0  0
    6.6421  -15.4805   25.9124 N   0  0  0  0  0  0  0  0  0  0  0  0
    6.8505  -14.1390   26.0524 C   0  0  0  0  0  0  0  0  0  0  0  0
    6.1263  -13.0278   25.7111 C   0  0  0  0  0  0  0  0  0  0  0  0
    6.5867  -11.7598   25.9994 C   0  0  0  0  0  0  0  0  0  0  0  0
    7.7964  -11.6073   26.6420 C   0  0  0  0  0  0  0  0  0  0  0  0
    8.5246  -12.7013   26.9853 C   0  0  0  0  0  0  0  0  0  0  0  0
    8.0675  -13.9891   26.6973 C   0  0  0  0  0  0  0  0  0  0  0  0
    9.5411  -18.0092   28.0525 C   0  0  0  0  0  0  0  0  0  0  0  0
    8.9328  -19.0709   27.3856 O   0  0  0  0  0  0  0  0  0  0  0  0
    9.3687  -17.9522   29.2979 O   0  0  0  0  0  0  0  0  0  0  0  0
  2  1  1  6
  2  9  1  0
  2  3  1  0
  3  4  1  0
  4  5  2  0
  5  6  1  0
  7  6  1  0
  8  4  1  0
  8  7  2  0
  9 10  2  0
 11 12  1  0
 11  9  1  0
 12 13  1  1
 13 14  1  0
 14 15  1  0
 15 16  2  0
 15 19  1  0
 17 12  1  0
 18 17  2  0
 20 17  1  0
 21 22  1  6
 21 20  1  0
 22 23  1  0
 23 31  1  0
 24 23  2  0
 24 25  1  0
 25 26  1  0
 26 27  1  0
 27 28  2  0
 29 28  1  0
 30 29  2  0
 31 26  2  0
 31 30  1  0
 32 33  1  0
 32 21  1  0
 34 32  2  0
M  END
$$$$
