HEW.pdb
     RDKit          3D

 34 36  0  0  1  0  0  0  0  0999 V2000
    7.8256  -17.0350   18.3412 N   0  0  0  0  0  0  0  0  0  0  0  0
    8.7699  -16.2986   19.1858 C   0  0  1  0  0  0  0  0  0  0  0  0
    8.4526  -14.8710   19.1671 C   0  0  0  0  0  0  0  0  0  0  0  0
    8.2037  -14.2560   17.8309 C   0  0  0  0  0  0  0  0  0  0  0  0
    7.0136  -13.8157   17.3192 C   0  0  0  0  0  0  0  0  0  0  0  0
    7.2163  -13.3056   16.1073 N   0  0  0  0  0  0  0  0  0  0  0  0
    8.5323  -13.4263   15.8609 C   0  0  0  0  0  0  0  0  0  0  0  0
    9.1406  -14.0036   16.9045 N   0  0  0  0  0  0  0  0  0  0  0  0
    9.0364  -16.9770   20.4636 C   0  0  0  0  0  0  0  0  0  0  0  0
    8.3294  -18.0100   20.7965 O   0  0  0  0  0  0  0  0  0  0  0  0
   10.0605  -16.5105   21.3182 N   0  0  0  0  0  0  0  0  0  0  0  0
   10.7120  -17.2619   22.3354 C   0  0  1  0  0  0  0  0  0  0  0  0
   11.5549  -18.4079   22.0802 C   0  0  0  0  0  0  0  0  0  0  0  0
   11.7618  -18.9977   20.7523 C   0  0  0  0  0  0  0  0  0  0  0  0
   13.0445  -19.6321   20.4336 C   0  0  0  0  0  0  0  0  0  0  0  0
   14.0575  -19.4958   21.2222 O   0  0  0  0  0  0  0  0  0  0  0  0
   11.1850  -16.3804   23.4728 C   0  0  0  0  0  0  0  0  0  0  0  0
   11.7835  -15.3115   23.2086 O   0  0  0  0  0  0  0  0  0  0  0  0
   13.2876  -20.3972   19.3147 O   0  0  0  0  0  0  0  0  0  0  0  0
   10.9925  -16.6889   24.8389 N   0  0  0  0  0  0  0  0  0  0  0  0
    9.9806  -15.9975   25.6433 C   0  0  1  0  0  0  0  0  0  0  0  0
    8.8101  -15.7926   24.7254 C   0  0  0  0  0  0  0  0  0  0  0  0
    7.6609  -15.0748   25.2716 C   0  0  0  0  0  0  0  0  0  0  0  0
    6.4076  -15.6125   25.4886 C   0  0  0  0  0  0  0  0  0  0  0  0
    5.6074  -14.6497   25.9669 N   0  0  0  0  0  0  0  0  0  0  0  0
    6.3076  -13.4830   26.0719 C   0  0  0  0  0  0  0  0  0  0  0  0
    5.9889  -12.2235   26.5055 C   0  0  0  0  0  0  0  0  0  0  0  0
    6.9289  -11.2140   26.5174 C   0  0  0  0  0  0  0  0  0  0  0  0
    8.2113  -11.4762   26.0858 C   0  0  0  0  0  0  0  0  0  0  0  0
    8.5399  -12.7209   25.6528 C   0  0  0  0  0  0  0  0  0  0  0  0
    7.5954  -13.7494   25.6361 C   0  0  0  0  0  0  0  0  0  0  0  0
    9.6925  -16.6363   26.9111 C   0  0  0  0  0  0  0  0  0  0  0  0
    9.5410  -15.9659   28.1234 O   0  0  0  0  0  0  0  0  0  0  0  0
    9.5662  -17.8882   26.9391 O   0  0  0  0  0  0  0  0  0  0  0  0
  2  1  1  1
  2  9  1  0
  2  3  1  0
  3  4  1  0
  4  5  2  0
  5  6  1  0
  7  6  1  0
  8  4  1  0
  8  7  2  0
  9 10  2  0
 11 12  1  0
 11  9  1  0
 12 13  1  6
 13 14  1  0
 14 15  1  0
 15 16  2  0
 15 19  1  0
 17 12  1  0
 18 17  2  0
 20 17  1  0
 21 22  1  6
 21 20  1  0
 22 23  1  0
 23 31  1  0
 24 23  2  0
 24 25  1  0
 25 26  1  0
 26 27  1  0
 27 28  2  0
 29 28  1  0
 30 29  2  0
 31 26  2  0
 31 30  1  0
 32 33  1  0
 32 21  1  0
 34 32  2  0
M  END
$$$$
