HEW.pdb
     RDKit          3D

 34 36  0  0  1  0  0  0  0  0999 V2000
    8.2370  -17.5131   18.3551 N   0  0  0  0  0  0  0  0  0  0  0  0
    9.0909  -16.5880   19.1050 C   0  0  1  0  0  0  0  0  0  0  0  0
    8.4585  -15.2716   19.1823 C   0  0  0  0  0  0  0  0  0  0  0  0
    8.1560  -14.5951   17.8874 C   0  0  0  0  0  0  0  0  0  0  0  0
    8.3077  -15.0973   16.6237 C   0  0  0  0  0  0  0  0  0  0  0  0
    7.8994  -14.1928   15.7377 N   0  0  0  0  0  0  0  0  0  0  0  0
    7.4922  -13.1254   16.4464 C   0  0  0  0  0  0  0  0  0  0  0  0
    7.6449  -13.3619   17.7553 N   0  0  0  0  0  0  0  0  0  0  0  0
    9.6672  -17.2000   20.3123 C   0  0  0  0  0  0  0  0  0  0  0  0
    8.9233  -17.9458   21.0661 O   0  0  0  0  0  0  0  0  0  0  0  0
   11.0236  -16.9827   20.6435 N   0  0  0  0  0  0  0  0  0  0  0  0
   11.6531  -17.3266   21.8719 C   0  0  1  0  0  0  0  0  0  0  0  0
   13.0624  -17.6193   22.0044 C   0  0  0  0  0  0  0  0  0  0  0  0
   13.8489  -18.3489   21.0030 C   0  0  0  0  0  0  0  0  0  0  0  0
   15.2879  -18.0939   20.8862 C   0  0  0  0  0  0  0  0  0  0  0  0
   15.7444  -16.8867   20.9136 O   0  0  0  0  0  0  0  0  0  0  0  0
   11.0607  -16.5679   23.0415 C   0  0  0  0  0  0  0  0  0  0  0  0
   10.9032  -15.3282   22.9482 O   0  0  0  0  0  0  0  0  0  0  0  0
   16.2504  -19.0679   20.7396 O   0  0  0  0  0  0  0  0  0  0  0  0
   10.6660  -17.1768   24.2547 N   0  0  0  0  0  0  0  0  0  0  0  0
    9.8376  -16.4653   25.2328 C   0  0  1  0  0  0  0  0  0  0  0  0
    8.7286  -15.8381   24.4381 C   0  0  0  0  0  0  0  0  0  0  0  0
    7.6743  -15.1656   25.1933 C   0  0  0  0  0  0  0  0  0  0  0  0
    6.4714  -15.7300   25.5696 C   0  0  0  0  0  0  0  0  0  0  0  0
    5.7505  -14.8049   26.2181 N   0  0  0  0  0  0  0  0  0  0  0  0
    6.4539  -13.6370   26.2794 C   0  0  0  0  0  0  0  0  0  0  0  0
    6.2007  -12.4071   26.8265 C   0  0  0  0  0  0  0  0  0  0  0  0
    7.1273  -11.3881   26.7506 C   0  0  0  0  0  0  0  0  0  0  0  0
    8.3292  -11.6103   26.1134 C   0  0  0  0  0  0  0  0  0  0  0  0
    8.5921  -12.8253   25.5661 C   0  0  0  0  0  0  0  0  0  0  0  0
    7.6604  -13.8631   25.6371 C   0  0  0  0  0  0  0  0  0  0  0  0
    9.4327  -17.2719   26.3658 C   0  0  0  0  0  0  0  0  0  0  0  0
    9.1866  -16.7789   27.6458 O   0  0  0  0  0  0  0  0  0  0  0  0
    9.2874  -18.5112   26.2010 O   0  0  0  0  0  0  0  0  0  0  0  0
  2  1  1  1
  2  9  1  0
  2  3  1  0
  3  4  1  0
  4  5  2  0
  5  6  1  0
  7  6  1  0
  8  4  1  0
  8  7  2  0
  9 10  2  0
 11 12  1  0
 11  9  1  0
 12 13  1  6
 13 14  1  0
 14 15  1  0
 15 16  2  0
 15 19  1  0
 17 12  1  0
 18 17  2  0
 20 17  1  0
 21 22  1  6
 21 20  1  0
 22 23  1  0
 23 31  1  0
 24 23  2  0
 24 25  1  0
 25 26  1  0
 26 27  1  0
 27 28  2  0
 29 28  1  0
 30 29  2  0
 31 26  2  0
 31 30  1  0
 32 33  1  0
 32 21  1  0
 34 32  2  0
M  END
$$$$
