HEW.pdb
     RDKit          3D

 34 36  0  0  1  0  0  0  0  0999 V2000
   10.4437  -15.5758   19.7953 N   0  0  0  0  0  0  0  0  0  0  0  0
    9.5539  -15.4731   20.9550 C   0  0  1  0  0  0  0  0  0  0  0  0
    8.1600  -15.4211   20.5153 C   0  0  0  0  0  0  0  0  0  0  0  0
    7.8550  -14.5359   19.3538 C   0  0  0  0  0  0  0  0  0  0  0  0
    8.2236  -13.2304   19.1752 C   0  0  0  0  0  0  0  0  0  0  0  0
    7.7806  -12.8045   17.9953 N   0  0  0  0  0  0  0  0  0  0  0  0
    7.1355  -13.8428   17.4357 C   0  0  0  0  0  0  0  0  0  0  0  0
    7.1760  -14.9003   18.2557 N   0  0  0  0  0  0  0  0  0  0  0  0
    9.9467  -16.3703   22.0526 C   0  0  0  0  0  0  0  0  0  0  0  0
    9.1849  -16.4737   23.0951 O   0  0  0  0  0  0  0  0  0  0  0  0
   11.1417  -17.1196   21.9678 N   0  0  0  0  0  0  0  0  0  0  0  0
   11.7036  -17.9232   22.9984 C   0  0  1  0  0  0  0  0  0  0  0  0
   12.8432  -18.7931   22.8152 C   0  0  0  0  0  0  0  0  0  0  0  0
   13.3074  -19.2774   21.5099 C   0  0  0  0  0  0  0  0  0  0  0  0
   14.6361  -18.8916   21.0250 C   0  0  0  0  0  0  0  0  0  0  0  0
   14.8824  -17.6696   20.6896 O   0  0  0  0  0  0  0  0  0  0  0  0
   11.6588  -17.2282   24.3436 C   0  0  0  0  0  0  0  0  0  0  0  0
   12.3471  -16.1960   24.5207 O   0  0  0  0  0  0  0  0  0  0  0  0
   15.7021  -19.7516   20.8825 O   0  0  0  0  0  0  0  0  0  0  0  0
   10.8773  -17.6748   25.4336 N   0  0  0  0  0  0  0  0  0  0  0  0
   10.5376  -16.7832   26.5465 C   0  0  1  0  0  0  0  0  0  0  0  0
   10.0045  -15.5323   25.9097 C   0  0  0  0  0  0  0  0  0  0  0  0
    9.4581  -14.5166   26.8063 C   0  0  0  0  0  0  0  0  0  0  0  0
    9.8407  -14.3137   28.1176 C   0  0  0  0  0  0  0  0  0  0  0  0
    9.1012  -13.3198   28.6288 N   0  0  0  0  0  0  0  0  0  0  0  0
    8.2353  -12.8590   27.6799 C   0  0  0  0  0  0  0  0  0  0  0  0
    7.2879  -11.8700   27.6631 C   0  0  0  0  0  0  0  0  0  0  0  0
    6.5522  -11.6060   26.5266 C   0  0  0  0  0  0  0  0  0  0  0  0
    6.7734  -12.3498   25.3874 C   0  0  0  0  0  0  0  0  0  0  0  0
    7.7096  -13.3338   25.3913 C   0  0  0  0  0  0  0  0  0  0  0  0
    8.4591  -13.6093   26.5369 C   0  0  0  0  0  0  0  0  0  0  0  0
    9.6982  -17.3910   27.5586 C   0  0  0  0  0  0  0  0  0  0  0  0
    8.9238  -18.5339   27.3685 O   0  0  0  0  0  0  0  0  0  0  0  0
    9.6525  -16.8619   28.6997 O   0  0  0  0  0  0  0  0  0  0  0  0
  2  1  1  6
  2  9  1  0
  2  3  1  0
  3  4  1  0
  4  5  2  0
  5  6  1  0
  7  6  1  0
  8  4  1  0
  8  7  2  0
  9 10  2  0
 11 12  1  0
 11  9  1  0
 12 13  1  6
 13 14  1  0
 14 15  1  0
 15 16  2  0
 15 19  1  0
 17 12  1  0
 18 17  2  0
 20 17  1  0
 21 22  1  6
 21 20  1  0
 22 23  1  0
 23 31  1  0
 24 23  2  0
 24 25  1  0
 25 26  1  0
 26 27  1  0
 27 28  2  0
 29 28  1  0
 30 29  2  0
 31 26  2  0
 31 30  1  0
 32 33  1  0
 32 21  1  0
 34 32  2  0
M  END
$$$$
