HEW.pdb
     RDKit          3D

 34 36  0  0  1  0  0  0  0  0999 V2000
    9.0670  -17.1613   18.2210 N   0  0  0  0  0  0  0  0  0  0  0  0
    9.4951  -16.1234   19.1626 C   0  0  1  0  0  0  0  0  0  0  0  0
    8.5624  -14.9974   19.1269 C   0  0  0  0  0  0  0  0  0  0  0  0
    8.2408  -14.4344   17.7833 C   0  0  0  0  0  0  0  0  0  0  0  0
    8.6497  -13.2403   17.2549 C   0  0  0  0  0  0  0  0  0  0  0  0
    8.1724  -13.1183   16.0191 N   0  0  0  0  0  0  0  0  0  0  0  0
    7.4656  -14.2353   15.7741 C   0  0  0  0  0  0  0  0  0  0  0  0
    7.5021  -15.0415   16.8424 N   0  0  0  0  0  0  0  0  0  0  0  0
    9.9343  -16.6750   20.4536 C   0  0  0  0  0  0  0  0  0  0  0  0
    9.0619  -17.2074   21.2494 O   0  0  0  0  0  0  0  0  0  0  0  0
   11.2983  -16.6316   20.8203 N   0  0  0  0  0  0  0  0  0  0  0  0
   11.8545  -17.1027   22.0419 C   0  0  1  0  0  0  0  0  0  0  0  0
   13.2153  -17.5685   22.1846 C   0  0  0  0  0  0  0  0  0  0  0  0
   13.7972  -18.0348   23.4485 C   0  0  0  0  0  0  0  0  0  0  0  0
   15.2494  -18.2028   23.5590 C   0  0  0  0  0  0  0  0  0  0  0  0
   15.9738  -17.2943   24.1215 O   0  0  0  0  0  0  0  0  0  0  0  0
   11.3308  -16.3307   23.2353 C   0  0  0  0  0  0  0  0  0  0  0  0
   11.4970  -15.0894   23.2801 O   0  0  0  0  0  0  0  0  0  0  0  0
   15.9534  -19.2913   23.0941 O   0  0  0  0  0  0  0  0  0  0  0  0
   10.6540  -16.9285   24.3228 N   0  0  0  0  0  0  0  0  0  0  0  0
   10.0707  -16.1201   25.3977 C   0  0  1  0  0  0  0  0  0  0  0  0
    9.1554  -15.1453   24.7145 C   0  0  0  0  0  0  0  0  0  0  0  0
    7.9571  -14.7413   25.4460 C   0  0  0  0  0  0  0  0  0  0  0  0
    6.8835  -15.5580   25.7417 C   0  0  0  0  0  0  0  0  0  0  0  0
    5.9630  -14.8335   26.3928 N   0  0  0  0  0  0  0  0  0  0  0  0
    6.4071  -13.5509   26.5350 C   0  0  0  0  0  0  0  0  0  0  0  0
    5.8848  -12.4277   27.1195 C   0  0  0  0  0  0  0  0  0  0  0  0
    6.5830  -11.2380   27.1291 C   0  0  0  0  0  0  0  0  0  0  0  0
    7.8279  -11.1775   26.5407 C   0  0  0  0  0  0  0  0  0  0  0  0
    8.3567  -12.2842   25.9573 C   0  0  0  0  0  0  0  0  0  0  0  0
    7.6576  -13.4930   25.9416 C   0  0  0  0  0  0  0  0  0  0  0  0
    9.4880  -16.8953   26.4737 C   0  0  0  0  0  0  0  0  0  0  0  0
    9.2281  -16.4096   27.7538 O   0  0  0  0  0  0  0  0  0  0  0  0
    9.1876  -18.0978   26.2548 O   0  0  0  0  0  0  0  0  0  0  0  0
  2  1  1  6
  2  9  1  0
  2  3  1  0
  3  4  1  0
  4  5  2  0
  5  6  1  0
  7  6  1  0
  8  4  1  0
  8  7  2  0
  9 10  2  0
 11 12  1  0
 11  9  1  0
 12 13  1  6
 13 14  1  0
 14 15  1  0
 15 16  2  0
 15 19  1  0
 17 12  1  0
 18 17  2  0
 20 17  1  0
 21 22  1  6
 21 20  1  0
 22 23  1  0
 23 31  1  0
 24 23  2  0
 24 25  1  0
 25 26  1  0
 26 27  1  0
 27 28  2  0
 29 28  1  0
 30 29  2  0
 31 26  2  0
 31 30  1  0
 32 33  1  0
 32 21  1  0
 34 32  2  0
M  END
$$$$
