SLG.pdb
     RDKit          3D

 19 18  0  0  1  0  0  0  0  0999 V2000
    9.8450  -17.8811   22.6679 O   0  0  0  0  0  0  0  0  0  0  0  0
    8.5813  -17.7653   22.0934 C   0  0  0  0  0  0  0  0  0  0  0  0
    8.3823  -16.3195   21.6342 C   0  0  2  0  0  0  0  0  0  0  0  0
    9.2657  -16.1449   20.4883 N   0  0  0  0  0  0  0  0  0  0  0  0
    8.8026  -15.3699   22.7102 C   0  0  0  0  0  0  0  0  0  0  0  0
    9.9308  -14.8228   22.6646 O   0  0  0  0  0  0  0  0  0  0  0  0
    5.4112  -12.3782   26.8604 C   0  0  0  0  0  0  0  0  0  0  0  0
    6.8076  -12.5222   26.2715 C   0  0  2  0  0  0  0  0  0  0  0  0
    7.5137  -11.2285   26.0539 C   0  0  0  0  0  0  0  0  0  0  0  0
    6.8976  -13.5342   25.1951 C   0  0  0  0  0  0  0  0  0  0  0  0
    8.2288  -14.0622   24.8158 C   0  0  2  0  0  0  0  0  0  0  0  0
    7.9482  -15.0763   23.7825 N   0  0  0  0  0  0  0  0  0  0  0  0
    9.0065  -14.7460   25.8443 C   0  0  0  0  0  0  0  0  0  0  0  0
    9.4118  -14.1408   26.8654 O   0  0  0  0  0  0  0  0  0  0  0  0
    9.3652  -16.1422   25.7731 N   0  0  0  0  0  0  0  0  0  0  0  0
   10.0111  -16.7907   26.8743 C   0  0  0  0  0  0  0  0  0  0  0  0
   10.2469  -18.2308   26.6430 C   0  0  0  0  0  0  0  0  0  0  0  0
   10.7923  -19.0484   27.6075 O   0  0  0  0  0  0  0  0  0  0  0  0
    9.9429  -18.7328   25.5342 O   0  0  0  0  0  0  0  0  0  0  0  0
  2  1  1  0
  3  2  1  0
  3  4  1  6
  5  3  1  0
  5  6  2  0
  8  7  1  6
  8 10  1  0
  9  8  1  0
 11 10  1  1
 11 12  1  0
 12  5  1  0
 13 11  1  0
 13 15  1  0
 14 13  2  0
 16 15  1  0
 16 17  1  0
 17 19  2  0
 17 18  1  0
M  END
$$$$
