SLG.pdb
     RDKit          3D

 19 18  0  0  1  0  0  0  0  0999 V2000
    8.5001  -17.3468   21.6995 O   0  0  0  0  0  0  0  0  0  0  0  0
    7.3216  -16.6240   21.5286 C   0  0  0  0  0  0  0  0  0  0  0  0
    7.6564  -15.1310   21.5391 C   0  0  2  0  0  0  0  0  0  0  0  0
    8.5952  -14.9300   20.4427 N   0  0  0  0  0  0  0  0  0  0  0  0
    8.3317  -14.7590   22.8203 C   0  0  0  0  0  0  0  0  0  0  0  0
    9.5424  -14.4298   22.8238 O   0  0  0  0  0  0  0  0  0  0  0  0
    8.0842  -11.5940   26.2340 C   0  0  0  0  0  0  0  0  0  0  0  0
    6.8300  -12.4478   26.1100 C   0  0  2  0  0  0  0  0  0  0  0  0
    5.6718  -11.9482   26.9028 C   0  0  0  0  0  0  0  0  0  0  0  0
    7.0962  -13.9036   26.1404 C   0  0  0  0  0  0  0  0  0  0  0  0
    8.2214  -14.4442   25.3426 C   0  0  2  0  0  0  0  0  0  0  0  0
    7.6278  -14.7715   24.0329 N   0  0  0  0  0  0  0  0  0  0  0  0
    8.8571  -15.6720   25.8099 C   0  0  0  0  0  0  0  0  0  0  0  0
    9.4610  -15.7164   26.9084 O   0  0  0  0  0  0  0  0  0  0  0  0
    8.8441  -16.9077   25.0642 N   0  0  0  0  0  0  0  0  0  0  0  0
    9.3354  -18.1206   25.6457 C   0  0  0  0  0  0  0  0  0  0  0  0
   10.7735  -18.3452   25.3920 C   0  0  0  0  0  0  0  0  0  0  0  0
   11.2198  -19.1732   24.3865 O   0  0  0  0  0  0  0  0  0  0  0  0
   11.6221  -17.7661   26.1121 O   0  0  0  0  0  0  0  0  0  0  0  0
  2  1  1  0
  3  2  1  0
  3  4  1  6
  5  3  1  0
  5  6  2  0
  8  7  1  1
  8 10  1  0
  9  8  1  0
 11 10  1  1
 11 12  1  0
 12  5  1  0
 13 11  1  0
 13 15  1  0
 14 13  2  0
 16 15  1  0
 16 17  1  0
 17 19  2  0
 17 18  1  0
M  END
$$$$
