SLG.pdb
     RDKit          3D

 19 18  0  0  1  0  0  0  0  0999 V2000
    7.1005  -15.6395   19.1693 O   0  0  0  0  0  0  0  0  0  0  0  0
    7.7516  -15.4667   20.3886 C   0  0  0  0  0  0  0  0  0  0  0  0
    7.4449  -14.0625   20.9133 C   0  0  2  0  0  0  0  0  0  0  0  0
    8.0769  -13.1443   19.9745 N   0  0  0  0  0  0  0  0  0  0  0  0
    8.0608  -13.8657   22.2617 C   0  0  0  0  0  0  0  0  0  0  0  0
    9.2193  -13.3950   22.3644 O   0  0  0  0  0  0  0  0  0  0  0  0
    7.6825  -11.4355   26.2307 C   0  0  0  0  0  0  0  0  0  0  0  0
    6.4401  -12.2391   25.8724 C   0  0  2  0  0  0  0  0  0  0  0  0
    5.2426  -11.9088   26.6948 C   0  0  0  0  0  0  0  0  0  0  0  0
    6.7122  -13.6709   25.6136 C   0  0  0  0  0  0  0  0  0  0  0  0
    7.8895  -14.0410   24.7941 C   0  0  2  0  0  0  0  0  0  0  0  0
    7.3584  -14.2017   23.4278 N   0  0  0  0  0  0  0  0  0  0  0  0
    8.5684  -15.2944   25.1076 C   0  0  0  0  0  0  0  0  0  0  0  0
    9.0745  -15.4970   26.2372 O   0  0  0  0  0  0  0  0  0  0  0  0
    8.7107  -16.3788   24.1658 N   0  0  0  0  0  0  0  0  0  0  0  0
    9.4249  -17.5684   24.5193 C   0  0  0  0  0  0  0  0  0  0  0  0
   10.8827  -17.4549   24.3078 C   0  0  0  0  0  0  0  0  0  0  0  0
   11.4735  -16.2839   23.8886 O   0  0  0  0  0  0  0  0  0  0  0  0
   11.6133  -18.4537   24.5147 O   0  0  0  0  0  0  0  0  0  0  0  0
  2  1  1  0
  3  2  1  0
  3  4  1  6
  5  3  1  0
  5  6  2  0
  8  7  1  1
  8 10  1  0
  9  8  1  0
 11 10  1  1
 11 12  1  0
 12  5  1  0
 13 11  1  0
 13 15  1  0
 14 13  2  0
 16 15  1  0
 16 17  1  0
 17 19  2  0
 17 18  1  0
M  END
$$$$
