SLG.pdb
     RDKit          3D

 19 18  0  0  1  0  0  0  0  0999 V2000
    7.3368  -17.5698   21.0530 O   0  0  0  0  0  0  0  0  0  0  0  0
    6.1906  -16.7904   20.9143 C   0  0  0  0  0  0  0  0  0  0  0  0
    6.6097  -15.3294   20.7386 C   0  0  2  0  0  0  0  0  0  0  0  0
    7.4240  -15.2955   19.5305 N   0  0  0  0  0  0  0  0  0  0  0  0
    7.4504  -14.8875   21.8936 C   0  0  0  0  0  0  0  0  0  0  0  0
    8.7007  -14.8633   21.7921 O   0  0  0  0  0  0  0  0  0  0  0  0
    5.9007  -12.0703   27.1460 C   0  0  0  0  0  0  0  0  0  0  0  0
    7.0685  -12.5565   26.2990 C   0  0  2  0  0  0  0  0  0  0  0  0
    8.2415  -11.6380   26.2937 C   0  0  0  0  0  0  0  0  0  0  0  0
    6.6594  -13.1431   25.0030 C   0  0  0  0  0  0  0  0  0  0  0  0
    7.6103  -14.0191   24.2798 C   0  0  2  0  0  0  0  0  0  0  0  0
    6.8595  -14.4949   23.1031 N   0  0  0  0  0  0  0  0  0  0  0  0
    8.0826  -15.2193   24.9630 C   0  0  0  0  0  0  0  0  0  0  0  0
    7.2798  -16.0630   25.4284 O   0  0  0  0  0  0  0  0  0  0  0  0
    9.4795  -15.5270   25.1554 N   0  0  0  0  0  0  0  0  0  0  0  0
    9.8802  -16.7017   25.8695 C   0  0  0  0  0  0  0  0  0  0  0  0
   11.3462  -16.8789   25.9196 C   0  0  0  0  0  0  0  0  0  0  0  0
   11.9388  -17.8785   26.6584 O   0  0  0  0  0  0  0  0  0  0  0  0
   12.0821  -16.0972   25.2706 O   0  0  0  0  0  0  0  0  0  0  0  0
  2  1  1  0
  3  2  1  0
  3  4  1  6
  5  3  1  0
  5  6  2  0
  8  7  1  6
  8 10  1  0
  9  8  1  0
 11 10  1  1
 11 12  1  0
 12  5  1  0
 13 11  1  0
 13 15  1  0
 14 13  2  0
 16 15  1  0
 16 17  1  0
 17 19  2  0
 17 18  1  0
M  END
$$$$
