SLG.pdb
     RDKit          3D

 19 18  0  0  1  0  0  0  0  0999 V2000
    7.9234  -17.7586   22.5038 O   0  0  0  0  0  0  0  0  0  0  0  0
    7.0497  -16.9074   21.8310 C   0  0  0  0  0  0  0  0  0  0  0  0
    7.6237  -15.4895   21.8646 C   0  0  2  0  0  0  0  0  0  0  0  0
    8.7375  -15.4929   20.9248 N   0  0  0  0  0  0  0  0  0  0  0  0
    8.1505  -15.1744   23.2282 C   0  0  0  0  0  0  0  0  0  0  0  0
    9.3876  -15.1269   23.4320 O   0  0  0  0  0  0  0  0  0  0  0  0
    8.2695  -11.7414   26.3153 C   0  0  0  0  0  0  0  0  0  0  0  0
    6.8573  -12.2176   26.0047 C   0  0  2  0  0  0  0  0  0  0  0  0
    5.7846  -11.3240   26.5247 C   0  0  0  0  0  0  0  0  0  0  0  0
    6.6698  -13.6756   26.1781 C   0  0  0  0  0  0  0  0  0  0  0  0
    7.7097  -14.5987   25.6669 C   0  0  2  0  0  0  0  0  0  0  0  0
    7.2763  -14.9280   24.2964 N   0  0  0  0  0  0  0  0  0  0  0  0
    7.8777  -15.8776   26.3498 C   0  0  0  0  0  0  0  0  0  0  0  0
    8.2941  -15.9361   27.5314 O   0  0  0  0  0  0  0  0  0  0  0  0
    7.5858  -17.1510   25.7361 N   0  0  0  0  0  0  0  0  0  0  0  0
    7.6802  -18.3662   26.4876 C   0  0  0  0  0  0  0  0  0  0  0  0
    9.0741  -18.7901   26.7332 C   0  0  0  0  0  0  0  0  0  0  0  0
    9.3815  -20.0116   27.2897 O   0  0  0  0  0  0  0  0  0  0  0  0
   10.0142  -18.0175   26.4275 O   0  0  0  0  0  0  0  0  0  0  0  0
  2  1  1  0
  3  2  1  0
  3  4  1  6
  5  3  1  0
  5  6  2  0
  8  7  1  1
  8 10  1  0
  9  8  1  0
 11 10  1  1
 11 12  1  0
 12  5  1  0
 13 11  1  0
 13 15  1  0
 14 13  2  0
 16 15  1  0
 16 17  1  0
 17 19  2  0
 17 18  1  0
M  END
$$$$
