SLG.pdb
     RDKit          3D

 19 18  0  0  1  0  0  0  0  0999 V2000
    6.1553  -17.2099   20.6190 O   0  0  0  0  0  0  0  0  0  0  0  0
    7.0126  -16.7638   21.6223 C   0  0  0  0  0  0  0  0  0  0  0  0
    6.8124  -15.2578   21.8042 C   0  0  2  0  0  0  0  0  0  0  0  0
    7.1407  -14.6583   20.5171 N   0  0  0  0  0  0  0  0  0  0  0  0
    7.7595  -14.7283   22.8331 C   0  0  0  0  0  0  0  0  0  0  0  0
    8.8844  -14.2907   22.4905 O   0  0  0  0  0  0  0  0  0  0  0  0
    7.4572  -11.2252   25.5866 C   0  0  0  0  0  0  0  0  0  0  0  0
    6.5447  -12.3578   26.0361 C   0  0  2  0  0  0  0  0  0  0  0  0
    5.5225  -11.9541   27.0419 C   0  0  0  0  0  0  0  0  0  0  0  0
    7.2531  -13.6374   26.2640 C   0  0  0  0  0  0  0  0  0  0  0  0
    8.2311  -14.1058   25.2546 C   0  0  2  0  0  0  0  0  0  0  0  0
    7.4091  -14.7118   24.1907 N   0  0  0  0  0  0  0  0  0  0  0  0
    9.1830  -15.1360   25.6581 C   0  0  0  0  0  0  0  0  0  0  0  0
    9.9936  -14.9436   26.5956 O   0  0  0  0  0  0  0  0  0  0  0  0
    9.2686  -16.4309   25.0262 N   0  0  0  0  0  0  0  0  0  0  0  0
   10.1153  -17.4539   25.5618 C   0  0  0  0  0  0  0  0  0  0  0  0
   11.4720  -17.4499   24.9769 C   0  0  0  0  0  0  0  0  0  0  0  0
   12.0123  -18.5622   24.3710 O   0  0  0  0  0  0  0  0  0  0  0  0
   12.1609  -16.4027   25.0298 O   0  0  0  0  0  0  0  0  0  0  0  0
  2  1  1  0
  3  2  1  0
  3  4  1  6
  5  3  1  0
  5  6  2  0
  8  7  1  1
  8 10  1  0
  9  8  1  0
 11 10  1  1
 11 12  1  0
 12  5  1  0
 13 11  1  0
 13 15  1  0
 14 13  2  0
 16 15  1  0
 16 17  1  0
 17 19  2  0
 17 18  1  0
M  END
$$$$
