YRY.pdb
     RDKit          3D

 36 37  0  0  1  0  0  0  0  0999 V2000
   22.1189  -31.8317  -11.7517 O   0  0  0  0  0  0  0  0  0  0  0  0
   21.7836  -30.4993  -12.0653 C   0  0  0  0  0  0  0  0  0  0  0  0
   21.5489  -30.1291  -13.3753 C   0  0  0  0  0  0  0  0  0  0  0  0
   21.2227  -28.8192  -13.6502 C   0  0  0  0  0  0  0  0  0  0  0  0
   21.1213  -27.8580  -12.6625 C   0  0  0  0  0  0  0  0  0  0  0  0
   20.7640  -26.4335  -12.9920 C   0  0  0  0  0  0  0  0  0  0  0  0
   21.9638  -25.8556  -13.6830 C   0  0  2  0  0  0  0  0  0  0  0  0
   23.1110  -25.9189  -12.8006 N   0  0  0  0  0  0  0  0  0  0  0  0
   21.7749  -24.4518  -14.1248 C   0  0  0  0  0  0  0  0  0  0  0  0
   21.5031  -23.5156  -13.3247 O   0  0  0  0  0  0  0  0  0  0  0  0
   21.3618  -28.2614  -11.3680 C   0  0  0  0  0  0  0  0  0  0  0  0
   21.6889  -29.5677  -11.0766 C   0  0  0  0  0  0  0  0  0  0  0  0
   26.1040  -23.0817  -20.9901 N   0  0  0  0  0  0  0  0  0  0  0  0
   26.0614  -23.7627  -19.7273 C   0  0  0  0  0  0  0  0  0  0  0  0
   27.0546  -24.4651  -19.3075 N   0  0  0  0  0  0  0  0  0  0  0  0
   24.9115  -23.6828  -18.8938 N   0  0  0  0  0  0  0  0  0  0  0  0
   23.6299  -23.3144  -19.4087 C   0  0  0  0  0  0  0  0  0  0  0  0
   22.5193  -23.3761  -18.3660 C   0  0  0  0  0  0  0  0  0  0  0  0
   22.9458  -22.7532  -17.0815 C   0  0  0  0  0  0  0  0  0  0  0  0
   21.8726  -22.7979  -16.0259 C   0  0  2  0  0  0  0  0  0  0  0  0
   21.9025  -24.1469  -15.4865 N   0  0  0  0  0  0  0  0  0  0  0  0
   20.5457  -22.3757  -16.4455 C   0  0  0  0  0  0  0  0  0  0  0  0
   20.3279  -21.2014  -16.8415 O   0  0  0  0  0  0  0  0  0  0  0  0
   26.9354  -24.9816  -18.4095 O   0  0  0  0  0  0  0  0  0  0  0  0
   12.9809  -19.5938  -18.9745 C   0  0  0  0  0  0  0  0  0  0  0  0
   14.2290  -20.0283  -18.5628 C   0  0  0  0  0  0  0  0  0  0  0  0
   15.1237  -20.4880  -19.5170 C   0  0  0  0  0  0  0  0  0  0  0  0
   16.3627  -20.9206  -19.1188 C   0  0  0  0  0  0  0  0  0  0  0  0
   16.7611  -20.9186  -17.8029 C   0  0  0  0  0  0  0  0  0  0  0  0
   18.0887  -21.3795  -17.3404 C   0  0  2  0  0  0  0  0  0  0  0  0
   18.0921  -22.8205  -16.9496 N   0  0  0  0  0  0  0  0  0  0  0  0
   19.4007  -23.2392  -16.4441 C   0  0  0  0  0  0  0  0  0  0  0  0
   17.5931  -23.7489  -17.9633 O   0  0  0  0  0  0  0  0  0  0  0  0
   16.2247  -23.8307  -18.2830 C   0  0  0  0  0  0  0  0  0  0  0  0
   15.8564  -20.4558  -16.8551 C   0  0  0  0  0  0  0  0  0  0  0  0
   14.6115  -20.0188  -17.2354 O   0  0  0  0  0  0  0  0  0  0  0  0
  2 12  2  0
  2  1  1  0
  3  2  1  0
  4  5  1  0
  4  3  2  0
  5 11  2  0
  6  5  1  0
  7  6  1  0
  7  8  1  1
  9  7  1  0
  9 10  2  0
 11 12  1  0
 14 13  1  0
 15 14  2  0
 16 14  1  0
 17 16  1  0
 18 17  1  0
 18 19  1  0
 20 19  1  6
 20 21  1  0
 21  9  1  0
 22 20  1  0
 23 22  2  0
 24 25  1  0
 25 26  2  0
 25 35  1  0
 26 27  1  0
 27 28  2  0
 28 29  1  0
 30 29  1  1
 30 31  1  0
 31 22  1  0
 32 33  1  0
 32 30  1  0
 34 28  1  0
 35 34  2  0
 36 32  2  0
M  END
$$$$
