YRY.pdb
     RDKit          3D

 36 37  0  0  1  0  0  0  0  0999 V2000
   21.9926  -12.2234  -23.1433 O   0  0  0  0  0  0  0  0  0  0  0  0
   22.0870  -13.4166  -22.3995 C   0  0  0  0  0  0  0  0  0  0  0  0
   22.1689  -13.3747  -21.0212 C   0  0  0  0  0  0  0  0  0  0  0  0
   22.2598  -14.5581  -20.3218 C   0  0  0  0  0  0  0  0  0  0  0  0
   22.2725  -15.7898  -20.9484 C   0  0  0  0  0  0  0  0  0  0  0  0
   22.3737  -17.0671  -20.1587 C   0  0  0  0  0  0  0  0  0  0  0  0
   23.8403  -17.3418  -20.0029 C   0  0  2  0  0  0  0  0  0  0  0  0
   24.3875  -17.7949  -21.2655 N   0  0  0  0  0  0  0  0  0  0  0  0
   24.1473  -18.3491  -18.9576 C   0  0  0  0  0  0  0  0  0  0  0  0
   24.5497  -19.5131  -19.2291 O   0  0  0  0  0  0  0  0  0  0  0  0
   22.1894  -15.7949  -22.3229 C   0  0  0  0  0  0  0  0  0  0  0  0
   22.0978  -14.6200  -23.0368 C   0  0  0  0  0  0  0  0  0  0  0  0
   29.2408  -21.7791  -15.6293 N   0  0  0  0  0  0  0  0  0  0  0  0
   27.8604  -22.0670  -15.8973 C   0  0  0  0  0  0  0  0  0  0  0  0
   27.4907  -23.2007  -16.3809 N   0  0  0  0  0  0  0  0  0  0  0  0
   26.8496  -21.1010  -15.6353 N   0  0  0  0  0  0  0  0  0  0  0  0
   27.1411  -19.8591  -14.9902 C   0  0  0  0  0  0  0  0  0  0  0  0
   25.8941  -19.0710  -14.6049 C   0  0  0  0  0  0  0  0  0  0  0  0
   25.4065  -18.2380  -15.7400 C   0  0  0  0  0  0  0  0  0  0  0  0
   24.2772  -18.8858  -16.4971 C   0  0  2  0  0  0  0  0  0  0  0  0
   23.9857  -17.9988  -17.6105 N   0  0  0  0  0  0  0  0  0  0  0  0
   23.1010  -19.2336  -15.7158 C   0  0  0  0  0  0  0  0  0  0  0  0
   22.4799  -18.3669  -15.0476 O   0  0  0  0  0  0  0  0  0  0  0  0
   26.4805  -23.3221  -16.6090 O   0  0  0  0  0  0  0  0  0  0  0  0
   17.4775  -23.8765  -10.7224 C   0  0  0  0  0  0  0  0  0  0  0  0
   18.4910  -23.5015  -11.5873 C   0  0  0  0  0  0  0  0  0  0  0  0
   18.2294  -23.4714  -12.9486 C   0  0  0  0  0  0  0  0  0  0  0  0
   19.2273  -23.1011  -13.8134 C   0  0  0  0  0  0  0  0  0  0  0  0
   20.4876  -22.7550  -13.3867 C   0  0  0  0  0  0  0  0  0  0  0  0
   21.5858  -22.3527  -14.2929 C   0  0  2  0  0  0  0  0  0  0  0  0
   21.4825  -20.9264  -14.7220 N   0  0  0  0  0  0  0  0  0  0  0  0
   22.5614  -20.5603  -15.6414 C   0  0  0  0  0  0  0  0  0  0  0  0
   21.3539  -19.9511  -13.6400 O   0  0  0  0  0  0  0  0  0  0  0  0
   20.0986  -19.4702  -13.2219 C   0  0  0  0  0  0  0  0  0  0  0  0
   20.7386  -22.7888  -12.0204 C   0  0  0  0  0  0  0  0  0  0  0  0
   19.7517  -23.1571  -11.1397 O   0  0  0  0  0  0  0  0  0  0  0  0
  2 12  2  0
  2  1  1  0
  3  2  1  0
  4  5  1  0
  4  3  2  0
  5 11  2  0
  6  5  1  0
  7  6  1  0
  7  8  1  6
  9  7  1  0
  9 10  2  0
 11 12  1  0
 14 13  1  0
 15 14  2  0
 16 14  1  0
 17 16  1  0
 18 17  1  0
 18 19  1  0
 20 19  1  1
 20 21  1  0
 21  9  1  0
 22 20  1  0
 23 22  2  0
 24 25  1  0
 25 26  2  0
 25 35  1  0
 26 27  1  0
 27 28  2  0
 28 29  1  0
 30 29  1  6
 30 31  1  0
 31 22  1  0
 32 33  1  0
 32 30  1  0
 34 28  1  0
 35 34  2  0
 36 32  2  0
M  END
$$$$
