YRY.pdb
     RDKit          3D

 36 37  0  0  1  0  0  0  0  0999 V2000
   31.8532  -28.8828  -20.1950 O   0  0  0  0  0  0  0  0  0  0  0  0
   31.0924  -29.7945  -19.4361 C   0  0  0  0  0  0  0  0  0  0  0  0
   30.2149  -29.3376  -18.4721 C   0  0  0  0  0  0  0  0  0  0  0  0
   29.4847  -30.2533  -17.7466 C   0  0  0  0  0  0  0  0  0  0  0  0
   29.5970  -31.6161  -17.9469 C   0  0  0  0  0  0  0  0  0  0  0  0
   28.7872  -32.5941  -17.1387 C   0  0  0  0  0  0  0  0  0  0  0  0
   29.3997  -32.6059  -15.7693 C   0  0  2  0  0  0  0  0  0  0  0  0
   30.7393  -33.1531  -15.8399 N   0  0  0  0  0  0  0  0  0  0  0  0
   28.6163  -33.3811  -14.7757 C   0  0  0  0  0  0  0  0  0  0  0  0
   29.1193  -34.3071  -14.0829 O   0  0  0  0  0  0  0  0  0  0  0  0
   30.4810  -32.0367  -18.9154 C   0  0  0  0  0  0  0  0  0  0  0  0
   31.2184  -31.1335  -19.6495 C   0  0  0  0  0  0  0  0  0  0  0  0
   28.2242  -33.1659   -7.1633 N   0  0  0  0  0  0  0  0  0  0  0  0
   27.7860  -34.4543   -7.6197 C   0  0  0  0  0  0  0  0  0  0  0  0
   27.8707  -35.4980   -6.8717 N   0  0  0  0  0  0  0  0  0  0  0  0
   27.2406  -34.6199   -8.9230 N   0  0  0  0  0  0  0  0  0  0  0  0
   26.9679  -33.5046   -9.7745 C   0  0  0  0  0  0  0  0  0  0  0  0
   26.3120  -33.8977  -11.0936 C   0  0  0  0  0  0  0  0  0  0  0  0
   27.0488  -33.3285  -12.2568 C   0  0  0  0  0  0  0  0  0  0  0  0
   26.4179  -33.6821  -13.5778 C   0  0  2  0  0  0  0  0  0  0  0  0
   27.2606  -33.0764  -14.5948 N   0  0  0  0  0  0  0  0  0  0  0  0
   25.0102  -33.3474  -13.7234 C   0  0  0  0  0  0  0  0  0  0  0  0
   24.6394  -32.1685  -13.9602 O   0  0  0  0  0  0  0  0  0  0  0  0
   27.5183  -36.3997   -7.2592 O   0  0  0  0  0  0  0  0  0  0  0  0
   18.7122  -33.8655  -19.3842 C   0  0  0  0  0  0  0  0  0  0  0  0
   19.8050  -33.9179  -18.5362 C   0  0  0  0  0  0  0  0  0  0  0  0
   20.3626  -35.1528  -18.2419 C   0  0  0  0  0  0  0  0  0  0  0  0
   21.4455  -35.2149  -17.4027 C   0  0  0  0  0  0  0  0  0  0  0  0
   22.0083  -34.0964  -16.8348 C   0  0  0  0  0  0  0  0  0  0  0  0
   23.1747  -34.1292  -15.9251 C   0  0  2  0  0  0  0  0  0  0  0  0
   22.7827  -34.3041  -14.4951 N   0  0  0  0  0  0  0  0  0  0  0  0
   23.9505  -34.3074  -13.6122 C   0  0  0  0  0  0  0  0  0  0  0  0
   21.9046  -35.4400  -14.2174 O   0  0  0  0  0  0  0  0  0  0  0  0
   22.3021  -36.4943  -13.3736 C   0  0  0  0  0  0  0  0  0  0  0  0
   21.4415  -32.8642  -17.1365 C   0  0  0  0  0  0  0  0  0  0  0  0
   20.3570  -32.7828  -17.9747 O   0  0  0  0  0  0  0  0  0  0  0  0
  2 12  2  0
  2  1  1  0
  3  2  1  0
  4  5  1  0
  4  3  2  0
  5 11  2  0
  6  5  1  0
  7  6  1  0
  7  8  1  6
  9  7  1  0
  9 10  2  0
 11 12  1  0
 14 13  1  0
 15 14  2  0
 16 14  1  0
 17 16  1  0
 18 17  1  0
 18 19  1  0
 20 19  1  1
 20 21  1  0
 21  9  1  0
 22 20  1  0
 23 22  2  0
 24 25  1  0
 25 26  2  0
 25 35  1  0
 26 27  1  0
 27 28  2  0
 28 29  1  0
 30 29  1  1
 30 31  1  0
 31 22  1  0
 32 33  1  0
 32 30  1  0
 34 28  1  0
 35 34  2  0
 36 32  2  0
M  END
$$$$
