YRY.pdb
     RDKit          3D

 36 37  0  0  1  0  0  0  0  0999 V2000
   29.3407  -16.7897  -23.1386 O   0  0  0  0  0  0  0  0  0  0  0  0
   28.2123  -17.1690  -22.3844 C   0  0  0  0  0  0  0  0  0  0  0  0
   28.2127  -17.0286  -21.0102 C   0  0  0  0  0  0  0  0  0  0  0  0
   27.0946  -17.4081  -20.3004 C   0  0  0  0  0  0  0  0  0  0  0  0
   25.9689  -17.9257  -20.9126 C   0  0  0  0  0  0  0  0  0  0  0  0
   24.7614  -18.3331  -20.1117 C   0  0  0  0  0  0  0  0  0  0  0  0
   24.9556  -19.7830  -19.7793 C   0  0  2  0  0  0  0  0  0  0  0  0
   24.7464  -20.5867  -20.9664 N   0  0  0  0  0  0  0  0  0  0  0  0
   24.0561  -20.2709  -18.7047 C   0  0  0  0  0  0  0  0  0  0  0  0
   22.8359  -20.5232  -18.8988 O   0  0  0  0  0  0  0  0  0  0  0  0
   26.0028  -18.0522  -22.2833 C   0  0  0  0  0  0  0  0  0  0  0  0
   27.1133  -17.6771  -23.0076 C   0  0  0  0  0  0  0  0  0  0  0  0
   29.9514  -22.9286  -17.7249 N   0  0  0  0  0  0  0  0  0  0  0  0
   28.8516  -22.0929  -17.3345 C   0  0  0  0  0  0  0  0  0  0  0  0
   28.3868  -21.1830  -18.1166 N   0  0  0  0  0  0  0  0  0  0  0  0
   28.2363  -22.2447  -16.0610 N   0  0  0  0  0  0  0  0  0  0  0  0
   27.1895  -21.3768  -15.6201 C   0  0  0  0  0  0  0  0  0  0  0  0
   25.8262  -22.0567  -15.5593 C   0  0  0  0  0  0  0  0  0  0  0  0
   24.7599  -21.0989  -15.1523 C   0  0  0  0  0  0  0  0  0  0  0  0
   23.7778  -20.8138  -16.2579 C   0  0  2  0  0  0  0  0  0  0  0  0
   24.5782  -20.4614  -17.4184 N   0  0  0  0  0  0  0  0  0  0  0  0
   22.7418  -19.8389  -15.9565 C   0  0  0  0  0  0  0  0  0  0  0  0
   22.9101  -18.6133  -16.1868 O   0  0  0  0  0  0  0  0  0  0  0  0
   28.8425  -21.0672  -19.0473 O   0  0  0  0  0  0  0  0  0  0  0  0
   17.3817  -21.8730  -20.2994 C   0  0  0  0  0  0  0  0  0  0  0  0
   18.0407  -21.0576  -19.3956 C   0  0  0  0  0  0  0  0  0  0  0  0
   19.4215  -21.1428  -19.3037 C   0  0  0  0  0  0  0  0  0  0  0  0
   20.0833  -20.3390  -18.4111 C   0  0  0  0  0  0  0  0  0  0  0  0
   19.4324  -19.4438  -17.5956 C   0  0  0  0  0  0  0  0  0  0  0  0
   20.1159  -18.5641  -16.6219 C   0  0  1  0  0  0  0  0  0  0  0  0
   20.3559  -19.2366  -15.3106 N   0  0  0  0  0  0  0  0  0  0  0  0
   21.4717  -20.1814  -15.3852 C   0  0  0  0  0  0  0  0  0  0  0  0
   19.1809  -19.8510  -14.6938 O   0  0  0  0  0  0  0  0  0  0  0  0
   17.9967  -19.1236  -14.4695 C   0  0  0  0  0  0  0  0  0  0  0  0
   18.0486  -19.3668  -17.6960 C   0  0  0  0  0  0  0  0  0  0  0  0
   17.3692  -20.1638  -18.5840 O   0  0  0  0  0  0  0  0  0  0  0  0
  2 12  2  0
  2  1  1  0
  3  2  1  0
  4  5  1  0
  4  3  2  0
  5 11  2  0
  6  5  1  0
  7  6  1  0
  7  8  1  6
  9  7  1  0
  9 10  2  0
 11 12  1  0
 14 13  1  0
 15 14  2  0
 16 14  1  0
 17 16  1  0
 18 17  1  0
 18 19  1  0
 20 19  1  1
 20 21  1  0
 21  9  1  0
 22 20  1  0
 23 22  2  0
 24 25  1  0
 25 26  2  0
 25 35  1  0
 26 27  1  0
 27 28  2  0
 28 29  1  0
 30 29  1  1
 30 31  1  0
 31 22  1  0
 32 33  1  0
 32 30  1  0
 34 28  1  0
 35 34  2  0
 36 32  2  0
M  END
$$$$
