YRY.pdb
     RDKit          3D

 36 37  0  0  1  0  0  0  0  0999 V2000
   28.7666  -12.9348  -17.6709 O   0  0  0  0  0  0  0  0  0  0  0  0
   27.6345  -13.7504  -17.4733 C   0  0  0  0  0  0  0  0  0  0  0  0
   26.5494  -13.6548  -18.3228 C   0  0  0  0  0  0  0  0  0  0  0  0
   25.4574  -14.4658  -18.1041 C   0  0  0  0  0  0  0  0  0  0  0  0
   25.4057  -15.3741  -17.0638 C   0  0  0  0  0  0  0  0  0  0  0  0
   24.1987  -16.2471  -16.8480 C   0  0  0  0  0  0  0  0  0  0  0  0
   24.6152  -17.6333  -17.2427 C   0  0  2  0  0  0  0  0  0  0  0  0
   24.8632  -17.6793  -18.6693 N   0  0  0  0  0  0  0  0  0  0  0  0
   23.6165  -18.6743  -16.8953 C   0  0  0  0  0  0  0  0  0  0  0  0
   22.6987  -19.0293  -17.6840 O   0  0  0  0  0  0  0  0  0  0  0  0
   26.5042  -15.4430  -16.2365 C   0  0  0  0  0  0  0  0  0  0  0  0
   27.6041  -14.6390  -16.4419 C   0  0  0  0  0  0  0  0  0  0  0  0
   23.7357  -26.0926  -15.2031 N   0  0  0  0  0  0  0  0  0  0  0  0
   24.8496  -25.1936  -15.3094 C   0  0  0  0  0  0  0  0  0  0  0  0
   25.8237  -25.4214  -16.1188 N   0  0  0  0  0  0  0  0  0  0  0  0
   24.9131  -24.0137  -14.5173 N   0  0  0  0  0  0  0  0  0  0  0  0
   23.8857  -23.6759  -13.5825 C   0  0  0  0  0  0  0  0  0  0  0  0
   22.9435  -22.5886  -14.0871 C   0  0  0  0  0  0  0  0  0  0  0  0
   23.6984  -21.4019  -14.5790 C   0  0  0  0  0  0  0  0  0  0  0  0
   22.8075  -20.3609  -15.2042 C   0  0  2  0  0  0  0  0  0  0  0  0
   23.6909  -19.2926  -15.6401 N   0  0  0  0  0  0  0  0  0  0  0  0
   21.6997  -19.8933  -14.3863 C   0  0  0  0  0  0  0  0  0  0  0  0
   21.8930  -19.3925  -13.2482 O   0  0  0  0  0  0  0  0  0  0  0  0
   26.6383  -24.7712  -16.0892 O   0  0  0  0  0  0  0  0  0  0  0  0
   21.0950  -13.5934  -15.4090 C   0  0  0  0  0  0  0  0  0  0  0  0
   20.4273  -14.7892  -15.2086 C   0  0  0  0  0  0  0  0  0  0  0  0
   20.3942  -15.7158  -16.2394 C   0  0  0  0  0  0  0  0  0  0  0  0
   19.7350  -16.9035  -16.0503 C   0  0  0  0  0  0  0  0  0  0  0  0
   19.0996  -17.2194  -14.8727 C   0  0  0  0  0  0  0  0  0  0  0  0
   18.3792  -18.4900  -14.6371 C   0  0  2  0  0  0  0  0  0  0  0  0
   19.2236  -19.5091  -13.9460 N   0  0  0  0  0  0  0  0  0  0  0  0
   20.3269  -19.9612  -14.7956 C   0  0  0  0  0  0  0  0  0  0  0  0
   18.4991  -20.6414  -13.3703 O   0  0  0  0  0  0  0  0  0  0  0  0
   18.8143  -21.9712  -13.7081 C   0  0  0  0  0  0  0  0  0  0  0  0
   19.1392  -16.2834  -13.8464 C   0  0  0  0  0  0  0  0  0  0  0  0
   19.7944  -15.0889  -14.0179 O   0  0  0  0  0  0  0  0  0  0  0  0
  2 12  2  0
  2  1  1  0
  3  2  1  0
  4  5  1  0
  4  3  2  0
  5 11  2  0
  6  5  1  0
  7  6  1  0
  7  8  1  6
  9  7  1  0
  9 10  2  0
 11 12  1  0
 14 13  1  0
 15 14  2  0
 16 14  1  0
 17 16  1  0
 18 17  1  0
 18 19  1  0
 20 19  1  1
 20 21  1  0
 21  9  1  0
 22 20  1  0
 23 22  2  0
 24 25  1  0
 25 26  2  0
 25 35  1  0
 26 27  1  0
 27 28  2  0
 28 29  1  0
 30 29  1  1
 30 31  1  0
 31 22  1  0
 32 33  1  0
 32 30  1  0
 34 28  1  0
 35 34  2  0
 36 32  2  0
M  END
$$$$
