YRY.pdb
     RDKit          3D

 36 37  0  0  1  0  0  0  0  0999 V2000
   15.8150  -15.9532  -11.6528 O   0  0  0  0  0  0  0  0  0  0  0  0
   16.9717  -16.7149  -11.9131 C   0  0  0  0  0  0  0  0  0  0  0  0
   17.0016  -18.0626  -11.6119 C   0  0  0  0  0  0  0  0  0  0  0  0
   18.1468  -18.7807  -11.8783 C   0  0  0  0  0  0  0  0  0  0  0  0
   19.2706  -18.2022  -12.4371 C   0  0  0  0  0  0  0  0  0  0  0  0
   20.5088  -19.0111  -12.7166 C   0  0  0  0  0  0  0  0  0  0  0  0
   20.4439  -19.3776  -14.1699 C   0  0  2  0  0  0  0  0  0  0  0  0
   19.3586  -20.3121  -14.3882 N   0  0  0  0  0  0  0  0  0  0  0  0
   21.7007  -19.9719  -14.6884 C   0  0  0  0  0  0  0  0  0  0  0  0
   22.0537  -21.1546  -14.4294 O   0  0  0  0  0  0  0  0  0  0  0  0
   19.2063  -16.8571  -12.7245 C   0  0  0  0  0  0  0  0  0  0  0  0
   18.0684  -16.1251  -12.4643 C   0  0  0  0  0  0  0  0  0  0  0  0
   25.1024  -15.9969  -20.3015 N   0  0  0  0  0  0  0  0  0  0  0  0
   25.7043  -17.2994  -20.3405 C   0  0  0  0  0  0  0  0  0  0  0  0
   26.9277  -17.4651  -20.7035 N   0  0  0  0  0  0  0  0  0  0  0  0
   24.9621  -18.4571  -19.9768 N   0  0  0  0  0  0  0  0  0  0  0  0
   23.5808  -18.3858  -19.6158 C   0  0  0  0  0  0  0  0  0  0  0  0
   23.2403  -19.1918  -18.3672 C   0  0  0  0  0  0  0  0  0  0  0  0
   24.1074  -18.8053  -17.2187 C   0  0  0  0  0  0  0  0  0  0  0  0
   23.8368  -19.6212  -15.9820 C   0  0  2  0  0  0  0  0  0  0  0  0
   22.5347  -19.1919  -15.5006 N   0  0  0  0  0  0  0  0  0  0  0  0
   24.8680  -19.5890  -14.9572 C   0  0  0  0  0  0  0  0  0  0  0  0
   25.0841  -18.5512  -14.2792 O   0  0  0  0  0  0  0  0  0  0  0  0
   27.2936  -18.4409  -20.7368 O   0  0  0  0  0  0  0  0  0  0  0  0
   22.4985  -20.1640   -9.2155 C   0  0  0  0  0  0  0  0  0  0  0  0
   23.5492  -20.4934  -10.0543 C   0  0  0  0  0  0  0  0  0  0  0  0
   24.8451  -20.2397   -9.6317 C   0  0  0  0  0  0  0  0  0  0  0  0
   25.8927  -20.5625  -10.4558 C   0  0  0  0  0  0  0  0  0  0  0  0
   25.7134  -21.1322  -11.6942 C   0  0  0  0  0  0  0  0  0  0  0  0
   26.8209  -21.4908  -12.6074 C   0  0  2  0  0  0  0  0  0  0  0  0
   26.8980  -20.5920  -13.7971 N   0  0  0  0  0  0  0  0  0  0  0  0
   25.7061  -20.7085  -14.6392 C   0  0  0  0  0  0  0  0  0  0  0  0
   28.1212  -20.7019  -14.5909 O   0  0  0  0  0  0  0  0  0  0  0  0
   28.0867  -20.9915  -15.9681 C   0  0  0  0  0  0  0  0  0  0  0  0
   24.4105  -21.3820  -12.1076 C   0  0  0  0  0  0  0  0  0  0  0  0
   23.3493  -21.0653  -11.2958 O   0  0  0  0  0  0  0  0  0  0  0  0
  2 12  2  0
  2  1  1  0
  3  2  1  0
  4  5  1  0
  4  3  2  0
  5 11  2  0
  6  5  1  0
  7  6  1  0
  7  8  1  1
  9  7  1  0
  9 10  2  0
 11 12  1  0
 14 13  1  0
 15 14  2  0
 16 14  1  0
 17 16  1  0
 18 17  1  0
 18 19  1  0
 20 19  1  6
 20 21  1  0
 21  9  1  0
 22 20  1  0
 23 22  2  0
 24 25  1  0
 25 26  2  0
 25 35  1  0
 26 27  1  0
 27 28  2  0
 28 29  1  0
 30 29  1  1
 30 31  1  0
 31 22  1  0
 32 33  1  0
 32 30  1  0
 34 28  1  0
 35 34  2  0
 36 32  2  0
M  END
$$$$
