YRY.pdb
     RDKit          3D

 36 37  0  0  1  0  0  0  0  0999 V2000
   22.2589  -14.1940  -22.1053 O   0  0  0  0  0  0  0  0  0  0  0  0
   22.3952  -15.5952  -22.0412 C   0  0  0  0  0  0  0  0  0  0  0  0
   21.8328  -16.3960  -23.0162 C   0  0  0  0  0  0  0  0  0  0  0  0
   21.9835  -17.7624  -22.9263 C   0  0  0  0  0  0  0  0  0  0  0  0
   22.6780  -18.3648  -21.8945 C   0  0  0  0  0  0  0  0  0  0  0  0
   22.8261  -19.8608  -21.8210 C   0  0  0  0  0  0  0  0  0  0  0  0
   24.2908  -20.1223  -21.6289 C   0  0  2  0  0  0  0  0  0  0  0  0
   25.0203  -19.6918  -22.8042 N   0  0  0  0  0  0  0  0  0  0  0  0
   24.6090  -21.5468  -21.3616 C   0  0  0  0  0  0  0  0  0  0  0  0
   24.8511  -22.3757  -22.2806 O   0  0  0  0  0  0  0  0  0  0  0  0
   23.2255  -17.5369  -20.9399 C   0  0  0  0  0  0  0  0  0  0  0  0
   23.0838  -16.1685  -21.0157 C   0  0  0  0  0  0  0  0  0  0  0  0
   28.2674  -27.1715  -16.3567 N   0  0  0  0  0  0  0  0  0  0  0  0
   29.1392  -26.4454  -17.2358 C   0  0  0  0  0  0  0  0  0  0  0  0
   30.1809  -26.9941  -17.7552 N   0  0  0  0  0  0  0  0  0  0  0  0
   28.8779  -25.0859  -17.5632 N   0  0  0  0  0  0  0  0  0  0  0  0
   27.6821  -24.4247  -17.1433 C   0  0  0  0  0  0  0  0  0  0  0  0
   26.5305  -24.5737  -18.1312 C   0  0  0  0  0  0  0  0  0  0  0  0
   26.1217  -23.2548  -18.6909 C   0  0  0  0  0  0  0  0  0  0  0  0
   24.9601  -23.3593  -19.6438 C   0  0  2  0  0  0  0  0  0  0  0  0
   24.6436  -21.9959  -20.0347 N   0  0  0  0  0  0  0  0  0  0  0  0
   23.8057  -24.1028  -19.1648 C   0  0  0  0  0  0  0  0  0  0  0  0
   23.1880  -23.7533  -18.1257 O   0  0  0  0  0  0  0  0  0  0  0  0
   30.7550  -26.4186  -18.4082 O   0  0  0  0  0  0  0  0  0  0  0  0
   18.8567  -21.4746  -22.4531 C   0  0  0  0  0  0  0  0  0  0  0  0
   19.4050  -22.6416  -21.9497 C   0  0  0  0  0  0  0  0  0  0  0  0
   20.4685  -23.2236  -22.6226 C   0  0  0  0  0  0  0  0  0  0  0  0
   21.0185  -24.3799  -22.1316 C   0  0  0  0  0  0  0  0  0  0  0  0
   20.5580  -24.9937  -20.9907 C   0  0  0  0  0  0  0  0  0  0  0  0
   21.1277  -26.2413  -20.4358 C   0  0  2  0  0  0  0  0  0  0  0  0
   22.1046  -25.9867  -19.3358 N   0  0  0  0  0  0  0  0  0  0  0  0
   23.2853  -25.2684  -19.8185 C   0  0  0  0  0  0  0  0  0  0  0  0
   22.4825  -27.1580  -18.5458 O   0  0  0  0  0  0  0  0  0  0  0  0
   21.5174  -27.9975  -17.9581 C   0  0  0  0  0  0  0  0  0  0  0  0
   19.4919  -24.4018  -20.3245 C   0  0  0  0  0  0  0  0  0  0  0  0
   18.9286  -23.2440  -20.8015 O   0  0  0  0  0  0  0  0  0  0  0  0
  2 12  2  0
  2  1  1  0
  3  2  1  0
  4  5  1  0
  4  3  2  0
  5 11  2  0
  6  5  1  0
  7  6  1  0
  7  8  1  6
  9  7  1  0
  9 10  2  0
 11 12  1  0
 14 13  1  0
 15 14  2  0
 16 14  1  0
 17 16  1  0
 18 17  1  0
 18 19  1  0
 20 19  1  1
 20 21  1  0
 21  9  1  0
 22 20  1  0
 23 22  2  0
 24 25  1  0
 25 26  2  0
 25 35  1  0
 26 27  1  0
 27 28  2  0
 28 29  1  0
 30 29  1  1
 30 31  1  0
 31 22  1  0
 32 33  1  0
 32 30  1  0
 34 28  1  0
 35 34  2  0
 36 32  2  0
M  END
$$$$
