LQP.pdb
     RDKit          3D

 25 25  0  0  1  0  0  0  0  0999 V2000
   18.0826  -21.1542  -12.6343 C   0  0  0  0  0  0  0  0  0  0  0  0
   17.9391  -22.1890  -13.7442 C   0  0  2  0  0  0  0  0  0  0  0  0
   17.0192  -23.2603  -13.2502 C   0  0  0  0  0  0  0  0  0  0  0  0
   19.2845  -22.7359  -14.0985 C   0  0  0  0  0  0  0  0  0  0  0  0
   20.2226  -21.5944  -14.3759 C   0  0  2  0  0  0  0  0  0  0  0  0
   19.8674  -20.8566  -15.5724 N   0  0  0  0  0  0  0  0  0  0  0  0
   21.6288  -22.0900  -14.5620 C   0  0  0  0  0  0  0  0  0  0  0  0
   21.9064  -23.2963  -14.7176 O   0  0  0  0  0  0  0  0  0  0  0  0
   25.7755  -21.0627  -18.4005 N   0  0  0  0  0  0  0  0  0  0  0  0
   24.4016  -20.7199  -18.5188 C   0  0  0  0  0  0  0  0  0  0  0  0
   23.9555  -20.3828  -19.6343 O   0  0  0  0  0  0  0  0  0  0  0  0
   23.4765  -20.7490  -17.3580 C   0  0  0  0  0  0  0  0  0  0  0  0
   23.8336  -21.9195  -16.4435 C   0  0  0  0  0  0  0  0  0  0  0  0
   24.0286  -21.4285  -15.0191 C   0  0  2  0  0  0  0  0  0  0  0  0
   22.6539  -21.1366  -14.5566 N   0  0  0  0  0  0  0  0  0  0  0  0
   24.7802  -20.1584  -14.9416 C   0  0  0  0  0  0  0  0  0  0  0  0
   24.1629  -19.0410  -15.0762 O   0  0  0  0  0  0  0  0  0  0  0  0
   26.1686  -20.0685  -14.7219 N   0  0  0  0  0  0  0  0  0  0  0  0
   27.0695  -21.1939  -14.6150 C   0  0  0  0  0  0  0  0  0  0  0  0
   28.2925  -20.6856  -13.9106 C   0  0  0  0  0  0  0  0  0  0  0  0
   27.9582  -19.2978  -13.4830 C   0  0  0  0  0  0  0  0  0  0  0  0
   26.9584  -18.8416  -14.5467 C   0  0  1  0  0  0  0  0  0  0  0  0
   27.6429  -18.4611  -15.7844 C   0  0  0  0  0  0  0  0  0  0  0  0
   28.2288  -17.2204  -15.9779 O   0  0  0  0  0  0  0  0  0  0  0  0
   27.7315  -19.2729  -16.7595 O   0  0  0  0  0  0  0  0  0  0  0  0
  2  1  1  1
  2  3  1  0
  4  2  1  0
  5  4  1  0
  5  6  1  6
  7  5  1  0
  7  8  2  0
  9 10  1  0
 10 12  1  0
 11 10  2  0
 13 12  1  0
 14 13  1  6
 14 15  1  0
 14 16  1  0
 15  7  1  0
 16 17  2  0
 16 18  1  0
 18 22  1  0
 19 20  1  0
 19 18  1  0
 20 21  1  0
 22 21  1  0
 22 23  1  6
 23 25  2  0
 23 24  1  0
M  END
$$$$
