LQP.pdb
     RDKit          3D

 25 25  0  0  1  0  0  0  0  0999 V2000
   22.3791  -14.0269  -14.3715 C   0  0  0  0  0  0  0  0  0  0  0  0
   22.6619  -13.9079  -15.8645 C   0  0  2  0  0  0  0  0  0  0  0  0
   24.1271  -14.1303  -16.0683 C   0  0  0  0  0  0  0  0  0  0  0  0
   22.2344  -12.5607  -16.3512 C   0  0  0  0  0  0  0  0  0  0  0  0
   20.7508  -12.4152  -16.1577 C   0  0  2  0  0  0  0  0  0  0  0  0
   19.9855  -13.3004  -17.0137 N   0  0  0  0  0  0  0  0  0  0  0  0
   20.3063  -11.0121  -16.4606 C   0  0  0  0  0  0  0  0  0  0  0  0
   20.1387  -10.5912  -17.6230 O   0  0  0  0  0  0  0  0  0  0  0  0
   16.4871   -5.9812  -16.6107 N   0  0  0  0  0  0  0  0  0  0  0  0
   16.6190   -7.1163  -15.7662 C   0  0  0  0  0  0  0  0  0  0  0  0
   15.7472   -8.0080  -15.8097 O   0  0  0  0  0  0  0  0  0  0  0  0
   17.7611   -7.2783  -14.8316 C   0  0  0  0  0  0  0  0  0  0  0  0
   18.2755   -8.7156  -14.8907 C   0  0  0  0  0  0  0  0  0  0  0  0
   19.6536   -8.7511  -15.5292 C   0  0  2  0  0  0  0  0  0  0  0  0
   20.0770  -10.1601  -15.3737 N   0  0  0  0  0  0  0  0  0  0  0  0
   20.6476   -7.9282  -14.8090 C   0  0  0  0  0  0  0  0  0  0  0  0
   21.1772   -8.3681  -13.7255 O   0  0  0  0  0  0  0  0  0  0  0  0
   21.0798   -6.6551  -15.2290 N   0  0  0  0  0  0  0  0  0  0  0  0
   20.5729   -5.9410  -16.3791 C   0  0  0  0  0  0  0  0  0  0  0  0
   21.6132   -4.9183  -16.7286 C   0  0  0  0  0  0  0  0  0  0  0  0
   22.7757   -5.2140  -15.8445 C   0  0  0  0  0  0  0  0  0  0  0  0
   22.1189   -5.8238  -14.6052 C   0  0  1  0  0  0  0  0  0  0  0  0
   21.5368   -4.7850  -13.7524 C   0  0  0  0  0  0  0  0  0  0  0  0
   22.2833   -4.0186  -12.8719 O   0  0  0  0  0  0  0  0  0  0  0  0
   20.2901   -4.5351  -13.7837 O   0  0  0  0  0  0  0  0  0  0  0  0
  2  1  1  1
  2  3  1  0
  4  2  1  0
  5  4  1  0
  5  6  1  6
  7  5  1  0
  7  8  2  0
  9 10  1  0
 10 12  1  0
 11 10  2  0
 13 12  1  0
 14 13  1  1
 14 15  1  0
 14 16  1  0
 15  7  1  0
 16 17  2  0
 16 18  1  0
 18 22  1  0
 19 20  1  0
 19 18  1  0
 20 21  1  0
 22 21  1  0
 22 23  1  1
 23 25  2  0
 23 24  1  0
M  END
$$$$
