LQP.pdb
     RDKit          3D

 25 25  0  0  1  0  0  0  0  0999 V2000
   27.1624  -18.6600   -6.6164 C   0  0  0  0  0  0  0  0  0  0  0  0
   27.0274  -20.1769   -6.5538 C   0  0  2  0  0  0  0  0  0  0  0  0
   28.0042  -20.6782   -5.5376 C   0  0  0  0  0  0  0  0  0  0  0  0
   27.2871  -20.7609   -7.9051 C   0  0  0  0  0  0  0  0  0  0  0  0
   26.3119  -20.1776   -8.8893 C   0  0  2  0  0  0  0  0  0  0  0  0
   24.9495  -20.6130   -8.6519 N   0  0  0  0  0  0  0  0  0  0  0  0
   26.6660  -20.5759  -10.2942 C   0  0  0  0  0  0  0  0  0  0  0  0
   27.8436  -20.6643  -10.6963 O   0  0  0  0  0  0  0  0  0  0  0  0
   24.9466  -24.7770  -13.4945 N   0  0  0  0  0  0  0  0  0  0  0  0
   24.7938  -23.8928  -14.5962 C   0  0  0  0  0  0  0  0  0  0  0  0
   24.7926  -24.3610  -15.7528 O   0  0  0  0  0  0  0  0  0  0  0  0
   24.6352  -22.4274  -14.4182 C   0  0  0  0  0  0  0  0  0  0  0  0
   24.6330  -22.0865  -12.9290 C   0  0  0  0  0  0  0  0  0  0  0  0
   25.8137  -21.1900  -12.5969 C   0  0  2  0  0  0  0  0  0  0  0  0
   25.6102  -20.8547  -11.1703 N   0  0  0  0  0  0  0  0  0  0  0  0
   25.7980  -19.9120  -13.3388 C   0  0  0  0  0  0  0  0  0  0  0  0
   25.0359  -18.9555  -12.9485 O   0  0  0  0  0  0  0  0  0  0  0  0
   26.5801  -19.6454  -14.4795 N   0  0  0  0  0  0  0  0  0  0  0  0
   27.5017  -20.5747  -15.0932 C   0  0  0  0  0  0  0  0  0  0  0  0
   28.4416  -19.7478  -15.9198 C   0  0  0  0  0  0  0  0  0  0  0  0
   28.1129  -18.3303  -15.5987 C   0  0  0  0  0  0  0  0  0  0  0  0
   26.6257  -18.3931  -15.2473 C   0  0  1  0  0  0  0  0  0  0  0  0
   25.8018  -18.4726  -16.4556 C   0  0  0  0  0  0  0  0  0  0  0  0
   25.5656  -17.3892  -17.2866 O   0  0  0  0  0  0  0  0  0  0  0  0
   25.2537  -19.5665  -16.8033 O   0  0  0  0  0  0  0  0  0  0  0  0
  2  1  1  6
  2  3  1  0
  4  2  1  0
  5  4  1  0
  5  6  1  1
  7  5  1  0
  7  8  2  0
  9 10  1  0
 10 12  1  0
 11 10  2  0
 13 12  1  0
 14 13  1  6
 14 15  1  0
 14 16  1  0
 15  7  1  0
 16 17  2  0
 16 18  1  0
 18 22  1  0
 19 20  1  0
 19 18  1  0
 20 21  1  0
 22 21  1  0
 22 23  1  6
 23 25  2  0
 23 24  1  0
M  END
$$$$
