LQP.pdb
     RDKit          3D

 25 25  0  0  1  0  0  0  0  0999 V2000
   29.3079  -18.3575  -16.6777 C   0  0  0  0  0  0  0  0  0  0  0  0
   28.6598  -19.3172  -17.6688 C   0  0  2  0  0  0  0  0  0  0  0  0
   28.3079  -18.5350  -18.8945 C   0  0  0  0  0  0  0  0  0  0  0  0
   27.4530  -19.9428  -17.0469 C   0  0  0  0  0  0  0  0  0  0  0  0
   27.8762  -20.7420  -15.8461 C   0  0  2  0  0  0  0  0  0  0  0  0
   28.6489  -21.9166  -16.1998 N   0  0  0  0  0  0  0  0  0  0  0  0
   26.6802  -21.2157  -15.0695 C   0  0  0  0  0  0  0  0  0  0  0  0
   26.0629  -22.2630  -15.3492 O   0  0  0  0  0  0  0  0  0  0  0  0
   25.3829  -21.5380   -9.7206 N   0  0  0  0  0  0  0  0  0  0  0  0
   24.1344  -20.9113   -9.9804 C   0  0  0  0  0  0  0  0  0  0  0  0
   23.1593  -21.1776   -9.2488 O   0  0  0  0  0  0  0  0  0  0  0  0
   23.9497  -19.9480  -11.0949 C   0  0  0  0  0  0  0  0  0  0  0  0
   25.2195  -19.8909  -11.9425 C   0  0  0  0  0  0  0  0  0  0  0  0
   25.0476  -20.7295  -13.1976 C   0  0  2  0  0  0  0  0  0  0  0  0
   26.2607  -20.4296  -13.9896 N   0  0  0  0  0  0  0  0  0  0  0  0
   23.8918  -20.3133  -14.0190 C   0  0  0  0  0  0  0  0  0  0  0  0
   23.9543  -19.2331  -14.7098 O   0  0  0  0  0  0  0  0  0  0  0  0
   22.6833  -21.0309  -14.1123 N   0  0  0  0  0  0  0  0  0  0  0  0
   22.3790  -22.2467  -13.3921 C   0  0  0  0  0  0  0  0  0  0  0  0
   21.2568  -22.9056  -14.1385 C   0  0  0  0  0  0  0  0  0  0  0  0
   21.0788  -22.1023  -15.3809 C   0  0  0  0  0  0  0  0  0  0  0  0
   21.5228  -20.7029  -14.9522 C   0  0  1  0  0  0  0  0  0  0  0  0
   20.4742  -20.0303  -14.1821 C   0  0  0  0  0  0  0  0  0  0  0  0
   19.3470  -19.4701  -14.7614 O   0  0  0  0  0  0  0  0  0  0  0  0
   20.5546  -19.9286  -12.9168 O   0  0  0  0  0  0  0  0  0  0  0  0
  2  1  1  1
  2  3  1  0
  4  2  1  0
  5  4  1  0
  5  6  1  6
  7  5  1  0
  7  8  2  0
  9 10  1  0
 10 12  1  0
 11 10  2  0
 13 12  1  0
 14 13  1  1
 14 15  1  0
 14 16  1  0
 15  7  1  0
 16 17  2  0
 16 18  1  0
 18 22  1  0
 19 20  1  0
 19 18  1  0
 20 21  1  0
 22 21  1  0
 22 23  1  1
 23 25  2  0
 23 24  1  0
M  END
$$$$
