LQP.pdb
     RDKit          3D

 25 25  0  0  1  0  0  0  0  0999 V2000
   26.3803  -13.3743  -17.0916 C   0  0  0  0  0  0  0  0  0  0  0  0
   25.0086  -13.9529  -17.4186 C   0  0  2  0  0  0  0  0  0  0  0  0
   25.1489  -14.7831  -18.6551 C   0  0  0  0  0  0  0  0  0  0  0  0
   24.0263  -12.8420  -17.6072 C   0  0  0  0  0  0  0  0  0  0  0  0
   23.9917  -11.9988  -16.3632 C   0  0  2  0  0  0  0  0  0  0  0  0
   23.4038  -12.6920  -15.2337 N   0  0  0  0  0  0  0  0  0  0  0  0
   23.1860  -10.7500  -16.5850 C   0  0  0  0  0  0  0  0  0  0  0  0
   23.4790   -9.9001  -17.4499 O   0  0  0  0  0  0  0  0  0  0  0  0
   17.3838  -10.6476  -14.3779 N   0  0  0  0  0  0  0  0  0  0  0  0
   17.8384  -11.1660  -15.6203 C   0  0  0  0  0  0  0  0  0  0  0  0
   17.1124  -11.9661  -16.2446 O   0  0  0  0  0  0  0  0  0  0  0  0
   19.1506  -10.7876  -16.2026 C   0  0  0  0  0  0  0  0  0  0  0  0
   19.8771   -9.8313  -15.2582 C   0  0  0  0  0  0  0  0  0  0  0  0
   21.1827   -9.3711  -15.8840 C   0  0  2  0  0  0  0  0  0  0  0  0
   22.0625  -10.5554  -15.7727 N   0  0  0  0  0  0  0  0  0  0  0  0
   21.8374   -8.2843  -15.1262 C   0  0  0  0  0  0  0  0  0  0  0  0
   22.5542   -8.5634  -14.0985 O   0  0  0  0  0  0  0  0  0  0  0  0
   21.7385   -6.9173  -15.4512 N   0  0  0  0  0  0  0  0  0  0  0  0
   20.9074   -6.3683  -16.4986 C   0  0  0  0  0  0  0  0  0  0  0  0
   21.4696   -5.0133  -16.8121 C   0  0  0  0  0  0  0  0  0  0  0  0
   22.7333   -4.9152  -16.0285 C   0  0  0  0  0  0  0  0  0  0  0  0
   22.4551   -5.8032  -14.8147 C   0  0  1  0  0  0  0  0  0  0  0  0
   21.6130   -5.1104  -13.8369 C   0  0  0  0  0  0  0  0  0  0  0  0
   22.1129   -4.2235  -12.8970 O   0  0  0  0  0  0  0  0  0  0  0  0
   20.3553   -5.2973  -13.8073 O   0  0  0  0  0  0  0  0  0  0  0  0
  2  1  1  6
  2  3  1  0
  4  2  1  0
  5  4  1  0
  5  6  1  1
  7  5  1  0
  7  8  2  0
  9 10  1  0
 10 12  1  0
 11 10  2  0
 13 12  1  0
 14 13  1  1
 14 15  1  0
 14 16  1  0
 15  7  1  0
 16 17  2  0
 16 18  1  0
 18 22  1  0
 19 20  1  0
 19 18  1  0
 20 21  1  0
 22 21  1  0
 22 23  1  1
 23 25  2  0
 23 24  1  0
M  END
$$$$
