LQP.pdb
     RDKit          3D

 25 25  0  0  1  0  0  0  0  0999 V2000
   18.9611  -16.6864  -15.4649 C   0  0  0  0  0  0  0  0  0  0  0  0
   19.2632  -16.5933  -16.9560 C   0  0  2  0  0  0  0  0  0  0  0  0
   20.0740  -17.7933  -17.3309 C   0  0  0  0  0  0  0  0  0  0  0  0
   19.9940  -15.3211  -17.2423 C   0  0  0  0  0  0  0  0  0  0  0  0
   19.1244  -14.1565  -16.8584 C   0  0  2  0  0  0  0  0  0  0  0  0
   17.9297  -14.0578  -17.6737 N   0  0  0  0  0  0  0  0  0  0  0  0
   19.8697  -12.8602  -17.0054 C   0  0  0  0  0  0  0  0  0  0  0  0
   21.0103  -12.6779  -16.5340 O   0  0  0  0  0  0  0  0  0  0  0  0
   17.3636   -8.3748  -20.6600 N   0  0  0  0  0  0  0  0  0  0  0  0
   18.4014   -7.6701  -19.9927 C   0  0  0  0  0  0  0  0  0  0  0  0
   18.5429   -6.4498  -20.2120 O   0  0  0  0  0  0  0  0  0  0  0  0
   19.3255   -8.3371  -19.0413 C   0  0  0  0  0  0  0  0  0  0  0  0
   18.9231   -9.8013  -18.8728 C   0  0  0  0  0  0  0  0  0  0  0  0
   19.8059  -10.4688  -17.8320 C   0  0  2  0  0  0  0  0  0  0  0  0
   19.2348  -11.8278  -17.7062 N   0  0  0  0  0  0  0  0  0  0  0  0
   19.7047   -9.8416  -16.4977 C   0  0  0  0  0  0  0  0  0  0  0  0
   18.7080  -10.1156  -15.7365 O   0  0  0  0  0  0  0  0  0  0  0  0
   20.6468   -8.9364  -15.9714 N   0  0  0  0  0  0  0  0  0  0  0  0
   21.8454   -8.4947  -16.6478 C   0  0  0  0  0  0  0  0  0  0  0  0
   22.7587   -7.9687  -15.5803 C   0  0  0  0  0  0  0  0  0  0  0  0
   22.0932   -8.2984  -14.2884 C   0  0  0  0  0  0  0  0  0  0  0  0
   20.6081   -8.2866  -14.6538 C   0  0  1  0  0  0  0  0  0  0  0  0
   20.0987   -6.9164  -14.7445 C   0  0  0  0  0  0  0  0  0  0  0  0
   19.8524   -6.2756  -15.9482 O   0  0  0  0  0  0  0  0  0  0  0  0
   19.8543   -6.2382  -13.6965 O   0  0  0  0  0  0  0  0  0  0  0  0
  2  1  1  1
  2  3  1  0
  4  2  1  0
  5  4  1  0
  5  6  1  6
  7  5  1  0
  7  8  2  0
  9 10  1  0
 10 12  1  0
 11 10  2  0
 13 12  1  0
 14 13  1  6
 14 15  1  0
 14 16  1  0
 15  7  1  0
 16 17  2  0
 16 18  1  0
 18 22  1  0
 19 20  1  0
 19 18  1  0
 20 21  1  0
 22 21  1  0
 22 23  1  6
 23 25  2  0
 23 24  1  0
M  END
$$$$
