KIE.pdb
     RDKit          3D

 27 26  0  0  1  0  0  0  0  0999 V2000
   27.7537  -22.4042  -15.7746 N   0  0  0  0  0  0  0  0  0  0  0  0
   27.2411  -21.1228  -15.3013 C   0  0  1  0  0  0  0  0  0  0  0  0
   26.7694  -20.3898  -16.5340 C   0  0  0  0  0  0  0  0  0  0  0  0
   27.7345  -20.3979  -17.6730 C   0  0  0  0  0  0  0  0  0  0  0  0
   28.1021  -19.0004  -18.1160 C   0  0  0  0  0  0  0  0  0  0  0  0
   29.0980  -19.0077  -19.2454 C   0  0  0  0  0  0  0  0  0  0  0  0
   29.4643  -17.6771  -19.6338 N   0  0  0  0  0  0  0  0  0  0  0  0
   26.0621  -21.3472  -14.4071 C   0  0  0  0  0  0  0  0  0  0  0  0
   25.1733  -22.1646  -14.7577 O   0  0  0  0  0  0  0  0  0  0  0  0
   26.9069  -20.4218   -9.2945 C   0  0  0  0  0  0  0  0  0  0  0  0
   26.2797  -21.3040  -10.3492 C   0  0  0  0  0  0  0  0  0  0  0  0
   25.0828  -20.5338  -10.9140 C   0  0  2  0  0  0  0  0  0  0  0  0
   23.9162  -20.8485  -10.0027 C   0  0  0  0  0  0  0  0  0  0  0  0
   24.7602  -21.0420  -12.3086 C   0  0  2  0  0  0  0  0  0  0  0  0
   25.8917  -20.6899  -13.1872 N   0  0  0  0  0  0  0  0  0  0  0  0
   23.5477  -20.3543  -12.7900 C   0  0  0  0  0  0  0  0  0  0  0  0
   23.5985  -19.0650  -12.8211 O   0  0  0  0  0  0  0  0  0  0  0  0
   22.3464  -20.9367  -13.2244 N   0  0  0  0  0  0  0  0  0  0  0  0
   21.2338  -20.0889  -13.7354 C   0  0  1  0  0  0  0  0  0  0  0  0
   20.6907  -20.7301  -14.9680 C   0  0  0  0  0  0  0  0  0  0  0  0
   19.4298  -20.1963  -15.5218 C   0  0  0  0  0  0  0  0  0  0  0  0
   18.8603  -20.9805  -16.6061 C   0  0  0  0  0  0  0  0  0  0  0  0
   19.3583  -22.0453  -17.0609 O   0  0  0  0  0  0  0  0  0  0  0  0
   20.3472  -19.8309  -12.6195 C   0  0  0  0  0  0  0  0  0  0  0  0
   20.2137  -20.5913  -11.6283 O   0  0  0  0  0  0  0  0  0  0  0  0
   17.6660  -20.5326  -17.1946 O   0  0  0  0  0  0  0  0  0  0  0  0
   19.5410  -18.6738  -12.5523 O   0  0  0  0  0  0  0  0  0  0  0  0
  2  1  1  6
  3  2  1  0
  4  3  1  0
  5  4  1  0
  5  6  1  0
  7  6  1  0
  8  9  2  0
  8  2  1  0
 11 10  1  0
 12 14  1  0
 12 11  1  0
 12 13  1  1
 14 15  1  6
 15  8  1  0
 16 14  1  0
 17 16  2  0
 18 16  1  0
 19 24  1  0
 19 18  1  0
 19 20  1  6
 21 20  1  0
 22 21  1  0
 23 22  2  0
 24 27  1  0
 25 24  2  0
 26 22  1  0
M  END
$$$$
