KIE.pdb
     RDKit          3D

 27 26  0  0  1  0  0  0  0  0999 V2000
   29.0279  -21.7072  -14.4494 N   0  0  0  0  0  0  0  0  0  0  0  0
   28.2826  -20.5902  -13.8787 C   0  0  1  0  0  0  0  0  0  0  0  0
   27.5684  -19.9390  -15.0385 C   0  0  0  0  0  0  0  0  0  0  0  0
   28.4669  -19.3148  -16.0542 C   0  0  0  0  0  0  0  0  0  0  0  0
   28.5277  -20.1211  -17.3310 C   0  0  0  0  0  0  0  0  0  0  0  0
   29.3982  -19.4688  -18.3722 C   0  0  0  0  0  0  0  0  0  0  0  0
   29.0146  -18.1065  -18.6017 N   0  0  0  0  0  0  0  0  0  0  0  0
   27.2538  -21.1036  -12.9206 C   0  0  0  0  0  0  0  0  0  0  0  0
   26.5997  -22.1355  -13.2180 O   0  0  0  0  0  0  0  0  0  0  0  0
   27.4582  -19.7749   -7.6853 C   0  0  0  0  0  0  0  0  0  0  0  0
   27.2227  -20.7313   -8.8316 C   0  0  0  0  0  0  0  0  0  0  0  0
   25.9342  -20.2800   -9.5252 C   0  0  2  0  0  0  0  0  0  0  0  0
   24.7975  -20.7743   -8.6567 C   0  0  0  0  0  0  0  0  0  0  0  0
   25.8281  -20.9433  -10.8875 C   0  0  2  0  0  0  0  0  0  0  0  0
   26.9757  -20.4917  -11.6969 N   0  0  0  0  0  0  0  0  0  0  0  0
   24.5804  -20.4937  -11.5325 C   0  0  0  0  0  0  0  0  0  0  0  0
   24.5948  -19.3043  -12.0337 O   0  0  0  0  0  0  0  0  0  0  0  0
   23.3804  -21.2090  -11.6715 N   0  0  0  0  0  0  0  0  0  0  0  0
   22.2519  -20.6499  -12.4662 C   0  0  1  0  0  0  0  0  0  0  0  0
   22.1641  -21.4114  -13.7461 C   0  0  0  0  0  0  0  0  0  0  0  0
   21.0653  -21.0728  -14.6731 C   0  0  0  0  0  0  0  0  0  0  0  0
   20.1106  -22.1453  -14.9040 C   0  0  0  0  0  0  0  0  0  0  0  0
   20.3251  -23.3629  -14.6590 O   0  0  0  0  0  0  0  0  0  0  0  0
   21.0991  -20.5970  -11.5909 C   0  0  0  0  0  0  0  0  0  0  0  0
   20.9687  -21.2828  -10.5463 O   0  0  0  0  0  0  0  0  0  0  0  0
   18.8527  -21.8132  -15.4337 O   0  0  0  0  0  0  0  0  0  0  0  0
   20.0003  -19.7480  -11.8460 O   0  0  0  0  0  0  0  0  0  0  0  0
  2  1  1  6
  3  2  1  0
  4  3  1  0
  5  4  1  0
  5  6  1  0
  7  6  1  0
  8  9  2  0
  8  2  1  0
 11 10  1  0
 12 14  1  0
 12 11  1  0
 12 13  1  1
 14 15  1  6
 15  8  1  0
 16 14  1  0
 17 16  2  0
 18 16  1  0
 19 24  1  0
 19 18  1  0
 19 20  1  6
 21 20  1  0
 22 21  1  0
 23 22  2  0
 24 27  1  0
 25 24  2  0
 26 22  1  0
M  END
$$$$
