KIE.pdb
     RDKit          3D

 27 26  0  0  1  0  0  0  0  0999 V2000
   28.0921  -22.0973  -15.6261 N   0  0  0  0  0  0  0  0  0  0  0  0
   27.4153  -20.9129  -15.1086 C   0  0  1  0  0  0  0  0  0  0  0  0
   26.7857  -20.2444  -16.3070 C   0  0  0  0  0  0  0  0  0  0  0  0
   27.7576  -19.7043  -17.3031 C   0  0  0  0  0  0  0  0  0  0  0  0
   28.0286  -18.2324  -17.0921 C   0  0  0  0  0  0  0  0  0  0  0  0
   28.9715  -17.6760  -18.1258 C   0  0  0  0  0  0  0  0  0  0  0  0
   29.2398  -16.2858  -17.9005 N   0  0  0  0  0  0  0  0  0  0  0  0
   26.3236  -21.3219  -14.1701 C   0  0  0  0  0  0  0  0  0  0  0  0
   25.5442  -22.2506  -14.5036 O   0  0  0  0  0  0  0  0  0  0  0  0
   26.8609  -20.3865   -8.8676 C   0  0  0  0  0  0  0  0  0  0  0  0
   26.4593  -21.2491  -10.0418 C   0  0  0  0  0  0  0  0  0  0  0  0
   25.2363  -20.5843  -10.6799 C   0  0  2  0  0  0  0  0  0  0  0  0
   24.0582  -20.9476   -9.8020 C   0  0  0  0  0  0  0  0  0  0  0  0
   25.0056  -21.1620  -12.0656 C   0  0  2  0  0  0  0  0  0  0  0  0
   26.1193  -20.7211  -12.9266 N   0  0  0  0  0  0  0  0  0  0  0  0
   23.7433  -20.6158  -12.5976 C   0  0  0  0  0  0  0  0  0  0  0  0
   23.7163  -19.3420  -12.8047 O   0  0  0  0  0  0  0  0  0  0  0  0
   22.5691  -21.3186  -12.9116 N   0  0  0  0  0  0  0  0  0  0  0  0
   21.4007  -20.6146  -13.5089 C   0  0  1  0  0  0  0  0  0  0  0  0
   21.1172  -21.2316  -14.8373 C   0  0  0  0  0  0  0  0  0  0  0  0
   19.9255  -20.7620  -15.5727 C   0  0  0  0  0  0  0  0  0  0  0  0
   19.6141  -21.5188  -16.7749 C   0  0  0  0  0  0  0  0  0  0  0  0
   20.2503  -22.5324  -17.1705 O   0  0  0  0  0  0  0  0  0  0  0  0
   20.3596  -20.5865  -12.5023 C   0  0  0  0  0  0  0  0  0  0  0  0
   20.3174  -21.3472  -11.5032 O   0  0  0  0  0  0  0  0  0  0  0  0
   18.5247  -21.1036  -17.5585 O   0  0  0  0  0  0  0  0  0  0  0  0
   19.2805  -19.6781  -12.5625 O   0  0  0  0  0  0  0  0  0  0  0  0
  2  1  1  6
  3  2  1  0
  4  3  1  0
  5  4  1  0
  5  6  1  0
  7  6  1  0
  8  9  2  0
  8  2  1  0
 11 10  1  0
 12 14  1  0
 12 11  1  0
 12 13  1  1
 14 15  1  6
 15  8  1  0
 16 14  1  0
 17 16  2  0
 18 16  1  0
 19 24  1  0
 19 18  1  0
 19 20  1  6
 21 20  1  0
 22 21  1  0
 23 22  2  0
 24 27  1  0
 25 24  2  0
 26 22  1  0
M  END
$$$$
