KIE.pdb
     RDKit          3D

 27 26  0  0  1  0  0  0  0  0999 V2000
   28.5750  -20.4398  -16.2801 N   0  0  0  0  0  0  0  0  0  0  0  0
   27.9107  -19.6028  -15.2868 C   0  0  1  0  0  0  0  0  0  0  0  0
   27.1839  -18.5361  -16.0700 C   0  0  0  0  0  0  0  0  0  0  0  0
   28.0674  -17.5021  -16.6854 C   0  0  0  0  0  0  0  0  0  0  0  0
   28.2994  -17.7561  -18.1571 C   0  0  0  0  0  0  0  0  0  0  0  0
   29.2446  -16.7528  -18.7631 C   0  0  0  0  0  0  0  0  0  0  0  0
   29.5275  -17.0570  -20.1354 N   0  0  0  0  0  0  0  0  0  0  0  0
   26.8969  -20.4107  -14.5389 C   0  0  0  0  0  0  0  0  0  0  0  0
   26.4314  -21.4522  -15.0679 O   0  0  0  0  0  0  0  0  0  0  0  0
   25.1613  -21.4661   -8.7928 C   0  0  0  0  0  0  0  0  0  0  0  0
   24.8411  -21.6920  -10.2525 C   0  0  0  0  0  0  0  0  0  0  0  0
   25.8190  -20.8311  -11.0572 C   0  0  2  0  0  0  0  0  0  0  0  0
   25.5478  -19.3992  -10.6490 C   0  0  0  0  0  0  0  0  0  0  0  0
   25.5265  -20.9768  -12.5405 C   0  0  2  0  0  0  0  0  0  0  0  0
   26.4324  -20.0676  -13.2678 N   0  0  0  0  0  0  0  0  0  0  0  0
   24.1327  -20.5626  -12.7870 C   0  0  0  0  0  0  0  0  0  0  0  0
   23.8999  -19.2937  -12.7462 O   0  0  0  0  0  0  0  0  0  0  0  0
   23.0300  -21.3852  -13.0671 N   0  0  0  0  0  0  0  0  0  0  0  0
   21.7100  -20.7910  -13.4166 C   0  0  1  0  0  0  0  0  0  0  0  0
   21.3215  -21.2874  -14.7687 C   0  0  0  0  0  0  0  0  0  0  0  0
   22.1984  -20.9416  -15.9058 C   0  0  0  0  0  0  0  0  0  0  0  0
   21.7983  -21.5161  -17.1804 C   0  0  0  0  0  0  0  0  0  0  0  0
   20.8056  -22.2749  -17.3464 O   0  0  0  0  0  0  0  0  0  0  0  0
   20.8262  -21.0251  -12.2932 C   0  0  0  0  0  0  0  0  0  0  0  0
   20.9738  -21.9486  -11.4542 O   0  0  0  0  0  0  0  0  0  0  0  0
   22.5621  -21.2070  -18.3181 O   0  0  0  0  0  0  0  0  0  0  0  0
   19.6987  -20.2133  -12.0422 O   0  0  0  0  0  0  0  0  0  0  0  0
  2  1  1  6
  3  2  1  0
  4  3  1  0
  5  4  1  0
  5  6  1  0
  7  6  1  0
  8  9  2  0
  8  2  1  0
 11 10  1  0
 12 14  1  0
 12 11  1  0
 12 13  1  1
 14 15  1  6
 15  8  1  0
 16 14  1  0
 17 16  2  0
 18 16  1  0
 19 24  1  0
 19 18  1  0
 19 20  1  6
 21 20  1  0
 22 21  1  0
 23 22  2  0
 24 27  1  0
 25 24  2  0
 26 22  1  0
M  END
$$$$
