KIE.pdb
     RDKit          3D

 27 26  0  0  1  0  0  0  0  0999 V2000
   24.8885  -19.6153  -16.0063 N   0  0  0  0  0  0  0  0  0  0  0  0
   24.5306  -18.3426  -15.3892 C   0  0  1  0  0  0  0  0  0  0  0  0
   25.7585  -17.4717  -15.5044 C   0  0  0  0  0  0  0  0  0  0  0  0
   26.9274  -17.9305  -14.6970 C   0  0  0  0  0  0  0  0  0  0  0  0
   27.4375  -19.2787  -15.1511 C   0  0  0  0  0  0  0  0  0  0  0  0
   28.6063  -19.7493  -14.3266 C   0  0  0  0  0  0  0  0  0  0  0  0
   28.9755  -21.0951  -14.6553 N   0  0  0  0  0  0  0  0  0  0  0  0
   23.4224  -17.6982  -16.1616 C   0  0  0  0  0  0  0  0  0  0  0  0
   23.3345  -17.9076  -17.3984 O   0  0  0  0  0  0  0  0  0  0  0  0
   19.8734  -19.1753  -15.1219 C   0  0  0  0  0  0  0  0  0  0  0  0
   19.7919  -18.2561  -16.3187 C   0  0  0  0  0  0  0  0  0  0  0  0
   20.0595  -16.8385  -15.8054 C   0  0  2  0  0  0  0  0  0  0  0  0
   18.9233  -15.9847  -16.3255 C   0  0  0  0  0  0  0  0  0  0  0  0
   21.3625  -16.3210  -16.3900 C   0  0  2  0  0  0  0  0  0  0  0  0
   22.4665  -16.8654  -15.5769 N   0  0  0  0  0  0  0  0  0  0  0  0
   21.3718  -14.8499  -16.2868 C   0  0  0  0  0  0  0  0  0  0  0  0
   21.3334  -14.3624  -15.0923 O   0  0  0  0  0  0  0  0  0  0  0  0
   21.4236  -13.9167  -17.3345 N   0  0  0  0  0  0  0  0  0  0  0  0
   21.3616  -12.4558  -17.0524 C   0  0  1  0  0  0  0  0  0  0  0  0
   21.9936  -11.7356  -18.1959 C   0  0  0  0  0  0  0  0  0  0  0  0
   21.9904  -10.2589  -18.1642 C   0  0  0  0  0  0  0  0  0  0  0  0
   22.5141   -9.6227  -19.3624 C   0  0  0  0  0  0  0  0  0  0  0  0
   22.9249  -10.2393  -20.3821 O   0  0  0  0  0  0  0  0  0  0  0  0
   19.9933  -12.1494  -16.6893 C   0  0  0  0  0  0  0  0  0  0  0  0
   19.6607  -11.2877  -15.8376 O   0  0  0  0  0  0  0  0  0  0  0  0
   22.5668   -8.2195  -19.4013 O   0  0  0  0  0  0  0  0  0  0  0  0
   18.8936  -12.8103  -17.2786 O   0  0  0  0  0  0  0  0  0  0  0  0
  2  1  1  6
  3  2  1  0
  4  3  1  0
  5  4  1  0
  5  6  1  0
  7  6  1  0
  8  9  2  0
  8  2  1  0
 11 10  1  0
 12 14  1  0
 12 11  1  0
 12 13  1  6
 14 15  1  1
 15  8  1  0
 16 14  1  0
 17 16  2  0
 18 16  1  0
 19 24  1  0
 19 18  1  0
 19 20  1  6
 21 20  1  0
 22 21  1  0
 23 22  2  0
 24 27  1  0
 25 24  2  0
 26 22  1  0
M  END
$$$$
