KIE.pdb
     RDKit          3D

 27 26  0  0  1  0  0  0  0  0999 V2000
   22.4032  -16.8408  -14.8500 N   0  0  0  0  0  0  0  0  0  0  0  0
   22.2051  -15.7470  -15.7950 C   0  0  1  0  0  0  0  0  0  0  0  0
   20.7120  -15.5370  -15.8716 C   0  0  0  0  0  0  0  0  0  0  0  0
   19.9487  -16.6841  -16.4460 C   0  0  0  0  0  0  0  0  0  0  0  0
   18.4819  -16.3619  -16.6167 C   0  0  0  0  0  0  0  0  0  0  0  0
   17.7251  -17.4918  -17.2631 C   0  0  0  0  0  0  0  0  0  0  0  0
   17.0059  -18.2666  -16.2947 N   0  0  0  0  0  0  0  0  0  0  0  0
   22.8297  -14.4960  -15.2612 C   0  0  0  0  0  0  0  0  0  0  0  0
   22.6570  -14.1916  -14.0534 O   0  0  0  0  0  0  0  0  0  0  0  0
   27.8085  -13.3759  -16.0067 C   0  0  0  0  0  0  0  0  0  0  0  0
   26.4339  -13.4797  -15.3872 C   0  0  0  0  0  0  0  0  0  0  0  0
   25.6176  -12.3007  -15.9244 C   0  0  2  0  0  0  0  0  0  0  0  0
   26.2320  -11.0572  -15.3189 C   0  0  0  0  0  0  0  0  0  0  0  0
   24.1804  -12.4144  -15.4461 C   0  0  2  0  0  0  0  0  0  0  0  0
   23.6049  -13.6356  -16.0408 N   0  0  0  0  0  0  0  0  0  0  0  0
   23.4290  -11.2434  -15.9351 C   0  0  0  0  0  0  0  0  0  0  0  0
   23.3359  -11.1209  -17.2166 O   0  0  0  0  0  0  0  0  0  0  0  0
   22.7975  -10.2491  -15.1710 N   0  0  0  0  0  0  0  0  0  0  0  0
   22.0424   -9.1493  -15.8329 C   0  0  1  0  0  0  0  0  0  0  0  0
   20.8072   -8.8908  -15.0373 C   0  0  0  0  0  0  0  0  0  0  0  0
   19.9469   -7.7636  -15.4507 C   0  0  0  0  0  0  0  0  0  0  0  0
   18.7926   -7.5331  -14.5967 C   0  0  0  0  0  0  0  0  0  0  0  0
   17.9202   -6.6448  -14.7925 O   0  0  0  0  0  0  0  0  0  0  0  0
   22.9783   -8.0680  -16.0629 C   0  0  0  0  0  0  0  0  0  0  0  0
   23.9958   -7.8480  -15.3595 O   0  0  0  0  0  0  0  0  0  0  0  0
   18.6231   -8.3565  -13.4713 O   0  0  0  0  0  0  0  0  0  0  0  0
   22.8199   -7.1501  -17.1239 O   0  0  0  0  0  0  0  0  0  0  0  0
  2  1  1  1
  3  2  1  0
  4  3  1  0
  5  4  1  0
  5  6  1  0
  7  6  1  0
  8  9  2  0
  8  2  1  0
 11 10  1  0
 12 14  1  0
 12 11  1  0
 12 13  1  1
 14 15  1  6
 15  8  1  0
 16 14  1  0
 17 16  2  0
 18 16  1  0
 19 24  1  0
 19 18  1  0
 19 20  1  1
 21 20  1  0
 22 21  1  0
 23 22  2  0
 24 27  1  0
 25 24  2  0
 26 22  1  0
M  END
$$$$
