KIE.pdb
     RDKit          3D

 27 26  0  0  1  0  0  0  0  0999 V2000
   13.1116  -11.5147  -11.6836 N   0  0  0  0  0  0  0  0  0  0  0  0
   14.4955  -11.0731  -11.5479 C   0  0  1  0  0  0  0  0  0  0  0  0
   15.1774  -11.4598  -12.8382 C   0  0  0  0  0  0  0  0  0  0  0  0
   15.2578  -12.9298  -13.0858 C   0  0  0  0  0  0  0  0  0  0  0  0
   16.4401  -13.5599  -12.3861 C   0  0  0  0  0  0  0  0  0  0  0  0
   16.5597  -15.0302  -12.6884 C   0  0  0  0  0  0  0  0  0  0  0  0
   17.6375  -15.6322  -11.9595 N   0  0  0  0  0  0  0  0  0  0  0  0
   14.5421   -9.5828  -11.4192 C   0  0  0  0  0  0  0  0  0  0  0  0
   14.0927   -8.8721  -12.3542 O   0  0  0  0  0  0  0  0  0  0  0  0
   13.5783   -5.3307   -7.3931 C   0  0  0  0  0  0  0  0  0  0  0  0
   14.3676   -5.6034   -8.6528 C   0  0  0  0  0  0  0  0  0  0  0  0
   14.3653   -7.1213   -8.8551 C   0  0  2  0  0  0  0  0  0  0  0  0
   15.2456   -7.6893   -7.7629 C   0  0  0  0  0  0  0  0  0  0  0  0
   14.9833   -7.4582  -10.2011 C   0  0  2  0  0  0  0  0  0  0  0  0
   15.0643   -8.9277  -10.3023 N   0  0  0  0  0  0  0  0  0  0  0  0
   16.3472   -6.8991  -10.2445 C   0  0  0  0  0  0  0  0  0  0  0  0
   17.2661   -7.5929   -9.6612 O   0  0  0  0  0  0  0  0  0  0  0  0
   16.7656   -5.7039  -10.8508 N   0  0  0  0  0  0  0  0  0  0  0  0
   18.2148   -5.4093  -11.0260 C   0  0  1  0  0  0  0  0  0  0  0  0
   18.7867   -6.4300  -11.9515 C   0  0  0  0  0  0  0  0  0  0  0  0
   20.1610   -6.2143  -12.4479 C   0  0  0  0  0  0  0  0  0  0  0  0
   20.6037   -7.1700  -13.4506 C   0  0  0  0  0  0  0  0  0  0  0  0
   21.7504   -7.1830  -13.9738 O   0  0  0  0  0  0  0  0  0  0  0  0
   18.3268   -4.0047  -11.3613 C   0  0  0  0  0  0  0  0  0  0  0  0
   17.4035   -3.3200  -11.8685 O   0  0  0  0  0  0  0  0  0  0  0  0
   19.6992   -8.1587  -13.8719 O   0  0  0  0  0  0  0  0  0  0  0  0
   19.5126   -3.2713  -11.1389 O   0  0  0  0  0  0  0  0  0  0  0  0
  2  1  1  6
  3  2  1  0
  4  3  1  0
  5  4  1  0
  5  6  1  0
  7  6  1  0
  8  9  2  0
  8  2  1  0
 11 10  1  0
 12 14  1  0
 12 11  1  0
 12 13  1  1
 14 15  1  1
 15  8  1  0
 16 14  1  0
 17 16  2  0
 18 16  1  0
 19 24  1  0
 19 18  1  0
 19 20  1  6
 21 20  1  0
 22 21  1  0
 23 22  2  0
 24 27  1  0
 25 24  2  0
 26 22  1  0
M  END
$$$$
