PAP.pdb
     RDKit          3D

 20 21  0  0  1  0  0  0  0  0999 V2000
   24.5650  -21.0737  -12.7526 N   0  0  0  0  0  0  0  0  0  0  0  0
   24.4533  -22.1114  -11.7159 C   0  0  0  0  0  0  0  0  0  0  0  0
   25.8919  -22.6049  -11.6700 C   0  0  0  0  0  0  0  0  0  0  0  0
   26.6553  -21.3045  -11.8298 C   0  0  0  0  0  0  0  0  0  0  0  0
   25.6163  -20.2489  -12.1753 C   0  0  1  0  0  0  0  0  0  0  0  0
   26.1345  -19.2596  -13.1390 C   0  0  0  0  0  0  0  0  0  0  0  0
   26.9281  -18.3937  -12.7449 O   0  0  0  0  0  0  0  0  0  0  0  0
   26.4887  -18.9627  -16.7623 C   0  0  0  0  0  0  0  0  0  0  0  0
   26.2589  -18.2959  -15.4165 C   0  0  2  0  0  0  0  0  0  0  0  0
   25.7323  -19.2922  -14.5092 N   0  0  0  0  0  0  0  0  0  0  0  0
   25.2845  -17.1909  -15.5248 C   0  0  0  0  0  0  0  0  0  0  0  0
   24.1036  -17.3975  -15.1204 O   0  0  0  0  0  0  0  0  0  0  0  0
   25.6100  -15.9212  -16.0561 N   0  0  0  0  0  0  0  0  0  0  0  0
   26.8878  -15.5685  -16.6272 C   0  0  0  0  0  0  0  0  0  0  0  0
   27.1479  -14.2279  -15.9269 C   0  0  0  0  0  0  0  0  0  0  0  0
   25.7846  -13.5761  -16.0679 C   0  0  0  0  0  0  0  0  0  0  0  0
   24.7871  -14.7394  -16.1533 C   0  0  1  0  0  0  0  0  0  0  0  0
   24.1150  -14.7045  -17.4994 C   0  0  0  0  0  0  0  0  0  0  0  0
   24.6551  -15.2785  -18.4790 O   0  0  0  0  0  0  0  0  0  0  0  0
   22.9118  -14.0599  -17.7109 O   0  0  0  0  0  0  0  0  0  0  0  0
  1  2  1  0
  3  2  1  0
  4  5  1  0
  4  3  1  0
  5  1  1  0
  5  6  1  6
  7  6  2  0
  9  8  1  6
  9 11  1  0
  9 10  1  0
 10  6  1  0
 11 13  1  0
 12 11  2  0
 13 14  1  0
 13 17  1  0
 14 15  1  0
 15 16  1  0
 17 18  1  6
 17 16  1  0
 18 20  1  0
 19 18  2  0
M  END
$$$$
