PAP.pdb
     RDKit          3D

 20 21  0  0  1  0  0  0  0  0999 V2000
   21.8037  -20.2033   -9.9626 N   0  0  0  0  0  0  0  0  0  0  0  0
   21.0914  -20.1037   -8.6793 C   0  0  0  0  0  0  0  0  0  0  0  0
   21.6546  -21.3213   -7.9613 C   0  0  0  0  0  0  0  0  0  0  0  0
   23.1034  -21.2830   -8.4072 C   0  0  0  0  0  0  0  0  0  0  0  0
   23.1803  -20.2172   -9.4895 C   0  0  1  0  0  0  0  0  0  0  0  0
   24.1283  -20.5841  -10.5585 C   0  0  0  0  0  0  0  0  0  0  0  0
   25.3328  -20.6844  -10.2866 O   0  0  0  0  0  0  0  0  0  0  0  0
   23.9439  -21.8579  -14.0384 C   0  0  0  0  0  0  0  0  0  0  0  0
   24.6465  -21.1008  -12.9240 C   0  0  2  0  0  0  0  0  0  0  0  0
   23.6725  -20.8221  -11.8911 N   0  0  0  0  0  0  0  0  0  0  0  0
   25.2004  -19.8210  -13.4113 C   0  0  0  0  0  0  0  0  0  0  0  0
   24.5936  -18.7544  -13.1029 O   0  0  0  0  0  0  0  0  0  0  0  0
   26.3704  -19.7347  -14.2012 N   0  0  0  0  0  0  0  0  0  0  0  0
   27.1368  -20.8656  -14.6671 C   0  0  0  0  0  0  0  0  0  0  0  0
   28.5570  -20.4107  -14.3049 C   0  0  0  0  0  0  0  0  0  0  0  0
   28.5161  -18.9730  -14.7891 C   0  0  0  0  0  0  0  0  0  0  0  0
   27.0401  -18.5604  -14.7069 C   0  0  1  0  0  0  0  0  0  0  0  0
   26.5431  -18.2567  -16.0945 C   0  0  0  0  0  0  0  0  0  0  0  0
   25.9671  -19.1553  -16.7590 O   0  0  0  0  0  0  0  0  0  0  0  0
   26.6933  -17.0151  -16.6808 O   0  0  0  0  0  0  0  0  0  0  0  0
  1  2  1  0
  3  2  1  0
  4  5  1  0
  4  3  1  0
  5  1  1  0
  5  6  1  6
  7  6  2  0
  9  8  1  6
  9 11  1  0
  9 10  1  0
 10  6  1  0
 11 13  1  0
 12 11  2  0
 13 14  1  0
 13 17  1  0
 14 15  1  0
 15 16  1  0
 17 18  1  6
 17 16  1  0
 18 20  1  0
 19 18  2  0
M  END
$$$$
