PAP.pdb
     RDKit          3D

 20 21  0  0  1  0  0  0  0  0999 V2000
   26.4840  -20.1398  -13.6148 N   0  0  0  0  0  0  0  0  0  0  0  0
   27.0311  -20.9678  -14.7006 C   0  0  0  0  0  0  0  0  0  0  0  0
   28.4704  -21.1159  -14.2297 C   0  0  0  0  0  0  0  0  0  0  0  0
   28.2772  -21.2723  -12.7340 C   0  0  0  0  0  0  0  0  0  0  0  0
   26.8093  -20.9755  -12.4683 C   0  0  1  0  0  0  0  0  0  0  0  0
   26.6131  -20.2629  -11.1916 C   0  0  0  0  0  0  0  0  0  0  0  0
   26.8336  -19.0448  -11.1420 O   0  0  0  0  0  0  0  0  0  0  0  0
   24.7734  -20.4893   -8.1344 C   0  0  0  0  0  0  0  0  0  0  0  0
   26.1372  -20.2542   -8.7616 C   0  0  2  0  0  0  0  0  0  0  0  0
   26.1752  -20.9597  -10.0242 N   0  0  0  0  0  0  0  0  0  0  0  0
   27.2203  -20.7680   -7.8986 C   0  0  0  0  0  0  0  0  0  0  0  0
   27.7028  -21.9071   -8.1641 O   0  0  0  0  0  0  0  0  0  0  0  0
   27.7390  -20.0489   -6.7966 N   0  0  0  0  0  0  0  0  0  0  0  0
   27.3810  -18.6934   -6.4535 C   0  0  0  0  0  0  0  0  0  0  0  0
   28.7710  -18.0863   -6.2201 C   0  0  0  0  0  0  0  0  0  0  0  0
   29.4131  -19.1829   -5.3904 C   0  0  0  0  0  0  0  0  0  0  0  0
   28.6952  -20.4751   -5.8030 C   0  0  1  0  0  0  0  0  0  0  0  0
   27.9657  -21.0277   -4.6082 C   0  0  0  0  0  0  0  0  0  0  0  0
   28.6159  -21.5743   -3.6811 O   0  0  0  0  0  0  0  0  0  0  0  0
   26.5919  -20.9606   -4.4819 O   0  0  0  0  0  0  0  0  0  0  0  0
  1  2  1  0
  3  2  1  0
  4  5  1  0
  4  3  1  0
  5  1  1  0
  5  6  1  1
  7  6  2  0
  9  8  1  1
  9 11  1  0
  9 10  1  0
 10  6  1  0
 11 13  1  0
 12 11  2  0
 13 14  1  0
 13 17  1  0
 14 15  1  0
 15 16  1  0
 17 18  1  1
 17 16  1  0
 18 20  1  0
 19 18  2  0
M  END
$$$$
