PAP.pdb
     RDKit          3D

 20 21  0  0  1  0  0  0  0  0999 V2000
   26.2384  -20.5006  -11.9671 N   0  0  0  0  0  0  0  0  0  0  0  0
   25.0069  -20.9747  -12.6172 C   0  0  0  0  0  0  0  0  0  0  0  0
   24.6107  -22.0932  -11.6647 C   0  0  0  0  0  0  0  0  0  0  0  0
   24.9665  -21.4795  -10.3245 C   0  0  0  0  0  0  0  0  0  0  0  0
   25.7255  -20.1995  -10.6386 C   0  0  1  0  0  0  0  0  0  0  0  0
   26.8106  -19.9501   -9.6708 C   0  0  0  0  0  0  0  0  0  0  0  0
   27.9073  -20.5006   -9.8410 O   0  0  0  0  0  0  0  0  0  0  0  0
   27.5204  -17.4935   -7.0063 C   0  0  0  0  0  0  0  0  0  0  0  0
   27.7035  -18.8663   -7.6313 C   0  0  2  0  0  0  0  0  0  0  0  0
   26.6082  -19.0877   -8.5504 N   0  0  0  0  0  0  0  0  0  0  0  0
   27.6845  -19.9295   -6.6060 C   0  0  0  0  0  0  0  0  0  0  0  0
   26.6768  -20.6932   -6.5597 O   0  0  0  0  0  0  0  0  0  0  0  0
   28.7347  -20.1310   -5.6804 N   0  0  0  0  0  0  0  0  0  0  0  0
   29.9568  -19.3642   -5.6391 C   0  0  0  0  0  0  0  0  0  0  0  0
   30.9924  -20.4917   -5.5311 C   0  0  0  0  0  0  0  0  0  0  0  0
   30.3350  -21.3676   -4.4804 C   0  0  0  0  0  0  0  0  0  0  0  0
   28.8301  -21.0959   -4.6112 C   0  0  1  0  0  0  0  0  0  0  0  0
   28.3355  -20.4780   -3.3312 C   0  0  0  0  0  0  0  0  0  0  0  0
   28.1070  -21.2105   -2.3351 O   0  0  0  0  0  0  0  0  0  0  0  0
   28.1176  -19.1206   -3.1988 O   0  0  0  0  0  0  0  0  0  0  0  0
  1  2  1  0
  3  2  1  0
  4  5  1  0
  4  3  1  0
  5  1  1  0
  5  6  1  1
  7  6  2  0
  9  8  1  1
  9 11  1  0
  9 10  1  0
 10  6  1  0
 11 13  1  0
 12 11  2  0
 13 14  1  0
 13 17  1  0
 14 15  1  0
 15 16  1  0
 17 18  1  1
 17 16  1  0
 18 20  1  0
 19 18  2  0
M  END
$$$$
