PAP.pdb
     RDKit          3D

 20 21  0  0  1  0  0  0  0  0999 V2000
   23.2590  -19.2268  -18.5770 N   0  0  0  0  0  0  0  0  0  0  0  0
   21.8767  -19.0159  -19.0343 C   0  0  0  0  0  0  0  0  0  0  0  0
   21.1105  -19.6494  -17.8824 C   0  0  0  0  0  0  0  0  0  0  0  0
   21.9430  -19.2065  -16.6950 C   0  0  0  0  0  0  0  0  0  0  0  0
   23.1991  -18.5760  -17.2764 C   0  0  1  0  0  0  0  0  0  0  0  0
   24.3915  -18.8664  -16.4578 C   0  0  0  0  0  0  0  0  0  0  0  0
   24.9257  -19.9806  -16.5465 O   0  0  0  0  0  0  0  0  0  0  0  0
   26.5095  -16.9983  -13.9987 C   0  0  0  0  0  0  0  0  0  0  0  0
   25.9993  -18.2596  -14.6750 C   0  0  2  0  0  0  0  0  0  0  0  0
   24.9293  -17.8825  -15.5730 N   0  0  0  0  0  0  0  0  0  0  0  0
   25.4718  -19.2224  -13.6868 C   0  0  0  0  0  0  0  0  0  0  0  0
   24.2210  -19.4091  -13.6472 O   0  0  0  0  0  0  0  0  0  0  0  0
   26.2961  -19.9402  -12.7892 N   0  0  0  0  0  0  0  0  0  0  0  0
   27.7207  -19.7553  -12.6494 C   0  0  0  0  0  0  0  0  0  0  0  0
   28.1973  -21.2139  -12.6773 C   0  0  0  0  0  0  0  0  0  0  0  0
   27.1835  -21.8512  -11.7449 C   0  0  0  0  0  0  0  0  0  0  0  0
   25.9308  -20.9704  -11.8467 C   0  0  1  0  0  0  0  0  0  0  0  0
   25.6635  -20.3495  -10.5021 C   0  0  0  0  0  0  0  0  0  0  0  0
   26.1225  -19.2082  -10.2422 O   0  0  0  0  0  0  0  0  0  0  0  0
   24.9248  -20.9870   -9.5246 O   0  0  0  0  0  0  0  0  0  0  0  0
  1  2  1  0
  3  2  1  0
  4  5  1  0
  4  3  1  0
  5  1  1  0
  5  6  1  1
  7  6  2  0
  9  8  1  1
  9 11  1  0
  9 10  1  0
 10  6  1  0
 11 13  1  0
 12 11  2  0
 13 14  1  0
 13 17  1  0
 14 15  1  0
 15 16  1  0
 17 18  1  1
 17 16  1  0
 18 20  1  0
 19 18  2  0
M  END
$$$$
