PAP.pdb
     RDKit          3D

 20 21  0  0  1  0  0  0  0  0999 V2000
   25.8295  -22.1600  -12.1590 N   0  0  0  0  0  0  0  0  0  0  0  0
   25.8693  -22.4434  -13.6020 C   0  0  0  0  0  0  0  0  0  0  0  0
   25.9416  -21.0275  -14.1544 C   0  0  0  0  0  0  0  0  0  0  0  0
   26.8645  -20.3654  -13.1500 C   0  0  0  0  0  0  0  0  0  0  0  0
   27.0435  -21.3688  -12.0211 C   0  0  1  0  0  0  0  0  0  0  0  0
   27.1262  -20.7087  -10.7044 C   0  0  0  0  0  0  0  0  0  0  0  0
   28.1287  -20.0339  -10.4313 O   0  0  0  0  0  0  0  0  0  0  0  0
   24.7661  -20.1162   -7.8724 C   0  0  0  0  0  0  0  0  0  0  0  0
   26.1395  -20.0827   -8.5213 C   0  0  2  0  0  0  0  0  0  0  0  0
   26.0701  -20.8405   -9.7519 N   0  0  0  0  0  0  0  0  0  0  0  0
   27.1614  -20.6924   -7.6461 C   0  0  0  0  0  0  0  0  0  0  0  0
   27.5124  -21.8847   -7.8825 O   0  0  0  0  0  0  0  0  0  0  0  0
   27.7613  -20.0080   -6.5634 N   0  0  0  0  0  0  0  0  0  0  0  0
   27.5598  -18.6122   -6.2561 C   0  0  0  0  0  0  0  0  0  0  0  0
   29.0103  -18.1603   -6.0386 C   0  0  0  0  0  0  0  0  0  0  0  0
   29.5266  -19.3005   -5.1802 C   0  0  0  0  0  0  0  0  0  0  0  0
   28.6659  -20.5135   -5.5587 C   0  0  1  0  0  0  0  0  0  0  0  0
   27.8820  -20.9486   -4.3500 C   0  0  0  0  0  0  0  0  0  0  0  0
   28.4706  -21.5319   -3.4043 O   0  0  0  0  0  0  0  0  0  0  0  0
   26.5231  -20.7326   -4.2302 O   0  0  0  0  0  0  0  0  0  0  0  0
  1  2  1  0
  3  2  1  0
  4  5  1  0
  4  3  1  0
  5  1  1  0
  5  6  1  1
  7  6  2  0
  9  8  1  1
  9 11  1  0
  9 10  1  0
 10  6  1  0
 11 13  1  0
 12 11  2  0
 13 14  1  0
 13 17  1  0
 14 15  1  0
 15 16  1  0
 17 18  1  1
 17 16  1  0
 18 20  1  0
 19 18  2  0
M  END
$$$$
