LMT.pdb
     RDKit          3D

 24 23  0  0  1  0  0  0  0  0999 V2000
   17.2645  -14.1507  -15.3896 C   0  0  0  0  0  0  0  0  0  0  0  0
   17.3483  -12.7101  -15.7842 C   0  0  2  0  0  0  0  0  0  0  0  0
   17.0037  -12.5269  -17.2314 C   0  0  0  0  0  0  0  0  0  0  0  0
   18.6637  -12.1114  -15.4072 C   0  0  0  0  0  0  0  0  0  0  0  0
   19.1557  -11.0362  -16.3285 C   0  0  2  0  0  0  0  0  0  0  0  0
   19.7016  -11.5646  -17.5458 N   0  0  0  0  0  0  0  0  0  0  0  0
   20.2011  -10.2687  -15.5997 C   0  0  0  0  0  0  0  0  0  0  0  0
   20.0112   -9.8609  -14.4104 O   0  0  0  0  0  0  0  0  0  0  0  0
   26.3633  -11.6665  -14.6727 C   0  0  0  0  0  0  0  0  0  0  0  0
   26.4356  -10.0604  -15.5086 S   0  0  0  0  0  0  0  0  0  0  0  0
   24.9434   -9.0952  -15.0488 C   0  0  0  0  0  0  0  0  0  0  0  0
   23.7807   -9.7595  -15.6991 C   0  0  0  0  0  0  0  0  0  0  0  0
   22.4421   -9.1413  -15.3953 C   0  0  2  0  0  0  0  0  0  0  0  0
   21.4707   -9.9366  -16.1630 N   0  0  0  0  0  0  0  0  0  0  0  0
   22.3408   -7.7197  -15.7595 C   0  0  0  0  0  0  0  0  0  0  0  0
   22.7480   -7.3384  -16.9086 O   0  0  0  0  0  0  0  0  0  0  0  0
   19.6678   -5.7755  -16.4785 C   0  0  0  0  0  0  0  0  0  0  0  0
   20.2619   -5.0701  -15.3019 C   0  0  1  0  0  0  0  0  0  0  0  0
   19.5737   -5.5370  -14.1589 O   0  0  0  0  0  0  0  0  0  0  0  0
   21.7350   -5.4084  -15.1406 C   0  0  2  0  0  0  0  0  0  0  0  0
   21.7937   -6.8112  -14.8260 N   0  0  0  0  0  0  0  0  0  0  0  0
   22.3818   -4.5606  -14.1268 C   0  0  0  0  0  0  0  0  0  0  0  0
   22.6841   -5.0657  -13.0203 O   0  0  0  0  0  0  0  0  0  0  0  0
   22.6456   -3.2417  -14.3960 O   0  0  0  0  0  0  0  0  0  0  0  0
  2  1  1  6
  3  2  1  0
  4  2  1  0
  5  4  1  0
  5  6  1  6
  7  8  2  0
  7  5  1  0
  9 10  1  0
 11 10  1  0
 12 11  1  0
 13 12  1  6
 13 14  1  0
 14  7  1  0
 15 13  1  0
 15 16  2  0
 18 17  1  6
 19 18  1  0
 20 21  1  1
 20 18  1  0
 21 15  1  0
 22 20  1  0
 23 22  2  0
 24 22  1  0
M  END
$$$$
