LMT.pdb
     RDKit          3D

 24 23  0  0  1  0  0  0  0  0999 V2000
   27.9220  -15.6650  -17.2395 C   0  0  0  0  0  0  0  0  0  0  0  0
   28.6561  -16.8918  -16.7989 C   0  0  2  0  0  0  0  0  0  0  0  0
   29.6435  -17.3310  -17.8377 C   0  0  0  0  0  0  0  0  0  0  0  0
   27.7171  -17.9743  -16.3779 C   0  0  0  0  0  0  0  0  0  0  0  0
   26.6940  -17.5633  -15.3622 C   0  0  2  0  0  0  0  0  0  0  0  0
   27.2302  -16.6728  -14.3731 N   0  0  0  0  0  0  0  0  0  0  0  0
   26.1946  -18.8018  -14.7064 C   0  0  0  0  0  0  0  0  0  0  0  0
   25.8202  -19.8057  -15.3912 O   0  0  0  0  0  0  0  0  0  0  0  0
   25.4721  -19.8218   -7.9611 C   0  0  0  0  0  0  0  0  0  0  0  0
   26.2412  -21.2172   -8.8242 S   0  0  0  0  0  0  0  0  0  0  0  0
   25.4832  -21.3630  -10.4897 C   0  0  0  0  0  0  0  0  0  0  0  0
   26.0371  -20.2555  -11.3160 C   0  0  0  0  0  0  0  0  0  0  0  0
   25.4862  -20.1670  -12.7142 C   0  0  2  0  0  0  0  0  0  0  0  0
   26.0981  -18.9590  -13.2903 N   0  0  0  0  0  0  0  0  0  0  0  0
   24.0193  -20.0769  -12.7770 C   0  0  0  0  0  0  0  0  0  0  0  0
   23.4408  -19.0115  -12.3749 O   0  0  0  0  0  0  0  0  0  0  0  0
   22.0405  -21.0076  -15.8638 C   0  0  0  0  0  0  0  0  0  0  0  0
   21.4825  -21.7595  -14.6984 C   0  0  1  0  0  0  0  0  0  0  0  0
   22.0704  -23.0447  -14.7257 O   0  0  0  0  0  0  0  0  0  0  0  0
   21.8539  -21.0950  -13.3827 C   0  0  2  0  0  0  0  0  0  0  0  0
   23.2870  -21.1745  -13.2822 N   0  0  0  0  0  0  0  0  0  0  0  0
   21.1589  -21.7143  -12.2433 C   0  0  0  0  0  0  0  0  0  0  0  0
   21.8274  -22.3755  -11.4146 O   0  0  0  0  0  0  0  0  0  0  0  0
   19.8030  -21.5657  -12.0981 O   0  0  0  0  0  0  0  0  0  0  0  0
  2  1  1  6
  3  2  1  0
  4  2  1  0
  5  4  1  0
  5  6  1  1
  7  8  2  0
  7  5  1  0
  9 10  1  0
 11 10  1  0
 12 11  1  0
 13 12  1  1
 13 14  1  0
 14  7  1  0
 15 13  1  0
 15 16  2  0
 18 17  1  6
 19 18  1  0
 20 21  1  1
 20 18  1  0
 21 15  1  0
 22 20  1  0
 23 22  2  0
 24 22  1  0
M  END
$$$$
