LMT.pdb
     RDKit          3D

 24 23  0  0  1  0  0  0  0  0999 V2000
   17.9218  -14.7264  -18.8143 C   0  0  0  0  0  0  0  0  0  0  0  0
   18.9918  -15.2659  -17.9186 C   0  0  2  0  0  0  0  0  0  0  0  0
   18.4871  -16.4255  -17.1140 C   0  0  0  0  0  0  0  0  0  0  0  0
   19.6077  -14.1896  -17.0862 C   0  0  0  0  0  0  0  0  0  0  0  0
   20.0874  -12.9943  -17.8532 C   0  0  2  0  0  0  0  0  0  0  0  0
   21.0643  -13.3363  -18.8470 N   0  0  0  0  0  0  0  0  0  0  0  0
   20.6782  -12.0436  -16.8732 C   0  0  0  0  0  0  0  0  0  0  0  0
   20.0357  -11.6789  -15.8382 O   0  0  0  0  0  0  0  0  0  0  0  0
   27.1497  -10.5953  -16.4314 C   0  0  0  0  0  0  0  0  0  0  0  0
   26.3980  -10.6830  -14.7849 S   0  0  0  0  0  0  0  0  0  0  0  0
   24.6918  -10.0136  -14.8856 C   0  0  0  0  0  0  0  0  0  0  0  0
   23.9451  -10.8735  -15.8442 C   0  0  0  0  0  0  0  0  0  0  0  0
   22.4910  -10.5231  -16.0151 C   0  0  2  0  0  0  0  0  0  0  0  0
   21.9823  -11.4784  -17.0121 N   0  0  0  0  0  0  0  0  0  0  0  0
   22.2550   -9.1420  -16.4631 C   0  0  0  0  0  0  0  0  0  0  0  0
   22.9000   -8.6926  -17.4698 O   0  0  0  0  0  0  0  0  0  0  0  0
   19.3280   -7.8420  -17.7456 C   0  0  0  0  0  0  0  0  0  0  0  0
   19.6100   -6.9319  -16.5936 C   0  0  1  0  0  0  0  0  0  0  0  0
   18.8300   -7.3956  -15.5097 O   0  0  0  0  0  0  0  0  0  0  0  0
   21.0732   -6.9928  -16.1863 C   0  0  2  0  0  0  0  0  0  0  0  0
   21.3179   -8.3469  -15.7660 N   0  0  0  0  0  0  0  0  0  0  0  0
   21.3930   -5.9986  -15.1499 C   0  0  0  0  0  0  0  0  0  0  0  0
   21.6805   -6.3983  -13.9974 O   0  0  0  0  0  0  0  0  0  0  0  0
   21.3742   -4.6598  -15.4481 O   0  0  0  0  0  0  0  0  0  0  0  0
  2  1  1  1
  3  2  1  0
  4  2  1  0
  5  4  1  0
  5  6  1  6
  7  8  2  0
  7  5  1  0
  9 10  1  0
 11 10  1  0
 12 11  1  0
 13 12  1  6
 13 14  1  0
 14  7  1  0
 15 13  1  0
 15 16  2  0
 18 17  1  6
 19 18  1  0
 20 21  1  1
 20 18  1  0
 21 15  1  0
 22 20  1  0
 23 22  2  0
 24 22  1  0
M  END
$$$$
