LMT.pdb
     RDKit          3D

 24 23  0  0  1  0  0  0  0  0999 V2000
   24.6417  -18.1146  -19.9095 C   0  0  0  0  0  0  0  0  0  0  0  0
   25.6985  -18.8494  -19.1470 C   0  0  2  0  0  0  0  0  0  0  0  0
   26.5887  -19.6247  -20.0707 C   0  0  0  0  0  0  0  0  0  0  0  0
   25.1116  -19.6797  -18.0530 C   0  0  0  0  0  0  0  0  0  0  0  0
   24.1313  -18.9641  -17.1734 C   0  0  2  0  0  0  0  0  0  0  0  0
   24.6761  -17.7626  -16.6090 N   0  0  0  0  0  0  0  0  0  0  0  0
   23.7433  -19.9005  -16.0844 C   0  0  0  0  0  0  0  0  0  0  0  0
   23.3431  -21.0801  -16.3402 O   0  0  0  0  0  0  0  0  0  0  0  0
   24.7438  -21.3364   -8.4160 C   0  0  0  0  0  0  0  0  0  0  0  0
   25.0732  -20.3954   -9.9292 S   0  0  0  0  0  0  0  0  0  0  0  0
   23.9145  -20.9642  -11.2343 C   0  0  0  0  0  0  0  0  0  0  0  0
   24.2209  -20.1754  -12.4591 C   0  0  0  0  0  0  0  0  0  0  0  0
   23.4136  -20.5467  -13.6743 C   0  0  2  0  0  0  0  0  0  0  0  0
   23.7883  -19.5588  -14.6986 N   0  0  0  0  0  0  0  0  0  0  0  0
   21.9589  -20.5310  -13.4566 C   0  0  0  0  0  0  0  0  0  0  0  0
   21.3906  -19.4409  -13.1101 O   0  0  0  0  0  0  0  0  0  0  0  0
   19.5619  -22.2379  -15.9119 C   0  0  0  0  0  0  0  0  0  0  0  0
   19.2559  -22.6944  -14.5216 C   0  0  1  0  0  0  0  0  0  0  0  0
   19.9149  -23.9327  -14.3469 O   0  0  0  0  0  0  0  0  0  0  0  0
   19.7956  -21.7191  -13.4882 C   0  0  2  0  0  0  0  0  0  0  0  0
   21.2267  -21.7257  -13.6374 N   0  0  0  0  0  0  0  0  0  0  0  0
   19.3542  -22.0655  -12.1281 C   0  0  0  0  0  0  0  0  0  0  0  0
   18.1681  -21.8293  -11.7992 O   0  0  0  0  0  0  0  0  0  0  0  0
   20.2318  -22.6364  -11.2418 O   0  0  0  0  0  0  0  0  0  0  0  0
  2  1  1  6
  3  2  1  0
  4  2  1  0
  5  4  1  0
  5  6  1  1
  7  8  2  0
  7  5  1  0
  9 10  1  0
 11 10  1  0
 12 11  1  0
 13 12  1  1
 13 14  1  0
 14  7  1  0
 15 13  1  0
 15 16  2  0
 18 17  1  6
 19 18  1  0
 20 21  1  1
 20 18  1  0
 21 15  1  0
 22 20  1  0
 23 22  2  0
 24 22  1  0
M  END
$$$$
