LMT.pdb
     RDKit          3D

 24 23  0  0  1  0  0  0  0  0999 V2000
   27.8959  -16.5013  -17.7475 C   0  0  0  0  0  0  0  0  0  0  0  0
   28.7324  -17.4279  -16.9230 C   0  0  2  0  0  0  0  0  0  0  0  0
   29.8067  -18.0652  -17.7514 C   0  0  0  0  0  0  0  0  0  0  0  0
   27.8925  -18.4143  -16.1799 C   0  0  0  0  0  0  0  0  0  0  0  0
   26.6980  -17.8316  -15.4867 C   0  0  2  0  0  0  0  0  0  0  0  0
   27.0591  -16.8546  -14.4998 N   0  0  0  0  0  0  0  0  0  0  0  0
   25.9667  -18.9539  -14.8396 C   0  0  0  0  0  0  0  0  0  0  0  0
   25.5697  -19.9574  -15.5122 O   0  0  0  0  0  0  0  0  0  0  0  0
   25.8491  -19.5154   -8.5501 C   0  0  0  0  0  0  0  0  0  0  0  0
   25.4570  -21.2339   -8.9703 S   0  0  0  0  0  0  0  0  0  0  0  0
   24.6883  -21.2667  -10.6369 C   0  0  0  0  0  0  0  0  0  0  0  0
   25.3913  -20.2432  -11.4581 C   0  0  0  0  0  0  0  0  0  0  0  0
   24.9091  -20.1261  -12.8794 C   0  0  2  0  0  0  0  0  0  0  0  0
   25.6595  -18.9938  -13.4455 N   0  0  0  0  0  0  0  0  0  0  0  0
   23.4619  -19.8945  -13.0052 C   0  0  0  0  0  0  0  0  0  0  0  0
   22.9867  -18.7423  -12.7258 O   0  0  0  0  0  0  0  0  0  0  0  0
   19.3074  -21.3147  -15.0384 C   0  0  0  0  0  0  0  0  0  0  0  0
   20.7910  -21.3669  -14.8621 C   0  0  1  0  0  0  0  0  0  0  0  0
   21.3506  -20.5879  -15.9004 O   0  0  0  0  0  0  0  0  0  0  0  0
   21.2115  -20.7601  -13.5334 C   0  0  2  0  0  0  0  0  0  0  0  0
   22.6335  -20.9559  -13.4336 N   0  0  0  0  0  0  0  0  0  0  0  0
   20.4667  -21.3439  -12.4068 C   0  0  0  0  0  0  0  0  0  0  0  0
   20.8139  -22.4660  -11.9696 O   0  0  0  0  0  0  0  0  0  0  0  0
   19.4121  -20.6655  -11.8507 O   0  0  0  0  0  0  0  0  0  0  0  0
  2  1  1  6
  3  2  1  0
  4  2  1  0
  5  4  1  0
  5  6  1  1
  7  8  2  0
  7  5  1  0
  9 10  1  0
 11 10  1  0
 12 11  1  0
 13 12  1  1
 13 14  1  0
 14  7  1  0
 15 13  1  0
 15 16  2  0
 18 17  1  6
 19 18  1  0
 20 21  1  1
 20 18  1  0
 21 15  1  0
 22 20  1  0
 23 22  2  0
 24 22  1  0
M  END
$$$$
