LMT.pdb
     RDKit          3D

 24 23  0  0  1  0  0  0  0  0999 V2000
   16.1797  -13.8339  -16.5645 C   0  0  0  0  0  0  0  0  0  0  0  0
   15.4273  -14.2878  -15.3537 C   0  0  2  0  0  0  0  0  0  0  0  0
   14.2972  -15.1973  -15.7311 C   0  0  0  0  0  0  0  0  0  0  0  0
   15.0027  -13.1348  -14.5047 C   0  0  0  0  0  0  0  0  0  0  0  0
   16.0948  -12.1672  -14.1612 C   0  0  2  0  0  0  0  0  0  0  0  0
   16.9597  -12.6605  -13.1280 N   0  0  0  0  0  0  0  0  0  0  0  0
   15.4473  -10.9043  -13.7150 C   0  0  0  0  0  0  0  0  0  0  0  0
   14.6161  -10.2913  -14.4567 O   0  0  0  0  0  0  0  0  0  0  0  0
   11.8443   -7.6550   -7.7888 C   0  0  0  0  0  0  0  0  0  0  0  0
   12.7753   -8.9803   -8.6016 S   0  0  0  0  0  0  0  0  0  0  0  0
   13.5442   -8.3042  -10.1251 C   0  0  0  0  0  0  0  0  0  0  0  0
   14.3367   -9.4064  -10.7359 C   0  0  0  0  0  0  0  0  0  0  0  0
   14.9833   -9.0715  -12.0535 C   0  0  2  0  0  0  0  0  0  0  0  0
   15.7006  -10.2941  -12.4489 N   0  0  0  0  0  0  0  0  0  0  0  0
   15.9104   -7.9310  -11.9946 C   0  0  0  0  0  0  0  0  0  0  0  0
   16.9463   -8.0054  -11.2511 O   0  0  0  0  0  0  0  0  0  0  0  0
   17.8913   -6.7609  -14.5163 C   0  0  0  0  0  0  0  0  0  0  0  0
   17.1042   -5.5453  -14.1450 C   0  0  1  0  0  0  0  0  0  0  0  0
   16.0242   -5.4680  -15.0537 O   0  0  0  0  0  0  0  0  0  0  0  0
   16.5357   -5.6627  -12.7402 C   0  0  2  0  0  0  0  0  0  0  0  0
   15.6298   -6.7802  -12.7648 N   0  0  0  0  0  0  0  0  0  0  0  0
   15.8981   -4.4107  -12.3032 C   0  0  0  0  0  0  0  0  0  0  0  0
   16.6175   -3.4044  -12.1020 O   0  0  0  0  0  0  0  0  0  0  0  0
   14.5396   -4.3546  -12.1215 O   0  0  0  0  0  0  0  0  0  0  0  0
  2  1  1  6
  3  2  1  0
  4  2  1  0
  5  4  1  0
  5  6  1  1
  7  8  2  0
  7  5  1  0
  9 10  1  0
 11 10  1  0
 12 11  1  0
 13 12  1  1
 13 14  1  0
 14  7  1  0
 15 13  1  0
 15 16  2  0
 18 17  1  6
 19 18  1  0
 20 21  1  6
 20 18  1  0
 21 15  1  0
 22 20  1  0
 23 22  2  0
 24 22  1  0
M  END
$$$$
