LMT.pdb
     RDKit          3D

 24 23  0  0  1  0  0  0  0  0999 V2000
   22.9361  -16.0325  -14.4410 C   0  0  0  0  0  0  0  0  0  0  0  0
   23.6331  -15.3248  -15.5597 C   0  0  2  0  0  0  0  0  0  0  0  0
   25.0562  -15.0199  -15.2007 C   0  0  0  0  0  0  0  0  0  0  0  0
   22.8667  -14.1270  -16.0161 C   0  0  0  0  0  0  0  0  0  0  0  0
   21.4400  -14.3947  -16.3901 C   0  0  2  0  0  0  0  0  0  0  0  0
   21.3247  -15.2434  -17.5413 N   0  0  0  0  0  0  0  0  0  0  0  0
   20.7979  -13.0815  -16.6668 C   0  0  0  0  0  0  0  0  0  0  0  0
   20.9838  -12.4756  -17.7692 O   0  0  0  0  0  0  0  0  0  0  0  0
   15.3428  -13.6126  -15.0700 C   0  0  0  0  0  0  0  0  0  0  0  0
   15.3757  -12.1678  -16.1633 S   0  0  0  0  0  0  0  0  0  0  0  0
   17.0775  -11.9738  -16.8234 C   0  0  0  0  0  0  0  0  0  0  0  0
   17.8713  -11.2751  -15.7756 C   0  0  0  0  0  0  0  0  0  0  0  0
   19.3359  -11.1169  -16.0858 C   0  0  2  0  0  0  0  0  0  0  0  0
   19.9420  -12.4124  -15.7398 N   0  0  0  0  0  0  0  0  0  0  0  0
   19.9929  -10.0303  -15.3431 C   0  0  0  0  0  0  0  0  0  0  0  0
   20.2228  -10.1762  -14.0951 O   0  0  0  0  0  0  0  0  0  0  0  0
   23.2389   -8.6089  -16.3317 C   0  0  0  0  0  0  0  0  0  0  0  0
   22.2680   -7.4751  -16.2489 C   0  0  1  0  0  0  0  0  0  0  0  0
   21.7782   -7.2640  -17.5579 O   0  0  0  0  0  0  0  0  0  0  0  0
   21.0909   -7.8198  -15.3510 C   0  0  2  0  0  0  0  0  0  0  0  0
   20.3537   -8.8507  -16.0320 N   0  0  0  0  0  0  0  0  0  0  0  0
   20.2760   -6.6347  -15.0407 C   0  0  0  0  0  0  0  0  0  0  0  0
   19.1273   -6.5453  -15.5338 O   0  0  0  0  0  0  0  0  0  0  0  0
   20.7724   -5.6497  -14.2252 O   0  0  0  0  0  0  0  0  0  0  0  0
  2  1  1  1
  3  2  1  0
  4  2  1  0
  5  4  1  0
  5  6  1  6
  7  8  2  0
  7  5  1  0
  9 10  1  0
 11 10  1  0
 12 11  1  0
 13 12  1  1
 13 14  1  0
 14  7  1  0
 15 13  1  0
 15 16  2  0
 18 17  1  6
 19 18  1  0
 20 21  1  6
 20 18  1  0
 21 15  1  0
 22 20  1  0
 23 22  2  0
 24 22  1  0
M  END
$$$$
