RTC.pdb
     RDKit          3D

 25 24  0  0  1  0  0  0  0  0999 V2000
   25.9557  -20.8288   -8.9140 N   0  0  0  0  0  0  0  0  0  0  0  0
   24.7527  -20.8230   -9.6871 C   0  0  0  0  0  0  0  0  0  0  0  0
   23.6383  -20.5328   -9.1031 N   0  0  0  0  0  0  0  0  0  0  0  0
   24.8270  -21.1333  -11.0541 N   0  0  0  0  0  0  0  0  0  0  0  0
   26.1163  -21.5862  -11.6100 C   0  0  0  0  0  0  0  0  0  0  0  0
   26.6529  -20.4807  -12.4494 C   0  0  0  0  0  0  0  0  0  0  0  0
   25.9727  -20.2173  -13.7367 C   0  0  0  0  0  0  0  0  0  0  0  0
   25.8274  -21.3727  -14.6724 C   0  0  2  0  0  0  0  0  0  0  0  0
   27.0627  -21.8234  -15.2556 N   0  0  0  0  0  0  0  0  0  0  0  0
   24.8234  -21.0089  -15.7094 C   0  0  0  0  0  0  0  0  0  0  0  0
   25.1716  -20.3279  -16.7136 O   0  0  0  0  0  0  0  0  0  0  0  0
   22.7303  -20.6057   -9.5966 C   0  0  0  0  0  0  0  0  0  0  0  0
   23.0955  -23.0800  -17.9426 C   0  0  2  0  0  0  0  0  0  0  0  0
   21.9621  -22.3065  -17.3171 O   0  0  0  0  0  0  0  0  0  0  0  0
   21.5193  -23.1629  -16.2615 C   0  0  2  0  0  0  0  0  0  0  0  0
   22.5205  -21.0454  -16.7116 N   0  0  0  0  0  0  0  0  0  0  0  0
   23.4709  -21.3816  -15.6486 C   0  0  0  0  0  0  0  0  0  0  0  0
   21.4241  -20.2256  -16.1592 O   0  0  0  0  0  0  0  0  0  0  0  0
   21.2089  -20.2493  -14.8866 N   0  0  0  0  0  0  0  0  0  0  0  0
   20.5477  -19.3830  -16.8647 C   0  0  1  0  0  0  0  0  0  0  0  0
   19.4173  -18.7008  -16.2681 C   0  0  0  0  0  0  0  0  0  0  0  0
   18.8312  -17.6459  -17.1391 S   0  0  0  0  0  0  0  0  0  0  0  0
   20.0304  -16.2661  -17.2037 C   0  0  0  0  0  0  0  0  0  0  0  0
   18.3590  -19.6967  -15.9658 O   0  0  0  0  0  0  0  0  0  0  0  0
   18.3408  -20.7944  -16.5373 O   0  0  0  0  0  0  0  0  0  0  0  0
  1  2  1  0
  2  3  2  0
  4  2  1  0
  4  5  1  0
  6  5  1  0
  6  7  1  0
  7  8  1  0
  8  9  1  6
 10  8  1  0
 10 11  2  0
 13 12  1  6
 14 13  1  0
 15 16  1  6
 15 13  1  0
 16 10  1  0
 17 15  1  0
 18 17  2  0
 19 17  1  0
 20 19  1  0
 21 22  1  0
 20 21  1  1
 23 20  1  0
 23 25  1  0
 24 23  2  0
M  END
$$$$
