RTC.pdb
     RDKit          3D

 25 24  0  0  1  0  0  0  0  0999 V2000
   31.8191  -22.6985  -11.6172 N   0  0  0  0  0  0  0  0  0  0  0  0
   31.3678  -21.8721  -10.5410 C   0  0  0  0  0  0  0  0  0  0  0  0
   31.8250  -22.0910   -9.3535 N   0  0  0  0  0  0  0  0  0  0  0  0
   30.4432  -20.8520  -10.8148 N   0  0  0  0  0  0  0  0  0  0  0  0
   30.1270  -20.5395  -12.2214 C   0  0  0  0  0  0  0  0  0  0  0  0
   28.9180  -21.3244  -12.5916 C   0  0  0  0  0  0  0  0  0  0  0  0
   27.6082  -20.6474  -12.4690 C   0  0  0  0  0  0  0  0  0  0  0  0
   26.4074  -21.4133  -12.9195 C   0  0  2  0  0  0  0  0  0  0  0  0
   26.6289  -22.2375  -14.0776 N   0  0  0  0  0  0  0  0  0  0  0  0
   25.2917  -20.4502  -13.1278 C   0  0  0  0  0  0  0  0  0  0  0  0
   25.0472  -19.5696  -12.2572 O   0  0  0  0  0  0  0  0  0  0  0  0
   31.5295  -21.5181   -8.5425 C   0  0  0  0  0  0  0  0  0  0  0  0
   24.7043  -17.8169  -15.5174 C   0  0  2  0  0  0  0  0  0  0  0  0
   23.5053  -18.7180  -15.6738 O   0  0  0  0  0  0  0  0  0  0  0  0
   23.8906  -19.6018  -16.7294 C   0  0  2  0  0  0  0  0  0  0  0  0
   23.3419  -19.5205  -14.4096 N   0  0  0  0  0  0  0  0  0  0  0  0
   24.4636  -20.4513  -14.2619 C   0  0  0  0  0  0  0  0  0  0  0  0
   22.0723  -20.2726  -14.4530 O   0  0  0  0  0  0  0  0  0  0  0  0
   22.0853  -21.4926  -14.8745 N   0  0  0  0  0  0  0  0  0  0  0  0
   20.7965  -19.8185  -14.0764 C   0  0  1  0  0  0  0  0  0  0  0  0
   19.5786  -20.5868  -14.2366 C   0  0  0  0  0  0  0  0  0  0  0  0
   18.8509  -20.8221  -12.9599 S   0  0  0  0  0  0  0  0  0  0  0  0
   19.9220  -21.8677  -11.9085 C   0  0  0  0  0  0  0  0  0  0  0  0
   18.6721  -19.8641  -15.1635 O   0  0  0  0  0  0  0  0  0  0  0  0
   18.9315  -18.7115  -15.5324 O   0  0  0  0  0  0  0  0  0  0  0  0
  1  2  1  0
  2  3  2  0
  4  2  1  0
  4  5  1  0
  6  5  1  0
  6  7  1  0
  7  8  1  0
  8  9  1  6
 10  8  1  0
 10 11  2  0
 13 12  1  6
 14 13  1  0
 15 16  1  1
 15 13  1  0
 16 10  1  0
 17 15  1  0
 18 17  2  0
 19 17  1  0
 20 19  1  0
 21 22  1  0
 20 21  1  6
 23 20  1  0
 23 25  1  0
 24 23  2  0
M  END
$$$$
