RTC.pdb
     RDKit          3D

 25 24  0  0  1  0  0  0  0  0999 V2000
   20.3401  -22.8117   -8.7473 N   0  0  0  0  0  0  0  0  0  0  0  0
   20.1771  -21.9049   -9.8411 C   0  0  0  0  0  0  0  0  0  0  0  0
   19.2303  -22.1197  -10.6923 N   0  0  0  0  0  0  0  0  0  0  0  0
   21.0531  -20.8135   -9.9498 N   0  0  0  0  0  0  0  0  0  0  0  0
   22.1694  -20.7013   -8.9920 C   0  0  0  0  0  0  0  0  0  0  0  0
   23.3674  -21.3114   -9.6302 C   0  0  0  0  0  0  0  0  0  0  0  0
   24.1677  -20.4504  -10.5287 C   0  0  0  0  0  0  0  0  0  0  0  0
   25.3096  -21.0966  -11.2427 C   0  0  2  0  0  0  0  0  0  0  0  0
   26.2444  -21.7696  -10.3809 N   0  0  0  0  0  0  0  0  0  0  0  0
   25.9743  -20.0662  -12.0868 C   0  0  0  0  0  0  0  0  0  0  0  0
   26.8637  -19.3210  -11.5898 O   0  0  0  0  0  0  0  0  0  0  0  0
   19.0641  -21.4839  -11.4932 C   0  0  0  0  0  0  0  0  0  0  0  0
   28.1447  -20.6514  -14.6672 C   0  0  2  0  0  0  0  0  0  0  0  0
   27.1833  -19.7060  -15.3424 O   0  0  0  0  0  0  0  0  0  0  0  0
   26.2614  -20.5818  -15.9959 C   0  0  2  0  0  0  0  0  0  0  0  0
   26.4445  -18.9355  -14.2797 N   0  0  0  0  0  0  0  0  0  0  0  0
   25.6726  -19.8568  -13.4421 C   0  0  0  0  0  0  0  0  0  0  0  0
   25.5376  -17.9554  -14.9094 O   0  0  0  0  0  0  0  0  0  0  0  0
   24.3245  -18.3092  -15.1732 N   0  0  0  0  0  0  0  0  0  0  0  0
   25.8310  -16.6294  -15.2721 C   0  0  2  0  0  0  0  0  0  0  0  0
   24.8911  -15.7345  -15.9162 C   0  0  0  0  0  0  0  0  0  0  0  0
   25.3193  -14.3092  -15.9000 S   0  0  0  0  0  0  0  0  0  0  0  0
   27.1380  -14.2859  -16.0946 C   0  0  0  0  0  0  0  0  0  0  0  0
   24.7190  -16.1534  -17.3297 O   0  0  0  0  0  0  0  0  0  0  0  0
   25.5744  -16.8486  -17.8927 O   0  0  0  0  0  0  0  0  0  0  0  0
  1  2  1  0
  2  3  2  0
  4  2  1  0
  4  5  1  0
  6  5  1  0
  6  7  1  0
  7  8  1  0
  8  9  1  1
 10  8  1  0
 10 11  2  0
 13 12  1  6
 14 13  1  0
 15 16  1  6
 15 13  1  0
 16 10  1  0
 17 15  1  0
 18 17  2  0
 19 17  1  0
 20 19  1  0
 21 22  1  0
 20 21  1  6
 23 20  1  0
 23 25  1  0
 24 23  2  0
M  END
$$$$
