RTC.pdb
     RDKit          3D

 25 24  0  0  1  0  0  0  0  0999 V2000
   27.8914  -12.1031  -16.0783 N   0  0  0  0  0  0  0  0  0  0  0  0
   27.5939  -13.2719  -16.8466 C   0  0  0  0  0  0  0  0  0  0  0  0
   28.3556  -14.3074  -16.7257 N   0  0  0  0  0  0  0  0  0  0  0  0
   26.4835  -13.2510  -17.7052 N   0  0  0  0  0  0  0  0  0  0  0  0
   25.5540  -12.1076  -17.6356 C   0  0  0  0  0  0  0  0  0  0  0  0
   24.2589  -12.6174  -17.1087 C   0  0  0  0  0  0  0  0  0  0  0  0
   23.2020  -11.6200  -16.8306 C   0  0  0  0  0  0  0  0  0  0  0  0
   22.0908  -11.5188  -17.8238 C   0  0  2  0  0  0  0  0  0  0  0  0
   22.3723  -12.1319  -19.0943 N   0  0  0  0  0  0  0  0  0  0  0  0
   21.7245  -10.0833  -17.9684 C   0  0  0  0  0  0  0  0  0  0  0  0
   22.3774   -9.3414  -18.7537 O   0  0  0  0  0  0  0  0  0  0  0  0
   28.1816  -15.1765  -17.2621 C   0  0  0  0  0  0  0  0  0  0  0  0
   18.2601   -8.8860  -18.7062 C   0  0  2  0  0  0  0  0  0  0  0  0
   18.7514   -8.0111  -17.5806 O   0  0  0  0  0  0  0  0  0  0  0  0
   18.2205   -8.6435  -16.4135 C   0  0  2  0  0  0  0  0  0  0  0  0
   20.2546   -8.0941  -17.5313 N   0  0  0  0  0  0  0  0  0  0  0  0
   20.6691   -9.4748  -17.2702 C   0  0  0  0  0  0  0  0  0  0  0  0
   20.7717   -7.2089  -16.4690 O   0  0  0  0  0  0  0  0  0  0  0  0
   21.4005   -7.7345  -15.4716 N   0  0  0  0  0  0  0  0  0  0  0  0
   20.6693   -5.8088  -16.3979 C   0  0  1  0  0  0  0  0  0  0  0  0
   21.1805   -5.0096  -15.3029 C   0  0  0  0  0  0  0  0  0  0  0  0
   22.6635   -4.8854  -15.2981 S   0  0  0  0  0  0  0  0  0  0  0  0
   23.1182   -3.8567  -13.8554 C   0  0  0  0  0  0  0  0  0  0  0  0
   20.5989   -3.6466  -15.3895 O   0  0  0  0  0  0  0  0  0  0  0  0
   20.0513   -3.2568  -16.4287 O   0  0  0  0  0  0  0  0  0  0  0  0
  1  2  1  0
  2  3  2  0
  4  2  1  0
  4  5  1  0
  6  5  1  0
  6  7  1  0
  7  8  1  0
  8  9  1  6
 10  8  1  0
 10 11  2  0
 13 12  1  6
 14 13  1  0
 15 16  1  6
 15 13  1  0
 16 10  1  0
 17 15  1  0
 18 17  2  0
 19 17  1  0
 20 19  1  0
 21 22  1  0
 20 21  1  1
 23 20  1  0
 23 25  1  0
 24 23  2  0
M  END
$$$$
