RTC.pdb
     RDKit          3D

 25 24  0  0  1  0  0  0  0  0999 V2000
   25.7719  -16.7633  -17.5864 N   0  0  0  0  0  0  0  0  0  0  0  0
   25.9574  -17.8255  -18.5258 C   0  0  0  0  0  0  0  0  0  0  0  0
   26.0903  -17.5345  -19.7768 N   0  0  0  0  0  0  0  0  0  0  0  0
   25.9884  -19.1470  -18.0535 N   0  0  0  0  0  0  0  0  0  0  0  0
   26.2680  -19.3835  -16.6245 C   0  0  0  0  0  0  0  0  0  0  0  0
   27.6703  -18.9564  -16.3678 C   0  0  0  0  0  0  0  0  0  0  0  0
   28.2209  -19.2171  -15.0195 C   0  0  0  0  0  0  0  0  0  0  0  0
   28.3846  -20.6477  -14.6220 C   0  0  2  0  0  0  0  0  0  0  0  0
   28.9464  -21.4878  -15.6457 N   0  0  0  0  0  0  0  0  0  0  0  0
   27.0670  -21.1535  -14.1490 C   0  0  0  0  0  0  0  0  0  0  0  0
   26.5452  -22.1640  -14.6969 O   0  0  0  0  0  0  0  0  0  0  0  0
   26.2010  -18.2703  -20.4977 C   0  0  0  0  0  0  0  0  0  0  0  0
   26.3308  -21.7840  -10.5321 C   0  0  2  0  0  0  0  0  0  0  0  0
   25.1111  -21.0740  -11.0635 O   0  0  0  0  0  0  0  0  0  0  0  0
   25.3346  -19.7108  -10.6953 C   0  0  2  0  0  0  0  0  0  0  0  0
   25.1166  -21.1738  -12.5665 N   0  0  0  0  0  0  0  0  0  0  0  0
   26.3382  -20.5674  -13.1016 C   0  0  0  0  0  0  0  0  0  0  0  0
   23.9341  -20.4843  -13.1196 O   0  0  0  0  0  0  0  0  0  0  0  0
   24.0482  -19.2535  -13.4917 N   0  0  0  0  0  0  0  0  0  0  0  0
   22.6457  -21.0140  -13.3067 C   0  0  1  0  0  0  0  0  0  0  0  0
   21.5122  -20.2487  -13.7851 C   0  0  0  0  0  0  0  0  0  0  0  0
   21.1726  -20.5149  -15.2095 S   0  0  0  0  0  0  0  0  0  0  0  0
   19.4371  -21.0910  -15.2560 C   0  0  0  0  0  0  0  0  0  0  0  0
   20.3262  -20.5749  -12.9544 O   0  0  0  0  0  0  0  0  0  0  0  0
   20.3825  -21.4587  -12.0898 O   0  0  0  0  0  0  0  0  0  0  0  0
  1  2  1  0
  2  3  2  0
  4  2  1  0
  4  5  1  0
  6  5  1  0
  6  7  1  0
  7  8  1  0
  8  9  1  6
 10  8  1  0
 10 11  2  0
 13 12  1  1
 14 13  1  0
 15 16  1  6
 15 13  1  0
 16 10  1  0
 17 15  1  0
 18 17  2  0
 19 17  1  0
 20 19  1  0
 21 22  1  0
 20 21  1  1
 23 20  1  0
 23 25  1  0
 24 23  2  0
M  END
$$$$
