RTC.pdb
     RDKit          3D

 25 24  0  0  1  0  0  0  0  0999 V2000
   28.3841  -12.9441  -15.6183 N   0  0  0  0  0  0  0  0  0  0  0  0
   28.6781  -11.9902  -16.6424 C   0  0  0  0  0  0  0  0  0  0  0  0
   29.9126  -11.7108  -16.8976 N   0  0  0  0  0  0  0  0  0  0  0  0
   27.6130  -11.3915  -17.3335 N   0  0  0  0  0  0  0  0  0  0  0  0
   26.4844  -10.8414  -16.5590 C   0  0  0  0  0  0  0  0  0  0  0  0
   25.5810  -11.9748  -16.2211 C   0  0  0  0  0  0  0  0  0  0  0  0
   24.3059  -11.6456  -15.5466 C   0  0  0  0  0  0  0  0  0  0  0  0
   23.0546  -11.8280  -16.3419 C   0  0  2  0  0  0  0  0  0  0  0  0
   23.2185  -12.6154  -17.5346 N   0  0  0  0  0  0  0  0  0  0  0  0
   22.4902  -10.4826  -16.6374 C   0  0  0  0  0  0  0  0  0  0  0  0
   22.7262   -9.9289  -17.7469 O   0  0  0  0  0  0  0  0  0  0  0  0
   30.1775  -11.0702  -17.6675 C   0  0  0  0  0  0  0  0  0  0  0  0
   18.9372   -9.6430  -16.6384 C   0  0  2  0  0  0  0  0  0  0  0  0
   19.5675   -8.5685  -15.7886 O   0  0  0  0  0  0  0  0  0  0  0  0
   19.4159   -9.0674  -14.4574 C   0  0  2  0  0  0  0  0  0  0  0  0
   21.0368   -8.5022  -16.1134 N   0  0  0  0  0  0  0  0  0  0  0  0
   21.6869   -9.7609  -15.7398 C   0  0  0  0  0  0  0  0  0  0  0  0
   21.6623   -7.3820  -15.3830 O   0  0  0  0  0  0  0  0  0  0  0  0
   22.1265   -7.5936  -14.1972 N   0  0  0  0  0  0  0  0  0  0  0  0
   21.8305   -6.0594  -15.8278 C   0  0  1  0  0  0  0  0  0  0  0  0
   22.5220   -5.0300  -15.0786 C   0  0  0  0  0  0  0  0  0  0  0  0
   22.9693   -3.8834  -15.9155 S   0  0  0  0  0  0  0  0  0  0  0  0
   24.0590   -4.5561  -17.2215 C   0  0  0  0  0  0  0  0  0  0  0  0
   21.6156   -4.5115  -14.0237 O   0  0  0  0  0  0  0  0  0  0  0  0
   20.4143   -4.8089  -14.0190 O   0  0  0  0  0  0  0  0  0  0  0  0
  1  2  1  0
  2  3  2  0
  4  2  1  0
  4  5  1  0
  6  5  1  0
  6  7  1  0
  7  8  1  0
  8  9  1  6
 10  8  1  0
 10 11  2  0
 13 12  1  1
 14 13  1  0
 15 16  1  6
 15 13  1  0
 16 10  1  0
 17 15  1  0
 18 17  2  0
 19 17  1  0
 20 19  1  0
 21 22  1  0
 20 21  1  1
 23 20  1  0
 23 25  1  0
 24 23  2  0
M  END
$$$$
