RTC.pdb
     RDKit          3D

 25 24  0  0  1  0  0  0  0  0999 V2000
   17.1315  -17.5685  -14.1824 N   0  0  0  0  0  0  0  0  0  0  0  0
   16.0744  -17.5764  -15.1454 C   0  0  0  0  0  0  0  0  0  0  0  0
   15.1352  -18.4552  -15.0322 N   0  0  0  0  0  0  0  0  0  0  0  0
   16.0961  -16.6278  -16.1799 N   0  0  0  0  0  0  0  0  0  0  0  0
   17.2684  -15.7411  -16.3052 C   0  0  0  0  0  0  0  0  0  0  0  0
   16.9403  -14.7098  -17.3267 C   0  0  0  0  0  0  0  0  0  0  0  0
   16.7507  -13.3220  -16.8503 C   0  0  0  0  0  0  0  0  0  0  0  0
   16.3543  -12.3059  -17.8711 C   0  0  2  0  0  0  0  0  0  0  0  0
   15.9092  -12.8621  -19.1208 N   0  0  0  0  0  0  0  0  0  0  0  0
   17.4913  -11.3631  -18.0559 C   0  0  0  0  0  0  0  0  0  0  0  0
   18.3734  -11.6011  -18.9269 O   0  0  0  0  0  0  0  0  0  0  0  0
   14.3726  -18.5295  -15.7295 C   0  0  0  0  0  0  0  0  0  0  0  0
   17.5437   -8.1865  -19.3664 C   0  0  2  0  0  0  0  0  0  0  0  0
   18.2395   -7.9468  -18.0502 O   0  0  0  0  0  0  0  0  0  0  0  0
   17.1816   -7.5175  -17.1896 C   0  0  2  0  0  0  0  0  0  0  0  0
   18.7690   -9.2624  -17.5426 N   0  0  0  0  0  0  0  0  0  0  0  0
   17.6586  -10.1882  -17.3053 C   0  0  0  0  0  0  0  0  0  0  0  0
   19.5190   -9.0514  -16.2886 O   0  0  0  0  0  0  0  0  0  0  0  0
   18.8673   -8.9907  -15.1759 N   0  0  0  0  0  0  0  0  0  0  0  0
   20.9088   -8.9054  -16.1381 C   0  0  1  0  0  0  0  0  0  0  0  0
   21.5710   -8.6776  -14.8697 C   0  0  0  0  0  0  0  0  0  0  0  0
   22.9978   -9.1010  -14.8585 S   0  0  0  0  0  0  0  0  0  0  0  0
   23.0326  -10.9027  -15.1724 C   0  0  0  0  0  0  0  0  0  0  0  0
   21.5120   -7.2295  -14.5493 O   0  0  0  0  0  0  0  0  0  0  0  0
   21.2252   -6.3993  -15.4212 O   0  0  0  0  0  0  0  0  0  0  0  0
  1  2  1  0
  2  3  2  0
  4  2  1  0
  4  5  1  0
  6  5  1  0
  6  7  1  0
  7  8  1  0
  8  9  1  6
 10  8  1  0
 10 11  2  0
 13 12  1  6
 14 13  1  0
 15 16  1  1
 15 13  1  0
 16 10  1  0
 17 15  1  0
 18 17  2  0
 19 17  1  0
 20 19  1  0
 21 22  1  0
 20 21  1  1
 23 20  1  0
 23 25  1  0
 24 23  2  0
M  END
$$$$
