PQF.pdb
     RDKit          3D

 28 29  0  0  1  0  0  0  0  0999 V2000
    8.3985  -15.3699   18.5176 N   0  0  0  0  0  0  0  0  0  0  0  0
    8.3378  -14.8513   17.1829 C   0  0  0  0  0  0  0  0  0  0  0  0
    8.3361  -13.3436   17.2893 C   0  0  0  0  0  0  0  0  0  0  0  0
    7.9058  -13.1378   18.7305 C   0  0  0  0  0  0  0  0  0  0  0  0
    8.6951  -14.2714   19.3978 C   0  0  1  0  0  0  0  0  0  0  0  0
    8.2253  -14.5080   20.7833 C   0  0  0  0  0  0  0  0  0  0  0  0
    8.4886  -13.6794   21.6643 O   0  0  0  0  0  0  0  0  0  0  0  0
    5.6974  -19.9900   22.6022 N   0  0  0  0  0  0  0  0  0  0  0  0
    6.0910  -19.5881   21.2918 C   0  0  0  0  0  0  0  0  0  0  0  0
    6.1413  -20.4828   20.4185 O   0  0  0  0  0  0  0  0  0  0  0  0
    6.4074  -18.1673   21.0609 C   0  0  0  0  0  0  0  0  0  0  0  0
    6.0832  -17.2590   22.2015 C   0  0  0  0  0  0  0  0  0  0  0  0
    6.9651  -16.0624   22.3418 C   0  0  2  0  0  0  0  0  0  0  0  0
    7.4847  -15.6874   21.0481 N   0  0  0  0  0  0  0  0  0  0  0  0
    8.0596  -16.1860   23.2941 C   0  0  0  0  0  0  0  0  0  0  0  0
    9.2772  -16.3334   22.9570 O   0  0  0  0  0  0  0  0  0  0  0  0
    7.7988  -16.1453   24.6879 N   0  0  0  0  0  0  0  0  0  0  0  0
    8.9149  -16.1698   25.6467 C   0  0  1  0  0  0  0  0  0  0  0  0
    9.3485  -14.7378   25.8967 C   0  0  0  0  0  0  0  0  0  0  0  0
    8.2497  -13.8721   26.3822 C   0  0  0  0  0  0  0  0  0  0  0  0
    7.9719  -13.6272   27.7065 C   0  0  0  0  0  0  0  0  0  0  0  0
    6.9393  -12.7990   28.1154 C   0  0  0  0  0  0  0  0  0  0  0  0
    6.1324  -12.1750   27.1886 C   0  0  0  0  0  0  0  0  0  0  0  0
    6.3916  -12.4058   25.8647 C   0  0  0  0  0  0  0  0  0  0  0  0
    7.4162  -13.2273   25.4589 C   0  0  0  0  0  0  0  0  0  0  0  0
    8.4064  -16.7314   26.9039 C   0  0  0  0  0  0  0  0  0  0  0  0
    7.0937  -17.1423   27.0004 O   0  0  0  0  0  0  0  0  0  0  0  0
    9.1539  -16.8410   27.8907 O   0  0  0  0  0  0  0  0  0  0  0  0
  2  1  1  0
  3  2  1  0
  4  3  1  0
  4  5  1  0
  5  1  1  0
  5  6  1  1
  6  7  2  0
  8  9  1  0
  9 11  1  0
 10  9  2  0
 11 12  1  0
 13 12  1  6
 14  6  1  0
 14 13  1  0
 15 17  1  0
 15 13  1  0
 16 15  2  0
 18 26  1  0
 18 19  1  1
 18 17  1  0
 20 19  1  0
 20 21  2  0
 22 21  1  0
 23 22  2  0
 24 25  2  0
 24 23  1  0
 25 20  1  0
 26 27  1  0
 28 26  2  0
M  END
$$$$
