PQF.pdb
     RDKit          3D

 28 29  0  0  1  0  0  0  0  0999 V2000
    9.0894  -14.6480   18.2470 N   0  0  0  0  0  0  0  0  0  0  0  0
    8.5438  -14.1469   17.0201 C   0  0  0  0  0  0  0  0  0  0  0  0
    7.3623  -13.2758   17.3798 C   0  0  0  0  0  0  0  0  0  0  0  0
    7.0449  -13.7535   18.7854 C   0  0  0  0  0  0  0  0  0  0  0  0
    8.4704  -13.9248   19.3255 C   0  0  1  0  0  0  0  0  0  0  0  0
    8.4736  -14.6851   20.5977 C   0  0  0  0  0  0  0  0  0  0  0  0
    7.8116  -14.2680   21.5567 O   0  0  0  0  0  0  0  0  0  0  0  0
   11.3641  -20.3642   20.8655 N   0  0  0  0  0  0  0  0  0  0  0  0
   10.9256  -20.2083   22.2135 C   0  0  0  0  0  0  0  0  0  0  0  0
   11.1214  -21.1732   22.9857 O   0  0  0  0  0  0  0  0  0  0  0  0
   10.2809  -18.9398   22.5976 C   0  0  0  0  0  0  0  0  0  0  0  0
   10.0615  -17.9819   21.4727 C   0  0  0  0  0  0  0  0  0  0  0  0
    9.3588  -16.7151   21.8341 C   0  0  2  0  0  0  0  0  0  0  0  0
    9.2435  -15.8734   20.6668 N   0  0  0  0  0  0  0  0  0  0  0  0
    9.9392  -15.9557   22.9324 C   0  0  0  0  0  0  0  0  0  0  0  0
   10.7131  -14.9589   22.7719 O   0  0  0  0  0  0  0  0  0  0  0  0
    9.6526  -16.3129   24.2750 N   0  0  0  0  0  0  0  0  0  0  0  0
    9.3191  -15.2707   25.2590 C   0  0  1  0  0  0  0  0  0  0  0  0
    8.0663  -14.5607   24.7821 C   0  0  0  0  0  0  0  0  0  0  0  0
    7.5983  -13.5124   25.7174 C   0  0  0  0  0  0  0  0  0  0  0  0
    7.7518  -13.5557   27.0832 C   0  0  0  0  0  0  0  0  0  0  0  0
    7.3083  -12.5446   27.9200 C   0  0  0  0  0  0  0  0  0  0  0  0
    6.6813  -11.4314   27.4031 C   0  0  0  0  0  0  0  0  0  0  0  0
    6.5180  -11.3687   26.0457 C   0  0  0  0  0  0  0  0  0  0  0  0
    6.9582  -12.3717   25.2154 C   0  0  0  0  0  0  0  0  0  0  0  0
    9.0222  -15.9410   26.5305 C   0  0  0  0  0  0  0  0  0  0  0  0
    8.5494  -17.2363   26.5392 O   0  0  0  0  0  0  0  0  0  0  0  0
    9.1943  -15.3474   27.6087 O   0  0  0  0  0  0  0  0  0  0  0  0
  2  1  1  0
  3  2  1  0
  4  3  1  0
  4  5  1  0
  5  1  1  0
  5  6  1  1
  6  7  2  0
  8  9  1  0
  9 11  1  0
 10  9  2  0
 11 12  1  0
 13 12  1  6
 14  6  1  0
 14 13  1  0
 15 17  1  0
 15 13  1  0
 16 15  2  0
 18 26  1  0
 18 19  1  6
 18 17  1  0
 20 19  1  0
 20 21  2  0
 22 21  1  0
 23 22  2  0
 24 25  2  0
 24 23  1  0
 25 20  1  0
 26 27  1  0
 28 26  2  0
M  END
$$$$
