PQF.pdb
     RDKit          3D

 28 29  0  0  1  0  0  0  0  0999 V2000
    9.1386  -14.0952   19.6143 N   0  0  0  0  0  0  0  0  0  0  0  0
    8.6906  -13.4253   18.4292 C   0  0  0  0  0  0  0  0  0  0  0  0
    7.3659  -12.7757   18.7571 C   0  0  0  0  0  0  0  0  0  0  0  0
    6.9400  -13.5519   19.9904 C   0  0  0  0  0  0  0  0  0  0  0  0
    8.2953  -13.6698   20.6993 C   0  0  1  0  0  0  0  0  0  0  0  0
    8.2396  -14.6602   21.8004 C   0  0  0  0  0  0  0  0  0  0  0  0
    7.4054  -14.5187   22.7037 O   0  0  0  0  0  0  0  0  0  0  0  0
   12.3718  -19.9009   22.2733 N   0  0  0  0  0  0  0  0  0  0  0  0
   11.0314  -20.1792   22.6728 C   0  0  0  0  0  0  0  0  0  0  0  0
   10.6400  -21.3613   22.5500 O   0  0  0  0  0  0  0  0  0  0  0  0
   10.2120  -19.0707   23.1942 C   0  0  0  0  0  0  0  0  0  0  0  0
   10.0741  -17.9045   22.2712 C   0  0  0  0  0  0  0  0  0  0  0  0
    9.2347  -16.7785   22.7781 C   0  0  2  0  0  0  0  0  0  0  0  0
    9.1545  -15.7428   21.7754 N   0  0  0  0  0  0  0  0  0  0  0  0
    9.6449  -16.2006   24.0500 C   0  0  0  0  0  0  0  0  0  0  0  0
   10.6370  -15.4158   24.1832 O   0  0  0  0  0  0  0  0  0  0  0  0
    8.9256  -16.5032   25.2346 N   0  0  0  0  0  0  0  0  0  0  0  0
    9.4151  -16.0222   26.5364 C   0  0  1  0  0  0  0  0  0  0  0  0
    8.2252  -15.5032   27.3211 C   0  0  0  0  0  0  0  0  0  0  0  0
    7.7507  -14.1806   26.8542 C   0  0  0  0  0  0  0  0  0  0  0  0
    6.5904  -13.9692   26.1472 C   0  0  0  0  0  0  0  0  0  0  0  0
    6.1788  -12.7104   25.7405 C   0  0  0  0  0  0  0  0  0  0  0  0
    6.9347  -11.5965   26.0357 C   0  0  0  0  0  0  0  0  0  0  0  0
    8.0939  -11.7849   26.7385 C   0  0  0  0  0  0  0  0  0  0  0  0
    8.5023  -13.0338   27.1422 C   0  0  0  0  0  0  0  0  0  0  0  0
    9.9804  -17.1736   27.2498 C   0  0  0  0  0  0  0  0  0  0  0  0
    9.9624  -18.4257   26.6725 O   0  0  0  0  0  0  0  0  0  0  0  0
   10.4794  -17.0299   28.3789 O   0  0  0  0  0  0  0  0  0  0  0  0
  2  1  1  0
  3  2  1  0
  4  3  1  0
  4  5  1  0
  5  1  1  0
  5  6  1  1
  6  7  2  0
  8  9  1  0
  9 11  1  0
 10  9  2  0
 11 12  1  0
 13 12  1  6
 14  6  1  0
 14 13  1  0
 15 17  1  0
 15 13  1  0
 16 15  2  0
 18 26  1  0
 18 19  1  1
 18 17  1  0
 20 19  1  0
 20 21  2  0
 22 21  1  0
 23 22  2  0
 24 25  2  0
 24 23  1  0
 25 20  1  0
 26 27  1  0
 28 26  2  0
M  END
$$$$
