PQF.pdb
     RDKit          3D

 28 29  0  0  1  0  0  0  0  0999 V2000
    9.0182  -14.6595   18.6583 N   0  0  0  0  0  0  0  0  0  0  0  0
    8.4536  -13.9161   17.5709 C   0  0  0  0  0  0  0  0  0  0  0  0
    7.5856  -12.8348   18.1722 C   0  0  0  0  0  0  0  0  0  0  0  0
    7.3525  -13.3715   19.5731 C   0  0  0  0  0  0  0  0  0  0  0  0
    8.7501  -13.9302   19.8690 C   0  0  1  0  0  0  0  0  0  0  0  0
    8.7362  -14.8011   21.0680 C   0  0  0  0  0  0  0  0  0  0  0  0
    8.3884  -14.3292   22.1581 O   0  0  0  0  0  0  0  0  0  0  0  0
    9.4975  -21.0398   20.2990 N   0  0  0  0  0  0  0  0  0  0  0  0
   10.6417  -20.1951   20.1950 C   0  0  0  0  0  0  0  0  0  0  0  0
   11.6377  -20.6648   19.6008 O   0  0  0  0  0  0  0  0  0  0  0  0
   10.5727  -18.8471   20.7868 C   0  0  0  0  0  0  0  0  0  0  0  0
    9.2596  -18.5019   21.4094 C   0  0  0  0  0  0  0  0  0  0  0  0
    9.1618  -17.1275   21.9846 C   0  0  2  0  0  0  0  0  0  0  0  0
    9.1263  -16.1557   20.9175 N   0  0  0  0  0  0  0  0  0  0  0  0
   10.1931  -16.7645   22.9461 C   0  0  0  0  0  0  0  0  0  0  0  0
   11.0863  -15.8857   22.7273 O   0  0  0  0  0  0  0  0  0  0  0  0
   10.2425  -17.4023   24.2123 N   0  0  0  0  0  0  0  0  0  0  0  0
   10.6462  -16.6407   25.4050 C   0  0  1  0  0  0  0  0  0  0  0  0
    9.6013  -15.5691   25.6517 C   0  0  0  0  0  0  0  0  0  0  0  0
    9.7804  -14.8663   26.9427 C   0  0  0  0  0  0  0  0  0  0  0  0
    9.5522  -13.5251   27.1428 C   0  0  0  0  0  0  0  0  0  0  0  0
    9.7215  -12.9111   28.3731 C   0  0  0  0  0  0  0  0  0  0  0  0
   10.1351  -13.6382   29.4684 C   0  0  0  0  0  0  0  0  0  0  0  0
   10.3682  -14.9751   29.2907 C   0  0  0  0  0  0  0  0  0  0  0  0
   10.2001  -15.5844   28.0701 C   0  0  0  0  0  0  0  0  0  0  0  0
   10.6448  -17.5672   26.5434 C   0  0  0  0  0  0  0  0  0  0  0  0
   11.5155  -17.3764   27.5955 O   0  0  0  0  0  0  0  0  0  0  0  0
    9.8597  -18.5303   26.5685 O   0  0  0  0  0  0  0  0  0  0  0  0
  2  1  1  0
  3  2  1  0
  4  3  1  0
  4  5  1  0
  5  1  1  0
  5  6  1  1
  6  7  2  0
  8  9  1  0
  9 11  1  0
 10  9  2  0
 11 12  1  0
 13 12  1  6
 14  6  1  0
 14 13  1  0
 15 17  1  0
 15 13  1  0
 16 15  2  0
 18 26  1  0
 18 19  1  1
 18 17  1  0
 20 19  1  0
 20 21  2  0
 22 21  1  0
 23 22  2  0
 24 25  2  0
 24 23  1  0
 25 20  1  0
 26 27  1  0
 28 26  2  0
M  END
$$$$
