PQF.pdb
     RDKit          3D

 28 29  0  0  1  0  0  0  0  0999 V2000
    8.5298  -15.2998   19.3409 N   0  0  0  0  0  0  0  0  0  0  0  0
    8.3584  -14.7821   18.0156 C   0  0  0  0  0  0  0  0  0  0  0  0
    7.8037  -13.3827   18.1511 C   0  0  0  0  0  0  0  0  0  0  0  0
    7.2495  -13.4074   19.5643 C   0  0  0  0  0  0  0  0  0  0  0  0
    8.3586  -14.2067   20.2602 C   0  0  1  0  0  0  0  0  0  0  0  0
    7.9314  -14.6555   21.6066 C   0  0  0  0  0  0  0  0  0  0  0  0
    7.7322  -13.8147   22.4927 O   0  0  0  0  0  0  0  0  0  0  0  0
    6.5967  -20.8190   22.5373 N   0  0  0  0  0  0  0  0  0  0  0  0
    6.2588  -20.2656   23.8074 C   0  0  0  0  0  0  0  0  0  0  0  0
    5.7693  -21.0485   24.6519 O   0  0  0  0  0  0  0  0  0  0  0  0
    6.5053  -18.8302   24.0334 C   0  0  0  0  0  0  0  0  0  0  0  0
    6.9562  -18.0736   22.8270 C   0  0  0  0  0  0  0  0  0  0  0  0
    7.2766  -16.6330   23.0536 C   0  0  2  0  0  0  0  0  0  0  0  0
    7.7661  -16.0458   21.8288 N   0  0  0  0  0  0  0  0  0  0  0  0
    8.2042  -16.3500   24.1395 C   0  0  0  0  0  0  0  0  0  0  0  0
    9.4685  -16.3264   24.0017 O   0  0  0  0  0  0  0  0  0  0  0  0
    7.7137  -16.0795   25.4428 N   0  0  0  0  0  0  0  0  0  0  0  0
    8.6539  -15.8025   26.5405 C   0  0  1  0  0  0  0  0  0  0  0  0
    7.9491  -14.9130   27.5470 C   0  0  0  0  0  0  0  0  0  0  0  0
    7.5684  -13.5935   26.9932 C   0  0  0  0  0  0  0  0  0  0  0  0
    8.4576  -12.6046   26.6431 C   0  0  0  0  0  0  0  0  0  0  0  0
    8.0565  -11.3878   26.1163 C   0  0  0  0  0  0  0  0  0  0  0  0
    6.7199  -11.1157   25.9190 C   0  0  0  0  0  0  0  0  0  0  0  0
    5.8180  -12.0866   26.2613 C   0  0  0  0  0  0  0  0  0  0  0  0
    6.2159  -13.2941   26.7839 C   0  0  0  0  0  0  0  0  0  0  0  0
    8.9696  -17.0820   27.1866 C   0  0  0  0  0  0  0  0  0  0  0  0
    9.8986  -17.1358   28.2042 O   0  0  0  0  0  0  0  0  0  0  0  0
    8.4030  -18.1264   26.8224 O   0  0  0  0  0  0  0  0  0  0  0  0
  2  1  1  0
  3  2  1  0
  4  3  1  0
  4  5  1  0
  5  1  1  0
  5  6  1  1
  6  7  2  0
  8  9  1  0
  9 11  1  0
 10  9  2  0
 11 12  1  0
 13 12  1  6
 14  6  1  0
 14 13  1  0
 15 17  1  0
 15 13  1  0
 16 15  2  0
 18 26  1  0
 18 19  1  1
 18 17  1  0
 20 19  1  0
 20 21  2  0
 22 21  1  0
 23 22  2  0
 24 25  2  0
 24 23  1  0
 25 20  1  0
 26 27  1  0
 28 26  2  0
M  END
$$$$
