PQF.pdb
     RDKit          3D

 28 29  0  0  1  0  0  0  0  0999 V2000
    8.3349  -15.1352   19.3791 N   0  0  0  0  0  0  0  0  0  0  0  0
    8.1338  -14.5086   18.1060 C   0  0  0  0  0  0  0  0  0  0  0  0
    7.6551  -13.1000   18.3723 C   0  0  0  0  0  0  0  0  0  0  0  0
    7.1601  -13.2090   19.8033 C   0  0  0  0  0  0  0  0  0  0  0  0
    8.2566  -14.1102   20.3854 C   0  0  1  0  0  0  0  0  0  0  0  0
    7.8647  -14.6422   21.7120 C   0  0  0  0  0  0  0  0  0  0  0  0
    7.7495  -13.8654   22.6686 O   0  0  0  0  0  0  0  0  0  0  0  0
    6.3979  -20.8264   22.2820 N   0  0  0  0  0  0  0  0  0  0  0  0
    6.2365  -20.3773   23.6258 C   0  0  0  0  0  0  0  0  0  0  0  0
    5.8637  -21.2280   24.4642 O   0  0  0  0  0  0  0  0  0  0  0  0
    6.5152  -18.9622   23.9291 C   0  0  0  0  0  0  0  0  0  0  0  0
    6.9392  -18.1409   22.7557 C   0  0  0  0  0  0  0  0  0  0  0  0
    7.1835  -16.6950   23.0369 C   0  0  2  0  0  0  0  0  0  0  0  0
    7.6347  -16.0357   21.8344 N   0  0  0  0  0  0  0  0  0  0  0  0
    8.1002  -16.4048   24.1302 C   0  0  0  0  0  0  0  0  0  0  0  0
    9.3591  -16.2920   23.9867 O   0  0  0  0  0  0  0  0  0  0  0  0
    7.6046  -16.2302   25.4478 N   0  0  0  0  0  0  0  0  0  0  0  0
    8.5410  -16.0600   26.5702 C   0  0  1  0  0  0  0  0  0  0  0  0
    7.8755  -15.1720   27.6044 C   0  0  0  0  0  0  0  0  0  0  0  0
    7.6732  -13.7819   27.1360 C   0  0  0  0  0  0  0  0  0  0  0  0
    8.6749  -12.8515   26.9878 C   0  0  0  0  0  0  0  0  0  0  0  0
    8.4409  -11.5637   26.5341 C   0  0  0  0  0  0  0  0  0  0  0  0
    7.1655  -11.1567   26.2069 C   0  0  0  0  0  0  0  0  0  0  0  0
    6.1536  -12.0674   26.3476 C   0  0  0  0  0  0  0  0  0  0  0  0
    6.3857  -13.3454   26.7976 C   0  0  0  0  0  0  0  0  0  0  0  0
    8.7656  -17.3833   27.1641 C   0  0  0  0  0  0  0  0  0  0  0  0
    9.6933  -17.5443   28.1715 O   0  0  0  0  0  0  0  0  0  0  0  0
    8.1222  -18.3687   26.7644 O   0  0  0  0  0  0  0  0  0  0  0  0
  2  1  1  0
  3  2  1  0
  4  3  1  0
  4  5  1  0
  5  1  1  0
  5  6  1  1
  6  7  2  0
  8  9  1  0
  9 11  1  0
 10  9  2  0
 11 12  1  0
 13 12  1  6
 14  6  1  0
 14 13  1  0
 15 17  1  0
 15 13  1  0
 16 15  2  0
 18 26  1  0
 18 19  1  1
 18 17  1  0
 20 19  1  0
 20 21  2  0
 22 21  1  0
 23 22  2  0
 24 25  2  0
 24 23  1  0
 25 20  1  0
 26 27  1  0
 28 26  2  0
M  END
$$$$
