DWI.pdb
     RDKit          3D

 31 32  0  0  1  0  0  0  0  0999 V2000
   10.8319  -17.1842   19.4958 N   0  0  0  0  0  0  0  0  0  0  0  0
   11.7414  -17.5089   20.5765 C   0  0  1  0  0  0  0  0  0  0  0  0
   13.1257  -16.9828   20.2560 C   0  0  0  0  0  0  0  0  0  0  0  0
   13.7054  -17.7799   19.1540 C   0  0  0  0  0  0  0  0  0  0  0  0
   12.9765  -18.5799   18.5238 O   0  0  0  0  0  0  0  0  0  0  0  0
   11.2903  -16.7346   21.7829 C   0  0  0  0  0  0  0  0  0  0  0  0
   11.8886  -15.7181   22.1684 O   0  0  0  0  0  0  0  0  0  0  0  0
   15.0360  -17.6834   18.7787 O   0  0  0  0  0  0  0  0  0  0  0  0
   10.1549  -17.1678   22.5054 N   0  0  0  0  0  0  0  0  0  0  0  0
    9.5222  -16.5023   23.5948 C   0  0  1  0  0  0  0  0  0  0  0  0
    7.9818  -16.5153   23.5134 C   0  0  0  0  0  0  0  0  0  0  0  0
    7.4061  -15.1760   23.3288 C   0  0  0  0  0  0  0  0  0  0  0  0
    7.1151  -14.5069   22.1788 C   0  0  0  0  0  0  0  0  0  0  0  0
    6.5836  -13.2865   22.4601 N   0  0  0  0  0  0  0  0  0  0  0  0
    6.5175  -13.1371   23.7762 C   0  0  0  0  0  0  0  0  0  0  0  0
    6.0753  -12.1297   24.6208 C   0  0  0  0  0  0  0  0  0  0  0  0
    6.1415  -12.2921   25.9812 C   0  0  0  0  0  0  0  0  0  0  0  0
    6.6414  -13.4429   26.5618 C   0  0  0  0  0  0  0  0  0  0  0  0
    7.0786  -14.4380   25.7105 C   0  0  0  0  0  0  0  0  0  0  0  0
    7.0156  -14.2822   24.3450 C   0  0  0  0  0  0  0  0  0  0  0  0
    9.9365  -16.8984   24.9324 C   0  0  0  0  0  0  0  0  0  0  0  0
   10.5890  -17.9881   25.0901 O   0  0  0  0  0  0  0  0  0  0  0  0
   10.8489  -14.0290   30.3741 C   0  0  0  0  0  0  0  0  0  0  0  0
   11.2693  -15.1272   29.4481 C   0  0  0  0  0  0  0  0  0  0  0  0
   10.5357  -15.1240   28.1714 C   0  0  2  0  0  0  0  0  0  0  0  0
    9.1288  -14.5319   28.3469 C   0  0  0  0  0  0  0  0  0  0  0  0
   10.5028  -16.3331   27.3358 C   0  0  2  0  0  0  0  0  0  0  0  0
    9.6796  -16.1679   26.1243 N   0  0  0  0  0  0  0  0  0  0  0  0
   10.0030  -17.5247   28.0333 C   0  0  0  0  0  0  0  0  0  0  0  0
   10.8321  -18.3149   28.8603 O   0  0  0  0  0  0  0  0  0  0  0  0
    8.8152  -17.9275   27.9527 O   0  0  0  0  0  0  0  0  0  0  0  0
  2  1  1  6
  2  6  1  0
  3  4  1  0
  3  2  1  0
  4  5  2  0
  6  7  2  0
  8  4  1  0
  9  6  1  0
  9 10  1  0
 10 11  1  1
 11 12  1  0
 12 13  2  0
 13 14  1  0
 15 14  1  0
 16 15  2  0
 17 16  1  0
 18 19  1  0
 18 17  2  0
 19 20  2  0
 20 12  1  0
 20 15  1  0
 21 10  1  0
 21 22  2  0
 23 24  1  0
 24 25  1  0
 25 27  1  0
 25 26  1  1
 27 29  1  0
 27 28  1  6
 28 21  1  0
 29 30  1  0
 31 29  2  0
M  END
$$$$
