DWI.pdb
     RDKit          3D

 31 32  0  0  1  0  0  0  0  0999 V2000
   10.1734  -18.1185   20.0292 N   0  0  0  0  0  0  0  0  0  0  0  0
   11.4469  -17.7870   20.6365 C   0  0  1  0  0  0  0  0  0  0  0  0
   12.2352  -16.8825   19.7111 C   0  0  0  0  0  0  0  0  0  0  0  0
   12.8493  -17.6979   18.6417 C   0  0  0  0  0  0  0  0  0  0  0  0
   12.1157  -18.3776   17.8880 O   0  0  0  0  0  0  0  0  0  0  0  0
   11.1543  -16.9547   21.8531 C   0  0  0  0  0  0  0  0  0  0  0  0
   11.9433  -16.0857   22.2557 O   0  0  0  0  0  0  0  0  0  0  0  0
   14.2180  -17.7473   18.4293 O   0  0  0  0  0  0  0  0  0  0  0  0
    9.9504  -17.1597   22.5655 N   0  0  0  0  0  0  0  0  0  0  0  0
    9.4804  -16.4239   23.6914 C   0  0  1  0  0  0  0  0  0  0  0  0
    7.9471  -16.2567   23.7213 C   0  0  0  0  0  0  0  0  0  0  0  0
    7.5164  -14.8729   23.4790 C   0  0  0  0  0  0  0  0  0  0  0  0
    7.4810  -14.1655   22.3158 C   0  0  0  0  0  0  0  0  0  0  0  0
    7.0040  -12.9107   22.5366 N   0  0  0  0  0  0  0  0  0  0  0  0
    6.7228  -12.7759   23.8256 C   0  0  0  0  0  0  0  0  0  0  0  0
    6.2197  -11.7490   24.6103 C   0  0  0  0  0  0  0  0  0  0  0  0
    6.0368  -11.9364   25.9568 C   0  0  0  0  0  0  0  0  0  0  0  0
    6.3389  -13.1322   26.5814 C   0  0  0  0  0  0  0  0  0  0  0  0
    6.8393  -14.1465   25.7895 C   0  0  0  0  0  0  0  0  0  0  0  0
    7.0257  -13.9658   24.4385 C   0  0  0  0  0  0  0  0  0  0  0  0
    9.9416  -16.8647   24.9993 C   0  0  0  0  0  0  0  0  0  0  0  0
   10.5148  -18.0036   25.1113 O   0  0  0  0  0  0  0  0  0  0  0  0
   10.4431  -13.0245   29.1466 C   0  0  0  0  0  0  0  0  0  0  0  0
   10.7575  -13.9880   28.0452 C   0  0  0  0  0  0  0  0  0  0  0  0
   10.5551  -15.3952   28.4283 C   0  0  2  0  0  0  0  0  0  0  0  0
   11.4103  -15.7608   29.6513 C   0  0  0  0  0  0  0  0  0  0  0  0
   10.6069  -16.4528   27.4085 C   0  0  2  0  0  0  0  0  0  0  0  0
    9.8147  -16.1286   26.2085 N   0  0  0  0  0  0  0  0  0  0  0  0
   10.1442  -17.7622   27.8857 C   0  0  0  0  0  0  0  0  0  0  0  0
    8.7852  -18.1441   27.8334 O   0  0  0  0  0  0  0  0  0  0  0  0
   10.9101  -18.6340   28.3684 O   0  0  0  0  0  0  0  0  0  0  0  0
  2  1  1  6
  2  6  1  0
  3  4  1  0
  3  2  1  0
  4  5  2  0
  6  7  2  0
  8  4  1  0
  9  6  1  0
  9 10  1  0
 10 11  1  1
 11 12  1  0
 12 13  2  0
 13 14  1  0
 15 14  1  0
 16 15  2  0
 17 16  1  0
 18 19  1  0
 18 17  2  0
 19 20  2  0
 20 12  1  0
 20 15  1  0
 21 10  1  0
 21 22  2  0
 23 24  1  0
 24 25  1  0
 25 27  1  0
 25 26  1  1
 27 29  1  0
 27 28  1  6
 28 21  1  0
 29 30  1  0
 31 29  2  0
M  END
$$$$
