DWI.pdb
     RDKit          3D

 31 32  0  0  1  0  0  0  0  0999 V2000
   10.2597  -18.2988   20.2543 N   0  0  0  0  0  0  0  0  0  0  0  0
   11.2153  -17.2358   20.4936 C   0  0  1  0  0  0  0  0  0  0  0  0
   11.2104  -16.2706   19.3256 C   0  0  0  0  0  0  0  0  0  0  0  0
   11.8678  -16.9088   18.1652 C   0  0  0  0  0  0  0  0  0  0  0  0
   12.3939  -18.0373   18.2999 O   0  0  0  0  0  0  0  0  0  0  0  0
   10.7120  -16.4434   21.6672 C   0  0  0  0  0  0  0  0  0  0  0  0
   11.1109  -15.2912   21.8974 O   0  0  0  0  0  0  0  0  0  0  0  0
   11.9308  -16.3102   16.9168 O   0  0  0  0  0  0  0  0  0  0  0  0
    9.7581  -17.0173   22.5388 N   0  0  0  0  0  0  0  0  0  0  0  0
    9.2573  -16.4631   23.7522 C   0  0  1  0  0  0  0  0  0  0  0  0
    7.8708  -17.0082   24.1519 C   0  0  0  0  0  0  0  0  0  0  0  0
    6.8609  -15.9515   24.3028 C   0  0  0  0  0  0  0  0  0  0  0  0
    5.5507  -15.9430   23.9312 C   0  0  0  0  0  0  0  0  0  0  0  0
    4.9691  -14.7595   24.2660 N   0  0  0  0  0  0  0  0  0  0  0  0
    5.8717  -13.9853   24.8531 C   0  0  0  0  0  0  0  0  0  0  0  0
    5.8555  -12.7079   25.3930 C   0  0  0  0  0  0  0  0  0  0  0  0
    6.9934  -12.1792   25.9471 C   0  0  0  0  0  0  0  0  0  0  0  0
    8.1844  -12.8798   25.9924 C   0  0  0  0  0  0  0  0  0  0  0  0
    8.1877  -14.1501   25.4515 C   0  0  0  0  0  0  0  0  0  0  0  0
    7.0503  -14.6869   24.8937 C   0  0  0  0  0  0  0  0  0  0  0  0
   10.1429  -16.5084   24.9060 C   0  0  0  0  0  0  0  0  0  0  0  0
   11.1372  -17.3143   24.9024 O   0  0  0  0  0  0  0  0  0  0  0  0
   10.9930  -13.9451   30.5466 C   0  0  0  0  0  0  0  0  0  0  0  0
   11.5168  -14.8730   29.4955 C   0  0  0  0  0  0  0  0  0  0  0  0
   10.7438  -14.8286   28.2430 C   0  0  2  0  0  0  0  0  0  0  0  0
    9.2682  -14.5012   28.5188 C   0  0  0  0  0  0  0  0  0  0  0  0
   10.8726  -15.9114   27.2571 C   0  0  2  0  0  0  0  0  0  0  0  0
   10.0084  -15.7170   26.0789 N   0  0  0  0  0  0  0  0  0  0  0  0
   10.5696  -17.2440   27.7945 C   0  0  0  0  0  0  0  0  0  0  0  0
   11.5476  -18.0361   28.4361 O   0  0  0  0  0  0  0  0  0  0  0  0
    9.4324  -17.7754   27.7290 O   0  0  0  0  0  0  0  0  0  0  0  0
  2  1  1  6
  2  6  1  0
  3  4  1  0
  3  2  1  0
  4  5  2  0
  6  7  2  0
  8  4  1  0
  9  6  1  0
  9 10  1  0
 10 11  1  1
 11 12  1  0
 12 13  2  0
 13 14  1  0
 15 14  1  0
 16 15  2  0
 17 16  1  0
 18 19  1  0
 18 17  2  0
 19 20  2  0
 20 12  1  0
 20 15  1  0
 21 10  1  0
 21 22  2  0
 23 24  1  0
 24 25  1  0
 25 27  1  0
 25 26  1  1
 27 29  1  0
 27 28  1  6
 28 21  1  0
 29 30  1  0
 31 29  2  0
M  END
$$$$
