DWI.pdb
     RDKit          3D

 31 32  0  0  1  0  0  0  0  0999 V2000
   10.3197  -19.2610   20.8653 N   0  0  0  0  0  0  0  0  0  0  0  0
   11.4089  -18.3051   20.8445 C   0  0  1  0  0  0  0  0  0  0  0  0
   11.4560  -17.6121   19.4978 C   0  0  0  0  0  0  0  0  0  0  0  0
   12.7780  -16.9726   19.3265 C   0  0  0  0  0  0  0  0  0  0  0  0
   13.7255  -17.3088   20.0732 O   0  0  0  0  0  0  0  0  0  0  0  0
   11.0714  -17.2272   21.8356 C   0  0  0  0  0  0  0  0  0  0  0  0
   11.8529  -16.2944   22.0784 O   0  0  0  0  0  0  0  0  0  0  0  0
   13.0234  -16.0049   18.3652 O   0  0  0  0  0  0  0  0  0  0  0  0
    9.8324  -17.2677   22.5155 N   0  0  0  0  0  0  0  0  0  0  0  0
    9.3495  -16.3381   23.4813 C   0  0  1  0  0  0  0  0  0  0  0  0
    7.8118  -16.3201   23.6034 C   0  0  0  0  0  0  0  0  0  0  0  0
    7.1454  -15.8420   22.3842 C   0  0  0  0  0  0  0  0  0  0  0  0
    6.1780  -16.4374   21.6329 C   0  0  0  0  0  0  0  0  0  0  0  0
    5.8338  -15.6424   20.5839 N   0  0  0  0  0  0  0  0  0  0  0  0
    6.5563  -14.5312   20.6286 C   0  0  0  0  0  0  0  0  0  0  0  0
    6.6352  -13.3888   19.8461 C   0  0  0  0  0  0  0  0  0  0  0  0
    7.5123  -12.3869   20.1752 C   0  0  0  0  0  0  0  0  0  0  0  0
    8.3411  -12.4671   21.2788 C   0  0  0  0  0  0  0  0  0  0  0  0
    8.2534  -13.6093   22.0495 C   0  0  0  0  0  0  0  0  0  0  0  0
    7.3763  -14.6185   21.7255 C   0  0  0  0  0  0  0  0  0  0  0  0
    9.9367  -16.4122   24.8107 C   0  0  0  0  0  0  0  0  0  0  0  0
   10.8467  -17.2806   25.0470 O   0  0  0  0  0  0  0  0  0  0  0  0
    9.1618  -12.2370   28.5261 C   0  0  0  0  0  0  0  0  0  0  0  0
    9.7462  -13.1964   27.5370 C   0  0  0  0  0  0  0  0  0  0  0  0
    9.9775  -14.5389   28.0958 C   0  0  2  0  0  0  0  0  0  0  0  0
   10.9524  -14.4804   29.2819 C   0  0  0  0  0  0  0  0  0  0  0  0
   10.2915  -15.6654   27.2050 C   0  0  2  0  0  0  0  0  0  0  0  0
    9.5875  -15.5851   25.9125 N   0  0  0  0  0  0  0  0  0  0  0  0
    9.9829  -16.9813   27.7790 C   0  0  0  0  0  0  0  0  0  0  0  0
   10.9487  -17.7444   28.4722 O   0  0  0  0  0  0  0  0  0  0  0  0
    8.8513  -17.5227   27.7021 O   0  0  0  0  0  0  0  0  0  0  0  0
  2  1  1  6
  2  6  1  0
  3  4  1  0
  3  2  1  0
  4  5  2  0
  6  7  2  0
  8  4  1  0
  9  6  1  0
  9 10  1  0
 10 11  1  1
 11 12  1  0
 12 13  2  0
 13 14  1  0
 15 14  1  0
 16 15  2  0
 17 16  1  0
 18 19  1  0
 18 17  2  0
 19 20  2  0
 20 12  1  0
 20 15  1  0
 21 10  1  0
 21 22  2  0
 23 24  1  0
 24 25  1  0
 25 27  1  0
 25 26  1  1
 27 29  1  0
 27 28  1  6
 28 21  1  0
 29 30  1  0
 31 29  2  0
M  END
$$$$
