DWI.pdb
     RDKit          3D

 31 32  0  0  1  0  0  0  0  0999 V2000
   10.6719  -17.7044   19.9022 N   0  0  0  0  0  0  0  0  0  0  0  0
   11.7893  -17.0740   20.5762 C   0  0  1  0  0  0  0  0  0  0  0  0
   12.3447  -15.9591   19.7133 C   0  0  0  0  0  0  0  0  0  0  0  0
   13.1784  -16.5437   18.6414 C   0  0  0  0  0  0  0  0  0  0  0  0
   13.1735  -17.7836   18.4651 O   0  0  0  0  0  0  0  0  0  0  0  0
   11.2426  -16.3954   21.8005 C   0  0  0  0  0  0  0  0  0  0  0  0
   11.9238  -15.5999   22.4662 O   0  0  0  0  0  0  0  0  0  0  0  0
   13.9770  -15.7749   17.8096 O   0  0  0  0  0  0  0  0  0  0  0  0
    9.9175  -16.6638   22.2139 N   0  0  0  0  0  0  0  0  0  0  0  0
    9.2376  -16.1116   23.3377 C   0  0  1  0  0  0  0  0  0  0  0  0
    7.7026  -16.2388   23.2521 C   0  0  0  0  0  0  0  0  0  0  0  0
    7.0127  -15.6414   24.4037 C   0  0  0  0  0  0  0  0  0  0  0  0
    6.3097  -16.2434   25.4028 C   0  0  0  0  0  0  0  0  0  0  0  0
    5.8382  -15.3152   26.2787 N   0  0  0  0  0  0  0  0  0  0  0  0
    6.2176  -14.1097   25.8765 C   0  0  0  0  0  0  0  0  0  0  0  0
    6.0390  -12.8215   26.3583 C   0  0  0  0  0  0  0  0  0  0  0  0
    6.5805  -11.7538   25.6889 C   0  0  0  0  0  0  0  0  0  0  0  0
    7.3140  -11.9084   24.5272 C   0  0  0  0  0  0  0  0  0  0  0  0
    7.4844  -13.1955   24.0576 C   0  0  0  0  0  0  0  0  0  0  0  0
    6.9440  -14.2713   24.7235 C   0  0  0  0  0  0  0  0  0  0  0  0
    9.6839  -16.5494   24.6517 C   0  0  0  0  0  0  0  0  0  0  0  0
   10.0071  -17.7751   24.8283 O   0  0  0  0  0  0  0  0  0  0  0  0
   10.7902  -12.8357   28.8719 C   0  0  0  0  0  0  0  0  0  0  0  0
   10.8852  -13.8044   27.7349 C   0  0  0  0  0  0  0  0  0  0  0  0
   10.4628  -15.1680   28.0960 C   0  0  2  0  0  0  0  0  0  0  0  0
   11.2238  -15.6702   29.3327 C   0  0  0  0  0  0  0  0  0  0  0  0
   10.3776  -16.2120   27.0645 C   0  0  2  0  0  0  0  0  0  0  0  0
    9.8015  -15.7201   25.8000 N   0  0  0  0  0  0  0  0  0  0  0  0
    9.5881  -17.3829   27.4672 C   0  0  0  0  0  0  0  0  0  0  0  0
   10.1886  -18.5549   27.9784 O   0  0  0  0  0  0  0  0  0  0  0  0
    8.3344  -17.4322   27.3924 O   0  0  0  0  0  0  0  0  0  0  0  0
  2  1  1  6
  2  6  1  0
  3  4  1  0
  3  2  1  0
  4  5  2  0
  6  7  2  0
  8  4  1  0
  9  6  1  0
  9 10  1  0
 10 11  1  6
 11 12  1  0
 12 13  2  0
 13 14  1  0
 15 14  1  0
 16 15  2  0
 17 16  1  0
 18 19  1  0
 18 17  2  0
 19 20  2  0
 20 12  1  0
 20 15  1  0
 21 10  1  0
 21 22  2  0
 23 24  1  0
 24 25  1  0
 25 27  1  0
 25 26  1  1
 27 29  1  0
 27 28  1  6
 28 21  1  0
 29 30  1  0
 31 29  2  0
M  END
$$$$
