DWI.pdb
     RDKit          3D

 31 32  0  0  1  0  0  0  0  0999 V2000
   10.1930  -17.7277   19.4138 N   0  0  0  0  0  0  0  0  0  0  0  0
   11.3369  -17.1939   20.1258 C   0  0  1  0  0  0  0  0  0  0  0  0
   12.0659  -16.1963   19.2487 C   0  0  0  0  0  0  0  0  0  0  0  0
   12.7840  -16.9229   18.1799 C   0  0  0  0  0  0  0  0  0  0  0  0
   12.4775  -16.7177   16.9832 O   0  0  0  0  0  0  0  0  0  0  0  0
   10.8055  -16.3941   21.2818 C   0  0  0  0  0  0  0  0  0  0  0  0
   11.3970  -15.3905   21.7092 O   0  0  0  0  0  0  0  0  0  0  0  0
   13.7953  -17.8336   18.4420 O   0  0  0  0  0  0  0  0  0  0  0  0
    9.5997  -16.7875   21.9066 N   0  0  0  0  0  0  0  0  0  0  0  0
    9.0299  -16.2471   23.0955 C   0  0  1  0  0  0  0  0  0  0  0  0
    7.5992  -16.7508   23.3765 C   0  0  0  0  0  0  0  0  0  0  0  0
    6.9047  -15.9613   24.4030 C   0  0  0  0  0  0  0  0  0  0  0  0
    6.0232  -16.3644   25.3597 C   0  0  0  0  0  0  0  0  0  0  0  0
    5.6220  -15.3051   26.1133 N   0  0  0  0  0  0  0  0  0  0  0  0
    6.2233  -14.2085   25.6721 C   0  0  0  0  0  0  0  0  0  0  0  0
    6.2045  -12.8719   26.0418 C   0  0  0  0  0  0  0  0  0  0  0  0
    6.9691  -11.9579   25.3625 C   0  0  0  0  0  0  0  0  0  0  0  0
    7.7771  -12.3185   24.3001 C   0  0  0  0  0  0  0  0  0  0  0  0
    7.7869  -13.6518   23.9417 C   0  0  0  0  0  0  0  0  0  0  0  0
    7.0224  -14.5742   24.6182 C   0  0  0  0  0  0  0  0  0  0  0  0
    9.8251  -16.3556   24.3093 C   0  0  0  0  0  0  0  0  0  0  0  0
   10.7149  -17.2715   24.3967 O   0  0  0  0  0  0  0  0  0  0  0  0
   10.7940  -13.5287   29.8188 C   0  0  0  0  0  0  0  0  0  0  0  0
   11.1036  -14.6814   28.9156 C   0  0  0  0  0  0  0  0  0  0  0  0
   10.3625  -14.6390   27.6439 C   0  0  2  0  0  0  0  0  0  0  0  0
    8.8789  -14.3183   27.8824 C   0  0  0  0  0  0  0  0  0  0  0  0
   10.5208  -15.7204   26.6607 C   0  0  2  0  0  0  0  0  0  0  0  0
    9.7077  -15.5141   25.4487 N   0  0  0  0  0  0  0  0  0  0  0  0
   10.1830  -17.0514   27.1810 C   0  0  0  0  0  0  0  0  0  0  0  0
    8.8792  -17.5868   27.0866 O   0  0  0  0  0  0  0  0  0  0  0  0
   11.0158  -17.8086   27.7403 O   0  0  0  0  0  0  0  0  0  0  0  0
  2  1  1  6
  2  6  1  0
  3  4  1  0
  3  2  1  0
  4  5  2  0
  6  7  2  0
  8  4  1  0
  9  6  1  0
  9 10  1  0
 10 11  1  1
 11 12  1  0
 12 13  2  0
 13 14  1  0
 15 14  1  0
 16 15  2  0
 17 16  1  0
 18 19  1  0
 18 17  2  0
 19 20  2  0
 20 12  1  0
 20 15  1  0
 21 10  1  0
 21 22  2  0
 23 24  1  0
 24 25  1  0
 25 27  1  0
 25 26  1  1
 27 29  1  0
 27 28  1  6
 28 21  1  0
 29 30  1  0
 31 29  2  0
M  END
$$$$
