DWI.pdb
     RDKit          3D

 31 32  0  0  1  0  0  0  0  0999 V2000
   12.3722  -16.3156   19.3379 N   0  0  0  0  0  0  0  0  0  0  0  0
   11.4855  -17.1857   20.0842 C   0  0  1  0  0  0  0  0  0  0  0  0
   12.2699  -18.3523   20.6499 C   0  0  0  0  0  0  0  0  0  0  0  0
   12.0758  -19.5341   19.7830 C   0  0  0  0  0  0  0  0  0  0  0  0
   12.3244  -19.4467   18.5587 O   0  0  0  0  0  0  0  0  0  0  0  0
   11.0068  -16.4107   21.2794 C   0  0  0  0  0  0  0  0  0  0  0  0
   11.6438  -15.4463   21.7312 O   0  0  0  0  0  0  0  0  0  0  0  0
   11.6256  -20.7524   20.2666 O   0  0  0  0  0  0  0  0  0  0  0  0
    9.7992  -16.7823   21.9139 N   0  0  0  0  0  0  0  0  0  0  0  0
    9.1961  -16.1638   23.0469 C   0  0  1  0  0  0  0  0  0  0  0  0
    7.6576  -16.2739   23.0623 C   0  0  0  0  0  0  0  0  0  0  0  0
    7.0436  -15.5690   24.1960 C   0  0  0  0  0  0  0  0  0  0  0  0
    6.3736  -16.0704   25.2705 C   0  0  0  0  0  0  0  0  0  0  0  0
    5.9738  -15.0637   26.0938 N   0  0  0  0  0  0  0  0  0  0  0  0
    6.3682  -13.9052   25.5828 C   0  0  0  0  0  0  0  0  0  0  0  0
    6.2519  -12.5792   25.9723 C   0  0  0  0  0  0  0  0  0  0  0  0
    6.7908  -11.5835   25.1980 C   0  0  0  0  0  0  0  0  0  0  0  0
    7.4609  -11.8493   24.0182 C   0  0  0  0  0  0  0  0  0  0  0  0
    7.5696  -13.1731   23.6413 C   0  0  0  0  0  0  0  0  0  0  0  0
    7.0314  -14.1771   24.4126 C   0  0  0  0  0  0  0  0  0  0  0  0
    9.7184  -16.5396   24.3522 C   0  0  0  0  0  0  0  0  0  0  0  0
   10.1800  -17.7205   24.5268 O   0  0  0  0  0  0  0  0  0  0  0  0
   10.0010  -12.8764   28.7938 C   0  0  0  0  0  0  0  0  0  0  0  0
   10.4177  -13.7184   27.6287 C   0  0  0  0  0  0  0  0  0  0  0  0
   10.2048  -15.1590   27.8466 C   0  0  2  0  0  0  0  0  0  0  0  0
   10.8997  -15.6291   29.1338 C   0  0  0  0  0  0  0  0  0  0  0  0
   10.4205  -16.1118   26.7481 C   0  0  2  0  0  0  0  0  0  0  0  0
    9.7689  -15.6942   25.4936 N   0  0  0  0  0  0  0  0  0  0  0  0
    9.9526  -17.4726   27.0406 C   0  0  0  0  0  0  0  0  0  0  0  0
   10.7889  -18.4437   27.6348 O   0  0  0  0  0  0  0  0  0  0  0  0
    8.7876  -17.8733   26.7915 O   0  0  0  0  0  0  0  0  0  0  0  0
  2  1  1  6
  2  6  1  0
  3  4  1  0
  3  2  1  0
  4  5  2  0
  6  7  2  0
  8  4  1  0
  9  6  1  0
  9 10  1  0
 10 11  1  1
 11 12  1  0
 12 13  2  0
 13 14  1  0
 15 14  1  0
 16 15  2  0
 17 16  1  0
 18 19  1  0
 18 17  2  0
 19 20  2  0
 20 12  1  0
 20 15  1  0
 21 10  1  0
 21 22  2  0
 23 24  1  0
 24 25  1  0
 25 27  1  0
 25 26  1  1
 27 29  1  0
 27 28  1  6
 28 21  1  0
 29 30  1  0
 31 29  2  0
M  END
$$$$
