DWI.pdb
     RDKit          3D

 31 32  0  0  1  0  0  0  0  0999 V2000
   10.8377  -17.5131   19.3772 N   0  0  0  0  0  0  0  0  0  0  0  0
   11.8812  -17.4998   20.3828 C   0  0  1  0  0  0  0  0  0  0  0  0
   13.0878  -16.7481   19.8584 C   0  0  0  0  0  0  0  0  0  0  0  0
   13.8053  -17.5994   18.8855 C   0  0  0  0  0  0  0  0  0  0  0  0
   13.8942  -18.8311   19.0937 O   0  0  0  0  0  0  0  0  0  0  0  0
   11.3736  -16.6824   21.5372 C   0  0  0  0  0  0  0  0  0  0  0  0
   12.0114  -15.7166   21.9848 O   0  0  0  0  0  0  0  0  0  0  0  0
   14.3930  -17.0930   17.7371 O   0  0  0  0  0  0  0  0  0  0  0  0
   10.1371  -17.0146   22.1369 N   0  0  0  0  0  0  0  0  0  0  0  0
    9.4914  -16.3367   23.2109 C   0  0  1  0  0  0  0  0  0  0  0  0
    7.9579  -16.5039   23.2113 C   0  0  0  0  0  0  0  0  0  0  0  0
    7.2422  -15.2294   23.3614 C   0  0  0  0  0  0  0  0  0  0  0  0
    6.4246  -14.5840   22.4840 C   0  0  0  0  0  0  0  0  0  0  0  0
    5.9606  -13.4271   23.0291 N   0  0  0  0  0  0  0  0  0  0  0  0
    6.4565  -13.2963   24.2520 C   0  0  0  0  0  0  0  0  0  0  0  0
    6.3350  -12.3468   25.2557 C   0  0  0  0  0  0  0  0  0  0  0  0
    6.9967  -12.5129   26.4457 C   0  0  0  0  0  0  0  0  0  0  0  0
    7.7986  -13.6112   26.6951 C   0  0  0  0  0  0  0  0  0  0  0  0
    7.9117  -14.5489   25.6881 C   0  0  0  0  0  0  0  0  0  0  0  0
    7.2513  -14.3889   24.4918 C   0  0  0  0  0  0  0  0  0  0  0  0
   10.0036  -16.5939   24.5485 C   0  0  0  0  0  0  0  0  0  0  0  0
   10.6012  -17.6998   24.7894 O   0  0  0  0  0  0  0  0  0  0  0  0
   11.0718  -13.6455   29.9660 C   0  0  0  0  0  0  0  0  0  0  0  0
   11.2872  -14.8631   29.1227 C   0  0  0  0  0  0  0  0  0  0  0  0
   10.6127  -14.7920   27.8158 C   0  0  2  0  0  0  0  0  0  0  0  0
    9.2125  -14.1741   27.9523 C   0  0  0  0  0  0  0  0  0  0  0  0
   10.5914  -15.9658   26.9310 C   0  0  2  0  0  0  0  0  0  0  0  0
    9.9030  -15.7061   25.6538 N   0  0  0  0  0  0  0  0  0  0  0  0
    9.9559  -17.1481   27.5267 C   0  0  0  0  0  0  0  0  0  0  0  0
    8.6971  -17.6224   27.0958 O   0  0  0  0  0  0  0  0  0  0  0  0
   10.4759  -17.8223   28.4512 O   0  0  0  0  0  0  0  0  0  0  0  0
  2  1  1  6
  2  6  1  0
  3  4  1  0
  3  2  1  0
  4  5  2  0
  6  7  2  0
  8  4  1  0
  9  6  1  0
  9 10  1  0
 10 11  1  1
 11 12  1  0
 12 13  2  0
 13 14  1  0
 15 14  1  0
 16 15  2  0
 17 16  1  0
 18 19  1  0
 18 17  2  0
 19 20  2  0
 20 12  1  0
 20 15  1  0
 21 10  1  0
 21 22  2  0
 23 24  1  0
 24 25  1  0
 25 27  1  0
 25 26  1  1
 27 29  1  0
 27 28  1  6
 28 21  1  0
 29 30  1  0
 31 29  2  0
M  END
$$$$
