NCL.pdb
     RDKit          3D

 23 22  0  0  1  0  0  0  0  0999 V2000
   12.8002  -18.0535   18.3342 N   0  0  0  0  0  0  0  0  0  0  0  0
   11.6926  -17.4710   17.6429 C   0  0  0  0  0  0  0  0  0  0  0  0
   11.9282  -17.0670   16.4848 O   0  0  0  0  0  0  0  0  0  0  0  0
   10.4261  -17.4170   18.3655 C   0  0  0  0  0  0  0  0  0  0  0  0
   10.4451  -17.9815   19.7577 C   0  0  2  0  0  0  0  0  0  0  0  0
   10.0793  -19.3875   19.6211 N   0  0  0  0  0  0  0  0  0  0  0  0
    9.3171  -17.3300   20.5171 C   0  0  0  0  0  0  0  0  0  0  0  0
    8.1632  -17.2116   20.0416 O   0  0  0  0  0  0  0  0  0  0  0  0
    9.5003  -16.8042   21.8369 N   0  0  0  0  0  0  0  0  0  0  0  0
    8.4442  -16.6074   22.7789 C   0  0  1  0  0  0  0  0  0  0  0  0
    7.8258  -17.9563   23.0852 C   0  0  0  0  0  0  0  0  0  0  0  0
    8.9687  -19.0927   23.8768 S   0  0  0  0  0  0  0  0  0  0  0  0
    8.9327  -16.0492   24.0784 C   0  0  0  0  0  0  0  0  0  0  0  0
   10.1438  -16.1297   24.4144 O   0  0  0  0  0  0  0  0  0  0  0  0
    5.7366  -12.0677   26.6712 C   0  0  0  0  0  0  0  0  0  0  0  0
    6.8735  -12.8248   26.0492 C   0  0  1  0  0  0  0  0  0  0  0  0
    7.8087  -11.7372   25.5118 C   0  0  0  0  0  0  0  0  0  0  0  0
    7.5348  -13.8779   26.7891 C   0  0  0  0  0  0  0  0  0  0  0  0
    8.5380  -14.7886   26.2549 C   0  0  2  0  0  0  0  0  0  0  0  0
    8.0854  -15.4050   25.0015 N   0  0  0  0  0  0  0  0  0  0  0  0
    8.8887  -15.8931   27.1235 C   0  0  0  0  0  0  0  0  0  0  0  0
    8.4566  -17.0628   26.8809 O   0  0  0  0  0  0  0  0  0  0  0  0
    9.6926  -15.7503   28.2251 O   0  0  0  0  0  0  0  0  0  0  0  0
  2  1  1  0
  2  4  1  0
  3  2  2  0
  5  6  1  6
  5  7  1  0
  5  4  1  0
  7  9  1  0
  7  8  2  0
  9 10  1  0
 10 13  1  0
 11 12  1  0
 10 11  1  1
 13 14  2  0
 13 20  1  0
 16 15  1  1
 16 17  1  0
 18 16  1  0
 19 18  1  1
 20 19  1  0
 21 19  1  0
 21 23  1  0
 22 21  2  0
M  END
$$$$
