NCL.pdb
     RDKit          3D

 23 22  0  0  1  0  0  0  0  0999 V2000
    8.5392  -12.7561   16.7030 N   0  0  0  0  0  0  0  0  0  0  0  0
    8.0466  -14.0842   16.8970 C   0  0  0  0  0  0  0  0  0  0  0  0
    8.0610  -14.8205   15.8882 O   0  0  0  0  0  0  0  0  0  0  0  0
    7.5881  -14.4218   18.2405 C   0  0  0  0  0  0  0  0  0  0  0  0
    8.5908  -15.1188   19.1157 C   0  0  2  0  0  0  0  0  0  0  0  0
    8.7496  -16.4550   18.5512 N   0  0  0  0  0  0  0  0  0  0  0  0
    7.9458  -15.3111   20.4649 C   0  0  0  0  0  0  0  0  0  0  0  0
    7.4984  -14.3552   21.1414 O   0  0  0  0  0  0  0  0  0  0  0  0
    7.8057  -16.6080   21.0568 N   0  0  0  0  0  0  0  0  0  0  0  0
    7.1985  -16.8520   22.3269 C   0  0  1  0  0  0  0  0  0  0  0  0
    7.2223  -18.3451   22.5838 C   0  0  0  0  0  0  0  0  0  0  0  0
    6.8070  -18.7762   24.2767 S   0  0  0  0  0  0  0  0  0  0  0  0
    7.9449  -16.2065   23.4517 C   0  0  0  0  0  0  0  0  0  0  0  0
    9.2038  -16.2071   23.4910 O   0  0  0  0  0  0  0  0  0  0  0  0
    6.1629  -11.3976   26.9376 C   0  0  0  0  0  0  0  0  0  0  0  0
    7.2397  -12.4009   26.6440 C   0  0  1  0  0  0  0  0  0  0  0  0
    7.7557  -12.8229   28.0231 C   0  0  0  0  0  0  0  0  0  0  0  0
    6.9817  -13.4968   25.7348 C   0  0  0  0  0  0  0  0  0  0  0  0
    7.9275  -14.5467   25.3822 C   0  0  2  0  0  0  0  0  0  0  0  0
    7.3017  -15.5635   24.5277 N   0  0  0  0  0  0  0  0  0  0  0  0
    8.4830  -15.2744   26.5044 C   0  0  0  0  0  0  0  0  0  0  0  0
    9.5476  -14.8705   27.0677 O   0  0  0  0  0  0  0  0  0  0  0  0
    7.9061  -16.4069   27.0190 O   0  0  0  0  0  0  0  0  0  0  0  0
  2  1  1  0
  2  4  1  0
  3  2  2  0
  5  6  1  6
  5  7  1  0
  5  4  1  0
  7  9  1  0
  7  8  2  0
  9 10  1  0
 10 13  1  0
 11 12  1  0
 10 11  1  1
 13 14  2  0
 13 20  1  0
 16 15  1  1
 16 17  1  0
 18 16  1  0
 19 18  1  1
 20 19  1  0
 21 19  1  0
 21 23  1  0
 22 21  2  0
M  END
$$$$
