NCL.pdb
     RDKit          3D

 23 22  0  0  1  0  0  0  0  0999 V2000
   14.5462  -15.3760   18.9567 N   0  0  0  0  0  0  0  0  0  0  0  0
   13.7928  -14.1960   19.2468 C   0  0  0  0  0  0  0  0  0  0  0  0
   14.3400  -13.1152   18.9429 O   0  0  0  0  0  0  0  0  0  0  0  0
   12.4827  -14.3907   19.8591 C   0  0  0  0  0  0  0  0  0  0  0  0
   12.0662  -15.8191   20.0676 C   0  0  2  0  0  0  0  0  0  0  0  0
   11.5664  -16.2795   18.7763 N   0  0  0  0  0  0  0  0  0  0  0  0
   10.8761  -15.8047   20.9932 C   0  0  0  0  0  0  0  0  0  0  0  0
    9.7018  -15.6564   20.5804 O   0  0  0  0  0  0  0  0  0  0  0  0
   11.0197  -15.9608   22.4099 N   0  0  0  0  0  0  0  0  0  0  0  0
    9.9828  -16.4216   23.2783 C   0  0  1  0  0  0  0  0  0  0  0  0
    9.6359  -17.8439   22.8879 C   0  0  0  0  0  0  0  0  0  0  0  0
    9.9141  -19.0261   24.2105 S   0  0  0  0  0  0  0  0  0  0  0  0
   10.4104  -16.4573   24.7118 C   0  0  0  0  0  0  0  0  0  0  0  0
   11.5494  -16.8771   25.0476 O   0  0  0  0  0  0  0  0  0  0  0  0
    7.6194  -12.8260   27.8470 C   0  0  0  0  0  0  0  0  0  0  0  0
    8.8799  -13.5031   27.3940 C   0  0  1  0  0  0  0  0  0  0  0  0
    9.9848  -12.4789   27.6705 C   0  0  0  0  0  0  0  0  0  0  0  0
    9.1796  -14.8483   27.8350 C   0  0  0  0  0  0  0  0  0  0  0  0
   10.0425  -15.7954   27.1425 C   0  0  2  0  0  0  0  0  0  0  0  0
    9.5818  -16.0308   25.7684 N   0  0  0  0  0  0  0  0  0  0  0  0
   10.1273  -17.1067   27.7511 C   0  0  0  0  0  0  0  0  0  0  0  0
   10.7527  -17.2675   28.8451 O   0  0  0  0  0  0  0  0  0  0  0  0
    9.5470  -18.2224   27.2044 O   0  0  0  0  0  0  0  0  0  0  0  0
  2  1  1  0
  2  4  1  0
  3  2  2  0
  5  6  1  6
  5  7  1  0
  5  4  1  0
  7  9  1  0
  7  8  2  0
  9 10  1  0
 10 13  1  0
 11 12  1  0
 10 11  1  6
 13 14  2  0
 13 20  1  0
 16 15  1  1
 16 17  1  0
 18 16  1  0
 19 18  1  1
 20 19  1  0
 21 19  1  0
 21 23  1  0
 22 21  2  0
M  END
$$$$
