NCL.pdb
     RDKit          3D

 23 22  0  0  1  0  0  0  0  0999 V2000
   11.7889  -18.7568   19.0382 N   0  0  0  0  0  0  0  0  0  0  0  0
   10.6295  -17.9224   18.9765 C   0  0  0  0  0  0  0  0  0  0  0  0
   10.3166  -17.5126   17.8389 O   0  0  0  0  0  0  0  0  0  0  0  0
    9.9525  -17.6494   20.2398 C   0  0  0  0  0  0  0  0  0  0  0  0
   10.6529  -18.1414   21.4746 C   0  0  2  0  0  0  0  0  0  0  0  0
   10.4763  -19.5898   21.4809 N   0  0  0  0  0  0  0  0  0  0  0  0
    9.8799  -17.6228   22.6608 C   0  0  0  0  0  0  0  0  0  0  0  0
    9.6827  -16.4002   22.8556 O   0  0  0  0  0  0  0  0  0  0  0  0
    9.3214  -18.5045   23.6418 N   0  0  0  0  0  0  0  0  0  0  0  0
    8.5898  -18.0714   24.7902 C   0  0  1  0  0  0  0  0  0  0  0  0
    8.0441  -19.2974   25.4937 C   0  0  0  0  0  0  0  0  0  0  0  0
    7.0435  -18.8992   26.9305 S   0  0  0  0  0  0  0  0  0  0  0  0
    9.4508  -17.3511   25.7794 C   0  0  0  0  0  0  0  0  0  0  0  0
   10.6640  -17.6508   25.9358 O   0  0  0  0  0  0  0  0  0  0  0  0
    7.6076  -12.3181   27.7233 C   0  0  0  0  0  0  0  0  0  0  0  0
    8.4654  -13.4019   27.1385 C   0  0  1  0  0  0  0  0  0  0  0  0
    9.3980  -12.6701   26.1685 C   0  0  0  0  0  0  0  0  0  0  0  0
    9.1243  -14.3536   28.0069 C   0  0  0  0  0  0  0  0  0  0  0  0
    9.7836  -15.5790   27.5769 C   0  0  2  0  0  0  0  0  0  0  0  0
    8.9719  -16.3041   26.5915 N   0  0  0  0  0  0  0  0  0  0  0  0
   10.0532  -16.5335   28.6322 C   0  0  0  0  0  0  0  0  0  0  0  0
   10.9873  -16.3212   29.4666 O   0  0  0  0  0  0  0  0  0  0  0  0
    9.3320  -17.6882   28.7966 O   0  0  0  0  0  0  0  0  0  0  0  0
  2  1  1  0
  2  4  1  0
  3  2  2  0
  5  6  1  6
  5  7  1  0
  5  4  1  0
  7  9  1  0
  7  8  2  0
  9 10  1  0
 10 13  1  0
 11 12  1  0
 10 11  1  1
 13 14  2  0
 13 20  1  0
 16 15  1  1
 16 17  1  0
 18 16  1  0
 19 18  1  1
 20 19  1  0
 21 19  1  0
 21 23  1  0
 22 21  2  0
M  END
$$$$
