NCL.pdb
     RDKit          3D

 23 22  0  0  1  0  0  0  0  0999 V2000
    9.0091  -17.6187   16.6694 N   0  0  0  0  0  0  0  0  0  0  0  0
    7.8616  -16.7778   16.8122 C   0  0  0  0  0  0  0  0  0  0  0  0
    7.2555  -16.5039   15.7550 O   0  0  0  0  0  0  0  0  0  0  0  0
    7.5352  -16.3413   18.1657 C   0  0  0  0  0  0  0  0  0  0  0  0
    8.5675  -16.6430   19.2148 C   0  0  2  0  0  0  0  0  0  0  0  0
    8.7126  -18.0950   19.2231 N   0  0  0  0  0  0  0  0  0  0  0  0
    7.9662  -16.2773   20.5483 C   0  0  0  0  0  0  0  0  0  0  0  0
    7.6614  -15.0996   20.8509 O   0  0  0  0  0  0  0  0  0  0  0  0
    7.7064  -17.2627   21.5549 N   0  0  0  0  0  0  0  0  0  0  0  0
    7.1901  -16.9694   22.8545 C   0  0  1  0  0  0  0  0  0  0  0  0
    6.7867  -18.2749   23.5092 C   0  0  0  0  0  0  0  0  0  0  0  0
    6.4172  -18.1022   25.2579 S   0  0  0  0  0  0  0  0  0  0  0  0
    8.2103  -16.3342   23.7459 C   0  0  0  0  0  0  0  0  0  0  0  0
    9.3935  -16.7624   23.7999 O   0  0  0  0  0  0  0  0  0  0  0  0
    7.0892  -11.9072   27.3624 C   0  0  0  0  0  0  0  0  0  0  0  0
    7.2517  -12.6989   26.0979 C   0  0  1  0  0  0  0  0  0  0  0  0
    6.5555  -11.8548   25.0259 C   0  0  0  0  0  0  0  0  0  0  0  0
    8.5548  -13.2010   25.7187 C   0  0  0  0  0  0  0  0  0  0  0  0
    8.8888  -14.5985   25.4805 C   0  0  2  0  0  0  0  0  0  0  0  0
    7.9228  -15.2308   24.5734 N   0  0  0  0  0  0  0  0  0  0  0  0
    8.9118  -15.4340   26.6632 C   0  0  0  0  0  0  0  0  0  0  0  0
    7.9817  -16.2730   26.8746 O   0  0  0  0  0  0  0  0  0  0  0  0
    9.9146  -15.3788   27.5968 O   0  0  0  0  0  0  0  0  0  0  0  0
  2  1  1  0
  2  4  1  0
  3  2  2  0
  5  6  1  1
  5  7  1  0
  5  4  1  0
  7  9  1  0
  7  8  2  0
  9 10  1  0
 10 13  1  0
 11 12  1  0
 10 11  1  1
 13 14  2  0
 13 20  1  0
 16 15  1  1
 16 17  1  0
 18 16  1  0
 19 18  1  1
 20 19  1  0
 21 19  1  0
 21 23  1  0
 22 21  2  0
M  END
$$$$
