NCL.pdb
     RDKit          3D

 23 22  0  0  1  0  0  0  0  0999 V2000
    2.6328  -18.9038   22.1222 N   0  0  0  0  0  0  0  0  0  0  0  0
    3.6526  -18.2005   21.4084 C   0  0  0  0  0  0  0  0  0  0  0  0
    3.3371  -17.7976   20.2690 O   0  0  0  0  0  0  0  0  0  0  0  0
    4.9328  -18.0367   22.0890 C   0  0  0  0  0  0  0  0  0  0  0  0
    6.1523  -18.1391   21.2175 C   0  0  2  0  0  0  0  0  0  0  0  0
    6.2105  -19.5292   20.7776 N   0  0  0  0  0  0  0  0  0  0  0  0
    7.3527  -17.9335   22.1066 C   0  0  0  0  0  0  0  0  0  0  0  0
    7.5933  -18.6653   23.0956 O   0  0  0  0  0  0  0  0  0  0  0  0
    8.2955  -16.8813   21.8706 N   0  0  0  0  0  0  0  0  0  0  0  0
    9.3953  -16.5777   22.7307 C   0  0  1  0  0  0  0  0  0  0  0  0
   10.5000  -15.9706   21.8900 C   0  0  0  0  0  0  0  0  0  0  0  0
   12.0253  -15.7203   22.8039 S   0  0  0  0  0  0  0  0  0  0  0  0
    9.0421  -15.5683   23.7772 C   0  0  0  0  0  0  0  0  0  0  0  0
    9.0105  -14.3362   23.5178 O   0  0  0  0  0  0  0  0  0  0  0  0
    5.6691  -12.9918   26.3986 C   0  0  0  0  0  0  0  0  0  0  0  0
    7.0464  -13.4001   25.9643 C   0  0  1  0  0  0  0  0  0  0  0  0
    7.7900  -12.0771   25.7572 C   0  0  0  0  0  0  0  0  0  0  0  0
    7.7803  -14.3933   26.7185 C   0  0  0  0  0  0  0  0  0  0  0  0
    8.9892  -15.0732   26.2740 C   0  0  2  0  0  0  0  0  0  0  0  0
    8.7253  -15.9202   25.1041 N   0  0  0  0  0  0  0  0  0  0  0  0
    9.5969  -15.9484   27.2549 C   0  0  0  0  0  0  0  0  0  0  0  0
    9.5083  -17.2097   27.1322 O   0  0  0  0  0  0  0  0  0  0  0  0
   10.2928  -15.4832   28.3410 O   0  0  0  0  0  0  0  0  0  0  0  0
  2  1  1  0
  2  4  1  0
  3  2  2  0
  5  6  1  1
  5  7  1  0
  5  4  1  0
  7  9  1  0
  7  8  2  0
  9 10  1  0
 10 13  1  0
 11 12  1  0
 10 11  1  6
 13 14  2  0
 13 20  1  0
 16 15  1  1
 16 17  1  0
 18 16  1  0
 19 18  1  1
 20 19  1  0
 21 19  1  0
 21 23  1  0
 22 21  2  0
M  END
$$$$
