NCL.pdb
     RDKit          3D

 23 22  0  0  1  0  0  0  0  0999 V2000
    9.6966  -20.6463   17.6859 N   0  0  0  0  0  0  0  0  0  0  0  0
   10.4216  -20.2455   18.8513 C   0  0  0  0  0  0  0  0  0  0  0  0
   11.0562  -21.1505   19.4328 O   0  0  0  0  0  0  0  0  0  0  0  0
   10.3360  -18.8369   19.2222 C   0  0  0  0  0  0  0  0  0  0  0  0
   10.1419  -18.5587   20.6858 C   0  0  2  0  0  0  0  0  0  0  0  0
    8.8271  -19.0955   21.0211 N   0  0  0  0  0  0  0  0  0  0  0  0
   10.0333  -17.0631   20.8435 C   0  0  0  0  0  0  0  0  0  0  0  0
   10.9697  -16.2836   20.5485 O   0  0  0  0  0  0  0  0  0  0  0  0
    8.8438  -16.4412   21.3438 N   0  0  0  0  0  0  0  0  0  0  0  0
    8.6764  -15.0306   21.4976 C   0  0  1  0  0  0  0  0  0  0  0  0
    7.2622  -14.6743   21.0866 C   0  0  0  0  0  0  0  0  0  0  0  0
    6.0126  -15.6016   21.9825 S   0  0  0  0  0  0  0  0  0  0  0  0
    8.8406  -14.5858   22.9168 C   0  0  0  0  0  0  0  0  0  0  0  0
    9.1407  -13.3964   23.2022 O   0  0  0  0  0  0  0  0  0  0  0  0
    8.5177  -11.8524   26.0436 C   0  0  0  0  0  0  0  0  0  0  0  0
    7.6503  -12.9772   26.5282 C   0  0  1  0  0  0  0  0  0  0  0  0
    6.2867  -12.3270   26.7812 C   0  0  0  0  0  0  0  0  0  0  0  0
    7.5981  -14.2221   25.7923 C   0  0  0  0  0  0  0  0  0  0  0  0
    8.7471  -15.0364   25.4208 C   0  0  2  0  0  0  0  0  0  0  0  0
    8.6737  -15.4527   24.0147 N   0  0  0  0  0  0  0  0  0  0  0  0
    8.9018  -16.2610   26.1783 C   0  0  0  0  0  0  0  0  0  0  0  0
    8.5445  -17.3736   25.6799 O   0  0  0  0  0  0  0  0  0  0  0  0
    9.4361  -16.2955   27.4406 O   0  0  0  0  0  0  0  0  0  0  0  0
  2  1  1  0
  2  4  1  0
  3  2  2  0
  5  6  1  6
  5  7  1  0
  5  4  1  0
  7  9  1  0
  7  8  2  0
  9 10  1  0
 10 13  1  0
 11 12  1  0
 10 11  1  1
 13 14  2  0
 13 20  1  0
 16 15  1  6
 16 17  1  0
 18 16  1  0
 19 18  1  1
 20 19  1  0
 21 19  1  0
 21 23  1  0
 22 21  2  0
M  END
$$$$
