FRQ.pdb
     RDKit          3D

 32 32  0  0  1  0  0  0  0  0999 V2000
   25.8075  -22.2392   -9.5228 N   0  0  0  0  0  0  0  0  0  0  0  0
   25.6304  -20.9543  -10.1214 C   0  0  1  0  0  0  0  0  0  0  0  0
   26.9625  -20.2391  -10.1478 C   0  0  0  0  0  0  0  0  0  0  0  0
   27.4514  -19.9343   -8.7872 C   0  0  0  0  0  0  0  0  0  0  0  0
   26.8057  -18.9918   -8.0294 C   0  0  0  0  0  0  0  0  0  0  0  0
   27.2597  -18.7004   -6.7494 C   0  0  0  0  0  0  0  0  0  0  0  0
   28.3535  -19.3395   -6.2144 C   0  0  0  0  0  0  0  0  0  0  0  0
   29.0041  -20.2826   -6.9662 C   0  0  0  0  0  0  0  0  0  0  0  0
   28.5465  -20.5662   -8.2369 C   0  0  0  0  0  0  0  0  0  0  0  0
   25.0149  -21.0224  -11.4673 C   0  0  0  0  0  0  0  0  0  0  0  0
   25.3192  -21.9504  -12.2753 O   0  0  0  0  0  0  0  0  0  0  0  0
   18.8011  -16.3646  -16.0371 N   0  0  0  0  0  0  0  0  0  0  0  0
   19.4200  -17.2490  -16.9621 C   0  0  0  0  0  0  0  0  0  0  0  0
   18.9752  -17.2351  -18.1775 N   0  0  0  0  0  0  0  0  0  0  0  0
   20.4752  -18.1149  -16.5969 N   0  0  0  0  0  0  0  0  0  0  0  0
   20.9821  -18.1030  -15.2492 C   0  0  0  0  0  0  0  0  0  0  0  0
   22.1435  -19.0896  -15.0929 C   0  0  0  0  0  0  0  0  0  0  0  0
   22.5549  -19.0672  -13.6319 C   0  0  0  0  0  0  0  0  0  0  0  0
   23.6768  -20.0100  -13.3331 C   0  0  2  0  0  0  0  0  0  0  0  0
   24.0647  -20.1023  -11.9729 N   0  0  0  0  0  0  0  0  0  0  0  0
   24.7680  -19.7205  -14.2861 C   0  0  0  0  0  0  0  0  0  0  0  0
   25.5528  -18.7641  -14.0734 O   0  0  0  0  0  0  0  0  0  0  0  0
   19.4294  -17.8153  -18.9008 N   0  0  0  0  0  0  0  0  0  0  0  0
   28.9287  -23.3386  -15.8049 C   0  0  0  0  0  0  0  0  0  0  0  0
   29.2712  -22.3783  -16.7757 O   0  0  0  0  0  0  0  0  0  0  0  0
   30.3393  -22.4769  -17.4014 C   0  0  0  0  0  0  0  0  0  0  0  0
   28.3548  -21.2400  -17.0564 C   0  0  0  0  0  0  0  0  0  0  0  0
   27.1493  -21.3641  -16.1724 C   0  0  1  0  0  0  0  0  0  0  0  0
   26.1975  -20.2214  -16.2971 N   0  0  0  0  0  0  0  0  0  0  0  0
   24.9981  -20.4736  -15.4649 C   0  0  0  0  0  0  0  0  0  0  0  0
   25.7227  -20.0376  -17.6728 O   0  0  0  0  0  0  0  0  0  0  0  0
   26.3921  -19.2405  -18.5719 O   0  0  0  0  0  0  0  0  0  0  0  0
  2  1  1  6
  2 10  1  0
  3  2  1  0
  4  3  1  0
  4  5  2  0
  6  5  1  0
  7  6  2  0
  8  9  2  0
  8  7  1  0
  9  4  1  0
 10 20  1  0
 10 11  2  0
 13 12  1  0
 13 14  2  0
 15 13  1  0
 16 15  1  0
 16 17  1  0
 17 18  1  0
 19 18  1  1
 20 19  1  0
 21 19  1  0
 21 29  1  0
 22 21  2  0
 23 24  1  0
 24 25  2  0
 26 24  1  0
 26 27  1  0
 28 27  1  1
 28 29  1  0
 28 30  1  0
 30 31  1  0
 32 30  2  0
M  END
$$$$
