FRQ.pdb
     RDKit          3D

 32 32  0  0  1  0  0  0  0  0999 V2000
   23.4897  -20.4140  -15.6723 N   0  0  0  0  0  0  0  0  0  0  0  0
   22.2871  -19.8365  -15.1613 C   0  0  1  0  0  0  0  0  0  0  0  0
   21.5607  -19.1403  -16.2902 C   0  0  0  0  0  0  0  0  0  0  0  0
   22.3845  -18.0778  -16.9032 C   0  0  0  0  0  0  0  0  0  0  0  0
   23.1700  -18.3692  -17.9884 C   0  0  0  0  0  0  0  0  0  0  0  0
   23.9468  -17.3751  -18.5697 C   0  0  0  0  0  0  0  0  0  0  0  0
   23.9497  -16.0900  -18.0803 C   0  0  0  0  0  0  0  0  0  0  0  0
   23.1670  -15.7915  -16.9957 C   0  0  0  0  0  0  0  0  0  0  0  0
   22.3983  -16.7848  -16.4241 C   0  0  0  0  0  0  0  0  0  0  0  0
   21.4199  -20.8200  -14.4718 C   0  0  0  0  0  0  0  0  0  0  0  0
   21.8963  -21.9064  -14.0251 O   0  0  0  0  0  0  0  0  0  0  0  0
   18.9419  -25.7238  -10.1466 N   0  0  0  0  0  0  0  0  0  0  0  0
   17.9623  -24.9747   -9.4395 C   0  0  0  0  0  0  0  0  0  0  0  0
   16.9027  -25.6090   -9.0523 N   0  0  0  0  0  0  0  0  0  0  0  0
   18.1141  -23.5982   -9.1589 N   0  0  0  0  0  0  0  0  0  0  0  0
   19.0330  -22.8033   -9.9316 C   0  0  0  0  0  0  0  0  0  0  0  0
   18.5326  -22.6312  -11.3691 C   0  0  0  0  0  0  0  0  0  0  0  0
   19.5736  -21.8109  -12.1093 C   0  0  0  0  0  0  0  0  0  0  0  0
   19.2171  -21.5840  -13.5439 C   0  0  2  0  0  0  0  0  0  0  0  0
   20.0309  -20.6608  -14.2473 N   0  0  0  0  0  0  0  0  0  0  0  0
   17.7640  -21.3251  -13.6065 C   0  0  0  0  0  0  0  0  0  0  0  0
   17.2903  -20.2705  -13.1174 O   0  0  0  0  0  0  0  0  0  0  0  0
   16.1774  -25.1181   -8.5053 N   0  0  0  0  0  0  0  0  0  0  0  0
   18.5375  -23.9912  -17.4830 C   0  0  0  0  0  0  0  0  0  0  0  0
   17.2376  -23.6420  -17.8951 O   0  0  0  0  0  0  0  0  0  0  0  0
   16.5968  -24.3963  -18.6451 C   0  0  0  0  0  0  0  0  0  0  0  0
   16.6251  -22.3666  -17.4341 C   0  0  0  0  0  0  0  0  0  0  0  0
   15.6894  -22.6648  -16.3004 C   0  0  2  0  0  0  0  0  0  0  0  0
   15.8178  -21.7166  -15.1551 N   0  0  0  0  0  0  0  0  0  0  0  0
   16.8351  -22.2160  -14.2010 C   0  0  0  0  0  0  0  0  0  0  0  0
   14.5671  -21.5788  -14.4011 O   0  0  0  0  0  0  0  0  0  0  0  0
   13.4818  -20.9054  -14.9114 O   0  0  0  0  0  0  0  0  0  0  0  0
  2  1  1  6
  2 10  1  0
  3  2  1  0
  4  3  1  0
  4  5  2  0
  6  5  1  0
  7  6  2  0
  8  9  2  0
  8  7  1  0
  9  4  1  0
 10 20  1  0
 10 11  2  0
 13 12  1  0
 13 14  2  0
 15 13  1  0
 16 15  1  0
 16 17  1  0
 17 18  1  0
 19 18  1  1
 20 19  1  0
 21 19  1  0
 21 29  1  0
 22 21  2  0
 23 24  1  0
 24 25  2  0
 26 24  1  0
 26 27  1  0
 28 27  1  6
 28 29  1  0
 28 30  1  0
 30 31  1  0
 32 30  2  0
M  END
$$$$
