FRQ.pdb
     RDKit          3D

 32 32  0  0  1  0  0  0  0  0999 V2000
   19.7801  -28.6072  -12.2936 N   0  0  0  0  0  0  0  0  0  0  0  0
   19.6296  -27.7700  -13.4413 C   0  0  1  0  0  0  0  0  0  0  0  0
   18.2869  -27.0780  -13.3692 C   0  0  0  0  0  0  0  0  0  0  0  0
   17.1690  -28.0209  -13.5798 C   0  0  0  0  0  0  0  0  0  0  0  0
   16.3625  -28.3636  -12.5254 C   0  0  0  0  0  0  0  0  0  0  0  0
   15.3096  -29.2492  -12.7162 C   0  0  0  0  0  0  0  0  0  0  0  0
   15.0506  -29.7991  -13.9498 C   0  0  0  0  0  0  0  0  0  0  0  0
   15.8526  -29.4613  -15.0082 C   0  0  0  0  0  0  0  0  0  0  0  0
   16.8965  -28.5807  -14.8102 C   0  0  0  0  0  0  0  0  0  0  0  0
   20.7401  -26.8026  -13.6020 C   0  0  0  0  0  0  0  0  0  0  0  0
   21.3080  -26.2908  -12.5910 O   0  0  0  0  0  0  0  0  0  0  0  0
   28.0518  -24.8555  -16.6269 N   0  0  0  0  0  0  0  0  0  0  0  0
   27.3510  -26.0845  -16.7661 C   0  0  0  0  0  0  0  0  0  0  0  0
   28.0161  -27.1706  -16.5357 N   0  0  0  0  0  0  0  0  0  0  0  0
   25.9892  -26.1454  -17.1381 N   0  0  0  0  0  0  0  0  0  0  0  0
   25.2472  -24.9304  -17.3540 C   0  0  0  0  0  0  0  0  0  0  0  0
   24.3710  -24.6017  -16.1411 C   0  0  0  0  0  0  0  0  0  0  0  0
   23.2875  -25.6625  -16.0722 C   0  0  0  0  0  0  0  0  0  0  0  0
   22.2889  -25.3989  -14.9903 C   0  0  2  0  0  0  0  0  0  0  0  0
   21.2630  -26.3659  -14.8433 N   0  0  0  0  0  0  0  0  0  0  0  0
   21.8287  -24.0030  -15.1392 C   0  0  0  0  0  0  0  0  0  0  0  0
   21.0002  -23.7048  -16.0338 O   0  0  0  0  0  0  0  0  0  0  0  0
   27.5679  -28.0904  -16.6745 N   0  0  0  0  0  0  0  0  0  0  0  0
   22.1764  -19.4723  -10.9016 C   0  0  0  0  0  0  0  0  0  0  0  0
   20.9126  -19.3671  -11.5129 O   0  0  0  0  0  0  0  0  0  0  0  0
   20.0116  -18.7045  -10.9734 C   0  0  0  0  0  0  0  0  0  0  0  0
   20.6504  -20.0499  -12.8088 C   0  0  0  0  0  0  0  0  0  0  0  0
   21.8817  -20.8058  -13.2117 C   0  0  2  0  0  0  0  0  0  0  0  0
   21.7214  -21.5754  -14.4803 N   0  0  0  0  0  0  0  0  0  0  0  0
   22.2734  -22.9400  -14.3132 C   0  0  0  0  0  0  0  0  0  0  0  0
   22.4456  -20.9639  -15.5998 O   0  0  0  0  0  0  0  0  0  0  0  0
   21.8803  -19.9838  -16.3819 O   0  0  0  0  0  0  0  0  0  0  0  0
  2  1  1  1
  2 10  1  0
  3  2  1  0
  4  3  1  0
  4  5  2  0
  6  5  1  0
  7  6  2  0
  8  9  2  0
  8  7  1  0
  9  4  1  0
 10 20  1  0
 10 11  2  0
 13 12  1  0
 13 14  2  0
 15 13  1  0
 16 15  1  0
 16 17  1  0
 17 18  1  0
 19 18  1  6
 20 19  1  0
 21 19  1  0
 21 29  1  0
 22 21  2  0
 23 24  1  0
 24 25  2  0
 26 24  1  0
 26 27  1  0
 28 27  1  1
 28 29  1  0
 28 30  1  0
 30 31  1  0
 32 30  2  0
M  END
$$$$
