FRQ.pdb
     RDKit          3D

 32 32  0  0  1  0  0  0  0  0999 V2000
   26.0674  -18.5027   -7.5982 N   0  0  0  0  0  0  0  0  0  0  0  0
   26.7304  -19.6211   -8.1901 C   0  0  1  0  0  0  0  0  0  0  0  0
   26.8608  -20.7162   -7.1555 C   0  0  0  0  0  0  0  0  0  0  0  0
   27.7214  -20.3076   -6.0260 C   0  0  0  0  0  0  0  0  0  0  0  0
   29.0613  -20.1044   -6.2327 C   0  0  0  0  0  0  0  0  0  0  0  0
   29.8761  -19.7200   -5.1755 C   0  0  0  0  0  0  0  0  0  0  0  0
   29.3692  -19.5354   -3.9106 C   0  0  0  0  0  0  0  0  0  0  0  0
   28.0308  -19.7369   -3.6965 C   0  0  0  0  0  0  0  0  0  0  0  0
   27.2282  -20.1187   -4.7522 C   0  0  0  0  0  0  0  0  0  0  0  0
   26.0641  -20.1036   -9.4222 C   0  0  0  0  0  0  0  0  0  0  0  0
   24.8055  -20.0291   -9.5526 O   0  0  0  0  0  0  0  0  0  0  0  0
   27.4130  -23.0229  -16.6092 N   0  0  0  0  0  0  0  0  0  0  0  0
   27.4053  -21.7318  -17.2041 C   0  0  0  0  0  0  0  0  0  0  0  0
   26.8436  -21.6220  -18.3649 N   0  0  0  0  0  0  0  0  0  0  0  0
   27.9783  -20.6024  -16.5774 N   0  0  0  0  0  0  0  0  0  0  0  0
   28.3320  -20.6555  -15.1826 C   0  0  0  0  0  0  0  0  0  0  0  0
   27.0808  -20.6225  -14.2993 C   0  0  0  0  0  0  0  0  0  0  0  0
   27.5528  -20.5274  -12.8597 C   0  0  0  0  0  0  0  0  0  0  0  0
   26.4232  -20.3879  -11.8894 C   0  0  2  0  0  0  0  0  0  0  0  0
   26.7293  -20.6730  -10.5351 N   0  0  0  0  0  0  0  0  0  0  0  0
   25.2653  -21.1176  -12.4456 C   0  0  0  0  0  0  0  0  0  0  0  0
   25.2465  -22.3727  -12.4331 O   0  0  0  0  0  0  0  0  0  0  0  0
   26.8390  -20.7120  -18.8528 N   0  0  0  0  0  0  0  0  0  0  0  0
   20.3866  -21.4669  -10.7426 C   0  0  0  0  0  0  0  0  0  0  0  0
   19.7596  -21.6529  -11.9892 O   0  0  0  0  0  0  0  0  0  0  0  0
   18.6611  -22.2282  -12.0556 C   0  0  0  0  0  0  0  0  0  0  0  0
   20.4106  -21.1612  -13.2336 C   0  0  0  0  0  0  0  0  0  0  0  0
   21.7058  -20.4982  -12.8689 C   0  0  1  0  0  0  0  0  0  0  0  0
   22.9109  -21.2494  -13.3279 N   0  0  0  0  0  0  0  0  0  0  0  0
   24.1348  -20.4767  -13.0123 C   0  0  0  0  0  0  0  0  0  0  0  0
   22.9144  -21.4671  -14.7785 O   0  0  0  0  0  0  0  0  0  0  0  0
   23.5493  -20.6041  -15.6411 O   0  0  0  0  0  0  0  0  0  0  0  0
  2  1  1  1
  2 10  1  0
  3  2  1  0
  4  3  1  0
  4  5  2  0
  6  5  1  0
  7  6  2  0
  8  9  2  0
  8  7  1  0
  9  4  1  0
 10 20  1  0
 10 11  2  0
 13 12  1  0
 13 14  2  0
 15 13  1  0
 16 15  1  0
 16 17  1  0
 17 18  1  0
 19 18  1  6
 20 19  1  0
 21 19  1  0
 21 29  1  0
 22 21  2  0
 23 24  1  0
 24 25  2  0
 26 24  1  0
 26 27  1  0
 28 27  1  1
 28 29  1  0
 28 30  1  0
 30 31  1  0
 32 30  2  0
M  END
$$$$
