FRQ.pdb
     RDKit          3D

 32 32  0  0  1  0  0  0  0  0999 V2000
   26.6406  -18.7248  -17.1428 N   0  0  0  0  0  0  0  0  0  0  0  0
   26.1405  -18.3448  -15.8597 C   0  0  1  0  0  0  0  0  0  0  0  0
   25.2078  -17.1664  -16.0276 C   0  0  0  0  0  0  0  0  0  0  0  0
   25.9277  -15.9512  -16.4614 C   0  0  0  0  0  0  0  0  0  0  0  0
   25.6749  -15.4180  -17.6989 C   0  0  0  0  0  0  0  0  0  0  0  0
   26.3479  -14.2757  -18.1130 C   0  0  0  0  0  0  0  0  0  0  0  0
   27.2730  -13.6568  -17.3054 C   0  0  0  0  0  0  0  0  0  0  0  0
   27.5309  -14.1842  -16.0672 C   0  0  0  0  0  0  0  0  0  0  0  0
   26.8579  -15.3193  -15.6634 C   0  0  0  0  0  0  0  0  0  0  0  0
   25.4909  -19.4631  -15.1371 C   0  0  0  0  0  0  0  0  0  0  0  0
   24.6984  -20.2508  -15.7354 O   0  0  0  0  0  0  0  0  0  0  0  0
   26.6964  -20.4512   -7.6048 N   0  0  0  0  0  0  0  0  0  0  0  0
   25.7751  -21.3972   -8.1313 C   0  0  0  0  0  0  0  0  0  0  0  0
   24.6899  -21.6005   -7.4560 N   0  0  0  0  0  0  0  0  0  0  0  0
   26.0095  -22.0977   -9.3359 N   0  0  0  0  0  0  0  0  0  0  0  0
   27.1361  -21.7506  -10.1626 C   0  0  0  0  0  0  0  0  0  0  0  0
   26.7143  -21.6019  -11.6278 C   0  0  0  0  0  0  0  0  0  0  0  0
   25.3378  -20.9620  -11.6335 C   0  0  0  0  0  0  0  0  0  0  0  0
   24.8572  -20.6380  -13.0123 C   0  0  2  0  0  0  0  0  0  0  0  0
   25.6763  -19.7595  -13.7649 N   0  0  0  0  0  0  0  0  0  0  0  0
   23.4360  -20.2481  -12.9086 C   0  0  0  0  0  0  0  0  0  0  0  0
   23.1221  -19.0396  -12.7799 O   0  0  0  0  0  0  0  0  0  0  0  0
   24.0047  -22.3028   -7.7780 N   0  0  0  0  0  0  0  0  0  0  0  0
   20.6672  -19.8939  -17.3295 C   0  0  0  0  0  0  0  0  0  0  0  0
   19.5005  -19.6785  -16.5719 O   0  0  0  0  0  0  0  0  0  0  0  0
   18.4634  -19.2762  -17.1238 C   0  0  0  0  0  0  0  0  0  0  0  0
   19.5046  -19.9314  -15.1055 C   0  0  0  0  0  0  0  0  0  0  0  0
   20.8753  -20.3859  -14.6999 C   0  0  1  0  0  0  0  0  0  0  0  0
   20.9875  -20.7245  -13.2508 N   0  0  0  0  0  0  0  0  0  0  0  0
   22.3650  -21.1763  -12.9456 C   0  0  0  0  0  0  0  0  0  0  0  0
   20.0911  -21.8185  -12.8618 O   0  0  0  0  0  0  0  0  0  0  0  0
   18.8884  -21.5847  -12.2368 O   0  0  0  0  0  0  0  0  0  0  0  0
  2  1  1  6
  2 10  1  0
  3  2  1  0
  4  3  1  0
  4  5  2  0
  6  5  1  0
  7  6  2  0
  8  9  2  0
  8  7  1  0
  9  4  1  0
 10 20  1  0
 10 11  2  0
 13 12  1  0
 13 14  2  0
 15 13  1  0
 16 15  1  0
 16 17  1  0
 17 18  1  0
 19 18  1  1
 20 19  1  0
 21 19  1  0
 21 29  1  0
 22 21  2  0
 23 24  1  0
 24 25  2  0
 26 24  1  0
 26 27  1  0
 28 27  1  1
 28 29  1  0
 28 30  1  0
 30 31  1  0
 32 30  2  0
M  END
$$$$
