FRQ.pdb
     RDKit          3D

 32 32  0  0  1  0  0  0  0  0999 V2000
   21.0920  -18.6928  -14.2206 N   0  0  0  0  0  0  0  0  0  0  0  0
   22.2780  -19.3962  -13.8470 C   0  0  1  0  0  0  0  0  0  0  0  0
   21.8881  -20.6384  -13.0777 C   0  0  0  0  0  0  0  0  0  0  0  0
   21.2073  -20.3094  -11.8083 C   0  0  0  0  0  0  0  0  0  0  0  0
   21.9410  -19.8567  -10.7422 C   0  0  0  0  0  0  0  0  0  0  0  0
   21.3075  -19.5454   -9.5459 C   0  0  0  0  0  0  0  0  0  0  0  0
   19.9468  -19.6807   -9.3994 C   0  0  0  0  0  0  0  0  0  0  0  0
   19.2071  -20.1329  -10.4606 C   0  0  0  0  0  0  0  0  0  0  0  0
   19.8442  -20.4399  -11.6457 C   0  0  0  0  0  0  0  0  0  0  0  0
   23.1505  -19.7141  -15.0012 C   0  0  0  0  0  0  0  0  0  0  0  0
   22.7742  -19.4715  -16.1871 O   0  0  0  0  0  0  0  0  0  0  0  0
   27.9010  -15.3760  -19.0145 N   0  0  0  0  0  0  0  0  0  0  0  0
   28.4891  -16.6142  -18.6376 C   0  0  0  0  0  0  0  0  0  0  0  0
   29.6087  -16.9307  -19.2046 N   0  0  0  0  0  0  0  0  0  0  0  0
   27.8986  -17.4790  -17.6889 N   0  0  0  0  0  0  0  0  0  0  0  0
   26.6660  -17.1061  -17.0445 C   0  0  0  0  0  0  0  0  0  0  0  0
   26.2249  -18.1798  -16.0448 C   0  0  0  0  0  0  0  0  0  0  0  0
   25.6142  -19.3140  -16.8480 C   0  0  0  0  0  0  0  0  0  0  0  0
   25.3045  -20.5136  -16.0102 C   0  0  2  0  0  0  0  0  0  0  0  0
   24.4385  -20.2953  -14.9095 N   0  0  0  0  0  0  0  0  0  0  0  0
   26.5857  -21.1752  -15.6883 C   0  0  0  0  0  0  0  0  0  0  0  0
   27.3493  -20.6819  -14.8228 O   0  0  0  0  0  0  0  0  0  0  0  0
   30.0556  -17.8377  -18.9954 N   0  0  0  0  0  0  0  0  0  0  0  0
   27.6467  -27.1411  -15.7759 C   0  0  0  0  0  0  0  0  0  0  0  0
   27.0277  -26.4570  -16.8392 O   0  0  0  0  0  0  0  0  0  0  0  0
   26.3039  -27.0716  -17.6395 C   0  0  0  0  0  0  0  0  0  0  0  0
   27.2382  -24.9938  -17.0095 C   0  0  0  0  0  0  0  0  0  0  0  0
   28.1240  -24.5035  -15.9028 C   0  0  1  0  0  0  0  0  0  0  0  0
   28.2877  -23.0203  -15.8817 N   0  0  0  0  0  0  0  0  0  0  0  0
   27.0278  -22.3697  -16.3108 C   0  0  0  0  0  0  0  0  0  0  0  0
   29.3324  -22.5605  -16.8031 O   0  0  0  0  0  0  0  0  0  0  0  0
   29.0387  -21.8135  -17.9199 O   0  0  0  0  0  0  0  0  0  0  0  0
  2  1  1  6
  2 10  1  0
  3  2  1  0
  4  3  1  0
  4  5  2  0
  6  5  1  0
  7  6  2  0
  8  9  2  0
  8  7  1  0
  9  4  1  0
 10 20  1  0
 10 11  2  0
 13 12  1  0
 13 14  2  0
 15 13  1  0
 16 15  1  0
 16 17  1  0
 17 18  1  0
 19 18  1  1
 20 19  1  0
 21 19  1  0
 21 29  1  0
 22 21  2  0
 23 24  1  0
 24 25  2  0
 26 24  1  0
 26 27  1  0
 28 27  1  1
 28 29  1  0
 28 30  1  0
 30 31  1  0
 32 30  2  0
M  END
$$$$
