FRQ.pdb
     RDKit          3D

 32 32  0  0  1  0  0  0  0  0999 V2000
   28.4516  -19.7449  -17.5246 N   0  0  0  0  0  0  0  0  0  0  0  0
   27.3792  -19.2309  -16.7331 C   0  0  1  0  0  0  0  0  0  0  0  0
   26.6099  -18.2176  -17.5506 C   0  0  0  0  0  0  0  0  0  0  0  0
   27.3376  -16.9370  -17.6674 C   0  0  0  0  0  0  0  0  0  0  0  0
   27.8936  -16.5795  -18.8685 C   0  0  0  0  0  0  0  0  0  0  0  0
   28.5789  -15.3770  -18.9854 C   0  0  0  0  0  0  0  0  0  0  0  0
   28.7169  -14.5240  -17.9156 C   0  0  0  0  0  0  0  0  0  0  0  0
   28.1640  -14.8749  -16.7119 C   0  0  0  0  0  0  0  0  0  0  0  0
   27.4847  -16.0713  -16.6041 C   0  0  0  0  0  0  0  0  0  0  0  0
   26.4950  -20.2919  -16.1969 C   0  0  0  0  0  0  0  0  0  0  0  0
   26.4792  -21.4486  -16.7152 O   0  0  0  0  0  0  0  0  0  0  0  0
   25.8294  -21.2445   -8.1850 N   0  0  0  0  0  0  0  0  0  0  0  0
   24.7966  -20.9544   -9.1178 C   0  0  0  0  0  0  0  0  0  0  0  0
   23.6160  -20.7294   -8.6376 N   0  0  0  0  0  0  0  0  0  0  0  0
   25.0222  -20.9076  -10.5119 N   0  0  0  0  0  0  0  0  0  0  0  0
   26.3121  -21.2625  -11.0444 C   0  0  0  0  0  0  0  0  0  0  0  0
   26.3438  -21.0844  -12.5656 C   0  0  0  0  0  0  0  0  0  0  0  0
   24.9508  -21.3974  -13.0811 C   0  0  0  0  0  0  0  0  0  0  0  0
   24.8158  -21.1731  -14.5536 C   0  0  2  0  0  0  0  0  0  0  0  0
   25.6139  -20.1365  -15.0994 N   0  0  0  0  0  0  0  0  0  0  0  0
   23.3732  -21.0925  -14.8617 C   0  0  0  0  0  0  0  0  0  0  0  0
   22.7610  -20.0044  -14.7311 O   0  0  0  0  0  0  0  0  0  0  0  0
   22.8276  -20.5333   -9.2749 N   0  0  0  0  0  0  0  0  0  0  0  0
   19.5090  -25.8378  -16.2691 C   0  0  0  0  0  0  0  0  0  0  0  0
   18.5817  -24.7855  -16.1489 O   0  0  0  0  0  0  0  0  0  0  0  0
   17.3647  -25.0119  -16.2474 C   0  0  0  0  0  0  0  0  0  0  0  0
   19.0555  -23.3964  -15.9034 C   0  0  0  0  0  0  0  0  0  0  0  0
   20.5489  -23.4154  -15.7646 C   0  0  1  0  0  0  0  0  0  0  0  0
   21.1394  -22.0742  -15.4823 N   0  0  0  0  0  0  0  0  0  0  0  0
   22.6056  -22.1969  -15.3100 C   0  0  0  0  0  0  0  0  0  0  0  0
   20.6191  -21.4842  -14.2442 O   0  0  0  0  0  0  0  0  0  0  0  0
   19.5059  -20.6766  -14.2362 O   0  0  0  0  0  0  0  0  0  0  0  0
  2  1  1  6
  2 10  1  0
  3  2  1  0
  4  3  1  0
  4  5  2  0
  6  5  1  0
  7  6  2  0
  8  9  2  0
  8  7  1  0
  9  4  1  0
 10 20  1  0
 10 11  2  0
 13 12  1  0
 13 14  2  0
 15 13  1  0
 16 15  1  0
 16 17  1  0
 17 18  1  0
 19 18  1  1
 20 19  1  0
 21 19  1  0
 21 29  1  0
 22 21  2  0
 23 24  1  0
 24 25  2  0
 26 24  1  0
 26 27  1  0
 28 27  1  6
 28 29  1  0
 28 30  1  0
 30 31  1  0
 32 30  2  0
M  END
$$$$
