LMV.pdb
     RDKit          3D

 24 23  0  0  1  0  0  0  0  0999 V2000
   19.7523  -19.5474  -16.3792 C   0  0  0  0  0  0  0  0  0  0  0  0
   20.4635  -20.5075  -15.4540 C   0  0  2  0  0  0  0  0  0  0  0  0
   20.1437  -21.9232  -15.9174 C   0  0  0  0  0  0  0  0  0  0  0  0
   20.0435  -20.3723  -14.0210 C   0  0  0  0  0  0  0  0  0  0  0  0
   20.8358  -21.3425  -13.1684 C   0  0  2  0  0  0  0  0  0  0  0  0
   20.0862  -21.7612  -12.0023 N   0  0  0  0  0  0  0  0  0  0  0  0
   22.0968  -20.6693  -12.6981 C   0  0  0  0  0  0  0  0  0  0  0  0
   22.0489  -19.7354  -11.8555 O   0  0  0  0  0  0  0  0  0  0  0  0
   25.1307  -20.6785   -8.9763 C   0  0  0  0  0  0  0  0  0  0  0  0
   26.4828  -20.0876  -10.0448 S   0  0  0  0  0  0  0  0  0  0  0  0
   26.6801  -21.2296  -11.4753 C   0  0  0  0  0  0  0  0  0  0  0  0
   25.2908  -21.5611  -11.9088 C   0  0  0  0  0  0  0  0  0  0  0  0
   24.6178  -20.5395  -12.7726 C   0  0  2  0  0  0  0  0  0  0  0  0
   23.3308  -21.0952  -13.2098 N   0  0  0  0  0  0  0  0  0  0  0  0
   25.4004  -20.2339  -13.9685 C   0  0  0  0  0  0  0  0  0  0  0  0
   25.4897  -21.1168  -14.8874 O   0  0  0  0  0  0  0  0  0  0  0  0
   27.9708  -16.8448  -14.8246 C   0  0  0  0  0  0  0  0  0  0  0  0
   26.8433  -17.2748  -15.7790 C   0  0  2  0  0  0  0  0  0  0  0  0
   25.6746  -16.3245  -15.6266 C   0  0  0  0  0  0  0  0  0  0  0  0
   26.4824  -18.6953  -15.5494 C   0  0  2  0  0  0  0  0  0  0  0  0
   26.0896  -19.0027  -14.2032 N   0  0  0  0  0  0  0  0  0  0  0  0
   27.7762  -19.4840  -15.8525 C   0  0  0  0  0  0  0  0  0  0  0  0
   28.4757  -19.9827  -14.9878 O   0  0  0  0  0  0  0  0  0  0  0  0
   28.0893  -19.5811  -17.1914 O   0  0  0  0  0  0  0  0  0  0  0  0
  2  1  1  6
  3  2  1  0
  4  5  1  0
  4  2  1  0
  5  6  1  1
  7  5  1  0
  7  8  2  0
 10  9  1  0
 11 10  1  0
 12 11  1  0
 13 12  1  1
 13 14  1  0
 14  7  1  0
 15 13  1  0
 16 15  2  0
 18 17  1  1
 18 20  1  0
 19 18  1  0
 20 21  1  1
 20 22  1  0
 21 15  1  0
 22 24  1  0
 23 22  2  0
M  END
$$$$
