LMV.pdb
     RDKit          3D

 24 23  0  0  1  0  0  0  0  0999 V2000
   29.2953  -17.8498  -15.7407 C   0  0  0  0  0  0  0  0  0  0  0  0
   28.4189  -18.6993  -16.6317 C   0  0  2  0  0  0  0  0  0  0  0  0
   27.6661  -17.7651  -17.5708 C   0  0  0  0  0  0  0  0  0  0  0  0
   27.4164  -19.5167  -15.8734 C   0  0  0  0  0  0  0  0  0  0  0  0
   28.1396  -20.4487  -14.9225 C   0  0  2  0  0  0  0  0  0  0  0  0
   28.8615  -21.4817  -15.6358 N   0  0  0  0  0  0  0  0  0  0  0  0
   27.1326  -21.1153  -14.0246 C   0  0  0  0  0  0  0  0  0  0  0  0
   26.4865  -22.1202  -14.4211 O   0  0  0  0  0  0  0  0  0  0  0  0
   27.6816  -20.0083   -7.9930 C   0  0  0  0  0  0  0  0  0  0  0  0
   25.8819  -20.2440   -7.8355 S   0  0  0  0  0  0  0  0  0  0  0  0
   25.2206  -20.9840   -9.3862 C   0  0  0  0  0  0  0  0  0  0  0  0
   26.1966  -20.6055  -10.4503 C   0  0  0  0  0  0  0  0  0  0  0  0
   25.8961  -21.1242  -11.8226 C   0  0  2  0  0  0  0  0  0  0  0  0
   26.9212  -20.6040  -12.7363 N   0  0  0  0  0  0  0  0  0  0  0  0
   24.5948  -20.6678  -12.3067 C   0  0  0  0  0  0  0  0  0  0  0  0
   24.4677  -19.4512  -12.6748 O   0  0  0  0  0  0  0  0  0  0  0  0
   22.9882  -21.6000  -15.3099 C   0  0  0  0  0  0  0  0  0  0  0  0
   21.8435  -21.6089  -14.2821 C   0  0  2  0  0  0  0  0  0  0  0  0
   20.6058  -21.0063  -14.9122 C   0  0  0  0  0  0  0  0  0  0  0  0
   22.2618  -20.9258  -13.0334 C   0  0  2  0  0  0  0  0  0  0  0  0
   23.4256  -21.4857  -12.4063 N   0  0  0  0  0  0  0  0  0  0  0  0
   21.0719  -21.1118  -12.0653 C   0  0  0  0  0  0  0  0  0  0  0  0
   21.0705  -21.9184  -11.1515 O   0  0  0  0  0  0  0  0  0  0  0  0
   19.9939  -20.2901  -12.3158 O   0  0  0  0  0  0  0  0  0  0  0  0
  2  1  1  1
  3  2  1  0
  4  5  1  0
  4  2  1  0
  5  6  1  6
  7  5  1  0
  7  8  2  0
 10  9  1  0
 11 10  1  0
 12 11  1  0
 13 12  1  1
 13 14  1  0
 14  7  1  0
 15 13  1  0
 16 15  2  0
 18 17  1  6
 18 20  1  0
 19 18  1  0
 20 21  1  1
 20 22  1  0
 21 15  1  0
 22 24  1  0
 23 22  2  0
M  END
$$$$
