LMV.pdb
     RDKit          3D

 24 23  0  0  1  0  0  0  0  0999 V2000
   26.3229  -20.7129   -6.9853 C   0  0  0  0  0  0  0  0  0  0  0  0
   27.5665  -20.3386   -7.7579 C   0  0  2  0  0  0  0  0  0  0  0  0
   28.2532  -19.2016   -7.0116 C   0  0  0  0  0  0  0  0  0  0  0  0
   27.2814  -19.8821   -9.1573 C   0  0  0  0  0  0  0  0  0  0  0  0
   26.4312  -20.9184   -9.8637 C   0  0  2  0  0  0  0  0  0  0  0  0
   27.2377  -21.8033  -10.6782 N   0  0  0  0  0  0  0  0  0  0  0  0
   25.4481  -20.2192  -10.7635 C   0  0  0  0  0  0  0  0  0  0  0  0
   24.9989  -19.0829  -10.4616 O   0  0  0  0  0  0  0  0  0  0  0  0
   27.0359  -16.5376  -15.5429 C   0  0  0  0  0  0  0  0  0  0  0  0
   25.8062  -17.8801  -15.4735 S   0  0  0  0  0  0  0  0  0  0  0  0
   26.3453  -19.1451  -14.2494 C   0  0  0  0  0  0  0  0  0  0  0  0
   25.2579  -20.1676  -14.2353 C   0  0  0  0  0  0  0  0  0  0  0  0
   24.3568  -20.1422  -13.0396 C   0  0  2  0  0  0  0  0  0  0  0  0
   25.0367  -20.8490  -11.9467 N   0  0  0  0  0  0  0  0  0  0  0  0
   23.0913  -20.8278  -13.2942 C   0  0  0  0  0  0  0  0  0  0  0  0
   23.1050  -22.0889  -13.4971 O   0  0  0  0  0  0  0  0  0  0  0  0
   19.2513  -19.4155  -12.2421 C   0  0  0  0  0  0  0  0  0  0  0  0
   19.6275  -20.8926  -12.4512 C   0  0  2  0  0  0  0  0  0  0  0  0
   20.0575  -21.4876  -11.1271 C   0  0  0  0  0  0  0  0  0  0  0  0
   20.6520  -21.0215  -13.5164 C   0  0  2  0  0  0  0  0  0  0  0  0
   21.8103  -20.1928  -13.3357 N   0  0  0  0  0  0  0  0  0  0  0  0
   19.9392  -20.5570  -14.8063 C   0  0  0  0  0  0  0  0  0  0  0  0
   19.0711  -21.2061  -15.3636 O   0  0  0  0  0  0  0  0  0  0  0  0
   20.3650  -19.3389  -15.2910 O   0  0  0  0  0  0  0  0  0  0  0  0
  2  1  1  1
  3  2  1  0
  4  5  1  0
  4  2  1  0
  5  6  1  6
  7  5  1  0
  7  8  2  0
 10  9  1  0
 11 10  1  0
 12 11  1  0
 13 12  1  6
 13 14  1  0
 14  7  1  0
 15 13  1  0
 16 15  2  0
 18 17  1  1
 18 20  1  0
 19 18  1  0
 20 21  1  1
 20 22  1  0
 21 15  1  0
 22 24  1  0
 23 22  2  0
M  END
$$$$
