LMV.pdb
     RDKit          3D

 24 23  0  0  1  0  0  0  0  0999 V2000
   28.4977  -21.9744  -17.7442 C   0  0  0  0  0  0  0  0  0  0  0  0
   27.3218  -22.8247  -18.1662 C   0  0  2  0  0  0  0  0  0  0  0  0
   26.7551  -22.2308  -19.4497 C   0  0  0  0  0  0  0  0  0  0  0  0
   26.2266  -22.8732  -17.1433 C   0  0  0  0  0  0  0  0  0  0  0  0
   26.7728  -23.4293  -15.8440 C   0  0  2  0  0  0  0  0  0  0  0  0
   27.0466  -24.8476  -15.9453 N   0  0  0  0  0  0  0  0  0  0  0  0
   25.7554  -23.2250  -14.7541 C   0  0  0  0  0  0  0  0  0  0  0  0
   24.7655  -23.9953  -14.6488 O   0  0  0  0  0  0  0  0  0  0  0  0
   26.4959  -20.8789   -8.2046 C   0  0  0  0  0  0  0  0  0  0  0  0
   25.9297  -19.7021   -9.4749 S   0  0  0  0  0  0  0  0  0  0  0  0
   24.7802  -20.5539  -10.6336 C   0  0  0  0  0  0  0  0  0  0  0  0
   25.6376  -21.0319  -11.7581 C   0  0  0  0  0  0  0  0  0  0  0  0
   24.9373  -21.8244  -12.8184 C   0  0  2  0  0  0  0  0  0  0  0  0
   25.9226  -22.1640  -13.8529 N   0  0  0  0  0  0  0  0  0  0  0  0
   23.8677  -21.0592  -13.4560 C   0  0  0  0  0  0  0  0  0  0  0  0
   24.1758  -20.0323  -14.1505 O   0  0  0  0  0  0  0  0  0  0  0  0
   20.0870  -22.3181  -14.7791 C   0  0  0  0  0  0  0  0  0  0  0  0
   20.8312  -21.0269  -15.1614 C   0  0  2  0  0  0  0  0  0  0  0  0
   21.7426  -21.3088  -16.3370 C   0  0  0  0  0  0  0  0  0  0  0  0
   21.5417  -20.4695  -13.9845 C   0  0  2  0  0  0  0  0  0  0  0  0
   22.4742  -21.3696  -13.3671 N   0  0  0  0  0  0  0  0  0  0  0  0
   20.4270  -20.1709  -12.9568 C   0  0  0  0  0  0  0  0  0  0  0  0
   20.2445  -20.8375  -11.9528 O   0  0  0  0  0  0  0  0  0  0  0  0
   19.6393  -19.0822  -13.2640 O   0  0  0  0  0  0  0  0  0  0  0  0
  2  1  1  1
  3  2  1  0
  4  5  1  0
  4  2  1  0
  5  6  1  6
  7  5  1  0
  7  8  2  0
 10  9  1  0
 11 10  1  0
 12 11  1  0
 13 12  1  1
 13 14  1  0
 14  7  1  0
 15 13  1  0
 16 15  2  0
 18 17  1  1
 18 20  1  0
 19 18  1  0
 20 21  1  1
 20 22  1  0
 21 15  1  0
 22 24  1  0
 23 22  2  0
M  END
$$$$
