LMV.pdb
     RDKit          3D

 24 23  0  0  1  0  0  0  0  0999 V2000
   26.9878  -19.0512  -18.0434 C   0  0  0  0  0  0  0  0  0  0  0  0
   27.9692  -20.1959  -17.9425 C   0  0  2  0  0  0  0  0  0  0  0  0
   27.9082  -20.9775  -19.2489 C   0  0  0  0  0  0  0  0  0  0  0  0
   27.6704  -21.1365  -16.8138 C   0  0  0  0  0  0  0  0  0  0  0  0
   27.6530  -20.3691  -15.5074 C   0  0  2  0  0  0  0  0  0  0  0  0
   28.9327  -20.4371  -14.8330 N   0  0  0  0  0  0  0  0  0  0  0  0
   26.6121  -20.9659  -14.5990 C   0  0  0  0  0  0  0  0  0  0  0  0
   25.8062  -21.8316  -15.0293 O   0  0  0  0  0  0  0  0  0  0  0  0
   27.6272  -20.8746   -8.1997 C   0  0  0  0  0  0  0  0  0  0  0  0
   25.8817  -20.3602   -8.2886 S   0  0  0  0  0  0  0  0  0  0  0  0
   25.1116  -21.0582   -9.8082 C   0  0  0  0  0  0  0  0  0  0  0  0
   25.9761  -20.5981  -10.9346 C   0  0  0  0  0  0  0  0  0  0  0  0
   25.5816  -21.0806  -12.2963 C   0  0  2  0  0  0  0  0  0  0  0  0
   26.5497  -20.5464  -13.2625 N   0  0  0  0  0  0  0  0  0  0  0  0
   24.2559  -20.6020  -12.6829 C   0  0  0  0  0  0  0  0  0  0  0  0
   24.0878  -19.3518  -12.8841 O   0  0  0  0  0  0  0  0  0  0  0  0
   22.3517  -21.2312  -15.7225 C   0  0  0  0  0  0  0  0  0  0  0  0
   21.3431  -21.3895  -14.5716 C   0  0  2  0  0  0  0  0  0  0  0  0
   20.0201  -20.7794  -14.9834 C   0  0  0  0  0  0  0  0  0  0  0  0
   21.8920  -20.8169  -13.3179 C   0  0  2  0  0  0  0  0  0  0  0  0
   23.1051  -21.4329  -12.8598 N   0  0  0  0  0  0  0  0  0  0  0  0
   20.8018  -21.0794  -12.2548 C   0  0  0  0  0  0  0  0  0  0  0  0
   20.7600  -22.0883  -11.5721 O   0  0  0  0  0  0  0  0  0  0  0  0
   19.8632  -20.0771  -12.1350 O   0  0  0  0  0  0  0  0  0  0  0  0
  2  1  1  6
  3  2  1  0
  4  5  1  0
  4  2  1  0
  5  6  1  1
  7  5  1  0
  7  8  2  0
 10  9  1  0
 11 10  1  0
 12 11  1  0
 13 12  1  1
 13 14  1  0
 14  7  1  0
 15 13  1  0
 16 15  2  0
 18 17  1  6
 18 20  1  0
 19 18  1  0
 20 21  1  1
 20 22  1  0
 21 15  1  0
 22 24  1  0
 23 22  2  0
M  END
$$$$
