LMV.pdb
     RDKit          3D

 24 23  0  0  1  0  0  0  0  0999 V2000
   17.9105  -10.7123  -16.5310 C   0  0  0  0  0  0  0  0  0  0  0  0
   17.3477  -11.5660  -15.4183 C   0  0  2  0  0  0  0  0  0  0  0  0
   16.4432  -12.6166  -16.0501 C   0  0  0  0  0  0  0  0  0  0  0  0
   16.5436  -10.7871  -14.4209 C   0  0  0  0  0  0  0  0  0  0  0  0
   17.3877   -9.6606  -13.8603 C   0  0  2  0  0  0  0  0  0  0  0  0
   18.2350  -10.1177  -12.7786 N   0  0  0  0  0  0  0  0  0  0  0  0
   16.4814   -8.5858  -13.3235 C   0  0  0  0  0  0  0  0  0  0  0  0
   15.5952   -8.0708  -14.0541 O   0  0  0  0  0  0  0  0  0  0  0  0
   14.3066   -5.8290   -6.2254 C   0  0  0  0  0  0  0  0  0  0  0  0
   15.2340   -6.9430   -7.3290 S   0  0  0  0  0  0  0  0  0  0  0  0
   15.0483   -6.3775   -9.0712 C   0  0  0  0  0  0  0  0  0  0  0  0
   15.7988   -7.3741   -9.8906 C   0  0  0  0  0  0  0  0  0  0  0  0
   15.7767   -7.1477  -11.3708 C   0  0  2  0  0  0  0  0  0  0  0  0
   16.6345   -8.1628  -11.9955 N   0  0  0  0  0  0  0  0  0  0  0  0
   16.3065   -5.8340  -11.7308 C   0  0  0  0  0  0  0  0  0  0  0  0
   17.5728   -5.6769  -11.7911 O   0  0  0  0  0  0  0  0  0  0  0  0
   14.3918   -2.9696  -14.0815 C   0  0  0  0  0  0  0  0  0  0  0  0
   15.9077   -3.0719  -13.8398 C   0  0  2  0  0  0  0  0  0  0  0  0
   16.5137   -3.9985  -14.8724 C   0  0  0  0  0  0  0  0  0  0  0  0
   16.1837   -3.4853  -12.4420 C   0  0  2  0  0  0  0  0  0  0  0  0
   15.5101   -4.6838  -12.0285 N   0  0  0  0  0  0  0  0  0  0  0  0
   15.6488   -2.3234  -11.5750 C   0  0  0  0  0  0  0  0  0  0  0  0
   14.6033   -2.3786  -10.9509 O   0  0  0  0  0  0  0  0  0  0  0  0
   16.4493   -1.2013  -11.5613 O   0  0  0  0  0  0  0  0  0  0  0  0
  2  1  1  6
  3  2  1  0
  4  5  1  0
  4  2  1  0
  5  6  1  1
  7  5  1  0
  7  8  2  0
 10  9  1  0
 11 10  1  0
 12 11  1  0
 13 12  1  1
 13 14  1  0
 14  7  1  0
 15 13  1  0
 16 15  2  0
 18 17  1  1
 18 20  1  0
 19 18  1  0
 20 21  1  1
 20 22  1  0
 21 15  1  0
 22 24  1  0
 23 22  2  0
M  END
$$$$
