LMV.pdb
     RDKit          3D

 24 23  0  0  1  0  0  0  0  0999 V2000
   28.4305  -19.0337  -18.0708 C   0  0  0  0  0  0  0  0  0  0  0  0
   29.3436  -19.5078  -16.9639 C   0  0  2  0  0  0  0  0  0  0  0  0
   30.4641  -20.3201  -17.6010 C   0  0  0  0  0  0  0  0  0  0  0  0
   28.6511  -20.3697  -15.9511 C   0  0  0  0  0  0  0  0  0  0  0  0
   27.4743  -19.6157  -15.3658 C   0  0  2  0  0  0  0  0  0  0  0  0
   27.9042  -18.4402  -14.6376 N   0  0  0  0  0  0  0  0  0  0  0  0
   26.7382  -20.5158  -14.4104 C   0  0  0  0  0  0  0  0  0  0  0  0
   26.3457  -21.6544  -14.7759 O   0  0  0  0  0  0  0  0  0  0  0  0
   27.8554  -20.4904   -8.0885 C   0  0  0  0  0  0  0  0  0  0  0  0
   26.0511  -20.2389   -8.1031 S   0  0  0  0  0  0  0  0  0  0  0  0
   25.3383  -20.9867   -9.6270 C   0  0  0  0  0  0  0  0  0  0  0  0
   26.0933  -20.3709  -10.7579 C   0  0  0  0  0  0  0  0  0  0  0  0
   25.7061  -20.8356  -12.1278 C   0  0  2  0  0  0  0  0  0  0  0  0
   26.4939  -20.0713  -13.1032 N   0  0  0  0  0  0  0  0  0  0  0  0
   24.2925  -20.5924  -12.4083 C   0  0  0  0  0  0  0  0  0  0  0  0
   23.9320  -19.4263  -12.7850 O   0  0  0  0  0  0  0  0  0  0  0  0
   20.3412  -21.7425  -14.7198 C   0  0  0  0  0  0  0  0  0  0  0  0
   21.7427  -22.0577  -14.1689 C   0  0  2  0  0  0  0  0  0  0  0  0
   21.8828  -23.5552  -13.9956 C   0  0  0  0  0  0  0  0  0  0  0  0
   21.9944  -21.2935  -12.9226 C   0  0  2  0  0  0  0  0  0  0  0  0
   23.2554  -21.5710  -12.2950 N   0  0  0  0  0  0  0  0  0  0  0  0
   20.8785  -21.7433  -11.9529 C   0  0  0  0  0  0  0  0  0  0  0  0
   21.0670  -22.5065  -11.0215 O   0  0  0  0  0  0  0  0  0  0  0  0
   19.6348  -21.2143  -12.2236 O   0  0  0  0  0  0  0  0  0  0  0  0
  2  1  1  6
  3  2  1  0
  4  5  1  0
  4  2  1  0
  5  6  1  1
  7  5  1  0
  7  8  2  0
 10  9  1  0
 11 10  1  0
 12 11  1  0
 13 12  1  1
 13 14  1  0
 14  7  1  0
 15 13  1  0
 16 15  2  0
 18 17  1  1
 18 20  1  0
 19 18  1  0
 20 21  1  1
 20 22  1  0
 21 15  1  0
 22 24  1  0
 23 22  2  0
M  END
$$$$
