CDY.pdb
     RDKit          3D

 27 27  0  0  1  0  0  0  0  0999 V2000
    6.1614  -16.1672   20.2972 N   0  0  0  0  0  0  0  0  0  0  0  0
    7.3974  -15.4543   20.3070 C   0  0  1  0  0  0  0  0  0  0  0  0
    7.2420  -14.2018   21.1452 C   0  0  0  0  0  0  0  0  0  0  0  0
    6.5985  -14.5514   22.7907 S   0  0  0  0  0  0  0  0  0  0  0  0
    8.5187  -16.2376   20.9181 C   0  0  0  0  0  0  0  0  0  0  0  0
    8.2060  -17.1434   21.7083 O   0  0  0  0  0  0  0  0  0  0  0  0
    9.8769  -15.9921   20.6377 N   0  0  0  0  0  0  0  0  0  0  0  0
   10.9786  -16.7164   21.2132 C   0  0  1  0  0  0  0  0  0  0  0  0
   12.1889  -16.5477   20.3604 C   0  0  0  0  0  0  0  0  0  0  0  0
   13.2832  -17.3718   20.9267 C   0  0  0  0  0  0  0  0  0  0  0  0
   13.1435  -18.5037   21.4423 O   0  0  0  0  0  0  0  0  0  0  0  0
   11.1713  -16.2702   22.6098 C   0  0  0  0  0  0  0  0  0  0  0  0
   11.2530  -15.0314   22.8003 O   0  0  0  0  0  0  0  0  0  0  0  0
   14.6031  -16.8788   20.9030 O   0  0  0  0  0  0  0  0  0  0  0  0
   10.6617  -14.5295   31.0337 O   0  0  0  0  0  0  0  0  0  0  0  0
   10.5309  -14.9093   29.7013 C   0  0  0  0  0  0  0  0  0  0  0  0
   10.2150  -13.9965   28.7176 C   0  0  0  0  0  0  0  0  0  0  0  0
   10.0803  -14.3468   27.3956 C   0  0  0  0  0  0  0  0  0  0  0  0
   10.2622  -15.6664   26.9929 C   0  0  0  0  0  0  0  0  0  0  0  0
   10.1195  -16.0999   25.6024 C   0  0  0  0  0  0  0  0  0  0  0  0
   11.3750  -16.7123   25.0939 C   0  0  2  0  0  0  0  0  0  0  0  0
   11.2655  -17.1458   23.7109 N   0  0  0  0  0  0  0  0  0  0  0  0
   11.9400  -17.7994   25.8984 C   0  0  0  0  0  0  0  0  0  0  0  0
   13.0906  -17.6653   26.4053 O   0  0  0  0  0  0  0  0  0  0  0  0
   10.5802  -16.5844   27.9843 C   0  0  0  0  0  0  0  0  0  0  0  0
   10.7113  -16.2169   29.3032 C   0  0  0  0  0  0  0  0  0  0  0  0
   11.3211  -19.0082   26.1745 O   0  0  0  0  0  0  0  0  0  0  0  0
  2  3  1  0
  2  1  1  1
  4  3  1  0
  5  2  1  0
  6  5  2  0
  7  5  1  0
  8  7  1  0
  8  9  1  6
 10  9  1  0
 11 10  2  0
 12 22  1  0
 12  8  1  0
 13 12  2  0
 14 10  1  0
 16 15  1  0
 17 16  2  0
 18 17  1  0
 19 18  2  0
 19 25  1  0
 21 20  1  1
 20 19  1  0
 21 22  1  0
 23 27  1  0
 23 21  1  0
 24 23  2  0
 25 26  2  0
 26 16  1  0
M  END
$$$$
