CDY.pdb
     RDKit          3D

 27 27  0  0  1  0  0  0  0  0999 V2000
    7.3047  -15.4374   19.6791 N   0  0  0  0  0  0  0  0  0  0  0  0
    8.3740  -14.8925   20.4509 C   0  0  1  0  0  0  0  0  0  0  0  0
    7.8908  -13.6414   21.1558 C   0  0  0  0  0  0  0  0  0  0  0  0
    7.4251  -12.3390   20.0021 S   0  0  0  0  0  0  0  0  0  0  0  0
    8.8554  -15.8236   21.5213 C   0  0  0  0  0  0  0  0  0  0  0  0
    8.1503  -16.8179   21.7599 O   0  0  0  0  0  0  0  0  0  0  0  0
   10.0450  -15.6193   22.2470 N   0  0  0  0  0  0  0  0  0  0  0  0
   10.7194  -16.6280   23.0198 C   0  0  1  0  0  0  0  0  0  0  0  0
   12.1778  -16.3264   23.0728 C   0  0  0  0  0  0  0  0  0  0  0  0
   12.8728  -17.4701   23.7105 C   0  0  0  0  0  0  0  0  0  0  0  0
   14.0500  -17.4552   24.1352 O   0  0  0  0  0  0  0  0  0  0  0  0
   10.0846  -16.7186   24.3523 C   0  0  0  0  0  0  0  0  0  0  0  0
    9.0808  -17.4674   24.4494 O   0  0  0  0  0  0  0  0  0  0  0  0
   12.1893  -18.6919   23.8711 O   0  0  0  0  0  0  0  0  0  0  0  0
    6.1366  -11.1343   25.6944 O   0  0  0  0  0  0  0  0  0  0  0  0
    6.7082  -12.3743   25.9630 C   0  0  0  0  0  0  0  0  0  0  0  0
    7.8805  -12.4893   26.6794 C   0  0  0  0  0  0  0  0  0  0  0  0
    8.4645  -13.7019   26.9575 C   0  0  0  0  0  0  0  0  0  0  0  0
    7.8798  -14.8848   26.5155 C   0  0  0  0  0  0  0  0  0  0  0  0
    8.4623  -16.2030   26.7706 C   0  0  0  0  0  0  0  0  0  0  0  0
    9.9470  -16.1405   26.8129 C   0  0  2  0  0  0  0  0  0  0  0  0
   10.5396  -16.0227   25.4909 N   0  0  0  0  0  0  0  0  0  0  0  0
   10.6218  -17.2114   27.5519 C   0  0  0  0  0  0  0  0  0  0  0  0
   11.4770  -17.9318   26.9614 O   0  0  0  0  0  0  0  0  0  0  0  0
    6.6996  -14.7676   25.7943 C   0  0  0  0  0  0  0  0  0  0  0  0
    6.1284  -13.5458   25.5248 C   0  0  0  0  0  0  0  0  0  0  0  0
   10.4142  -17.5307   28.8843 O   0  0  0  0  0  0  0  0  0  0  0  0
  2  3  1  0
  2  1  1  1
  4  3  1  0
  5  2  1  0
  6  5  2  0
  7  5  1  0
  8  7  1  0
  8  9  1  1
 10  9  1  0
 11 10  2  0
 12 22  1  0
 12  8  1  0
 13 12  2  0
 14 10  1  0
 16 15  1  0
 17 16  2  0
 18 17  1  0
 19 18  2  0
 19 25  1  0
 21 20  1  6
 20 19  1  0
 21 22  1  0
 23 27  1  0
 23 21  1  0
 24 23  2  0
 25 26  2  0
 26 16  1  0
M  END
$$$$
