CDY.pdb
     RDKit          3D

 27 27  0  0  1  0  0  0  0  0999 V2000
    8.8581  -15.7285   18.7520 N   0  0  0  0  0  0  0  0  0  0  0  0
    9.1680  -14.6949   19.6856 C   0  0  1  0  0  0  0  0  0  0  0  0
    8.3005  -13.4870   19.3957 C   0  0  0  0  0  0  0  0  0  0  0  0
    6.5420  -13.8686   19.4753 S   0  0  0  0  0  0  0  0  0  0  0  0
    8.8896  -15.0867   21.1045 C   0  0  0  0  0  0  0  0  0  0  0  0
    8.9779  -14.1925   21.9620 O   0  0  0  0  0  0  0  0  0  0  0  0
    8.5412  -16.3952   21.4919 N   0  0  0  0  0  0  0  0  0  0  0  0
    9.4796  -17.4152   21.8774 C   0  0  1  0  0  0  0  0  0  0  0  0
   10.5163  -17.5681   20.8179 C   0  0  0  0  0  0  0  0  0  0  0  0
   11.3457  -18.7545   21.1377 C   0  0  0  0  0  0  0  0  0  0  0  0
   12.3742  -18.7468   21.8508 O   0  0  0  0  0  0  0  0  0  0  0  0
   10.0356  -17.0807   23.2062 C   0  0  0  0  0  0  0  0  0  0  0  0
   10.8140  -17.9219   23.7202 O   0  0  0  0  0  0  0  0  0  0  0  0
   10.9824  -20.0125   20.6170 O   0  0  0  0  0  0  0  0  0  0  0  0
    4.9417  -12.3545   26.4398 O   0  0  0  0  0  0  0  0  0  0  0  0
    6.2457  -12.7737   26.1943 C   0  0  0  0  0  0  0  0  0  0  0  0
    6.6609  -13.1407   24.9319 C   0  0  0  0  0  0  0  0  0  0  0  0
    7.9426  -13.5580   24.6641 C   0  0  0  0  0  0  0  0  0  0  0  0
    8.8897  -13.6267   25.6815 C   0  0  0  0  0  0  0  0  0  0  0  0
   10.2648  -14.0751   25.4583 C   0  0  0  0  0  0  0  0  0  0  0  0
   10.3218  -15.5364   25.1913 C   0  0  2  0  0  0  0  0  0  0  0  0
    9.7420  -15.8932   23.9070 N   0  0  0  0  0  0  0  0  0  0  0  0
    9.7690  -16.4092   26.2309 C   0  0  0  0  0  0  0  0  0  0  0  0
    8.7948  -17.1665   25.9545 O   0  0  0  0  0  0  0  0  0  0  0  0
    8.4703  -13.2569   26.9521 C   0  0  0  0  0  0  0  0  0  0  0  0
    7.1833  -12.8415   27.2027 C   0  0  0  0  0  0  0  0  0  0  0  0
   10.2198  -16.4968   27.5383 O   0  0  0  0  0  0  0  0  0  0  0  0
  2  3  1  0
  2  1  1  6
  4  3  1  0
  5  2  1  0
  6  5  2  0
  7  5  1  0
  8  7  1  0
  8  9  1  6
 10  9  1  0
 11 10  2  0
 12 22  1  0
 12  8  1  0
 13 12  2  0
 14 10  1  0
 16 15  1  0
 17 16  2  0
 18 17  1  0
 19 18  2  0
 19 25  1  0
 21 20  1  1
 20 19  1  0
 21 22  1  0
 23 27  1  0
 23 21  1  0
 24 23  2  0
 25 26  2  0
 26 16  1  0
M  END
$$$$
