CDY.pdb
     RDKit          3D

 27 27  0  0  1  0  0  0  0  0999 V2000
    6.5825  -15.4813   20.9724 N   0  0  0  0  0  0  0  0  0  0  0  0
    7.9427  -15.1106   21.1919 C   0  0  1  0  0  0  0  0  0  0  0  0
    7.9917  -13.6938   21.7268 C   0  0  0  0  0  0  0  0  0  0  0  0
    7.5707  -12.4710   20.4732 S   0  0  0  0  0  0  0  0  0  0  0  0
    8.6262  -15.9722   22.2092 C   0  0  0  0  0  0  0  0  0  0  0  0
    7.8969  -16.6065   22.9893 O   0  0  0  0  0  0  0  0  0  0  0  0
   10.0261  -16.0867   22.3112 N   0  0  0  0  0  0  0  0  0  0  0  0
   10.7146  -16.9654   23.2188 C   0  0  1  0  0  0  0  0  0  0  0  0
   12.1246  -17.1433   22.7706 C   0  0  0  0  0  0  0  0  0  0  0  0
   12.1184  -17.8230   21.4532 C   0  0  0  0  0  0  0  0  0  0  0  0
   12.7456  -17.4414   20.4396 O   0  0  0  0  0  0  0  0  0  0  0  0
   10.5926  -16.4310   24.5922 C   0  0  0  0  0  0  0  0  0  0  0  0
   11.2924  -15.4260   24.8709 O   0  0  0  0  0  0  0  0  0  0  0  0
   11.3577  -18.9972   21.2848 O   0  0  0  0  0  0  0  0  0  0  0  0
    6.4507  -11.3579   25.3390 O   0  0  0  0  0  0  0  0  0  0  0  0
    6.9249  -12.5552   25.8663 C   0  0  0  0  0  0  0  0  0  0  0  0
    8.0276  -12.5939   26.6929 C   0  0  0  0  0  0  0  0  0  0  0  0
    8.5150  -13.7631   27.2259 C   0  0  0  0  0  0  0  0  0  0  0  0
    7.8985  -14.9784   26.9439 C   0  0  0  0  0  0  0  0  0  0  0  0
    8.3800  -16.2554   27.4723 C   0  0  0  0  0  0  0  0  0  0  0  0
    9.7450  -16.5684   26.9734 C   0  0  2  0  0  0  0  0  0  0  0  0
    9.7500  -16.9810   25.5797 N   0  0  0  0  0  0  0  0  0  0  0  0
   10.5223  -17.5267   27.7645 C   0  0  0  0  0  0  0  0  0  0  0  0
   10.6968  -17.3176   28.9993 O   0  0  0  0  0  0  0  0  0  0  0  0
    6.7884  -14.9380   26.1115 C   0  0  0  0  0  0  0  0  0  0  0  0
    6.3136  -13.7588   25.5864 C   0  0  0  0  0  0  0  0  0  0  0  0
   11.1096  -18.6858   27.2831 O   0  0  0  0  0  0  0  0  0  0  0  0
  2  3  1  0
  2  1  1  1
  4  3  1  0
  5  2  1  0
  6  5  2  0
  7  5  1  0
  8  7  1  0
  8  9  1  6
 10  9  1  0
 11 10  2  0
 12 22  1  0
 12  8  1  0
 13 12  2  0
 14 10  1  0
 16 15  1  0
 17 16  2  0
 18 17  1  0
 19 18  2  0
 19 25  1  0
 21 20  1  1
 20 19  1  0
 21 22  1  0
 23 27  1  0
 23 21  1  0
 24 23  2  0
 25 26  2  0
 26 16  1  0
M  END
$$$$
