CDY.pdb
     RDKit          3D

 27 27  0  0  1  0  0  0  0  0999 V2000
    5.8083  -15.9176   21.2525 N   0  0  0  0  0  0  0  0  0  0  0  0
    7.1259  -15.3830   21.1343 C   0  0  1  0  0  0  0  0  0  0  0  0
    7.1487  -13.9842   21.7162 C   0  0  0  0  0  0  0  0  0  0  0  0
    6.5884  -13.9425   23.4275 S   0  0  0  0  0  0  0  0  0  0  0  0
    8.1477  -16.1745   21.8919 C   0  0  0  0  0  0  0  0  0  0  0  0
    7.7210  -17.0358   22.6786 O   0  0  0  0  0  0  0  0  0  0  0  0
    9.5358  -15.9838   21.7493 N   0  0  0  0  0  0  0  0  0  0  0  0
   10.5452  -16.8129   22.3520 C   0  0  1  0  0  0  0  0  0  0  0  0
   11.7649  -16.8190   21.4959 C   0  0  0  0  0  0  0  0  0  0  0  0
   12.7487  -17.7593   22.0838 C   0  0  0  0  0  0  0  0  0  0  0  0
   13.9927  -17.6360   22.0227 O   0  0  0  0  0  0  0  0  0  0  0  0
   10.7928  -16.3438   23.7323 C   0  0  0  0  0  0  0  0  0  0  0  0
   11.5101  -15.3208   23.8606 O   0  0  0  0  0  0  0  0  0  0  0  0
   12.2889  -18.8973   22.7761 O   0  0  0  0  0  0  0  0  0  0  0  0
    5.3828  -13.1436   25.4933 O   0  0  0  0  0  0  0  0  0  0  0  0
    6.6633  -13.6307   25.7374 C   0  0  0  0  0  0  0  0  0  0  0  0
    7.7864  -12.8807   25.4604 C   0  0  0  0  0  0  0  0  0  0  0  0
    9.0610  -13.3393   25.6924 C   0  0  0  0  0  0  0  0  0  0  0  0
    9.2686  -14.6069   26.2278 C   0  0  0  0  0  0  0  0  0  0  0  0
   10.6020  -15.1527   26.4844 C   0  0  0  0  0  0  0  0  0  0  0  0
   10.6429  -16.6191   26.2442 C   0  0  2  0  0  0  0  0  0  0  0  0
   10.2758  -16.9732   24.8831 N   0  0  0  0  0  0  0  0  0  0  0  0
    9.8855  -17.4528   27.1820 C   0  0  0  0  0  0  0  0  0  0  0  0
   10.0710  -17.3167   28.4254 O   0  0  0  0  0  0  0  0  0  0  0  0
    8.1369  -15.3610   26.5063 C   0  0  0  0  0  0  0  0  0  0  0  0
    6.8681  -14.8866   26.2679 C   0  0  0  0  0  0  0  0  0  0  0  0
    8.9484  -18.4133   26.8365 O   0  0  0  0  0  0  0  0  0  0  0  0
  2  3  1  0
  2  1  1  1
  4  3  1  0
  5  2  1  0
  6  5  2  0
  7  5  1  0
  8  7  1  0
  8  9  1  6
 10  9  1  0
 11 10  2  0
 12 22  1  0
 12  8  1  0
 13 12  2  0
 14 10  1  0
 16 15  1  0
 17 16  2  0
 18 17  1  0
 19 18  2  0
 19 25  1  0
 21 20  1  1
 20 19  1  0
 21 22  1  0
 23 27  1  0
 23 21  1  0
 24 23  2  0
 25 26  2  0
 26 16  1  0
M  END
$$$$
