CDY.pdb
     RDKit          3D

 27 27  0  0  1  0  0  0  0  0999 V2000
    7.5073  -16.0445   18.2793 N   0  0  0  0  0  0  0  0  0  0  0  0
    8.6543  -15.4375   18.8726 C   0  0  1  0  0  0  0  0  0  0  0  0
    8.2857  -14.0520   19.3629 C   0  0  0  0  0  0  0  0  0  0  0  0
    7.9196  -12.9194   18.0111 S   0  0  0  0  0  0  0  0  0  0  0  0
    9.1617  -16.1888   20.0653 C   0  0  0  0  0  0  0  0  0  0  0  0
    8.3097  -16.6704   20.8302 O   0  0  0  0  0  0  0  0  0  0  0  0
   10.5309  -16.3645   20.3440 N   0  0  0  0  0  0  0  0  0  0  0  0
   11.0550  -16.9672   21.5406 C   0  0  1  0  0  0  0  0  0  0  0  0
   12.4833  -17.3369   21.3308 C   0  0  0  0  0  0  0  0  0  0  0  0
   12.5472  -18.4130   20.3133 C   0  0  0  0  0  0  0  0  0  0  0  0
   11.8434  -19.4480   20.3102 O   0  0  0  0  0  0  0  0  0  0  0  0
   10.8427  -16.0452   22.6770 C   0  0  0  0  0  0  0  0  0  0  0  0
   10.9789  -14.8190   22.4420 O   0  0  0  0  0  0  0  0  0  0  0  0
   13.4604  -18.3017   19.2459 O   0  0  0  0  0  0  0  0  0  0  0  0
    6.1319  -11.3708   27.9931 O   0  0  0  0  0  0  0  0  0  0  0  0
    6.7400  -12.2550   27.1073 C   0  0  0  0  0  0  0  0  0  0  0  0
    7.9466  -12.8548   27.3995 C   0  0  0  0  0  0  0  0  0  0  0  0
    8.5669  -13.7310   26.5417 C   0  0  0  0  0  0  0  0  0  0  0  0
    7.9859  -14.0520   25.3185 C   0  0  0  0  0  0  0  0  0  0  0  0
    8.6059  -14.9680   24.3602 C   0  0  0  0  0  0  0  0  0  0  0  0
    9.7944  -15.6422   24.9456 C   0  0  2  0  0  0  0  0  0  0  0  0
   10.5030  -16.4650   23.9794 N   0  0  0  0  0  0  0  0  0  0  0  0
    9.5649  -16.4193   26.1669 C   0  0  0  0  0  0  0  0  0  0  0  0
    9.1310  -17.6038   26.0786 O   0  0  0  0  0  0  0  0  0  0  0  0
    6.7712  -13.4474   25.0255 C   0  0  0  0  0  0  0  0  0  0  0  0
    6.1639  -12.5725   25.8957 C   0  0  0  0  0  0  0  0  0  0  0  0
    9.7830  -15.9759   27.4616 O   0  0  0  0  0  0  0  0  0  0  0  0
  2  3  1  0
  2  1  1  1
  4  3  1  0
  5  2  1  0
  6  5  2  0
  7  5  1  0
  8  7  1  0
  8  9  1  6
 10  9  1  0
 11 10  2  0
 12 22  1  0
 12  8  1  0
 13 12  2  0
 14 10  1  0
 16 15  1  0
 17 16  2  0
 18 17  1  0
 19 18  2  0
 19 25  1  0
 21 20  1  6
 20 19  1  0
 21 22  1  0
 23 27  1  0
 23 21  1  0
 24 23  2  0
 25 26  2  0
 26 16  1  0
M  END
$$$$
