CDY.pdb
     RDKit          3D

 27 27  0  0  1  0  0  0  0  0999 V2000
    6.9026  -14.8791   19.8964 N   0  0  0  0  0  0  0  0  0  0  0  0
    8.1286  -14.7732   20.6186 C   0  0  1  0  0  0  0  0  0  0  0  0
    8.1878  -13.4222   21.3018 C   0  0  0  0  0  0  0  0  0  0  0  0
    8.2351  -12.0588   20.1258 S   0  0  0  0  0  0  0  0  0  0  0  0
    8.2604  -15.8018   21.6999 C   0  0  0  0  0  0  0  0  0  0  0  0
    7.2082  -16.2086   22.2196 O   0  0  0  0  0  0  0  0  0  0  0  0
    9.4987  -16.3107   22.1370 N   0  0  0  0  0  0  0  0  0  0  0  0
    9.6603  -17.3317   23.1375 C   0  0  1  0  0  0  0  0  0  0  0  0
   10.6677  -18.3288   22.6773 C   0  0  0  0  0  0  0  0  0  0  0  0
   10.6832  -19.4599   23.6354 C   0  0  0  0  0  0  0  0  0  0  0  0
    9.6702  -19.9933   24.1410 O   0  0  0  0  0  0  0  0  0  0  0  0
   10.0049  -16.6932   24.4260 C   0  0  0  0  0  0  0  0  0  0  0  0
   10.9594  -15.8770   24.4139 O   0  0  0  0  0  0  0  0  0  0  0  0
   11.9174  -20.0092   24.0363 O   0  0  0  0  0  0  0  0  0  0  0  0
    6.3376  -11.6456   24.2796 O   0  0  0  0  0  0  0  0  0  0  0  0
    6.8918  -12.6302   25.0920 C   0  0  0  0  0  0  0  0  0  0  0  0
    8.2550  -12.7410   25.2653 C   0  0  0  0  0  0  0  0  0  0  0  0
    8.8261  -13.7042   26.0619 C   0  0  0  0  0  0  0  0  0  0  0  0
    8.0303  -14.6240   26.7381 C   0  0  0  0  0  0  0  0  0  0  0  0
    8.5825  -15.6786   27.5894 C   0  0  0  0  0  0  0  0  0  0  0  0
    9.7093  -16.3807   26.9205 C   0  0  2  0  0  0  0  0  0  0  0  0
    9.3309  -16.9496   25.6376 N   0  0  0  0  0  0  0  0  0  0  0  0
   10.4044  -17.3978   27.7146 C   0  0  0  0  0  0  0  0  0  0  0  0
   10.8842  -17.0863   28.8423 O   0  0  0  0  0  0  0  0  0  0  0  0
    6.6578  -14.5114   26.5627 C   0  0  0  0  0  0  0  0  0  0  0  0
    6.1026  -13.5410   25.7616 C   0  0  0  0  0  0  0  0  0  0  0  0
   10.5987  -18.7194   27.3459 O   0  0  0  0  0  0  0  0  0  0  0  0
  2  3  1  0
  2  1  1  1
  4  3  1  0
  5  2  1  0
  6  5  2  0
  7  5  1  0
  8  7  1  0
  8  9  1  6
 10  9  1  0
 11 10  2  0
 12 22  1  0
 12  8  1  0
 13 12  2  0
 14 10  1  0
 16 15  1  0
 17 16  2  0
 18 17  1  0
 19 18  2  0
 19 25  1  0
 21 20  1  1
 20 19  1  0
 21 22  1  0
 23 27  1  0
 23 21  1  0
 24 23  2  0
 25 26  2  0
 26 16  1  0
M  END
$$$$
