WSR.pdb
     RDKit          3D

 32 33  0  0  1  0  0  0  0  0999 V2000
    7.9178  -16.9322   23.7552 N   0  0  0  0  0  0  0  0  0  0  0  0
    9.0247  -16.0286   23.9997 C   0  0  1  0  0  0  0  0  0  0  0  0
    9.0611  -15.5709   25.4368 C   0  0  0  0  0  0  0  0  0  0  0  0
    7.7814  -14.9734   25.8856 C   0  0  0  0  0  0  0  0  0  0  0  0
    6.5762  -15.5838   26.1538 C   0  0  0  0  0  0  0  0  0  0  0  0
    5.7058  -14.6319   26.5327 N   0  0  0  0  0  0  0  0  0  0  0  0
    6.2911  -13.4139   26.5249 C   0  0  0  0  0  0  0  0  0  0  0  0
    5.8104  -12.1660   26.8324 C   0  0  0  0  0  0  0  0  0  0  0  0
    6.6427  -11.0722   26.7392 C   0  0  0  0  0  0  0  0  0  0  0  0
    7.9374  -11.2659   26.3382 C   0  0  0  0  0  0  0  0  0  0  0  0
    8.4119  -12.5188   26.0317 C   0  0  0  0  0  0  0  0  0  0  0  0
    7.5934  -13.6301   26.1187 C   0  0  0  0  0  0  0  0  0  0  0  0
   10.3032  -16.6845   23.6567 C   0  0  0  0  0  0  0  0  0  0  0  0
   11.4279  -16.1683   23.8335 O   0  0  0  0  0  0  0  0  0  0  0  0
   10.3392  -20.4138   21.7364 O   0  0  0  0  0  0  0  0  0  0  0  0
   11.4933  -20.0776   22.4524 C   0  0  0  0  0  0  0  0  0  0  0  0
   11.5253  -18.5691   22.5408 C   0  0  2  0  0  0  0  0  0  0  0  0
   10.3303  -18.0036   23.0784 N   0  0  0  0  0  0  0  0  0  0  0  0
   11.8995  -17.9877   21.2217 C   0  0  0  0  0  0  0  0  0  0  0  0
   11.2271  -18.2299   20.1885 O   0  0  0  0  0  0  0  0  0  0  0  0
    9.3222  -14.3023   16.6350 N   0  0  0  0  0  0  0  0  0  0  0  0
    8.6160  -13.7705   17.7609 C   0  0  0  0  0  0  0  0  0  0  0  0
    7.4148  -13.3155   17.6553 N   0  0  0  0  0  0  0  0  0  0  0  0
    9.2179  -13.7218   19.0509 N   0  0  0  0  0  0  0  0  0  0  0  0
   10.5231  -13.2324   19.3351 C   0  0  0  0  0  0  0  0  0  0  0  0
   11.6376  -14.2016   19.0869 C   0  0  0  0  0  0  0  0  0  0  0  0
   11.7948  -15.2325   20.1450 C   0  0  0  0  0  0  0  0  0  0  0  0
   13.0244  -16.1003   20.0104 C   0  0  2  0  0  0  0  0  0  0  0  0
   13.0281  -17.1321   21.0557 N   0  0  0  0  0  0  0  0  0  0  0  0
   14.2953  -15.3744   20.1072 C   0  0  0  0  0  0  0  0  0  0  0  0
   14.9855  -15.3365   21.1562 O   0  0  0  0  0  0  0  0  0  0  0  0
   14.8010  -14.6839   19.0195 O   0  0  0  0  0  0  0  0  0  0  0  0
  2  1  1  1
  3  4  1  0
  3  2  1  0
  4  5  2  0
  6  5  1  0
  7  6  1  0
  8  7  2  0
  9  8  1  0
 10 11  1  0
 10  9  2  0
 11 12  2  0
 12  7  1  0
 12  4  1  0
 13  2  1  0
 13 14  2  0
 15 16  1  0
 17 16  1  6
 17 18  1  0
 18 13  1  0
 19 17  1  0
 20 19  2  0
 22 21  1  0
 22 23  2  0
 24 22  1  0
 25 24  1  0
 26 25  1  0
 27 26  1  0
 28 27  1  1
 28 29  1  0
 29 19  1  0
 30 32  1  0
 30 28  1  0
 31 30  2  0
M  END
$$$$
