WSR.pdb
     RDKit          3D

 32 33  0  0  1  0  0  0  0  0999 V2000
    9.4182  -16.5836   27.0720 N   0  0  0  0  0  0  0  0  0  0  0  0
    9.0492  -17.2926   25.8627 C   0  0  1  0  0  0  0  0  0  0  0  0
    8.2555  -16.4163   24.9254 C   0  0  0  0  0  0  0  0  0  0  0  0
    7.2413  -15.5924   25.6244 C   0  0  0  0  0  0  0  0  0  0  0  0
    6.0251  -15.9633   26.1538 C   0  0  0  0  0  0  0  0  0  0  0  0
    5.4571  -14.8696   26.6910 N   0  0  0  0  0  0  0  0  0  0  0  0
    6.2530  -13.7886   26.5362 C   0  0  0  0  0  0  0  0  0  0  0  0
    6.1007  -12.4787   26.9153 C   0  0  0  0  0  0  0  0  0  0  0  0
    7.0909  -11.5653   26.6269 C   0  0  0  0  0  0  0  0  0  0  0  0
    8.2081  -11.9973   25.9638 C   0  0  0  0  0  0  0  0  0  0  0  0
    8.3538  -13.3110   25.5871 C   0  0  0  0  0  0  0  0  0  0  0  0
    7.3721  -14.2440   25.8668 C   0  0  0  0  0  0  0  0  0  0  0  0
   10.2584  -17.7872   25.1728 C   0  0  0  0  0  0  0  0  0  0  0  0
   11.2355  -17.0704   24.8661 O   0  0  0  0  0  0  0  0  0  0  0  0
   10.3510  -21.6557   23.5666 O   0  0  0  0  0  0  0  0  0  0  0  0
   11.5931  -21.1422   23.9560 C   0  0  0  0  0  0  0  0  0  0  0  0
   11.4543  -19.6374   23.9741 C   0  0  2  0  0  0  0  0  0  0  0  0
   10.3873  -19.1727   24.8003 N   0  0  0  0  0  0  0  0  0  0  0  0
   11.3795  -19.1142   22.5817 C   0  0  0  0  0  0  0  0  0  0  0  0
   10.2893  -19.0727   21.9589 O   0  0  0  0  0  0  0  0  0  0  0  0
    8.3628  -12.5504   19.4718 N   0  0  0  0  0  0  0  0  0  0  0  0
    9.1383  -12.9905   18.3520 C   0  0  0  0  0  0  0  0  0  0  0  0
    9.0733  -12.4007   17.2078 N   0  0  0  0  0  0  0  0  0  0  0  0
   10.0174  -14.1061   18.4586 N   0  0  0  0  0  0  0  0  0  0  0  0
   10.1859  -14.9171   19.6152 C   0  0  0  0  0  0  0  0  0  0  0  0
   11.2433  -15.9722   19.5081 C   0  0  0  0  0  0  0  0  0  0  0  0
   11.3564  -16.8444   20.7055 C   0  0  0  0  0  0  0  0  0  0  0  0
   12.3713  -17.9576   20.5883 C   0  0  2  0  0  0  0  0  0  0  0  0
   12.5261  -18.6347   21.8825 N   0  0  0  0  0  0  0  0  0  0  0  0
   13.7049  -17.5228   20.1594 C   0  0  0  0  0  0  0  0  0  0  0  0
   14.6938  -17.4788   20.9330 O   0  0  0  0  0  0  0  0  0  0  0  0
   13.9363  -17.1337   18.8515 O   0  0  0  0  0  0  0  0  0  0  0  0
  2  1  1  1
  3  4  1  0
  3  2  1  0
  4  5  2  0
  6  5  1  0
  7  6  1  0
  8  7  2  0
  9  8  1  0
 10 11  1  0
 10  9  2  0
 11 12  2  0
 12  7  1  0
 12  4  1  0
 13  2  1  0
 13 14  2  0
 15 16  1  0
 17 16  1  6
 17 18  1  0
 18 13  1  0
 19 17  1  0
 20 19  2  0
 22 21  1  0
 22 23  2  0
 24 22  1  0
 25 24  1  0
 26 25  1  0
 27 26  1  0
 28 27  1  1
 28 29  1  0
 29 19  1  0
 30 32  1  0
 30 28  1  0
 31 30  2  0
M  END
$$$$
