WSR.pdb
     RDKit          3D

 32 33  0  0  1  0  0  0  0  0999 V2000
    8.3161  -17.9460   23.2853 N   0  0  0  0  0  0  0  0  0  0  0  0
    9.2777  -17.1686   22.5287 C   0  0  1  0  0  0  0  0  0  0  0  0
    9.4793  -15.7988   23.1281 C   0  0  0  0  0  0  0  0  0  0  0  0
    8.3692  -14.8657   22.8236 C   0  0  0  0  0  0  0  0  0  0  0  0
    7.2524  -14.5598   23.5696 C   0  0  0  0  0  0  0  0  0  0  0  0
    6.5309  -13.6570   22.8829 N   0  0  0  0  0  0  0  0  0  0  0  0
    7.1293  -13.3544   21.7097 C   0  0  0  0  0  0  0  0  0  0  0  0
    6.7755  -12.5002   20.6959 C   0  0  0  0  0  0  0  0  0  0  0  0
    7.5882  -12.3798   19.5901 C   0  0  0  0  0  0  0  0  0  0  0  0
    8.7361  -13.1242   19.5362 C   0  0  0  0  0  0  0  0  0  0  0  0
    9.0842  -13.9779   20.5555 C   0  0  0  0  0  0  0  0  0  0  0  0
    8.2827  -14.1136   21.6742 C   0  0  0  0  0  0  0  0  0  0  0  0
   10.5722  -17.8780   22.4688 C   0  0  0  0  0  0  0  0  0  0  0  0
   11.0340  -18.5775   23.3962 O   0  0  0  0  0  0  0  0  0  0  0  0
   13.1328  -17.0041   19.3052 O   0  0  0  0  0  0  0  0  0  0  0  0
   13.4479  -18.1882   19.9807 C   0  0  0  0  0  0  0  0  0  0  0  0
   12.8038  -18.0943   21.3448 C   0  0  2  0  0  0  0  0  0  0  0  0
   11.4075  -17.8030   21.2975 N   0  0  0  0  0  0  0  0  0  0  0  0
   13.5651  -17.1467   22.2053 C   0  0  0  0  0  0  0  0  0  0  0  0
   13.3550  -15.9091   22.1560 O   0  0  0  0  0  0  0  0  0  0  0  0
   10.4538  -17.2793   27.8024 N   0  0  0  0  0  0  0  0  0  0  0  0
   11.8213  -17.3373   28.2214 C   0  0  0  0  0  0  0  0  0  0  0  0
   12.1769  -17.9598   29.2925 N   0  0  0  0  0  0  0  0  0  0  0  0
   12.8497  -16.7038   27.4666 N   0  0  0  0  0  0  0  0  0  0  0  0
   12.6571  -15.6498   26.5307 C   0  0  0  0  0  0  0  0  0  0  0  0
   13.2878  -15.8626   25.1891 C   0  0  0  0  0  0  0  0  0  0  0  0
   14.6795  -16.3794   25.2458 C   0  0  0  0  0  0  0  0  0  0  0  0
   15.3318  -16.5997   23.9008 C   0  0  2  0  0  0  0  0  0  0  0  0
   14.5639  -17.5825   23.1250 N   0  0  0  0  0  0  0  0  0  0  0  0
   16.7163  -17.0795   23.9670 C   0  0  0  0  0  0  0  0  0  0  0  0
   17.0663  -18.2207   23.5753 O   0  0  0  0  0  0  0  0  0  0  0  0
   17.7210  -16.2749   24.4757 O   0  0  0  0  0  0  0  0  0  0  0  0
  2  1  1  1
  3  4  1  0
  3  2  1  0
  4  5  2  0
  6  5  1  0
  7  6  1  0
  8  7  2  0
  9  8  1  0
 10 11  1  0
 10  9  2  0
 11 12  2  0
 12  7  1  0
 12  4  1  0
 13  2  1  0
 13 14  2  0
 15 16  1  0
 17 16  1  6
 17 18  1  0
 18 13  1  0
 19 17  1  0
 20 19  2  0
 22 21  1  0
 22 23  2  0
 24 22  1  0
 25 24  1  0
 26 25  1  0
 27 26  1  0
 28 27  1  1
 28 29  1  0
 29 19  1  0
 30 32  1  0
 30 28  1  0
 31 30  2  0
M  END
$$$$
