WSR.pdb
     RDKit          3D

 32 33  0  0  1  0  0  0  0  0999 V2000
    6.0703  -17.6041   25.3267 N   0  0  0  0  0  0  0  0  0  0  0  0
    7.2503  -16.8793   24.8980 C   0  0  1  0  0  0  0  0  0  0  0  0
    7.7557  -15.9534   25.9767 C   0  0  0  0  0  0  0  0  0  0  0  0
    7.1722  -14.5939   25.8913 C   0  0  0  0  0  0  0  0  0  0  0  0
    6.1486  -14.0326   26.6224 C   0  0  0  0  0  0  0  0  0  0  0  0
    5.9730  -12.7725   26.1882 N   0  0  0  0  0  0  0  0  0  0  0  0
    6.8430  -12.4795   25.1965 C   0  0  0  0  0  0  0  0  0  0  0  0
    7.0395  -11.3390   24.4592 C   0  0  0  0  0  0  0  0  0  0  0  0
    8.0197  -11.3124   23.4916 C   0  0  0  0  0  0  0  0  0  0  0  0
    8.7755  -12.4367   23.2932 C   0  0  0  0  0  0  0  0  0  0  0  0
    8.5730  -13.5756   24.0354 C   0  0  0  0  0  0  0  0  0  0  0  0
    7.5947  -13.6235   25.0116 C   0  0  0  0  0  0  0  0  0  0  0  0
    8.3191  -17.8254   24.5172 C   0  0  0  0  0  0  0  0  0  0  0  0
    8.5318  -18.9146   25.0927 O   0  0  0  0  0  0  0  0  0  0  0  0
   11.1659  -16.6761   21.7547 O   0  0  0  0  0  0  0  0  0  0  0  0
   10.9663  -18.0607   21.7822 C   0  0  0  0  0  0  0  0  0  0  0  0
   10.3205  -18.3798   23.1109 C   0  0  2  0  0  0  0  0  0  0  0  0
    9.2101  -17.5389   23.4221 N   0  0  0  0  0  0  0  0  0  0  0  0
   11.3498  -18.4029   24.1870 C   0  0  0  0  0  0  0  0  0  0  0  0
   11.5537  -17.3998   24.9153 O   0  0  0  0  0  0  0  0  0  0  0  0
   13.3890  -20.8745   30.6725 N   0  0  0  0  0  0  0  0  0  0  0  0
   12.5741  -21.8993   30.0937 C   0  0  0  0  0  0  0  0  0  0  0  0
   11.5054  -22.3253   30.6746 N   0  0  0  0  0  0  0  0  0  0  0  0
   12.9155  -22.4934   28.8450 N   0  0  0  0  0  0  0  0  0  0  0  0
   14.1040  -22.2372   28.1062 C   0  0  0  0  0  0  0  0  0  0  0  0
   14.1344  -20.9295   27.3770 C   0  0  0  0  0  0  0  0  0  0  0  0
   13.0708  -20.7800   26.3505 C   0  0  0  0  0  0  0  0  0  0  0  0
   13.1563  -19.5177   25.5246 C   0  0  2  0  0  0  0  0  0  0  0  0
   12.1538  -19.5505   24.4516 N   0  0  0  0  0  0  0  0  0  0  0  0
   14.4620  -19.2882   24.8970 C   0  0  0  0  0  0  0  0  0  0  0  0
   14.7551  -19.7082   23.7499 O   0  0  0  0  0  0  0  0  0  0  0  0
   15.4509  -18.5808   25.5582 O   0  0  0  0  0  0  0  0  0  0  0  0
  2  1  1  1
  3  4  1  0
  3  2  1  0
  4  5  2  0
  6  5  1  0
  7  6  1  0
  8  7  2  0
  9  8  1  0
 10 11  1  0
 10  9  2  0
 11 12  2  0
 12  7  1  0
 12  4  1  0
 13  2  1  0
 13 14  2  0
 15 16  1  0
 17 16  1  6
 17 18  1  0
 18 13  1  0
 19 17  1  0
 20 19  2  0
 22 21  1  0
 22 23  2  0
 24 22  1  0
 25 24  1  0
 26 25  1  0
 27 26  1  0
 28 27  1  6
 28 29  1  0
 29 19  1  0
 30 32  1  0
 30 28  1  0
 31 30  2  0
M  END
$$$$
