WSR.pdb
     RDKit          3D

 32 33  0  0  1  0  0  0  0  0999 V2000
    9.0211  -14.5546   23.0536 N   0  0  0  0  0  0  0  0  0  0  0  0
    9.3464  -15.5969   22.1001 C   0  0  1  0  0  0  0  0  0  0  0  0
   10.2854  -15.0976   21.0300 C   0  0  0  0  0  0  0  0  0  0  0  0
    9.7034  -14.0062   20.2138 C   0  0  0  0  0  0  0  0  0  0  0  0
    9.9113  -12.6469   20.2927 C   0  0  0  0  0  0  0  0  0  0  0  0
    9.1649  -12.0585   19.3419 N   0  0  0  0  0  0  0  0  0  0  0  0
    8.4706  -12.9788   18.6368 C   0  0  0  0  0  0  0  0  0  0  0  0
    7.5949  -12.8575   17.5875 C   0  0  0  0  0  0  0  0  0  0  0  0
    7.0200  -13.9856   17.0445 C   0  0  0  0  0  0  0  0  0  0  0  0
    7.3436  -15.2059   17.5743 C   0  0  0  0  0  0  0  0  0  0  0  0
    8.2215  -15.3199   18.6256 C   0  0  0  0  0  0  0  0  0  0  0  0
    8.8098  -14.2004   19.1852 C   0  0  0  0  0  0  0  0  0  0  0  0
    9.9554  -16.7503   22.7940 C   0  0  0  0  0  0  0  0  0  0  0  0
   10.5733  -16.6725   23.8778 O   0  0  0  0  0  0  0  0  0  0  0  0
    9.8886  -20.4287   20.9610 O   0  0  0  0  0  0  0  0  0  0  0  0
   10.0829  -20.5263   22.3432 C   0  0  0  0  0  0  0  0  0  0  0  0
   10.5843  -19.1782   22.8073 C   0  0  2  0  0  0  0  0  0  0  0  0
    9.8700  -18.0788   22.2435 N   0  0  0  0  0  0  0  0  0  0  0  0
   12.0559  -19.0812   22.5999 C   0  0  0  0  0  0  0  0  0  0  0  0
   12.5359  -18.7192   21.4968 O   0  0  0  0  0  0  0  0  0  0  0  0
   12.8723  -16.3792   18.6231 N   0  0  0  0  0  0  0  0  0  0  0  0
   13.2259  -15.2389   19.4130 C   0  0  0  0  0  0  0  0  0  0  0  0
   12.9492  -14.0386   19.0338 N   0  0  0  0  0  0  0  0  0  0  0  0
   13.9034  -15.3871   20.6571 N   0  0  0  0  0  0  0  0  0  0  0  0
   13.6947  -16.4402   21.5906 C   0  0  0  0  0  0  0  0  0  0  0  0
   14.9394  -17.0985   22.1009 C   0  0  0  0  0  0  0  0  0  0  0  0
   14.7862  -17.7420   23.4312 C   0  0  0  0  0  0  0  0  0  0  0  0
   14.4335  -19.2106   23.3908 C   0  0  2  0  0  0  0  0  0  0  0  0
   12.9949  -19.3885   23.6281 N   0  0  0  0  0  0  0  0  0  0  0  0
   15.1446  -20.0346   24.3741 C   0  0  0  0  0  0  0  0  0  0  0  0
   14.7009  -20.2628   25.5271 O   0  0  0  0  0  0  0  0  0  0  0  0
   16.3644  -20.6109   24.0653 O   0  0  0  0  0  0  0  0  0  0  0  0
  2  1  1  1
  3  4  1  0
  3  2  1  0
  4  5  2  0
  6  5  1  0
  7  6  1  0
  8  7  2  0
  9  8  1  0
 10 11  1  0
 10  9  2  0
 11 12  2  0
 12  7  1  0
 12  4  1  0
 13  2  1  0
 13 14  2  0
 15 16  1  0
 17 16  1  6
 17 18  1  0
 18 13  1  0
 19 17  1  0
 20 19  2  0
 22 21  1  0
 22 23  2  0
 24 22  1  0
 25 24  1  0
 26 25  1  0
 27 26  1  0
 28 27  1  1
 28 29  1  0
 29 19  1  0
 30 32  1  0
 30 28  1  0
 31 30  2  0
M  END
$$$$
