WSR.pdb
     RDKit          3D

 32 33  0  0  1  0  0  0  0  0999 V2000
    6.2075  -17.3315   23.8724 N   0  0  0  0  0  0  0  0  0  0  0  0
    7.4214  -16.5406   23.9204 C   0  0  1  0  0  0  0  0  0  0  0  0
    7.7424  -16.1007   25.3275 C   0  0  0  0  0  0  0  0  0  0  0  0
    6.8392  -15.0339   25.8195 C   0  0  0  0  0  0  0  0  0  0  0  0
    5.6559  -15.1404   26.5163 C   0  0  0  0  0  0  0  0  0  0  0  0
    5.1968  -13.8976   26.7442 N   0  0  0  0  0  0  0  0  0  0  0  0
    6.0331  -12.9726   26.2236 C   0  0  0  0  0  0  0  0  0  0  0  0
    5.9853  -11.6014   26.2087 C   0  0  0  0  0  0  0  0  0  0  0  0
    6.9942  -10.8900   25.5971 C   0  0  0  0  0  0  0  0  0  0  0  0
    8.0241  -11.5805   25.0166 C   0  0  0  0  0  0  0  0  0  0  0  0
    8.0654  -12.9542   25.0352 C   0  0  0  0  0  0  0  0  0  0  0  0
    7.0631  -13.6874   25.6439 C   0  0  0  0  0  0  0  0  0  0  0  0
    8.5551  -17.3137   23.3729 C   0  0  0  0  0  0  0  0  0  0  0  0
    8.8438  -18.4795   23.7197 O   0  0  0  0  0  0  0  0  0  0  0  0
   11.1210  -15.4325   20.7943 O   0  0  0  0  0  0  0  0  0  0  0  0
   11.2400  -16.8244   20.7154 C   0  0  0  0  0  0  0  0  0  0  0  0
   10.6442  -17.3838   21.9868 C   0  0  2  0  0  0  0  0  0  0  0  0
    9.4248  -16.7502   22.3722 N   0  0  0  0  0  0  0  0  0  0  0  0
   11.6646  -17.3861   23.0716 C   0  0  0  0  0  0  0  0  0  0  0  0
   11.9303  -16.3424   23.7183 O   0  0  0  0  0  0  0  0  0  0  0  0
   13.9305  -20.1030   28.7184 N   0  0  0  0  0  0  0  0  0  0  0  0
   12.5865  -20.2718   29.1815 C   0  0  0  0  0  0  0  0  0  0  0  0
   12.2763  -20.1421   30.4257 N   0  0  0  0  0  0  0  0  0  0  0  0
   11.5323  -20.5933   28.2793 N   0  0  0  0  0  0  0  0  0  0  0  0
   11.6898  -20.8866   26.8962 C   0  0  0  0  0  0  0  0  0  0  0  0
   11.8958  -19.6972   26.0096 C   0  0  0  0  0  0  0  0  0  0  0  0
   13.2757  -19.5689   25.4741 C   0  0  0  0  0  0  0  0  0  0  0  0
   13.4588  -18.4816   24.4410 C   0  0  2  0  0  0  0  0  0  0  0  0
   12.3902  -18.5582   23.4363 N   0  0  0  0  0  0  0  0  0  0  0  0
   14.7378  -18.5319   23.7246 C   0  0  0  0  0  0  0  0  0  0  0  0
   14.8914  -19.1419   22.6372 O   0  0  0  0  0  0  0  0  0  0  0  0
   15.8572  -17.8927   24.2284 O   0  0  0  0  0  0  0  0  0  0  0  0
  2  1  1  1
  3  4  1  0
  3  2  1  0
  4  5  2  0
  6  5  1  0
  7  6  1  0
  8  7  2  0
  9  8  1  0
 10 11  1  0
 10  9  2  0
 11 12  2  0
 12  7  1  0
 12  4  1  0
 13  2  1  0
 13 14  2  0
 15 16  1  0
 17 16  1  6
 17 18  1  0
 18 13  1  0
 19 17  1  0
 20 19  2  0
 22 21  1  0
 22 23  2  0
 24 22  1  0
 25 24  1  0
 26 25  1  0
 27 26  1  0
 28 27  1  1
 28 29  1  0
 29 19  1  0
 30 32  1  0
 30 28  1  0
 31 30  2  0
M  END
$$$$
