WSR.pdb
     RDKit          3D

 32 33  0  0  1  0  0  0  0  0999 V2000
    6.4481  -17.7644   24.8082 N   0  0  0  0  0  0  0  0  0  0  0  0
    7.2657  -16.8479   24.0381 C   0  0  1  0  0  0  0  0  0  0  0  0
    8.1078  -15.9704   24.9310 C   0  0  0  0  0  0  0  0  0  0  0  0
    7.3151  -14.9398   25.6421 C   0  0  0  0  0  0  0  0  0  0  0  0
    6.4009  -15.0870   26.6616 C   0  0  0  0  0  0  0  0  0  0  0  0
    5.9407  -13.8657   26.9840 N   0  0  0  0  0  0  0  0  0  0  0  0
    6.5171  -12.9157   26.2149 C   0  0  0  0  0  0  0  0  0  0  0  0
    6.3680  -11.5521   26.1801 C   0  0  0  0  0  0  0  0  0  0  0  0
    7.0973  -10.8088   25.2783 C   0  0  0  0  0  0  0  0  0  0  0  0
    7.9574  -11.4604   24.4355 C   0  0  0  0  0  0  0  0  0  0  0  0
    8.1016  -12.8266   24.4760 C   0  0  0  0  0  0  0  0  0  0  0  0
    7.3792  -13.5915   25.3736 C   0  0  0  0  0  0  0  0  0  0  0  0
    8.1409  -17.5986   23.1145 C   0  0  0  0  0  0  0  0  0  0  0  0
    8.5579  -18.7577   23.3273 O   0  0  0  0  0  0  0  0  0  0  0  0
   10.2813  -15.8251   19.8022 O   0  0  0  0  0  0  0  0  0  0  0  0
    9.6377  -17.0583   19.6515 C   0  0  0  0  0  0  0  0  0  0  0  0
    9.5360  -17.6664   21.0314 C   0  0  2  0  0  0  0  0  0  0  0  0
    8.5803  -17.0193   21.8710 N   0  0  0  0  0  0  0  0  0  0  0  0
   10.8870  -17.7550   21.6517 C   0  0  0  0  0  0  0  0  0  0  0  0
   11.3237  -16.8414   22.3953 O   0  0  0  0  0  0  0  0  0  0  0  0
   13.7870  -23.1496   16.8945 N   0  0  0  0  0  0  0  0  0  0  0  0
   13.4803  -22.6253   18.1908 C   0  0  0  0  0  0  0  0  0  0  0  0
   12.3956  -21.9673   18.4173 N   0  0  0  0  0  0  0  0  0  0  0  0
   14.3689  -22.8104   19.2884 N   0  0  0  0  0  0  0  0  0  0  0  0
   14.1710  -22.3082   20.6047 C   0  0  0  0  0  0  0  0  0  0  0  0
   13.6728  -20.8981   20.6831 C   0  0  0  0  0  0  0  0  0  0  0  0
   13.5815  -20.3605   22.0651 C   0  0  0  0  0  0  0  0  0  0  0  0
   13.0272  -18.9587   22.1674 C   0  0  2  0  0  0  0  0  0  0  0  0
   11.7533  -18.8680   21.4418 N   0  0  0  0  0  0  0  0  0  0  0  0
   13.9095  -17.9149   21.6351 C   0  0  0  0  0  0  0  0  0  0  0  0
   13.6910  -17.3191   20.5508 O   0  0  0  0  0  0  0  0  0  0  0  0
   15.0482  -17.5319   22.3223 O   0  0  0  0  0  0  0  0  0  0  0  0
  2  1  1  1
  3  4  1  0
  3  2  1  0
  4  5  2  0
  6  5  1  0
  7  6  1  0
  8  7  2  0
  9  8  1  0
 10 11  1  0
 10  9  2  0
 11 12  2  0
 12  7  1  0
 12  4  1  0
 13  2  1  0
 13 14  2  0
 15 16  1  0
 17 16  1  6
 17 18  1  0
 18 13  1  0
 19 17  1  0
 20 19  2  0
 22 21  1  0
 22 23  2  0
 24 22  1  0
 25 24  1  0
 26 25  1  0
 27 26  1  0
 28 27  1  6
 28 29  1  0
 29 19  1  0
 30 32  1  0
 30 28  1  0
 31 30  2  0
M  END
$$$$
