WSR.pdb
     RDKit          3D

 32 33  0  0  1  0  0  0  0  0999 V2000
    6.7400  -17.5842   23.9951 N   0  0  0  0  0  0  0  0  0  0  0  0
    7.5259  -16.4758   23.4899 C   0  0  1  0  0  0  0  0  0  0  0  0
    8.1637  -15.6913   24.6097 C   0  0  0  0  0  0  0  0  0  0  0  0
    7.1818  -14.9179   25.4057 C   0  0  0  0  0  0  0  0  0  0  0  0
    6.1188  -15.3646   26.1592 C   0  0  0  0  0  0  0  0  0  0  0  0
    5.5158  -14.2920   26.7005 N   0  0  0  0  0  0  0  0  0  0  0  0
    6.1409  -13.1517   26.3327 C   0  0  0  0  0  0  0  0  0  0  0  0
    5.8940  -11.8356   26.6322 C   0  0  0  0  0  0  0  0  0  0  0  0
    6.7084  -10.8533   26.1130 C   0  0  0  0  0  0  0  0  0  0  0  0
    7.7499  -11.2244   25.3053 C   0  0  0  0  0  0  0  0  0  0  0  0
    7.9911  -12.5447   25.0095 C   0  0  0  0  0  0  0  0  0  0  0  0
    7.1860  -13.5464   25.5203 C   0  0  0  0  0  0  0  0  0  0  0  0
    8.5735  -16.9701   22.5729 C   0  0  0  0  0  0  0  0  0  0  0  0
    9.0055  -18.1431   22.5662 O   0  0  0  0  0  0  0  0  0  0  0  0
    8.9983  -15.7908   19.1364 O   0  0  0  0  0  0  0  0  0  0  0  0
   10.3081  -16.1959   19.4160 C   0  0  0  0  0  0  0  0  0  0  0  0
   10.3734  -16.4578   20.9031 C   0  0  2  0  0  0  0  0  0  0  0  0
    9.1797  -16.0994   21.5985 N   0  0  0  0  0  0  0  0  0  0  0  0
   11.5924  -15.8262   21.4802 C   0  0  0  0  0  0  0  0  0  0  0  0
   12.4336  -15.2458   20.7497 O   0  0  0  0  0  0  0  0  0  0  0  0
   11.7595  -19.6545   28.5962 N   0  0  0  0  0  0  0  0  0  0  0  0
   12.8990  -18.9410   28.1047 C   0  0  0  0  0  0  0  0  0  0  0  0
   13.8522  -18.5639   28.8859 N   0  0  0  0  0  0  0  0  0  0  0  0
   13.0243  -18.6162   26.7235 N   0  0  0  0  0  0  0  0  0  0  0  0
   13.4285  -19.5149   25.6974 C   0  0  0  0  0  0  0  0  0  0  0  0
   13.5376  -18.9158   24.3291 C   0  0  0  0  0  0  0  0  0  0  0  0
   12.4890  -17.9099   24.0196 C   0  0  0  0  0  0  0  0  0  0  0  0
   12.9982  -16.6311   23.3963 C   0  0  2  0  0  0  0  0  0  0  0  0
   11.8729  -15.8420   22.8783 N   0  0  0  0  0  0  0  0  0  0  0  0
   13.9417  -16.8266   22.2903 C   0  0  0  0  0  0  0  0  0  0  0  0
   13.7403  -17.6372   21.3520 O   0  0  0  0  0  0  0  0  0  0  0  0
   15.1228  -16.1076   22.2319 O   0  0  0  0  0  0  0  0  0  0  0  0
  2  1  1  1
  3  4  1  0
  3  2  1  0
  4  5  2  0
  6  5  1  0
  7  6  1  0
  8  7  2  0
  9  8  1  0
 10 11  1  0
 10  9  2  0
 11 12  2  0
 12  7  1  0
 12  4  1  0
 13  2  1  0
 13 14  2  0
 15 16  1  0
 17 16  1  6
 17 18  1  0
 18 13  1  0
 19 17  1  0
 20 19  2  0
 22 21  1  0
 22 23  2  0
 24 22  1  0
 25 24  1  0
 26 25  1  0
 27 26  1  0
 28 27  1  6
 28 29  1  0
 29 19  1  0
 30 32  1  0
 30 28  1  0
 31 30  2  0
M  END
$$$$
