MQW.pdb
     RDKit          3D

 32 33  0  0  1  0  0  0  0  0999 V2000
   30.6907  -18.1198  -15.4161 C   0  0  0  0  0  0  0  0  0  0  0  0
   30.5680  -17.1381  -16.9040 S   0  0  0  0  0  0  0  0  0  0  0  0
   28.9376  -16.7156  -17.4379 C   0  0  0  0  0  0  0  0  0  0  0  0
   27.8496  -17.5839  -16.9336 C   0  0  0  0  0  0  0  0  0  0  0  0
   27.2818  -18.5187  -17.9264 C   0  0  2  0  0  0  0  0  0  0  0  0
   26.4882  -17.8164  -18.9358 N   0  0  0  0  0  0  0  0  0  0  0  0
   26.2649  -19.4070  -17.2267 C   0  0  0  0  0  0  0  0  0  0  0  0
   25.1577  -18.8523  -16.9092 O   0  0  0  0  0  0  0  0  0  0  0  0
   25.7606  -25.5926  -17.8328 N   0  0  0  0  0  0  0  0  0  0  0  0
   25.9957  -25.3549  -16.4645 C   0  0  0  0  0  0  0  0  0  0  0  0
   26.2760  -26.3154  -15.7191 O   0  0  0  0  0  0  0  0  0  0  0  0
   25.9131  -24.0064  -15.9258 C   0  0  0  0  0  0  0  0  0  0  0  0
   25.6425  -22.9162  -16.8823 C   0  0  0  0  0  0  0  0  0  0  0  0
   25.4940  -21.5278  -16.2763 C   0  0  2  0  0  0  0  0  0  0  0  0
   26.5563  -20.7541  -16.9603 N   0  0  0  0  0  0  0  0  0  0  0  0
   25.8486  -21.4967  -14.8400 C   0  0  0  0  0  0  0  0  0  0  0  0
   27.0623  -21.5681  -14.4308 O   0  0  0  0  0  0  0  0  0  0  0  0
   24.9061  -21.3845  -13.7734 N   0  0  0  0  0  0  0  0  0  0  0  0
   25.2917  -21.3126  -12.3804 C   0  0  1  0  0  0  0  0  0  0  0  0
   26.1160  -20.0916  -12.0636 C   0  0  0  0  0  0  0  0  0  0  0  0
   26.3610  -19.9889  -10.6320 C   0  0  0  0  0  0  0  0  0  0  0  0
   25.4412  -19.5431   -9.6975 C   0  0  0  0  0  0  0  0  0  0  0  0
   26.0445  -19.5701   -8.5204 N   0  0  0  0  0  0  0  0  0  0  0  0
   27.2996  -20.0086   -8.6446 C   0  0  0  0  0  0  0  0  0  0  0  0
   28.2965  -20.2183   -7.7242 C   0  0  0  0  0  0  0  0  0  0  0  0
   29.5450  -20.7096   -8.1205 C   0  0  0  0  0  0  0  0  0  0  0  0
   29.7206  -20.9662   -9.4449 C   0  0  0  0  0  0  0  0  0  0  0  0
   28.7361  -20.7623  -10.3825 C   0  0  0  0  0  0  0  0  0  0  0  0
   27.5160  -20.2763   -9.9599 C   0  0  0  0  0  0  0  0  0  0  0  0
   24.0718  -21.4016  -11.5627 C   0  0  0  0  0  0  0  0  0  0  0  0
   22.9772  -21.0183  -12.0381 O   0  0  0  0  0  0  0  0  0  0  0  0
   24.0905  -21.8972  -10.2787 O   0  0  0  0  0  0  0  0  0  0  0  0
  2  1  1  0
  3  2  1  0
  4  3  1  0
  4  5  1  0
  5  7  1  0
  5  6  1  6
  7  8  2  0
 10 12  1  0
 10  9  1  0
 11 10  2  0
 14 13  1  6
 13 12  1  0
 15 14  1  0
 15  7  1  0
 16 17  2  0
 16 14  1  0
 18 16  1  0
 19 30  1  0
 19 18  1  0
 19 20  1  6
 21 29  1  0
 21 20  1  0
 22 21  2  0
 23 22  1  0
 23 24  1  0
 24 29  2  0
 25 24  1  0
 25 26  2  0
 26 27  1  0
 27 28  2  0
 29 28  1  0
 30 32  1  0
 31 30  2  0
M  END
$$$$
