MQW.pdb
     RDKit          3D

 32 33  0  0  1  0  0  0  0  0999 V2000
   27.9287  -12.8878  -16.0718 C   0  0  0  0  0  0  0  0  0  0  0  0
   27.5842  -14.6400  -16.1333 S   0  0  0  0  0  0  0  0  0  0  0  0
   26.0446  -15.1658  -15.4441 C   0  0  0  0  0  0  0  0  0  0  0  0
   25.8018  -16.6262  -15.4501 C   0  0  0  0  0  0  0  0  0  0  0  0
   26.1296  -17.3114  -16.7169 C   0  0  2  0  0  0  0  0  0  0  0  0
   25.1111  -17.0696  -17.7397 N   0  0  0  0  0  0  0  0  0  0  0  0
   26.0555  -18.8129  -16.4868 C   0  0  0  0  0  0  0  0  0  0  0  0
   24.9020  -19.3467  -16.6244 O   0  0  0  0  0  0  0  0  0  0  0  0
   30.7628  -22.9435  -16.6767 N   0  0  0  0  0  0  0  0  0  0  0  0
   29.6865  -23.6963  -16.1680 C   0  0  0  0  0  0  0  0  0  0  0  0
   29.8337  -24.9215  -15.9840 O   0  0  0  0  0  0  0  0  0  0  0  0
   28.4181  -23.0544  -15.8606 C   0  0  0  0  0  0  0  0  0  0  0  0
   28.2903  -21.6236  -16.1974 C   0  0  0  0  0  0  0  0  0  0  0  0
   26.9920  -20.9569  -15.7649 C   0  0  2  0  0  0  0  0  0  0  0  0
   27.2059  -19.5410  -16.1450 N   0  0  0  0  0  0  0  0  0  0  0  0
   26.8233  -20.9478  -14.2948 C   0  0  0  0  0  0  0  0  0  0  0  0
   27.8124  -20.8013  -13.4913 O   0  0  0  0  0  0  0  0  0  0  0  0
   25.5736  -21.0948  -13.6202 N   0  0  0  0  0  0  0  0  0  0  0  0
   25.4405  -21.0444  -12.1801 C   0  0  1  0  0  0  0  0  0  0  0  0
   26.1909  -19.8925  -11.5629 C   0  0  0  0  0  0  0  0  0  0  0  0
   27.3521  -20.3671  -10.8238 C   0  0  0  0  0  0  0  0  0  0  0  0
   28.4607  -20.9751  -11.3889 C   0  0  0  0  0  0  0  0  0  0  0  0
   29.2790  -21.2829  -10.3958 N   0  0  0  0  0  0  0  0  0  0  0  0
   28.7600  -20.9067   -9.2245 C   0  0  0  0  0  0  0  0  0  0  0  0
   29.2302  -20.9981   -7.9377 C   0  0  0  0  0  0  0  0  0  0  0  0
   28.4815  -20.5020   -6.8651 C   0  0  0  0  0  0  0  0  0  0  0  0
   27.2808  -19.9321   -7.1554 C   0  0  0  0  0  0  0  0  0  0  0  0
   26.7916  -19.8316   -8.4362 C   0  0  0  0  0  0  0  0  0  0  0  0
   27.5536  -20.3309   -9.4723 C   0  0  0  0  0  0  0  0  0  0  0  0
   24.0061  -21.0274  -11.8534 C   0  0  0  0  0  0  0  0  0  0  0  0
   23.6434  -20.9194  -10.6584 O   0  0  0  0  0  0  0  0  0  0  0  0
   23.0368  -21.1270  -12.8256 O   0  0  0  0  0  0  0  0  0  0  0  0
  2  1  1  0
  3  2  1  0
  4  3  1  0
  4  5  1  0
  5  7  1  0
  5  6  1  6
  7  8  2  0
 10 12  1  0
 10  9  1  0
 11 10  2  0
 14 13  1  1
 13 12  1  0
 15 14  1  0
 15  7  1  0
 16 17  2  0
 16 14  1  0
 18 16  1  0
 19 30  1  0
 19 18  1  0
 19 20  1  6
 21 29  1  0
 21 20  1  0
 22 21  2  0
 23 22  1  0
 23 24  1  0
 24 29  2  0
 25 24  1  0
 25 26  2  0
 26 27  1  0
 27 28  2  0
 29 28  1  0
 30 32  1  0
 31 30  2  0
M  END
$$$$
