MQW.pdb
     RDKit          3D

 32 33  0  0  1  0  0  0  0  0999 V2000
   28.4407  -15.5043  -17.7895 C   0  0  0  0  0  0  0  0  0  0  0  0
   27.5543  -16.7078  -16.8106 S   0  0  0  0  0  0  0  0  0  0  0  0
   27.6799  -18.3924  -17.3282 C   0  0  0  0  0  0  0  0  0  0  0  0
   26.8607  -19.3628  -16.5672 C   0  0  0  0  0  0  0  0  0  0  0  0
   26.2643  -18.8391  -15.3214 C   0  0  2  0  0  0  0  0  0  0  0  0
   27.2791  -18.6142  -14.2911 N   0  0  0  0  0  0  0  0  0  0  0  0
   25.3775  -19.9184  -14.7199 C   0  0  0  0  0  0  0  0  0  0  0  0
   24.5929  -20.5184  -15.5315 O   0  0  0  0  0  0  0  0  0  0  0  0
   25.2439  -20.5982   -8.8673 N   0  0  0  0  0  0  0  0  0  0  0  0
   26.3496  -20.4216   -9.7219 C   0  0  0  0  0  0  0  0  0  0  0  0
   27.3769  -19.8671   -9.2815 O   0  0  0  0  0  0  0  0  0  0  0  0
   26.2958  -20.8796  -11.1012 C   0  0  0  0  0  0  0  0  0  0  0  0
   25.0972  -21.6357  -11.5117 C   0  0  0  0  0  0  0  0  0  0  0  0
   24.5077  -21.2563  -12.8628 C   0  0  2  0  0  0  0  0  0  0  0  0
   25.4419  -20.2143  -13.3492 N   0  0  0  0  0  0  0  0  0  0  0  0
   23.1967  -20.5812  -12.7386 C   0  0  0  0  0  0  0  0  0  0  0  0
   22.9666  -19.6874  -11.8477 O   0  0  0  0  0  0  0  0  0  0  0  0
   22.0685  -20.8388  -13.5748 N   0  0  0  0  0  0  0  0  0  0  0  0
   20.7982  -20.1628  -13.4209 C   0  0  1  0  0  0  0  0  0  0  0  0
   20.8321  -18.7361  -13.9048 C   0  0  0  0  0  0  0  0  0  0  0  0
   21.0838  -18.6808  -15.3378 C   0  0  0  0  0  0  0  0  0  0  0  0
   20.3079  -19.2959  -16.3061 C   0  0  0  0  0  0  0  0  0  0  0  0
   20.8727  -19.0365  -17.4741 N   0  0  0  0  0  0  0  0  0  0  0  0
   21.9671  -18.2888  -17.3120 C   0  0  0  0  0  0  0  0  0  0  0  0
   22.8649  -17.7649  -18.2090 C   0  0  0  0  0  0  0  0  0  0  0  0
   23.9412  -16.9851  -17.7721 C   0  0  0  0  0  0  0  0  0  0  0  0
   24.0531  -16.7740  -16.4329 C   0  0  0  0  0  0  0  0  0  0  0  0
   23.1659  -17.2901  -15.5183 C   0  0  0  0  0  0  0  0  0  0  0  0
   22.1154  -18.0556  -15.9808 C   0  0  0  0  0  0  0  0  0  0  0  0
   19.7674  -20.9667  -14.0959 C   0  0  0  0  0  0  0  0  0  0  0  0
   20.1098  -21.9068  -14.8509 O   0  0  0  0  0  0  0  0  0  0  0  0
   18.4240  -20.7199  -13.9252 O   0  0  0  0  0  0  0  0  0  0  0  0
  2  1  1  0
  3  2  1  0
  4  3  1  0
  4  5  1  0
  5  7  1  0
  5  6  1  1
  7  8  2  0
 10 12  1  0
 10  9  1  0
 11 10  2  0
 14 13  1  1
 13 12  1  0
 15 14  1  0
 15  7  1  0
 16 17  2  0
 16 14  1  0
 18 16  1  0
 19 30  1  0
 19 18  1  0
 19 20  1  6
 21 29  1  0
 21 20  1  0
 22 21  2  0
 23 22  1  0
 23 24  1  0
 24 29  2  0
 25 24  1  0
 25 26  2  0
 26 27  1  0
 27 28  2  0
 29 28  1  0
 30 32  1  0
 31 30  2  0
M  END
$$$$
