MQW.pdb
     RDKit          3D

 32 33  0  0  1  0  0  0  0  0999 V2000
   24.3288  -18.5329  -16.0667 C   0  0  0  0  0  0  0  0  0  0  0  0
   23.1331  -19.7071  -15.4470 S   0  0  0  0  0  0  0  0  0  0  0  0
   21.8083  -19.0485  -14.4811 C   0  0  0  0  0  0  0  0  0  0  0  0
   20.7097  -19.9902  -14.1680 C   0  0  0  0  0  0  0  0  0  0  0  0
   21.1404  -21.3215  -13.6945 C   0  0  2  0  0  0  0  0  0  0  0  0
   21.6007  -22.1636  -14.7994 N   0  0  0  0  0  0  0  0  0  0  0  0
   19.9229  -22.0623  -13.1637 C   0  0  0  0  0  0  0  0  0  0  0  0
   19.1412  -22.5622  -14.0431 O   0  0  0  0  0  0  0  0  0  0  0  0
   19.1784  -24.0596   -7.2312 N   0  0  0  0  0  0  0  0  0  0  0  0
   17.9497  -24.3757   -7.8433 C   0  0  0  0  0  0  0  0  0  0  0  0
   17.0717  -24.9623   -7.1788 O   0  0  0  0  0  0  0  0  0  0  0  0
   17.7063  -24.0231   -9.2332 C   0  0  0  0  0  0  0  0  0  0  0  0
   18.7942  -23.3319   -9.9513 C   0  0  0  0  0  0  0  0  0  0  0  0
   18.4752  -22.9007  -11.3759 C   0  0  2  0  0  0  0  0  0  0  0  0
   19.7001  -22.1730  -11.7822 N   0  0  0  0  0  0  0  0  0  0  0  0
   17.3866  -21.9000  -11.4336 C   0  0  0  0  0  0  0  0  0  0  0  0
   17.4277  -20.8020  -10.7717 O   0  0  0  0  0  0  0  0  0  0  0  0
   16.1985  -22.0371  -12.2134 N   0  0  0  0  0  0  0  0  0  0  0  0
   15.1488  -21.0412  -12.2388 C   0  0  1  0  0  0  0  0  0  0  0  0
   15.1194  -20.2542  -13.5235 C   0  0  0  0  0  0  0  0  0  0  0  0
   14.9451  -21.1371  -14.6681 C   0  0  0  0  0  0  0  0  0  0  0  0
   14.0179  -22.1626  -14.7477 C   0  0  0  0  0  0  0  0  0  0  0  0
   14.1881  -22.7451  -15.9234 N   0  0  0  0  0  0  0  0  0  0  0  0
   15.1715  -22.1519  -16.6046 C   0  0  0  0  0  0  0  0  0  0  0  0
   15.6987  -22.3852  -17.8506 C   0  0  0  0  0  0  0  0  0  0  0  0
   16.7383  -21.5921  -18.3481 C   0  0  0  0  0  0  0  0  0  0  0  0
   17.1951  -20.5916  -17.5476 C   0  0  0  0  0  0  0  0  0  0  0  0
   16.6818  -20.3419  -16.2969 C   0  0  0  0  0  0  0  0  0  0  0  0
   15.6575  -21.1422  -15.8347 C   0  0  0  0  0  0  0  0  0  0  0  0
   13.8718  -21.7151  -11.9567 C   0  0  0  0  0  0  0  0  0  0  0  0
   12.8498  -21.0311  -11.7143 O   0  0  0  0  0  0  0  0  0  0  0  0
   13.7584  -23.0869  -11.9500 O   0  0  0  0  0  0  0  0  0  0  0  0
  2  1  1  0
  3  2  1  0
  4  3  1  0
  4  5  1  0
  5  7  1  0
  5  6  1  6
  7  8  2  0
 10 12  1  0
 10  9  1  0
 11 10  2  0
 14 13  1  1
 13 12  1  0
 15 14  1  0
 15  7  1  0
 16 17  2  0
 16 14  1  0
 18 16  1  0
 19 30  1  0
 19 18  1  0
 19 20  1  6
 21 29  1  0
 21 20  1  0
 22 21  2  0
 23 22  1  0
 23 24  1  0
 24 29  2  0
 25 24  1  0
 25 26  2  0
 26 27  1  0
 27 28  2  0
 29 28  1  0
 30 32  1  0
 31 30  2  0
M  END
$$$$
