MQW.pdb
     RDKit          3D

 32 33  0  0  1  0  0  0  0  0999 V2000
   20.0801  -17.9238  -13.4352 C   0  0  0  0  0  0  0  0  0  0  0  0
   20.9575  -16.6402  -14.3155 S   0  0  0  0  0  0  0  0  0  0  0  0
   20.1560  -15.9725  -15.7416 C   0  0  0  0  0  0  0  0  0  0  0  0
   20.8814  -14.8862  -16.4385 C   0  0  0  0  0  0  0  0  0  0  0  0
   20.2311  -14.3847  -17.6663 C   0  0  2  0  0  0  0  0  0  0  0  0
   20.2574  -15.3827  -18.7364 N   0  0  0  0  0  0  0  0  0  0  0  0
   21.0663  -13.2420  -18.2227 C   0  0  0  0  0  0  0  0  0  0  0  0
   21.5587  -13.4212  -19.3888 O   0  0  0  0  0  0  0  0  0  0  0  0
   21.7000  -10.7793  -21.8551 N   0  0  0  0  0  0  0  0  0  0  0  0
   21.3350   -9.5135  -21.3564 C   0  0  0  0  0  0  0  0  0  0  0  0
   21.4598   -8.5114  -22.0892 O   0  0  0  0  0  0  0  0  0  0  0  0
   20.8188   -9.3749  -20.0038 C   0  0  0  0  0  0  0  0  0  0  0  0
   20.6667  -10.6111  -19.2128 C   0  0  0  0  0  0  0  0  0  0  0  0
   21.7829  -10.9007  -18.2192 C   0  0  2  0  0  0  0  0  0  0  0  0
   21.2650  -12.0716  -17.4736 N   0  0  0  0  0  0  0  0  0  0  0  0
   21.9346   -9.8286  -17.2106 C   0  0  0  0  0  0  0  0  0  0  0  0
   20.9918   -9.5088  -16.4016 O   0  0  0  0  0  0  0  0  0  0  0  0
   23.1166   -9.0495  -17.0255 N   0  0  0  0  0  0  0  0  0  0  0  0
   23.2705   -8.0860  -15.9568 C   0  0  1  0  0  0  0  0  0  0  0  0
   24.3583   -8.4601  -14.9834 C   0  0  0  0  0  0  0  0  0  0  0  0
   25.5214   -8.9864  -15.6834 C   0  0  0  0  0  0  0  0  0  0  0  0
   26.3030   -8.2722  -16.5762 C   0  0  0  0  0  0  0  0  0  0  0  0
   27.2379   -9.0987  -17.0160 N   0  0  0  0  0  0  0  0  0  0  0  0
   27.1025  -10.3033  -16.4562 C   0  0  0  0  0  0  0  0  0  0  0  0
   27.8246  -11.4640  -16.5841 C   0  0  0  0  0  0  0  0  0  0  0  0
   27.4759  -12.6078  -15.8579 C   0  0  0  0  0  0  0  0  0  0  0  0
   26.4007  -12.5150  -15.0296 C   0  0  0  0  0  0  0  0  0  0  0  0
   25.6640  -11.3630  -14.8878 C   0  0  0  0  0  0  0  0  0  0  0  0
   26.0330  -10.2523  -15.6183 C   0  0  0  0  0  0  0  0  0  0  0  0
   23.4811   -6.7615  -16.5617 C   0  0  0  0  0  0  0  0  0  0  0  0
   23.4235   -5.7355  -15.8439 O   0  0  0  0  0  0  0  0  0  0  0  0
   23.7427   -6.6076  -17.9043 O   0  0  0  0  0  0  0  0  0  0  0  0
  2  1  1  0
  3  2  1  0
  4  3  1  0
  4  5  1  0
  5  7  1  0
  5  6  1  6
  7  8  2  0
 10 12  1  0
 10  9  1  0
 11 10  2  0
 14 13  1  6
 13 12  1  0
 15 14  1  0
 15  7  1  0
 16 17  2  0
 16 14  1  0
 18 16  1  0
 19 30  1  0
 19 18  1  0
 19 20  1  6
 21 29  1  0
 21 20  1  0
 22 21  2  0
 23 22  1  0
 23 24  1  0
 24 29  2  0
 25 24  1  0
 25 26  2  0
 26 27  1  0
 27 28  2  0
 29 28  1  0
 30 32  1  0
 31 30  2  0
M  END
$$$$
