MQW.pdb
     RDKit          3D

 32 33  0  0  1  0  0  0  0  0999 V2000
   22.4612  -19.4900  -19.3732 C   0  0  0  0  0  0  0  0  0  0  0  0
   23.7717  -18.4319  -18.7769 S   0  0  0  0  0  0  0  0  0  0  0  0
   23.3351  -17.2656  -17.5236 C   0  0  0  0  0  0  0  0  0  0  0  0
   23.0405  -17.8346  -16.1889 C   0  0  0  0  0  0  0  0  0  0  0  0
   24.2227  -18.2711  -15.4182 C   0  0  2  0  0  0  0  0  0  0  0  0
   24.9551  -19.3327  -16.1098 N   0  0  0  0  0  0  0  0  0  0  0  0
   23.7447  -18.9412  -14.1394 C   0  0  0  0  0  0  0  0  0  0  0  0
   22.8578  -18.3085  -13.4705 O   0  0  0  0  0  0  0  0  0  0  0  0
   22.3735  -24.7402  -13.3512 N   0  0  0  0  0  0  0  0  0  0  0  0
   23.6790  -24.3614  -13.7207 C   0  0  0  0  0  0  0  0  0  0  0  0
   24.4256  -25.2006  -14.2638 O   0  0  0  0  0  0  0  0  0  0  0  0
   24.1520  -23.0087  -13.4727 C   0  0  0  0  0  0  0  0  0  0  0  0
   23.2052  -22.0715  -12.8386 C   0  0  0  0  0  0  0  0  0  0  0  0
   23.7777  -20.7151  -12.4520 C   0  0  2  0  0  0  0  0  0  0  0  0
   24.2671  -20.1831  -13.7452 N   0  0  0  0  0  0  0  0  0  0  0  0
   24.9788  -20.8315  -11.5955 C   0  0  0  0  0  0  0  0  0  0  0  0
   26.0862  -21.3135  -12.0278 O   0  0  0  0  0  0  0  0  0  0  0  0
   25.0419  -20.4294  -10.2270 N   0  0  0  0  0  0  0  0  0  0  0  0
   26.1513  -20.7550   -9.3565 C   0  0  1  0  0  0  0  0  0  0  0  0
   27.0877  -19.5940   -9.1425 C   0  0  0  0  0  0  0  0  0  0  0  0
   28.2357  -19.9949   -8.3417 C   0  0  0  0  0  0  0  0  0  0  0  0
   29.2796  -20.7876   -8.7888 C   0  0  0  0  0  0  0  0  0  0  0  0
   30.1057  -20.9480   -7.7679 N   0  0  0  0  0  0  0  0  0  0  0  0
   29.6528  -20.3030   -6.6900 C   0  0  0  0  0  0  0  0  0  0  0  0
   30.1567  -20.1659   -5.4202 C   0  0  0  0  0  0  0  0  0  0  0  0
   29.4801  -19.4064   -4.4597 C   0  0  0  0  0  0  0  0  0  0  0  0
   28.3141  -18.8181   -4.8402 C   0  0  0  0  0  0  0  0  0  0  0  0
   27.7921  -18.9435   -6.1058 C   0  0  0  0  0  0  0  0  0  0  0  0
   28.4828  -19.6998   -7.0301 C   0  0  0  0  0  0  0  0  0  0  0  0
   25.6047  -21.2830   -8.0967 C   0  0  0  0  0  0  0  0  0  0  0  0
   24.4870  -20.8863   -7.6911 O   0  0  0  0  0  0  0  0  0  0  0  0
   26.2856  -22.2087   -7.3391 O   0  0  0  0  0  0  0  0  0  0  0  0
  2  1  1  0
  3  2  1  0
  4  3  1  0
  4  5  1  0
  5  7  1  0
  5  6  1  6
  7  8  2  0
 10 12  1  0
 10  9  1  0
 11 10  2  0
 14 13  1  6
 13 12  1  0
 15 14  1  0
 15  7  1  0
 16 17  2  0
 16 14  1  0
 18 16  1  0
 19 30  1  0
 19 18  1  0
 19 20  1  1
 21 29  1  0
 21 20  1  0
 22 21  2  0
 23 22  1  0
 23 24  1  0
 24 29  2  0
 25 24  1  0
 25 26  2  0
 26 27  1  0
 27 28  2  0
 29 28  1  0
 30 32  1  0
 31 30  2  0
M  END
$$$$
