MQW.pdb
     RDKit          3D

 32 33  0  0  1  0  0  0  0  0999 V2000
   27.0787  -12.6088  -16.3998 C   0  0  0  0  0  0  0  0  0  0  0  0
   26.7154  -14.3442  -16.1787 S   0  0  0  0  0  0  0  0  0  0  0  0
   25.5842  -15.0659  -17.3282 C   0  0  0  0  0  0  0  0  0  0  0  0
   25.2870  -16.5018  -17.1239 C   0  0  0  0  0  0  0  0  0  0  0  0
   26.4708  -17.3709  -16.9650 C   0  0  2  0  0  0  0  0  0  0  0  0
   26.9699  -17.8435  -18.2570 N   0  0  0  0  0  0  0  0  0  0  0  0
   26.0411  -18.6476  -16.2592 C   0  0  0  0  0  0  0  0  0  0  0  0
   25.5399  -19.5595  -17.0020 O   0  0  0  0  0  0  0  0  0  0  0  0
   28.4811  -21.0516  -11.1064 N   0  0  0  0  0  0  0  0  0  0  0  0
   27.2984  -21.8022  -11.2546 C   0  0  0  0  0  0  0  0  0  0  0  0
   27.0656  -22.7348  -10.4591 O   0  0  0  0  0  0  0  0  0  0  0  0
   26.3590  -21.4948  -12.3215 C   0  0  0  0  0  0  0  0  0  0  0  0
   26.7048  -20.3764  -13.2195 C   0  0  0  0  0  0  0  0  0  0  0  0
   25.6630  -20.0299  -14.2738 C   0  0  2  0  0  0  0  0  0  0  0  0
   26.1999  -18.7850  -14.8713 N   0  0  0  0  0  0  0  0  0  0  0  0
   24.3616  -19.6510  -13.6801 C   0  0  0  0  0  0  0  0  0  0  0  0
   24.2127  -18.5925  -12.9710 O   0  0  0  0  0  0  0  0  0  0  0  0
   23.1542  -20.3990  -13.8261 N   0  0  0  0  0  0  0  0  0  0  0  0
   21.8738  -19.9399  -13.3318 C   0  0  1  0  0  0  0  0  0  0  0  0
   21.4852  -18.5904  -13.8780 C   0  0  0  0  0  0  0  0  0  0  0  0
   21.3878  -18.6277  -15.3303 C   0  0  0  0  0  0  0  0  0  0  0  0
   20.7740  -19.6315  -16.0609 C   0  0  0  0  0  0  0  0  0  0  0  0
   20.9175  -19.3202  -17.3387 N   0  0  0  0  0  0  0  0  0  0  0  0
   21.5879  -18.1730  -17.4714 C   0  0  0  0  0  0  0  0  0  0  0  0
   21.9649  -17.4499  -18.5759 C   0  0  0  0  0  0  0  0  0  0  0  0
   22.6618  -16.2445  -18.4387 C   0  0  0  0  0  0  0  0  0  0  0  0
   22.9438  -15.8295  -17.1743 C   0  0  0  0  0  0  0  0  0  0  0  0
   22.5763  -16.5389  -16.0555 C   0  0  0  0  0  0  0  0  0  0  0  0
   21.8905  -17.7241  -16.2243 C   0  0  0  0  0  0  0  0  0  0  0  0
   20.8728  -20.9788  -13.6204 C   0  0  0  0  0  0  0  0  0  0  0  0
   21.1720  -21.9368  -14.3712 O   0  0  0  0  0  0  0  0  0  0  0  0
   19.6041  -20.9353  -13.0881 O   0  0  0  0  0  0  0  0  0  0  0  0
  2  1  1  0
  3  2  1  0
  4  3  1  0
  4  5  1  0
  5  7  1  0
  5  6  1  6
  7  8  2  0
 10 12  1  0
 10  9  1  0
 11 10  2  0
 14 13  1  1
 13 12  1  0
 15 14  1  0
 15  7  1  0
 16 17  2  0
 16 14  1  0
 18 16  1  0
 19 30  1  0
 19 18  1  0
 19 20  1  6
 21 29  1  0
 21 20  1  0
 22 21  2  0
 23 22  1  0
 23 24  1  0
 24 29  2  0
 25 24  1  0
 25 26  2  0
 26 27  1  0
 27 28  2  0
 29 28  1  0
 30 32  1  0
 31 30  2  0
M  END
$$$$
