MQW.pdb
     RDKit          3D

 32 33  0  0  1  0  0  0  0  0999 V2000
   30.7750  -21.6987  -18.1415 C   0  0  0  0  0  0  0  0  0  0  0  0
   29.5746  -21.0461  -16.9903 S   0  0  0  0  0  0  0  0  0  0  0  0
   29.7368  -19.3389  -16.5647 C   0  0  0  0  0  0  0  0  0  0  0  0
   28.7249  -18.8115  -15.6215 C   0  0  0  0  0  0  0  0  0  0  0  0
   27.4496  -19.5560  -15.5887 C   0  0  2  0  0  0  0  0  0  0  0  0
   26.5405  -19.1147  -16.6474 N   0  0  0  0  0  0  0  0  0  0  0  0
   26.7114  -19.1931  -14.3096 C   0  0  0  0  0  0  0  0  0  0  0  0
   26.2763  -17.9934  -14.2324 O   0  0  0  0  0  0  0  0  0  0  0  0
   21.9788  -21.4765  -14.4212 N   0  0  0  0  0  0  0  0  0  0  0  0
   22.3330  -21.2399  -13.0786 C   0  0  0  0  0  0  0  0  0  0  0  0
   21.4325  -21.1190  -12.2236 O   0  0  0  0  0  0  0  0  0  0  0  0
   23.7315  -21.1374  -12.6923 C   0  0  0  0  0  0  0  0  0  0  0  0
   24.3122  -19.7828  -12.6246 C   0  0  0  0  0  0  0  0  0  0  0  0
   25.7455  -19.7035  -12.1183 C   0  0  2  0  0  0  0  0  0  0  0  0
   26.5348  -20.1440  -13.2922 N   0  0  0  0  0  0  0  0  0  0  0  0
   26.0274  -20.6985  -11.0598 C   0  0  0  0  0  0  0  0  0  0  0  0
   26.3253  -21.9176  -11.3254 O   0  0  0  0  0  0  0  0  0  0  0  0
   26.0030  -20.4227   -9.6592 N   0  0  0  0  0  0  0  0  0  0  0  0
   26.2926  -21.4196   -8.6508 C   0  0  1  0  0  0  0  0  0  0  0  0
   27.6811  -21.2887   -8.0801 C   0  0  0  0  0  0  0  0  0  0  0  0
   27.7230  -20.2610   -7.0496 C   0  0  0  0  0  0  0  0  0  0  0  0
   27.1546  -19.0028   -7.1572 C   0  0  0  0  0  0  0  0  0  0  0  0
   27.4292  -18.3590   -6.0345 N   0  0  0  0  0  0  0  0  0  0  0  0
   28.1411  -19.1319   -5.2107 C   0  0  0  0  0  0  0  0  0  0  0  0
   28.6429  -18.9169   -3.9509 C   0  0  0  0  0  0  0  0  0  0  0  0
   29.3569  -19.9183   -3.2842 C   0  0  0  0  0  0  0  0  0  0  0  0
   29.5274  -21.0999   -3.9364 C   0  0  0  0  0  0  0  0  0  0  0  0
   29.0340  -21.3352   -5.1978 C   0  0  0  0  0  0  0  0  0  0  0  0
   28.3347  -20.3272   -5.8290 C   0  0  0  0  0  0  0  0  0  0  0  0
   25.2458  -21.3449   -7.6197 C   0  0  0  0  0  0  0  0  0  0  0  0
   24.3646  -20.4566   -7.6937 O   0  0  0  0  0  0  0  0  0  0  0  0
   25.1995  -22.2271   -6.5641 O   0  0  0  0  0  0  0  0  0  0  0  0
  2  1  1  0
  3  2  1  0
  4  3  1  0
  4  5  1  0
  5  7  1  0
  5  6  1  6
  7  8  2  0
 10 12  1  0
 10  9  1  0
 11 10  2  0
 14 13  1  6
 13 12  1  0
 15 14  1  0
 15  7  1  0
 16 17  2  0
 16 14  1  0
 18 16  1  0
 19 30  1  0
 19 18  1  0
 19 20  1  1
 21 29  1  0
 21 20  1  0
 22 21  2  0
 23 22  1  0
 23 24  1  0
 24 29  2  0
 25 24  1  0
 25 26  2  0
 26 27  1  0
 27 28  2  0
 29 28  1  0
 30 32  1  0
 31 30  2  0
M  END
$$$$
