ITQ.pdb
     RDKit          3D

 25 24  0  0  1  0  0  0  0  0999 V2000
   24.5550  -14.5523  -19.2240 C   0  0  0  0  0  0  0  0  0  0  0  0
   25.7960  -15.3190  -18.8627 C   0  0  0  0  0  0  0  0  0  0  0  0
   25.5199  -16.6769  -18.3114 C   0  0  2  0  0  0  0  0  0  0  0  0
   24.4963  -16.5792  -17.2228 C   0  0  0  0  0  0  0  0  0  0  0  0
   26.7976  -17.3481  -17.8737 C   0  0  2  0  0  0  0  0  0  0  0  0
   27.6878  -17.3622  -19.0202 N   0  0  0  0  0  0  0  0  0  0  0  0
   26.5905  -18.6768  -17.2985 C   0  0  0  0  0  0  0  0  0  0  0  0
   26.0612  -19.5957  -17.9540 O   0  0  0  0  0  0  0  0  0  0  0  0
   28.8273  -19.7925  -13.9383 C   0  0  0  0  0  0  0  0  0  0  0  0
   28.2014  -20.7092  -14.9678 C   0  0  1  0  0  0  0  0  0  0  0  0
   28.1515  -21.9722  -14.3507 O   0  0  0  0  0  0  0  0  0  0  0  0
   26.7844  -20.2696  -15.3510 C   0  0  2  0  0  0  0  0  0  0  0  0
   26.9919  -18.9463  -15.9718 N   0  0  0  0  0  0  0  0  0  0  0  0
   26.0316  -20.0332  -14.1047 C   0  0  0  0  0  0  0  0  0  0  0  0
   26.1550  -18.9088  -13.5359 O   0  0  0  0  0  0  0  0  0  0  0  0
   20.7317  -19.7038  -12.5538 N   0  0  0  0  0  0  0  0  0  0  0  0
   21.1609  -19.8692  -11.2204 C   0  0  0  0  0  0  0  0  0  0  0  0
   20.5316  -19.3521  -10.2846 O   0  0  0  0  0  0  0  0  0  0  0  0
   22.3741  -20.6682  -10.9429 C   0  0  0  0  0  0  0  0  0  0  0  0
   23.1062  -21.0107  -12.2104 C   0  0  0  0  0  0  0  0  0  0  0  0
   24.5353  -20.5987  -12.2192 C   0  0  2  0  0  0  0  0  0  0  0  0
   25.1789  -20.9623  -13.4927 N   0  0  0  0  0  0  0  0  0  0  0  0
   25.3406  -21.1704  -11.1216 C   0  0  0  0  0  0  0  0  0  0  0  0
   25.5925  -20.4875  -10.0840 O   0  0  0  0  0  0  0  0  0  0  0  0
   25.8777  -22.4524  -11.1104 O   0  0  0  0  0  0  0  0  0  0  0  0
  2  1  1  0
  3  5  1  0
  3  2  1  0
  3  4  1  1
  5  7  1  0
  5  6  1  6
  7  8  2  0
 10 12  1  0
 10  9  1  1
 11 10  1  0
 12 14  1  0
 13  7  1  0
 12 13  1  6
 14 22  1  0
 15 14  2  0
 17 19  1  0
 17 16  1  0
 18 17  2  0
 19 20  1  0
 21 20  1  6
 21 23  1  0
 22 21  1  0
 23 25  1  0
 24 23  2  0
M  END
$$$$
