ITQ.pdb
     RDKit          3D

 25 24  0  0  1  0  0  0  0  0999 V2000
   17.2261  -17.2218  -16.3067 C   0  0  0  0  0  0  0  0  0  0  0  0
   16.5394  -16.0098  -16.8708 C   0  0  0  0  0  0  0  0  0  0  0  0
   17.4393  -14.8305  -17.0236 C   0  0  2  0  0  0  0  0  0  0  0  0
   18.0980  -14.5273  -15.7134 C   0  0  0  0  0  0  0  0  0  0  0  0
   16.6911  -13.6565  -17.6038 C   0  0  2  0  0  0  0  0  0  0  0  0
   16.1192  -14.0944  -18.8641 N   0  0  0  0  0  0  0  0  0  0  0  0
   17.5104  -12.4525  -17.7391 C   0  0  0  0  0  0  0  0  0  0  0  0
   18.7545  -12.4999  -17.6738 O   0  0  0  0  0  0  0  0  0  0  0  0
   17.3688   -7.7222  -19.2546 C   0  0  0  0  0  0  0  0  0  0  0  0
   16.8294   -9.1262  -19.0820 C   0  0  1  0  0  0  0  0  0  0  0  0
   16.8571   -9.6896  -20.3705 O   0  0  0  0  0  0  0  0  0  0  0  0
   17.6929   -9.9673  -18.1361 C   0  0  2  0  0  0  0  0  0  0  0  0
   16.8984  -11.1975  -17.9491 N   0  0  0  0  0  0  0  0  0  0  0  0
   17.7245   -9.2872  -16.8275 C   0  0  0  0  0  0  0  0  0  0  0  0
   16.6529   -9.2343  -16.1553 O   0  0  0  0  0  0  0  0  0  0  0  0
   18.4610   -9.7173  -11.9022 N   0  0  0  0  0  0  0  0  0  0  0  0
   18.9696   -8.4266  -11.6471 C   0  0  0  0  0  0  0  0  0  0  0  0
   18.7642   -7.8696  -10.5577 O   0  0  0  0  0  0  0  0  0  0  0  0
   19.7547   -7.7365  -12.6935 C   0  0  0  0  0  0  0  0  0  0  0  0
   19.7265   -8.4967  -13.9902 C   0  0  0  0  0  0  0  0  0  0  0  0
   18.7205   -7.9995  -14.9664 C   0  0  2  0  0  0  0  0  0  0  0  0
   18.8583   -8.6895  -16.2600 N   0  0  0  0  0  0  0  0  0  0  0  0
   18.7813   -6.5456  -15.2162 C   0  0  0  0  0  0  0  0  0  0  0  0
   19.4604   -6.0856  -16.1824 O   0  0  0  0  0  0  0  0  0  0  0  0
   18.1317   -5.5784  -14.4582 O   0  0  0  0  0  0  0  0  0  0  0  0
  2  1  1  0
  3  5  1  0
  3  2  1  0
  3  4  1  1
  5  7  1  0
  5  6  1  6
  7  8  2  0
 10 12  1  0
 10  9  1  6
 11 10  1  0
 12 14  1  0
 13  7  1  0
 12 13  1  1
 14 22  1  0
 15 14  2  0
 17 19  1  0
 17 16  1  0
 18 17  2  0
 19 20  1  0
 21 20  1  1
 21 23  1  0
 22 21  1  0
 23 25  1  0
 24 23  2  0
M  END
$$$$
