ITQ.pdb
     RDKit          3D

 25 24  0  0  1  0  0  0  0  0999 V2000
   16.8321  -13.6633  -18.7412 C   0  0  0  0  0  0  0  0  0  0  0  0
   18.1738  -13.2302  -18.2209 C   0  0  0  0  0  0  0  0  0  0  0  0
   18.0961  -12.1566  -17.1887 C   0  0  2  0  0  0  0  0  0  0  0  0
   17.3238  -10.9934  -17.7301 C   0  0  0  0  0  0  0  0  0  0  0  0
   19.4725  -11.7849  -16.6966 C   0  0  2  0  0  0  0  0  0  0  0  0
   20.0988  -13.0036  -16.2172 N   0  0  0  0  0  0  0  0  0  0  0  0
   19.4653  -10.7180  -15.6963 C   0  0  0  0  0  0  0  0  0  0  0  0
   18.9410  -10.8777  -14.5765 O   0  0  0  0  0  0  0  0  0  0  0  0
   21.6427   -6.5245  -14.3084 C   0  0  0  0  0  0  0  0  0  0  0  0
   21.4843   -7.8202  -15.0753 C   0  0  1  0  0  0  0  0  0  0  0  0
   22.3590   -8.7257  -14.4479 O   0  0  0  0  0  0  0  0  0  0  0  0
   20.0524   -8.3618  -15.0101 C   0  0  2  0  0  0  0  0  0  0  0  0
   20.0604   -9.4705  -15.9849 N   0  0  0  0  0  0  0  0  0  0  0  0
   19.1529   -7.3294  -15.5586 C   0  0  0  0  0  0  0  0  0  0  0  0
   19.1970   -7.0977  -16.8025 O   0  0  0  0  0  0  0  0  0  0  0  0
   13.5988   -5.3192  -13.7133 N   0  0  0  0  0  0  0  0  0  0  0  0
   13.8277   -4.4616  -14.8096 C   0  0  0  0  0  0  0  0  0  0  0  0
   12.9528   -3.6652  -15.1831 O   0  0  0  0  0  0  0  0  0  0  0  0
   15.1259   -4.5180  -15.5159 C   0  0  0  0  0  0  0  0  0  0  0  0
   16.0230   -5.5723  -14.9298 C   0  0  0  0  0  0  0  0  0  0  0  0
   17.3963   -5.5901  -15.5004 C   0  0  2  0  0  0  0  0  0  0  0  0
   18.2409   -6.5764  -14.8061 N   0  0  0  0  0  0  0  0  0  0  0  0
   18.0894   -4.2871  -15.4599 C   0  0  0  0  0  0  0  0  0  0  0  0
   19.1028   -4.1190  -14.7175 O   0  0  0  0  0  0  0  0  0  0  0  0
   17.7234   -3.1658  -16.1955 O   0  0  0  0  0  0  0  0  0  0  0  0
  2  1  1  0
  3  5  1  0
  3  2  1  0
  3  4  1  6
  5  7  1  0
  5  6  1  1
  7  8  2  0
 10 12  1  0
 10  9  1  1
 11 10  1  0
 12 14  1  0
 13  7  1  0
 12 13  1  6
 14 22  1  0
 15 14  2  0
 17 19  1  0
 17 16  1  0
 18 17  2  0
 19 20  1  0
 21 20  1  1
 21 23  1  0
 22 21  1  0
 23 25  1  0
 24 23  2  0
M  END
$$$$
