ITQ.pdb
     RDKit          3D

 25 24  0  0  1  0  0  0  0  0999 V2000
   18.9236  -18.2149  -16.5793 C   0  0  0  0  0  0  0  0  0  0  0  0
   18.4110  -17.1022  -15.7088 C   0  0  0  0  0  0  0  0  0  0  0  0
   18.4742  -15.7601  -16.3560 C   0  0  2  0  0  0  0  0  0  0  0  0
   19.8809  -15.4724  -16.7811 C   0  0  0  0  0  0  0  0  0  0  0  0
   17.8929  -14.7012  -15.4528 C   0  0  2  0  0  0  0  0  0  0  0  0
   16.6354  -15.2172  -14.9430 N   0  0  0  0  0  0  0  0  0  0  0  0
   17.7517  -13.3970  -16.0996 C   0  0  0  0  0  0  0  0  0  0  0  0
   17.6585  -13.2902  -17.3382 O   0  0  0  0  0  0  0  0  0  0  0  0
   14.9864  -11.1959  -15.8690 C   0  0  0  0  0  0  0  0  0  0  0  0
   16.1709  -10.4343  -15.3133 C   0  0  1  0  0  0  0  0  0  0  0  0
   16.1719  -10.7146  -13.9349 O   0  0  0  0  0  0  0  0  0  0  0  0
   17.4965  -10.8923  -15.9304 C   0  0  2  0  0  0  0  0  0  0  0  0
   17.7179  -12.2190  -15.3218 N   0  0  0  0  0  0  0  0  0  0  0  0
   18.5630  -10.0130  -15.4153 C   0  0  0  0  0  0  0  0  0  0  0  0
   19.1074  -10.3161  -14.3131 O   0  0  0  0  0  0  0  0  0  0  0  0
   23.5770   -8.1608  -17.8612 N   0  0  0  0  0  0  0  0  0  0  0  0
   23.7097   -7.5184  -16.6124 C   0  0  0  0  0  0  0  0  0  0  0  0
   24.7930   -7.0206  -16.2691 O   0  0  0  0  0  0  0  0  0  0  0  0
   22.5415   -7.4415  -15.7086 C   0  0  0  0  0  0  0  0  0  0  0  0
   21.3661   -8.1937  -16.2676 C   0  0  0  0  0  0  0  0  0  0  0  0
   20.1349   -8.1044  -15.4379 C   0  0  2  0  0  0  0  0  0  0  0  0
   19.0297   -8.8566  -16.0554 N   0  0  0  0  0  0  0  0  0  0  0  0
   19.6663   -6.7264  -15.1900 C   0  0  0  0  0  0  0  0  0  0  0  0
   18.7465   -6.2210  -15.9005 O   0  0  0  0  0  0  0  0  0  0  0  0
   20.1581   -5.8827  -14.2009 O   0  0  0  0  0  0  0  0  0  0  0  0
  2  1  1  0
  3  5  1  0
  3  2  1  0
  3  4  1  1
  5  7  1  0
  5  6  1  6
  7  8  2  0
 10 12  1  0
 10  9  1  6
 11 10  1  0
 12 14  1  0
 13  7  1  0
 12 13  1  1
 14 22  1  0
 15 14  2  0
 17 19  1  0
 17 16  1  0
 18 17  2  0
 19 20  1  0
 21 20  1  6
 21 23  1  0
 22 21  1  0
 23 25  1  0
 24 23  2  0
M  END
$$$$
