ITQ.pdb
     RDKit          3D

 25 24  0  0  1  0  0  0  0  0999 V2000
   19.1035  -18.6642  -16.4278 C   0  0  0  0  0  0  0  0  0  0  0  0
   19.8577  -17.4163  -16.0640 C   0  0  0  0  0  0  0  0  0  0  0  0
   19.7629  -16.3400  -17.0920 C   0  0  2  0  0  0  0  0  0  0  0  0
   20.2312  -16.8646  -18.4141 C   0  0  0  0  0  0  0  0  0  0  0  0
   20.5001  -15.1032  -16.6431 C   0  0  2  0  0  0  0  0  0  0  0  0
   20.6462  -15.1918  -15.2016 N   0  0  0  0  0  0  0  0  0  0  0  0
   19.8657  -13.8579  -17.0746 C   0  0  0  0  0  0  0  0  0  0  0  0
   19.6766  -13.6066  -18.2810 O   0  0  0  0  0  0  0  0  0  0  0  0
   16.4864  -12.4010  -16.1341 C   0  0  0  0  0  0  0  0  0  0  0  0
   17.6060  -11.5090  -15.6413 C   0  0  1  0  0  0  0  0  0  0  0  0
   17.8988  -11.9717  -14.3456 O   0  0  0  0  0  0  0  0  0  0  0  0
   18.8587  -11.6123  -16.5177 C   0  0  2  0  0  0  0  0  0  0  0  0
   19.4505  -12.9048  -16.1192 N   0  0  0  0  0  0  0  0  0  0  0  0
   19.8038  -10.5674  -16.0808 C   0  0  0  0  0  0  0  0  0  0  0  0
   20.6558  -10.8654  -15.1930 O   0  0  0  0  0  0  0  0  0  0  0  0
   23.9124   -7.2335  -19.5898 N   0  0  0  0  0  0  0  0  0  0  0  0
   22.5304   -7.2541  -19.3082 C   0  0  0  0  0  0  0  0  0  0  0  0
   21.7512   -6.4980  -19.9085 O   0  0  0  0  0  0  0  0  0  0  0  0
   22.0125   -8.1889  -18.2858 C   0  0  0  0  0  0  0  0  0  0  0  0
   21.3743   -7.4510  -17.1421 C   0  0  0  0  0  0  0  0  0  0  0  0
   20.8602   -8.3319  -16.0595 C   0  0  2  0  0  0  0  0  0  0  0  0
   19.8371   -9.2565  -16.5759 N   0  0  0  0  0  0  0  0  0  0  0  0
   20.2828   -7.6090  -14.9089 C   0  0  0  0  0  0  0  0  0  0  0  0
   19.0267   -7.4936  -14.7850 O   0  0  0  0  0  0  0  0  0  0  0  0
   21.0181   -7.0114  -13.8919 O   0  0  0  0  0  0  0  0  0  0  0  0
  2  1  1  0
  3  5  1  0
  3  2  1  0
  3  4  1  6
  5  7  1  0
  5  6  1  1
  7  8  2  0
 10 12  1  0
 10  9  1  6
 11 10  1  0
 12 14  1  0
 13  7  1  0
 12 13  1  1
 14 22  1  0
 15 14  2  0
 17 19  1  0
 17 16  1  0
 18 17  2  0
 19 20  1  0
 21 20  1  6
 21 23  1  0
 22 21  1  0
 23 25  1  0
 24 23  2  0
M  END
$$$$
