ITQ.pdb
     RDKit          3D

 25 24  0  0  1  0  0  0  0  0999 V2000
   28.5372  -19.5127   -6.7836 C   0  0  0  0  0  0  0  0  0  0  0  0
   28.2925  -20.5419   -7.8510 C   0  0  0  0  0  0  0  0  0  0  0  0
   27.2992  -20.1133   -8.8775 C   0  0  2  0  0  0  0  0  0  0  0  0
   25.9807  -19.8448   -8.2203 C   0  0  0  0  0  0  0  0  0  0  0  0
   27.2163  -21.1204   -9.9971 C   0  0  2  0  0  0  0  0  0  0  0  0
   28.5667  -21.5876  -10.2529 N   0  0  0  0  0  0  0  0  0  0  0  0
   26.5562  -20.6056  -11.1964 C   0  0  0  0  0  0  0  0  0  0  0  0
   26.9686  -19.5839  -11.7798 O   0  0  0  0  0  0  0  0  0  0  0  0
   26.6382  -21.6638  -14.3242 C   0  0  0  0  0  0  0  0  0  0  0  0
   25.1590  -21.7601  -14.0166 C   0  0  1  0  0  0  0  0  0  0  0  0
   24.9650  -23.0771  -13.5621 O   0  0  0  0  0  0  0  0  0  0  0  0
   24.7274  -20.7730  -12.9270 C   0  0  2  0  0  0  0  0  0  0  0  0
   25.4242  -21.2658  -11.7223 N   0  0  0  0  0  0  0  0  0  0  0  0
   23.2855  -20.9683  -12.6851 C   0  0  0  0  0  0  0  0  0  0  0  0
   22.9178  -21.3408  -11.5322 O   0  0  0  0  0  0  0  0  0  0  0  0
   20.7626  -17.2862  -14.6193 N   0  0  0  0  0  0  0  0  0  0  0  0
   19.7801  -18.1177  -15.1963 C   0  0  0  0  0  0  0  0  0  0  0  0
   19.2703  -17.8293  -16.2900 O   0  0  0  0  0  0  0  0  0  0  0  0
   19.3586  -19.3437  -14.4847 C   0  0  0  0  0  0  0  0  0  0  0  0
   20.1882  -19.5745  -13.2525 C   0  0  0  0  0  0  0  0  0  0  0  0
   20.8717  -20.8950  -13.2164 C   0  0  2  0  0  0  0  0  0  0  0  0
   22.2770  -20.7708  -13.6383 N   0  0  0  0  0  0  0  0  0  0  0  0
   20.2349  -21.9332  -14.0509 C   0  0  0  0  0  0  0  0  0  0  0  0
   20.7619  -22.2924  -15.1462 O   0  0  0  0  0  0  0  0  0  0  0  0
   19.0524  -22.5935  -13.7382 O   0  0  0  0  0  0  0  0  0  0  0  0
  2  1  1  0
  3  5  1  0
  3  2  1  0
  3  4  1  1
  5  7  1  0
  5  6  1  6
  7  8  2  0
 10 12  1  0
 10  9  1  1
 11 10  1  0
 12 14  1  0
 13  7  1  0
 12 13  1  1
 14 22  1  0
 15 14  2  0
 17 19  1  0
 17 16  1  0
 18 17  2  0
 19 20  1  0
 21 20  1  6
 21 23  1  0
 22 21  1  0
 23 25  1  0
 24 23  2  0
M  END
$$$$
