ITQ.pdb
     RDKit          3D

 25 24  0  0  1  0  0  0  0  0999 V2000
   17.2604  -13.5476  -15.4287 C   0  0  0  0  0  0  0  0  0  0  0  0
   18.6774  -13.0498  -15.4806 C   0  0  0  0  0  0  0  0  0  0  0  0
   19.0625  -12.4807  -16.8042 C   0  0  2  0  0  0  0  0  0  0  0  0
   18.7925  -13.4853  -17.8814 C   0  0  0  0  0  0  0  0  0  0  0  0
   20.4896  -11.9932  -16.7837 C   0  0  2  0  0  0  0  0  0  0  0  0
   21.3341  -13.1517  -16.5560 N   0  0  0  0  0  0  0  0  0  0  0  0
   20.7249  -10.9197  -15.8186 C   0  0  0  0  0  0  0  0  0  0  0  0
   21.1340  -11.1580  -14.6653 O   0  0  0  0  0  0  0  0  0  0  0  0
   21.4182   -6.0401  -15.3883 C   0  0  0  0  0  0  0  0  0  0  0  0
   21.3185   -7.3647  -16.1145 C   0  0  1  0  0  0  0  0  0  0  0  0
   22.6436   -7.7007  -16.4459 O   0  0  0  0  0  0  0  0  0  0  0  0
   20.7155   -8.4648  -15.2347 C   0  0  2  0  0  0  0  0  0  0  0  0
   20.4896   -9.5754  -16.1809 N   0  0  0  0  0  0  0  0  0  0  0  0
   19.3821   -8.0124  -14.7952 C   0  0  0  0  0  0  0  0  0  0  0  0
   18.4533   -7.9662  -15.6544 O   0  0  0  0  0  0  0  0  0  0  0  0
   16.8591   -7.5092   -9.0630 N   0  0  0  0  0  0  0  0  0  0  0  0
   15.7699   -7.1510   -9.8846 C   0  0  0  0  0  0  0  0  0  0  0  0
   14.6513   -6.9347   -9.3934 O   0  0  0  0  0  0  0  0  0  0  0  0
   15.9708   -7.0341  -11.3452 C   0  0  0  0  0  0  0  0  0  0  0  0
   17.3726   -7.4100  -11.7370 C   0  0  0  0  0  0  0  0  0  0  0  0
   17.6618   -7.2566  -13.1879 C   0  0  2  0  0  0  0  0  0  0  0  0
   19.0551   -7.6270  -13.4878 N   0  0  0  0  0  0  0  0  0  0  0  0
   17.4275   -5.8975  -13.7151 C   0  0  0  0  0  0  0  0  0  0  0  0
   16.2688   -5.5404  -14.0840 O   0  0  0  0  0  0  0  0  0  0  0  0
   18.4026   -4.9166  -13.8532 O   0  0  0  0  0  0  0  0  0  0  0  0
  2  1  1  0
  3  5  1  0
  3  2  1  0
  3  4  1  6
  5  7  1  0
  5  6  1  1
  7  8  2  0
 10 12  1  0
 10  9  1  1
 11 10  1  0
 12 14  1  0
 13  7  1  0
 12 13  1  6
 14 22  1  0
 15 14  2  0
 17 19  1  0
 17 16  1  0
 18 17  2  0
 19 20  1  0
 21 20  1  1
 21 23  1  0
 22 21  1  0
 23 25  1  0
 24 23  2  0
M  END
$$$$
