ITQ.pdb
     RDKit          3D

 25 24  0  0  1  0  0  0  0  0999 V2000
   16.7137  -18.3253  -17.3460 C   0  0  0  0  0  0  0  0  0  0  0  0
   17.3382  -17.3421  -16.3963 C   0  0  0  0  0  0  0  0  0  0  0  0
   17.2989  -15.9332  -16.8840 C   0  0  2  0  0  0  0  0  0  0  0  0
   17.9518  -15.8481  -18.2289 C   0  0  0  0  0  0  0  0  0  0  0  0
   17.8997  -14.9964  -15.8661 C   0  0  2  0  0  0  0  0  0  0  0  0
   17.1730  -15.1907  -14.6246 N   0  0  0  0  0  0  0  0  0  0  0  0
   17.9204  -13.5999  -16.3000 C   0  0  0  0  0  0  0  0  0  0  0  0
   18.4285  -13.2625  -17.3874 O   0  0  0  0  0  0  0  0  0  0  0  0
   14.7811  -11.3717  -16.2138 C   0  0  0  0  0  0  0  0  0  0  0  0
   15.9083  -10.7301  -15.4330 C   0  0  1  0  0  0  0  0  0  0  0  0
   15.7181  -11.1501  -14.1041 O   0  0  0  0  0  0  0  0  0  0  0  0
   17.2866  -11.1867  -15.9226 C   0  0  2  0  0  0  0  0  0  0  0  0
   17.3573  -12.5946  -15.4839 N   0  0  0  0  0  0  0  0  0  0  0  0
   18.3069  -10.4558  -15.1477 C   0  0  0  0  0  0  0  0  0  0  0  0
   18.5385  -10.8310  -13.9608 O   0  0  0  0  0  0  0  0  0  0  0  0
   23.9303  -10.2221  -15.1496 N   0  0  0  0  0  0  0  0  0  0  0  0
   23.5136   -9.2926  -16.1253 C   0  0  0  0  0  0  0  0  0  0  0  0
   24.2843   -8.9372  -17.0303 O   0  0  0  0  0  0  0  0  0  0  0  0
   22.1430   -8.7405  -16.0624 C   0  0  0  0  0  0  0  0  0  0  0  0
   21.3776   -9.3059  -14.8987 C   0  0  0  0  0  0  0  0  0  0  0  0
   20.0201   -8.7245  -14.7216 C   0  0  2  0  0  0  0  0  0  0  0  0
   19.0512   -9.3680  -15.6246 N   0  0  0  0  0  0  0  0  0  0  0  0
   19.9491   -7.2661  -14.9408 C   0  0  0  0  0  0  0  0  0  0  0  0
   19.2575   -6.7901  -15.8903 O   0  0  0  0  0  0  0  0  0  0  0  0
   20.5982   -6.3108  -14.1674 O   0  0  0  0  0  0  0  0  0  0  0  0
  2  1  1  0
  3  5  1  0
  3  2  1  0
  3  4  1  6
  5  7  1  0
  5  6  1  1
  7  8  2  0
 10 12  1  0
 10  9  1  6
 11 10  1  0
 12 14  1  0
 13  7  1  0
 12 13  1  1
 14 22  1  0
 15 14  2  0
 17 19  1  0
 17 16  1  0
 18 17  2  0
 19 20  1  0
 21 20  1  6
 21 23  1  0
 22 21  1  0
 23 25  1  0
 24 23  2  0
M  END
$$$$
