KAK.pdb
     RDKit          3D

 24 23  0  0  1  0  0  0  0  0999 V2000
   30.3115  -24.6091  -16.3340 N   0  0  0  0  0  0  0  0  0  0  0  0
   29.3924  -23.9410  -17.2206 C   0  0  1  0  0  0  0  0  0  0  0  0
   28.6154  -25.0022  -17.9608 C   0  0  0  0  0  0  0  0  0  0  0  0
   29.5865  -25.7043  -18.8871 C   0  0  0  0  0  0  0  0  0  0  0  0
   28.9121  -26.8240  -19.6524 C   0  0  0  0  0  0  0  0  0  0  0  0
   30.0087  -27.4961  -20.4873 C   0  0  0  0  0  0  0  0  0  0  0  0
   29.4867  -28.6064  -21.2428 N   0  0  0  0  0  0  0  0  0  0  0  0
   28.5386  -23.0250  -16.4598 C   0  0  0  0  0  0  0  0  0  0  0  0
   28.0316  -23.4378  -15.3876 O   0  0  0  0  0  0  0  0  0  0  0  0
   27.8049  -19.3567  -16.5418 C   0  0  0  0  0  0  0  0  0  0  0  0
   27.4863  -20.7395  -16.0846 C   0  0  2  0  0  0  0  0  0  0  0  0
   28.2487  -21.6958  -16.8617 N   0  0  0  0  0  0  0  0  0  0  0  0
   26.0235  -21.0491  -16.1500 C   0  0  0  0  0  0  0  0  0  0  0  0
   25.5675  -21.5317  -17.2041 O   0  0  0  0  0  0  0  0  0  0  0  0
   25.1858  -20.7969  -15.0368 N   0  0  0  0  0  0  0  0  0  0  0  0
   23.7685  -20.9754  -15.1126 C   0  0  1  0  0  0  0  0  0  0  0  0
   23.0798  -20.8181  -13.7560 C   0  0  0  0  0  0  0  0  0  0  0  0
   21.6018  -21.0088  -13.8752 C   0  0  0  0  0  0  0  0  0  0  0  0
   20.8774  -20.7361  -12.5975 C   0  0  0  0  0  0  0  0  0  0  0  0
   19.3978  -20.7791  -12.7069 C   0  0  0  0  0  0  0  0  0  0  0  0
   18.6475  -20.4931  -11.5375 N   0  0  0  0  0  0  0  0  0  0  0  0
   23.1733  -19.9750  -16.0409 C   0  0  0  0  0  0  0  0  0  0  0  0
   22.1209  -20.3014  -16.8799 O   0  0  0  0  0  0  0  0  0  0  0  0
   23.5974  -18.7817  -16.1093 O   0  0  0  0  0  0  0  0  0  0  0  0
  2  1  1  1
  2  3  1  0
  3  4  1  0
  5  4  1  0
  5  6  1  0
  6  7  1  0
  8 12  1  0
  8  2  1  0
  9  8  2  0
 11 10  1  6
 11 13  1  0
 11 12  1  0
 13 15  1  0
 14 13  2  0
 15 16  1  0
 16 17  1  1
 16 22  1  0
 18 17  1  0
 19 20  1  0
 19 18  1  0
 21 20  1  0
 22 24  2  0
 22 23  1  0
M  END
$$$$
