KAK.pdb
     RDKit          3D

 24 23  0  0  1  0  0  0  0  0999 V2000
   25.3983  -21.4201  -11.7877 N   0  0  0  0  0  0  0  0  0  0  0  0
   26.1845  -20.6489  -12.7173 C   0  0  1  0  0  0  0  0  0  0  0  0
   26.9381  -21.6179  -13.5953 C   0  0  0  0  0  0  0  0  0  0  0  0
   26.0843  -22.8622  -13.7250 C   0  0  0  0  0  0  0  0  0  0  0  0
   24.9704  -22.6679  -14.7328 C   0  0  0  0  0  0  0  0  0  0  0  0
   24.3677  -24.0559  -14.9812 C   0  0  0  0  0  0  0  0  0  0  0  0
   23.1794  -23.9747  -15.7920 N   0  0  0  0  0  0  0  0  0  0  0  0
   25.3187  -19.7389  -13.4716 C   0  0  0  0  0  0  0  0  0  0  0  0
   24.0969  -19.7056  -13.1830 O   0  0  0  0  0  0  0  0  0  0  0  0
   25.8520  -16.9471  -15.9219 C   0  0  0  0  0  0  0  0  0  0  0  0
   24.9674  -17.9064  -15.2007 C   0  0  2  0  0  0  0  0  0  0  0  0
   25.7777  -18.8903  -14.5115 N   0  0  0  0  0  0  0  0  0  0  0  0
   23.9773  -18.5731  -16.1035 C   0  0  0  0  0  0  0  0  0  0  0  0
   24.2614  -19.6935  -16.5683 O   0  0  0  0  0  0  0  0  0  0  0  0
   22.7505  -17.9394  -16.4163 N   0  0  0  0  0  0  0  0  0  0  0  0
   21.7852  -18.5604  -17.2700 C   0  0  1  0  0  0  0  0  0  0  0  0
   20.4067  -17.9039  -17.1787 C   0  0  0  0  0  0  0  0  0  0  0  0
   19.4034  -18.6363  -18.0105 C   0  0  0  0  0  0  0  0  0  0  0  0
   18.0690  -17.9651  -18.0337 C   0  0  0  0  0  0  0  0  0  0  0  0
   17.0501  -18.6487  -18.8689 C   0  0  0  0  0  0  0  0  0  0  0  0
   15.8146  -17.9810  -19.0693 N   0  0  0  0  0  0  0  0  0  0  0  0
   22.2295  -18.4843  -18.6890 C   0  0  0  0  0  0  0  0  0  0  0  0
   21.9408  -19.4926  -19.5935 O   0  0  0  0  0  0  0  0  0  0  0  0
   22.8902  -17.4990  -19.1375 O   0  0  0  0  0  0  0  0  0  0  0  0
  2  1  1  1
  2  3  1  0
  3  4  1  0
  5  4  1  0
  5  6  1  0
  6  7  1  0
  8 12  1  0
  8  2  1  0
  9  8  2  0
 11 10  1  6
 11 13  1  0
 11 12  1  0
 13 15  1  0
 14 13  2  0
 15 16  1  0
 16 17  1  6
 16 22  1  0
 18 17  1  0
 19 20  1  0
 19 18  1  0
 21 20  1  0
 22 24  2  0
 22 23  1  0
M  END
$$$$
