KAK.pdb
     RDKit          3D

 24 23  0  0  1  0  0  0  0  0999 V2000
   12.8829  -23.3934    0.8498 N   0  0  0  0  0  0  0  0  0  0  0  0
   13.9708  -22.4493    0.8030 C   0  0  1  0  0  0  0  0  0  0  0  0
   13.8281  -21.6472   -0.4674 C   0  0  0  0  0  0  0  0  0  0  0  0
   13.9086  -22.6217   -1.6240 C   0  0  0  0  0  0  0  0  0  0  0  0
   13.9365  -21.9007   -2.9558 C   0  0  0  0  0  0  0  0  0  0  0  0
   14.2212  -22.9694   -4.0179 C   0  0  0  0  0  0  0  0  0  0  0  0
   14.2984  -22.3920   -5.3358 N   0  0  0  0  0  0  0  0  0  0  0  0
   13.9686  -21.6218    2.0121 C   0  0  0  0  0  0  0  0  0  0  0  0
   12.9861  -20.8657    2.2127 O   0  0  0  0  0  0  0  0  0  0  0  0
   15.1334  -21.7211    5.3704 C   0  0  0  0  0  0  0  0  0  0  0  0
   15.0284  -20.8253    4.1833 C   0  0  2  0  0  0  0  0  0  0  0  0
   15.0119  -21.6223    2.9733 N   0  0  0  0  0  0  0  0  0  0  0  0
   16.1201  -19.8030    4.1300 C   0  0  0  0  0  0  0  0  0  0  0  0
   17.1354  -20.0565    3.4540 O   0  0  0  0  0  0  0  0  0  0  0  0
   15.9942  -18.5807    4.8334 N   0  0  0  0  0  0  0  0  0  0  0  0
   17.0604  -17.6280    4.8726 C   0  0  1  0  0  0  0  0  0  0  0  0
   16.5687  -16.1853    4.7441 C   0  0  0  0  0  0  0  0  0  0  0  0
   17.7139  -15.2248    4.7152 C   0  0  0  0  0  0  0  0  0  0  0  0
   17.2814  -13.8142    4.4808 C   0  0  0  0  0  0  0  0  0  0  0  0
   18.3946  -12.8381    4.3754 C   0  0  0  0  0  0  0  0  0  0  0  0
   18.0591  -11.4954    4.0640 N   0  0  0  0  0  0  0  0  0  0  0  0
   17.8029  -17.7400    6.1583 C   0  0  0  0  0  0  0  0  0  0  0  0
   17.1454  -17.9531    7.3584 O   0  0  0  0  0  0  0  0  0  0  0  0
   19.0664  -17.6466    6.2185 O   0  0  0  0  0  0  0  0  0  0  0  0
  2  1  1  1
  2  3  1  0
  3  4  1  0
  5  4  1  0
  5  6  1  0
  6  7  1  0
  8 12  1  0
  8  2  1  0
  9  8  2  0
 11 10  1  1
 11 13  1  0
 11 12  1  0
 13 15  1  0
 14 13  2  0
 15 16  1  0
 16 17  1  1
 16 22  1  0
 18 17  1  0
 19 20  1  0
 19 18  1  0
 21 20  1  0
 22 24  2  0
 22 23  1  0
M  END
$$$$
