KAK.pdb
     RDKit          3D

 24 23  0  0  1  0  0  0  0  0999 V2000
   25.6113  -19.4753  -16.7553 N   0  0  0  0  0  0  0  0  0  0  0  0
   25.2202  -19.9157  -15.4399 C   0  0  1  0  0  0  0  0  0  0  0  0
   26.2615  -19.4256  -14.4635 C   0  0  0  0  0  0  0  0  0  0  0  0
   27.4291  -20.3878  -14.5332 C   0  0  0  0  0  0  0  0  0  0  0  0
   27.8700  -20.6223  -15.9632 C   0  0  0  0  0  0  0  0  0  0  0  0
   29.1289  -21.4945  -15.8880 C   0  0  0  0  0  0  0  0  0  0  0  0
   29.6932  -21.7153  -17.1952 N   0  0  0  0  0  0  0  0  0  0  0  0
   23.8697  -19.4380  -15.1324 C   0  0  0  0  0  0  0  0  0  0  0  0
   23.3858  -19.7092  -14.0057 O   0  0  0  0  0  0  0  0  0  0  0  0
   21.3888  -17.0963  -16.6733 C   0  0  0  0  0  0  0  0  0  0  0  0
   21.7210  -18.2343  -15.7693 C   0  0  2  0  0  0  0  0  0  0  0  0
   23.0725  -18.6854  -16.0326 N   0  0  0  0  0  0  0  0  0  0  0  0
   20.7514  -19.3685  -15.8847 C   0  0  0  0  0  0  0  0  0  0  0  0
   21.0058  -20.2846  -16.6898 O   0  0  0  0  0  0  0  0  0  0  0  0
   19.5766  -19.3921  -15.0949 N   0  0  0  0  0  0  0  0  0  0  0  0
   18.6262  -20.4559  -15.2009 C   0  0  1  0  0  0  0  0  0  0  0  0
   18.2898  -21.0848  -13.8478 C   0  0  0  0  0  0  0  0  0  0  0  0
   17.2998  -22.1946  -13.9992 C   0  0  0  0  0  0  0  0  0  0  0  0
   17.7534  -23.4670  -13.3611 C   0  0  0  0  0  0  0  0  0  0  0  0
   16.8451  -24.6213  -13.5748 C   0  0  0  0  0  0  0  0  0  0  0  0
   17.2524  -25.8778  -13.0577 N   0  0  0  0  0  0  0  0  0  0  0  0
   17.3565  -19.9536  -15.7946 C   0  0  0  0  0  0  0  0  0  0  0  0
   17.0728  -18.5996  -15.8587 O   0  0  0  0  0  0  0  0  0  0  0  0
   16.4771  -20.7352  -16.2681 O   0  0  0  0  0  0  0  0  0  0  0  0
  2  1  1  6
  2  3  1  0
  3  4  1  0
  5  4  1  0
  5  6  1  0
  6  7  1  0
  8 12  1  0
  8  2  1  0
  9  8  2  0
 11 10  1  6
 11 13  1  0
 11 12  1  0
 13 15  1  0
 14 13  2  0
 15 16  1  0
 16 17  1  1
 16 22  1  0
 18 17  1  0
 19 20  1  0
 19 18  1  0
 21 20  1  0
 22 24  2  0
 22 23  1  0
M  END
$$$$
