KAK.pdb
     RDKit          3D

 24 23  0  0  1  0  0  0  0  0999 V2000
   16.9127  -13.4432  -18.2535 N   0  0  0  0  0  0  0  0  0  0  0  0
   16.7435  -12.7336  -17.0105 C   0  0  1  0  0  0  0  0  0  0  0  0
   17.0852  -13.6843  -15.8892 C   0  0  0  0  0  0  0  0  0  0  0  0
   15.9647  -14.6999  -15.8058 C   0  0  0  0  0  0  0  0  0  0  0  0
   16.0991  -15.5743  -14.5763 C   0  0  0  0  0  0  0  0  0  0  0  0
   15.0176  -16.6548  -14.6962 C   0  0  0  0  0  0  0  0  0  0  0  0
   15.2199  -17.7087  -13.7348 N   0  0  0  0  0  0  0  0  0  0  0  0
   17.5653  -11.5206  -17.0101 C   0  0  0  0  0  0  0  0  0  0  0  0
   18.7033  -11.5738  -17.5385 O   0  0  0  0  0  0  0  0  0  0  0  0
   17.0812   -7.9269  -15.9977 C   0  0  0  0  0  0  0  0  0  0  0  0
   17.9247   -9.0597  -16.4752 C   0  0  2  0  0  0  0  0  0  0  0  0
   17.1527  -10.2856  -16.4474 N   0  0  0  0  0  0  0  0  0  0  0  0
   19.1898   -9.2117  -15.6902 C   0  0  0  0  0  0  0  0  0  0  0  0
   19.1643   -9.9056  -14.6559 O   0  0  0  0  0  0  0  0  0  0  0  0
   20.3815   -8.5792  -16.1194 N   0  0  0  0  0  0  0  0  0  0  0  0
   21.6044   -8.7159  -15.3900 C   0  0  1  0  0  0  0  0  0  0  0  0
   22.7462   -9.2631  -16.2482 C   0  0  0  0  0  0  0  0  0  0  0  0
   23.9697   -9.5102  -15.4255 C   0  0  0  0  0  0  0  0  0  0  0  0
   25.0587  -10.1845  -16.1944 C   0  0  0  0  0  0  0  0  0  0  0  0
   26.1988  -10.6516  -15.3668 C   0  0  0  0  0  0  0  0  0  0  0  0
   27.1524  -11.4993  -15.9869 N   0  0  0  0  0  0  0  0  0  0  0  0
   22.0339   -7.3947  -14.8545 C   0  0  0  0  0  0  0  0  0  0  0  0
   22.7436   -7.2892  -13.6699 O   0  0  0  0  0  0  0  0  0  0  0  0
   21.7731   -6.3070  -15.4523 O   0  0  0  0  0  0  0  0  0  0  0  0
  2  1  1  6
  2  3  1  0
  3  4  1  0
  5  4  1  0
  5  6  1  0
  6  7  1  0
  8 12  1  0
  8  2  1  0
  9  8  2  0
 11 10  1  1
 11 13  1  0
 11 12  1  0
 13 15  1  0
 14 13  2  0
 15 16  1  0
 16 17  1  6
 16 22  1  0
 18 17  1  0
 19 20  1  0
 19 18  1  0
 21 20  1  0
 22 24  2  0
 22 23  1  0
M  END
$$$$
