KAK.pdb
     RDKit          3D

 24 23  0  0  1  0  0  0  0  0999 V2000
   29.6078  -28.9080  -17.3400 N   0  0  0  0  0  0  0  0  0  0  0  0
   28.4851  -29.2671  -16.5108 C   0  0  1  0  0  0  0  0  0  0  0  0
   27.2693  -28.5542  -17.0506 C   0  0  0  0  0  0  0  0  0  0  0  0
   27.1255  -27.2622  -16.2734 C   0  0  0  0  0  0  0  0  0  0  0  0
   26.8590  -26.0885  -17.1929 C   0  0  0  0  0  0  0  0  0  0  0  0
   25.3440  -26.0612  -17.4280 C   0  0  0  0  0  0  0  0  0  0  0  0
   24.9643  -24.9602  -18.2763 N   0  0  0  0  0  0  0  0  0  0  0  0
   28.3329  -30.7239  -16.4768 C   0  0  0  0  0  0  0  0  0  0  0  0
   28.5504  -31.3688  -17.5322 O   0  0  0  0  0  0  0  0  0  0  0  0
   27.6159  -33.3183  -13.8450 C   0  0  0  0  0  0  0  0  0  0  0  0
   27.7794  -32.8905  -15.2637 C   0  0  2  0  0  0  0  0  0  0  0  0
   27.9535  -31.4531  -15.3206 N   0  0  0  0  0  0  0  0  0  0  0  0
   26.6409  -33.3216  -16.1342 C   0  0  0  0  0  0  0  0  0  0  0  0
   25.9839  -32.4444  -16.7264 O   0  0  0  0  0  0  0  0  0  0  0  0
   26.3252  -34.6945  -16.2756 N   0  0  0  0  0  0  0  0  0  0  0  0
   25.2825  -35.1351  -17.1502 C   0  0  1  0  0  0  0  0  0  0  0  0
   25.5750  -34.8285  -18.6199 C   0  0  0  0  0  0  0  0  0  0  0  0
   24.4613  -35.2954  -19.5011 C   0  0  0  0  0  0  0  0  0  0  0  0
   24.6946  -34.9848  -20.9436 C   0  0  0  0  0  0  0  0  0  0  0  0
   23.6948  -35.5728  -21.8698 C   0  0  0  0  0  0  0  0  0  0  0  0
   23.8187  -35.2616  -23.2483 N   0  0  0  0  0  0  0  0  0  0  0  0
   25.0933  -36.6066  -17.0240 C   0  0  0  0  0  0  0  0  0  0  0  0
   23.8315  -37.1775  -17.0251 O   0  0  0  0  0  0  0  0  0  0  0  0
   26.0717  -37.4055  -16.9098 O   0  0  0  0  0  0  0  0  0  0  0  0
  2  1  1  6
  2  3  1  0
  3  4  1  0
  5  4  1  0
  5  6  1  0
  6  7  1  0
  8 12  1  0
  8  2  1  0
  9  8  2  0
 11 10  1  1
 11 13  1  0
 11 12  1  0
 13 15  1  0
 14 13  2  0
 15 16  1  0
 16 17  1  6
 16 22  1  0
 18 17  1  0
 19 20  1  0
 19 18  1  0
 21 20  1  0
 22 24  2  0
 22 23  1  0
M  END
$$$$
