KAK.pdb
     RDKit          3D

 24 23  0  0  1  0  0  0  0  0999 V2000
   23.8167  -14.9361  -18.5011 N   0  0  0  0  0  0  0  0  0  0  0  0
   23.9505  -13.5670  -18.9309 C   0  0  1  0  0  0  0  0  0  0  0  0
   22.9622  -13.3381  -20.0483 C   0  0  0  0  0  0  0  0  0  0  0  0
   23.1295  -14.4755  -21.0344 C   0  0  0  0  0  0  0  0  0  0  0  0
   22.0312  -15.5075  -20.8823 C   0  0  0  0  0  0  0  0  0  0  0  0
   22.2539  -16.5401  -21.9937 C   0  0  0  0  0  0  0  0  0  0  0  0
   21.2527  -17.5756  -21.9562 N   0  0  0  0  0  0  0  0  0  0  0  0
   23.7563  -12.6636  -17.7939 C   0  0  0  0  0  0  0  0  0  0  0  0
   22.5813  -12.4126  -17.4284 O   0  0  0  0  0  0  0  0  0  0  0  0
   25.9925  -10.7237  -15.4582 C   0  0  0  0  0  0  0  0  0  0  0  0
   24.6537  -11.1361  -15.9681 C   0  0  2  0  0  0  0  0  0  0  0  0
   24.8179  -12.0529  -17.0782 N   0  0  0  0  0  0  0  0  0  0  0  0
   23.8000   -9.9722  -16.3635 C   0  0  0  0  0  0  0  0  0  0  0  0
   23.9239   -9.5118  -17.5145 O   0  0  0  0  0  0  0  0  0  0  0  0
   22.8772   -9.4141  -15.4462 N   0  0  0  0  0  0  0  0  0  0  0  0
   22.0560   -8.2972  -15.7987 C   0  0  1  0  0  0  0  0  0  0  0  0
   20.7702   -8.7122  -16.5159 C   0  0  0  0  0  0  0  0  0  0  0  0
   19.9465   -7.5195  -16.8813 C   0  0  0  0  0  0  0  0  0  0  0  0
   18.6862   -7.8826  -17.5966 C   0  0  0  0  0  0  0  0  0  0  0  0
   17.8199   -6.7282  -17.9428 C   0  0  0  0  0  0  0  0  0  0  0  0
   17.2398   -6.0019  -16.8713 N   0  0  0  0  0  0  0  0  0  0  0  0
   21.6683   -7.5386  -14.5776 C   0  0  0  0  0  0  0  0  0  0  0  0
   21.7947   -8.0881  -13.3128 O   0  0  0  0  0  0  0  0  0  0  0  0
   21.2059   -6.3589  -14.6344 O   0  0  0  0  0  0  0  0  0  0  0  0
  2  1  1  1
  2  3  1  0
  3  4  1  0
  5  4  1  0
  5  6  1  0
  6  7  1  0
  8 12  1  0
  8  2  1  0
  9  8  2  0
 11 10  1  6
 11 13  1  0
 11 12  1  0
 13 15  1  0
 14 13  2  0
 15 16  1  0
 16 17  1  1
 16 22  1  0
 18 17  1  0
 19 20  1  0
 19 18  1  0
 21 20  1  0
 22 24  2  0
 22 23  1  0
M  END
$$$$
