KAK.pdb
     RDKit          3D

 24 23  0  0  1  0  0  0  0  0999 V2000
   17.1894  -10.4727  -13.1730 N   0  0  0  0  0  0  0  0  0  0  0  0
   16.8658   -9.0782  -13.3396 C   0  0  1  0  0  0  0  0  0  0  0  0
   15.5496   -8.9971  -14.0738 C   0  0  0  0  0  0  0  0  0  0  0  0
   15.7867   -9.5150  -15.4772 C   0  0  0  0  0  0  0  0  0  0  0  0
   14.5342   -9.4174  -16.3234 C   0  0  0  0  0  0  0  0  0  0  0  0
   14.9091   -9.9528  -17.7105 C   0  0  0  0  0  0  0  0  0  0  0  0
   13.7725   -9.9572  -18.5961 N   0  0  0  0  0  0  0  0  0  0  0  0
   16.8423   -8.4100  -12.0360 C   0  0  0  0  0  0  0  0  0  0  0  0
   16.0884   -8.8729  -11.1446 O   0  0  0  0  0  0  0  0  0  0  0  0
   18.8234   -5.7150  -10.3344 C   0  0  0  0  0  0  0  0  0  0  0  0
   17.6222   -6.5922  -10.4363 C   0  0  2  0  0  0  0  0  0  0  0  0
   17.6216   -7.2682  -11.7180 N   0  0  0  0  0  0  0  0  0  0  0  0
   16.3409   -5.8470  -10.2293 C   0  0  0  0  0  0  0  0  0  0  0  0
   15.6475   -5.5739  -11.2276 O   0  0  0  0  0  0  0  0  0  0  0  0
   15.9343   -5.4656   -8.9279 N   0  0  0  0  0  0  0  0  0  0  0  0
   14.7565   -4.6829   -8.7124 C   0  0  1  0  0  0  0  0  0  0  0  0
   14.1196   -4.9380   -7.3453 C   0  0  0  0  0  0  0  0  0  0  0  0
   12.8771   -4.1258   -7.1683 C   0  0  0  0  0  0  0  0  0  0  0  0
   12.2081   -4.3687   -5.8549 C   0  0  0  0  0  0  0  0  0  0  0  0
   10.8911   -3.7015   -5.7016 C   0  0  0  0  0  0  0  0  0  0  0  0
   10.1513   -3.9787   -4.5235 N   0  0  0  0  0  0  0  0  0  0  0  0
   15.0808   -3.2322   -8.7969 C   0  0  0  0  0  0  0  0  0  0  0  0
   14.1268   -2.2967   -9.1609 O   0  0  0  0  0  0  0  0  0  0  0  0
   16.2393   -2.7835   -8.5415 O   0  0  0  0  0  0  0  0  0  0  0  0
  2  1  1  1
  2  3  1  0
  3  4  1  0
  5  4  1  0
  5  6  1  0
  6  7  1  0
  8 12  1  0
  8  2  1  0
  9  8  2  0
 11 10  1  6
 11 13  1  0
 11 12  1  0
 13 15  1  0
 14 13  2  0
 15 16  1  0
 16 17  1  1
 16 22  1  0
 18 17  1  0
 19 20  1  0
 19 18  1  0
 21 20  1  0
 22 24  2  0
 22 23  1  0
M  END
$$$$
