KAK.pdb
     RDKit          3D

 24 23  0  0  1  0  0  0  0  0999 V2000
   12.8250  -10.6842  -10.2621 N   0  0  0  0  0  0  0  0  0  0  0  0
   14.1921  -10.3196   -9.9881 C   0  0  1  0  0  0  0  0  0  0  0  0
   15.0338  -10.7880  -11.1499 C   0  0  0  0  0  0  0  0  0  0  0  0
   14.7623  -12.2669  -11.3323 C   0  0  0  0  0  0  0  0  0  0  0  0
   15.6668  -12.8710  -12.3865 C   0  0  0  0  0  0  0  0  0  0  0  0
   15.2706  -14.3480  -12.4985 C   0  0  0  0  0  0  0  0  0  0  0  0
   16.1258  -15.0524  -13.4197 N   0  0  0  0  0  0  0  0  0  0  0  0
   14.2878   -8.8771   -9.7500 C   0  0  0  0  0  0  0  0  0  0  0  0
   13.5839   -8.1108  -10.4531 O   0  0  0  0  0  0  0  0  0  0  0  0
   15.6669   -6.5895   -7.1618 C   0  0  0  0  0  0  0  0  0  0  0  0
   15.3262   -6.8672   -8.5864 C   0  0  2  0  0  0  0  0  0  0  0  0
   15.1299   -8.2910   -8.7704 N   0  0  0  0  0  0  0  0  0  0  0  0
   16.3546   -6.3460   -9.5407 C   0  0  0  0  0  0  0  0  0  0  0  0
   17.2775   -7.1067   -9.8893 O   0  0  0  0  0  0  0  0  0  0  0  0
   16.2732   -5.0200  -10.0302 N   0  0  0  0  0  0  0  0  0  0  0  0
   16.9379   -4.6259  -11.2340 C   0  0  1  0  0  0  0  0  0  0  0  0
   16.4867   -5.4360  -12.4505 C   0  0  0  0  0  0  0  0  0  0  0  0
   17.0990   -4.9084  -13.7081 C   0  0  0  0  0  0  0  0  0  0  0  0
   16.7565   -5.7295  -14.9082 C   0  0  0  0  0  0  0  0  0  0  0  0
   17.3451   -5.2382  -16.1791 C   0  0  0  0  0  0  0  0  0  0  0  0
   16.9782   -5.9115  -17.3725 N   0  0  0  0  0  0  0  0  0  0  0  0
   16.6705   -3.1898  -11.5222 C   0  0  0  0  0  0  0  0  0  0  0  0
   17.6334   -2.3739  -12.0925 O   0  0  0  0  0  0  0  0  0  0  0  0
   15.5550   -2.6454  -11.2616 O   0  0  0  0  0  0  0  0  0  0  0  0
  2  1  1  6
  2  3  1  0
  3  4  1  0
  5  4  1  0
  5  6  1  0
  6  7  1  0
  8 12  1  0
  8  2  1  0
  9  8  2  0
 11 10  1  1
 11 13  1  0
 11 12  1  0
 13 15  1  0
 14 13  2  0
 15 16  1  0
 16 17  1  6
 16 22  1  0
 18 17  1  0
 19 20  1  0
 19 18  1  0
 21 20  1  0
 22 24  2  0
 22 23  1  0
M  END
$$$$
