KAK.pdb
     RDKit          3D

 24 23  0  0  1  0  0  0  0  0999 V2000
   16.6919  -12.2552  -11.5476 N   0  0  0  0  0  0  0  0  0  0  0  0
   16.3763  -11.0013  -12.1841 C   0  0  1  0  0  0  0  0  0  0  0  0
   14.9252  -11.0481  -12.5962 C   0  0  0  0  0  0  0  0  0  0  0  0
   14.5035  -12.5028  -12.5868 C   0  0  0  0  0  0  0  0  0  0  0  0
   13.0399  -12.6584  -12.9444 C   0  0  0  0  0  0  0  0  0  0  0  0
   12.7473  -14.1633  -12.9153 C   0  0  0  0  0  0  0  0  0  0  0  0
   13.5886  -14.8794  -13.8402 N   0  0  0  0  0  0  0  0  0  0  0  0
   16.6848   -9.8894  -11.2812 C   0  0  0  0  0  0  0  0  0  0  0  0
   16.3184   -9.9777  -10.0832 O   0  0  0  0  0  0  0  0  0  0  0  0
   18.7426   -6.7570  -11.4250 C   0  0  0  0  0  0  0  0  0  0  0  0
   17.6671   -7.5896  -10.8144 C   0  0  2  0  0  0  0  0  0  0  0  0
   17.3744   -8.7152  -11.6787 N   0  0  0  0  0  0  0  0  0  0  0  0
   16.4245   -6.8083  -10.5222 C   0  0  0  0  0  0  0  0  0  0  0  0
   15.5466   -6.7418  -11.4035 O   0  0  0  0  0  0  0  0  0  0  0  0
   16.2589   -6.1639   -9.2725 N   0  0  0  0  0  0  0  0  0  0  0  0
   15.0647   -5.4426   -8.9562 C   0  0  1  0  0  0  0  0  0  0  0  0
   14.9643   -5.0881   -7.4717 C   0  0  0  0  0  0  0  0  0  0  0  0
   13.7051   -4.3371   -7.1797 C   0  0  0  0  0  0  0  0  0  0  0  0
   13.0955   -4.7151   -5.8693 C   0  0  0  0  0  0  0  0  0  0  0  0
   12.9035   -3.5824   -4.9295 C   0  0  0  0  0  0  0  0  0  0  0  0
   11.5940   -3.0515   -4.8049 N   0  0  0  0  0  0  0  0  0  0  0  0
   15.0120   -4.1714   -9.7296 C   0  0  0  0  0  0  0  0  0  0  0  0
   13.8085   -3.6222  -10.1394 O   0  0  0  0  0  0  0  0  0  0  0  0
   16.0596   -3.5321  -10.0496 O   0  0  0  0  0  0  0  0  0  0  0  0
  2  1  1  1
  2  3  1  0
  3  4  1  0
  5  4  1  0
  5  6  1  0
  6  7  1  0
  8 12  1  0
  8  2  1  0
  9  8  2  0
 11 10  1  6
 11 13  1  0
 11 12  1  0
 13 15  1  0
 14 13  2  0
 15 16  1  0
 16 17  1  1
 16 22  1  0
 18 17  1  0
 19 20  1  0
 19 18  1  0
 21 20  1  0
 22 24  2  0
 22 23  1  0
M  END
$$$$
