KAK.pdb
     RDKit          3D

 24 23  0  0  1  0  0  0  0  0999 V2000
   25.6500  -21.2185   -8.7621 N   0  0  0  0  0  0  0  0  0  0  0  0
   24.7574  -20.8982   -9.8473 C   0  0  1  0  0  0  0  0  0  0  0  0
   23.7191  -19.9385   -9.3195 C   0  0  0  0  0  0  0  0  0  0  0  0
   22.3633  -20.5716   -9.5543 C   0  0  0  0  0  0  0  0  0  0  0  0
   21.9636  -21.4699   -8.4021 C   0  0  0  0  0  0  0  0  0  0  0  0
   20.5541  -21.9810   -8.7236 C   0  0  0  0  0  0  0  0  0  0  0  0
   20.1291  -22.9797   -7.7759 N   0  0  0  0  0  0  0  0  0  0  0  0
   25.5172  -20.3619  -10.9795 C   0  0  0  0  0  0  0  0  0  0  0  0
   25.8858  -19.1623  -10.9327 O   0  0  0  0  0  0  0  0  0  0  0  0
   27.4569  -21.7474  -13.8126 C   0  0  0  0  0  0  0  0  0  0  0  0
   26.6570  -20.6281  -13.2381 C   0  0  2  0  0  0  0  0  0  0  0  0
   25.8631  -21.1174  -12.1292 N   0  0  0  0  0  0  0  0  0  0  0  0
   25.7896  -19.9540  -14.2546 C   0  0  0  0  0  0  0  0  0  0  0  0
   24.5985  -20.3079  -14.3436 O   0  0  0  0  0  0  0  0  0  0  0  0
   26.3176  -18.9404  -15.0901 N   0  0  0  0  0  0  0  0  0  0  0  0
   25.5388  -18.3542  -16.1371 C   0  0  1  0  0  0  0  0  0  0  0  0
   26.1953  -17.1090  -16.7356 C   0  0  0  0  0  0  0  0  0  0  0  0
   25.3677  -16.5418  -17.8438 C   0  0  0  0  0  0  0  0  0  0  0  0
   26.0258  -15.3873  -18.5262 C   0  0  0  0  0  0  0  0  0  0  0  0
   25.1812  -14.7081  -19.5403 C   0  0  0  0  0  0  0  0  0  0  0  0
   25.7438  -13.5987  -20.2222 N   0  0  0  0  0  0  0  0  0  0  0  0
   25.3391  -19.3347  -17.2397 C   0  0  0  0  0  0  0  0  0  0  0  0
   26.3437  -20.2070  -17.6242 O   0  0  0  0  0  0  0  0  0  0  0  0
   24.2463  -19.4195  -17.8778 O   0  0  0  0  0  0  0  0  0  0  0  0
  2  1  1  1
  2  3  1  0
  3  4  1  0
  5  4  1  0
  5  6  1  0
  6  7  1  0
  8 12  1  0
  8  2  1  0
  9  8  2  0
 11 10  1  6
 11 13  1  0
 11 12  1  0
 13 15  1  0
 14 13  2  0
 15 16  1  0
 16 17  1  6
 16 22  1  0
 18 17  1  0
 19 20  1  0
 19 18  1  0
 21 20  1  0
 22 24  2  0
 22 23  1  0
M  END
$$$$
