PIQ.pdb
     RDKit          3D

 25 25  0  0  1  0  0  0  0  0999 V2000
    6.8338  -15.2999   21.0847 N   0  0  0  0  0  0  0  0  0  0  0  0
    6.6489  -15.1226   19.6320 C   0  0  0  0  0  0  0  0  0  0  0  0
    7.2613  -13.7496   19.4352 C   0  0  0  0  0  0  0  0  0  0  0  0
    8.4075  -13.6913   20.4244 C   0  0  0  0  0  0  0  0  0  0  0  0
    8.2655  -14.9866   21.1716 C   0  0  1  0  0  0  0  0  0  0  0  0
    8.6159  -14.8027   22.5818 C   0  0  0  0  0  0  0  0  0  0  0  0
    9.8581  -14.7466   22.8869 O   0  0  0  0  0  0  0  0  0  0  0  0
    5.8370  -11.4532   25.9279 C   0  0  0  0  0  0  0  0  0  0  0  0
    6.9428  -12.1947   25.2554 C   0  0  0  0  0  0  0  0  0  0  0  0
    7.2699  -13.5367   25.7800 C   0  0  2  0  0  0  0  0  0  0  0  0
    8.0176  -13.3146   27.1107 C   0  0  0  0  0  0  0  0  0  0  0  0
    8.1099  -14.4432   24.9761 C   0  0  2  0  0  0  0  0  0  0  0  0
    7.6543  -14.6829   23.6350 N   0  0  0  0  0  0  0  0  0  0  0  0
    8.3299  -15.7782   25.6089 C   0  0  0  0  0  0  0  0  0  0  0  0
    7.4094  -16.6263   25.7280 O   0  0  0  0  0  0  0  0  0  0  0  0
   12.8843  -21.4290   25.5459 N   0  0  0  0  0  0  0  0  0  0  0  0
   12.4742  -20.0693   25.2629 C   0  0  0  0  0  0  0  0  0  0  0  0
   13.0853  -19.5096   24.3497 O   0  0  0  0  0  0  0  0  0  0  0  0
   11.4217  -19.4688   26.0321 C   0  0  0  0  0  0  0  0  0  0  0  0
   10.8808  -18.1460   25.7186 C   0  0  0  0  0  0  0  0  0  0  0  0
    9.8682  -17.5314   26.6219 C   0  0  2  0  0  0  0  0  0  0  0  0
    9.5988  -16.1547   26.1094 N   0  0  0  0  0  0  0  0  0  0  0  0
   10.2486  -17.4364   28.0441 C   0  0  0  0  0  0  0  0  0  0  0  0
   10.2570  -18.5012   28.9197 O   0  0  0  0  0  0  0  0  0  0  0  0
   10.5887  -16.2978   28.4818 O   0  0  0  0  0  0  0  0  0  0  0  0
  1  5  1  0
  2  1  1  0
  2  3  1  0
  3  4  1  0
  4  5  1  0
  5  6  1  1
  6  7  2  0
  9 10  1  0
  9  8  1  0
 10 12  1  0
 10 11  1  1
 12 13  1  6
 12 14  1  0
 13  6  1  0
 14 15  2  0
 14 22  1  0
 16 17  1  0
 17 19  1  0
 18 17  2  0
 19 20  1  0
 21 20  1  6
 21 23  1  0
 22 21  1  0
 23 25  2  0
 23 24  1  0
M  END
$$$$
