PIQ.pdb
     RDKit          3D

 25 25  0  0  1  0  0  0  0  0999 V2000
    6.8836  -14.6066   20.9628 N   0  0  0  0  0  0  0  0  0  0  0  0
    6.6967  -14.2525   19.5432 C   0  0  0  0  0  0  0  0  0  0  0  0
    7.3263  -12.8736   19.5112 C   0  0  0  0  0  0  0  0  0  0  0  0
    8.4760  -12.9497   20.4950 C   0  0  0  0  0  0  0  0  0  0  0  0
    8.3196  -14.3241   21.0805 C   0  0  1  0  0  0  0  0  0  0  0  0
    8.6766  -14.3167   22.5010 C   0  0  0  0  0  0  0  0  0  0  0  0
    9.9198  -14.2784   22.8049 O   0  0  0  0  0  0  0  0  0  0  0  0
    5.8973  -11.4103   26.1748 C   0  0  0  0  0  0  0  0  0  0  0  0
    7.0259  -12.0627   25.4500 C   0  0  0  0  0  0  0  0  0  0  0  0
    7.3556  -13.4522   25.8288 C   0  0  2  0  0  0  0  0  0  0  0  0
    8.1227  -13.3700   27.1644 C   0  0  0  0  0  0  0  0  0  0  0  0
    8.1809  -14.2729   24.9239 C   0  0  2  0  0  0  0  0  0  0  0  0
    7.7204  -14.3501   23.5653 N   0  0  0  0  0  0  0  0  0  0  0  0
    8.3813  -15.6749   25.3986 C   0  0  0  0  0  0  0  0  0  0  0  0
    7.4656  -16.5356   25.3601 O   0  0  0  0  0  0  0  0  0  0  0  0
   12.3949  -19.4015   23.1775 N   0  0  0  0  0  0  0  0  0  0  0  0
   12.8718  -18.2625   23.9341 C   0  0  0  0  0  0  0  0  0  0  0  0
   14.0009  -17.8642   23.6389 O   0  0  0  0  0  0  0  0  0  0  0  0
   12.0385  -17.6830   24.9489 C   0  0  0  0  0  0  0  0  0  0  0  0
   10.6695  -18.1389   25.1913 C   0  0  0  0  0  0  0  0  0  0  0  0
    9.8743  -17.5286   26.2932 C   0  0  2  0  0  0  0  0  0  0  0  0
    9.6249  -16.1043   25.9195 N   0  0  0  0  0  0  0  0  0  0  0  0
   10.4977  -17.5606   27.6299 C   0  0  0  0  0  0  0  0  0  0  0  0
   10.7486  -18.7130   28.3438 O   0  0  0  0  0  0  0  0  0  0  0  0
   10.8208  -16.4517   28.1492 O   0  0  0  0  0  0  0  0  0  0  0  0
  1  5  1  0
  2  1  1  0
  2  3  1  0
  3  4  1  0
  4  5  1  0
  5  6  1  1
  6  7  2  0
  9 10  1  0
  9  8  1  0
 10 12  1  0
 10 11  1  1
 12 13  1  6
 12 14  1  0
 13  6  1  0
 14 15  2  0
 14 22  1  0
 16 17  1  0
 17 19  1  0
 18 17  2  0
 19 20  1  0
 21 20  1  6
 21 23  1  0
 22 21  1  0
 23 25  2  0
 23 24  1  0
M  END
$$$$
