PIQ.pdb
     RDKit          3D

 25 25  0  0  1  0  0  0  0  0999 V2000
    7.1364  -14.8986   20.6545 N   0  0  0  0  0  0  0  0  0  0  0  0
    7.0443  -14.6377   19.2056 C   0  0  0  0  0  0  0  0  0  0  0  0
    7.5296  -13.2026   19.1460 C   0  0  0  0  0  0  0  0  0  0  0  0
    8.5868  -13.1059   20.2271 C   0  0  0  0  0  0  0  0  0  0  0  0
    8.5192  -14.4582   20.8774 C   0  0  1  0  0  0  0  0  0  0  0  0
    8.7428  -14.3418   22.3202 C   0  0  0  0  0  0  0  0  0  0  0  0
    9.9527  -14.2893   22.7355 O   0  0  0  0  0  0  0  0  0  0  0  0
    5.5155  -11.3107   25.6824 C   0  0  0  0  0  0  0  0  0  0  0  0
    6.6556  -11.9688   24.9812 C   0  0  0  0  0  0  0  0  0  0  0  0
    7.0575  -13.3078   25.4593 C   0  0  2  0  0  0  0  0  0  0  0  0
    7.6899  -13.1025   26.8511 C   0  0  0  0  0  0  0  0  0  0  0  0
    8.0244  -14.0967   24.6743 C   0  0  2  0  0  0  0  0  0  0  0  0
    7.6914  -14.2839   23.2895 N   0  0  0  0  0  0  0  0  0  0  0  0
    8.3006  -15.4493   25.2448 C   0  0  0  0  0  0  0  0  0  0  0  0
    7.4978  -16.4088   25.1202 O   0  0  0  0  0  0  0  0  0  0  0  0
   10.3755  -19.8929   23.4031 N   0  0  0  0  0  0  0  0  0  0  0  0
   11.0945  -20.0243   24.6532 C   0  0  0  0  0  0  0  0  0  0  0  0
   11.2877  -21.1807   25.0355 O   0  0  0  0  0  0  0  0  0  0  0  0
   11.5242  -18.8478   25.3541 C   0  0  0  0  0  0  0  0  0  0  0  0
   10.8355  -17.5636   25.2221 C   0  0  0  0  0  0  0  0  0  0  0  0
    9.9131  -17.1086   26.2996 C   0  0  2  0  0  0  0  0  0  0  0  0
    9.4920  -15.7165   25.9600 N   0  0  0  0  0  0  0  0  0  0  0  0
   10.4698  -17.1101   27.6658 C   0  0  0  0  0  0  0  0  0  0  0  0
   10.4295  -18.1906   28.5210 O   0  0  0  0  0  0  0  0  0  0  0  0
   11.0196  -16.0441   28.0724 O   0  0  0  0  0  0  0  0  0  0  0  0
  1  5  1  0
  2  1  1  0
  2  3  1  0
  3  4  1  0
  4  5  1  0
  5  6  1  1
  6  7  2  0
  9 10  1  0
  9  8  1  0
 10 12  1  0
 10 11  1  1
 12 13  1  6
 12 14  1  0
 13  6  1  0
 14 15  2  0
 14 22  1  0
 16 17  1  0
 17 19  1  0
 18 17  2  0
 19 20  1  0
 21 20  1  6
 21 23  1  0
 22 21  1  0
 23 25  2  0
 23 24  1  0
M  END
$$$$
