PIQ.pdb
     RDKit          3D

 25 25  0  0  1  0  0  0  0  0999 V2000
    6.9841  -14.6781   20.6231 N   0  0  0  0  0  0  0  0  0  0  0  0
    6.8785  -14.3087   19.1990 C   0  0  0  0  0  0  0  0  0  0  0  0
    7.2794  -12.8476   19.2561 C   0  0  0  0  0  0  0  0  0  0  0  0
    8.3280  -12.7760   20.3474 C   0  0  0  0  0  0  0  0  0  0  0  0
    8.3386  -14.1774   20.8880 C   0  0  1  0  0  0  0  0  0  0  0  0
    8.5534  -14.1632   22.3368 C   0  0  0  0  0  0  0  0  0  0  0  0
    9.7590  -14.0905   22.7619 O   0  0  0  0  0  0  0  0  0  0  0  0
    5.3433  -11.4516   25.9543 C   0  0  0  0  0  0  0  0  0  0  0  0
    6.4808  -12.0560   25.2023 C   0  0  0  0  0  0  0  0  0  0  0  0
    6.8526  -13.4442   25.5454 C   0  0  2  0  0  0  0  0  0  0  0  0
    7.4610  -13.3956   26.9620 C   0  0  0  0  0  0  0  0  0  0  0  0
    7.8223  -14.1640   24.6998 C   0  0  2  0  0  0  0  0  0  0  0  0
    7.4983  -14.2261   23.3016 N   0  0  0  0  0  0  0  0  0  0  0  0
    8.0904  -15.5629   25.1496 C   0  0  0  0  0  0  0  0  0  0  0  0
    7.2093  -16.4594   25.1208 O   0  0  0  0  0  0  0  0  0  0  0  0
   12.0443  -19.4669   23.0564 N   0  0  0  0  0  0  0  0  0  0  0  0
   12.4405  -18.1574   23.5310 C   0  0  0  0  0  0  0  0  0  0  0  0
   13.4827  -17.7101   23.0469 O   0  0  0  0  0  0  0  0  0  0  0  0
   11.6320  -17.4782   24.5033 C   0  0  0  0  0  0  0  0  0  0  0  0
   10.3694  -18.0311   24.9940 C   0  0  0  0  0  0  0  0  0  0  0  0
    9.6422  -17.3412   26.0959 C   0  0  2  0  0  0  0  0  0  0  0  0
    9.3626  -15.9485   25.6346 N   0  0  0  0  0  0  0  0  0  0  0  0
   10.3488  -17.2739   27.3892 C   0  0  0  0  0  0  0  0  0  0  0  0
   10.6505  -18.3702   28.1687 O   0  0  0  0  0  0  0  0  0  0  0  0
   10.6979  -16.1293   27.8039 O   0  0  0  0  0  0  0  0  0  0  0  0
  1  5  1  0
  2  1  1  0
  2  3  1  0
  3  4  1  0
  4  5  1  0
  5  6  1  1
  6  7  2  0
  9 10  1  0
  9  8  1  0
 10 12  1  0
 10 11  1  1
 12 13  1  6
 12 14  1  0
 13  6  1  0
 14 15  2  0
 14 22  1  0
 16 17  1  0
 17 19  1  0
 18 17  2  0
 19 20  1  0
 21 20  1  6
 21 23  1  0
 22 21  1  0
 23 25  2  0
 23 24  1  0
M  END
$$$$
