PIQ.pdb
     RDKit          3D

 25 25  0  0  1  0  0  0  0  0999 V2000
    8.2558  -14.8462   20.0990 N   0  0  0  0  0  0  0  0  0  0  0  0
    7.5029  -15.3934   18.9547 C   0  0  0  0  0  0  0  0  0  0  0  0
    6.9892  -16.6901   19.5491 C   0  0  0  0  0  0  0  0  0  0  0  0
    6.7192  -16.3688   21.0049 C   0  0  0  0  0  0  0  0  0  0  0  0
    7.2156  -14.9565   21.1293 C   0  0  1  0  0  0  0  0  0  0  0  0
    7.8357  -14.7477   22.4396 C   0  0  0  0  0  0  0  0  0  0  0  0
    9.1033  -14.9022   22.5328 O   0  0  0  0  0  0  0  0  0  0  0  0
    5.7385  -11.3722   26.5037 C   0  0  0  0  0  0  0  0  0  0  0  0
    6.7242  -12.0090   25.5831 C   0  0  0  0  0  0  0  0  0  0  0  0
    7.1167  -13.4028   25.8768 C   0  0  2  0  0  0  0  0  0  0  0  0
    8.0524  -13.3438   27.1015 C   0  0  0  0  0  0  0  0  0  0  0  0
    7.8244  -14.1876   24.8489 C   0  0  2  0  0  0  0  0  0  0  0  0
    7.1100  -14.3826   23.6179 N   0  0  0  0  0  0  0  0  0  0  0  0
    8.2639  -15.5357   25.3184 C   0  0  0  0  0  0  0  0  0  0  0  0
    7.4515  -16.4704   25.5354 O   0  0  0  0  0  0  0  0  0  0  0  0
   13.9438  -19.8001   24.0433 N   0  0  0  0  0  0  0  0  0  0  0  0
   12.5410  -19.4767   24.2008 C   0  0  0  0  0  0  0  0  0  0  0  0
   11.7902  -19.9350   23.3365 O   0  0  0  0  0  0  0  0  0  0  0  0
   12.1169  -18.6694   25.3092 C   0  0  0  0  0  0  0  0  0  0  0  0
   11.3773  -17.4200   25.1289 C   0  0  0  0  0  0  0  0  0  0  0  0
   10.1002  -17.2073   25.8658 C   0  0  2  0  0  0  0  0  0  0  0  0
    9.6303  -15.8269   25.5432 N   0  0  0  0  0  0  0  0  0  0  0  0
   10.1733  -17.3471   27.3326 C   0  0  0  0  0  0  0  0  0  0  0  0
   10.1384  -18.5519   28.0018 O   0  0  0  0  0  0  0  0  0  0  0  0
   10.2748  -16.2852   28.0150 O   0  0  0  0  0  0  0  0  0  0  0  0
  1  5  1  0
  2  1  1  0
  2  3  1  0
  3  4  1  0
  4  5  1  0
  5  6  1  1
  6  7  2  0
  9 10  1  0
  9  8  1  0
 10 12  1  0
 10 11  1  1
 12 13  1  6
 12 14  1  0
 13  6  1  0
 14 15  2  0
 14 22  1  0
 16 17  1  0
 17 19  1  0
 18 17  2  0
 19 20  1  0
 21 20  1  6
 21 23  1  0
 22 21  1  0
 23 25  2  0
 23 24  1  0
M  END
$$$$
