PIQ.pdb
     RDKit          3D

 25 25  0  0  1  0  0  0  0  0999 V2000
    6.6645  -14.5945   20.9164 N   0  0  0  0  0  0  0  0  0  0  0  0
    6.4616  -14.2143   19.5057 C   0  0  0  0  0  0  0  0  0  0  0  0
    7.1280  -12.8527   19.4819 C   0  0  0  0  0  0  0  0  0  0  0  0
    8.2930  -12.9747   20.4429 C   0  0  0  0  0  0  0  0  0  0  0  0
    8.1096  -14.3529   21.0114 C   0  0  1  0  0  0  0  0  0  0  0  0
    8.4924  -14.3763   22.4250 C   0  0  0  0  0  0  0  0  0  0  0  0
    9.7412  -14.3562   22.7068 O   0  0  0  0  0  0  0  0  0  0  0  0
    5.9166  -11.3778   26.1816 C   0  0  0  0  0  0  0  0  0  0  0  0
    6.9484  -12.0979   25.3805 C   0  0  0  0  0  0  0  0  0  0  0  0
    7.2473  -13.4926   25.7657 C   0  0  2  0  0  0  0  0  0  0  0  0
    8.0342  -13.4204   27.0903 C   0  0  0  0  0  0  0  0  0  0  0  0
    8.0389  -14.3410   24.8563 C   0  0  2  0  0  0  0  0  0  0  0  0
    7.5554  -14.4205   23.5059 N   0  0  0  0  0  0  0  0  0  0  0  0
    8.2141  -15.7427   25.3418 C   0  0  0  0  0  0  0  0  0  0  0  0
    7.2660  -16.5680   25.3713 O   0  0  0  0  0  0  0  0  0  0  0  0
   11.9490  -19.7939   23.0922 N   0  0  0  0  0  0  0  0  0  0  0  0
   12.4952  -18.6085   23.7195 C   0  0  0  0  0  0  0  0  0  0  0  0
   13.6166  -18.2717   23.3325 O   0  0  0  0  0  0  0  0  0  0  0  0
   11.7330  -17.9178   24.7206 C   0  0  0  0  0  0  0  0  0  0  0  0
   10.3731  -18.3182   25.0826 C   0  0  0  0  0  0  0  0  0  0  0  0
    9.6785  -17.6325   26.2080 C   0  0  2  0  0  0  0  0  0  0  0  0
    9.4693  -16.2122   25.7963 N   0  0  0  0  0  0  0  0  0  0  0  0
   10.3846  -17.6462   27.5033 C   0  0  0  0  0  0  0  0  0  0  0  0
   10.6476  -18.7854   28.2337 O   0  0  0  0  0  0  0  0  0  0  0  0
   10.7715  -16.5335   27.9681 O   0  0  0  0  0  0  0  0  0  0  0  0
  1  5  1  0
  2  1  1  0
  2  3  1  0
  3  4  1  0
  4  5  1  0
  5  6  1  1
  6  7  2  0
  9 10  1  0
  9  8  1  0
 10 12  1  0
 10 11  1  1
 12 13  1  6
 12 14  1  0
 13  6  1  0
 14 15  2  0
 14 22  1  0
 16 17  1  0
 17 19  1  0
 18 17  2  0
 19 20  1  0
 21 20  1  6
 21 23  1  0
 22 21  1  0
 23 25  2  0
 23 24  1  0
M  END
$$$$
