LMW.pdb
     RDKit          3D

 31 32  0  0  1  0  0  0  0  0999 V2000
   29.5081  -22.4964  -17.9939 C   0  0  0  0  0  0  0  0  0  0  0  0
   28.5510  -21.3358  -18.2598 C   0  0  2  0  0  0  0  0  0  0  0  0
   29.2266  -20.4072  -19.2253 C   0  0  0  0  0  0  0  0  0  0  0  0
   28.2233  -20.6793  -16.9583 C   0  0  0  0  0  0  0  0  0  0  0  0
   27.6232  -21.5919  -15.9219 C   0  0  2  0  0  0  0  0  0  0  0  0
   26.7893  -22.6121  -16.5663 N   0  0  0  0  0  0  0  0  0  0  0  0
   26.7743  -20.8868  -14.9327 C   0  0  0  0  0  0  0  0  0  0  0  0
   26.5815  -19.6573  -15.0883 O   0  0  0  0  0  0  0  0  0  0  0  0
   19.9934  -20.3311  -11.5608 C   0  0  0  0  0  0  0  0  0  0  0  0
   21.1446  -21.2644  -12.5762 S   0  0  0  0  0  0  0  0  0  0  0  0
   22.8300  -20.6667  -12.2792 C   0  0  0  0  0  0  0  0  0  0  0  0
   23.8143  -21.3383  -13.2131 C   0  0  0  0  0  0  0  0  0  0  0  0
   25.2344  -20.8844  -12.9457 C   0  0  2  0  0  0  0  0  0  0  0  0
   26.1763  -21.5718  -13.8161 N   0  0  0  0  0  0  0  0  0  0  0  0
   25.5295  -21.2221  -11.5327 C   0  0  0  0  0  0  0  0  0  0  0  0
   25.6391  -22.4204  -11.2158 O   0  0  0  0  0  0  0  0  0  0  0  0
   25.6842  -20.2105  -10.5662 N   0  0  0  0  0  0  0  0  0  0  0  0
   25.8573  -20.5347   -9.1420 C   0  0  1  0  0  0  0  0  0  0  0  0
   26.8158  -19.5454   -8.6030 C   0  0  0  0  0  0  0  0  0  0  0  0
   28.0052  -20.0598   -7.9259 C   0  0  0  0  0  0  0  0  0  0  0  0
   28.8352  -21.0923   -8.3636 C   0  0  0  0  0  0  0  0  0  0  0  0
   29.7821  -21.2739   -7.4368 N   0  0  0  0  0  0  0  0  0  0  0  0
   29.6189  -20.4159   -6.4149 C   0  0  0  0  0  0  0  0  0  0  0  0
   30.3459  -20.2198   -5.2588 C   0  0  0  0  0  0  0  0  0  0  0  0
   29.9195  -19.2159   -4.3973 C   0  0  0  0  0  0  0  0  0  0  0  0
   28.8228  -18.4432   -4.6705 C   0  0  0  0  0  0  0  0  0  0  0  0
   28.1102  -18.6532   -5.8263 C   0  0  0  0  0  0  0  0  0  0  0  0
   28.5035  -19.6479   -6.7141 C   0  0  0  0  0  0  0  0  0  0  0  0
   24.5988  -20.5847   -8.4229 C   0  0  0  0  0  0  0  0  0  0  0  0
   23.5137  -20.0811   -8.8233 O   0  0  0  0  0  0  0  0  0  0  0  0
   24.5384  -21.2394   -7.1862 O   0  0  0  0  0  0  0  0  0  0  0  0
  2  1  1  1
  2  3  1  0
  4  2  1  0
  5  4  1  0
  5  6  1  6
  7  5  1  0
  7  8  2  0
  9 10  1  0
 10 11  1  0
 11 12  1  0
 13 12  1  6
 13 14  1  0
 14  7  1  0
 15 13  1  0
 16 15  2  0
 17 15  1  0
 18 17  1  0
 18 19  1  1
 19 20  1  0
 20 28  1  0
 20 21  2  0
 21 22  1  0
 23 24  2  0
 23 22  1  0
 25 24  1  0
 26 25  2  0
 27 26  1  0
 27 28  2  0
 28 23  1  0
 29 18  1  0
 30 29  2  0
 31 29  1  0
M  END
$$$$
