LMW.pdb
     RDKit          3D

 31 32  0  0  1  0  0  0  0  0999 V2000
   18.3674  -20.6904  -14.1538 C   0  0  0  0  0  0  0  0  0  0  0  0
   19.8667  -20.7852  -14.4310 C   0  0  2  0  0  0  0  0  0  0  0  0
   20.0404  -21.5443  -15.7135 C   0  0  0  0  0  0  0  0  0  0  0  0
   20.5258  -21.4539  -13.2688 C   0  0  0  0  0  0  0  0  0  0  0  0
   21.5029  -20.5927  -12.5133 C   0  0  2  0  0  0  0  0  0  0  0  0
   21.6488  -19.2915  -13.1742 N   0  0  0  0  0  0  0  0  0  0  0  0
   22.8558  -21.1880  -12.4047 C   0  0  0  0  0  0  0  0  0  0  0  0
   22.9605  -22.3297  -11.8962 O   0  0  0  0  0  0  0  0  0  0  0  0
   28.2646  -19.2817  -15.6400 C   0  0  0  0  0  0  0  0  0  0  0  0
   28.7494  -20.8876  -14.9970 S   0  0  0  0  0  0  0  0  0  0  0  0
   27.6452  -21.3487  -13.6353 C   0  0  0  0  0  0  0  0  0  0  0  0
   26.2797  -20.7185  -13.8095 C   0  0  0  0  0  0  0  0  0  0  0  0
   25.3534  -21.0709  -12.6639 C   0  0  2  0  0  0  0  0  0  0  0  0
   24.0320  -20.4953  -12.8632 N   0  0  0  0  0  0  0  0  0  0  0  0
   25.9605  -20.5028  -11.4366 C   0  0  0  0  0  0  0  0  0  0  0  0
   25.5697  -19.3910  -11.0369 O   0  0  0  0  0  0  0  0  0  0  0  0
   26.9584  -21.2041  -10.7339 N   0  0  0  0  0  0  0  0  0  0  0  0
   27.6716  -20.5902   -9.6036 C   0  0  1  0  0  0  0  0  0  0  0  0
   26.6929  -20.4889   -8.4990 C   0  0  0  0  0  0  0  0  0  0  0  0
   27.1007  -19.7529   -7.3032 C   0  0  0  0  0  0  0  0  0  0  0  0
   27.0112  -18.3757   -7.0986 C   0  0  0  0  0  0  0  0  0  0  0  0
   27.5255  -18.1093   -5.8931 N   0  0  0  0  0  0  0  0  0  0  0  0
   27.9470  -19.2371   -5.2954 C   0  0  0  0  0  0  0  0  0  0  0  0
   28.5212  -19.4596   -4.0607 C   0  0  0  0  0  0  0  0  0  0  0  0
   28.8276  -20.7731   -3.7249 C   0  0  0  0  0  0  0  0  0  0  0  0
   28.5761  -21.8166   -4.5749 C   0  0  0  0  0  0  0  0  0  0  0  0
   28.0045  -21.5760   -5.8009 C   0  0  0  0  0  0  0  0  0  0  0  0
   27.6836  -20.2764   -6.1752 C   0  0  0  0  0  0  0  0  0  0  0  0
   28.8826  -21.3062   -9.2509 C   0  0  0  0  0  0  0  0  0  0  0  0
   29.0595  -22.5471   -9.3938 O   0  0  0  0  0  0  0  0  0  0  0  0
   29.9667  -20.6016   -8.7127 O   0  0  0  0  0  0  0  0  0  0  0  0
  2  1  1  1
  2  3  1  0
  4  2  1  0
  5  4  1  0
  5  6  1  6
  7  5  1  0
  7  8  2  0
  9 10  1  0
 10 11  1  0
 11 12  1  0
 13 12  1  6
 13 14  1  0
 14  7  1  0
 15 13  1  0
 16 15  2  0
 17 15  1  0
 18 17  1  0
 18 19  1  1
 19 20  1  0
 20 28  1  0
 20 21  2  0
 21 22  1  0
 23 24  2  0
 23 22  1  0
 25 24  1  0
 26 25  2  0
 27 26  1  0
 27 28  2  0
 28 23  1  0
 29 18  1  0
 30 29  2  0
 31 29  1  0
M  END
$$$$
