LMW.pdb
     RDKit          3D

 31 32  0  0  1  0  0  0  0  0999 V2000
   27.8959  -15.1017  -15.0834 C   0  0  0  0  0  0  0  0  0  0  0  0
   27.5146  -16.4839  -15.6105 C   0  0  2  0  0  0  0  0  0  0  0  0
   26.8711  -16.2925  -16.9523 C   0  0  0  0  0  0  0  0  0  0  0  0
   26.6063  -17.1384  -14.6211 C   0  0  0  0  0  0  0  0  0  0  0  0
   26.7445  -18.6348  -14.5277 C   0  0  2  0  0  0  0  0  0  0  0  0
   26.4596  -19.2526  -15.8271 N   0  0  0  0  0  0  0  0  0  0  0  0
   25.8338  -19.2526  -13.5350 C   0  0  0  0  0  0  0  0  0  0  0  0
   24.6397  -18.8699  -13.5094 O   0  0  0  0  0  0  0  0  0  0  0  0
   24.3198  -24.5195  -15.7738 C   0  0  0  0  0  0  0  0  0  0  0  0
   24.6088  -24.3588  -14.0080 S   0  0  0  0  0  0  0  0  0  0  0  0
   24.7535  -22.6034  -13.5794 C   0  0  0  0  0  0  0  0  0  0  0  0
   25.2400  -22.4328  -12.1558 C   0  0  0  0  0  0  0  0  0  0  0  0
   25.3319  -20.9708  -11.7701 C   0  0  2  0  0  0  0  0  0  0  0  0
   26.2832  -20.2654  -12.6154 N   0  0  0  0  0  0  0  0  0  0  0  0
   25.7961  -20.9311  -10.3628 C   0  0  0  0  0  0  0  0  0  0  0  0
   26.9915  -21.1787  -10.1213 O   0  0  0  0  0  0  0  0  0  0  0  0
   24.9060  -20.6191   -9.3179 N   0  0  0  0  0  0  0  0  0  0  0  0
   25.2035  -20.9874   -7.9254 C   0  0  1  0  0  0  0  0  0  0  0  0
   25.5166  -19.7262   -7.2187 C   0  0  0  0  0  0  0  0  0  0  0  0
   26.9274  -19.3834   -7.0456 C   0  0  0  0  0  0  0  0  0  0  0  0
   27.7613  -18.7769   -7.9854 C   0  0  0  0  0  0  0  0  0  0  0  0
   28.9798  -18.6765   -7.4433 N   0  0  0  0  0  0  0  0  0  0  0  0
   28.9904  -19.1835   -6.1985 C   0  0  0  0  0  0  0  0  0  0  0  0
   29.9960  -19.2840   -5.2591 C   0  0  0  0  0  0  0  0  0  0  0  0
   29.6714  -19.8519   -4.0326 C   0  0  0  0  0  0  0  0  0  0  0  0
   28.4082  -20.2992   -3.7520 C   0  0  0  0  0  0  0  0  0  0  0  0
   27.4195  -20.1918   -4.7000 C   0  0  0  0  0  0  0  0  0  0  0  0
   27.7032  -19.6305   -5.9396 C   0  0  0  0  0  0  0  0  0  0  0  0
   24.1384  -21.7560   -7.3104 C   0  0  0  0  0  0  0  0  0  0  0  0
   24.1698  -22.2352   -6.1438 O   0  0  0  0  0  0  0  0  0  0  0  0
   22.9633  -22.0029   -8.0311 O   0  0  0  0  0  0  0  0  0  0  0  0
  2  1  1  1
  2  3  1  0
  4  2  1  0
  5  4  1  0
  5  6  1  6
  7  5  1  0
  7  8  2  0
  9 10  1  0
 10 11  1  0
 11 12  1  0
 13 12  1  6
 13 14  1  0
 14  7  1  0
 15 13  1  0
 16 15  2  0
 17 15  1  0
 18 17  1  0
 18 19  1  1
 19 20  1  0
 20 28  1  0
 20 21  2  0
 21 22  1  0
 23 24  2  0
 23 22  1  0
 25 24  1  0
 26 25  2  0
 27 26  1  0
 27 28  2  0
 28 23  1  0
 29 18  1  0
 30 29  2  0
 31 29  1  0
M  END
$$$$
