LMW.pdb
     RDKit          3D

 31 32  0  0  1  0  0  0  0  0999 V2000
   28.6358  -20.9771  -17.3731 C   0  0  0  0  0  0  0  0  0  0  0  0
   29.3244  -21.6177  -16.1692 C   0  0  2  0  0  0  0  0  0  0  0  0
   30.1083  -22.7940  -16.6721 C   0  0  0  0  0  0  0  0  0  0  0  0
   28.2812  -22.0015  -15.1708 C   0  0  0  0  0  0  0  0  0  0  0  0
   27.4129  -20.8675  -14.6942 C   0  0  2  0  0  0  0  0  0  0  0  0
   28.2346  -19.8324  -14.0579 N   0  0  0  0  0  0  0  0  0  0  0  0
   26.3843  -21.2823  -13.7111 C   0  0  0  0  0  0  0  0  0  0  0  0
   25.5862  -22.1926  -14.0387 O   0  0  0  0  0  0  0  0  0  0  0  0
   28.5978  -21.1764   -7.2594 C   0  0  0  0  0  0  0  0  0  0  0  0
   27.0509  -20.4949   -7.8676 S   0  0  0  0  0  0  0  0  0  0  0  0
   26.7355  -21.1179   -9.5405 C   0  0  0  0  0  0  0  0  0  0  0  0
   25.4636  -20.5240  -10.1077 C   0  0  0  0  0  0  0  0  0  0  0  0
   25.1940  -21.0231  -11.5123 C   0  0  2  0  0  0  0  0  0  0  0  0
   26.2840  -20.6729  -12.4103 N   0  0  0  0  0  0  0  0  0  0  0  0
   23.9473  -20.3619  -11.9661 C   0  0  0  0  0  0  0  0  0  0  0  0
   23.9865  -19.1544  -12.2645 O   0  0  0  0  0  0  0  0  0  0  0  0
   22.7415  -21.0820  -12.0600 N   0  0  0  0  0  0  0  0  0  0  0  0
   21.5088  -20.4473  -12.5509 C   0  0  1  0  0  0  0  0  0  0  0  0
   21.7648  -20.0739  -13.9592 C   0  0  0  0  0  0  0  0  0  0  0  0
   21.4513  -21.0658  -14.9866 C   0  0  0  0  0  0  0  0  0  0  0  0
   20.1836  -21.4102  -15.4565 C   0  0  0  0  0  0  0  0  0  0  0  0
   20.3358  -22.3820  -16.3627 N   0  0  0  0  0  0  0  0  0  0  0  0
   21.6347  -22.6933  -16.5135 C   0  0  0  0  0  0  0  0  0  0  0  0
   22.2688  -23.6054  -17.3318 C   0  0  0  0  0  0  0  0  0  0  0  0
   23.6556  -23.6702  -17.2638 C   0  0  0  0  0  0  0  0  0  0  0  0
   24.3788  -22.8676  -16.4229 C   0  0  0  0  0  0  0  0  0  0  0  0
   23.7304  -21.9655  -15.6144 C   0  0  0  0  0  0  0  0  0  0  0  0
   22.3441  -21.8700  -15.6518 C   0  0  0  0  0  0  0  0  0  0  0  0
   20.3382  -21.2841  -12.3692 C   0  0  0  0  0  0  0  0  0  0  0  0
   20.3589  -22.5342  -12.2009 O   0  0  0  0  0  0  0  0  0  0  0  0
   19.0665  -20.6974  -12.3673 O   0  0  0  0  0  0  0  0  0  0  0  0
  2  1  1  6
  2  3  1  0
  4  2  1  0
  5  4  1  0
  5  6  1  1
  7  5  1  0
  7  8  2  0
  9 10  1  0
 10 11  1  0
 11 12  1  0
 13 12  1  1
 13 14  1  0
 14  7  1  0
 15 13  1  0
 16 15  2  0
 17 15  1  0
 18 17  1  0
 18 19  1  6
 19 20  1  0
 20 28  1  0
 20 21  2  0
 21 22  1  0
 23 24  2  0
 23 22  1  0
 25 24  1  0
 26 25  2  0
 27 26  1  0
 27 28  2  0
 28 23  1  0
 29 18  1  0
 30 29  2  0
 31 29  1  0
M  END
$$$$
