LMW.pdb
     RDKit          3D

 31 32  0  0  1  0  0  0  0  0999 V2000
   29.4858  -23.8379  -16.9593 C   0  0  0  0  0  0  0  0  0  0  0  0
   29.5654  -22.5501  -17.7772 C   0  0  2  0  0  0  0  0  0  0  0  0
   31.0181  -22.2398  -17.9883 C   0  0  0  0  0  0  0  0  0  0  0  0
   28.8444  -21.4699  -17.0384 C   0  0  0  0  0  0  0  0  0  0  0  0
   27.4259  -21.8012  -16.6575 C   0  0  2  0  0  0  0  0  0  0  0  0
   26.5494  -21.7008  -17.8292 N   0  0  0  0  0  0  0  0  0  0  0  0
   26.8703  -20.9101  -15.6117 C   0  0  0  0  0  0  0  0  0  0  0  0
   26.7630  -19.6879  -15.8721 O   0  0  0  0  0  0  0  0  0  0  0  0
   20.9600  -21.6241  -13.1404 C   0  0  0  0  0  0  0  0  0  0  0  0
   21.5484  -19.9583  -13.4660 S   0  0  0  0  0  0  0  0  0  0  0  0
   23.2880  -19.8276  -12.9731 C   0  0  0  0  0  0  0  0  0  0  0  0
   24.1731  -20.6425  -13.8921 C   0  0  0  0  0  0  0  0  0  0  0  0
   25.6218  -20.6000  -13.4520 C   0  0  2  0  0  0  0  0  0  0  0  0
   26.4581  -21.4093  -14.3255 N   0  0  0  0  0  0  0  0  0  0  0  0
   25.6644  -21.1512  -12.0765 C   0  0  0  0  0  0  0  0  0  0  0  0
   25.3791  -22.3503  -11.9049 O   0  0  0  0  0  0  0  0  0  0  0  0
   26.0207  -20.3382  -10.9840 N   0  0  0  0  0  0  0  0  0  0  0  0
   25.9153  -20.8277   -9.6011 C   0  0  1  0  0  0  0  0  0  0  0  0
   26.9628  -20.1243   -8.8292 C   0  0  0  0  0  0  0  0  0  0  0  0
   26.9878  -20.3330   -7.3823 C   0  0  0  0  0  0  0  0  0  0  0  0
   26.2359  -21.2588   -6.6584 C   0  0  0  0  0  0  0  0  0  0  0  0
   26.5287  -21.0973   -5.3635 N   0  0  0  0  0  0  0  0  0  0  0  0
   27.4326  -20.1162   -5.1985 C   0  0  0  0  0  0  0  0  0  0  0  0
   28.0393  -19.6108   -4.0670 C   0  0  0  0  0  0  0  0  0  0  0  0
   28.9659  -18.5894   -4.2400 C   0  0  0  0  0  0  0  0  0  0  0  0
   29.2756  -18.0928   -5.4777 C   0  0  0  0  0  0  0  0  0  0  0  0
   28.6609  -18.6078   -6.5934 C   0  0  0  0  0  0  0  0  0  0  0  0
   27.7276  -19.6297   -6.4633 C   0  0  0  0  0  0  0  0  0  0  0  0
   24.5808  -20.6751   -9.0539 C   0  0  0  0  0  0  0  0  0  0  0  0
   23.7726  -19.7555   -9.3583 O   0  0  0  0  0  0  0  0  0  0  0  0
   24.1112  -21.6033   -8.1162 O   0  0  0  0  0  0  0  0  0  0  0  0
  2  1  1  1
  2  3  1  0
  4  2  1  0
  5  4  1  0
  5  6  1  6
  7  5  1  0
  7  8  2  0
  9 10  1  0
 10 11  1  0
 11 12  1  0
 13 12  1  6
 13 14  1  0
 14  7  1  0
 15 13  1  0
 16 15  2  0
 17 15  1  0
 18 17  1  0
 18 19  1  1
 19 20  1  0
 20 28  1  0
 20 21  2  0
 21 22  1  0
 23 24  2  0
 23 22  1  0
 25 24  1  0
 26 25  2  0
 27 26  1  0
 27 28  2  0
 28 23  1  0
 29 18  1  0
 30 29  2  0
 31 29  1  0
M  END
$$$$
