RIY.pdb
     RDKit          3D

 32 32  0  0  1  0  0  0  0  0999 V2000
   29.9423  -18.1078  -18.2494 N   0  0  0  0  0  0  0  0  0  0  0  0
   29.8743  -19.4700  -18.6426 C   0  0  0  0  0  0  0  0  0  0  0  0
   30.9527  -20.0708  -18.9796 N   0  0  0  0  0  0  0  0  0  0  0  0
   28.5987  -20.1024  -18.6433 N   0  0  0  0  0  0  0  0  0  0  0  0
   27.4478  -19.3592  -18.1867 C   0  0  0  0  0  0  0  0  0  0  0  0
   27.3801  -19.3298  -16.6997 C   0  0  0  0  0  0  0  0  0  0  0  0
   26.0852  -19.9560  -16.1642 C   0  0  0  0  0  0  0  0  0  0  0  0
   26.5252  -21.1081  -15.3134 C   0  0  2  0  0  0  0  0  0  0  0  0
   26.8831  -22.2138  -16.1760 N   0  0  0  0  0  0  0  0  0  0  0  0
   25.5569  -21.4882  -14.2518 C   0  0  0  0  0  0  0  0  0  0  0  0
   24.6822  -22.3694  -14.4748 O   0  0  0  0  0  0  0  0  0  0  0  0
   30.9246  -21.0719  -19.2519 C   0  0  0  0  0  0  0  0  0  0  0  0
   27.0044  -20.8776   -8.8837 C   0  0  0  0  0  0  0  0  0  0  0  0
   26.5561  -21.4140  -10.2353 C   0  0  2  0  0  0  0  0  0  0  0  0
   25.2214  -20.7762  -10.5607 C   0  0  0  0  0  0  0  0  0  0  0  0
   24.2716  -21.1292   -9.4623 C   0  0  2  0  0  0  0  0  0  0  0  0
   24.7426  -21.0816  -11.9272 N   0  0  0  0  0  0  0  0  0  0  0  0
   25.6568  -20.8240  -12.9984 C   0  0  0  0  0  0  0  0  0  0  0  0
   23.4768  -20.2828  -12.1568 O   0  0  0  0  0  0  0  0  0  0  0  0
   23.5331  -19.0266  -12.2249 O   0  0  0  0  0  0  0  0  0  0  0  0
   20.4570  -23.5680  -17.8831 C   0  0  0  0  0  0  0  0  0  0  0  0
   20.6423  -22.5808  -16.9358 C   0  0  0  0  0  0  0  0  0  0  0  0
   19.5687  -21.8992  -16.3971 C   0  0  0  0  0  0  0  0  0  0  0  0
   19.7889  -20.9207  -15.4546 C   0  0  0  0  0  0  0  0  0  0  0  0
   21.0666  -20.6232  -15.0522 C   0  0  0  0  0  0  0  0  0  0  0  0
   21.2919  -19.5745  -14.0498 C   0  0  1  0  0  0  0  0  0  0  0  0
   21.0540  -20.0364  -12.6388 N   0  0  0  0  0  0  0  0  0  0  0  0
   22.2068  -20.8968  -12.3024 C   0  0  0  0  0  0  0  0  0  0  0  0
   19.7920  -20.8012  -12.5735 O   0  0  0  0  0  0  0  0  0  0  0  0
   19.8896  -22.0597  -12.3655 C   0  0  0  0  0  0  0  0  0  0  0  0
   22.1452  -21.3066  -15.5919 C   0  0  0  0  0  0  0  0  0  0  0  0
   21.9187  -22.2783  -16.5283 O   0  0  0  0  0  0  0  0  0  0  0  0
  2  1  1  0
  2  3  2  0
  4  2  1  0
  5  4  1  0
  6  5  1  0
  7  6  1  0
  8  9  1  6
  8  7  1  0
 10  8  1  0
 11 10  2  0
 13 12  1  0
 14 13  1  0
 14 16  1  0
 14 15  1  6
 16 18  1  0
 16 17  1  6
 17 10  1  0
 18 27  1  0
 19 18  2  0
 21 22  2  0
 21 20  1  0
 23 22  1  0
 24 23  2  0
 25 24  1  0
 26 25  1  1
 27 26  1  0
 28 26  1  0
 28 32  1  0
 29 28  2  0
 30 24  1  0
 30 31  2  0
 31 21  1  0
M  END
$$$$
