RIY.pdb
     RDKit          3D

 32 32  0  0  1  0  0  0  0  0999 V2000
   29.5108  -33.0135  -19.3177 N   0  0  0  0  0  0  0  0  0  0  0  0
   29.6816  -32.2135  -20.4776 C   0  0  0  0  0  0  0  0  0  0  0  0
   29.7006  -32.7824  -21.6237 N   0  0  0  0  0  0  0  0  0  0  0  0
   29.8258  -30.8077  -20.3046 N   0  0  0  0  0  0  0  0  0  0  0  0
   30.1068  -30.2891  -18.9864 C   0  0  0  0  0  0  0  0  0  0  0  0
   28.8507  -30.0233  -18.2325 C   0  0  0  0  0  0  0  0  0  0  0  0
   28.4914  -28.5313  -18.2092 C   0  0  0  0  0  0  0  0  0  0  0  0
   29.3461  -27.9353  -17.1326 C   0  0  2  0  0  0  0  0  0  0  0  0
   29.4836  -28.8981  -16.0609 N   0  0  0  0  0  0  0  0  0  0  0  0
   28.8923  -26.6008  -16.6612 C   0  0  0  0  0  0  0  0  0  0  0  0
   28.4834  -26.4497  -15.4774 O   0  0  0  0  0  0  0  0  0  0  0  0
   29.8840  -32.2215  -22.4775 C   0  0  0  0  0  0  0  0  0  0  0  0
   31.3699  -21.9924  -18.5611 C   0  0  0  0  0  0  0  0  0  0  0  0
   30.7839  -23.1671  -17.7916 C   0  0  2  0  0  0  0  0  0  0  0  0
   29.2767  -23.0927  -17.9210 C   0  0  0  0  0  0  0  0  0  0  0  0
   28.8564  -21.7138  -17.5269 C   0  0  2  0  0  0  0  0  0  0  0  0
   28.5725  -24.1885  -17.2188 N   0  0  0  0  0  0  0  0  0  0  0  0
   28.9358  -25.5231  -17.5880 C   0  0  0  0  0  0  0  0  0  0  0  0
   27.0880  -23.9999  -17.4506 O   0  0  0  0  0  0  0  0  0  0  0  0
   26.6299  -24.0223  -18.6234 O   0  0  0  0  0  0  0  0  0  0  0  0
   19.1740  -26.4244  -18.4380 C   0  0  0  0  0  0  0  0  0  0  0  0
   20.4896  -26.1373  -18.1322 C   0  0  0  0  0  0  0  0  0  0  0  0
   21.2544  -25.3357  -18.9568 C   0  0  0  0  0  0  0  0  0  0  0  0
   22.5626  -25.0694  -18.6222 C   0  0  0  0  0  0  0  0  0  0  0  0
   23.1046  -25.5968  -17.4772 C   0  0  0  0  0  0  0  0  0  0  0  0
   24.5025  -25.3112  -17.1312 C   0  0  2  0  0  0  0  0  0  0  0  0
   24.7291  -23.8934  -16.6845 N   0  0  0  0  0  0  0  0  0  0  0  0
   26.1727  -23.7962  -16.3867 C   0  0  0  0  0  0  0  0  0  0  0  0
   23.9246  -23.6196  -15.4763 O   0  0  0  0  0  0  0  0  0  0  0  0
   24.4383  -23.9525  -14.3530 C   0  0  0  0  0  0  0  0  0  0  0  0
   22.3381  -26.4016  -16.6486 C   0  0  0  0  0  0  0  0  0  0  0  0
   21.0382  -26.6618  -16.9875 O   0  0  0  0  0  0  0  0  0  0  0  0
  2  1  1  0
  2  3  2  0
  4  2  1  0
  5  4  1  0
  6  5  1  0
  7  6  1  0
  8  9  1  1
  8  7  1  0
 10  8  1  0
 11 10  2  0
 13 12  1  0
 14 13  1  0
 14 16  1  0
 14 15  1  6
 16 18  1  0
 16 17  1  1
 17 10  1  0
 18 27  1  0
 19 18  2  0
 21 22  2  0
 21 20  1  0
 23 22  1  0
 24 23  2  0
 25 24  1  0
 26 25  1  6
 27 26  1  0
 28 26  1  0
 28 32  1  0
 29 28  2  0
 30 24  1  0
 30 31  2  0
 31 21  1  0
M  END
$$$$
