RIY.pdb
     RDKit          3D

 32 32  0  0  1  0  0  0  0  0999 V2000
   16.0935  -26.8583   -9.6201 N   0  0  0  0  0  0  0  0  0  0  0  0
   17.1831  -27.7640   -9.5345 C   0  0  0  0  0  0  0  0  0  0  0  0
   16.9545  -28.9755   -9.1920 N   0  0  0  0  0  0  0  0  0  0  0  0
   18.4852  -27.2731   -9.8353 N   0  0  0  0  0  0  0  0  0  0  0  0
   18.6298  -25.9198  -10.3183 C   0  0  0  0  0  0  0  0  0  0  0  0
   17.9928  -25.7530  -11.6536 C   0  0  0  0  0  0  0  0  0  0  0  0
   18.1968  -24.3422  -12.2228 C   0  0  0  0  0  0  0  0  0  0  0  0
   18.7908  -23.5453  -11.1016 C   0  0  2  0  0  0  0  0  0  0  0  0
   17.7519  -23.2518  -10.1378 N   0  0  0  0  0  0  0  0  0  0  0  0
   19.5364  -22.3366  -11.5396 C   0  0  0  0  0  0  0  0  0  0  0  0
   18.9151  -21.3312  -11.9809 O   0  0  0  0  0  0  0  0  0  0  0  0
   17.7415  -29.6464   -9.1042 C   0  0  0  0  0  0  0  0  0  0  0  0
   25.2662  -20.0245  -10.9958 C   0  0  0  0  0  0  0  0  0  0  0  0
   23.8946  -19.9468  -11.6500 C   0  0  2  0  0  0  0  0  0  0  0  0
   23.1281  -21.1920  -11.2549 C   0  0  0  0  0  0  0  0  0  0  0  0
   23.9933  -22.3716  -11.5605 C   0  0  2  0  0  0  0  0  0  0  0  0
   21.7647  -21.2483  -11.8273 N   0  0  0  0  0  0  0  0  0  0  0  0
   20.9549  -22.3649  -11.4440 C   0  0  0  0  0  0  0  0  0  0  0  0
   21.9015  -21.2334  -13.3354 O   0  0  0  0  0  0  0  0  0  0  0  0
   22.1672  -22.2998  -13.9503 O   0  0  0  0  0  0  0  0  0  0  0  0
   23.1057  -15.6635  -19.9053 C   0  0  0  0  0  0  0  0  0  0  0  0
   22.5763  -16.5458  -18.9846 C   0  0  0  0  0  0  0  0  0  0  0  0
   23.0149  -17.8536  -18.9166 C   0  0  0  0  0  0  0  0  0  0  0  0
   22.4658  -18.7068  -17.9868 C   0  0  0  0  0  0  0  0  0  0  0  0
   21.4883  -18.2621  -17.1325 C   0  0  0  0  0  0  0  0  0  0  0  0
   20.9050  -19.1810  -16.1472 C   0  0  1  0  0  0  0  0  0  0  0  0
   21.9023  -20.1451  -15.5666 N   0  0  0  0  0  0  0  0  0  0  0  0
   21.7398  -20.0509  -14.1014 C   0  0  0  0  0  0  0  0  0  0  0  0
   23.2671  -19.7493  -15.9696 O   0  0  0  0  0  0  0  0  0  0  0  0
   23.8915  -18.9521  -15.1879 C   0  0  0  0  0  0  0  0  0  0  0  0
   21.0471  -16.9497  -17.1994 C   0  0  0  0  0  0  0  0  0  0  0  0
   21.5978  -16.1070  -18.1263 O   0  0  0  0  0  0  0  0  0  0  0  0
  2  1  1  0
  2  3  2  0
  4  2  1  0
  5  4  1  0
  6  5  1  0
  7  6  1  0
  8  9  1  1
  8  7  1  0
 10  8  1  0
 11 10  2  0
 13 12  1  0
 14 13  1  0
 14 16  1  0
 14 15  1  1
 16 18  1  0
 16 17  1  6
 17 10  1  0
 18 27  1  0
 19 18  2  0
 21 22  2  0
 21 20  1  0
 23 22  1  0
 24 23  2  0
 25 24  1  0
 26 25  1  6
 27 26  1  0
 28 26  1  0
 28 32  1  0
 29 28  2  0
 30 24  1  0
 30 31  2  0
 31 21  1  0
M  END
$$$$
