RIY.pdb
     RDKit          3D

 32 32  0  0  1  0  0  0  0  0999 V2000
   26.5628  -27.5765  -16.4110 N   0  0  0  0  0  0  0  0  0  0  0  0
   27.1064  -28.2350  -17.5449 C   0  0  0  0  0  0  0  0  0  0  0  0
   26.3170  -28.8619  -18.3331 N   0  0  0  0  0  0  0  0  0  0  0  0
   28.5139  -28.1650  -17.7474 N   0  0  0  0  0  0  0  0  0  0  0  0
   29.2908  -27.2408  -16.9550 C   0  0  0  0  0  0  0  0  0  0  0  0
   29.4975  -25.9543  -17.6755 C   0  0  0  0  0  0  0  0  0  0  0  0
   28.4061  -24.9249  -17.3518 C   0  0  0  0  0  0  0  0  0  0  0  0
   29.1291  -23.6251  -17.1716 C   0  0  2  0  0  0  0  0  0  0  0  0
   30.5272  -23.9011  -16.9198 N   0  0  0  0  0  0  0  0  0  0  0  0
   28.5220  -22.7241  -16.1574 C   0  0  0  0  0  0  0  0  0  0  0  0
   28.9155  -22.7586  -14.9593 O   0  0  0  0  0  0  0  0  0  0  0  0
   26.7041  -29.4228  -19.1158 C   0  0  0  0  0  0  0  0  0  0  0  0
   28.4023  -17.5526  -16.8397 C   0  0  0  0  0  0  0  0  0  0  0  0
   28.4491  -18.9953  -16.3582 C   0  0  2  0  0  0  0  0  0  0  0  0
   27.0213  -19.4514  -16.1401 C   0  0  0  0  0  0  0  0  0  0  0  0
   26.3656  -18.4651  -15.2287 C   0  0  2  0  0  0  0  0  0  0  0  0
   26.9151  -20.8652  -15.7163 N   0  0  0  0  0  0  0  0  0  0  0  0
   27.4949  -21.8406  -16.5893 C   0  0  0  0  0  0  0  0  0  0  0  0
   25.4446  -21.1783  -15.5350 O   0  0  0  0  0  0  0  0  0  0  0  0
   24.6955  -21.2712  -16.5431 O   0  0  0  0  0  0  0  0  0  0  0  0
   17.7719  -23.2671  -11.7805 C   0  0  0  0  0  0  0  0  0  0  0  0
   19.1049  -23.0137  -12.0366 C   0  0  0  0  0  0  0  0  0  0  0  0
   19.7125  -21.8615  -11.5775 C   0  0  0  0  0  0  0  0  0  0  0  0
   21.0431  -21.6401  -11.8505 C   0  0  0  0  0  0  0  0  0  0  0  0
   21.7624  -22.5575  -12.5745 C   0  0  0  0  0  0  0  0  0  0  0  0
   23.1801  -22.3102  -12.8650 C   0  0  1  0  0  0  0  0  0  0  0  0
   23.4093  -21.6363  -14.1895 N   0  0  0  0  0  0  0  0  0  0  0  0
   24.8619  -21.3765  -14.2574 C   0  0  0  0  0  0  0  0  0  0  0  0
   22.6473  -20.3720  -14.2411 O   0  0  0  0  0  0  0  0  0  0  0  0
   23.1662  -19.3608  -13.6538 C   0  0  0  0  0  0  0  0  0  0  0  0
   21.1539  -23.7144  -13.0359 C   0  0  0  0  0  0  0  0  0  0  0  0
   19.8307  -23.9280  -12.7604 O   0  0  0  0  0  0  0  0  0  0  0  0
  2  1  1  0
  2  3  2  0
  4  2  1  0
  5  4  1  0
  6  5  1  0
  7  6  1  0
  8  9  1  1
  8  7  1  0
 10  8  1  0
 11 10  2  0
 13 12  1  0
 14 13  1  0
 14 16  1  0
 14 15  1  6
 16 18  1  0
 16 17  1  1
 17 10  1  0
 18 27  1  0
 19 18  2  0
 21 22  2  0
 21 20  1  0
 23 22  1  0
 24 23  2  0
 25 24  1  0
 26 25  1  6
 27 26  1  0
 28 26  1  0
 28 32  1  0
 29 28  2  0
 30 24  1  0
 30 31  2  0
 31 21  1  0
M  END
$$$$
