RIY.pdb
     RDKit          3D

 32 32  0  0  1  0  0  0  0  0999 V2000
   24.6980  -19.4301  -17.8655 N   0  0  0  0  0  0  0  0  0  0  0  0
   26.0382  -18.9646  -17.9095 C   0  0  0  0  0  0  0  0  0  0  0  0
   26.3910  -18.1848  -18.8608 N   0  0  0  0  0  0  0  0  0  0  0  0
   26.9288  -19.3942  -16.8852 N   0  0  0  0  0  0  0  0  0  0  0  0
   26.4042  -20.1501  -15.7720 C   0  0  0  0  0  0  0  0  0  0  0  0
   25.9807  -19.2522  -14.6624 C   0  0  0  0  0  0  0  0  0  0  0  0
   25.2647  -20.0145  -13.5390 C   0  0  0  0  0  0  0  0  0  0  0  0
   26.3562  -20.5199  -12.6457 C   0  0  2  0  0  0  0  0  0  0  0  0
   27.1779  -21.4471  -13.3937 N   0  0  0  0  0  0  0  0  0  0  0  0
   25.8787  -21.0775  -11.3534 C   0  0  0  0  0  0  0  0  0  0  0  0
   25.4424  -22.2597  -11.2933 O   0  0  0  0  0  0  0  0  0  0  0  0
   27.3626  -17.8222  -18.9002 C   0  0  0  0  0  0  0  0  0  0  0  0
   28.0317  -18.9641   -6.8771 C   0  0  0  0  0  0  0  0  0  0  0  0
   27.5031  -20.1319   -7.6970 C   0  0  2  0  0  0  0  0  0  0  0  0
   25.9940  -20.0118   -7.7442 C   0  0  0  0  0  0  0  0  0  0  0  0
   25.4599  -20.5074   -6.4394 C   0  0  2  0  0  0  0  0  0  0  0  0
   25.3931  -20.6330   -8.9453 N   0  0  0  0  0  0  0  0  0  0  0  0
   25.9316  -20.2334  -10.2102 C   0  0  0  0  0  0  0  0  0  0  0  0
   23.9097  -20.3290   -8.9231 O   0  0  0  0  0  0  0  0  0  0  0  0
   23.4594  -19.3600   -9.5895 O   0  0  0  0  0  0  0  0  0  0  0  0
   16.3074  -21.9666  -12.0073 C   0  0  0  0  0  0  0  0  0  0  0  0
   17.5896  -21.8671  -11.5048 C   0  0  0  0  0  0  0  0  0  0  0  0
   18.3364  -20.7183  -11.6792 C   0  0  0  0  0  0  0  0  0  0  0  0
   19.6114  -20.6525  -11.1653 C   0  0  0  0  0  0  0  0  0  0  0  0
   20.1386  -21.7208  -10.4843 C   0  0  0  0  0  0  0  0  0  0  0  0
   21.5014  -21.6430   -9.9441 C   0  0  1  0  0  0  0  0  0  0  0  0
   21.5629  -21.0536   -8.5621 N   0  0  0  0  0  0  0  0  0  0  0  0
   22.9870  -21.1013   -8.1725 C   0  0  0  0  0  0  0  0  0  0  0  0
   20.7396  -21.8630   -7.6408 O   0  0  0  0  0  0  0  0  0  0  0  0
   21.2494  -22.9593   -7.2228 C   0  0  0  0  0  0  0  0  0  0  0  0
   19.3902  -22.8744  -10.3085 C   0  0  0  0  0  0  0  0  0  0  0  0
   18.1232  -22.9327  -10.8219 O   0  0  0  0  0  0  0  0  0  0  0  0
  2  1  1  0
  2  3  2  0
  4  2  1  0
  5  4  1  0
  6  5  1  0
  7  6  1  0
  8  9  1  6
  8  7  1  0
 10  8  1  0
 11 10  2  0
 13 12  1  0
 14 13  1  0
 14 16  1  0
 14 15  1  6
 16 18  1  0
 16 17  1  6
 17 10  1  0
 18 27  1  0
 19 18  2  0
 21 22  2  0
 21 20  1  0
 23 22  1  0
 24 23  2  0
 25 24  1  0
 26 25  1  6
 27 26  1  0
 28 26  1  0
 28 32  1  0
 29 28  2  0
 30 24  1  0
 30 31  2  0
 31 21  1  0
M  END
$$$$
