RIY.pdb
     RDKit          3D

 32 32  0  0  1  0  0  0  0  0999 V2000
   25.9608  -26.0547  -19.2870 N   0  0  0  0  0  0  0  0  0  0  0  0
   25.6703  -27.2644  -18.6037 C   0  0  0  0  0  0  0  0  0  0  0  0
   25.8123  -28.3744  -19.2242 N   0  0  0  0  0  0  0  0  0  0  0  0
   25.2307  -27.1794  -17.2522 N   0  0  0  0  0  0  0  0  0  0  0  0
   25.0662  -25.8775  -16.6493 C   0  0  0  0  0  0  0  0  0  0  0  0
   26.3014  -25.4549  -15.9334 C   0  0  0  0  0  0  0  0  0  0  0  0
   26.1852  -24.0351  -15.3621 C   0  0  0  0  0  0  0  0  0  0  0  0
   26.5334  -23.1219  -16.4978 C   0  0  2  0  0  0  0  0  0  0  0  0
   27.9741  -23.0605  -16.6208 N   0  0  0  0  0  0  0  0  0  0  0  0
   25.8985  -21.7804  -16.4195 C   0  0  0  0  0  0  0  0  0  0  0  0
   26.2160  -20.9793  -15.4982 O   0  0  0  0  0  0  0  0  0  0  0  0
   25.5043  -29.2600  -18.7790 C   0  0  0  0  0  0  0  0  0  0  0  0
   25.0147  -20.5659  -20.5849 C   0  0  0  0  0  0  0  0  0  0  0  0
   24.8853  -19.3816  -19.6383 C   0  0  2  0  0  0  0  0  0  0  0  0
   23.7505  -19.6825  -18.6814 C   0  0  0  0  0  0  0  0  0  0  0  0
   22.8903  -18.4630  -18.6023 C   0  0  2  0  0  0  0  0  0  0  0  0
   24.2071  -20.2144  -17.3782 N   0  0  0  0  0  0  0  0  0  0  0  0
   24.9328  -21.4481  -17.4091 C   0  0  0  0  0  0  0  0  0  0  0  0
   22.9847  -20.3837  -16.5004 O   0  0  0  0  0  0  0  0  0  0  0  0
   22.1791  -21.3254  -16.7241 O   0  0  0  0  0  0  0  0  0  0  0  0
   17.0643  -19.0918  -10.1130 C   0  0  0  0  0  0  0  0  0  0  0  0
   18.1715  -19.0322  -10.9358 C   0  0  0  0  0  0  0  0  0  0  0  0
   19.2617  -19.8533  -10.7244 C   0  0  0  0  0  0  0  0  0  0  0  0
   20.3492  -19.7681  -11.5637 C   0  0  0  0  0  0  0  0  0  0  0  0
   20.3514  -18.8731  -12.6039 C   0  0  0  0  0  0  0  0  0  0  0  0
   21.5181  -18.7860  -13.4908 C   0  0  2  0  0  0  0  0  0  0  0  0
   21.4598  -19.7427  -14.6494 N   0  0  0  0  0  0  0  0  0  0  0  0
   22.7011  -19.5140  -15.4168 C   0  0  0  0  0  0  0  0  0  0  0  0
   20.2709  -19.4494  -15.4754 O   0  0  0  0  0  0  0  0  0  0  0  0
   19.2784  -20.2488  -15.3631 C   0  0  0  0  0  0  0  0  0  0  0  0
   19.2579  -18.0483  -12.8173 C   0  0  0  0  0  0  0  0  0  0  0  0
   18.1801  -18.1388  -11.9791 O   0  0  0  0  0  0  0  0  0  0  0  0
  2  1  1  0
  2  3  2  0
  4  2  1  0
  5  4  1  0
  6  5  1  0
  7  6  1  0
  8  9  1  1
  8  7  1  0
 10  8  1  0
 11 10  2  0
 13 12  1  0
 14 13  1  0
 14 16  1  0
 14 15  1  1
 16 18  1  0
 16 17  1  1
 17 10  1  0
 18 27  1  0
 19 18  2  0
 21 22  2  0
 21 20  1  0
 23 22  1  0
 24 23  2  0
 25 24  1  0
 26 25  1  1
 27 26  1  0
 28 26  1  0
 28 32  1  0
 29 28  2  0
 30 24  1  0
 30 31  2  0
 31 21  1  0
M  END
$$$$
