RIY.pdb
     RDKit          3D

 32 32  0  0  1  0  0  0  0  0999 V2000
   30.8183  -19.6249  -19.2728 N   0  0  0  0  0  0  0  0  0  0  0  0
   29.6489  -19.8938  -20.0310 C   0  0  0  0  0  0  0  0  0  0  0  0
   29.7367  -19.9415  -21.3068 N   0  0  0  0  0  0  0  0  0  0  0  0
   28.4280  -20.0967  -19.3272 N   0  0  0  0  0  0  0  0  0  0  0  0
   28.4764  -20.4562  -17.9293 C   0  0  0  0  0  0  0  0  0  0  0  0
   27.8785  -19.3912  -17.0778 C   0  0  0  0  0  0  0  0  0  0  0  0
   26.6397  -19.8828  -16.3166 C   0  0  0  0  0  0  0  0  0  0  0  0
   27.1131  -21.0460  -15.4995 C   0  0  2  0  0  0  0  0  0  0  0  0
   27.5022  -22.1153  -16.3937 N   0  0  0  0  0  0  0  0  0  0  0  0
   26.1567  -21.4843  -14.4497 C   0  0  0  0  0  0  0  0  0  0  0  0
   25.2945  -22.3693  -14.7043 O   0  0  0  0  0  0  0  0  0  0  0  0
   28.8868  -20.1082  -21.8787 C   0  0  0  0  0  0  0  0  0  0  0  0
   25.6123  -21.1187   -8.2974 C   0  0  0  0  0  0  0  0  0  0  0  0
   24.9500  -21.4247   -9.6328 C   0  0  2  0  0  0  0  0  0  0  0  0
   25.8614  -20.9052  -10.7253 C   0  0  0  0  0  0  0  0  0  0  0  0
   26.0988  -19.4531  -10.4638 C   0  0  2  0  0  0  0  0  0  0  0  0
   25.3862  -21.2282  -12.0889 N   0  0  0  0  0  0  0  0  0  0  0  0
   26.2533  -20.8706  -13.1705 C   0  0  0  0  0  0  0  0  0  0  0  0
   24.0498  -20.5424  -12.2813 O   0  0  0  0  0  0  0  0  0  0  0  0
   24.0000  -19.2892  -12.3939 O   0  0  0  0  0  0  0  0  0  0  0  0
   17.5000  -17.3324  -16.3716 C   0  0  0  0  0  0  0  0  0  0  0  0
   18.5803  -17.9898  -15.8171 C   0  0  0  0  0  0  0  0  0  0  0  0
   19.6331  -17.2889  -15.2622 C   0  0  0  0  0  0  0  0  0  0  0  0
   20.6944  -17.9755  -14.7178 C   0  0  0  0  0  0  0  0  0  0  0  0
   20.7077  -19.3477  -14.7262 C   0  0  0  0  0  0  0  0  0  0  0  0
   21.8466  -20.0712  -14.1476 C   0  0  1  0  0  0  0  0  0  0  0  0
   21.6091  -20.5257  -12.7341 N   0  0  0  0  0  0  0  0  0  0  0  0
   22.8289  -21.2612  -12.3425 C   0  0  0  0  0  0  0  0  0  0  0  0
   20.4265  -21.4096  -12.6894 O   0  0  0  0  0  0  0  0  0  0  0  0
   19.3662  -20.9291  -12.1589 C   0  0  0  0  0  0  0  0  0  0  0  0
   19.6517  -20.0525  -15.2828 C   0  0  0  0  0  0  0  0  0  0  0  0
   18.5998  -19.3632  -15.8220 O   0  0  0  0  0  0  0  0  0  0  0  0
  2  1  1  0
  2  3  2  0
  4  2  1  0
  5  4  1  0
  6  5  1  0
  7  6  1  0
  8  9  1  6
  8  7  1  0
 10  8  1  0
 11 10  2  0
 13 12  1  0
 14 13  1  0
 14 16  1  0
 14 15  1  6
 16 18  1  0
 16 17  1  6
 17 10  1  0
 18 27  1  0
 19 18  2  0
 21 22  2  0
 21 20  1  0
 23 22  1  0
 24 23  2  0
 25 24  1  0
 26 25  1  1
 27 26  1  0
 28 26  1  0
 28 32  1  0
 29 28  2  0
 30 24  1  0
 30 31  2  0
 31 21  1  0
M  END
$$$$
