CCG.pdb
     RDKit          3D

 17 16  0  0  1  0  0  0  0  0999 V2000
   17.1200  -11.7468  -15.3072 N   0  0  0  0  0  0  0  0  0  0  0  0
   17.3234  -10.3411  -15.4632 C   0  0  1  0  0  0  0  0  0  0  0  0
   16.0823   -9.6061  -15.0256 C   0  0  0  0  0  0  0  0  0  0  0  0
   14.7084   -9.8427  -16.1632 S   0  0  0  0  0  0  0  0  0  0  0  0
   18.5383   -9.8516  -14.7631 C   0  0  0  0  0  0  0  0  0  0  0  0
   18.9125  -10.4120  -13.7015 O   0  0  0  0  0  0  0  0  0  0  0  0
   19.3227   -8.7649  -15.2278 N   0  0  0  0  0  0  0  0  0  0  0  0
   20.5237   -8.3154  -14.5829 C   0  0  1  0  0  0  0  0  0  0  0  0
   21.7425   -8.6863  -15.4388 C   0  0  0  0  0  0  0  0  0  0  0  0
   23.2198   -8.1023  -14.5754 S   0  0  0  0  0  0  0  0  0  0  0  0
   20.5690   -6.8535  -14.3890 C   0  0  0  0  0  0  0  0  0  0  0  0
   20.2894   -6.1175  -15.3698 O   0  0  0  0  0  0  0  0  0  0  0  0
   20.9075   -6.2295  -13.1680 N   0  0  0  0  0  0  0  0  0  0  0  0
   20.9452   -4.7927  -12.9895 C   0  0  0  0  0  0  0  0  0  0  0  0
   22.0195   -4.1698  -13.7985 C   0  0  0  0  0  0  0  0  0  0  0  0
   23.3518   -4.3674  -13.4762 O   0  0  0  0  0  0  0  0  0  0  0  0
   21.7554   -3.4513  -14.7909 O   0  0  0  0  0  0  0  0  0  0  0  0
  2  3  1  0
  2  1  1  1
  3  4  1  0
  5  2  1  0
  5  6  2  0
  7  5  1  0
  8 11  1  0
  8  7  1  0
  8  9  1  6
 10  9  1  0
 11 13  1  0
 12 11  2  0
 13 14  1  0
 14 15  1  0
 15 17  2  0
 15 16  1  0
M  END
$$$$
