CCG.pdb
     RDKit          3D

 17 16  0  0  1  0  0  0  0  0999 V2000
   24.8505  -11.7352  -17.2941 N   0  0  0  0  0  0  0  0  0  0  0  0
   24.8843  -10.8380  -16.1824 C   0  0  1  0  0  0  0  0  0  0  0  0
   26.2418  -10.1872  -16.1079 C   0  0  0  0  0  0  0  0  0  0  0  0
   27.5196  -11.3276  -15.5560 S   0  0  0  0  0  0  0  0  0  0  0  0
   23.7865   -9.8381  -16.2130 C   0  0  0  0  0  0  0  0  0  0  0  0
   23.4809   -9.2833  -17.2992 O   0  0  0  0  0  0  0  0  0  0  0  0
   23.0427   -9.4599  -15.0660 N   0  0  0  0  0  0  0  0  0  0  0  0
   21.9205   -8.5657  -15.1026 C   0  0  1  0  0  0  0  0  0  0  0  0
   20.6647   -9.2874  -14.5953 C   0  0  0  0  0  0  0  0  0  0  0  0
   20.5843  -10.8958  -15.4170 S   0  0  0  0  0  0  0  0  0  0  0  0
   22.0980   -7.3727  -14.2529 C   0  0  0  0  0  0  0  0  0  0  0  0
   22.5580   -7.5350  -13.0935 O   0  0  0  0  0  0  0  0  0  0  0  0
   21.7827   -6.0582  -14.6622 N   0  0  0  0  0  0  0  0  0  0  0  0
   21.9086   -4.9017  -13.7994 C   0  0  0  0  0  0  0  0  0  0  0  0
   21.5466   -3.6507  -14.5067 C   0  0  0  0  0  0  0  0  0  0  0  0
   21.2292   -3.6673  -15.8547 O   0  0  0  0  0  0  0  0  0  0  0  0
   21.5173   -2.5490  -13.9098 O   0  0  0  0  0  0  0  0  0  0  0  0
  2  3  1  0
  2  1  1  6
  3  4  1  0
  5  2  1  0
  5  6  2  0
  7  5  1  0
  8 11  1  0
  8  7  1  0
  8  9  1  1
 10  9  1  0
 11 13  1  0
 12 11  2  0
 13 14  1  0
 14 15  1  0
 15 17  2  0
 15 16  1  0
M  END
$$$$
