CCG.pdb
     RDKit          3D

 17 16  0  0  1  0  0  0  0  0999 V2000
   23.4545  -12.1092  -17.8951 N   0  0  0  0  0  0  0  0  0  0  0  0
   23.0577  -11.5966  -16.6216 C   0  0  1  0  0  0  0  0  0  0  0  0
   24.2824  -11.1784  -15.8489 C   0  0  0  0  0  0  0  0  0  0  0  0
   25.3440  -12.5723  -15.4394 S   0  0  0  0  0  0  0  0  0  0  0  0
   22.0612  -10.5002  -16.7249 C   0  0  0  0  0  0  0  0  0  0  0  0
   22.1427   -9.6726  -17.6680 O   0  0  0  0  0  0  0  0  0  0  0  0
   20.9969  -10.3232  -15.8040 N   0  0  0  0  0  0  0  0  0  0  0  0
   19.9560   -9.3482  -15.9662 C   0  0  1  0  0  0  0  0  0  0  0  0
   18.6072   -9.9559  -15.5578 C   0  0  0  0  0  0  0  0  0  0  0  0
   18.2744  -11.3492  -16.6608 S   0  0  0  0  0  0  0  0  0  0  0  0
   20.1498   -8.1450  -15.1348 C   0  0  0  0  0  0  0  0  0  0  0  0
   20.3725   -8.3035  -13.9071 O   0  0  0  0  0  0  0  0  0  0  0  0
   20.1004   -6.8246  -15.6338 N   0  0  0  0  0  0  0  0  0  0  0  0
   20.2987   -5.6513  -14.8079 C   0  0  0  0  0  0  0  0  0  0  0  0
   21.7353   -5.4156  -14.5299 C   0  0  0  0  0  0  0  0  0  0  0  0
   22.6801   -5.5455  -15.5341 O   0  0  0  0  0  0  0  0  0  0  0  0
   22.1340   -5.0942  -13.3860 O   0  0  0  0  0  0  0  0  0  0  0  0
  2  3  1  0
  2  1  1  6
  3  4  1  0
  5  2  1  0
  5  6  2  0
  7  5  1  0
  8 11  1  0
  8  7  1  0
  8  9  1  1
 10  9  1  0
 11 13  1  0
 12 11  2  0
 13 14  1  0
 14 15  1  0
 15 17  2  0
 15 16  1  0
M  END
$$$$
