CCG.pdb
     RDKit          3D

 17 16  0  0  1  0  0  0  0  0999 V2000
   28.1825  -20.4162  -15.6042 N   0  0  0  0  0  0  0  0  0  0  0  0
   27.7006  -19.8466  -14.3855 C   0  0  1  0  0  0  0  0  0  0  0  0
   27.2787  -18.4210  -14.6341 C   0  0  0  0  0  0  0  0  0  0  0  0
   28.4956  -17.5023  -15.5894 S   0  0  0  0  0  0  0  0  0  0  0  0
   26.6179  -20.6487  -13.7609 C   0  0  0  0  0  0  0  0  0  0  0  0
   25.9212  -21.4148  -14.4741 O   0  0  0  0  0  0  0  0  0  0  0  0
   26.3126  -20.6039  -12.3765 N   0  0  0  0  0  0  0  0  0  0  0  0
   25.2438  -21.3469  -11.7713 C   0  0  1  0  0  0  0  0  0  0  0  0
   25.4588  -21.4232  -10.2537 C   0  0  0  0  0  0  0  0  0  0  0  0
   25.6123  -19.7318   -9.6336 S   0  0  0  0  0  0  0  0  0  0  0  0
   23.9172  -20.7369  -11.9829 C   0  0  0  0  0  0  0  0  0  0  0  0
   23.8663  -19.5090  -12.2509 O   0  0  0  0  0  0  0  0  0  0  0  0
   22.6997  -21.4482  -11.9028 N   0  0  0  0  0  0  0  0  0  0  0  0
   21.4098  -20.8581  -12.1957 C   0  0  0  0  0  0  0  0  0  0  0  0
   21.0347  -21.0431  -13.6175 C   0  0  0  0  0  0  0  0  0  0  0  0
   20.2204  -22.0950  -14.0026 O   0  0  0  0  0  0  0  0  0  0  0  0
   21.4408  -20.2585  -14.5065 O   0  0  0  0  0  0  0  0  0  0  0  0
  2  3  1  0
  2  1  1  6
  3  4  1  0
  5  2  1  0
  5  6  2  0
  7  5  1  0
  8 11  1  0
  8  7  1  0
  8  9  1  1
 10  9  1  0
 11 13  1  0
 12 11  2  0
 13 14  1  0
 14 15  1  0
 15 17  2  0
 15 16  1  0
M  END
$$$$
