CCG.pdb
     RDKit          3D

 17 16  0  0  1  0  0  0  0  0999 V2000
   20.4040  -19.9882  -13.3094 N   0  0  0  0  0  0  0  0  0  0  0  0
   21.3974  -21.0140  -13.2559 C   0  0  1  0  0  0  0  0  0  0  0  0
   21.3771  -21.7955  -14.5446 C   0  0  0  0  0  0  0  0  0  0  0  0
   20.2761  -23.2166  -14.4674 S   0  0  0  0  0  0  0  0  0  0  0  0
   22.7515  -20.4914  -12.9410 C   0  0  0  0  0  0  0  0  0  0  0  0
   23.0537  -19.3138  -13.2620 O   0  0  0  0  0  0  0  0  0  0  0  0
   23.7502  -21.2557  -12.2849 N   0  0  0  0  0  0  0  0  0  0  0  0
   25.0783  -20.7771  -12.0253 C   0  0  1  0  0  0  0  0  0  0  0  0
   25.5824  -21.3427  -10.6907 C   0  0  0  0  0  0  0  0  0  0  0  0
   24.8551  -20.3535   -9.3636 S   0  0  0  0  0  0  0  0  0  0  0  0
   26.0550  -21.1811  -13.0546 C   0  0  0  0  0  0  0  0  0  0  0  0
   26.5960  -22.3114  -12.9459 O   0  0  0  0  0  0  0  0  0  0  0  0
   26.4199  -20.3754  -14.1558 N   0  0  0  0  0  0  0  0  0  0  0  0
   27.2761  -20.8330  -15.2307 C   0  0  0  0  0  0  0  0  0  0  0  0
   27.3906  -19.8202  -16.3066 C   0  0  0  0  0  0  0  0  0  0  0  0
   28.4478  -19.8549  -17.2004 O   0  0  0  0  0  0  0  0  0  0  0  0
   26.5400  -18.9091  -16.4378 O   0  0  0  0  0  0  0  0  0  0  0  0
  2  3  1  0
  2  1  1  6
  3  4  1  0
  5  2  1  0
  5  6  2  0
  7  5  1  0
  8 11  1  0
  8  7  1  0
  8  9  1  1
 10  9  1  0
 11 13  1  0
 12 11  2  0
 13 14  1  0
 14 15  1  0
 15 17  2  0
 15 16  1  0
M  END
$$$$
