CCG.pdb
     RDKit          3D

 17 16  0  0  1  0  0  0  0  0999 V2000
   24.9678  -33.6397  -11.7939 N   0  0  0  0  0  0  0  0  0  0  0  0
   25.7026  -34.3231  -10.7767 C   0  0  1  0  0  0  0  0  0  0  0  0
   27.0324  -34.7637  -11.3330 C   0  0  0  0  0  0  0  0  0  0  0  0
   26.9641  -36.4137  -12.0478 S   0  0  0  0  0  0  0  0  0  0  0  0
   25.8544  -33.5215   -9.5357 C   0  0  0  0  0  0  0  0  0  0  0  0
   26.1169  -32.2944   -9.6163 O   0  0  0  0  0  0  0  0  0  0  0  0
   25.7187  -34.0661   -8.2330 N   0  0  0  0  0  0  0  0  0  0  0  0
   25.8981  -33.3062   -7.0286 C   0  0  1  0  0  0  0  0  0  0  0  0
   24.5736  -33.2365   -6.2565 C   0  0  0  0  0  0  0  0  0  0  0  0
   23.5923  -31.8943   -6.9666 S   0  0  0  0  0  0  0  0  0  0  0  0
   26.8944  -33.8930   -6.1122 C   0  0  0  0  0  0  0  0  0  0  0  0
   26.9593  -35.1466   -6.0327 O   0  0  0  0  0  0  0  0  0  0  0  0
   27.7805  -33.1323   -5.3179 N   0  0  0  0  0  0  0  0  0  0  0  0
   28.7835  -33.7206   -4.4541 C   0  0  0  0  0  0  0  0  0  0  0  0
   28.1790  -34.3004   -3.2314 C   0  0  0  0  0  0  0  0  0  0  0  0
   28.9735  -34.8831   -2.2583 O   0  0  0  0  0  0  0  0  0  0  0  0
   26.9400  -34.2803   -3.0439 O   0  0  0  0  0  0  0  0  0  0  0  0
  2  3  1  0
  2  1  1  6
  3  4  1  0
  5  2  1  0
  5  6  2  0
  7  5  1  0
  8 11  1  0
  8  7  1  0
  8  9  1  1
 10  9  1  0
 11 13  1  0
 12 11  2  0
 13 14  1  0
 14 15  1  0
 15 17  2  0
 15 16  1  0
M  END
$$$$
