CCG.pdb
     RDKit          3D

 17 16  0  0  1  0  0  0  0  0999 V2000
   19.4167  -11.4767  -16.5885 N   0  0  0  0  0  0  0  0  0  0  0  0
   19.6915  -10.1979  -17.1638 C   0  0  1  0  0  0  0  0  0  0  0  0
   18.6572   -9.8923  -18.2169 C   0  0  0  0  0  0  0  0  0  0  0  0
   19.1245  -10.5164  -19.8386 S   0  0  0  0  0  0  0  0  0  0  0  0
   19.7922   -9.1174  -16.1498 C   0  0  0  0  0  0  0  0  0  0  0  0
   18.9272   -9.0351  -15.2410 O   0  0  0  0  0  0  0  0  0  0  0  0
   20.8281   -8.1485  -16.1417 N   0  0  0  0  0  0  0  0  0  0  0  0
   20.9142   -7.0815  -15.1853 C   0  0  1  0  0  0  0  0  0  0  0  0
   22.2338   -7.1858  -14.4087 C   0  0  0  0  0  0  0  0  0  0  0  0
   22.0716   -8.5448  -13.2274 S   0  0  0  0  0  0  0  0  0  0  0  0
   20.8887   -5.7419  -15.8029 C   0  0  0  0  0  0  0  0  0  0  0  0
   21.5364   -5.5683  -16.8670 O   0  0  0  0  0  0  0  0  0  0  0  0
   20.1807   -4.6413  -15.2716 N   0  0  0  0  0  0  0  0  0  0  0  0
   20.1552   -3.3333  -15.8932 C   0  0  0  0  0  0  0  0  0  0  0  0
   19.2752   -2.3956  -15.1563 C   0  0  0  0  0  0  0  0  0  0  0  0
   19.7267   -1.1365  -14.7978 O   0  0  0  0  0  0  0  0  0  0  0  0
   18.1050   -2.7127  -14.8385 O   0  0  0  0  0  0  0  0  0  0  0  0
  2  3  1  0
  2  1  1  1
  3  4  1  0
  5  2  1  0
  5  6  2  0
  7  5  1  0
  8 11  1  0
  8  7  1  0
  8  9  1  6
 10  9  1  0
 11 13  1  0
 12 11  2  0
 13 14  1  0
 14 15  1  0
 15 17  2  0
 15 16  1  0
M  END
$$$$
