CCG.pdb
     RDKit          3D

 17 16  0  0  1  0  0  0  0  0999 V2000
   18.9694  -10.7478  -17.0325 N   0  0  0  0  0  0  0  0  0  0  0  0
   20.0923   -9.8915  -16.8138 C   0  0  1  0  0  0  0  0  0  0  0  0
   20.5063   -9.2681  -18.1223 C   0  0  0  0  0  0  0  0  0  0  0  0
   21.2296  -10.4656  -19.2538 S   0  0  0  0  0  0  0  0  0  0  0  0
   19.8454   -8.8716  -15.7627 C   0  0  0  0  0  0  0  0  0  0  0  0
   18.7445   -8.2649  -15.7313 O   0  0  0  0  0  0  0  0  0  0  0  0
   20.7967   -8.5302  -14.7674 N   0  0  0  0  0  0  0  0  0  0  0  0
   20.5520   -7.5737  -13.7255 C   0  0  1  0  0  0  0  0  0  0  0  0
   20.7931   -8.2242  -12.3565 C   0  0  0  0  0  0  0  0  0  0  0  0
   19.2601   -9.0430  -11.8584 S   0  0  0  0  0  0  0  0  0  0  0  0
   21.4356   -6.3944  -13.7977 C   0  0  0  0  0  0  0  0  0  0  0  0
   22.6557   -6.5829  -14.0386 O   0  0  0  0  0  0  0  0  0  0  0  0
   20.9948   -5.0654  -13.6126 N   0  0  0  0  0  0  0  0  0  0  0  0
   21.8465   -3.9087  -13.7986 C   0  0  0  0  0  0  0  0  0  0  0  0
   21.6355   -3.2829  -15.1254 C   0  0  0  0  0  0  0  0  0  0  0  0
   22.1620   -3.8581  -16.2699 O   0  0  0  0  0  0  0  0  0  0  0  0
   20.9792   -2.2224  -15.2493 O   0  0  0  0  0  0  0  0  0  0  0  0
  2  3  1  0
  2  1  1  6
  3  4  1  0
  5  2  1  0
  5  6  2  0
  7  5  1  0
  8 11  1  0
  8  7  1  0
  8  9  1  1
 10  9  1  0
 11 13  1  0
 12 11  2  0
 13 14  1  0
 14 15  1  0
 15 17  2  0
 15 16  1  0
M  END
$$$$
