CCG.pdb
     RDKit          3D

 17 16  0  0  1  0  0  0  0  0999 V2000
   24.8260  -11.3913  -17.1995 N   0  0  0  0  0  0  0  0  0  0  0  0
   24.7527  -10.6386  -15.9870 C   0  0  1  0  0  0  0  0  0  0  0  0
   26.0712   -9.9484  -15.7480 C   0  0  0  0  0  0  0  0  0  0  0  0
   27.4044  -11.1115  -15.4197 S   0  0  0  0  0  0  0  0  0  0  0  0
   23.6124   -9.6872  -15.9653 C   0  0  0  0  0  0  0  0  0  0  0  0
   23.2574   -9.1178  -17.0287 O   0  0  0  0  0  0  0  0  0  0  0  0
   22.8804   -9.3726  -14.7918 N   0  0  0  0  0  0  0  0  0  0  0  0
   21.7100   -8.5417  -14.7810 C   0  0  1  0  0  0  0  0  0  0  0  0
   20.5394   -9.3018  -14.1428 C   0  0  0  0  0  0  0  0  0  0  0  0
   20.1297  -10.6910  -15.2249 S   0  0  0  0  0  0  0  0  0  0  0  0
   21.8845   -7.2994  -14.0044 C   0  0  0  0  0  0  0  0  0  0  0  0
   22.3327   -7.3918  -12.8329 O   0  0  0  0  0  0  0  0  0  0  0  0
   21.5785   -6.0115  -14.4967 N   0  0  0  0  0  0  0  0  0  0  0  0
   21.8450   -4.7920  -13.7620 C   0  0  0  0  0  0  0  0  0  0  0  0
   21.4373   -3.5917  -14.5298 C   0  0  0  0  0  0  0  0  0  0  0  0
   21.5341   -2.3284  -13.9707 O   0  0  0  0  0  0  0  0  0  0  0  0
   20.9961   -3.6843  -15.6993 O   0  0  0  0  0  0  0  0  0  0  0  0
  2  3  1  0
  2  1  1  6
  3  4  1  0
  5  2  1  0
  5  6  2  0
  7  5  1  0
  8 11  1  0
  8  7  1  0
  8  9  1  1
 10  9  1  0
 11 13  1  0
 12 11  2  0
 13 14  1  0
 14 15  1  0
 15 17  2  0
 15 16  1  0
M  END
$$$$
