CCG.pdb
     RDKit          3D

 17 16  0  0  1  0  0  0  0  0999 V2000
   24.9912  -11.9903  -16.2096 N   0  0  0  0  0  0  0  0  0  0  0  0
   23.7932  -11.3553  -15.7584 C   0  0  1  0  0  0  0  0  0  0  0  0
   23.7221  -11.4359  -14.2548 C   0  0  0  0  0  0  0  0  0  0  0  0
   23.2269  -13.0669  -13.6782 S   0  0  0  0  0  0  0  0  0  0  0  0
   23.6580   -9.9604  -16.2498 C   0  0  0  0  0  0  0  0  0  0  0  0
   24.6891   -9.2700  -16.4530 O   0  0  0  0  0  0  0  0  0  0  0  0
   22.4082   -9.3424  -16.5111 N   0  0  0  0  0  0  0  0  0  0  0  0
   22.2695   -8.0018  -17.0049 C   0  0  1  0  0  0  0  0  0  0  0  0
   21.5749   -8.0219  -18.3733 C   0  0  0  0  0  0  0  0  0  0  0  0
   21.5336   -6.3246  -18.9948 S   0  0  0  0  0  0  0  0  0  0  0  0
   21.4560   -7.1387  -16.1275 C   0  0  0  0  0  0  0  0  0  0  0  0
   20.4065   -7.6219  -15.6302 O   0  0  0  0  0  0  0  0  0  0  0  0
   21.7839   -5.8018  -15.8114 N   0  0  0  0  0  0  0  0  0  0  0  0
   20.9311   -4.9355  -15.0240 C   0  0  0  0  0  0  0  0  0  0  0  0
   21.5438   -3.6009  -14.8241 C   0  0  0  0  0  0  0  0  0  0  0  0
   20.8734   -2.6133  -14.1219 O   0  0  0  0  0  0  0  0  0  0  0  0
   22.6786   -3.3291  -15.2816 O   0  0  0  0  0  0  0  0  0  0  0  0
  2  3  1  0
  2  1  1  1
  3  4  1  0
  5  2  1  0
  5  6  2  0
  7  5  1  0
  8 11  1  0
  8  7  1  0
  8  9  1  6
 10  9  1  0
 11 13  1  0
 12 11  2  0
 13 14  1  0
 14 15  1  0
 15 17  2  0
 15 16  1  0
M  END
$$$$
