ETF.pdb
     RDKit          3D

 28 28  0  0  1  0  0  0  0  0999 V2000
   18.3490  -12.2072  -18.9318 N   0  0  0  0  0  0  0  0  0  0  0  0
   18.1984  -11.1876  -17.9166 C   0  0  1  0  0  0  0  0  0  0  0  0
   18.1879  -11.9328  -16.5771 C   0  0  0  0  0  0  0  0  0  0  0  0
   16.8944  -12.7196  -16.4418 C   0  0  0  0  0  0  0  0  0  0  0  0
   16.8946  -13.5311  -15.2029 C   0  0  0  0  0  0  0  0  0  0  0  0
   17.3292  -14.7056  -15.1416 O   0  0  0  0  0  0  0  0  0  0  0  0
   19.3001  -10.2167  -17.9762 C   0  0  0  0  0  0  0  0  0  0  0  0
   20.4537  -10.6302  -18.3044 O   0  0  0  0  0  0  0  0  0  0  0  0
   16.3874  -12.9659  -14.0449 O   0  0  0  0  0  0  0  0  0  0  0  0
   19.6515   -7.1979  -20.1314 C   0  0  0  0  0  0  0  0  0  0  0  0
   19.7558   -6.7685  -18.6877 C   0  0  1  0  0  0  0  0  0  0  0  0
   18.4769   -6.3164  -18.3257 O   0  0  0  0  0  0  0  0  0  0  0  0
   20.1891   -7.9158  -17.7925 C   0  0  2  0  0  0  0  0  0  0  0  0
   19.0460   -8.8569  -17.6686 N   0  0  0  0  0  0  0  0  0  0  0  0
   20.4188   -7.3730  -16.4346 C   0  0  0  0  0  0  0  0  0  0  0  0
   19.4847   -7.4914  -15.5637 O   0  0  0  0  0  0  0  0  0  0  0  0
   21.5785   -6.7272  -15.9815 N   0  0  0  0  0  0  0  0  0  0  0  0
   21.6587   -6.1954  -14.6120 C   0  0  1  0  0  0  0  0  0  0  0  0
   22.2472   -7.2511  -13.7097 C   0  0  0  0  0  0  0  0  0  0  0  0
   23.4044   -7.8864  -14.3637 C   0  0  0  0  0  0  0  0  0  0  0  0
   23.6818   -9.2229  -14.1632 C   0  0  0  0  0  0  0  0  0  0  0  0
   24.7643   -9.7868  -14.7851 C   0  0  0  0  0  0  0  0  0  0  0  0
   25.5486   -9.0024  -15.5956 C   0  0  0  0  0  0  0  0  0  0  0  0
   25.2943   -7.6647  -15.8134 C   0  0  0  0  0  0  0  0  0  0  0  0
   24.1999   -7.0976  -15.1840 C   0  0  0  0  0  0  0  0  0  0  0  0
   22.4136   -4.9365  -14.5870 C   0  0  0  0  0  0  0  0  0  0  0  0
   23.0237   -4.3689  -15.6829 O   0  0  0  0  0  0  0  0  0  0  0  0
   22.5318   -4.3039  -13.4923 O   0  0  0  0  0  0  0  0  0  0  0  0
  2  1  1  6
  3  2  1  0
  4  3  1  0
  5  6  2  0
  5  4  1  0
  7  2  1  0
  7  8  2  0
  9  5  1  0
 11 13  1  0
 11 10  1  6
 12 11  1  0
 13 14  1  1
 14  7  1  0
 15 13  1  0
 16 15  2  0
 17 15  1  0
 18 17  1  0
 18 19  1  1
 20 21  2  0
 20 19  1  0
 22 21  1  0
 23 22  2  0
 24 23  1  0
 24 25  2  0
 25 20  1  0
 26 18  1  0
 27 26  1  0
 28 26  2  0
M  END
$$$$
