ETF.pdb
     RDKit          3D

 28 28  0  0  1  0  0  0  0  0999 V2000
   22.8529  -14.1782  -21.8417 N   0  0  0  0  0  0  0  0  0  0  0  0
   21.9454  -13.2228  -21.2450 C   0  0  1  0  0  0  0  0  0  0  0  0
   21.0215  -14.0393  -20.3343 C   0  0  0  0  0  0  0  0  0  0  0  0
   20.2472  -15.0482  -21.1667 C   0  0  0  0  0  0  0  0  0  0  0  0
   20.9902  -16.3245  -21.2791 C   0  0  0  0  0  0  0  0  0  0  0  0
   21.3902  -16.8021  -22.3672 O   0  0  0  0  0  0  0  0  0  0  0  0
   22.6791  -12.2035  -20.4816 C   0  0  0  0  0  0  0  0  0  0  0  0
   23.9245  -12.0747  -20.6860 O   0  0  0  0  0  0  0  0  0  0  0  0
   21.2607  -17.0337  -20.1210 O   0  0  0  0  0  0  0  0  0  0  0  0
   21.9844   -8.8292  -20.7727 C   0  0  0  0  0  0  0  0  0  0  0  0
   23.1694   -9.3239  -19.9787 C   0  0  1  0  0  0  0  0  0  0  0  0
   23.7558   -8.1830  -19.4081 O   0  0  0  0  0  0  0  0  0  0  0  0
   22.7491  -10.3044  -18.8982 C   0  0  2  0  0  0  0  0  0  0  0  0
   21.9815  -11.3991  -19.5464 N   0  0  0  0  0  0  0  0  0  0  0  0
   21.7952   -9.6136  -18.0015 C   0  0  0  0  0  0  0  0  0  0  0  0
   20.5952   -9.4269  -18.4141 O   0  0  0  0  0  0  0  0  0  0  0  0
   22.0653   -9.1288  -16.7135 N   0  0  0  0  0  0  0  0  0  0  0  0
   20.9847   -8.6048  -15.8635 C   0  0  1  0  0  0  0  0  0  0  0  0
   20.5611   -9.6778  -14.8917 C   0  0  0  0  0  0  0  0  0  0  0  0
   19.4159   -9.2106  -14.0914 C   0  0  0  0  0  0  0  0  0  0  0  0
   18.1626   -9.0920  -14.6557 C   0  0  0  0  0  0  0  0  0  0  0  0
   17.1162   -8.6556  -13.8869 C   0  0  0  0  0  0  0  0  0  0  0  0
   17.3440   -8.3462  -12.5679 C   0  0  0  0  0  0  0  0  0  0  0  0
   18.5859   -8.4555  -11.9786 C   0  0  0  0  0  0  0  0  0  0  0  0
   19.6413   -8.8968  -12.7577 C   0  0  0  0  0  0  0  0  0  0  0  0
   21.4018   -7.3641  -15.1988 C   0  0  0  0  0  0  0  0  0  0  0  0
   20.5374   -6.4217  -14.6888 O   0  0  0  0  0  0  0  0  0  0  0  0
   22.6400   -7.1126  -15.0716 O   0  0  0  0  0  0  0  0  0  0  0  0
  2  1  1  1
  3  2  1  0
  4  3  1  0
  5  6  2  0
  5  4  1  0
  7  2  1  0
  7  8  2  0
  9  5  1  0
 11 13  1  0
 11 10  1  1
 12 11  1  0
 13 14  1  6
 14  7  1  0
 15 13  1  0
 16 15  2  0
 17 15  1  0
 18 17  1  0
 18 19  1  1
 20 21  2  0
 20 19  1  0
 22 21  1  0
 23 22  2  0
 24 23  1  0
 24 25  2  0
 25 20  1  0
 26 18  1  0
 27 26  1  0
 28 26  2  0
M  END
$$$$
