ETF.pdb
     RDKit          3D

 28 28  0  0  1  0  0  0  0  0999 V2000
   26.9593  -21.3692  -14.8956 N   0  0  0  0  0  0  0  0  0  0  0  0
   26.4166  -20.0313  -14.9864 C   0  0  1  0  0  0  0  0  0  0  0  0
   25.4240  -20.0634  -16.1541 C   0  0  0  0  0  0  0  0  0  0  0  0
   26.1414  -19.6964  -17.4429 C   0  0  0  0  0  0  0  0  0  0  0  0
   25.2935  -18.8296  -18.2934 C   0  0  0  0  0  0  0  0  0  0  0  0
   25.3272  -17.5767  -18.2600 O   0  0  0  0  0  0  0  0  0  0  0  0
   25.7516  -19.6454  -13.7339 C   0  0  0  0  0  0  0  0  0  0  0  0
   24.7227  -18.9060  -13.7982 O   0  0  0  0  0  0  0  0  0  0  0  0
   24.4127  -19.4315  -19.1763 O   0  0  0  0  0  0  0  0  0  0  0  0
   23.4490  -21.0212  -12.7261 C   0  0  0  0  0  0  0  0  0  0  0  0
   24.3656  -21.2774  -11.5541 C   0  0  1  0  0  0  0  0  0  0  0  0
   25.0562  -22.4621  -11.8554 O   0  0  0  0  0  0  0  0  0  0  0  0
   25.3391  -20.1314  -11.3439 C   0  0  2  0  0  0  0  0  0  0  0  0
   26.2730  -20.1059  -12.4993 N   0  0  0  0  0  0  0  0  0  0  0  0
   26.1668  -20.4477  -10.1580 C   0  0  0  0  0  0  0  0  0  0  0  0
   27.0454  -21.3768  -10.2570 O   0  0  0  0  0  0  0  0  0  0  0  0
   26.0959  -19.8249   -8.9034 N   0  0  0  0  0  0  0  0  0  0  0  0
   26.9501  -20.2707   -7.7914 C   0  0  1  0  0  0  0  0  0  0  0  0
   27.7955  -19.1111   -7.3271 C   0  0  0  0  0  0  0  0  0  0  0  0
   28.4921  -19.4626   -6.0775 C   0  0  0  0  0  0  0  0  0  0  0  0
   29.5068  -20.3973   -6.0746 C   0  0  0  0  0  0  0  0  0  0  0  0
   30.1372  -20.7036   -4.8976 C   0  0  0  0  0  0  0  0  0  0  0  0
   29.7400  -20.0687   -3.7459 C   0  0  0  0  0  0  0  0  0  0  0  0
   28.7293  -19.1309   -3.7202 C   0  0  0  0  0  0  0  0  0  0  0  0
   28.0942  -18.8233   -4.9109 C   0  0  0  0  0  0  0  0  0  0  0  0
   26.1396  -20.8542   -6.7154 C   0  0  0  0  0  0  0  0  0  0  0  0
   26.6350  -21.6510   -5.7078 O   0  0  0  0  0  0  0  0  0  0  0  0
   24.8904  -20.6283   -6.6853 O   0  0  0  0  0  0  0  0  0  0  0  0
  2  1  1  1
  3  2  1  0
  4  3  1  0
  5  6  2  0
  5  4  1  0
  7  2  1  0
  7  8  2  0
  9  5  1  0
 11 13  1  0
 11 10  1  6
 12 11  1  0
 13 14  1  6
 14  7  1  0
 15 13  1  0
 16 15  2  0
 17 15  1  0
 18 17  1  0
 18 19  1  1
 20 21  2  0
 20 19  1  0
 22 21  1  0
 23 22  2  0
 24 23  1  0
 24 25  2  0
 25 20  1  0
 26 18  1  0
 27 26  1  0
 28 26  2  0
M  END
$$$$
