ETF.pdb
     RDKit          3D

 28 28  0  0  1  0  0  0  0  0999 V2000
   23.3007  -22.6342  -15.8530 N   0  0  0  0  0  0  0  0  0  0  0  0
   23.3320  -21.8192  -14.6582 C   0  0  1  0  0  0  0  0  0  0  0  0
   22.2945  -22.4310  -13.7102 C   0  0  0  0  0  0  0  0  0  0  0  0
   20.9096  -21.9192  -14.0716 C   0  0  0  0  0  0  0  0  0  0  0  0
   20.8904  -20.4395  -14.1330 C   0  0  0  0  0  0  0  0  0  0  0  0
   20.8708  -19.7887  -15.2046 O   0  0  0  0  0  0  0  0  0  0  0  0
   24.6713  -21.8208  -14.0531 C   0  0  0  0  0  0  0  0  0  0  0  0
   25.3204  -22.9104  -14.0238 O   0  0  0  0  0  0  0  0  0  0  0  0
   20.8946  -19.7305  -12.9436 O   0  0  0  0  0  0  0  0  0  0  0  0
   28.5121  -19.3035  -12.2500 C   0  0  0  0  0  0  0  0  0  0  0  0
   27.2044  -19.3501  -13.0030 C   0  0  1  0  0  0  0  0  0  0  0  0
   27.5239  -19.1047  -14.3479 O   0  0  0  0  0  0  0  0  0  0  0  0
   26.5207  -20.6977  -12.8546 C   0  0  2  0  0  0  0  0  0  0  0  0
   25.1967  -20.6158  -13.5238 N   0  0  0  0  0  0  0  0  0  0  0  0
   26.2381  -20.9098  -11.4171 C   0  0  0  0  0  0  0  0  0  0  0  0
   25.0151  -20.9232  -11.0308 O   0  0  0  0  0  0  0  0  0  0  0  0
   27.1863  -21.1054  -10.4024 N   0  0  0  0  0  0  0  0  0  0  0  0
   26.7679  -21.2694   -9.0013 C   0  0  1  0  0  0  0  0  0  0  0  0
   27.9699  -21.6460   -8.1715 C   0  0  0  0  0  0  0  0  0  0  0  0
   28.0455  -20.7901   -6.9749 C   0  0  0  0  0  0  0  0  0  0  0  0
   29.0968  -20.9074   -6.0893 C   0  0  0  0  0  0  0  0  0  0  0  0
   29.1411  -20.0975   -4.9853 C   0  0  0  0  0  0  0  0  0  0  0  0
   28.1324  -19.1858   -4.7887 C   0  0  0  0  0  0  0  0  0  0  0  0
   27.0705  -19.0475   -5.6575 C   0  0  0  0  0  0  0  0  0  0  0  0
   27.0283  -19.8669   -6.7721 C   0  0  0  0  0  0  0  0  0  0  0  0
   26.0942  -20.0591   -8.5152 C   0  0  0  0  0  0  0  0  0  0  0  0
   26.4676  -18.7737   -8.8373 O   0  0  0  0  0  0  0  0  0  0  0  0
   25.0948  -20.1724   -7.7401 O   0  0  0  0  0  0  0  0  0  0  0  0
  2  1  1  6
  3  2  1  0
  4  3  1  0
  5  6  2  0
  5  4  1  0
  7  2  1  0
  7  8  2  0
  9  5  1  0
 11 13  1  0
 11 10  1  1
 12 11  1  0
 13 14  1  6
 14  7  1  0
 15 13  1  0
 16 15  2  0
 17 15  1  0
 18 17  1  0
 18 19  1  1
 20 21  2  0
 20 19  1  0
 22 21  1  0
 23 22  2  0
 24 23  1  0
 24 25  2  0
 25 20  1  0
 26 18  1  0
 27 26  1  0
 28 26  2  0
M  END
$$$$
