ETF.pdb
     RDKit          3D

 28 28  0  0  1  0  0  0  0  0999 V2000
   20.1442  -19.2683  -15.7524 N   0  0  0  0  0  0  0  0  0  0  0  0
   21.5682  -19.0436  -15.6320 C   0  0  1  0  0  0  0  0  0  0  0  0
   21.7658  -17.5320  -15.7928 C   0  0  0  0  0  0  0  0  0  0  0  0
   22.6295  -17.2580  -17.0132 C   0  0  0  0  0  0  0  0  0  0  0  0
   24.0570  -17.5264  -16.7236 C   0  0  0  0  0  0  0  0  0  0  0  0
   24.8450  -16.6686  -16.2594 O   0  0  0  0  0  0  0  0  0  0  0  0
   22.0679  -19.5095  -14.3307 C   0  0  0  0  0  0  0  0  0  0  0  0
   21.2252  -19.7994  -13.4278 O   0  0  0  0  0  0  0  0  0  0  0  0
   24.5541  -18.7935  -16.9780 O   0  0  0  0  0  0  0  0  0  0  0  0
   22.0204  -22.0578  -13.4881 C   0  0  0  0  0  0  0  0  0  0  0  0
   23.5145  -21.9161  -13.3235 C   0  0  1  0  0  0  0  0  0  0  0  0
   24.0776  -22.3167  -14.5456 O   0  0  0  0  0  0  0  0  0  0  0  0
   23.9085  -20.4863  -12.9980 C   0  0  2  0  0  0  0  0  0  0  0  0
   23.4650  -19.6218  -14.1221 N   0  0  0  0  0  0  0  0  0  0  0  0
   25.3869  -20.4122  -12.9859 C   0  0  0  0  0  0  0  0  0  0  0  0
   25.9614  -19.5539  -13.7464 O   0  0  0  0  0  0  0  0  0  0  0  0
   26.2534  -21.1973  -12.2115 N   0  0  0  0  0  0  0  0  0  0  0  0
   27.6547  -20.7971  -12.0087 C   0  0  1  0  0  0  0  0  0  0  0  0
   27.6882  -19.5102  -11.2226 C   0  0  0  0  0  0  0  0  0  0  0  0
   27.5218  -19.7916   -9.7861 C   0  0  0  0  0  0  0  0  0  0  0  0
   28.5678  -20.2942   -9.0401 C   0  0  0  0  0  0  0  0  0  0  0  0
   28.3840  -20.5455   -7.7061 C   0  0  0  0  0  0  0  0  0  0  0  0
   27.1568  -20.2892   -7.1441 C   0  0  0  0  0  0  0  0  0  0  0  0
   26.0947  -19.7871   -7.8661 C   0  0  0  0  0  0  0  0  0  0  0  0
   26.2832  -19.5339   -9.2137 C   0  0  0  0  0  0  0  0  0  0  0  0
   28.4162  -21.8773  -11.3697 C   0  0  0  0  0  0  0  0  0  0  0  0
   29.7870  -21.9988  -11.4127 O   0  0  0  0  0  0  0  0  0  0  0  0
   27.7959  -22.7793  -10.7263 O   0  0  0  0  0  0  0  0  0  0  0  0
  2  1  1  1
  3  2  1  0
  4  3  1  0
  5  6  2  0
  5  4  1  0
  7  2  1  0
  7  8  2  0
  9  5  1  0
 11 13  1  0
 11 10  1  6
 12 11  1  0
 13 14  1  6
 14  7  1  0
 15 13  1  0
 16 15  2  0
 17 15  1  0
 18 17  1  0
 18 19  1  1
 20 21  2  0
 20 19  1  0
 22 21  1  0
 23 22  2  0
 24 23  1  0
 24 25  2  0
 25 20  1  0
 26 18  1  0
 27 26  1  0
 28 26  2  0
M  END
$$$$
