ETF.pdb
     RDKit          3D

 28 28  0  0  1  0  0  0  0  0999 V2000
   15.6786  -10.3972  -16.6434 N   0  0  0  0  0  0  0  0  0  0  0  0
   15.8312   -9.1555  -17.3698 C   0  0  1  0  0  0  0  0  0  0  0  0
   14.9913   -8.1229  -16.6097 C   0  0  0  0  0  0  0  0  0  0  0  0
   14.2736   -8.8010  -15.4540 C   0  0  0  0  0  0  0  0  0  0  0  0
   13.4806   -7.8224  -14.6748 C   0  0  0  0  0  0  0  0  0  0  0  0
   12.2615   -7.6037  -14.8696 O   0  0  0  0  0  0  0  0  0  0  0  0
   17.2427   -8.7507  -17.4323 C   0  0  0  0  0  0  0  0  0  0  0  0
   18.1291   -9.5934  -17.0955 O   0  0  0  0  0  0  0  0  0  0  0  0
   14.1164   -7.1064  -13.6745 O   0  0  0  0  0  0  0  0  0  0  0  0
   20.5432   -5.6673  -19.3868 C   0  0  0  0  0  0  0  0  0  0  0  0
   19.1407   -6.2097  -19.2513 C   0  0  1  0  0  0  0  0  0  0  0  0
   18.8751   -6.8970  -20.4463 O   0  0  0  0  0  0  0  0  0  0  0  0
   19.0142   -7.1427  -18.0601 C   0  0  2  0  0  0  0  0  0  0  0  0
   17.5721   -7.4416  -17.8635 N   0  0  0  0  0  0  0  0  0  0  0  0
   19.4450   -6.4020  -16.8529 C   0  0  0  0  0  0  0  0  0  0  0  0
   18.6542   -5.5182  -16.3644 O   0  0  0  0  0  0  0  0  0  0  0  0
   20.6553   -6.5657  -16.1636 N   0  0  0  0  0  0  0  0  0  0  0  0
   20.9550   -5.7649  -14.9662 C   0  0  1  0  0  0  0  0  0  0  0  0
   21.0538   -6.6836  -13.7740 C   0  0  0  0  0  0  0  0  0  0  0  0
   21.8805   -7.8565  -14.1075 C   0  0  0  0  0  0  0  0  0  0  0  0
   23.2312   -7.7203  -14.3533 C   0  0  0  0  0  0  0  0  0  0  0  0
   23.9751   -8.8289  -14.6605 C   0  0  0  0  0  0  0  0  0  0  0  0
   23.3529  -10.0525  -14.7159 C   0  0  0  0  0  0  0  0  0  0  0  0
   22.0052  -10.2171  -14.4748 C   0  0  0  0  0  0  0  0  0  0  0  0
   21.2561   -9.0954  -14.1646 C   0  0  0  0  0  0  0  0  0  0  0  0
   22.1655   -4.9597  -15.1693 C   0  0  0  0  0  0  0  0  0  0  0  0
   22.9662   -5.0202  -16.2877 O   0  0  0  0  0  0  0  0  0  0  0  0
   22.5273   -4.1421  -14.2675 O   0  0  0  0  0  0  0  0  0  0  0  0
  2  1  1  1
  3  2  1  0
  4  3  1  0
  5  6  2  0
  5  4  1  0
  7  2  1  0
  7  8  2  0
  9  5  1  0
 11 13  1  0
 11 10  1  6
 12 11  1  0
 13 14  1  1
 14  7  1  0
 15 13  1  0
 16 15  2  0
 17 15  1  0
 18 17  1  0
 18 19  1  1
 20 21  2  0
 20 19  1  0
 22 21  1  0
 23 22  2  0
 24 23  1  0
 24 25  2  0
 25 20  1  0
 26 18  1  0
 27 26  1  0
 28 26  2  0
M  END
$$$$
