MHT.pdb
     RDKit          3D

 26 26  0  0  1  0  0  0  0  0999 V2000
   27.7946  -19.9603  -18.1530 C   0  0  0  0  0  0  0  0  0  0  0  0
   27.9996  -19.2348  -19.7944 S   0  0  0  0  0  0  0  0  0  0  0  0
   27.9468  -17.4203  -19.7369 C   0  0  0  0  0  0  0  0  0  0  0  0
   26.8893  -17.0208  -18.7572 C   0  0  0  0  0  0  0  0  0  0  0  0
   25.9935  -15.9187  -19.2855 C   0  0  2  0  0  0  0  0  0  0  0  0
   26.7284  -14.7297  -19.5757 N   0  0  0  0  0  0  0  0  0  0  0  0
   24.8632  -15.6677  -18.3198 C   0  0  0  0  0  0  0  0  0  0  0  0
   25.1092  -15.1377  -17.2088 O   0  0  0  0  0  0  0  0  0  0  0  0
   23.5296  -16.0239  -18.6538 N   0  0  0  0  0  0  0  0  0  0  0  0
   22.4057  -15.8508  -17.7909 C   0  0  1  0  0  0  0  0  0  0  0  0
   21.4252  -14.8081  -18.1935 C   0  0  0  0  0  0  0  0  0  0  0  0
   21.8766  -13.4216  -18.1033 C   0  0  0  0  0  0  0  0  0  0  0  0
   23.0800  -13.0173  -17.5627 C   0  0  0  0  0  0  0  0  0  0  0  0
   23.1337  -11.6784  -17.6529 N   0  0  0  0  0  0  0  0  0  0  0  0
   21.9943  -11.2165  -18.2378 C   0  0  0  0  0  0  0  0  0  0  0  0
   21.2340  -12.3144  -18.5064 N   0  0  0  0  0  0  0  0  0  0  0  0
   21.7937  -17.1666  -17.4283 C   0  0  0  0  0  0  0  0  0  0  0  0
   21.3482  -17.9591  -18.2893 O   0  0  0  0  0  0  0  0  0  0  0  0
   23.4454  -19.6839  -15.2455 C   0  0  0  0  0  0  0  0  0  0  0  0
   22.0472  -19.5819  -14.6744 C   0  0  1  0  0  0  0  0  0  0  0  0
   22.0993  -18.7327  -13.5517 O   0  0  0  0  0  0  0  0  0  0  0  0
   21.1783  -18.9122  -15.7078 C   0  0  2  0  0  0  0  0  0  0  0  0
   21.6788  -17.6029  -16.0775 N   0  0  0  0  0  0  0  0  0  0  0  0
   19.7712  -18.8545  -15.2544 C   0  0  0  0  0  0  0  0  0  0  0  0
   19.1455  -17.6316  -15.0426 O   0  0  0  0  0  0  0  0  0  0  0  0
   19.1366  -19.9094  -15.0592 O   0  0  0  0  0  0  0  0  0  0  0  0
  2  1  1  0
  3  2  1  0
  4  3  1  0
  4  5  1  0
  5  6  1  1
  7  5  1  0
  7  8  2  0
  9  7  1  0
 10  9  1  0
 11 12  1  0
 10 11  1  6
 12 16  1  0
 13 12  2  0
 13 14  1  0
 14 15  1  0
 16 15  2  0
 17 10  1  0
 18 17  2  0
 20 21  1  0
 20 19  1  6
 22 23  1  1
 22 20  1  0
 23 17  1  0
 24 22  1  0
 25 24  1  0
 26 24  2  0
M  END
$$$$
