MHT.pdb
     RDKit          3D

 26 26  0  0  1  0  0  0  0  0999 V2000
   30.4439  -15.9105  -18.0191 C   0  0  0  0  0  0  0  0  0  0  0  0
   28.6583  -15.7803  -18.2581 S   0  0  0  0  0  0  0  0  0  0  0  0
   27.7722  -15.7222  -16.6738 C   0  0  0  0  0  0  0  0  0  0  0  0
   26.3255  -15.4755  -16.9637 C   0  0  0  0  0  0  0  0  0  0  0  0
   25.5685  -16.7514  -17.2726 C   0  0  2  0  0  0  0  0  0  0  0  0
   26.0904  -17.4134  -18.4247 N   0  0  0  0  0  0  0  0  0  0  0  0
   24.0958  -16.4562  -17.4041 C   0  0  0  0  0  0  0  0  0  0  0  0
   23.6145  -16.2199  -18.5392 O   0  0  0  0  0  0  0  0  0  0  0  0
   23.2527  -16.4429  -16.2614 N   0  0  0  0  0  0  0  0  0  0  0  0
   21.8358  -16.2739  -16.3034 C   0  0  1  0  0  0  0  0  0  0  0  0
   21.0307  -17.3221  -15.6225 C   0  0  0  0  0  0  0  0  0  0  0  0
   21.1912  -18.6880  -16.1155 C   0  0  0  0  0  0  0  0  0  0  0  0
   21.9527  -19.0478  -17.2085 C   0  0  0  0  0  0  0  0  0  0  0  0
   21.8502  -20.3792  -17.3514 N   0  0  0  0  0  0  0  0  0  0  0  0
   21.0420  -20.8797  -16.3768 C   0  0  0  0  0  0  0  0  0  0  0  0
   20.6479  -19.8135  -15.6263 N   0  0  0  0  0  0  0  0  0  0  0  0
   21.4471  -14.8724  -15.9536 C   0  0  0  0  0  0  0  0  0  0  0  0
   21.8201  -14.3173  -14.8951 O   0  0  0  0  0  0  0  0  0  0  0  0
   22.1280  -11.7119  -17.6431 C   0  0  0  0  0  0  0  0  0  0  0  0
   20.6164  -11.7470  -17.5692 C   0  0  1  0  0  0  0  0  0  0  0  0
   20.1355  -12.2628  -18.7886 O   0  0  0  0  0  0  0  0  0  0  0  0
   20.2336  -12.7204  -16.4842 C   0  0  2  0  0  0  0  0  0  0  0  0
   20.6262  -14.0785  -16.8045 N   0  0  0  0  0  0  0  0  0  0  0  0
   18.7895  -12.6240  -16.1767 C   0  0  0  0  0  0  0  0  0  0  0  0
   18.2476  -11.4416  -15.6871 O   0  0  0  0  0  0  0  0  0  0  0  0
   18.0479  -13.6096  -16.3568 O   0  0  0  0  0  0  0  0  0  0  0  0
  2  1  1  0
  3  2  1  0
  4  3  1  0
  4  5  1  0
  5  6  1  6
  7  5  1  0
  7  8  2  0
  9  7  1  0
 10  9  1  0
 11 12  1  0
 10 11  1  1
 12 16  1  0
 13 12  2  0
 13 14  1  0
 14 15  1  0
 16 15  2  0
 17 10  1  0
 18 17  2  0
 20 21  1  0
 20 19  1  6
 22 23  1  6
 22 20  1  0
 23 17  1  0
 24 22  1  0
 25 24  1  0
 26 24  2  0
M  END
$$$$
