MHT.pdb
     RDKit          3D

 26 26  0  0  1  0  0  0  0  0999 V2000
   30.3723  -20.8864  -10.9608 C   0  0  0  0  0  0  0  0  0  0  0  0
   28.9245  -20.8705  -12.0408 S   0  0  0  0  0  0  0  0  0  0  0  0
   28.8835  -19.3855  -13.0855 C   0  0  0  0  0  0  0  0  0  0  0  0
   27.6414  -19.4413  -13.9172 C   0  0  0  0  0  0  0  0  0  0  0  0
   27.5037  -20.7494  -14.6698 C   0  0  2  0  0  0  0  0  0  0  0  0
   28.4579  -20.8579  -15.7260 N   0  0  0  0  0  0  0  0  0  0  0  0
   26.0882  -20.9123  -15.1627 C   0  0  0  0  0  0  0  0  0  0  0  0
   25.7789  -20.4801  -16.2999 O   0  0  0  0  0  0  0  0  0  0  0  0
   25.1065  -21.5468  -14.3560 N   0  0  0  0  0  0  0  0  0  0  0  0
   23.7400  -21.7197  -14.7307 C   0  0  1  0  0  0  0  0  0  0  0  0
   23.1356  -23.0404  -14.4128 C   0  0  0  0  0  0  0  0  0  0  0  0
   21.7291  -23.2142  -14.7677 C   0  0  0  0  0  0  0  0  0  0  0  0
   20.6889  -23.2740  -13.8632 C   0  0  0  0  0  0  0  0  0  0  0  0
   19.5549  -23.4439  -14.5626 N   0  0  0  0  0  0  0  0  0  0  0  0
   19.8444  -23.4942  -15.8919 C   0  0  0  0  0  0  0  0  0  0  0  0
   21.1952  -23.3498  -15.9916 N   0  0  0  0  0  0  0  0  0  0  0  0
   22.9118  -20.5456  -14.3146 C   0  0  0  0  0  0  0  0  0  0  0  0
   22.9459  -20.0786  -13.1534 O   0  0  0  0  0  0  0  0  0  0  0  0
   22.5305  -16.9299  -15.6274 C   0  0  0  0  0  0  0  0  0  0  0  0
   21.2089  -17.6466  -15.8043 C   0  0  1  0  0  0  0  0  0  0  0  0
   21.1898  -18.2064  -17.0967 O   0  0  0  0  0  0  0  0  0  0  0  0
   21.1700  -18.7853  -14.8177 C   0  0  2  0  0  0  0  0  0  0  0  0
   22.0299  -19.8825  -15.2151 N   0  0  0  0  0  0  0  0  0  0  0  0
   19.7791  -19.2333  -14.5863 C   0  0  0  0  0  0  0  0  0  0  0  0
   18.8342  -18.3629  -14.0559 O   0  0  0  0  0  0  0  0  0  0  0  0
   19.4466  -20.4012  -14.8679 O   0  0  0  0  0  0  0  0  0  0  0  0
  2  1  1  0
  3  2  1  0
  4  3  1  0
  4  5  1  0
  5  6  1  6
  7  5  1  0
  7  8  2  0
  9  7  1  0
 10  9  1  0
 11 12  1  0
 10 11  1  1
 12 16  1  0
 13 12  2  0
 13 14  1  0
 14 15  1  0
 16 15  2  0
 17 10  1  0
 18 17  2  0
 20 21  1  0
 20 19  1  1
 22 23  1  6
 22 20  1  0
 23 17  1  0
 24 22  1  0
 25 24  1  0
 26 24  2  0
M  END
$$$$
