MHT.pdb
     RDKit          3D

 26 26  0  0  1  0  0  0  0  0999 V2000
   26.7504  -14.5937  -19.1545 C   0  0  0  0  0  0  0  0  0  0  0  0
   27.3928  -15.7937  -20.3419 S   0  0  0  0  0  0  0  0  0  0  0  0
   27.9823  -17.3017  -19.5191 C   0  0  0  0  0  0  0  0  0  0  0  0
   26.7882  -18.1296  -19.1637 C   0  0  0  0  0  0  0  0  0  0  0  0
   26.3279  -17.9044  -17.7376 C   0  0  2  0  0  0  0  0  0  0  0  0
   27.4225  -17.8948  -16.8211 N   0  0  0  0  0  0  0  0  0  0  0  0
   25.2841  -18.9272  -17.3668 C   0  0  0  0  0  0  0  0  0  0  0  0
   24.2944  -19.0974  -18.1200 O   0  0  0  0  0  0  0  0  0  0  0  0
   25.4096  -19.6956  -16.1791 N   0  0  0  0  0  0  0  0  0  0  0  0
   24.4374  -20.6322  -15.7149 C   0  0  1  0  0  0  0  0  0  0  0  0
   24.9632  -21.8094  -14.9745 C   0  0  0  0  0  0  0  0  0  0  0  0
   25.8266  -22.7175  -15.7258 C   0  0  0  0  0  0  0  0  0  0  0  0
   25.9783  -22.7078  -17.0972 C   0  0  0  0  0  0  0  0  0  0  0  0
   26.8431  -23.6852  -17.4147 N   0  0  0  0  0  0  0  0  0  0  0  0
   27.2480  -24.3195  -16.2802 C   0  0  0  0  0  0  0  0  0  0  0  0
   26.6050  -23.7020  -15.2503 N   0  0  0  0  0  0  0  0  0  0  0  0
   23.2959  -19.9387  -15.0414 C   0  0  0  0  0  0  0  0  0  0  0  0
   23.4211  -19.3551  -13.9407 O   0  0  0  0  0  0  0  0  0  0  0  0
   19.6917  -18.9598  -17.1113 C   0  0  0  0  0  0  0  0  0  0  0  0
   20.2497  -18.1985  -15.9278 C   0  0  1  0  0  0  0  0  0  0  0  0
   19.1688  -17.6070  -15.2453 O   0  0  0  0  0  0  0  0  0  0  0  0
   20.8796  -19.2006  -14.9947 C   0  0  2  0  0  0  0  0  0  0  0  0
   21.9912  -19.8978  -15.6108 N   0  0  0  0  0  0  0  0  0  0  0  0
   19.8649  -20.1404  -14.4695 C   0  0  0  0  0  0  0  0  0  0  0  0
   18.8159  -19.6815  -13.6817 O   0  0  0  0  0  0  0  0  0  0  0  0
   19.9470  -21.3559  -14.7331 O   0  0  0  0  0  0  0  0  0  0  0  0
  2  1  1  0
  3  2  1  0
  4  3  1  0
  4  5  1  0
  5  6  1  1
  7  5  1  0
  7  8  2  0
  9  7  1  0
 10  9  1  0
 11 12  1  0
 10 11  1  1
 12 16  1  0
 13 12  2  0
 13 14  1  0
 14 15  1  0
 16 15  2  0
 17 10  1  0
 18 17  2  0
 20 21  1  0
 20 19  1  6
 22 23  1  6
 22 20  1  0
 23 17  1  0
 24 22  1  0
 25 24  1  0
 26 24  2  0
M  END
$$$$
