MHT.pdb
     RDKit          3D

 26 26  0  0  1  0  0  0  0  0999 V2000
   28.0147  -18.1169   -6.5215 C   0  0  0  0  0  0  0  0  0  0  0  0
   27.5576  -19.8446   -6.2601 S   0  0  0  0  0  0  0  0  0  0  0  0
   26.1335  -20.3233   -7.2806 C   0  0  0  0  0  0  0  0  0  0  0  0
   26.4159  -19.9078   -8.6896 C   0  0  0  0  0  0  0  0  0  0  0  0
   25.2473  -20.1693   -9.6184 C   0  0  2  0  0  0  0  0  0  0  0  0
   24.6430  -21.4382   -9.3680 N   0  0  0  0  0  0  0  0  0  0  0  0
   25.6877  -20.0217  -11.0527 C   0  0  0  0  0  0  0  0  0  0  0  0
   26.1475  -18.9216  -11.4453 O   0  0  0  0  0  0  0  0  0  0  0  0
   25.5873  -21.1104  -11.9591 N   0  0  0  0  0  0  0  0  0  0  0  0
   25.8990  -21.0362  -13.3503 C   0  0  1  0  0  0  0  0  0  0  0  0
   26.8801  -22.0325  -13.8558 C   0  0  0  0  0  0  0  0  0  0  0  0
   27.2365  -21.9346  -15.2692 C   0  0  0  0  0  0  0  0  0  0  0  0
   26.6998  -21.0249  -16.1570 C   0  0  0  0  0  0  0  0  0  0  0  0
   27.2669  -21.2461  -17.3541 N   0  0  0  0  0  0  0  0  0  0  0  0
   28.1530  -22.2748  -17.2538 C   0  0  0  0  0  0  0  0  0  0  0  0
   28.1152  -22.6826  -15.9546 N   0  0  0  0  0  0  0  0  0  0  0  0
   24.6583  -20.9170  -14.1774 C   0  0  0  0  0  0  0  0  0  0  0  0
   23.6929  -21.7050  -14.0560 O   0  0  0  0  0  0  0  0  0  0  0  0
   22.0434  -18.5415  -14.2331 C   0  0  0  0  0  0  0  0  0  0  0  0
   22.5732  -18.4533  -15.6484 C   0  0  1  0  0  0  0  0  0  0  0  0
   23.5284  -17.4188  -15.6891 O   0  0  0  0  0  0  0  0  0  0  0  0
   23.2913  -19.7438  -15.9495 C   0  0  2  0  0  0  0  0  0  0  0  0
   24.4958  -19.8968  -15.1578 N   0  0  0  0  0  0  0  0  0  0  0  0
   23.5666  -19.8668  -17.3980 C   0  0  0  0  0  0  0  0  0  0  0  0
   22.5235  -19.9063  -18.3157 O   0  0  0  0  0  0  0  0  0  0  0  0
   24.7430  -19.9360  -17.8041 O   0  0  0  0  0  0  0  0  0  0  0  0
  2  1  1  0
  3  2  1  0
  4  3  1  0
  4  5  1  0
  5  6  1  6
  7  5  1  0
  7  8  2  0
  9  7  1  0
 10  9  1  0
 11 12  1  0
 10 11  1  6
 12 16  1  0
 13 12  2  0
 13 14  1  0
 14 15  1  0
 16 15  2  0
 17 10  1  0
 18 17  2  0
 20 21  1  0
 20 19  1  1
 22 23  1  1
 22 20  1  0
 23 17  1  0
 24 22  1  0
 25 24  1  0
 26 24  2  0
M  END
$$$$
