MHT.pdb
     RDKit          3D

 26 26  0  0  1  0  0  0  0  0999 V2000
   24.9549  -20.1540   -8.6542 C   0  0  0  0  0  0  0  0  0  0  0  0
   23.3373  -20.9505   -8.7609 S   0  0  0  0  0  0  0  0  0  0  0  0
   22.2587  -20.1197   -9.9629 C   0  0  0  0  0  0  0  0  0  0  0  0
   23.0733  -19.8160  -11.1802 C   0  0  0  0  0  0  0  0  0  0  0  0
   22.4867  -20.4227  -12.4389 C   0  0  2  0  0  0  0  0  0  0  0  0
   21.6133  -21.5133  -12.1459 N   0  0  0  0  0  0  0  0  0  0  0  0
   23.5935  -20.8178  -13.3832 C   0  0  0  0  0  0  0  0  0  0  0  0
   24.4680  -19.9727  -13.6944 O   0  0  0  0  0  0  0  0  0  0  0  0
   23.6554  -22.1306  -13.9213 N   0  0  0  0  0  0  0  0  0  0  0  0
   24.6917  -22.6046  -14.7810 C   0  0  1  0  0  0  0  0  0  0  0  0
   25.0119  -24.0533  -14.6841 C   0  0  0  0  0  0  0  0  0  0  0  0
   26.0061  -24.5638  -15.6250 C   0  0  0  0  0  0  0  0  0  0  0  0
   26.6583  -23.8031  -16.5736 C   0  0  0  0  0  0  0  0  0  0  0  0
   27.4858  -24.6192  -17.2466 N   0  0  0  0  0  0  0  0  0  0  0  0
   27.3789  -25.8830  -16.7517 C   0  0  0  0  0  0  0  0  0  0  0  0
   26.4577  -25.8215  -15.7502 N   0  0  0  0  0  0  0  0  0  0  0  0
   24.5061  -22.1056  -16.1789 C   0  0  0  0  0  0  0  0  0  0  0  0
   23.4008  -22.1496  -16.7656 O   0  0  0  0  0  0  0  0  0  0  0  0
   26.1834  -18.7554  -17.3674 C   0  0  0  0  0  0  0  0  0  0  0  0
   26.3887  -19.7955  -18.4480 C   0  0  1  0  0  0  0  0  0  0  0  0
   27.6739  -20.3468  -18.2793 O   0  0  0  0  0  0  0  0  0  0  0  0
   25.3892  -20.8996  -18.2164 C   0  0  2  0  0  0  0  0  0  0  0  0
   25.5772  -21.5469  -16.9331 N   0  0  0  0  0  0  0  0  0  0  0  0
   25.4123  -21.8722  -19.3310 C   0  0  0  0  0  0  0  0  0  0  0  0
   25.1341  -21.4659  -20.6307 O   0  0  0  0  0  0  0  0  0  0  0  0
   25.6832  -23.0682  -19.1076 O   0  0  0  0  0  0  0  0  0  0  0  0
  2  1  1  0
  3  2  1  0
  4  3  1  0
  4  5  1  0
  5  6  1  1
  7  5  1  0
  7  8  2  0
  9  7  1  0
 10  9  1  0
 11 12  1  0
 10 11  1  6
 12 16  1  0
 13 12  2  0
 13 14  1  0
 14 15  1  0
 16 15  2  0
 17 10  1  0
 18 17  2  0
 20 21  1  0
 20 19  1  1
 22 23  1  1
 22 20  1  0
 23 17  1  0
 24 22  1  0
 25 24  1  0
 26 24  2  0
M  END
$$$$
