MHT.pdb
     RDKit          3D

 26 26  0  0  1  0  0  0  0  0999 V2000
   26.8593  -20.1153  -21.0644 C   0  0  0  0  0  0  0  0  0  0  0  0
   28.1309  -19.2257  -20.1401 S   0  0  0  0  0  0  0  0  0  0  0  0
   28.9135  -20.2834  -18.8882 C   0  0  0  0  0  0  0  0  0  0  0  0
   27.8513  -20.7333  -17.9357 C   0  0  0  0  0  0  0  0  0  0  0  0
   28.3758  -21.7016  -16.8948 C   0  0  2  0  0  0  0  0  0  0  0  0
   28.7439  -22.9544  -17.4719 N   0  0  0  0  0  0  0  0  0  0  0  0
   27.3668  -21.8604  -15.7858 C   0  0  0  0  0  0  0  0  0  0  0  0
   26.5141  -22.7790  -15.8565 O   0  0  0  0  0  0  0  0  0  0  0  0
   27.3720  -20.9846  -14.6679 N   0  0  0  0  0  0  0  0  0  0  0  0
   26.4385  -21.0437  -13.5895 C   0  0  1  0  0  0  0  0  0  0  0  0
   26.9563  -20.6496  -12.2526 C   0  0  0  0  0  0  0  0  0  0  0  0
   26.0075  -20.7126  -11.1435 C   0  0  0  0  0  0  0  0  0  0  0  0
   24.6732  -21.0427  -11.2645 C   0  0  0  0  0  0  0  0  0  0  0  0
   24.1307  -20.9877  -10.0371 N   0  0  0  0  0  0  0  0  0  0  0  0
   25.0851  -20.6307   -9.1343 C   0  0  0  0  0  0  0  0  0  0  0  0
   26.2361  -20.4665   -9.8441 N   0  0  0  0  0  0  0  0  0  0  0  0
   25.1395  -20.4024  -13.9620 C   0  0  0  0  0  0  0  0  0  0  0  0
   25.0597  -19.2027  -14.3113 O   0  0  0  0  0  0  0  0  0  0  0  0
   23.1700  -21.2033  -16.7070 C   0  0  0  0  0  0  0  0  0  0  0  0
   22.1220  -21.2835  -15.6177 C   0  0  1  0  0  0  0  0  0  0  0  0
   21.9725  -22.6376  -15.2598 O   0  0  0  0  0  0  0  0  0  0  0  0
   22.6576  -20.5538  -14.4126 C   0  0  2  0  0  0  0  0  0  0  0  0
   23.9080  -21.1174  -13.9434 N   0  0  0  0  0  0  0  0  0  0  0  0
   21.6426  -20.4978  -13.3376 C   0  0  0  0  0  0  0  0  0  0  0  0
   20.4051  -19.9065  -13.5629 O   0  0  0  0  0  0  0  0  0  0  0  0
   21.8948  -20.9838  -12.2178 O   0  0  0  0  0  0  0  0  0  0  0  0
  2  1  1  0
  3  2  1  0
  4  3  1  0
  4  5  1  0
  5  6  1  6
  7  5  1  0
  7  8  2  0
  9  7  1  0
 10  9  1  0
 11 12  1  0
 10 11  1  1
 12 16  1  0
 13 12  2  0
 13 14  1  0
 14 15  1  0
 16 15  2  0
 17 10  1  0
 18 17  2  0
 20 21  1  0
 20 19  1  6
 22 23  1  1
 22 20  1  0
 23 17  1  0
 24 22  1  0
 25 24  1  0
 26 24  2  0
M  END
$$$$
