EPF.pdb
     RDKit          3D

 28 29  0  0  1  0  0  0  0  0999 V2000
   25.5647  -21.1395  -15.7025 N   0  0  0  0  0  0  0  0  0  0  0  0
   26.1704  -20.3487  -14.6624 C   0  0  1  0  0  0  0  0  0  0  0  0
   25.1827  -19.2746  -14.2409 C   0  0  0  0  0  0  0  0  0  0  0  0
   23.9165  -19.9235  -13.7887 C   0  0  0  0  0  0  0  0  0  0  0  0
   22.8820  -18.9120  -13.4123 C   0  0  0  0  0  0  0  0  0  0  0  0
   21.8253  -19.2844  -12.8644 O   0  0  0  0  0  0  0  0  0  0  0  0
   26.6082  -21.1127  -13.4969 C   0  0  0  0  0  0  0  0  0  0  0  0
   26.0340  -22.2301  -13.2812 O   0  0  0  0  0  0  0  0  0  0  0  0
   23.0771  -17.5722  -13.6611 O   0  0  0  0  0  0  0  0  0  0  0  0
   27.6071  -20.7267  -12.5898 N   0  0  0  0  0  0  0  0  0  0  0  0
   28.1730  -19.4349  -12.3871 C   0  0  0  0  0  0  0  0  0  0  0  0
   29.6722  -19.7366  -12.2495 C   0  0  0  0  0  0  0  0  0  0  0  0
   29.6922  -21.1247  -11.7131 C   0  0  0  0  0  0  0  0  0  0  0  0
   28.2984  -21.6241  -11.6582 C   0  0  1  0  0  0  0  0  0  0  0  0
   27.6428  -21.5026  -10.3588 C   0  0  0  0  0  0  0  0  0  0  0  0
   27.9686  -22.2677   -9.4151 O   0  0  0  0  0  0  0  0  0  0  0  0
   26.6247  -20.5414  -10.0829 N   0  0  0  0  0  0  0  0  0  0  0  0
   25.8681  -20.6033   -8.8443 C   0  0  1  0  0  0  0  0  0  0  0  0
   26.1336  -19.3568   -8.0581 C   0  0  0  0  0  0  0  0  0  0  0  0
   27.0750  -19.5179   -6.9394 C   0  0  0  0  0  0  0  0  0  0  0  0
   28.0104  -18.5511   -6.6427 C   0  0  0  0  0  0  0  0  0  0  0  0
   28.8797  -18.7430   -5.5747 C   0  0  0  0  0  0  0  0  0  0  0  0
   28.8057  -19.8916   -4.8194 C   0  0  0  0  0  0  0  0  0  0  0  0
   27.8738  -20.8746   -5.1007 C   0  0  0  0  0  0  0  0  0  0  0  0
   27.0094  -20.6674   -6.1745 C   0  0  0  0  0  0  0  0  0  0  0  0
   24.4325  -20.8116   -9.1358 C   0  0  0  0  0  0  0  0  0  0  0  0
   23.5724  -21.2496   -8.1426 O   0  0  0  0  0  0  0  0  0  0  0  0
   23.9516  -20.6021  -10.2773 O   0  0  0  0  0  0  0  0  0  0  0  0
  2  1  1  6
  2  3  1  0
  2  7  1  0
  4  3  1  0
  5  6  2  0
  5  4  1  0
  7  8  2  0
  7 10  1  0
  9  5  1  0
 10 14  1  0
 10 11  1  0
 12 11  1  0
 13 14  1  0
 13 12  1  0
 15 16  2  0
 14 15  1  1
 17 15  1  0
 18 26  1  0
 18 17  1  0
 18 19  1  6
 20 19  1  0
 21 20  2  0
 22 21  1  0
 23 24  1  0
 23 22  2  0
 24 25  2  0
 25 20  1  0
 26 27  1  0
 28 26  2  0
M  END
$$$$
