EPF.pdb
     RDKit          3D

 28 29  0  0  1  0  0  0  0  0999 V2000
   23.9749  -18.0289  -15.1046 N   0  0  0  0  0  0  0  0  0  0  0  0
   25.2969  -18.2333  -14.5713 C   0  0  1  0  0  0  0  0  0  0  0  0
   25.8221  -16.8996  -14.0689 C   0  0  0  0  0  0  0  0  0  0  0  0
   27.2273  -16.7177  -14.5392 C   0  0  0  0  0  0  0  0  0  0  0  0
   27.2779  -16.2308  -15.9517 C   0  0  0  0  0  0  0  0  0  0  0  0
   26.9230  -15.0647  -16.2157 O   0  0  0  0  0  0  0  0  0  0  0  0
   25.3747  -19.2346  -13.5106 C   0  0  0  0  0  0  0  0  0  0  0  0
   24.3574  -19.3643  -12.7535 O   0  0  0  0  0  0  0  0  0  0  0  0
   27.7112  -17.0509  -16.9690 O   0  0  0  0  0  0  0  0  0  0  0  0
   26.4718  -20.0697  -13.2484 N   0  0  0  0  0  0  0  0  0  0  0  0
   27.7904  -19.9996  -13.7833 C   0  0  0  0  0  0  0  0  0  0  0  0
   28.1158  -21.4698  -14.0838 C   0  0  0  0  0  0  0  0  0  0  0  0
   27.2883  -22.2107  -13.0932 C   0  0  0  0  0  0  0  0  0  0  0  0
   26.4572  -21.2320  -12.3540 C   0  0  1  0  0  0  0  0  0  0  0  0
   26.9948  -20.8046  -11.0650 C   0  0  0  0  0  0  0  0  0  0  0  0
   28.2261  -20.5802  -10.9394 O   0  0  0  0  0  0  0  0  0  0  0  0
   26.1873  -20.6195   -9.9030 N   0  0  0  0  0  0  0  0  0  0  0  0
   26.6357  -21.1032   -8.6086 C   0  0  1  0  0  0  0  0  0  0  0  0
   27.9247  -20.4237   -8.2637 C   0  0  0  0  0  0  0  0  0  0  0  0
   28.0869  -20.0866   -6.8412 C   0  0  0  0  0  0  0  0  0  0  0  0
   27.5971  -18.9085   -6.3216 C   0  0  0  0  0  0  0  0  0  0  0  0
   27.7705  -18.6306   -4.9704 C   0  0  0  0  0  0  0  0  0  0  0  0
   28.4272  -19.5270   -4.1577 C   0  0  0  0  0  0  0  0  0  0  0  0
   28.9266  -20.7155   -4.6597 C   0  0  0  0  0  0  0  0  0  0  0  0
   28.7448  -20.9796   -6.0162 C   0  0  0  0  0  0  0  0  0  0  0  0
   25.5790  -20.8939   -7.5943 C   0  0  0  0  0  0  0  0  0  0  0  0
   24.5077  -20.0578   -7.8610 O   0  0  0  0  0  0  0  0  0  0  0  0
   25.6170  -21.4584   -6.4727 O   0  0  0  0  0  0  0  0  0  0  0  0
  2  1  1  1
  2  3  1  0
  2  7  1  0
  4  3  1  0
  5  6  2  0
  5  4  1  0
  7  8  2  0
  7 10  1  0
  9  5  1  0
 10 14  1  0
 10 11  1  0
 12 11  1  0
 13 14  1  0
 13 12  1  0
 15 16  2  0
 14 15  1  1
 17 15  1  0
 18 26  1  0
 18 17  1  0
 18 19  1  1
 20 19  1  0
 21 20  2  0
 22 21  1  0
 23 24  1  0
 23 22  2  0
 24 25  2  0
 25 20  1  0
 26 27  1  0
 28 26  2  0
M  END
$$$$
