EPF.pdb
     RDKit          3D

 28 29  0  0  1  0  0  0  0  0999 V2000
   23.4154  -22.2864  -14.2816 N   0  0  0  0  0  0  0  0  0  0  0  0
   24.3139  -21.2485  -13.8464 C   0  0  1  0  0  0  0  0  0  0  0  0
   23.4988  -20.0000  -13.5569 C   0  0  0  0  0  0  0  0  0  0  0  0
   22.1214  -20.1758  -14.1053 C   0  0  0  0  0  0  0  0  0  0  0  0
   21.0855  -19.6134  -13.1860 C   0  0  0  0  0  0  0  0  0  0  0  0
   20.4481  -20.3769  -12.4334 O   0  0  0  0  0  0  0  0  0  0  0  0
   25.1262  -21.5980  -12.6837 C   0  0  0  0  0  0  0  0  0  0  0  0
   24.7590  -22.6064  -11.9959 O   0  0  0  0  0  0  0  0  0  0  0  0
   20.8225  -18.2624  -13.1561 O   0  0  0  0  0  0  0  0  0  0  0  0
   26.2783  -20.9217  -12.2536 N   0  0  0  0  0  0  0  0  0  0  0  0
   26.8375  -19.7108  -12.7544 C   0  0  0  0  0  0  0  0  0  0  0  0
   28.3410  -20.0198  -12.7945 C   0  0  0  0  0  0  0  0  0  0  0  0
   28.5088  -21.0336  -11.7179 C   0  0  0  0  0  0  0  0  0  0  0  0
   27.1701  -21.3668  -11.1776 C   0  0  1  0  0  0  0  0  0  0  0  0
   26.7907  -20.6488   -9.9637 C   0  0  0  0  0  0  0  0  0  0  0  0
   26.3100  -19.4891  -10.0422 O   0  0  0  0  0  0  0  0  0  0  0  0
   26.9351  -21.1959   -8.6536 N   0  0  0  0  0  0  0  0  0  0  0  0
   26.5701  -20.4153   -7.4840 C   0  0  1  0  0  0  0  0  0  0  0  0
   26.8107  -21.2446   -6.2606 C   0  0  0  0  0  0  0  0  0  0  0  0
   28.0181  -20.8906   -5.4989 C   0  0  0  0  0  0  0  0  0  0  0  0
   29.1053  -21.7348   -5.4424 C   0  0  0  0  0  0  0  0  0  0  0  0
   30.2275  -21.3596   -4.7123 C   0  0  0  0  0  0  0  0  0  0  0  0
   30.2514  -20.1527   -4.0505 C   0  0  0  0  0  0  0  0  0  0  0  0
   29.1702  -19.2907   -4.0944 C   0  0  0  0  0  0  0  0  0  0  0  0
   28.0528  -19.6811   -4.8306 C   0  0  0  0  0  0  0  0  0  0  0  0
   27.3141  -19.1364   -7.4744 C   0  0  0  0  0  0  0  0  0  0  0  0
   28.5534  -19.0423   -8.0854 O   0  0  0  0  0  0  0  0  0  0  0  0
   26.8545  -18.1074   -6.9194 O   0  0  0  0  0  0  0  0  0  0  0  0
  2  1  1  1
  2  3  1  0
  2  7  1  0
  4  3  1  0
  5  6  2  0
  5  4  1  0
  7  8  2  0
  7 10  1  0
  9  5  1  0
 10 14  1  0
 10 11  1  0
 12 11  1  0
 13 14  1  0
 13 12  1  0
 15 16  2  0
 14 15  1  1
 17 15  1  0
 18 26  1  0
 18 17  1  0
 18 19  1  1
 20 19  1  0
 21 20  2  0
 22 21  1  0
 23 24  1  0
 23 22  2  0
 24 25  2  0
 25 20  1  0
 26 27  1  0
 28 26  2  0
M  END
$$$$
