EPF.pdb
     RDKit          3D

 28 29  0  0  1  0  0  0  0  0999 V2000
   25.6832  -21.0096  -17.9204 N   0  0  0  0  0  0  0  0  0  0  0  0
   25.8692  -20.2804  -16.6926 C   0  0  1  0  0  0  0  0  0  0  0  0
   24.6643  -19.3796  -16.4835 C   0  0  0  0  0  0  0  0  0  0  0  0
   24.9153  -18.0644  -17.1437 C   0  0  0  0  0  0  0  0  0  0  0  0
   25.6231  -17.1150  -16.2313 C   0  0  0  0  0  0  0  0  0  0  0  0
   26.8255  -16.8495  -16.4291 O   0  0  0  0  0  0  0  0  0  0  0  0
   26.0788  -21.1191  -15.5151 C   0  0  0  0  0  0  0  0  0  0  0  0
   25.6475  -22.3175  -15.5669 O   0  0  0  0  0  0  0  0  0  0  0  0
   24.9675  -16.5270  -15.1732 O   0  0  0  0  0  0  0  0  0  0  0  0
   26.7141  -20.7238  -14.3278 N   0  0  0  0  0  0  0  0  0  0  0  0
   27.1339  -19.4200  -13.9356 C   0  0  0  0  0  0  0  0  0  0  0  0
   28.5179  -19.6769  -13.3222 C   0  0  0  0  0  0  0  0  0  0  0  0
   28.4157  -21.0764  -12.8263 C   0  0  0  0  0  0  0  0  0  0  0  0
   27.0996  -21.6212  -13.2337 C   0  0  1  0  0  0  0  0  0  0  0  0
   26.0539  -21.5526  -12.2164 C   0  0  0  0  0  0  0  0  0  0  0  0
   26.0919  -22.3212  -11.2214 O   0  0  0  0  0  0  0  0  0  0  0  0
   24.9579  -20.6410  -12.2812 N   0  0  0  0  0  0  0  0  0  0  0  0
   23.8766  -20.7177  -11.3140 C   0  0  1  0  0  0  0  0  0  0  0  0
   23.9642  -19.5328  -10.4027 C   0  0  0  0  0  0  0  0  0  0  0  0
   24.9027  -19.6819   -9.2800 C   0  0  0  0  0  0  0  0  0  0  0  0
   24.7043  -20.6280   -8.2985 C   0  0  0  0  0  0  0  0  0  0  0  0
   25.6178  -20.7364   -7.2559 C   0  0  0  0  0  0  0  0  0  0  0  0
   26.7127  -19.9035   -7.2052 C   0  0  0  0  0  0  0  0  0  0  0  0
   26.9302  -18.9468   -8.1807 C   0  0  0  0  0  0  0  0  0  0  0  0
   26.0055  -18.8508   -9.2193 C   0  0  0  0  0  0  0  0  0  0  0  0
   22.5763  -20.8183  -12.0128 C   0  0  0  0  0  0  0  0  0  0  0  0
   22.5091  -20.6879  -13.3899 O   0  0  0  0  0  0  0  0  0  0  0  0
   21.5043  -21.0218  -11.3903 O   0  0  0  0  0  0  0  0  0  0  0  0
  2  1  1  6
  2  3  1  0
  2  7  1  0
  4  3  1  0
  5  6  2  0
  5  4  1  0
  7  8  2  0
  7 10  1  0
  9  5  1  0
 10 14  1  0
 10 11  1  0
 12 11  1  0
 13 14  1  0
 13 12  1  0
 15 16  2  0
 14 15  1  1
 17 15  1  0
 18 26  1  0
 18 17  1  0
 18 19  1  6
 20 19  1  0
 21 20  2  0
 22 21  1  0
 23 24  1  0
 23 22  2  0
 24 25  2  0
 25 20  1  0
 26 27  1  0
 28 26  2  0
M  END
$$$$
