EPF.pdb
     RDKit          3D

 28 29  0  0  1  0  0  0  0  0999 V2000
   21.3707  -11.7955  -18.5366 N   0  0  0  0  0  0  0  0  0  0  0  0
   20.6140  -10.5766  -18.6617 C   0  0  1  0  0  0  0  0  0  0  0  0
   19.4535  -10.6309  -17.6834 C   0  0  0  0  0  0  0  0  0  0  0  0
   18.5908  -11.8045  -18.0110 C   0  0  0  0  0  0  0  0  0  0  0  0
   17.4713  -11.9569  -17.0320 C   0  0  0  0  0  0  0  0  0  0  0  0
   17.4647  -12.9268  -16.2480 O   0  0  0  0  0  0  0  0  0  0  0  0
   21.3900   -9.3569  -18.4522 C   0  0  0  0  0  0  0  0  0  0  0  0
   22.5213   -9.4755  -17.8769 O   0  0  0  0  0  0  0  0  0  0  0  0
   16.4444  -11.0415  -16.9814 O   0  0  0  0  0  0  0  0  0  0  0  0
   21.0015   -8.0617  -18.8280 N   0  0  0  0  0  0  0  0  0  0  0  0
   19.8193   -7.6502  -19.5083 C   0  0  0  0  0  0  0  0  0  0  0  0
   20.3472   -6.6227  -20.5197 C   0  0  0  0  0  0  0  0  0  0  0  0
   21.5665   -6.0869  -19.8554 C   0  0  0  0  0  0  0  0  0  0  0  0
   21.7844   -6.8426  -18.5999 C   0  0  1  0  0  0  0  0  0  0  0  0
   21.2686   -6.2059  -17.3909 C   0  0  0  0  0  0  0  0  0  0  0  0
   20.0623   -6.3540  -17.0669 O   0  0  0  0  0  0  0  0  0  0  0  0
   22.0707   -5.4016  -16.5270 N   0  0  0  0  0  0  0  0  0  0  0  0
   21.5423   -4.9272  -15.2597 C   0  0  1  0  0  0  0  0  0  0  0  0
   22.3906   -5.4728  -14.1528 C   0  0  0  0  0  0  0  0  0  0  0  0
   22.2886   -6.9264  -13.9521 C   0  0  0  0  0  0  0  0  0  0  0  0
   23.1895   -7.7959  -14.5266 C   0  0  0  0  0  0  0  0  0  0  0  0
   23.0573   -9.1628  -14.3089 C   0  0  0  0  0  0  0  0  0  0  0  0
   22.0330   -9.6433  -13.5246 C   0  0  0  0  0  0  0  0  0  0  0  0
   21.1179   -8.7870  -12.9387 C   0  0  0  0  0  0  0  0  0  0  0  0
   21.2638   -7.4196  -13.1664 C   0  0  0  0  0  0  0  0  0  0  0  0
   21.4691   -3.4494  -15.2611 C   0  0  0  0  0  0  0  0  0  0  0  0
   20.8637   -2.7771  -14.2125 O   0  0  0  0  0  0  0  0  0  0  0  0
   21.9457   -2.7639  -16.1997 O   0  0  0  0  0  0  0  0  0  0  0  0
  2  1  1  1
  2  3  1  0
  2  7  1  0
  4  3  1  0
  5  6  2  0
  5  4  1  0
  7  8  2  0
  7 10  1  0
  9  5  1  0
 10 14  1  0
 10 11  1  0
 12 11  1  0
 13 14  1  0
 13 12  1  0
 15 16  2  0
 14 15  1  1
 17 15  1  0
 18 26  1  0
 18 17  1  0
 18 19  1  1
 20 19  1  0
 21 20  2  0
 22 21  1  0
 23 24  1  0
 23 22  2  0
 24 25  2  0
 25 20  1  0
 26 27  1  0
 28 26  2  0
M  END
$$$$
