EPF.pdb
     RDKit          3D

 28 29  0  0  1  0  0  0  0  0999 V2000
   24.8582  -22.2301  -16.7040 N   0  0  0  0  0  0  0  0  0  0  0  0
   24.8850  -21.1306  -15.7743 C   0  0  1  0  0  0  0  0  0  0  0  0
   23.4625  -20.8535  -15.3196 C   0  0  0  0  0  0  0  0  0  0  0  0
   23.1608  -19.4038  -15.5102 C   0  0  0  0  0  0  0  0  0  0  0  0
   22.1356  -19.1892  -16.5769 C   0  0  0  0  0  0  0  0  0  0  0  0
   22.1634  -18.1451  -17.2585 O   0  0  0  0  0  0  0  0  0  0  0  0
   25.7507  -21.3369  -14.6160 C   0  0  0  0  0  0  0  0  0  0  0  0
   25.8547  -22.5260  -14.1685 O   0  0  0  0  0  0  0  0  0  0  0  0
   21.1584  -20.1279  -16.8200 O   0  0  0  0  0  0  0  0  0  0  0  0
   26.4807  -20.3413  -13.9486 N   0  0  0  0  0  0  0  0  0  0  0  0
   26.4858  -18.9357  -14.1814 C   0  0  0  0  0  0  0  0  0  0  0  0
   27.9763  -18.5793  -14.0872 C   0  0  0  0  0  0  0  0  0  0  0  0
   28.5177  -19.6198  -13.1711 C   0  0  0  0  0  0  0  0  0  0  0  0
   27.4307  -20.5758  -12.8560 C   0  0  1  0  0  0  0  0  0  0  0  0
   26.7283  -20.3300  -11.5993 C   0  0  0  0  0  0  0  0  0  0  0  0
   25.6944  -19.6138  -11.5854 O   0  0  0  0  0  0  0  0  0  0  0  0
   27.1534  -20.8671  -10.3474 N   0  0  0  0  0  0  0  0  0  0  0  0
   26.1802  -21.2277   -9.3309 C   0  0  1  0  0  0  0  0  0  0  0  0
   26.9070  -21.8024   -8.1545 C   0  0  0  0  0  0  0  0  0  0  0  0
   27.6004  -20.8163   -7.3117 C   0  0  0  0  0  0  0  0  0  0  0  0
   26.9178  -19.7893   -6.6978 C   0  0  0  0  0  0  0  0  0  0  0  0
   27.6124  -18.8803   -5.9076 C   0  0  0  0  0  0  0  0  0  0  0  0
   28.9730  -19.0062   -5.7403 C   0  0  0  0  0  0  0  0  0  0  0  0
   29.6773  -20.0303   -6.3481 C   0  0  0  0  0  0  0  0  0  0  0  0
   28.9666  -20.9334   -7.1370 C   0  0  0  0  0  0  0  0  0  0  0  0
   25.3496  -20.0535   -8.9836 C   0  0  0  0  0  0  0  0  0  0  0  0
   24.0623  -20.2239   -8.5022 O   0  0  0  0  0  0  0  0  0  0  0  0
   25.7767  -18.8792   -9.1123 O   0  0  0  0  0  0  0  0  0  0  0  0
  2  1  1  6
  2  3  1  0
  2  7  1  0
  4  3  1  0
  5  6  2  0
  5  4  1  0
  7  8  2  0
  7 10  1  0
  9  5  1  0
 10 14  1  0
 10 11  1  0
 12 11  1  0
 13 14  1  0
 13 12  1  0
 15 16  2  0
 14 15  1  1
 17 15  1  0
 18 26  1  0
 18 17  1  0
 18 19  1  1
 20 19  1  0
 21 20  2  0
 22 21  1  0
 23 24  1  0
 23 22  2  0
 24 25  2  0
 25 20  1  0
 26 27  1  0
 28 26  2  0
M  END
$$$$
