EPF.pdb
     RDKit          3D

 28 29  0  0  1  0  0  0  0  0999 V2000
   32.9987  -29.2928  -18.0531 N   0  0  0  0  0  0  0  0  0  0  0  0
   32.5085  -28.0010  -18.4588 C   0  0  1  0  0  0  0  0  0  0  0  0
   32.1247  -28.0739  -19.9266 C   0  0  0  0  0  0  0  0  0  0  0  0
   30.8920  -28.9039  -20.0701 C   0  0  0  0  0  0  0  0  0  0  0  0
   30.3092  -28.7936  -21.4424 C   0  0  0  0  0  0  0  0  0  0  0  0
   29.8198  -27.7104  -21.8199 O   0  0  0  0  0  0  0  0  0  0  0  0
   31.3836  -27.5042  -17.6703 C   0  0  0  0  0  0  0  0  0  0  0  0
   30.8135  -28.3278  -16.8820 O   0  0  0  0  0  0  0  0  0  0  0  0
   30.3038  -29.8714  -22.2988 O   0  0  0  0  0  0  0  0  0  0  0  0
   30.8717  -26.1978  -17.7022 N   0  0  0  0  0  0  0  0  0  0  0  0
   31.2260  -25.1250  -18.5702 C   0  0  0  0  0  0  0  0  0  0  0  0
   31.2930  -23.9227  -17.6175 C   0  0  0  0  0  0  0  0  0  0  0  0
   30.3400  -24.2922  -16.5358 C   0  0  0  0  0  0  0  0  0  0  0  0
   29.8494  -25.6660  -16.7949 C   0  0  1  0  0  0  0  0  0  0  0  0
   28.5627  -25.7501  -17.4809 C   0  0  0  0  0  0  0  0  0  0  0  0
   28.5200  -26.0233  -18.7079 O   0  0  0  0  0  0  0  0  0  0  0  0
   27.3123  -25.5354  -16.8276 N   0  0  0  0  0  0  0  0  0  0  0  0
   26.1493  -26.3310  -17.1811 C   0  0  1  0  0  0  0  0  0  0  0  0
   26.4522  -27.7711  -16.9043 C   0  0  0  0  0  0  0  0  0  0  0  0
   25.3667  -28.7075  -17.2337 C   0  0  0  0  0  0  0  0  0  0  0  0
   24.4778  -29.1426  -16.2754 C   0  0  0  0  0  0  0  0  0  0  0  0
   23.4649  -30.0264  -16.6307 C   0  0  0  0  0  0  0  0  0  0  0  0
   23.3517  -30.4634  -17.9313 C   0  0  0  0  0  0  0  0  0  0  0  0
   24.2341  -30.0386  -18.9085 C   0  0  0  0  0  0  0  0  0  0  0  0
   25.2439  -29.1526  -18.5366 C   0  0  0  0  0  0  0  0  0  0  0  0
   24.9573  -25.8382  -16.4561 C   0  0  0  0  0  0  0  0  0  0  0  0
   23.7234  -25.7968  -17.0835 O   0  0  0  0  0  0  0  0  0  0  0  0
   25.0226  -25.4456  -15.2646 O   0  0  0  0  0  0  0  0  0  0  0  0
  2  1  1  1
  2  3  1  0
  2  7  1  0
  4  3  1  0
  5  6  2  0
  5  4  1  0
  7  8  2  0
  7 10  1  0
  9  5  1  0
 10 14  1  0
 10 11  1  0
 12 11  1  0
 13 14  1  0
 13 12  1  0
 15 16  2  0
 14 15  1  6
 17 15  1  0
 18 26  1  0
 18 17  1  0
 18 19  1  1
 20 19  1  0
 21 20  2  0
 22 21  1  0
 23 24  1  0
 23 22  2  0
 24 25  2  0
 25 20  1  0
 26 27  1  0
 28 26  2  0
M  END
$$$$
