EPF.pdb
     RDKit          3D

 28 29  0  0  1  0  0  0  0  0999 V2000
   25.4990  -20.0993  -16.1131 N   0  0  0  0  0  0  0  0  0  0  0  0
   24.9360  -19.8390  -14.8135 C   0  0  1  0  0  0  0  0  0  0  0  0
   23.4401  -20.0939  -14.8799 C   0  0  0  0  0  0  0  0  0  0  0  0
   22.7815  -18.9622  -15.5969 C   0  0  0  0  0  0  0  0  0  0  0  0
   21.4786  -18.5916  -14.9643 C   0  0  0  0  0  0  0  0  0  0  0  0
   20.5719  -19.4432  -14.8744 O   0  0  0  0  0  0  0  0  0  0  0  0
   25.5296  -20.6165  -13.7287 C   0  0  0  0  0  0  0  0  0  0  0  0
   24.9038  -21.6593  -13.3466 O   0  0  0  0  0  0  0  0  0  0  0  0
   21.2626  -17.3220  -14.4779 O   0  0  0  0  0  0  0  0  0  0  0  0
   26.7306  -20.3186  -13.0665 N   0  0  0  0  0  0  0  0  0  0  0  0
   27.5664  -19.1741  -13.2129 C   0  0  0  0  0  0  0  0  0  0  0  0
   28.9770  -19.7804  -13.2243 C   0  0  0  0  0  0  0  0  0  0  0  0
   28.8191  -21.0243  -12.4226 C   0  0  0  0  0  0  0  0  0  0  0  0
   27.3871  -21.1772  -12.0750 C   0  0  1  0  0  0  0  0  0  0  0  0
   27.0111  -20.6901  -10.7504 C   0  0  0  0  0  0  0  0  0  0  0  0
   26.7144  -19.4789  -10.5857 O   0  0  0  0  0  0  0  0  0  0  0  0
   26.9572  -21.5265   -9.5954 N   0  0  0  0  0  0  0  0  0  0  0  0
   26.2298  -21.1029   -8.4114 C   0  0  1  0  0  0  0  0  0  0  0  0
   26.6944  -19.7317   -8.0288 C   0  0  0  0  0  0  0  0  0  0  0  0
   27.5416  -19.6766   -6.8277 C   0  0  0  0  0  0  0  0  0  0  0  0
   27.9307  -18.4751   -6.2775 C   0  0  0  0  0  0  0  0  0  0  0  0
   28.7302  -18.4688   -5.1400 C   0  0  0  0  0  0  0  0  0  0  0  0
   29.1300  -19.6554   -4.5680 C   0  0  0  0  0  0  0  0  0  0  0  0
   28.7503  -20.8726   -5.1049 C   0  0  0  0  0  0  0  0  0  0  0  0
   27.9488  -20.8622   -6.2453 C   0  0  0  0  0  0  0  0  0  0  0  0
   24.7726  -21.1750   -8.6575 C   0  0  0  0  0  0  0  0  0  0  0  0
   24.2891  -21.4443   -9.9270 O   0  0  0  0  0  0  0  0  0  0  0  0
   23.9362  -20.9963   -7.7374 O   0  0  0  0  0  0  0  0  0  0  0  0
  2  1  1  6
  2  3  1  0
  2  7  1  0
  4  3  1  0
  5  6  2  0
  5  4  1  0
  7  8  2  0
  7 10  1  0
  9  5  1  0
 10 14  1  0
 10 11  1  0
 12 11  1  0
 13 14  1  0
 13 12  1  0
 15 16  2  0
 14 15  1  1
 17 15  1  0
 18 26  1  0
 18 17  1  0
 18 19  1  6
 20 19  1  0
 21 20  2  0
 22 21  1  0
 23 24  1  0
 23 22  2  0
 24 25  2  0
 25 20  1  0
 26 27  1  0
 28 26  2  0
M  END
$$$$
