EPF.pdb
     RDKit          3D

 28 29  0  0  1  0  0  0  0  0999 V2000
   23.3624  -21.9892  -15.2011 N   0  0  0  0  0  0  0  0  0  0  0  0
   23.9270  -20.9448  -14.3860 C   0  0  1  0  0  0  0  0  0  0  0  0
   22.8388  -20.4106  -13.4709 C   0  0  0  0  0  0  0  0  0  0  0  0
   22.1446  -19.2744  -14.1463 C   0  0  0  0  0  0  0  0  0  0  0  0
   20.7469  -19.6344  -14.5354 C   0  0  0  0  0  0  0  0  0  0  0  0
   20.5157  -20.0566  -15.6860 O   0  0  0  0  0  0  0  0  0  0  0  0
   25.0891  -21.3507  -13.5995 C   0  0  0  0  0  0  0  0  0  0  0  0
   25.1892  -22.5854  -13.2991 O   0  0  0  0  0  0  0  0  0  0  0  0
   19.7073  -19.5073  -13.6419 O   0  0  0  0  0  0  0  0  0  0  0  0
   26.1089  -20.5015  -13.1429 N   0  0  0  0  0  0  0  0  0  0  0  0
   26.2341  -19.0922  -13.3105 C   0  0  0  0  0  0  0  0  0  0  0  0
   27.7207  -18.9197  -13.6537 C   0  0  0  0  0  0  0  0  0  0  0  0
   28.3618  -20.0841  -12.9842 C   0  0  0  0  0  0  0  0  0  0  0  0
   27.2965  -20.9290  -12.3958 C   0  0  1  0  0  0  0  0  0  0  0  0
   27.0319  -20.7019  -10.9775 C   0  0  0  0  0  0  0  0  0  0  0  0
   26.1853  -19.8410  -10.6249 O   0  0  0  0  0  0  0  0  0  0  0  0
   27.6931  -21.4164   -9.9340 N   0  0  0  0  0  0  0  0  0  0  0  0
   27.4436  -21.0865   -8.5414 C   0  0  1  0  0  0  0  0  0  0  0  0
   28.6832  -20.4760   -7.9643 C   0  0  0  0  0  0  0  0  0  0  0  0
   28.5534  -20.0017   -6.5780 C   0  0  0  0  0  0  0  0  0  0  0  0
   28.3724  -18.6670   -6.2893 C   0  0  0  0  0  0  0  0  0  0  0  0
   28.2521  -18.2622   -4.9646 C   0  0  0  0  0  0  0  0  0  0  0  0
   28.3137  -19.1894   -3.9489 C   0  0  0  0  0  0  0  0  0  0  0  0
   28.4950  -20.5344   -4.2174 C   0  0  0  0  0  0  0  0  0  0  0  0
   28.6138  -20.9243   -5.5504 C   0  0  0  0  0  0  0  0  0  0  0  0
   26.2581  -20.2079   -8.4320 C   0  0  0  0  0  0  0  0  0  0  0  0
   25.1852  -20.5749   -7.6369 O   0  0  0  0  0  0  0  0  0  0  0  0
   26.1847  -19.1154   -9.0478 O   0  0  0  0  0  0  0  0  0  0  0  0
  2  1  1  1
  2  3  1  0
  2  7  1  0
  4  3  1  0
  5  6  2  0
  5  4  1  0
  7  8  2  0
  7 10  1  0
  9  5  1  0
 10 14  1  0
 10 11  1  0
 12 11  1  0
 13 14  1  0
 13 12  1  0
 15 16  2  0
 14 15  1  1
 17 15  1  0
 18 26  1  0
 18 17  1  0
 18 19  1  6
 20 19  1  0
 21 20  2  0
 22 21  1  0
 23 24  1  0
 23 22  2  0
 24 25  2  0
 25 20  1  0
 26 27  1  0
 28 26  2  0
M  END
$$$$
