EPF.pdb
     RDKit          3D

 28 29  0  0  1  0  0  0  0  0999 V2000
   24.5477  -17.5324  -15.1945 N   0  0  0  0  0  0  0  0  0  0  0  0
   25.7459  -18.0712  -14.6049 C   0  0  1  0  0  0  0  0  0  0  0  0
   26.5699  -16.9189  -14.0571 C   0  0  0  0  0  0  0  0  0  0  0  0
   27.8521  -16.8288  -14.8165 C   0  0  0  0  0  0  0  0  0  0  0  0
   27.6601  -16.1772  -16.1482 C   0  0  0  0  0  0  0  0  0  0  0  0
   27.7764  -14.9398  -16.2524 O   0  0  0  0  0  0  0  0  0  0  0  0
   25.5135  -19.0636  -13.5585 C   0  0  0  0  0  0  0  0  0  0  0  0
   24.4341  -18.9639  -12.8878 O   0  0  0  0  0  0  0  0  0  0  0  0
   27.3562  -16.9227  -17.2649 O   0  0  0  0  0  0  0  0  0  0  0  0
   26.3739  -20.1204  -13.2232 N   0  0  0  0  0  0  0  0  0  0  0  0
   27.7140  -20.3458  -13.6511 C   0  0  0  0  0  0  0  0  0  0  0  0
   27.7292  -21.8524  -13.9474 C   0  0  0  0  0  0  0  0  0  0  0  0
   26.6814  -22.3888  -13.0367 C   0  0  0  0  0  0  0  0  0  0  0  0
   26.0307  -21.2482  -12.3506 C   0  0  1  0  0  0  0  0  0  0  0  0
   26.5440  -20.9472  -11.0168 C   0  0  0  0  0  0  0  0  0  0  0  0
   27.7657  -20.6959  -10.8542 O   0  0  0  0  0  0  0  0  0  0  0  0
   25.7226  -20.9192   -9.8502 N   0  0  0  0  0  0  0  0  0  0  0  0
   26.3106  -21.0696   -8.5304 C   0  0  1  0  0  0  0  0  0  0  0  0
   27.2535  -19.9307   -8.2935 C   0  0  0  0  0  0  0  0  0  0  0  0
   27.7656  -19.8252   -6.9186 C   0  0  0  0  0  0  0  0  0  0  0  0
   27.4123  -18.7759   -6.0989 C   0  0  0  0  0  0  0  0  0  0  0  0
   27.9179  -18.7164   -4.8051 C   0  0  0  0  0  0  0  0  0  0  0  0
   28.7657  -19.6994   -4.3469 C   0  0  0  0  0  0  0  0  0  0  0  0
   29.1329  -20.7613   -5.1541 C   0  0  0  0  0  0  0  0  0  0  0  0
   28.6177  -20.8068   -6.4485 C   0  0  0  0  0  0  0  0  0  0  0  0
   25.2456  -21.1645   -7.5076 C   0  0  0  0  0  0  0  0  0  0  0  0
   25.5193  -21.6963   -6.2585 O   0  0  0  0  0  0  0  0  0  0  0  0
   24.0738  -20.7725   -7.7338 O   0  0  0  0  0  0  0  0  0  0  0  0
  2  1  1  1
  2  3  1  0
  2  7  1  0
  4  3  1  0
  5  6  2  0
  5  4  1  0
  7  8  2  0
  7 10  1  0
  9  5  1  0
 10 14  1  0
 10 11  1  0
 12 11  1  0
 13 14  1  0
 13 12  1  0
 15 16  2  0
 14 15  1  1
 17 15  1  0
 18 26  1  0
 18 17  1  0
 18 19  1  1
 20 19  1  0
 21 20  2  0
 22 21  1  0
 23 24  1  0
 23 22  2  0
 24 25  2  0
 25 20  1  0
 26 27  1  0
 28 26  2  0
M  END
$$$$
