ERC.pdb
     RDKit          3D

 27 26  0  0  1  0  0  0  0  0999 V2000
   21.5478  -20.6883  -13.5202 N   0  0  0  0  0  0  0  0  0  0  0  0
   21.4139  -19.8553  -14.7021 C   0  0  1  0  0  0  0  0  0  0  0  0
   20.0935  -19.1771  -14.8089 C   0  0  0  0  0  0  0  0  0  0  0  0
   19.0474  -20.0360  -15.4822 C   0  0  0  0  0  0  0  0  0  0  0  0
   19.1462  -20.0058  -16.9487 C   0  0  0  0  0  0  0  0  0  0  0  0
   20.0344  -20.7096  -17.5418 O   0  0  0  0  0  0  0  0  0  0  0  0
   22.5243  -18.8539  -14.7428 C   0  0  0  0  0  0  0  0  0  0  0  0
   22.6517  -17.9953  -13.8191 O   0  0  0  0  0  0  0  0  0  0  0  0
   18.3263  -19.2499  -17.7674 O   0  0  0  0  0  0  0  0  0  0  0  0
   28.0950  -21.4555  -15.5606 N   0  0  0  0  0  0  0  0  0  0  0  0
   27.3720  -21.8095  -14.3671 C   0  0  0  0  0  0  0  0  0  0  0  0
   26.9676  -23.0170  -14.1354 N   0  0  0  0  0  0  0  0  0  0  0  0
   27.0957  -20.8143  -13.4195 N   0  0  0  0  0  0  0  0  0  0  0  0
   27.5635  -19.4297  -13.6706 C   0  0  0  0  0  0  0  0  0  0  0  0
   26.4447  -18.5340  -13.9791 C   0  0  0  0  0  0  0  0  0  0  0  0
   25.7220  -18.7256  -15.2188 C   0  0  0  0  0  0  0  0  0  0  0  0
   24.6449  -17.8550  -15.7357 C   0  0  2  0  0  0  0  0  0  0  0  0
   23.4641  -18.8106  -15.7842 N   0  0  0  0  0  0  0  0  0  0  0  0
   24.8581  -17.5081  -17.1774 C   0  0  0  0  0  0  0  0  0  0  0  0
   24.8357  -18.3330  -18.0744 O   0  0  0  0  0  0  0  0  0  0  0  0
   26.4495  -23.1648  -13.2294 N   0  0  0  0  0  0  0  0  0  0  0  0
   25.1042  -16.1488  -17.5654 C   0  0  2  0  0  0  0  0  0  0  0  0
   25.3803  -15.8721  -18.9582 C   0  0  0  0  0  0  0  0  0  0  0  0
   25.1468  -14.3717  -19.1258 S   0  0  0  0  0  0  0  0  0  0  0  0
   25.5138  -13.7903  -20.7859 C   0  0  0  0  0  0  0  0  0  0  0  0
   26.7679  -16.2424  -19.2553 O   0  0  0  0  0  0  0  0  0  0  0  0
   27.6404  -16.1516  -18.3603 O   0  0  0  0  0  0  0  0  0  0  0  0
  2  1  1  1
  3  2  1  0
  4  5  1  0
  4  3  1  0
  5  6  2  0
  7  2  1  0
  7  8  2  0
  9  5  1  0
 10 11  1  0
 11 13  1  0
 11 12  2  0
 13 14  1  0
 14 15  1  0
 17 16  1  6
 16 15  1  0
 17 18  1  0
 18  7  1  0
 19 17  1  0
 20 19  2  0
 21 19  1  0
 22 25  1  0
 22 21  1  0
 22 23  1  1
 24 23  1  0
 25 27  1  0
 26 25  2  0
M  END
$$$$
