ERC.pdb
     RDKit          3D

 27 26  0  0  1  0  0  0  0  0999 V2000
   17.5009  -25.0395  -13.8962 N   0  0  0  0  0  0  0  0  0  0  0  0
   17.0937  -24.1180  -12.8503 C   0  0  1  0  0  0  0  0  0  0  0  0
   15.6375  -24.1642  -12.5467 C   0  0  0  0  0  0  0  0  0  0  0  0
   14.8038  -23.4199  -13.5647 C   0  0  0  0  0  0  0  0  0  0  0  0
   14.7778  -21.9694  -13.3257 C   0  0  0  0  0  0  0  0  0  0  0  0
   15.3149  -21.4884  -12.2693 O   0  0  0  0  0  0  0  0  0  0  0  0
   17.8970  -24.3702  -11.6140 C   0  0  0  0  0  0  0  0  0  0  0  0
   18.2908  -25.5408  -11.3292 O   0  0  0  0  0  0  0  0  0  0  0  0
   14.1982  -21.0510  -14.1827 O   0  0  0  0  0  0  0  0  0  0  0  0
   23.0955  -20.6737  -11.2618 N   0  0  0  0  0  0  0  0  0  0  0  0
   22.0677  -19.7462  -11.6567 C   0  0  0  0  0  0  0  0  0  0  0  0
   21.8936  -19.3894  -12.8886 N   0  0  0  0  0  0  0  0  0  0  0  0
   21.2229  -19.2097  -10.6754 N   0  0  0  0  0  0  0  0  0  0  0  0
   20.7473  -20.0845   -9.5765 C   0  0  0  0  0  0  0  0  0  0  0  0
   20.2554  -21.3673  -10.0879 C   0  0  0  0  0  0  0  0  0  0  0  0
   19.6220  -22.2865   -9.1660 C   0  0  0  0  0  0  0  0  0  0  0  0
   19.1099  -23.6321   -9.5009 C   0  0  2  0  0  0  0  0  0  0  0  0
   18.2493  -23.3467  -10.7207 N   0  0  0  0  0  0  0  0  0  0  0  0
   18.1140  -24.1125   -8.4900 C   0  0  0  0  0  0  0  0  0  0  0  0
   16.9777  -23.6785   -8.4117 O   0  0  0  0  0  0  0  0  0  0  0  0
   21.0421  -18.7992  -13.0826 N   0  0  0  0  0  0  0  0  0  0  0  0
   18.4747  -25.1328   -7.5479 C   0  0  2  0  0  0  0  0  0  0  0  0
   17.4815  -25.5618   -6.5874 C   0  0  0  0  0  0  0  0  0  0  0  0
   17.7387  -27.0533   -6.3796 S   0  0  0  0  0  0  0  0  0  0  0  0
   16.9752  -27.6904   -4.8829 C   0  0  0  0  0  0  0  0  0  0  0  0
   17.6556  -24.8023   -5.3450 O   0  0  0  0  0  0  0  0  0  0  0  0
   16.6692  -24.5949   -4.6003 O   0  0  0  0  0  0  0  0  0  0  0  0
  2  1  1  6
  3  2  1  0
  4  5  1  0
  4  3  1  0
  5  6  2  0
  7  2  1  0
  7  8  2  0
  9  5  1  0
 10 11  1  0
 11 13  1  0
 11 12  2  0
 13 14  1  0
 14 15  1  0
 17 16  1  1
 16 15  1  0
 17 18  1  0
 18  7  1  0
 19 17  1  0
 20 19  2  0
 21 19  1  0
 22 25  1  0
 22 21  1  0
 22 23  1  1
 24 23  1  0
 25 27  1  0
 26 25  2  0
M  END
$$$$
