ERC.pdb
     RDKit          3D

 27 26  0  0  1  0  0  0  0  0999 V2000
   25.6943  -22.0572  -13.9399 N   0  0  0  0  0  0  0  0  0  0  0  0
   24.8636  -20.8874  -13.7159 C   0  0  1  0  0  0  0  0  0  0  0  0
   25.1918  -19.7417  -14.6073 C   0  0  0  0  0  0  0  0  0  0  0  0
   25.3513  -20.1525  -16.0533 C   0  0  0  0  0  0  0  0  0  0  0  0
   25.7511  -19.0344  -16.9202 C   0  0  0  0  0  0  0  0  0  0  0  0
   25.9390  -17.8738  -16.4166 O   0  0  0  0  0  0  0  0  0  0  0  0
   23.4209  -21.2597  -13.8474 C   0  0  0  0  0  0  0  0  0  0  0  0
   23.0683  -22.2152  -14.6020 O   0  0  0  0  0  0  0  0  0  0  0  0
   25.9472  -19.1413  -18.2855 O   0  0  0  0  0  0  0  0  0  0  0  0
   18.4337  -24.6894   -9.9705 N   0  0  0  0  0  0  0  0  0  0  0  0
   19.0614  -23.6888   -9.1476 C   0  0  0  0  0  0  0  0  0  0  0  0
   19.4021  -23.9164   -7.9199 N   0  0  0  0  0  0  0  0  0  0  0  0
   19.3153  -22.4224   -9.6922 N   0  0  0  0  0  0  0  0  0  0  0  0
   18.6740  -22.0476  -10.9757 C   0  0  0  0  0  0  0  0  0  0  0  0
   19.0877  -20.7102  -11.4107 C   0  0  0  0  0  0  0  0  0  0  0  0
   20.4323  -20.5281  -11.9154 C   0  0  0  0  0  0  0  0  0  0  0  0
   20.9735  -21.1061  -13.1636 C   0  0  2  0  0  0  0  0  0  0  0  0
   22.4012  -20.5849  -13.1585 N   0  0  0  0  0  0  0  0  0  0  0  0
   20.3811  -20.4562  -14.3765 C   0  0  0  0  0  0  0  0  0  0  0  0
   20.5662  -19.2870  -14.6668 O   0  0  0  0  0  0  0  0  0  0  0  0
   19.9052  -23.1320   -7.4271 N   0  0  0  0  0  0  0  0  0  0  0  0
   19.5479  -21.2116  -15.2675 C   0  0  2  0  0  0  0  0  0  0  0  0
   19.0252  -20.5510  -16.4436 C   0  0  0  0  0  0  0  0  0  0  0  0
   18.9231  -21.6423  -17.5078 S   0  0  0  0  0  0  0  0  0  0  0  0
   20.4932  -22.4572  -17.8236 C   0  0  0  0  0  0  0  0  0  0  0  0
   17.7137  -19.9755  -16.1281 O   0  0  0  0  0  0  0  0  0  0  0  0
   17.2320  -20.1196  -14.9801 O   0  0  0  0  0  0  0  0  0  0  0  0
  2  1  1  6
  3  2  1  0
  4  5  1  0
  4  3  1  0
  5  6  2  0
  7  2  1  0
  7  8  2  0
  9  5  1  0
 10 11  1  0
 11 13  1  0
 11 12  2  0
 13 14  1  0
 14 15  1  0
 17 16  1  1
 16 15  1  0
 17 18  1  0
 18  7  1  0
 19 17  1  0
 20 19  2  0
 21 19  1  0
 22 25  1  0
 22 21  1  0
 22 23  1  1
 24 23  1  0
 25 27  1  0
 26 25  2  0
M  END
$$$$
