ERC.pdb
     RDKit          3D

 27 26  0  0  1  0  0  0  0  0999 V2000
   22.9850  -10.9674  -14.4928 N   0  0  0  0  0  0  0  0  0  0  0  0
   23.6694  -10.1932  -15.5132 C   0  0  1  0  0  0  0  0  0  0  0  0
   24.2207  -11.0199  -16.6212 C   0  0  0  0  0  0  0  0  0  0  0  0
   23.3367  -12.1957  -16.9696 C   0  0  0  0  0  0  0  0  0  0  0  0
   23.8541  -12.9791  -18.1010 C   0  0  0  0  0  0  0  0  0  0  0  0
   23.2061  -14.0000  -18.5180 O   0  0  0  0  0  0  0  0  0  0  0  0
   22.7518   -9.1404  -16.0487 C   0  0  0  0  0  0  0  0  0  0  0  0
   23.1452   -8.3408  -16.9501 O   0  0  0  0  0  0  0  0  0  0  0  0
   25.0274  -12.6899  -18.7744 O   0  0  0  0  0  0  0  0  0  0  0  0
   15.0154  -11.6704  -15.3782 N   0  0  0  0  0  0  0  0  0  0  0  0
   16.0952  -12.4299  -15.9524 C   0  0  0  0  0  0  0  0  0  0  0  0
   15.9334  -13.6337  -16.3995 N   0  0  0  0  0  0  0  0  0  0  0  0
   17.3678  -11.8480  -16.0332 N   0  0  0  0  0  0  0  0  0  0  0  0
   17.5013  -10.3803  -15.8681 C   0  0  0  0  0  0  0  0  0  0  0  0
   18.8913   -9.9465  -16.0379 C   0  0  0  0  0  0  0  0  0  0  0  0
   19.1870   -8.5297  -16.0014 C   0  0  0  0  0  0  0  0  0  0  0  0
   20.5216   -7.9196  -16.1791 C   0  0  2  0  0  0  0  0  0  0  0  0
   21.4345   -8.9831  -15.5910 N   0  0  0  0  0  0  0  0  0  0  0  0
   20.7241   -6.7545  -15.2593 C   0  0  0  0  0  0  0  0  0  0  0  0
   20.8070   -6.8647  -14.0482 O   0  0  0  0  0  0  0  0  0  0  0  0
   16.7991  -14.1107  -16.7658 N   0  0  0  0  0  0  0  0  0  0  0  0
   20.8307   -5.4252  -15.7887 C   0  0  1  0  0  0  0  0  0  0  0  0
   20.9897   -4.3275  -14.8600 C   0  0  0  0  0  0  0  0  0  0  0  0
   22.4866   -4.0221  -14.8483 S   0  0  0  0  0  0  0  0  0  0  0  0
   22.8843   -2.5188  -13.9480 C   0  0  0  0  0  0  0  0  0  0  0  0
   20.2052   -3.1818  -15.3319 O   0  0  0  0  0  0  0  0  0  0  0  0
   19.8518   -3.1233  -16.5328 O   0  0  0  0  0  0  0  0  0  0  0  0
  2  1  1  1
  3  2  1  0
  4  5  1  0
  4  3  1  0
  5  6  2  0
  7  2  1  0
  7  8  2  0
  9  5  1  0
 10 11  1  0
 11 13  1  0
 11 12  2  0
 13 14  1  0
 14 15  1  0
 17 16  1  1
 16 15  1  0
 17 18  1  0
 18  7  1  0
 19 17  1  0
 20 19  2  0
 21 19  1  0
 22 25  1  0
 22 21  1  0
 22 23  1  1
 24 23  1  0
 25 27  1  0
 26 25  2  0
M  END
$$$$
