ILS.pdb
     RDKit          3D

 23 22  0  0  1  0  0  0  0  0999 V2000
   28.2467  -17.6840  -18.3667 C   0  0  0  0  0  0  0  0  0  0  0  0
   28.4735  -18.4567  -17.1110 C   0  0  0  0  0  0  0  0  0  0  0  0
   27.1900  -18.9765  -16.4790 C   0  0  2  0  0  0  0  0  0  0  0  0
   26.2760  -17.8079  -16.3412 C   0  0  0  0  0  0  0  0  0  0  0  0
   27.4918  -19.7248  -15.2179 C   0  0  2  0  0  0  0  0  0  0  0  0
   28.3568  -20.8483  -15.6466 N   0  0  0  0  0  0  0  0  0  0  0  0
   26.3308  -20.3277  -14.5465 C   0  0  0  0  0  0  0  0  0  0  0  0
   25.7754  -21.3445  -15.0704 O   0  0  0  0  0  0  0  0  0  0  0  0
   26.2443  -22.1953  -10.7181 C   0  0  0  0  0  0  0  0  0  0  0  0
   25.9398  -20.7044  -10.5297 C   0  0  2  0  0  0  0  0  0  0  0  0
   25.9186  -20.4743   -9.0352 C   0  0  0  0  0  0  0  0  0  0  0  0
   24.6547  -20.4265  -11.2026 C   0  0  0  0  0  0  0  0  0  0  0  0
   24.6516  -20.5519  -12.7090 C   0  0  2  0  0  0  0  0  0  0  0  0
   25.7494  -19.8691  -13.3203 N   0  0  0  0  0  0  0  0  0  0  0  0
   23.3318  -20.3123  -13.3284 C   0  0  0  0  0  0  0  0  0  0  0  0
   22.8856  -19.1198  -13.4855 O   0  0  0  0  0  0  0  0  0  0  0  0
   21.1300  -23.3339  -15.2972 O   0  0  0  0  0  0  0  0  0  0  0  0
   20.9678  -21.9870  -15.5932 C   0  0  0  0  0  0  0  0  0  0  0  0
   21.2044  -21.0826  -14.4348 C   0  0  2  0  0  0  0  0  0  0  0  0
   22.4804  -21.3602  -13.7834 N   0  0  0  0  0  0  0  0  0  0  0  0
   20.1145  -21.1979  -13.4175 C   0  0  0  0  0  0  0  0  0  0  0  0
   20.4612  -21.5609  -12.2633 O   0  0  0  0  0  0  0  0  0  0  0  0
   18.7905  -20.9147  -13.7464 O   0  0  0  0  0  0  0  0  0  0  0  0
  1  2  1  0
  2  3  1  0
  3  5  1  0
  3  4  1  1
  5  7  1  0
  5  6  1  6
  7  8  2  0
 10  9  1  1
 10 12  1  0
 11 10  1  0
 13 12  1  1
 14 13  1  0
 14  7  1  0
 15 16  2  0
 15 13  1  0
 17 18  1  0
 19 18  1  6
 19 21  1  0
 19 20  1  0
 20 15  1  0
 21 23  1  0
 22 21  2  0
M  END
$$$$
