ILS.pdb
     RDKit          3D

 23 22  0  0  1  0  0  0  0  0999 V2000
   17.4300  -12.8187  -21.3862 C   0  0  0  0  0  0  0  0  0  0  0  0
   18.7122  -12.1019  -21.1265 C   0  0  0  0  0  0  0  0  0  0  0  0
   18.6166  -11.0751  -20.0069 C   0  0  2  0  0  0  0  0  0  0  0  0
   17.4818  -10.1722  -20.3488 C   0  0  0  0  0  0  0  0  0  0  0  0
   19.9405  -10.4104  -19.7901 C   0  0  2  0  0  0  0  0  0  0  0  0
   20.9258  -11.5159  -19.8295 N   0  0  0  0  0  0  0  0  0  0  0  0
   20.1108   -9.7489  -18.4879 C   0  0  0  0  0  0  0  0  0  0  0  0
   19.3463   -8.7791  -18.1849 O   0  0  0  0  0  0  0  0  0  0  0  0
   23.3511  -10.1359  -13.1926 C   0  0  0  0  0  0  0  0  0  0  0  0
   22.2916   -9.3595  -13.9835 C   0  0  2  0  0  0  0  0  0  0  0  0
   21.0624   -9.3270  -13.1031 C   0  0  0  0  0  0  0  0  0  0  0  0
   22.0965  -10.0608  -15.2687 C   0  0  0  0  0  0  0  0  0  0  0  0
   21.2202   -9.3609  -16.2823 C   0  0  2  0  0  0  0  0  0  0  0  0
   21.0813  -10.1041  -17.4962 N   0  0  0  0  0  0  0  0  0  0  0  0
   21.5252   -7.9250  -16.4494 C   0  0  0  0  0  0  0  0  0  0  0  0
   22.5144   -7.5422  -17.1711 O   0  0  0  0  0  0  0  0  0  0  0  0
   20.2313   -3.6639  -17.5366 O   0  0  0  0  0  0  0  0  0  0  0  0
   20.1931   -5.0346  -17.3184 C   0  0  0  0  0  0  0  0  0  0  0  0
   20.9961   -5.4811  -16.1472 C   0  0  2  0  0  0  0  0  0  0  0  0
   20.7639   -6.8880  -15.8368 N   0  0  0  0  0  0  0  0  0  0  0  0
   20.6905   -4.6674  -14.9305 C   0  0  0  0  0  0  0  0  0  0  0  0
   19.8192   -5.1319  -14.1498 O   0  0  0  0  0  0  0  0  0  0  0  0
   21.3447   -3.4612  -14.6887 O   0  0  0  0  0  0  0  0  0  0  0  0
  1  2  1  0
  2  3  1  0
  3  5  1  0
  3  4  1  6
  5  7  1  0
  5  6  1  1
  7  8  2  0
 10  9  1  1
 10 12  1  0
 11 10  1  0
 13 12  1  1
 14 13  1  0
 14  7  1  0
 15 16  2  0
 15 13  1  0
 17 18  1  0
 19 18  1  6
 19 21  1  0
 19 20  1  0
 20 15  1  0
 21 23  1  0
 22 21  2  0
M  END
$$$$
