ILS.pdb
     RDKit          3D

 23 22  0  0  1  0  0  0  0  0999 V2000
   17.6313  -21.1134  -16.5819 C   0  0  0  0  0  0  0  0  0  0  0  0
   18.3340  -21.5620  -15.3449 C   0  0  0  0  0  0  0  0  0  0  0  0
   19.6562  -20.8466  -15.1056 C   0  0  2  0  0  0  0  0  0  0  0  0
   20.4703  -21.0258  -16.3405 C   0  0  0  0  0  0  0  0  0  0  0  0
   20.2851  -21.3187  -13.8317 C   0  0  2  0  0  0  0  0  0  0  0  0
   19.3407  -20.9004  -12.7699 N   0  0  0  0  0  0  0  0  0  0  0  0
   21.5801  -20.7059  -13.5002 C   0  0  0  0  0  0  0  0  0  0  0  0
   21.6440  -19.4452  -13.3471 O   0  0  0  0  0  0  0  0  0  0  0  0
   27.1205  -21.9150  -11.1437 C   0  0  0  0  0  0  0  0  0  0  0  0
   26.2352  -20.8480  -11.7983 C   0  0  2  0  0  0  0  0  0  0  0  0
   26.1538  -19.7129  -10.8023 C   0  0  0  0  0  0  0  0  0  0  0  0
   24.9349  -21.4783  -12.1043 C   0  0  0  0  0  0  0  0  0  0  0  0
   24.0410  -20.7274  -13.0645 C   0  0  2  0  0  0  0  0  0  0  0  0
   22.8132  -21.4131  -13.3241 N   0  0  0  0  0  0  0  0  0  0  0  0
   24.7424  -20.2097  -14.2574 C   0  0  0  0  0  0  0  0  0  0  0  0
   25.0011  -20.9765  -15.2528 O   0  0  0  0  0  0  0  0  0  0  0  0
   26.9666  -16.4639  -16.5421 O   0  0  0  0  0  0  0  0  0  0  0  0
   26.1866  -16.9342  -15.4940 C   0  0  0  0  0  0  0  0  0  0  0  0
   25.9131  -18.3962  -15.5551 C   0  0  2  0  0  0  0  0  0  0  0  0
   25.1723  -18.8573  -14.3854 N   0  0  0  0  0  0  0  0  0  0  0  0
   27.1779  -19.1868  -15.6609 C   0  0  0  0  0  0  0  0  0  0  0  0
   27.7871  -19.4164  -14.5837 O   0  0  0  0  0  0  0  0  0  0  0  0
   27.6433  -19.6379  -16.8943 O   0  0  0  0  0  0  0  0  0  0  0  0
  1  2  1  0
  2  3  1  0
  3  5  1  0
  3  4  1  6
  5  7  1  0
  5  6  1  1
  7  8  2  0
 10  9  1  1
 10 12  1  0
 11 10  1  0
 13 12  1  6
 14 13  1  0
 14  7  1  0
 15 16  2  0
 15 13  1  0
 17 18  1  0
 19 18  1  1
 19 21  1  0
 19 20  1  0
 20 15  1  0
 21 23  1  0
 22 21  2  0
M  END
$$$$
