ILS.pdb
     RDKit          3D

 23 22  0  0  1  0  0  0  0  0999 V2000
   19.4164  -14.3270  -21.2613 C   0  0  0  0  0  0  0  0  0  0  0  0
   20.6943  -14.2588  -20.4948 C   0  0  0  0  0  0  0  0  0  0  0  0
   20.6430  -13.2980  -19.3152 C   0  0  2  0  0  0  0  0  0  0  0  0
   20.1157  -12.0059  -19.8371 C   0  0  0  0  0  0  0  0  0  0  0  0
   21.9735  -13.2347  -18.6318 C   0  0  2  0  0  0  0  0  0  0  0  0
   22.2093  -14.6128  -18.1421 N   0  0  0  0  0  0  0  0  0  0  0  0
   22.0383  -12.3585  -17.4527 C   0  0  0  0  0  0  0  0  0  0  0  0
   21.2892  -12.6097  -16.4564 O   0  0  0  0  0  0  0  0  0  0  0  0
   26.5946  -10.5220  -15.3386 C   0  0  0  0  0  0  0  0  0  0  0  0
   25.3834  -10.4069  -16.2717 C   0  0  2  0  0  0  0  0  0  0  0  0
   25.6256   -9.1719  -17.1103 C   0  0  0  0  0  0  0  0  0  0  0  0
   24.1764  -10.3346  -15.4234 C   0  0  0  0  0  0  0  0  0  0  0  0
   22.8503  -10.3882  -16.1470 C   0  0  2  0  0  0  0  0  0  0  0  0
   22.8920  -11.2170  -17.3117 N   0  0  0  0  0  0  0  0  0  0  0  0
   22.2133   -9.0678  -16.3310 C   0  0  0  0  0  0  0  0  0  0  0  0
   22.3622   -8.4121  -17.4236 O   0  0  0  0  0  0  0  0  0  0  0  0
   18.7507   -5.9115  -14.9698 O   0  0  0  0  0  0  0  0  0  0  0  0
   19.4699   -7.0795  -14.7542 C   0  0  0  0  0  0  0  0  0  0  0  0
   20.6897   -7.2008  -15.5987 C   0  0  2  0  0  0  0  0  0  0  0  0
   21.4094   -8.4425  -15.3347 N   0  0  0  0  0  0  0  0  0  0  0  0
   21.6233   -6.0530  -15.3819 C   0  0  0  0  0  0  0  0  0  0  0  0
   22.5248   -6.2190  -14.5194 O   0  0  0  0  0  0  0  0  0  0  0  0
   21.4884   -4.8694  -16.1046 O   0  0  0  0  0  0  0  0  0  0  0  0
  1  2  1  0
  2  3  1  0
  3  5  1  0
  3  4  1  6
  5  7  1  0
  5  6  1  1
  7  8  2  0
 10  9  1  1
 10 12  1  0
 11 10  1  0
 13 12  1  6
 14 13  1  0
 14  7  1  0
 15 16  2  0
 15 13  1  0
 17 18  1  0
 19 18  1  1
 19 21  1  0
 19 20  1  0
 20 15  1  0
 21 23  1  0
 22 21  2  0
M  END
$$$$
