ILS.pdb
     RDKit          3D

 23 22  0  0  1  0  0  0  0  0999 V2000
   14.9168  -12.6558  -19.2825 C   0  0  0  0  0  0  0  0  0  0  0  0
   16.2719  -12.8812  -18.7010 C   0  0  0  0  0  0  0  0  0  0  0  0
   16.8174  -11.6750  -17.9496 C   0  0  2  0  0  0  0  0  0  0  0  0
   16.7870  -10.5280  -18.9001 C   0  0  0  0  0  0  0  0  0  0  0  0
   18.1507  -11.9914  -17.3467 C   0  0  2  0  0  0  0  0  0  0  0  0
   17.8831  -13.1072  -16.4098 N   0  0  0  0  0  0  0  0  0  0  0  0
   18.7556  -10.9149  -16.5481 C   0  0  0  0  0  0  0  0  0  0  0  0
   18.0853  -10.4021  -15.5970 O   0  0  0  0  0  0  0  0  0  0  0  0
   21.9480  -10.1736  -13.3772 C   0  0  0  0  0  0  0  0  0  0  0  0
   22.4180  -10.4839  -14.8033 C   0  0  2  0  0  0  0  0  0  0  0  0
   23.9142  -10.6833  -14.7094 C   0  0  0  0  0  0  0  0  0  0  0  0
   22.0115   -9.3512  -15.6597 C   0  0  0  0  0  0  0  0  0  0  0  0
   20.5379   -9.2567  -15.9827 C   0  0  2  0  0  0  0  0  0  0  0  0
   20.0679  -10.3743  -16.7411 N   0  0  0  0  0  0  0  0  0  0  0  0
   20.1164   -7.9308  -16.4799 C   0  0  0  0  0  0  0  0  0  0  0  0
   20.2334   -7.6258  -17.7206 O   0  0  0  0  0  0  0  0  0  0  0  0
   17.5039   -3.8703  -15.8769 O   0  0  0  0  0  0  0  0  0  0  0  0
   17.9596   -5.0966  -15.4115 C   0  0  0  0  0  0  0  0  0  0  0  0
   19.1157   -5.6395  -16.1760 C   0  0  2  0  0  0  0  0  0  0  0  0
   19.5650   -6.9204  -15.6402 N   0  0  0  0  0  0  0  0  0  0  0  0
   20.2704   -4.6895  -16.1723 C   0  0  0  0  0  0  0  0  0  0  0  0
   21.1484   -4.8778  -15.2904 O   0  0  0  0  0  0  0  0  0  0  0  0
   20.3546   -3.6559  -17.1029 O   0  0  0  0  0  0  0  0  0  0  0  0
  1  2  1  0
  2  3  1  0
  3  5  1  0
  3  4  1  6
  5  7  1  0
  5  6  1  1
  7  8  2  0
 10  9  1  1
 10 12  1  0
 11 10  1  0
 13 12  1  6
 14 13  1  0
 14  7  1  0
 15 16  2  0
 15 13  1  0
 17 18  1  0
 19 18  1  1
 19 21  1  0
 19 20  1  0
 20 15  1  0
 21 23  1  0
 22 21  2  0
M  END
$$$$
