ILS.pdb
     RDKit          3D

 23 22  0  0  1  0  0  0  0  0999 V2000
   21.0855  -20.2644   -9.8597 C   0  0  0  0  0  0  0  0  0  0  0  0
   22.4737  -20.7517   -9.6130 C   0  0  0  0  0  0  0  0  0  0  0  0
   23.4474  -20.3979  -10.7284 C   0  0  2  0  0  0  0  0  0  0  0  0
   22.8346  -20.8749  -12.0000 C   0  0  0  0  0  0  0  0  0  0  0  0
   24.8133  -20.9277  -10.4200 C   0  0  2  0  0  0  0  0  0  0  0  0
   25.1659  -20.3190   -9.1163 N   0  0  0  0  0  0  0  0  0  0  0  0
   25.8721  -20.5343  -11.3616 C   0  0  0  0  0  0  0  0  0  0  0  0
   26.0556  -19.2991  -11.6014 O   0  0  0  0  0  0  0  0  0  0  0  0
   29.9025  -19.8954  -11.3263 C   0  0  0  0  0  0  0  0  0  0  0  0
   29.6253  -21.3841  -11.5664 C   0  0  2  0  0  0  0  0  0  0  0  0
   30.9569  -22.0823  -11.4036 C   0  0  0  0  0  0  0  0  0  0  0  0
   29.0360  -21.5129  -12.9146 C   0  0  0  0  0  0  0  0  0  0  0  0
   27.6310  -20.9805  -13.0802 C   0  0  2  0  0  0  0  0  0  0  0  0
   26.7457  -21.4345  -12.0530 N   0  0  0  0  0  0  0  0  0  0  0  0
   27.1086  -21.0836  -14.4584 C   0  0  0  0  0  0  0  0  0  0  0  0
   27.7824  -20.6328  -15.4527 O   0  0  0  0  0  0  0  0  0  0  0  0
   23.3986  -22.2485  -17.4699 O   0  0  0  0  0  0  0  0  0  0  0  0
   23.9373  -22.2121  -16.1907 C   0  0  0  0  0  0  0  0  0  0  0  0
   25.3181  -21.6590  -16.1337 C   0  0  2  0  0  0  0  0  0  0  0  0
   25.8514  -21.6745  -14.7754 N   0  0  0  0  0  0  0  0  0  0  0  0
   25.3688  -20.2566  -16.6501 C   0  0  0  0  0  0  0  0  0  0  0  0
   25.9226  -20.0907  -17.7682 O   0  0  0  0  0  0  0  0  0  0  0  0
   24.8271  -19.2009  -15.9197 O   0  0  0  0  0  0  0  0  0  0  0  0
  1  2  1  0
  2  3  1  0
  3  5  1  0
  3  4  1  6
  5  7  1  0
  5  6  1  1
  7  8  2  0
 10  9  1  6
 10 12  1  0
 11 10  1  0
 13 12  1  6
 14 13  1  0
 14  7  1  0
 15 16  2  0
 15 13  1  0
 17 18  1  0
 19 18  1  1
 19 21  1  0
 19 20  1  0
 20 15  1  0
 21 23  1  0
 22 21  2  0
M  END
$$$$
