ILS.pdb
     RDKit          3D

 23 22  0  0  1  0  0  0  0  0999 V2000
   22.7932  -17.5855  -19.5392 C   0  0  0  0  0  0  0  0  0  0  0  0
   23.9306  -17.7242  -18.5840 C   0  0  0  0  0  0  0  0  0  0  0  0
   23.7159  -18.8103  -17.5394 C   0  0  2  0  0  0  0  0  0  0  0  0
   22.3966  -18.5382  -16.9027 C   0  0  0  0  0  0  0  0  0  0  0  0
   24.8884  -18.8850  -16.6115 C   0  0  2  0  0  0  0  0  0  0  0  0
   26.0094  -19.3504  -17.4608 N   0  0  0  0  0  0  0  0  0  0  0  0
   24.7668  -19.8575  -15.5151 C   0  0  0  0  0  0  0  0  0  0  0  0
   24.8101  -21.0992  -15.7854 O   0  0  0  0  0  0  0  0  0  0  0  0
   24.1997  -20.7800   -9.7592 C   0  0  0  0  0  0  0  0  0  0  0  0
   25.1023  -21.3651  -10.8518 C   0  0  2  0  0  0  0  0  0  0  0  0
   26.4017  -21.7219  -10.1650 C   0  0  0  0  0  0  0  0  0  0  0  0
   25.2380  -20.3422  -11.9087 C   0  0  0  0  0  0  0  0  0  0  0  0
   24.3872  -20.5427  -13.1418 C   0  0  2  0  0  0  0  0  0  0  0  0
   24.6033  -19.5318  -14.1299 N   0  0  0  0  0  0  0  0  0  0  0  0
   22.9722  -20.8525  -12.8508 C   0  0  0  0  0  0  0  0  0  0  0  0
   22.6590  -21.7709  -12.0115 O   0  0  0  0  0  0  0  0  0  0  0  0
   20.2652  -18.1682  -12.7231 O   0  0  0  0  0  0  0  0  0  0  0  0
   19.6167  -19.3259  -13.1320 C   0  0  0  0  0  0  0  0  0  0  0  0
   20.4957  -20.5265  -13.1735 C   0  0  2  0  0  0  0  0  0  0  0  0
   21.8811  -20.1729  -13.4654 N   0  0  0  0  0  0  0  0  0  0  0  0
   20.0294  -21.5125  -14.1965 C   0  0  0  0  0  0  0  0  0  0  0  0
   20.8447  -21.7986  -15.1117 O   0  0  0  0  0  0  0  0  0  0  0  0
   18.7567  -22.0752  -14.1256 O   0  0  0  0  0  0  0  0  0  0  0  0
  1  2  1  0
  2  3  1  0
  3  5  1  0
  3  4  1  1
  5  7  1  0
  5  6  1  6
  7  8  2  0
 10  9  1  1
 10 12  1  0
 11 10  1  0
 13 12  1  1
 14 13  1  0
 14  7  1  0
 15 16  2  0
 15 13  1  0
 17 18  1  0
 19 18  1  6
 19 21  1  0
 19 20  1  0
 20 15  1  0
 21 23  1  0
 22 21  2  0
M  END
$$$$
