ILS.pdb
     RDKit          3D

 23 22  0  0  1  0  0  0  0  0999 V2000
   17.5577  -15.5795  -18.2093 C   0  0  0  0  0  0  0  0  0  0  0  0
   18.4542  -14.5083  -18.7330 C   0  0  0  0  0  0  0  0  0  0  0  0
   18.8369  -13.4723  -17.6855 C   0  0  2  0  0  0  0  0  0  0  0  0
   17.5690  -13.0188  -17.0477 C   0  0  0  0  0  0  0  0  0  0  0  0
   19.6847  -12.3991  -18.2943 C   0  0  2  0  0  0  0  0  0  0  0  0
   20.6671  -13.1268  -19.1308 N   0  0  0  0  0  0  0  0  0  0  0  0
   20.4653  -11.5935  -17.3434 C   0  0  0  0  0  0  0  0  0  0  0  0
   19.8557  -10.9729  -16.4160 O   0  0  0  0  0  0  0  0  0  0  0  0
   26.3036  -10.2316  -15.7170 C   0  0  0  0  0  0  0  0  0  0  0  0
   24.8163   -9.9649  -15.4566 C   0  0  2  0  0  0  0  0  0  0  0  0
   24.5972  -10.2534  -13.9883 C   0  0  0  0  0  0  0  0  0  0  0  0
   24.0445  -10.8363  -16.3658 C   0  0  0  0  0  0  0  0  0  0  0  0
   22.5590  -10.5678  -16.4430 C   0  0  2  0  0  0  0  0  0  0  0  0
   21.8892  -11.4386  -17.3586 N   0  0  0  0  0  0  0  0  0  0  0  0
   22.2133   -9.1362  -16.5615 C   0  0  0  0  0  0  0  0  0  0  0  0
   22.4915   -8.4782  -17.6270 O   0  0  0  0  0  0  0  0  0  0  0  0
   18.9152   -7.3470  -16.0612 O   0  0  0  0  0  0  0  0  0  0  0  0
   19.8583   -6.6707  -15.2990 C   0  0  0  0  0  0  0  0  0  0  0  0
   21.2666   -6.9795  -15.6695 C   0  0  2  0  0  0  0  0  0  0  0  0
   21.5640   -8.4011  -15.5280 N   0  0  0  0  0  0  0  0  0  0  0  0
   22.2357   -6.2041  -14.8355 C   0  0  0  0  0  0  0  0  0  0  0  0
   23.0541   -6.8769  -14.1560 O   0  0  0  0  0  0  0  0  0  0  0  0
   22.2201   -4.8109  -14.8227 O   0  0  0  0  0  0  0  0  0  0  0  0
  1  2  1  0
  2  3  1  0
  3  5  1  0
  3  4  1  6
  5  7  1  0
  5  6  1  6
  7  8  2  0
 10  9  1  6
 10 12  1  0
 11 10  1  0
 13 12  1  6
 14 13  1  0
 14  7  1  0
 15 16  2  0
 15 13  1  0
 17 18  1  0
 19 18  1  1
 19 21  1  0
 19 20  1  0
 20 15  1  0
 21 23  1  0
 22 21  2  0
M  END
$$$$
