ILS.pdb
     RDKit          3D

 23 22  0  0  1  0  0  0  0  0999 V2000
   29.3629  -17.5217  -18.3771 C   0  0  0  0  0  0  0  0  0  0  0  0
   28.1431  -17.2409  -17.5656 C   0  0  0  0  0  0  0  0  0  0  0  0
   27.6333  -18.4528  -16.7983 C   0  0  2  0  0  0  0  0  0  0  0  0
   27.6977  -19.6107  -17.7337 C   0  0  0  0  0  0  0  0  0  0  0  0
   26.2911  -18.1680  -16.1994 C   0  0  2  0  0  0  0  0  0  0  0  0
   26.4708  -16.8937  -15.4657 N   0  0  0  0  0  0  0  0  0  0  0  0
   25.8164  -19.1509  -15.2140 C   0  0  0  0  0  0  0  0  0  0  0  0
   25.2398  -20.2068  -15.6255 O   0  0  0  0  0  0  0  0  0  0  0  0
   25.6356  -20.2117   -9.1084 C   0  0  0  0  0  0  0  0  0  0  0  0
   25.3029  -20.7789  -10.4935 C   0  0  2  0  0  0  0  0  0  0  0  0
   25.8543  -22.1870  -10.5051 C   0  0  0  0  0  0  0  0  0  0  0  0
   25.9122  -19.8826  -11.4970 C   0  0  0  0  0  0  0  0  0  0  0  0
   25.3676  -19.9899  -12.9030 C   0  0  2  0  0  0  0  0  0  0  0  0
   25.9480  -19.0324  -13.7926 N   0  0  0  0  0  0  0  0  0  0  0  0
   23.8963  -20.1066  -12.9693 C   0  0  0  0  0  0  0  0  0  0  0  0
   23.1512  -19.0629  -12.9322 O   0  0  0  0  0  0  0  0  0  0  0  0
   19.9907  -22.4454  -14.4947 O   0  0  0  0  0  0  0  0  0  0  0  0
   21.3645  -22.3039  -14.3512 C   0  0  0  0  0  0  0  0  0  0  0  0
   21.7648  -21.4250  -13.2184 C   0  0  2  0  0  0  0  0  0  0  0  0
   23.2153  -21.3537  -13.0753 N   0  0  0  0  0  0  0  0  0  0  0  0
   21.1806  -21.8969  -11.9253 C   0  0  0  0  0  0  0  0  0  0  0  0
   21.9463  -22.5501  -11.1695 O   0  0  0  0  0  0  0  0  0  0  0  0
   19.8569  -21.6196  -11.5902 O   0  0  0  0  0  0  0  0  0  0  0  0
  1  2  1  0
  2  3  1  0
  3  5  1  0
  3  4  1  6
  5  7  1  0
  5  6  1  1
  7  8  2  0
 10  9  1  1
 10 12  1  0
 11 10  1  0
 13 12  1  1
 14 13  1  0
 14  7  1  0
 15 16  2  0
 15 13  1  0
 17 18  1  0
 19 18  1  6
 19 21  1  0
 19 20  1  0
 20 15  1  0
 21 23  1  0
 22 21  2  0
M  END
$$$$
