RFE.pdb
     RDKit          3D

 32 32  0  0  1  0  0  0  0  0999 V2000
   23.9098  -16.8587  -15.3496 N   0  0  0  0  0  0  0  0  0  0  0  0
   25.0437  -16.1324  -15.8360 C   0  0  0  0  0  0  0  0  0  0  0  0
   24.9283  -14.8596  -16.0274 N   0  0  0  0  0  0  0  0  0  0  0  0
   26.2581  -16.8101  -16.0973 N   0  0  0  0  0  0  0  0  0  0  0  0
   26.4450  -18.1410  -15.5925 C   0  0  0  0  0  0  0  0  0  0  0  0
   27.8940  -18.3177  -15.1943 C   0  0  0  0  0  0  0  0  0  0  0  0
   27.9527  -18.6924  -13.7196 C   0  0  0  0  0  0  0  0  0  0  0  0
   27.9717  -20.1846  -13.6505 C   0  0  2  0  0  0  0  0  0  0  0  0
   28.2195  -20.8056  -14.9352 N   0  0  0  0  0  0  0  0  0  0  0  0
   26.7384  -20.7574  -13.0256 C   0  0  0  0  0  0  0  0  0  0  0  0
   25.9847  -21.4657  -13.7337 O   0  0  0  0  0  0  0  0  0  0  0  0
   25.6896  -14.3083  -16.4719 N   0  0  0  0  0  0  0  0  0  0  0  0
   26.4049  -20.5209  -11.6652 C   0  0  2  0  0  0  0  0  0  0  0  0
   25.2474  -20.9997  -10.9811 C   0  0  0  0  0  0  0  0  0  0  0  0
   25.3777  -21.0477   -9.4567 C   0  0  0  0  0  0  0  0  0  0  0  0
   26.7494  -20.7083   -9.0691 C   0  0  0  0  0  0  0  0  0  0  0  0
   27.7733  -21.4928   -9.5821 C   0  0  0  0  0  0  0  0  0  0  0  0
   29.0809  -21.2295   -9.2381 C   0  0  0  0  0  0  0  0  0  0  0  0
   29.3903  -20.1985   -8.3916 C   0  0  0  0  0  0  0  0  0  0  0  0
   28.3841  -19.4258   -7.8858 C   0  0  0  0  0  0  0  0  0  0  0  0
   27.0504  -19.6840   -8.2282 C   0  0  0  0  0  0  0  0  0  0  0  0
   23.9872  -20.4293  -11.4448 O   0  0  0  0  0  0  0  0  0  0  0  0
   24.0137  -19.2341  -11.8978 N   0  0  0  0  0  0  0  0  0  0  0  0
   22.7377  -21.0712  -11.4414 C   0  0  1  0  0  0  0  0  0  0  0  0
   21.6723  -20.8209  -12.4168 C   0  0  0  0  0  0  0  0  0  0  0  0
   22.0871  -21.2094  -13.7866 C   0  0  0  0  0  0  0  0  0  0  0  0
   20.9814  -20.9786  -14.7751 C   0  0  0  0  0  0  0  0  0  0  0  0
   21.5219  -20.9633  -16.1796 O   0  0  0  0  0  0  0  0  0  0  0  0
   22.7501  -21.0916  -16.3362 C   0  0  0  0  0  0  0  0  0  0  0  0
   20.4517  -21.4916  -11.9295 O   0  0  0  0  0  0  0  0  0  0  0  0
   19.1857  -20.9871  -12.3212 O   0  0  0  0  0  0  0  0  0  0  0  0
   20.6032  -20.8059  -17.2053 O   0  0  0  0  0  0  0  0  0  0  0  0
  2  3  2  0
  2  1  1  0
  4  2  1  0
  5  4  1  0
  6  5  1  0
  7  8  1  0
  7  6  1  0
  8  9  1  6
 10 11  2  0
 10  8  1  0
 12 10  1  0
 13 12  1  0
 13 21  1  0
 13 14  1  6
 15 14  1  0
 16 15  2  0
 17 16  1  0
 18 17  2  0
 18 19  1  0
 19 20  2  0
 20 15  1  0
 21 23  1  0
 22 21  2  0
 23 24  1  0
 24 25  1  6
 24 29  1  0
 26 27  1  0
 26 25  1  0
 27 28  2  0
 29 32  2  0
 29 30  1  0
 31 27  1  0
M  END
$$$$
