RFE.pdb
     RDKit          3D

 32 32  0  0  1  0  0  0  0  0999 V2000
   29.2988  -19.6786  -20.4536 N   0  0  0  0  0  0  0  0  0  0  0  0
   29.4711  -20.9918  -19.9096 C   0  0  0  0  0  0  0  0  0  0  0  0
   30.5699  -21.6254  -20.1572 N   0  0  0  0  0  0  0  0  0  0  0  0
   28.4490  -21.5692  -19.1195 N   0  0  0  0  0  0  0  0  0  0  0  0
   27.2631  -20.8109  -18.8376 C   0  0  0  0  0  0  0  0  0  0  0  0
   27.4705  -20.0295  -17.5587 C   0  0  0  0  0  0  0  0  0  0  0  0
   26.3713  -20.4044  -16.5739 C   0  0  0  0  0  0  0  0  0  0  0  0
   27.0358  -21.0694  -15.4129 C   0  0  2  0  0  0  0  0  0  0  0  0
   27.7292  -22.2864  -15.7811 N   0  0  0  0  0  0  0  0  0  0  0  0
   26.1011  -21.3283  -14.2731 C   0  0  0  0  0  0  0  0  0  0  0  0
   25.5660  -22.4584  -14.1852 O   0  0  0  0  0  0  0  0  0  0  0  0
   30.7214  -22.5973  -19.8202 N   0  0  0  0  0  0  0  0  0  0  0  0
   25.8090  -20.3361  -13.2994 C   0  0  1  0  0  0  0  0  0  0  0  0
   24.7718  -20.3893  -12.3205 C   0  0  0  0  0  0  0  0  0  0  0  0
   24.9614  -19.4418  -11.1333 C   0  0  0  0  0  0  0  0  0  0  0  0
   26.0377  -19.9402  -10.2729 C   0  0  0  0  0  0  0  0  0  0  0  0
   27.2727  -20.1748  -10.8619 C   0  0  0  0  0  0  0  0  0  0  0  0
   28.3159  -20.6593  -10.1041 C   0  0  0  0  0  0  0  0  0  0  0  0
   28.1541  -20.9154   -8.7686 C   0  0  0  0  0  0  0  0  0  0  0  0
   26.9397  -20.6853   -8.1876 C   0  0  0  0  0  0  0  0  0  0  0  0
   25.8711  -20.1929   -8.9481 C   0  0  0  0  0  0  0  0  0  0  0  0
   23.4188  -20.3824  -12.8665 O   0  0  0  0  0  0  0  0  0  0  0  0
   23.0703  -19.3680  -13.5621 N   0  0  0  0  0  0  0  0  0  0  0  0
   22.4547  -21.3904  -12.7005 C   0  0  1  0  0  0  0  0  0  0  0  0
   21.0965  -21.3398  -13.2501 C   0  0  0  0  0  0  0  0  0  0  0  0
   20.5604  -22.6997  -13.5003 C   0  0  0  0  0  0  0  0  0  0  0  0
   19.1686  -22.6407  -14.0591 C   0  0  0  0  0  0  0  0  0  0  0  0
   18.9212  -23.7995  -14.9870 O   0  0  0  0  0  0  0  0  0  0  0  0
   19.8325  -24.6339  -15.1381 C   0  0  0  0  0  0  0  0  0  0  0  0
   20.2770  -20.5118  -12.3447 O   0  0  0  0  0  0  0  0  0  0  0  0
   19.2393  -19.7144  -12.8909 O   0  0  0  0  0  0  0  0  0  0  0  0
   17.6849  -23.8527  -15.6109 O   0  0  0  0  0  0  0  0  0  0  0  0
  2  3  2  0
  2  1  1  0
  4  2  1  0
  5  4  1  0
  6  5  1  0
  7  8  1  0
  7  6  1  0
  8  9  1  6
 10 11  2  0
 10  8  1  0
 12 10  1  0
 13 12  1  0
 13 21  1  0
 13 14  1  1
 15 14  1  0
 16 15  2  0
 17 16  1  0
 18 17  2  0
 18 19  1  0
 19 20  2  0
 20 15  1  0
 21 23  1  0
 22 21  2  0
 23 24  1  0
 24 25  1  1
 24 29  1  0
 26 27  1  0
 26 25  1  0
 27 28  2  0
 29 32  2  0
 29 30  1  0
 31 27  1  0
M  END
$$$$
