RFE.pdb
     RDKit          3D

 32 32  0  0  1  0  0  0  0  0999 V2000
   28.9265  -18.9212  -17.9814 N   0  0  0  0  0  0  0  0  0  0  0  0
   28.4158  -17.6086  -17.7238 C   0  0  0  0  0  0  0  0  0  0  0  0
   28.8005  -16.6347  -18.4811 N   0  0  0  0  0  0  0  0  0  0  0  0
   27.5094  -17.3997  -16.6574 N   0  0  0  0  0  0  0  0  0  0  0  0
   26.9532  -18.5325  -15.9732 C   0  0  0  0  0  0  0  0  0  0  0  0
   28.0573  -19.2466  -15.2247 C   0  0  0  0  0  0  0  0  0  0  0  0
   27.6539  -19.3711  -13.7617 C   0  0  0  0  0  0  0  0  0  0  0  0
   27.4851  -20.8284  -13.4796 C   0  0  2  0  0  0  0  0  0  0  0  0
   27.4779  -21.6382  -14.6803 N   0  0  0  0  0  0  0  0  0  0  0  0
   26.2800  -21.1271  -12.6440 C   0  0  0  0  0  0  0  0  0  0  0  0
   25.7038  -22.2292  -12.8005 O   0  0  0  0  0  0  0  0  0  0  0  0
   28.4442  -15.6680  -18.3418 N   0  0  0  0  0  0  0  0  0  0  0  0
   25.7790  -20.2028  -11.6887 C   0  0  2  0  0  0  0  0  0  0  0  0
   24.6262  -20.3766  -10.8654 C   0  0  0  0  0  0  0  0  0  0  0  0
   24.5937  -19.4961   -9.6136 C   0  0  0  0  0  0  0  0  0  0  0  0
   25.6029  -19.9612   -8.6585 C   0  0  0  0  0  0  0  0  0  0  0  0
   26.4060  -19.0021   -8.0566 C   0  0  0  0  0  0  0  0  0  0  0  0
   27.3824  -19.3838   -7.1631 C   0  0  0  0  0  0  0  0  0  0  0  0
   27.5757  -20.7043   -6.8559 C   0  0  0  0  0  0  0  0  0  0  0  0
   26.7866  -21.6492   -7.4474 C   0  0  0  0  0  0  0  0  0  0  0  0
   25.7905  -21.2731   -8.3579 C   0  0  0  0  0  0  0  0  0  0  0  0
   23.3606  -20.4131  -11.5902 O   0  0  0  0  0  0  0  0  0  0  0  0
   23.2272  -19.6168  -12.5815 N   0  0  0  0  0  0  0  0  0  0  0  0
   22.2659  -21.2449  -11.3022 C   0  0  1  0  0  0  0  0  0  0  0  0
   21.0222  -21.2800  -12.0775 C   0  0  0  0  0  0  0  0  0  0  0  0
   20.2030  -22.4685  -11.7373 C   0  0  0  0  0  0  0  0  0  0  0  0
   18.9368  -22.5041  -12.5425 C   0  0  0  0  0  0  0  0  0  0  0  0
   18.1245  -23.7233  -12.1978 O   0  0  0  0  0  0  0  0  0  0  0  0
   18.5604  -24.4881  -11.3176 C   0  0  0  0  0  0  0  0  0  0  0  0
   20.3388  -19.9862  -11.8876 O   0  0  0  0  0  0  0  0  0  0  0  0
   19.6095  -19.4275  -12.9678 O   0  0  0  0  0  0  0  0  0  0  0  0
   16.9394  -23.9064  -12.8924 O   0  0  0  0  0  0  0  0  0  0  0  0
  2  3  2  0
  2  1  1  0
  4  2  1  0
  5  4  1  0
  6  5  1  0
  7  8  1  0
  7  6  1  0
  8  9  1  6
 10 11  2  0
 10  8  1  0
 12 10  1  0
 13 12  1  0
 13 21  1  0
 13 14  1  6
 15 14  1  0
 16 15  2  0
 17 16  1  0
 18 17  2  0
 18 19  1  0
 19 20  2  0
 20 15  1  0
 21 23  1  0
 22 21  2  0
 23 24  1  0
 24 25  1  1
 24 29  1  0
 26 27  1  0
 26 25  1  0
 27 28  2  0
 29 32  2  0
 29 30  1  0
 31 27  1  0
M  END
$$$$
