RFE.pdb
     RDKit          3D

 32 32  0  0  1  0  0  0  0  0999 V2000
   30.0326  -23.1078  -16.9052 N   0  0  0  0  0  0  0  0  0  0  0  0
   29.4376  -22.7749  -18.1642 C   0  0  0  0  0  0  0  0  0  0  0  0
   29.3822  -23.6827  -19.0822 N   0  0  0  0  0  0  0  0  0  0  0  0
   28.9261  -21.4737  -18.3821 N   0  0  0  0  0  0  0  0  0  0  0  0
   28.7862  -20.5762  -17.2704 C   0  0  0  0  0  0  0  0  0  0  0  0
   27.4636  -20.8428  -16.5857 C   0  0  0  0  0  0  0  0  0  0  0  0
   27.5388  -20.3191  -15.1579 C   0  0  0  0  0  0  0  0  0  0  0  0
   27.7003  -21.5072  -14.2668 C   0  0  2  0  0  0  0  0  0  0  0  0
   27.7699  -22.7554  -14.9981 N   0  0  0  0  0  0  0  0  0  0  0  0
   26.6521  -21.5868  -13.2016 C   0  0  0  0  0  0  0  0  0  0  0  0
   25.8275  -22.5298  -13.2453 O   0  0  0  0  0  0  0  0  0  0  0  0
   29.1242  -23.4466  -20.0614 N   0  0  0  0  0  0  0  0  0  0  0  0
   26.5699  -20.6308  -12.1541 C   0  0  1  0  0  0  0  0  0  0  0  0
   25.4771  -20.4526  -11.2536 C   0  0  0  0  0  0  0  0  0  0  0  0
   25.7971  -19.6113  -10.0155 C   0  0  0  0  0  0  0  0  0  0  0  0
   26.9264  -20.2054   -9.2953 C   0  0  0  0  0  0  0  0  0  0  0  0
   27.9556  -20.7481  -10.0524 C   0  0  0  0  0  0  0  0  0  0  0  0
   29.0344  -21.3345   -9.4281 C   0  0  0  0  0  0  0  0  0  0  0  0
   29.1094  -21.3915   -8.0619 C   0  0  0  0  0  0  0  0  0  0  0  0
   28.0976  -20.8583   -7.3155 C   0  0  0  0  0  0  0  0  0  0  0  0
   26.9951  -20.2596   -7.9391 C   0  0  0  0  0  0  0  0  0  0  0  0
   24.2137  -20.0998  -11.8923 O   0  0  0  0  0  0  0  0  0  0  0  0
   24.2633  -19.3174  -12.9022 N   0  0  0  0  0  0  0  0  0  0  0  0
   22.9381  -20.5399  -11.5020 C   0  0  1  0  0  0  0  0  0  0  0  0
   21.7076  -20.2996  -12.2618 C   0  0  0  0  0  0  0  0  0  0  0  0
   21.7008  -21.0546  -13.5382 C   0  0  0  0  0  0  0  0  0  0  0  0
   21.3758  -22.5023  -13.3115 C   0  0  0  0  0  0  0  0  0  0  0  0
   20.8012  -23.1173  -14.5591 O   0  0  0  0  0  0  0  0  0  0  0  0
   21.5738  -23.7274  -15.3211 C   0  0  0  0  0  0  0  0  0  0  0  0
   20.5672  -20.5865  -11.3706 O   0  0  0  0  0  0  0  0  0  0  0  0
   19.2584  -20.2430  -11.7947 O   0  0  0  0  0  0  0  0  0  0  0  0
   19.4407  -22.9576  -14.7699 O   0  0  0  0  0  0  0  0  0  0  0  0
  2  3  2  0
  2  1  1  0
  4  2  1  0
  5  4  1  0
  6  5  1  0
  7  8  1  0
  7  6  1  0
  8  9  1  6
 10 11  2  0
 10  8  1  0
 12 10  1  0
 13 12  1  0
 13 21  1  0
 13 14  1  1
 15 14  1  0
 16 15  2  0
 17 16  1  0
 18 17  2  0
 18 19  1  0
 19 20  2  0
 20 15  1  0
 21 23  1  0
 22 21  2  0
 23 24  1  0
 24 25  1  6
 24 29  1  0
 26 27  1  0
 26 25  1  0
 27 28  2  0
 29 32  2  0
 29 30  1  0
 31 27  1  0
M  END
$$$$
