RFE.pdb
     RDKit          3D

 32 32  0  0  1  0  0  0  0  0999 V2000
   29.3920  -20.6120  -18.6702 N   0  0  0  0  0  0  0  0  0  0  0  0
   28.4678  -21.5910  -18.1829 C   0  0  0  0  0  0  0  0  0  0  0  0
   28.6580  -22.8309  -18.4936 N   0  0  0  0  0  0  0  0  0  0  0  0
   27.3736  -21.1917  -17.3794 N   0  0  0  0  0  0  0  0  0  0  0  0
   27.2855  -19.8293  -16.9356 C   0  0  0  0  0  0  0  0  0  0  0  0
   28.2393  -19.6254  -15.7789 C   0  0  0  0  0  0  0  0  0  0  0  0
   27.5002  -19.9158  -14.4797 C   0  0  0  0  0  0  0  0  0  0  0  0
   28.3393  -20.8818  -13.7087 C   0  0  2  0  0  0  0  0  0  0  0  0
   28.5372  -22.1370  -14.4036 N   0  0  0  0  0  0  0  0  0  0  0  0
   27.8252  -21.1293  -12.3251 C   0  0  0  0  0  0  0  0  0  0  0  0
   26.7872  -21.8186  -12.1887 O   0  0  0  0  0  0  0  0  0  0  0  0
   27.9781  -23.5678  -18.2184 N   0  0  0  0  0  0  0  0  0  0  0  0
   28.4773  -20.6081  -11.1758 C   0  0  1  0  0  0  0  0  0  0  0  0
   28.0172  -20.6964   -9.8276 C   0  0  0  0  0  0  0  0  0  0  0  0
   29.0386  -20.2656   -8.7720 C   0  0  0  0  0  0  0  0  0  0  0  0
   28.4046  -20.2507   -7.4510 C   0  0  0  0  0  0  0  0  0  0  0  0
   27.6194  -19.1522   -7.1291 C   0  0  0  0  0  0  0  0  0  0  0  0
   27.0127  -19.0775   -5.8947 C   0  0  0  0  0  0  0  0  0  0  0  0
   27.1724  -20.0769   -4.9722 C   0  0  0  0  0  0  0  0  0  0  0  0
   27.9448  -21.1583   -5.2872 C   0  0  0  0  0  0  0  0  0  0  0  0
   28.5671  -21.2453   -6.5394 C   0  0  0  0  0  0  0  0  0  0  0  0
   26.6799  -20.1575   -9.6045 O   0  0  0  0  0  0  0  0  0  0  0  0
   26.4932  -18.9200   -9.8657 N   0  0  0  0  0  0  0  0  0  0  0  0
   25.5691  -20.8722   -9.1268 C   0  0  1  0  0  0  0  0  0  0  0  0
   24.1909  -20.3724   -9.1402 C   0  0  0  0  0  0  0  0  0  0  0  0
   23.5563  -20.5634  -10.4669 C   0  0  0  0  0  0  0  0  0  0  0  0
   22.1343  -20.0829  -10.4631 C   0  0  0  0  0  0  0  0  0  0  0  0
   21.5143  -20.2541  -11.8237 O   0  0  0  0  0  0  0  0  0  0  0  0
   22.0878  -20.9995  -12.6394 C   0  0  0  0  0  0  0  0  0  0  0  0
   23.4733  -21.0060   -8.0174 O   0  0  0  0  0  0  0  0  0  0  0  0
   22.1313  -20.6290   -7.7574 O   0  0  0  0  0  0  0  0  0  0  0  0
   20.3390  -19.5625  -12.0708 O   0  0  0  0  0  0  0  0  0  0  0  0
  2  3  2  0
  2  1  1  0
  4  2  1  0
  5  4  1  0
  6  5  1  0
  7  8  1  0
  7  6  1  0
  8  9  1  6
 10 11  2  0
 10  8  1  0
 12 10  1  0
 13 12  1  0
 13 21  1  0
 13 14  1  1
 15 14  1  0
 16 15  2  0
 17 16  1  0
 18 17  2  0
 18 19  1  0
 19 20  2  0
 20 15  1  0
 21 23  1  0
 22 21  2  0
 23 24  1  0
 24 25  1  1
 24 29  1  0
 26 27  1  0
 26 25  1  0
 27 28  2  0
 29 32  2  0
 29 30  1  0
 31 27  1  0
M  END
$$$$
