RFE.pdb
     RDKit          3D

 32 32  0  0  1  0  0  0  0  0999 V2000
   23.2276  -25.8614  -16.2302 N   0  0  0  0  0  0  0  0  0  0  0  0
   24.2478  -25.3571  -17.0991 C   0  0  0  0  0  0  0  0  0  0  0  0
   24.0173  -25.3231  -18.3703 N   0  0  0  0  0  0  0  0  0  0  0  0
   25.4774  -24.9097  -16.5605 N   0  0  0  0  0  0  0  0  0  0  0  0
   25.6891  -24.9709  -15.1419 C   0  0  0  0  0  0  0  0  0  0  0  0
   26.5241  -23.7829  -14.7169 C   0  0  0  0  0  0  0  0  0  0  0  0
   25.6835  -22.5208  -14.8557 C   0  0  0  0  0  0  0  0  0  0  0  0
   25.7669  -21.7973  -13.5513 C   0  0  2  0  0  0  0  0  0  0  0  0
   25.1890  -22.5447  -12.4537 N   0  0  0  0  0  0  0  0  0  0  0  0
   25.1826  -20.4206  -13.6072 C   0  0  0  0  0  0  0  0  0  0  0  0
   24.1516  -20.1824  -12.9353 O   0  0  0  0  0  0  0  0  0  0  0  0
   24.7013  -24.9058  -19.0329 N   0  0  0  0  0  0  0  0  0  0  0  0
   25.7611  -19.3891  -14.3941 C   0  0  2  0  0  0  0  0  0  0  0  0
   25.2944  -18.0449  -14.5045 C   0  0  0  0  0  0  0  0  0  0  0  0
   26.3942  -16.9804  -14.4820 C   0  0  0  0  0  0  0  0  0  0  0  0
   27.2775  -17.1610  -15.6372 C   0  0  0  0  0  0  0  0  0  0  0  0
   27.1488  -16.2643  -16.6890 C   0  0  0  0  0  0  0  0  0  0  0  0
   27.9419  -16.3964  -17.8074 C   0  0  0  0  0  0  0  0  0  0  0  0
   28.8630  -17.4056  -17.8999 C   0  0  0  0  0  0  0  0  0  0  0  0
   28.9908  -18.2889  -16.8660 C   0  0  0  0  0  0  0  0  0  0  0  0
   28.1894  -18.1648  -15.7235 C   0  0  0  0  0  0  0  0  0  0  0  0
   24.2928  -17.8320  -15.5438 O   0  0  0  0  0  0  0  0  0  0  0  0
   24.3964  -18.5269  -16.6119 N   0  0  0  0  0  0  0  0  0  0  0  0
   23.2175  -16.9302  -15.4841 C   0  0  1  0  0  0  0  0  0  0  0  0
   22.2281  -16.7450  -16.5498 C   0  0  0  0  0  0  0  0  0  0  0  0
   20.8442  -16.7691  -16.0171 C   0  0  0  0  0  0  0  0  0  0  0  0
   20.4917  -18.1263  -15.4817 C   0  0  0  0  0  0  0  0  0  0  0  0
   19.0540  -18.1633  -15.0385 O   0  0  0  0  0  0  0  0  0  0  0  0
   18.3993  -17.1055  -15.0841 C   0  0  0  0  0  0  0  0  0  0  0  0
   22.5841  -15.5153  -17.2834 O   0  0  0  0  0  0  0  0  0  0  0  0
   22.0251  -15.2931  -18.5675 O   0  0  0  0  0  0  0  0  0  0  0  0
   18.5598  -19.3844  -14.6078 O   0  0  0  0  0  0  0  0  0  0  0  0
  2  3  2  0
  2  1  1  0
  4  2  1  0
  5  4  1  0
  6  5  1  0
  7  8  1  0
  7  6  1  0
  8  9  1  1
 10 11  2  0
 10  8  1  0
 12 10  1  0
 13 12  1  0
 13 21  1  0
 13 14  1  1
 15 14  1  0
 16 15  2  0
 17 16  1  0
 18 17  2  0
 18 19  1  0
 19 20  2  0
 20 15  1  0
 21 23  1  0
 22 21  2  0
 23 24  1  0
 24 25  1  6
 24 29  1  0
 26 27  1  0
 26 25  1  0
 27 28  2  0
 29 32  2  0
 29 30  1  0
 31 27  1  0
M  END
$$$$
