RFE.pdb
     RDKit          3D

 32 32  0  0  1  0  0  0  0  0999 V2000
   25.6999  -15.4225  -16.5387 N   0  0  0  0  0  0  0  0  0  0  0  0
   25.2165  -16.4581  -17.4012 C   0  0  0  0  0  0  0  0  0  0  0  0
   24.0440  -16.3277  -17.9287 N   0  0  0  0  0  0  0  0  0  0  0  0
   26.0189  -17.5946  -17.6595 N   0  0  0  0  0  0  0  0  0  0  0  0
   27.3107  -17.7001  -17.0423 C   0  0  0  0  0  0  0  0  0  0  0  0
   27.9651  -18.9898  -17.4869 C   0  0  0  0  0  0  0  0  0  0  0  0
   27.1211  -20.1592  -16.9981 C   0  0  0  0  0  0  0  0  0  0  0  0
   27.8642  -20.7880  -15.8648 C   0  0  2  0  0  0  0  0  0  0  0  0
   28.6402  -21.9417  -16.2702 N   0  0  0  0  0  0  0  0  0  0  0  0
   26.9814  -21.1360  -14.7075 C   0  0  0  0  0  0  0  0  0  0  0  0
   26.3795  -22.2353  -14.7257 O   0  0  0  0  0  0  0  0  0  0  0  0
   23.6643  -17.0387  -18.5854 N   0  0  0  0  0  0  0  0  0  0  0  0
   26.8111  -20.2610  -13.6015 C   0  0  2  0  0  0  0  0  0  0  0  0
   25.9347  -20.4582  -12.4924 C   0  0  0  0  0  0  0  0  0  0  0  0
   26.5217  -20.0669  -11.1339 C   0  0  0  0  0  0  0  0  0  0  0  0
   27.8618  -20.6425  -10.9927 C   0  0  0  0  0  0  0  0  0  0  0  0
   28.9020  -20.0183  -11.6674 C   0  0  0  0  0  0  0  0  0  0  0  0
   30.1798  -20.5260  -11.5837 C   0  0  0  0  0  0  0  0  0  0  0  0
   30.4434  -21.6453  -10.8400 C   0  0  0  0  0  0  0  0  0  0  0  0
   29.4211  -22.2608  -10.1757 C   0  0  0  0  0  0  0  0  0  0  0  0
   28.1173  -21.7539  -10.2535 C   0  0  0  0  0  0  0  0  0  0  0  0
   24.5716  -19.9821  -12.7018 O   0  0  0  0  0  0  0  0  0  0  0  0
   24.4252  -18.8623  -13.3010 N   0  0  0  0  0  0  0  0  0  0  0  0
   23.3955  -20.6400  -12.3056 C   0  0  1  0  0  0  0  0  0  0  0  0
   22.0954  -20.4877  -12.9658 C   0  0  0  0  0  0  0  0  0  0  0  0
   22.0612  -21.1953  -14.2687 C   0  0  0  0  0  0  0  0  0  0  0  0
   20.7206  -21.0538  -14.9287 C   0  0  0  0  0  0  0  0  0  0  0  0
   20.7162  -21.7369  -16.2698 O   0  0  0  0  0  0  0  0  0  0  0  0
   21.7389  -22.3572  -16.6147 C   0  0  0  0  0  0  0  0  0  0  0  0
   21.0545  -20.9089  -12.0088 O   0  0  0  0  0  0  0  0  0  0  0  0
   19.7039  -20.5589  -12.2620 O   0  0  0  0  0  0  0  0  0  0  0  0
   19.5626  -21.6238  -17.0294 O   0  0  0  0  0  0  0  0  0  0  0  0
  2  3  2  0
  2  1  1  0
  4  2  1  0
  5  4  1  0
  6  5  1  0
  7  8  1  0
  7  6  1  0
  8  9  1  6
 10 11  2  0
 10  8  1  0
 12 10  1  0
 13 12  1  0
 13 21  1  0
 13 14  1  1
 15 14  1  0
 16 15  2  0
 17 16  1  0
 18 17  2  0
 18 19  1  0
 19 20  2  0
 20 15  1  0
 21 23  1  0
 22 21  2  0
 23 24  1  0
 24 25  1  1
 24 29  1  0
 26 27  1  0
 26 25  1  0
 27 28  2  0
 29 32  2  0
 29 30  1  0
 31 27  1  0
M  END
$$$$
