RFE.pdb
     RDKit          3D

 32 32  0  0  1  0  0  0  0  0999 V2000
   16.6692  -15.5956  -16.7053 N   0  0  0  0  0  0  0  0  0  0  0  0
   17.4614  -14.5012  -16.2312 C   0  0  0  0  0  0  0  0  0  0  0  0
   17.4509  -14.2308  -14.9676 N   0  0  0  0  0  0  0  0  0  0  0  0
   18.2337  -13.7413  -17.1414 N   0  0  0  0  0  0  0  0  0  0  0  0
   17.6759  -13.3896  -18.4166 C   0  0  0  0  0  0  0  0  0  0  0  0
   18.1929  -14.3526  -19.4628 C   0  0  0  0  0  0  0  0  0  0  0  0
   19.4819  -13.7917  -20.0480 C   0  0  0  0  0  0  0  0  0  0  0  0
   20.6092  -14.5359  -19.4099 C   0  0  2  0  0  0  0  0  0  0  0  0
   20.2127  -15.8327  -18.9013 N   0  0  0  0  0  0  0  0  0  0  0  0
   21.3005  -13.7480  -18.3418 C   0  0  0  0  0  0  0  0  0  0  0  0
   20.7545  -13.6606  -17.2169 O   0  0  0  0  0  0  0  0  0  0  0  0
   18.0451  -13.4753  -14.5712 N   0  0  0  0  0  0  0  0  0  0  0  0
   22.5462  -13.1040  -18.5689 C   0  0  1  0  0  0  0  0  0  0  0  0
   23.2361  -12.2485  -17.6584 C   0  0  0  0  0  0  0  0  0  0  0  0
   24.7617  -12.2821  -17.7777 C   0  0  0  0  0  0  0  0  0  0  0  0
   25.3533  -11.3880  -16.7788 C   0  0  0  0  0  0  0  0  0  0  0  0
   25.7143  -10.1132  -17.1932 C   0  0  0  0  0  0  0  0  0  0  0  0
   26.2899   -9.2362  -16.3005 C   0  0  0  0  0  0  0  0  0  0  0  0
   26.5139   -9.6036  -15.0004 C   0  0  0  0  0  0  0  0  0  0  0  0
   26.1595  -10.8576  -14.5911 C   0  0  0  0  0  0  0  0  0  0  0  0
   25.5736  -11.7584  -15.4900 C   0  0  0  0  0  0  0  0  0  0  0  0
   22.6853  -10.9016  -17.5529 O   0  0  0  0  0  0  0  0  0  0  0  0
   22.3846  -10.3020  -18.6413 N   0  0  0  0  0  0  0  0  0  0  0  0
   22.4516  -10.1943  -16.3620 C   0  0  1  0  0  0  0  0  0  0  0  0
   21.8292   -8.8688  -16.2911 C   0  0  0  0  0  0  0  0  0  0  0  0
   20.3567   -8.9507  -16.4474 C   0  0  0  0  0  0  0  0  0  0  0  0
   19.7189   -7.6000  -16.3011 C   0  0  0  0  0  0  0  0  0  0  0  0
   18.2269   -7.6979  -16.4723 O   0  0  0  0  0  0  0  0  0  0  0  0
   17.6978   -8.8201  -16.3703 C   0  0  0  0  0  0  0  0  0  0  0  0
   22.2811   -8.2275  -15.0415 O   0  0  0  0  0  0  0  0  0  0  0  0
   22.2386   -6.8139  -14.9385 O   0  0  0  0  0  0  0  0  0  0  0  0
   17.5451   -6.5199  -16.7337 O   0  0  0  0  0  0  0  0  0  0  0  0
  2  3  2  0
  2  1  1  0
  4  2  1  0
  5  4  1  0
  6  5  1  0
  7  8  1  0
  7  6  1  0
  8  9  1  1
 10 11  2  0
 10  8  1  0
 12 10  1  0
 13 12  1  0
 13 21  1  0
 13 14  1  6
 15 14  1  0
 16 15  2  0
 17 16  1  0
 18 17  2  0
 18 19  1  0
 19 20  2  0
 20 15  1  0
 21 23  1  0
 22 21  2  0
 23 24  1  0
 24 25  1  6
 24 29  1  0
 26 27  1  0
 26 25  1  0
 27 28  2  0
 29 32  2  0
 29 30  1  0
 31 27  1  0
M  END
$$$$
