RFE.pdb
     RDKit          3D

 32 32  0  0  1  0  0  0  0  0999 V2000
   16.3945  -23.7901   -8.2095 N   0  0  0  0  0  0  0  0  0  0  0  0
   17.3920  -24.7326   -7.8012 C   0  0  0  0  0  0  0  0  0  0  0  0
   17.2538  -25.9699   -8.1479 N   0  0  0  0  0  0  0  0  0  0  0  0
   18.4998  -24.3013   -7.0337 N   0  0  0  0  0  0  0  0  0  0  0  0
   18.6418  -22.9069   -6.7231 C   0  0  0  0  0  0  0  0  0  0  0  0
   20.0662  -22.4820   -7.0053 C   0  0  0  0  0  0  0  0  0  0  0  0
   20.0883  -21.6754   -8.2966 C   0  0  0  0  0  0  0  0  0  0  0  0
   21.0360  -22.3641   -9.2235 C   0  0  2  0  0  0  0  0  0  0  0  0
   21.8773  -23.3333   -8.5522 N   0  0  0  0  0  0  0  0  0  0  0  0
   21.8730  -21.4119  -10.0187 C   0  0  0  0  0  0  0  0  0  0  0  0
   21.3017  -20.4653  -10.6092 O   0  0  0  0  0  0  0  0  0  0  0  0
   17.9349  -26.6953   -7.8462 N   0  0  0  0  0  0  0  0  0  0  0  0
   23.2829  -21.5529  -10.1196 C   0  0  2  0  0  0  0  0  0  0  0  0
   24.1449  -20.8363  -11.0031 C   0  0  0  0  0  0  0  0  0  0  0  0
   25.6145  -20.8007  -10.5761 C   0  0  0  0  0  0  0  0  0  0  0  0
   26.3981  -20.0631  -11.5706 C   0  0  0  0  0  0  0  0  0  0  0  0
   27.1822  -20.8023  -12.4456 C   0  0  0  0  0  0  0  0  0  0  0  0
   27.9523  -20.1604  -13.3902 C   0  0  0  0  0  0  0  0  0  0  0  0
   27.9573  -18.7940  -13.4815 C   0  0  0  0  0  0  0  0  0  0  0  0
   27.1866  -18.0651  -12.6212 C   0  0  0  0  0  0  0  0  0  0  0  0
   26.3994  -18.7068  -11.6562 C   0  0  0  0  0  0  0  0  0  0  0  0
   23.9519  -21.1364  -12.4177 O   0  0  0  0  0  0  0  0  0  0  0  0
   23.9055  -22.3682  -12.7568 N   0  0  0  0  0  0  0  0  0  0  0  0
   23.8113  -20.1957  -13.4513 C   0  0  1  0  0  0  0  0  0  0  0  0
   23.3442  -20.5114  -14.8045 C   0  0  0  0  0  0  0  0  0  0  0  0
   21.9158  -20.9104  -14.8073 C   0  0  0  0  0  0  0  0  0  0  0  0
   21.4360  -21.2026  -16.1991 C   0  0  0  0  0  0  0  0  0  0  0  0
   20.0513  -21.7914  -16.1689 O   0  0  0  0  0  0  0  0  0  0  0  0
   19.1939  -21.3120  -16.9335 C   0  0  0  0  0  0  0  0  0  0  0  0
   23.6633  -19.3593  -15.6693 O   0  0  0  0  0  0  0  0  0  0  0  0
   24.1881  -19.5954  -16.9653 O   0  0  0  0  0  0  0  0  0  0  0  0
   19.8306  -22.8343  -15.2832 O   0  0  0  0  0  0  0  0  0  0  0  0
  2  3  2  0
  2  1  1  0
  4  2  1  0
  5  4  1  0
  6  5  1  0
  7  8  1  0
  7  6  1  0
  8  9  1  1
 10 11  2  0
 10  8  1  0
 12 10  1  0
 13 12  1  0
 13 21  1  0
 13 14  1  1
 15 14  1  0
 16 15  2  0
 17 16  1  0
 18 17  2  0
 18 19  1  0
 19 20  2  0
 20 15  1  0
 21 23  1  0
 22 21  2  0
 23 24  1  0
 24 25  1  6
 24 29  1  0
 26 27  1  0
 26 25  1  0
 27 28  2  0
 29 32  2  0
 29 30  1  0
 31 27  1  0
M  END
$$$$
