MGC.pdb
     RDKit          3D

 19 18  0  0  1  0  0  0  0  0999 V2000
   26.9760  -19.2652  -13.6466 C   0  0  0  0  0  0  0  0  0  0  0  0
   27.1871  -17.5930  -14.3304 S   0  0  0  0  0  0  0  0  0  0  0  0
   25.6191  -17.1238  -15.1011 C   0  0  0  0  0  0  0  0  0  0  0  0
   25.7196  -15.6726  -15.5504 C   0  0  0  0  0  0  0  0  0  0  0  0
   24.4338  -15.3244  -16.3129 C   0  0  2  0  0  0  0  0  0  0  0  0
   24.1851  -16.2916  -17.3375 N   0  0  0  0  0  0  0  0  0  0  0  0
   24.6743  -14.0095  -16.9436 C   0  0  0  0  0  0  0  0  0  0  0  0
   25.0261  -13.9681  -18.1457 O   0  0  0  0  0  0  0  0  0  0  0  0
   24.5196  -12.8104  -16.2339 N   0  0  0  0  0  0  0  0  0  0  0  0
   24.8238  -11.5655  -16.8742 C   0  0  0  0  0  0  0  0  0  0  0  0
   23.5997  -10.9991  -17.4553 C   0  0  0  0  0  0  0  0  0  0  0  0
   23.5894   -9.8154  -17.8480 O   0  0  0  0  0  0  0  0  0  0  0  0
   22.4175  -11.7861  -17.5777 N   0  0  0  0  0  0  0  0  0  0  0  0
   21.3197  -11.2498  -18.3305 C   0  0  1  0  0  0  0  0  0  0  0  0
   20.6023  -12.4020  -19.0179 C   0  0  0  0  0  0  0  0  0  0  0  0
   21.7661  -13.1821  -20.1687 S   0  0  0  0  0  0  0  0  0  0  0  0
   20.4284  -10.4855  -17.4557 C   0  0  0  0  0  0  0  0  0  0  0  0
   19.5297   -9.5365  -17.9273 O   0  0  0  0  0  0  0  0  0  0  0  0
   20.4584  -10.6775  -16.2223 O   0  0  0  0  0  0  0  0  0  0  0  0
  2  1  1  0
  3  2  1  0
  4  3  1  0
  5  4  1  0
  5  6  1  6
  7  5  1  0
  7  8  2  0
  9  7  1  0
 10  9  1  0
 10 11  1  0
 11 13  1  0
 11 12  2  0
 13 14  1  0
 14 15  1  1
 15 16  1  0
 17 14  1  0
 17 18  1  0
 19 17  2  0
M  END
$$$$
