MGC.pdb
     RDKit          3D

 19 18  0  0  1  0  0  0  0  0999 V2000
   26.4255  -17.3374  -15.1005 C   0  0  0  0  0  0  0  0  0  0  0  0
   26.1757  -15.5622  -15.4076 S   0  0  0  0  0  0  0  0  0  0  0  0
   24.5100  -15.1456  -14.8376 C   0  0  0  0  0  0  0  0  0  0  0  0
   24.3008  -13.6484  -15.0178 C   0  0  0  0  0  0  0  0  0  0  0  0
   23.0460  -13.4474  -15.8787 C   0  0  2  0  0  0  0  0  0  0  0  0
   22.9947  -14.4267  -16.9204 N   0  0  0  0  0  0  0  0  0  0  0  0
   23.1766  -12.1069  -16.4873 C   0  0  0  0  0  0  0  0  0  0  0  0
   23.6481  -12.0089  -17.6443 O   0  0  0  0  0  0  0  0  0  0  0  0
   22.7878  -10.9450  -15.8059 N   0  0  0  0  0  0  0  0  0  0  0  0
   22.9312   -9.6700  -16.4432 C   0  0  0  0  0  0  0  0  0  0  0  0
   22.4106   -8.6177  -15.5609 C   0  0  0  0  0  0  0  0  0  0  0  0
   21.7968   -8.9277  -14.5204 O   0  0  0  0  0  0  0  0  0  0  0  0
   22.5973   -7.2405  -15.8778 N   0  0  0  0  0  0  0  0  0  0  0  0
   22.0966   -6.2583  -14.9590 C   0  0  1  0  0  0  0  0  0  0  0  0
   22.6726   -4.9040  -15.3448 C   0  0  0  0  0  0  0  0  0  0  0  0
   24.4765   -5.0644  -15.4310 S   0  0  0  0  0  0  0  0  0  0  0  0
   20.6324   -6.2587  -14.9622 C   0  0  0  0  0  0  0  0  0  0  0  0
   19.8691   -5.9309  -13.8484 O   0  0  0  0  0  0  0  0  0  0  0  0
   20.0163   -6.5649  -16.0043 O   0  0  0  0  0  0  0  0  0  0  0  0
  2  1  1  0
  3  2  1  0
  4  3  1  0
  5  4  1  0
  5  6  1  6
  7  5  1  0
  7  8  2  0
  9  7  1  0
 10  9  1  0
 10 11  1  0
 11 13  1  0
 11 12  2  0
 13 14  1  0
 14 15  1  6
 15 16  1  0
 17 14  1  0
 17 18  1  0
 19 17  2  0
M  END
$$$$
