MGC.pdb
     RDKit          3D

 19 18  0  0  1  0  0  0  0  0999 V2000
   29.0651  -19.9815  -17.0183 C   0  0  0  0  0  0  0  0  0  0  0  0
   28.9248  -21.7696  -17.3203 S   0  0  0  0  0  0  0  0  0  0  0  0
   28.2054  -22.5123  -15.8359 C   0  0  0  0  0  0  0  0  0  0  0  0
   28.1503  -24.0211  -16.0316 C   0  0  0  0  0  0  0  0  0  0  0  0
   26.9967  -24.3302  -16.9958 C   0  0  2  0  0  0  0  0  0  0  0  0
   25.7466  -23.9459  -16.4158 N   0  0  0  0  0  0  0  0  0  0  0  0
   27.0050  -25.7955  -17.1889 C   0  0  0  0  0  0  0  0  0  0  0  0
   26.0906  -26.3241  -17.8635 O   0  0  0  0  0  0  0  0  0  0  0  0
   28.0065  -26.6076  -16.6384 N   0  0  0  0  0  0  0  0  0  0  0  0
   28.1232  -27.9713  -17.0615 C   0  0  0  0  0  0  0  0  0  0  0  0
   27.0813  -28.7784  -16.4135 C   0  0  0  0  0  0  0  0  0  0  0  0
   26.3539  -28.2666  -15.5392 O   0  0  0  0  0  0  0  0  0  0  0  0
   26.8883  -30.1448  -16.7708 N   0  0  0  0  0  0  0  0  0  0  0  0
   25.6817  -30.7943  -16.3443 C   0  0  1  0  0  0  0  0  0  0  0  0
   24.5028  -30.0974  -17.0069 C   0  0  0  0  0  0  0  0  0  0  0  0
   22.9804  -30.8896  -16.4221 S   0  0  0  0  0  0  0  0  0  0  0  0
   25.7323  -32.2222  -16.6643 C   0  0  0  0  0  0  0  0  0  0  0  0
   25.0701  -33.1921  -15.9218 O   0  0  0  0  0  0  0  0  0  0  0  0
   26.3959  -32.6125  -17.6474 O   0  0  0  0  0  0  0  0  0  0  0  0
  2  1  1  0
  3  2  1  0
  4  3  1  0
  5  4  1  0
  5  6  1  1
  7  5  1  0
  7  8  2  0
  9  7  1  0
 10  9  1  0
 10 11  1  0
 11 13  1  0
 11 12  2  0
 13 14  1  0
 14 15  1  6
 15 16  1  0
 17 14  1  0
 17 18  1  0
 19 17  2  0
M  END
$$$$
