MGC.pdb
     RDKit          3D

 19 18  0  0  1  0  0  0  0  0999 V2000
   27.8501  -18.6152   -3.3950 C   0  0  0  0  0  0  0  0  0  0  0  0
   28.7085  -19.9243   -4.3211 S   0  0  0  0  0  0  0  0  0  0  0  0
   29.1742  -19.2323   -5.9265 C   0  0  0  0  0  0  0  0  0  0  0  0
   27.9370  -19.1999   -6.8131 C   0  0  0  0  0  0  0  0  0  0  0  0
   27.8857  -20.5166   -7.6002 C   0  0  2  0  0  0  0  0  0  0  0  0
   28.8214  -20.4868   -8.6820 N   0  0  0  0  0  0  0  0  0  0  0  0
   26.5179  -20.6113   -8.1524 C   0  0  0  0  0  0  0  0  0  0  0  0
   25.6330  -21.1961   -7.4851 O   0  0  0  0  0  0  0  0  0  0  0  0
   26.1856  -20.0654   -9.4003 N   0  0  0  0  0  0  0  0  0  0  0  0
   25.0179  -20.5310  -10.0874 C   0  0  0  0  0  0  0  0  0  0  0  0
   25.3672  -20.8791  -11.4708 C   0  0  0  0  0  0  0  0  0  0  0  0
   26.5559  -21.1066  -11.7722 O   0  0  0  0  0  0  0  0  0  0  0  0
   24.3628  -20.9613  -12.4789 N   0  0  0  0  0  0  0  0  0  0  0  0
   24.7713  -21.2618  -13.8215 C   0  0  1  0  0  0  0  0  0  0  0  0
   25.2774  -22.6961  -13.8583 C   0  0  0  0  0  0  0  0  0  0  0  0
   23.9338  -23.7806  -13.3055 S   0  0  0  0  0  0  0  0  0  0  0  0
   23.6623  -21.0418  -14.7518 C   0  0  0  0  0  0  0  0  0  0  0  0
   22.3628  -20.7767  -14.3373 O   0  0  0  0  0  0  0  0  0  0  0  0
   23.8686  -21.0895  -15.9823 O   0  0  0  0  0  0  0  0  0  0  0  0
  2  1  1  0
  3  2  1  0
  4  3  1  0
  5  4  1  0
  5  6  1  6
  7  5  1  0
  7  8  2  0
  9  7  1  0
 10  9  1  0
 10 11  1  0
 11 13  1  0
 11 12  2  0
 13 14  1  0
 14 15  1  1
 15 16  1  0
 17 14  1  0
 17 18  1  0
 19 17  2  0
M  END
$$$$
