MGC.pdb
     RDKit          3D

 19 18  0  0  1  0  0  0  0  0999 V2000
   19.5557  -14.5537  -16.4412 C   0  0  0  0  0  0  0  0  0  0  0  0
   17.7525  -14.6598  -16.6545 S   0  0  0  0  0  0  0  0  0  0  0  0
   17.1265  -12.9688  -16.8017 C   0  0  0  0  0  0  0  0  0  0  0  0
   18.0296  -12.0497  -15.9909 C   0  0  0  0  0  0  0  0  0  0  0  0
   17.5795  -10.6039  -16.2422 C   0  0  2  0  0  0  0  0  0  0  0  0
   17.9716  -10.1808  -17.5515 N   0  0  0  0  0  0  0  0  0  0  0  0
   18.2828   -9.7754  -15.2404 C   0  0  0  0  0  0  0  0  0  0  0  0
   19.2053  -10.2904  -14.5665 O   0  0  0  0  0  0  0  0  0  0  0  0
   17.9455   -8.4318  -15.0249 N   0  0  0  0  0  0  0  0  0  0  0  0
   18.7201   -7.6462  -14.1110 C   0  0  0  0  0  0  0  0  0  0  0  0
   19.4960   -6.6467  -14.8566 C   0  0  0  0  0  0  0  0  0  0  0  0
   18.9276   -5.9188  -15.6948 O   0  0  0  0  0  0  0  0  0  0  0  0
   20.8961   -6.4956  -14.6353 N   0  0  0  0  0  0  0  0  0  0  0  0
   21.5726   -5.4086  -15.2837 C   0  0  1  0  0  0  0  0  0  0  0  0
   22.7422   -4.9825  -14.4089 C   0  0  0  0  0  0  0  0  0  0  0  0
   22.1007   -4.6122  -12.7540 S   0  0  0  0  0  0  0  0  0  0  0  0
   22.0009   -5.8047  -16.6266 C   0  0  0  0  0  0  0  0  0  0  0  0
   22.2192   -4.8957  -17.6545 O   0  0  0  0  0  0  0  0  0  0  0  0
   22.1856   -7.0121  -16.8858 O   0  0  0  0  0  0  0  0  0  0  0  0
  2  1  1  0
  3  2  1  0
  4  3  1  0
  5  4  1  0
  5  6  1  6
  7  5  1  0
  7  8  2  0
  9  7  1  0
 10  9  1  0
 10 11  1  0
 11 13  1  0
 11 12  2  0
 13 14  1  0
 14 15  1  1
 15 16  1  0
 17 14  1  0
 17 18  1  0
 19 17  2  0
M  END
$$$$
