MGC.pdb
     RDKit          3D

 19 18  0  0  1  0  0  0  0  0999 V2000
   25.6286  -19.2256  -15.5149 C   0  0  0  0  0  0  0  0  0  0  0  0
   25.3732  -17.5953  -14.7500 S   0  0  0  0  0  0  0  0  0  0  0  0
   25.3177  -16.3759  -16.0852 C   0  0  0  0  0  0  0  0  0  0  0  0
   25.1695  -14.9925  -15.4670 C   0  0  0  0  0  0  0  0  0  0  0  0
   25.1849  -13.9628  -16.6052 C   0  0  2  0  0  0  0  0  0  0  0  0
   26.4303  -14.0154  -17.3074 N   0  0  0  0  0  0  0  0  0  0  0  0
   25.0532  -12.6386  -15.9620 C   0  0  0  0  0  0  0  0  0  0  0  0
   26.0580  -12.1266  -15.4155 O   0  0  0  0  0  0  0  0  0  0  0  0
   23.8365  -11.9422  -15.9473 N   0  0  0  0  0  0  0  0  0  0  0  0
   23.7560  -10.6732  -15.2872 C   0  0  0  0  0  0  0  0  0  0  0  0
   22.4299  -10.0842  -15.5135 C   0  0  0  0  0  0  0  0  0  0  0  0
   21.6514  -10.6059  -16.3365 O   0  0  0  0  0  0  0  0  0  0  0  0
   22.0173   -8.9193  -14.8030 N   0  0  0  0  0  0  0  0  0  0  0  0
   20.6978   -8.4089  -15.0436 C   0  0  1  0  0  0  0  0  0  0  0  0
   19.8305   -8.7360  -13.8372 C   0  0  0  0  0  0  0  0  0  0  0  0
   18.2437   -7.8822  -14.0376 S   0  0  0  0  0  0  0  0  0  0  0  0
   20.7502   -6.9710  -15.3144 C   0  0  0  0  0  0  0  0  0  0  0  0
   19.8904   -6.3316  -16.1991 O   0  0  0  0  0  0  0  0  0  0  0  0
   21.6000   -6.2631  -14.7348 O   0  0  0  0  0  0  0  0  0  0  0  0
  2  1  1  0
  3  2  1  0
  4  3  1  0
  5  4  1  0
  5  6  1  1
  7  5  1  0
  7  8  2  0
  9  7  1  0
 10  9  1  0
 10 11  1  0
 11 13  1  0
 11 12  2  0
 13 14  1  0
 14 15  1  1
 15 16  1  0
 17 14  1  0
 17 18  1  0
 19 17  2  0
M  END
$$$$
