MGC.pdb
     RDKit          3D

 19 18  0  0  1  0  0  0  0  0999 V2000
   29.1284  -20.0070   -5.0929 C   0  0  0  0  0  0  0  0  0  0  0  0
   27.7538  -18.9655   -5.6706 S   0  0  0  0  0  0  0  0  0  0  0  0
   26.5368  -20.0587   -6.4432 C   0  0  0  0  0  0  0  0  0  0  0  0
   27.0585  -20.4661   -7.8141 C   0  0  0  0  0  0  0  0  0  0  0  0
   26.0235  -20.0322   -8.8612 C   0  0  2  0  0  0  0  0  0  0  0  0
   24.8541  -20.8520   -8.7749 N   0  0  0  0  0  0  0  0  0  0  0  0
   26.6598  -20.2426  -10.1786 C   0  0  0  0  0  0  0  0  0  0  0  0
   27.5720  -19.4646  -10.5432 O   0  0  0  0  0  0  0  0  0  0  0  0
   26.2703  -21.2871  -11.0287 N   0  0  0  0  0  0  0  0  0  0  0  0
   26.8305  -21.3741  -12.3444 C   0  0  0  0  0  0  0  0  0  0  0  0
   25.7693  -21.6836  -13.3114 C   0  0  0  0  0  0  0  0  0  0  0  0
   26.0185  -21.6644  -14.5334 O   0  0  0  0  0  0  0  0  0  0  0  0
   24.4525  -22.0071  -12.8719 N   0  0  0  0  0  0  0  0  0  0  0  0
   23.4361  -22.2104  -13.8645 C   0  0  1  0  0  0  0  0  0  0  0  0
   22.8461  -23.5989  -13.6683 C   0  0  0  0  0  0  0  0  0  0  0  0
   24.2170  -24.7755  -13.5150 S   0  0  0  0  0  0  0  0  0  0  0  0
   22.4205  -21.1594  -13.7751 C   0  0  0  0  0  0  0  0  0  0  0  0
   21.3160  -21.0954  -14.6157 O   0  0  0  0  0  0  0  0  0  0  0  0
   22.5297  -20.2659  -12.9098 O   0  0  0  0  0  0  0  0  0  0  0  0
  2  1  1  0
  3  2  1  0
  4  3  1  0
  5  4  1  0
  5  6  1  6
  7  5  1  0
  7  8  2  0
  9  7  1  0
 10  9  1  0
 10 11  1  0
 11 13  1  0
 11 12  2  0
 13 14  1  0
 14 15  1  1
 15 16  1  0
 17 14  1  0
 17 18  1  0
 19 17  2  0
M  END
$$$$
