MGC.pdb
     RDKit          3D

 19 18  0  0  1  0  0  0  0  0999 V2000
   28.2623  -19.0075   -4.4671 C   0  0  0  0  0  0  0  0  0  0  0  0
   28.2776  -19.4358   -6.2347 S   0  0  0  0  0  0  0  0  0  0  0  0
   26.9373  -20.6184   -6.5145 C   0  0  0  0  0  0  0  0  0  0  0  0
   27.0103  -21.0948   -7.9587 C   0  0  0  0  0  0  0  0  0  0  0  0
   26.6020  -19.9238   -8.8632 C   0  0  2  0  0  0  0  0  0  0  0  0
   25.1891  -19.7100   -8.7934 N   0  0  0  0  0  0  0  0  0  0  0  0
   26.9583  -20.3257  -10.2402 C   0  0  0  0  0  0  0  0  0  0  0  0
   27.9045  -21.1291  -10.4124 O   0  0  0  0  0  0  0  0  0  0  0  0
   26.2671  -19.8327  -11.3558 N   0  0  0  0  0  0  0  0  0  0  0  0
   26.7581  -20.1125  -12.6723 C   0  0  0  0  0  0  0  0  0  0  0  0
   25.7132  -20.7860  -13.4543 C   0  0  0  0  0  0  0  0  0  0  0  0
   25.8638  -20.9475  -14.6817 O   0  0  0  0  0  0  0  0  0  0  0  0
   24.5237  -21.2602  -12.8279 N   0  0  0  0  0  0  0  0  0  0  0  0
   23.5013  -21.8320  -13.6570 C   0  0  1  0  0  0  0  0  0  0  0  0
   22.7487  -22.8720  -12.8406 C   0  0  0  0  0  0  0  0  0  0  0  0
   21.2965  -23.3914  -13.7937 S   0  0  0  0  0  0  0  0  0  0  0  0
   22.6167  -20.7837  -14.1693 C   0  0  0  0  0  0  0  0  0  0  0  0
   21.9623  -20.8710  -15.3920 O   0  0  0  0  0  0  0  0  0  0  0  0
   22.4248  -19.7515  -13.4935 O   0  0  0  0  0  0  0  0  0  0  0  0
  2  1  1  0
  3  2  1  0
  4  3  1  0
  5  4  1  0
  5  6  1  6
  7  5  1  0
  7  8  2  0
  9  7  1  0
 10  9  1  0
 10 11  1  0
 11 13  1  0
 11 12  2  0
 13 14  1  0
 14 15  1  1
 15 16  1  0
 17 14  1  0
 17 18  1  0
 19 17  2  0
M  END
$$$$
