MGC.pdb
     RDKit          3D

 19 18  0  0  1  0  0  0  0  0999 V2000
   29.5961  -21.1233   -7.7494 C   0  0  0  0  0  0  0  0  0  0  0  0
   30.6968  -21.1687   -9.1967 S   0  0  0  0  0  0  0  0  0  0  0  0
   29.7193  -21.7611  -10.5991 C   0  0  0  0  0  0  0  0  0  0  0  0
   28.3241  -21.1597  -10.5007 C   0  0  0  0  0  0  0  0  0  0  0  0
   27.5221  -21.6257  -11.7237 C   0  0  2  0  0  0  0  0  0  0  0  0
   28.1891  -21.2456  -12.9309 N   0  0  0  0  0  0  0  0  0  0  0  0
   26.2227  -20.9248  -11.6532 C   0  0  0  0  0  0  0  0  0  0  0  0
   26.0996  -19.8156  -12.2235 O   0  0  0  0  0  0  0  0  0  0  0  0
   25.1271  -21.4670  -10.9669 N   0  0  0  0  0  0  0  0  0  0  0  0
   23.9133  -20.7129  -10.8644 C   0  0  0  0  0  0  0  0  0  0  0  0
   22.9922  -21.1153  -11.9351 C   0  0  0  0  0  0  0  0  0  0  0  0
   23.3979  -21.8465  -12.8605 O   0  0  0  0  0  0  0  0  0  0  0  0
   21.6347  -20.6805  -11.9323 N   0  0  0  0  0  0  0  0  0  0  0  0
   20.7650  -21.1629  -12.9670 C   0  0  1  0  0  0  0  0  0  0  0  0
   19.3756  -21.3501  -12.3760 C   0  0  0  0  0  0  0  0  0  0  0  0
   19.5283  -22.3918  -10.8999 S   0  0  0  0  0  0  0  0  0  0  0  0
   20.7639  -20.2386  -14.1025 C   0  0  0  0  0  0  0  0  0  0  0  0
   20.4168  -20.6193  -15.3930 O   0  0  0  0  0  0  0  0  0  0  0  0
   21.0868  -19.0450  -13.9287 O   0  0  0  0  0  0  0  0  0  0  0  0
  2  1  1  0
  3  2  1  0
  4  3  1  0
  5  4  1  0
  5  6  1  6
  7  5  1  0
  7  8  2  0
  9  7  1  0
 10  9  1  0
 10 11  1  0
 11 13  1  0
 11 12  2  0
 13 14  1  0
 14 15  1  1
 15 16  1  0
 17 14  1  0
 17 18  1  0
 19 17  2  0
M  END
$$$$
