YEW.pdb
     RDKit          3D

 36 38  0  0  1  0  0  0  0  0999 V2000
    8.7411  -11.9309   17.2858 O   0  0  0  0  0  0  0  0  0  0  0  0
    8.3250  -12.6673   18.4044 C   0  0  0  0  0  0  0  0  0  0  0  0
    9.2661  -13.3055   19.1970 C   0  0  0  0  0  0  0  0  0  0  0  0
    8.8921  -14.0511   20.3233 C   0  0  0  0  0  0  0  0  0  0  0  0
    7.5551  -14.1267   20.6147 C   0  0  0  0  0  0  0  0  0  0  0  0
    7.0703  -14.8812   21.7828 C   0  0  0  0  0  0  0  0  0  0  0  0
    7.2585  -16.3759   21.5492 C   0  0  2  0  0  0  0  0  0  0  0  0
    5.9773  -16.9918   21.4445 N   0  0  0  0  0  0  0  0  0  0  0  0
    8.1738  -16.9437   22.5317 C   0  0  0  0  0  0  0  0  0  0  0  0
    7.6636  -17.5500   23.5204 O   0  0  0  0  0  0  0  0  0  0  0  0
    6.6101  -13.4897   19.8239 C   0  0  0  0  0  0  0  0  0  0  0  0
    6.9889  -12.7537   18.7100 C   0  0  0  0  0  0  0  0  0  0  0  0
    9.5903  -16.8942   22.5057 N   0  0  0  0  0  0  0  0  0  0  0  0
   10.4006  -17.6661   23.4106 C   0  0  1  0  0  0  0  0  0  0  0  0
   11.7127  -18.0782   22.8478 C   0  0  0  0  0  0  0  0  0  0  0  0
   12.5894  -18.8471   23.8068 C   0  0  0  0  0  0  0  0  0  0  0  0
   13.8264  -19.2133   23.0867 C   0  0  0  0  0  0  0  0  0  0  0  0
   14.2240  -20.3950   23.1112 O   0  0  0  0  0  0  0  0  0  0  0  0
   10.6856  -16.8230   24.6246 C   0  0  0  0  0  0  0  0  0  0  0  0
   11.3816  -15.7549   24.5194 O   0  0  0  0  0  0  0  0  0  0  0  0
   14.5348  -18.2642   22.3932 O   0  0  0  0  0  0  0  0  0  0  0  0
   10.2281  -17.1250   25.9164 N   0  0  0  0  0  0  0  0  0  0  0  0
   10.8716  -16.6072   27.1449 C   0  0  1  0  0  0  0  0  0  0  0  0
   10.2257  -15.3437   27.5636 C   0  0  0  0  0  0  0  0  0  0  0  0
    8.8016  -15.2846   27.2246 C   0  0  0  0  0  0  0  0  0  0  0  0
    7.9721  -16.3734   26.9466 C   0  0  0  0  0  0  0  0  0  0  0  0
    6.7337  -15.9693   26.6512 N   0  0  0  0  0  0  0  0  0  0  0  0
    6.7290  -14.6345   26.7296 C   0  0  0  0  0  0  0  0  0  0  0  0
    5.7003  -13.7302   26.5378 C   0  0  0  0  0  0  0  0  0  0  0  0
    5.8574  -12.3745   26.6796 C   0  0  0  0  0  0  0  0  0  0  0  0
    7.1254  -11.9403   27.0320 C   0  0  0  0  0  0  0  0  0  0  0  0
    8.1641  -12.8154   27.2276 C   0  0  0  0  0  0  0  0  0  0  0  0
    7.9854  -14.1719   27.0805 C   0  0  0  0  0  0  0  0  0  0  0  0
   10.9403  -17.6538   28.1563 C   0  0  0  0  0  0  0  0  0  0  0  0
   11.6246  -17.4698   29.3784 O   0  0  0  0  0  0  0  0  0  0  0  0
   10.4115  -18.7972   28.0499 O   0  0  0  0  0  0  0  0  0  0  0  0
  2  1  1  0
  3  2  2  0
  4  3  1  0
  5  4  2  0
  6  5  1  0
  7  8  1  1
  7  6  1  0
  9  7  1  0
 10  9  2  0
 11  5  1  0
 11 12  2  0
 12  2  1  0
 13  9  1  0
 14 13  1  0
 14 15  1  6
 15 16  1  0
 16 17  1  0
 17 18  2  0
 17 21  1  0
 19 20  2  0
 19 14  1  0
 22 19  1  0
 23 22  1  0
 23 24  1  1
 24 25  1  0
 25 26  2  0
 25 33  1  0
 26 27  1  0
 27 28  1  0
 28 29  2  0
 29 30  1  0
 31 30  2  0
 32 31  1  0
 33 32  2  0
 33 28  1  0
 34 35  1  0
 34 23  1  0
 36 34  2  0
M  END
$$$$
