YEW.pdb
     RDKit          3D

 36 38  0  0  1  0  0  0  0  0999 V2000
    0.9815  -23.6272   25.1439 O   0  0  0  0  0  0  0  0  0  0  0  0
    2.1116  -22.8213   24.9439 C   0  0  0  0  0  0  0  0  0  0  0  0
    2.1313  -21.9108   23.8990 C   0  0  0  0  0  0  0  0  0  0  0  0
    3.2406  -21.0870   23.6648 C   0  0  0  0  0  0  0  0  0  0  0  0
    4.3111  -21.2142   24.5111 C   0  0  0  0  0  0  0  0  0  0  0  0
    5.5167  -20.3847   24.3463 C   0  0  0  0  0  0  0  0  0  0  0  0
    6.2644  -20.8013   23.0848 C   0  0  2  0  0  0  0  0  0  0  0  0
    6.3517  -22.2235   23.0483 N   0  0  0  0  0  0  0  0  0  0  0  0
    7.5194  -20.0700   22.9597 C   0  0  0  0  0  0  0  0  0  0  0  0
    8.4714  -20.4128   23.7224 O   0  0  0  0  0  0  0  0  0  0  0  0
    4.2955  -22.1241   25.5579 C   0  0  0  0  0  0  0  0  0  0  0  0
    3.1930  -22.9366   25.7825 C   0  0  0  0  0  0  0  0  0  0  0  0
    7.7997  -19.0039   22.0685 N   0  0  0  0  0  0  0  0  0  0  0  0
    9.1112  -18.4212   21.9593 C   0  0  1  0  0  0  0  0  0  0  0  0
    9.4225  -17.8781   20.6116 C   0  0  0  0  0  0  0  0  0  0  0  0
   10.8396  -17.3828   20.4505 C   0  0  0  0  0  0  0  0  0  0  0  0
   11.0062  -16.9519   19.0472 C   0  0  0  0  0  0  0  0  0  0  0  0
    9.9968  -16.7389   18.3465 O   0  0  0  0  0  0  0  0  0  0  0  0
    9.1998  -17.2739   22.9296 C   0  0  0  0  0  0  0  0  0  0  0  0
    8.6079  -16.1684   22.6772 O   0  0  0  0  0  0  0  0  0  0  0  0
   12.2600  -16.7839   18.5149 O   0  0  0  0  0  0  0  0  0  0  0  0
    9.9067  -17.3216   24.1409 N   0  0  0  0  0  0  0  0  0  0  0  0
   10.3535  -16.1109   24.8658 C   0  0  1  0  0  0  0  0  0  0  0  0
    9.6364  -15.9960   26.1548 C   0  0  0  0  0  0  0  0  0  0  0  0
    8.2816  -15.4561   26.0144 C   0  0  0  0  0  0  0  0  0  0  0  0
    7.1104  -16.1969   25.8400 C   0  0  0  0  0  0  0  0  0  0  0  0
    6.0491  -15.3947   25.7213 N   0  0  0  0  0  0  0  0  0  0  0  0
    6.4965  -14.1382   25.8149 C   0  0  0  0  0  0  0  0  0  0  0  0
    5.8099  -12.9383   25.7759 C   0  0  0  0  0  0  0  0  0  0  0  0
    6.4235  -11.7184   25.9105 C   0  0  0  0  0  0  0  0  0  0  0  0
    7.7973  -11.7426   26.0912 C   0  0  0  0  0  0  0  0  0  0  0  0
    8.5034  -12.9184   26.1328 C   0  0  0  0  0  0  0  0  0  0  0  0
    7.8687  -14.1317   25.9961 C   0  0  0  0  0  0  0  0  0  0  0  0
   11.8083  -16.0773   24.9404 C   0  0  0  0  0  0  0  0  0  0  0  0
   12.5084  -14.9361   25.3912 O   0  0  0  0  0  0  0  0  0  0  0  0
   12.5704  -17.0342   24.6213 O   0  0  0  0  0  0  0  0  0  0  0  0
  2  1  1  0
  3  2  2  0
  4  3  1  0
  5  4  2  0
  6  5  1  0
  7  8  1  1
  7  6  1  0
  9  7  1  0
 10  9  2  0
 11  5  1  0
 11 12  2  0
 12  2  1  0
 13  9  1  0
 14 13  1  0
 14 15  1  6
 15 16  1  0
 16 17  1  0
 17 18  2  0
 17 21  1  0
 19 20  2  0
 19 14  1  0
 22 19  1  0
 23 22  1  0
 23 24  1  1
 24 25  1  0
 25 26  2  0
 25 33  1  0
 26 27  1  0
 27 28  1  0
 28 29  2  0
 29 30  1  0
 31 30  2  0
 32 31  1  0
 33 32  2  0
 33 28  1  0
 34 35  1  0
 34 23  1  0
 36 34  2  0
M  END
$$$$
