YEW.pdb
     RDKit          3D

 36 38  0  0  1  0  0  0  0  0999 V2000
    8.6756  -11.8087   21.1204 O   0  0  0  0  0  0  0  0  0  0  0  0
    8.2349  -13.1002   20.7977 C   0  0  0  0  0  0  0  0  0  0  0  0
    9.0212  -13.9165   19.9998 C   0  0  0  0  0  0  0  0  0  0  0  0
    8.6175  -15.2133   19.6543 C   0  0  0  0  0  0  0  0  0  0  0  0
    7.4106  -15.6481   20.1367 C   0  0  0  0  0  0  0  0  0  0  0  0
    6.9090  -16.9988   19.8318 C   0  0  0  0  0  0  0  0  0  0  0  0
    6.5721  -17.7311   21.1257 C   0  0  2  0  0  0  0  0  0  0  0  0
    5.3620  -17.1969   21.6568 N   0  0  0  0  0  0  0  0  0  0  0  0
    7.7208  -17.7547   22.0231 C   0  0  0  0  0  0  0  0  0  0  0  0
    7.5040  -18.0390   23.2387 O   0  0  0  0  0  0  0  0  0  0  0  0
    6.6206  -14.8345   20.9353 C   0  0  0  0  0  0  0  0  0  0  0  0
    7.0277  -13.5512   21.2724 C   0  0  0  0  0  0  0  0  0  0  0  0
    9.0722  -17.4923   21.6851 N   0  0  0  0  0  0  0  0  0  0  0  0
   10.1619  -17.8411   22.5582 C   0  0  1  0  0  0  0  0  0  0  0  0
   11.5046  -17.7006   21.9372 C   0  0  0  0  0  0  0  0  0  0  0  0
   11.6085  -18.2655   20.5409 C   0  0  0  0  0  0  0  0  0  0  0  0
   12.7638  -17.6215   19.8826 C   0  0  0  0  0  0  0  0  0  0  0  0
   12.9053  -17.7290   18.6482 O   0  0  0  0  0  0  0  0  0  0  0  0
   10.1265  -16.9196   23.7479 C   0  0  0  0  0  0  0  0  0  0  0  0
   10.4386  -15.6860   23.6179 O   0  0  0  0  0  0  0  0  0  0  0  0
   13.6757  -16.9078   20.6191 O   0  0  0  0  0  0  0  0  0  0  0  0
    9.7609  -17.3205   25.0421 N   0  0  0  0  0  0  0  0  0  0  0  0
   10.0304  -16.5060   26.2484 C   0  0  1  0  0  0  0  0  0  0  0  0
    8.8096  -16.4066   27.0782 C   0  0  0  0  0  0  0  0  0  0  0  0
    7.7365  -15.6438   26.4354 C   0  0  0  0  0  0  0  0  0  0  0  0
    6.5916  -16.1726   25.8350 C   0  0  0  0  0  0  0  0  0  0  0  0
    5.8284  -15.2038   25.3220 N   0  0  0  0  0  0  0  0  0  0  0  0
    6.4467  -14.0451   25.5730 C   0  0  0  0  0  0  0  0  0  0  0  0
    6.0725  -12.7477   25.2737 C   0  0  0  0  0  0  0  0  0  0  0  0
    6.8194  -11.6517   25.6254 C   0  0  0  0  0  0  0  0  0  0  0  0
    7.9960  -11.9091   26.3108 C   0  0  0  0  0  0  0  0  0  0  0  0
    8.3917  -13.1862   26.6198 C   0  0  0  0  0  0  0  0  0  0  0  0
    7.6277  -14.2720   26.2581 C   0  0  0  0  0  0  0  0  0  0  0  0
   11.2247  -16.9918   26.9270 C   0  0  0  0  0  0  0  0  0  0  0  0
   11.7931  -16.3068   28.0240 O   0  0  0  0  0  0  0  0  0  0  0  0
   11.8554  -18.0425   26.6162 O   0  0  0  0  0  0  0  0  0  0  0  0
  2  1  1  0
  3  2  2  0
  4  3  1  0
  5  4  2  0
  6  5  1  0
  7  8  1  1
  7  6  1  0
  9  7  1  0
 10  9  2  0
 11  5  1  0
 11 12  2  0
 12  2  1  0
 13  9  1  0
 14 13  1  0
 14 15  1  6
 15 16  1  0
 16 17  1  0
 17 18  2  0
 17 21  1  0
 19 20  2  0
 19 14  1  0
 22 19  1  0
 23 22  1  0
 23 24  1  1
 24 25  1  0
 25 26  2  0
 25 33  1  0
 26 27  1  0
 27 28  1  0
 28 29  2  0
 29 30  1  0
 31 30  2  0
 32 31  1  0
 33 32  2  0
 33 28  1  0
 34 35  1  0
 34 23  1  0
 36 34  2  0
M  END
$$$$
