YEW.pdb
     RDKit          3D

 36 38  0  0  1  0  0  0  0  0999 V2000
    6.9779  -11.4155   17.6107 O   0  0  0  0  0  0  0  0  0  0  0  0
    7.2318  -12.3293   18.6437 C   0  0  0  0  0  0  0  0  0  0  0  0
    8.4256  -12.2612   19.3447 C   0  0  0  0  0  0  0  0  0  0  0  0
    8.7180  -13.1551   20.3837 C   0  0  0  0  0  0  0  0  0  0  0  0
    7.7758  -14.1042   20.6837 C   0  0  0  0  0  0  0  0  0  0  0  0
    7.9934  -15.0802   21.7649 C   0  0  0  0  0  0  0  0  0  0  0  0
    8.8438  -16.2381   21.2548 C   0  0  2  0  0  0  0  0  0  0  0  0
    8.0739  -17.0049   20.3323 N   0  0  0  0  0  0  0  0  0  0  0  0
    9.4450  -16.9686   22.3640 C   0  0  0  0  0  0  0  0  0  0  0  0
    8.7830  -17.9317   22.8536 O   0  0  0  0  0  0  0  0  0  0  0  0
    6.5800  -14.1758   19.9845 C   0  0  0  0  0  0  0  0  0  0  0  0
    6.2985  -13.2870   18.9566 C   0  0  0  0  0  0  0  0  0  0  0  0
   10.7045  -16.7205   22.9652 N   0  0  0  0  0  0  0  0  0  0  0  0
   11.2339  -17.5587   24.0086 C   0  0  1  0  0  0  0  0  0  0  0  0
   12.6708  -17.8989   23.8419 C   0  0  0  0  0  0  0  0  0  0  0  0
   13.0877  -18.1652   22.4155 C   0  0  0  0  0  0  0  0  0  0  0  0
   14.5391  -18.4412   22.4176 C   0  0  0  0  0  0  0  0  0  0  0  0
   15.2196  -18.1410   23.4187 O   0  0  0  0  0  0  0  0  0  0  0  0
   11.1022  -16.8244   25.3159 C   0  0  0  0  0  0  0  0  0  0  0  0
   11.6831  -15.6973   25.4841 O   0  0  0  0  0  0  0  0  0  0  0  0
   15.1380  -19.0251   21.3296 O   0  0  0  0  0  0  0  0  0  0  0  0
   10.3602  -17.2946   26.4104 N   0  0  0  0  0  0  0  0  0  0  0  0
   10.2822  -16.5782   27.7033 C   0  0  1  0  0  0  0  0  0  0  0  0
    8.8873  -16.5687   28.1962 C   0  0  0  0  0  0  0  0  0  0  0  0
    7.9258  -16.0981   27.1959 C   0  0  0  0  0  0  0  0  0  0  0  0
    7.0206  -16.8880   26.4835 C   0  0  0  0  0  0  0  0  0  0  0  0
    6.3055  -16.1481   25.6320 N   0  0  0  0  0  0  0  0  0  0  0  0
    6.7202  -14.8843   25.7688 C   0  0  0  0  0  0  0  0  0  0  0  0
    6.2947  -13.7293   25.1382 C   0  0  0  0  0  0  0  0  0  0  0  0
    6.8160  -12.4899   25.4116 C   0  0  0  0  0  0  0  0  0  0  0  0
    7.8140  -12.4457   26.3721 C   0  0  0  0  0  0  0  0  0  0  0  0
    8.2559  -13.5760   27.0125 C   0  0  0  0  0  0  0  0  0  0  0  0
    7.7194  -14.8099   26.7237 C   0  0  0  0  0  0  0  0  0  0  0  0
   11.2815  -17.0979   28.6276 C   0  0  0  0  0  0  0  0  0  0  0  0
   12.1057  -18.1970   28.2984 O   0  0  0  0  0  0  0  0  0  0  0  0
   11.5085  -16.6345   29.7817 O   0  0  0  0  0  0  0  0  0  0  0  0
  2  1  1  0
  3  2  2  0
  4  3  1  0
  5  4  2  0
  6  5  1  0
  7  8  1  1
  7  6  1  0
  9  7  1  0
 10  9  2  0
 11  5  1  0
 11 12  2  0
 12  2  1  0
 13  9  1  0
 14 13  1  0
 14 15  1  6
 15 16  1  0
 16 17  1  0
 17 18  2  0
 17 21  1  0
 19 20  2  0
 19 14  1  0
 22 19  1  0
 23 22  1  0
 23 24  1  1
 24 25  1  0
 25 26  2  0
 25 33  1  0
 26 27  1  0
 27 28  1  0
 28 29  2  0
 29 30  1  0
 31 30  2  0
 32 31  1  0
 33 32  2  0
 33 28  1  0
 34 35  1  0
 34 23  1  0
 36 34  2  0
M  END
$$$$
