YEW.pdb
     RDKit          3D

 36 38  0  0  1  0  0  0  0  0999 V2000
    8.0090  -12.0239   17.4808 O   0  0  0  0  0  0  0  0  0  0  0  0
    7.8939  -12.7636   18.6666 C   0  0  0  0  0  0  0  0  0  0  0  0
    6.6727  -13.3184   19.0159 C   0  0  0  0  0  0  0  0  0  0  0  0
    6.5154  -14.0644   20.1918 C   0  0  0  0  0  0  0  0  0  0  0  0
    7.6187  -14.2268   20.9885 C   0  0  0  0  0  0  0  0  0  0  0  0
    7.5494  -15.0016   22.2390 C   0  0  0  0  0  0  0  0  0  0  0  0
    7.7456  -16.4840   21.9420 C   0  0  2  0  0  0  0  0  0  0  0  0
    6.4732  -17.1266   21.9388 N   0  0  0  0  0  0  0  0  0  0  0  0
    8.7613  -17.0585   22.8159 C   0  0  0  0  0  0  0  0  0  0  0  0
    8.3639  -17.6181   23.8810 O   0  0  0  0  0  0  0  0  0  0  0  0
    8.8425  -13.6731   20.6428 C   0  0  0  0  0  0  0  0  0  0  0  0
    8.9896  -12.9353   19.4766 C   0  0  0  0  0  0  0  0  0  0  0  0
   10.1632  -17.0627   22.6059 N   0  0  0  0  0  0  0  0  0  0  0  0
   11.0835  -17.5720   23.5883 C   0  0  1  0  0  0  0  0  0  0  0  0
   12.4926  -17.6390   23.1211 C   0  0  0  0  0  0  0  0  0  0  0  0
   13.4745  -18.1128   24.1656 C   0  0  0  0  0  0  0  0  0  0  0  0
   14.8078  -18.1720   23.5320 C   0  0  0  0  0  0  0  0  0  0  0  0
   15.8282  -18.1812   24.2489 O   0  0  0  0  0  0  0  0  0  0  0  0
   11.0563  -16.6539   24.7808 C   0  0  0  0  0  0  0  0  0  0  0  0
   11.5506  -15.4769   24.7001 O   0  0  0  0  0  0  0  0  0  0  0  0
   14.9276  -18.2188   22.1656 O   0  0  0  0  0  0  0  0  0  0  0  0
   10.5070  -16.9980   26.0254 N   0  0  0  0  0  0  0  0  0  0  0  0
   10.9682  -16.4116   27.3039 C   0  0  1  0  0  0  0  0  0  0  0  0
   10.3815  -15.0658   27.4872 C   0  0  0  0  0  0  0  0  0  0  0  0
    8.9674  -14.9974   27.1104 C   0  0  0  0  0  0  0  0  0  0  0  0
    8.1054  -16.0823   26.9343 C   0  0  0  0  0  0  0  0  0  0  0  0
    6.8882  -15.6726   26.5672 N   0  0  0  0  0  0  0  0  0  0  0  0
    6.9293  -14.3379   26.4984 C   0  0  0  0  0  0  0  0  0  0  0  0
    5.9374  -13.4268   26.1843 C   0  0  0  0  0  0  0  0  0  0  0  0
    6.1395  -12.0697   26.1801 C   0  0  0  0  0  0  0  0  0  0  0  0
    7.4149  -11.6414   26.5124 C   0  0  0  0  0  0  0  0  0  0  0  0
    8.4179  -12.5233   26.8272 C   0  0  0  0  0  0  0  0  0  0  0  0
    8.1941  -13.8811   26.8259 C   0  0  0  0  0  0  0  0  0  0  0  0
   10.7561  -17.3536   28.3951 C   0  0  0  0  0  0  0  0  0  0  0  0
   10.1712  -18.6223   28.1855 O   0  0  0  0  0  0  0  0  0  0  0  0
   11.0640  -17.1415   29.6028 O   0  0  0  0  0  0  0  0  0  0  0  0
  2  1  1  0
  3  2  2  0
  4  3  1  0
  5  4  2  0
  6  5  1  0
  7  8  1  1
  7  6  1  0
  9  7  1  0
 10  9  2  0
 11  5  1  0
 11 12  2  0
 12  2  1  0
 13  9  1  0
 14 13  1  0
 14 15  1  6
 15 16  1  0
 16 17  1  0
 17 18  2  0
 17 21  1  0
 19 20  2  0
 19 14  1  0
 22 19  1  0
 23 22  1  0
 23 24  1  1
 24 25  1  0
 25 26  2  0
 25 33  1  0
 26 27  1  0
 27 28  1  0
 28 29  2  0
 29 30  1  0
 31 30  2  0
 32 31  1  0
 33 32  2  0
 33 28  1  0
 34 35  1  0
 34 23  1  0
 36 34  2  0
M  END
$$$$
