YEW.pdb
     RDKit          3D

 36 38  0  0  1  0  0  0  0  0999 V2000
    9.1313  -12.4454   18.2927 O   0  0  0  0  0  0  0  0  0  0  0  0
    8.4584  -13.1382   19.3095 C   0  0  0  0  0  0  0  0  0  0  0  0
    8.3413  -12.5700   20.5684 C   0  0  0  0  0  0  0  0  0  0  0  0
    7.6769  -13.2289   21.6116 C   0  0  0  0  0  0  0  0  0  0  0  0
    7.1436  -14.4621   21.3409 C   0  0  0  0  0  0  0  0  0  0  0  0
    6.4214  -15.2243   22.3735 C   0  0  0  0  0  0  0  0  0  0  0  0
    6.6526  -16.7177   22.1723 C   0  0  2  0  0  0  0  0  0  0  0  0
    5.4642  -17.4206   22.5266 N   0  0  0  0  0  0  0  0  0  0  0  0
    7.8812  -17.1461   22.8299 C   0  0  0  0  0  0  0  0  0  0  0  0
    7.7780  -17.6367   23.9936 O   0  0  0  0  0  0  0  0  0  0  0  0
    7.2587  -15.0343   20.0827 C   0  0  0  0  0  0  0  0  0  0  0  0
    7.9189  -14.3752   19.0551 C   0  0  0  0  0  0  0  0  0  0  0  0
    9.1970  -17.0756   22.3073 N   0  0  0  0  0  0  0  0  0  0  0  0
   10.3400  -17.5482   23.0433 C   0  0  1  0  0  0  0  0  0  0  0  0
   11.6104  -17.5205   22.2729 C   0  0  0  0  0  0  0  0  0  0  0  0
   11.5515  -18.2391   20.9463 C   0  0  0  0  0  0  0  0  0  0  0  0
   12.7505  -17.8524   20.1745 C   0  0  0  0  0  0  0  0  0  0  0  0
   13.6388  -17.1692   20.7215 O   0  0  0  0  0  0  0  0  0  0  0  0
   10.5304  -16.6578   24.2419 C   0  0  0  0  0  0  0  0  0  0  0  0
   11.0144  -15.4821   24.1017 O   0  0  0  0  0  0  0  0  0  0  0  0
   12.8910  -18.2415   18.8659 O   0  0  0  0  0  0  0  0  0  0  0  0
   10.2035  -17.0274   25.5556 N   0  0  0  0  0  0  0  0  0  0  0  0
   10.8230  -16.4080   26.7488 C   0  0  1  0  0  0  0  0  0  0  0  0
   10.1832  -15.1052   27.0357 C   0  0  0  0  0  0  0  0  0  0  0  0
    8.7662  -15.0652   26.6657 C   0  0  0  0  0  0  0  0  0  0  0  0
    7.9431  -16.1678   26.4252 C   0  0  0  0  0  0  0  0  0  0  0  0
    6.7107  -15.7808   26.0854 N   0  0  0  0  0  0  0  0  0  0  0  0
    6.7036  -14.4438   26.0977 C   0  0  0  0  0  0  0  0  0  0  0  0
    5.6784  -13.5517   25.8408 C   0  0  0  0  0  0  0  0  0  0  0  0
    5.8316  -12.1904   25.9187 C   0  0  0  0  0  0  0  0  0  0  0  0
    7.0920  -11.7373   26.2747 C   0  0  0  0  0  0  0  0  0  0  0  0
    8.1271  -12.6000   26.5340 C   0  0  0  0  0  0  0  0  0  0  0  0
    7.9523  -13.9624   26.4505 C   0  0  0  0  0  0  0  0  0  0  0  0
   10.8534  -17.3600   27.8514 C   0  0  0  0  0  0  0  0  0  0  0  0
   11.5531  -17.0952   29.0497 O   0  0  0  0  0  0  0  0  0  0  0  0
   10.2752  -18.4842   27.8514 O   0  0  0  0  0  0  0  0  0  0  0  0
  2  1  1  0
  3  2  2  0
  4  3  1  0
  5  4  2  0
  6  5  1  0
  7  8  1  1
  7  6  1  0
  9  7  1  0
 10  9  2  0
 11  5  1  0
 11 12  2  0
 12  2  1  0
 13  9  1  0
 14 13  1  0
 14 15  1  6
 15 16  1  0
 16 17  1  0
 17 18  2  0
 17 21  1  0
 19 20  2  0
 19 14  1  0
 22 19  1  0
 23 22  1  0
 23 24  1  1
 24 25  1  0
 25 26  2  0
 25 33  1  0
 26 27  1  0
 27 28  1  0
 28 29  2  0
 29 30  1  0
 31 30  2  0
 32 31  1  0
 33 32  2  0
 33 28  1  0
 34 35  1  0
 34 23  1  0
 36 34  2  0
M  END
$$$$
