YEW.pdb
     RDKit          3D

 36 38  0  0  1  0  0  0  0  0999 V2000
    7.7279  -12.0486   17.2985 O   0  0  0  0  0  0  0  0  0  0  0  0
    7.6672  -12.7548   18.5085 C   0  0  0  0  0  0  0  0  0  0  0  0
    6.4909  -13.3887   18.8772 C   0  0  0  0  0  0  0  0  0  0  0  0
    6.3886  -14.1047   20.0776 C   0  0  0  0  0  0  0  0  0  0  0  0
    7.4997  -14.1563   20.8783 C   0  0  0  0  0  0  0  0  0  0  0  0
    7.4872  -14.8919   22.1540 C   0  0  0  0  0  0  0  0  0  0  0  0
    7.8899  -16.3435   21.9195 C   0  0  2  0  0  0  0  0  0  0  0  0
    6.7114  -17.1395   21.8222 N   0  0  0  0  0  0  0  0  0  0  0  0
    8.8836  -16.7709   22.8969 C   0  0  0  0  0  0  0  0  0  0  0  0
    8.4575  -17.2878   23.9724 O   0  0  0  0  0  0  0  0  0  0  0  0
    8.6787  -13.5232   20.5132 C   0  0  0  0  0  0  0  0  0  0  0  0
    8.7714  -12.8158   19.3228 C   0  0  0  0  0  0  0  0  0  0  0  0
   10.2928  -16.6730   22.7785 N   0  0  0  0  0  0  0  0  0  0  0  0
   11.1807  -17.0828   23.8345 C   0  0  1  0  0  0  0  0  0  0  0  0
   12.6222  -16.9752   23.4899 C   0  0  0  0  0  0  0  0  0  0  0  0
   13.5557  -17.5634   24.5204 C   0  0  0  0  0  0  0  0  0  0  0  0
   14.9345  -17.4175   24.0102 C   0  0  0  0  0  0  0  0  0  0  0  0
   15.1928  -17.7488   22.8359 O   0  0  0  0  0  0  0  0  0  0  0  0
   10.9426  -16.1910   25.0235 C   0  0  0  0  0  0  0  0  0  0  0  0
   11.1723  -14.9352   24.9442 O   0  0  0  0  0  0  0  0  0  0  0  0
   15.9264  -16.9199   24.8176 O   0  0  0  0  0  0  0  0  0  0  0  0
   10.4665  -16.6443   26.2633 N   0  0  0  0  0  0  0  0  0  0  0  0
   10.9079  -16.0761   27.5569 C   0  0  1  0  0  0  0  0  0  0  0  0
   10.0201  -14.9605   27.9519 C   0  0  0  0  0  0  0  0  0  0  0  0
    8.6845  -15.0481   27.3560 C   0  0  0  0  0  0  0  0  0  0  0  0
    7.9556  -16.2178   27.1291 C   0  0  0  0  0  0  0  0  0  0  0  0
    6.7837  -15.9472   26.5482 N   0  0  0  0  0  0  0  0  0  0  0  0
    6.7241  -14.6210   26.3878 C   0  0  0  0  0  0  0  0  0  0  0  0
    5.7233  -13.8278   25.8567 C   0  0  0  0  0  0  0  0  0  0  0  0
    5.8097  -12.4604   25.7833 C   0  0  0  0  0  0  0  0  0  0  0  0
    6.9747  -11.8949   26.2769 C   0  0  0  0  0  0  0  0  0  0  0  0
    7.9837  -12.6581   26.8082 C   0  0  0  0  0  0  0  0  0  0  0  0
    7.8770  -14.0285   26.8729 C   0  0  0  0  0  0  0  0  0  0  0  0
   11.0752  -17.1370   28.5415 C   0  0  0  0  0  0  0  0  0  0  0  0
   10.7150  -18.4754   28.2682 O   0  0  0  0  0  0  0  0  0  0  0  0
   11.5454  -16.9763   29.7040 O   0  0  0  0  0  0  0  0  0  0  0  0
  2  1  1  0
  3  2  2  0
  4  3  1  0
  5  4  2  0
  6  5  1  0
  7  8  1  1
  7  6  1  0
  9  7  1  0
 10  9  2  0
 11  5  1  0
 11 12  2  0
 12  2  1  0
 13  9  1  0
 14 13  1  0
 14 15  1  6
 15 16  1  0
 16 17  1  0
 17 18  2  0
 17 21  1  0
 19 20  2  0
 19 14  1  0
 22 19  1  0
 23 22  1  0
 23 24  1  1
 24 25  1  0
 25 26  2  0
 25 33  1  0
 26 27  1  0
 27 28  1  0
 28 29  2  0
 29 30  1  0
 31 30  2  0
 32 31  1  0
 33 32  2  0
 33 28  1  0
 34 35  1  0
 34 23  1  0
 36 34  2  0
M  END
$$$$
