RAY.pdb
     RDKit          3D

 29 29  0  0  1  0  0  0  0  0999 V2000
    8.6538  -13.0128   15.6649 N   0  0  0  0  0  0  0  0  0  0  0  0
    7.7547  -14.0473   15.3011 C   0  0  0  0  0  0  0  0  0  0  0  0
    7.9271  -14.7287   14.1960 N   0  0  0  0  0  0  0  0  0  0  0  0
    6.6657  -14.3229   16.1667 N   0  0  0  0  0  0  0  0  0  0  0  0
    6.6716  -13.8374   17.5131 C   0  0  0  0  0  0  0  0  0  0  0  0
    7.9611  -14.1584   18.2400 C   0  0  0  0  0  0  0  0  0  0  0  0
    7.8945  -13.7595   19.6857 C   0  0  0  0  0  0  0  0  0  0  0  0
    8.5587  -14.7929   20.5394 C   0  0  2  0  0  0  0  0  0  0  0  0
    8.0218  -16.1164   20.3624 N   0  0  0  0  0  0  0  0  0  0  0  0
    8.5038  -14.3632   21.9717 C   0  0  0  0  0  0  0  0  0  0  0  0
    8.8217  -13.2202   22.3189 O   0  0  0  0  0  0  0  0  0  0  0  0
    7.2894  -15.5038   13.9923 C   0  0  0  0  0  0  0  0  0  0  0  0
    6.8478  -15.8354   25.0232 C   0  0  2  0  0  0  0  0  0  0  0  0
    7.8801  -14.9891   24.3369 N   0  0  0  0  0  0  0  0  0  0  0  0
    8.0794  -15.2768   22.9668 C   0  0  0  0  0  0  0  0  0  0  0  0
    9.1552  -15.1473   25.0739 O   0  0  0  0  0  0  0  0  0  0  0  0
    9.2472  -14.8105   26.2848 O   0  0  0  0  0  0  0  0  0  0  0  0
    9.4461  -14.5780   31.0688 C   0  0  0  0  0  0  0  0  0  0  0  0
    9.9073  -15.1197   29.8777 C   0  0  0  0  0  0  0  0  0  0  0  0
   10.1275  -14.3400   28.7597 C   0  0  0  0  0  0  0  0  0  0  0  0
   10.5862  -14.8920   27.5810 C   0  0  0  0  0  0  0  0  0  0  0  0
   10.8507  -16.2365   27.4440 C   0  0  0  0  0  0  0  0  0  0  0  0
   11.3434  -16.8507   26.1851 C   0  0  2  0  0  0  0  0  0  0  0  0
   11.5256  -15.8470   25.0753 N   0  0  0  0  0  0  0  0  0  0  0  0
   10.2702  -15.6816   24.4015 C   0  0  0  0  0  0  0  0  0  0  0  0
   12.5991  -16.3128   24.1434 O   0  0  0  0  0  0  0  0  0  0  0  0
   13.9223  -16.4401   24.4582 C   0  0  0  0  0  0  0  0  0  0  0  0
   10.6276  -17.0234   28.5742 C   0  0  0  0  0  0  0  0  0  0  0  0
   10.1702  -16.4685   29.7477 O   0  0  0  0  0  0  0  0  0  0  0  0
  1  2  1  0
  2  3  2  0
  4  5  1  0
  4  2  1  0
  6  5  1  0
  7  6  1  0
  8  9  1  1
  8  7  1  0
 10  8  1  0
 11 10  2  0
 13 12  1  6
 13 14  1  0
 14 10  1  0
 15 13  1  0
 15 24  1  0
 16 15  2  0
 17 18  1  0
 18 28  2  0
 19 18  1  0
 19 20  2  0
 20 21  1  0
 21 27  2  0
 21 22  1  0
 23 22  1  1
 23 24  1  0
 23 25  1  0
 25 29  2  0
 25 26  1  0
 28 27  1  0
M  END
$$$$
