RAY.pdb
     RDKit          3D

 29 29  0  0  1  0  0  0  0  0999 V2000
    7.9097  -12.8044   18.2347 N   0  0  0  0  0  0  0  0  0  0  0  0
    8.9167  -13.1165   19.1830 C   0  0  0  0  0  0  0  0  0  0  0  0
    9.9634  -12.3431   19.3299 N   0  0  0  0  0  0  0  0  0  0  0  0
    8.7583  -14.2876   19.9670 N   0  0  0  0  0  0  0  0  0  0  0  0
    7.5696  -15.0769   19.8554 C   0  0  0  0  0  0  0  0  0  0  0  0
    6.6192  -14.8616   21.0151 C   0  0  0  0  0  0  0  0  0  0  0  0
    7.2167  -15.3241   22.3123 C   0  0  0  0  0  0  0  0  0  0  0  0
    7.2134  -16.8185   22.3805 C   0  0  2  0  0  0  0  0  0  0  0  0
    5.9083  -17.3992   22.2052 N   0  0  0  0  0  0  0  0  0  0  0  0
    7.8440  -17.2580   23.6644 C   0  0  0  0  0  0  0  0  0  0  0  0
    7.1712  -17.4623   24.6811 O   0  0  0  0  0  0  0  0  0  0  0  0
   10.7225  -12.6549   19.9426 C   0  0  0  0  0  0  0  0  0  0  0  0
   11.2604  -18.5954   24.5594 C   0  0  1  0  0  0  0  0  0  0  0  0
    9.9767  -17.8798   24.8642 N   0  0  0  0  0  0  0  0  0  0  0  0
    9.2453  -17.4489   23.7333 C   0  0  0  0  0  0  0  0  0  0  0  0
   10.3012  -16.7185   25.7246 O   0  0  0  0  0  0  0  0  0  0  0  0
   10.8763  -15.7031   25.2488 O   0  0  0  0  0  0  0  0  0  0  0  0
    5.5299  -12.8142   24.9170 C   0  0  0  0  0  0  0  0  0  0  0  0
    6.4093  -13.3885   25.8235 C   0  0  0  0  0  0  0  0  0  0  0  0
    6.2590  -14.6897   26.2601 C   0  0  0  0  0  0  0  0  0  0  0  0
    7.1411  -15.2484   27.1624 C   0  0  0  0  0  0  0  0  0  0  0  0
    8.2133  -14.5556   27.6791 C   0  0  0  0  0  0  0  0  0  0  0  0
    9.1731  -15.1372   28.6514 C   0  0  2  0  0  0  0  0  0  0  0  0
   10.3891  -15.7335   27.9896 N   0  0  0  0  0  0  0  0  0  0  0  0
    9.9574  -16.7628   27.0887 C   0  0  0  0  0  0  0  0  0  0  0  0
   11.3233  -16.2628   29.0312 O   0  0  0  0  0  0  0  0  0  0  0  0
   11.7381  -17.5599   29.1390 C   0  0  0  0  0  0  0  0  0  0  0  0
    8.3640  -13.2409   27.2374 C   0  0  0  0  0  0  0  0  0  0  0  0
    7.4819  -12.6879   26.3373 O   0  0  0  0  0  0  0  0  0  0  0  0
  1  2  1  0
  2  3  2  0
  4  5  1  0
  4  2  1  0
  6  5  1  0
  7  6  1  0
  8  9  1  1
  8  7  1  0
 10  8  1  0
 11 10  2  0
 13 12  1  6
 13 14  1  0
 14 10  1  0
 15 13  1  0
 15 24  1  0
 16 15  2  0
 17 18  1  0
 18 28  2  0
 19 18  1  0
 19 20  2  0
 20 21  1  0
 21 27  2  0
 21 22  1  0
 23 22  1  6
 23 24  1  0
 23 25  1  0
 25 29  2  0
 25 26  1  0
 28 27  1  0
M  END
$$$$
