RAY.pdb
     RDKit          3D

 29 29  0  0  1  0  0  0  0  0999 V2000
    9.9492  -15.2235   15.9084 N   0  0  0  0  0  0  0  0  0  0  0  0
    8.6783  -15.8396   15.7816 C   0  0  0  0  0  0  0  0  0  0  0  0
    8.0243  -15.8025   14.6475 N   0  0  0  0  0  0  0  0  0  0  0  0
    8.1367  -16.4966   16.9158 N   0  0  0  0  0  0  0  0  0  0  0  0
    7.3961  -15.7588   17.8934 C   0  0  0  0  0  0  0  0  0  0  0  0
    8.2243  -14.6750   18.5522 C   0  0  0  0  0  0  0  0  0  0  0  0
    8.2850  -14.8544   20.0414 C   0  0  0  0  0  0  0  0  0  0  0  0
    7.2379  -14.0185   20.7070 C   0  0  2  0  0  0  0  0  0  0  0  0
    6.7033  -12.9849   19.8602 N   0  0  0  0  0  0  0  0  0  0  0  0
    7.7867  -13.4577   21.9812 C   0  0  0  0  0  0  0  0  0  0  0  0
    8.8034  -12.7548   21.9960 O   0  0  0  0  0  0  0  0  0  0  0  0
    7.0909  -16.2218   14.6048 C   0  0  0  0  0  0  0  0  0  0  0  0
    6.3551  -13.2618   25.4958 C   0  0  2  0  0  0  0  0  0  0  0  0
    7.4377  -13.1473   24.4624 N   0  0  0  0  0  0  0  0  0  0  0  0
    7.1371  -13.7299   23.2096 C   0  0  0  0  0  0  0  0  0  0  0  0
    8.6624  -13.7645   25.0223 O   0  0  0  0  0  0  0  0  0  0  0  0
    9.1506  -13.3582   26.1108 O   0  0  0  0  0  0  0  0  0  0  0  0
    9.8620  -15.0724   31.2571 C   0  0  0  0  0  0  0  0  0  0  0  0
    9.9153  -15.4268   29.9168 C   0  0  0  0  0  0  0  0  0  0  0  0
   10.6504  -14.7018   29.0000 C   0  0  0  0  0  0  0  0  0  0  0  0
   10.6944  -15.0655   27.6696 C   0  0  0  0  0  0  0  0  0  0  0  0
   10.0183  -16.1589   27.1758 C   0  0  0  0  0  0  0  0  0  0  0  0
   10.0513  -16.5667   25.7484 C   0  0  2  0  0  0  0  0  0  0  0  0
   10.4630  -15.4462   24.8280 N   0  0  0  0  0  0  0  0  0  0  0  0
    9.2784  -14.8170   24.3197 C   0  0  0  0  0  0  0  0  0  0  0  0
   11.3215  -15.9851   23.7276 O   0  0  0  0  0  0  0  0  0  0  0  0
   12.5707  -16.5152   23.8837 C   0  0  0  0  0  0  0  0  0  0  0  0
    9.2758  -16.8905   28.1029 C   0  0  0  0  0  0  0  0  0  0  0  0
    9.2349  -16.5242   29.4289 O   0  0  0  0  0  0  0  0  0  0  0  0
  1  2  1  0
  2  3  2  0
  4  5  1  0
  4  2  1  0
  6  5  1  0
  7  6  1  0
  8  9  1  6
  8  7  1  0
 10  8  1  0
 11 10  2  0
 13 12  1  6
 13 14  1  0
 14 10  1  0
 15 13  1  0
 15 24  1  0
 16 15  2  0
 17 18  1  0
 18 28  2  0
 19 18  1  0
 19 20  2  0
 20 21  1  0
 21 27  2  0
 21 22  1  0
 23 22  1  1
 23 24  1  0
 23 25  1  0
 25 29  2  0
 25 26  1  0
 28 27  1  0
M  END
$$$$
