RAY.pdb
     RDKit          3D

 29 29  0  0  1  0  0  0  0  0999 V2000
    5.3453  -20.9213   19.4001 N   0  0  0  0  0  0  0  0  0  0  0  0
    6.2900  -21.9475   19.6554 C   0  0  0  0  0  0  0  0  0  0  0  0
    6.0402  -23.1887   19.3201 N   0  0  0  0  0  0  0  0  0  0  0  0
    7.5113  -21.5923   20.2827 N   0  0  0  0  0  0  0  0  0  0  0  0
    7.7367  -20.2470   20.7163 C   0  0  0  0  0  0  0  0  0  0  0  0
    7.8283  -19.2725   19.5603 C   0  0  0  0  0  0  0  0  0  0  0  0
    8.0484  -17.8667   20.0388 C   0  0  0  0  0  0  0  0  0  0  0  0
    8.1761  -16.9370   18.8737 C   0  0  2  0  0  0  0  0  0  0  0  0
    9.0124  -17.4476   17.8197 N   0  0  0  0  0  0  0  0  0  0  0  0
    8.6496  -15.6013   19.3545 C   0  0  0  0  0  0  0  0  0  0  0  0
    9.8504  -15.3090   19.3795 O   0  0  0  0  0  0  0  0  0  0  0  0
    6.7645  -23.8954   19.4775 C   0  0  0  0  0  0  0  0  0  0  0  0
    6.8433  -12.4405   20.4883 C   0  0  1  0  0  0  0  0  0  0  0  0
    8.0103  -13.3758   20.3610 N   0  0  0  0  0  0  0  0  0  0  0  0
    7.7113  -14.6369   19.7954 C   0  0  0  0  0  0  0  0  0  0  0  0
    8.5928  -13.5564   21.7109 O   0  0  0  0  0  0  0  0  0  0  0  0
    8.7953  -12.5667   22.4644 O   0  0  0  0  0  0  0  0  0  0  0  0
   10.0429  -15.7479   29.8518 C   0  0  0  0  0  0  0  0  0  0  0  0
    9.6412  -15.5286   28.5420 C   0  0  0  0  0  0  0  0  0  0  0  0
    9.6552  -16.5353   27.5972 C   0  0  0  0  0  0  0  0  0  0  0  0
    9.2532  -16.3031   26.2977 C   0  0  0  0  0  0  0  0  0  0  0  0
    8.8181  -15.0707   25.8638 C   0  0  0  0  0  0  0  0  0  0  0  0
    8.3825  -14.7993   24.4705 C   0  0  1  0  0  0  0  0  0  0  0  0
    9.4606  -15.0778   23.4545 N   0  0  0  0  0  0  0  0  0  0  0  0
    8.9197  -14.8546   22.1449 C   0  0  0  0  0  0  0  0  0  0  0  0
    9.9600  -16.4785   23.6180 O   0  0  0  0  0  0  0  0  0  0  0  0
    9.6890  -17.5202   22.7769 C   0  0  0  0  0  0  0  0  0  0  0  0
    8.8045  -14.0542   26.8192 C   0  0  0  0  0  0  0  0  0  0  0  0
    9.2062  -14.2904   28.1142 O   0  0  0  0  0  0  0  0  0  0  0  0
  1  2  1  0
  2  3  2  0
  4  5  1  0
  4  2  1  0
  6  5  1  0
  7  6  1  0
  8  9  1  6
  8  7  1  0
 10  8  1  0
 11 10  2  0
 13 12  1  6
 13 14  1  0
 14 10  1  0
 15 13  1  0
 15 24  1  0
 16 15  2  0
 17 18  1  0
 18 28  2  0
 19 18  1  0
 19 20  2  0
 20 21  1  0
 21 27  2  0
 21 22  1  0
 23 22  1  1
 23 24  1  0
 23 25  1  0
 25 29  2  0
 25 26  1  0
 28 27  1  0
M  END
$$$$
