RAY.pdb
     RDKit          3D

 29 29  0  0  1  0  0  0  0  0999 V2000
   10.8015  -15.8870   11.9283 N   0  0  0  0  0  0  0  0  0  0  0  0
   12.0298  -15.6795   12.6057 C   0  0  0  0  0  0  0  0  0  0  0  0
   12.8527  -14.7327   12.2290 N   0  0  0  0  0  0  0  0  0  0  0  0
   12.3412  -16.5244   13.7013 N   0  0  0  0  0  0  0  0  0  0  0  0
   11.4561  -17.5875   14.0687 C   0  0  0  0  0  0  0  0  0  0  0  0
   10.1654  -17.0827   14.6800 C   0  0  0  0  0  0  0  0  0  0  0  0
   10.3241  -16.7924   16.1443 C   0  0  0  0  0  0  0  0  0  0  0  0
    9.0248  -16.3306   16.7246 C   0  0  2  0  0  0  0  0  0  0  0  0
    8.0562  -15.9460   15.7321 N   0  0  0  0  0  0  0  0  0  0  0  0
    9.2821  -15.2257   17.7004 C   0  0  0  0  0  0  0  0  0  0  0  0
   10.2324  -14.4472   17.5634 O   0  0  0  0  0  0  0  0  0  0  0  0
   13.6927  -14.5605   12.7889 C   0  0  0  0  0  0  0  0  0  0  0  0
    7.5289  -13.0448   19.9176 C   0  0  2  0  0  0  0  0  0  0  0  0
    8.5840  -14.1105   19.8554 N   0  0  0  0  0  0  0  0  0  0  0  0
    8.4249  -15.0542   18.8143 C   0  0  0  0  0  0  0  0  0  0  0  0
    8.6015  -14.8047   21.1638 O   0  0  0  0  0  0  0  0  0  0  0  0
    7.8173  -15.7633   21.3967 O   0  0  0  0  0  0  0  0  0  0  0  0
    5.8438  -11.9224   28.6244 C   0  0  0  0  0  0  0  0  0  0  0  0
    6.3585  -12.2145   27.3695 C   0  0  0  0  0  0  0  0  0  0  0  0
    5.9954  -13.3545   26.6803 C   0  0  0  0  0  0  0  0  0  0  0  0
    6.5154  -13.6329   25.4328 C   0  0  0  0  0  0  0  0  0  0  0  0
    7.4171  -12.8048   24.8022 C   0  0  0  0  0  0  0  0  0  0  0  0
    7.9894  -13.0862   23.4613 C   0  0  1  0  0  0  0  0  0  0  0  0
    9.0741  -14.1324   23.4947 N   0  0  0  0  0  0  0  0  0  0  0  0
    9.5100  -14.3781   22.1504 C   0  0  0  0  0  0  0  0  0  0  0  0
    8.5576  -15.3757   24.1471 O   0  0  0  0  0  0  0  0  0  0  0  0
    7.6842  -16.2624   23.5843 C   0  0  0  0  0  0  0  0  0  0  0  0
    7.7835  -11.6534   25.4996 C   0  0  0  0  0  0  0  0  0  0  0  0
    7.2622  -11.3797   26.7436 O   0  0  0  0  0  0  0  0  0  0  0  0
  1  2  1  0
  2  3  2  0
  4  5  1  0
  4  2  1  0
  6  5  1  0
  7  6  1  0
  8  9  1  6
  8  7  1  0
 10  8  1  0
 11 10  2  0
 13 12  1  6
 13 14  1  0
 14 10  1  0
 15 13  1  0
 15 24  1  0
 16 15  2  0
 17 18  1  0
 18 28  2  0
 19 18  1  0
 19 20  2  0
 20 21  1  0
 21 27  2  0
 21 22  1  0
 23 22  1  1
 23 24  1  0
 23 25  1  0
 25 29  2  0
 25 26  1  0
 28 27  1  0
M  END
$$$$
