RAY.pdb
     RDKit          3D

 29 29  0  0  1  0  0  0  0  0999 V2000
    8.5568  -14.1545   18.9325 N   0  0  0  0  0  0  0  0  0  0  0  0
    7.4509  -13.4844   19.5147 C   0  0  0  0  0  0  0  0  0  0  0  0
    6.7621  -12.6057   18.8302 N   0  0  0  0  0  0  0  0  0  0  0  0
    7.1123  -13.7927   20.8569 N   0  0  0  0  0  0  0  0  0  0  0  0
    7.5818  -15.0021   21.4614 C   0  0  0  0  0  0  0  0  0  0  0  0
    6.5652  -16.1223   21.3834 C   0  0  0  0  0  0  0  0  0  0  0  0
    7.0776  -17.3792   22.0248 C   0  0  0  0  0  0  0  0  0  0  0  0
    8.2670  -17.8942   21.2779 C   0  0  2  0  0  0  0  0  0  0  0  0
    8.0474  -19.1751   20.6597 N   0  0  0  0  0  0  0  0  0  0  0  0
    9.4531  -17.9188   22.1900 C   0  0  0  0  0  0  0  0  0  0  0  0
    9.8509  -18.9679   22.7089 O   0  0  0  0  0  0  0  0  0  0  0  0
    6.0053  -12.1006   19.3002 C   0  0  0  0  0  0  0  0  0  0  0  0
   12.1123  -15.3464   23.0384 C   0  0  1  0  0  0  0  0  0  0  0  0
   11.3118  -16.5948   23.2701 N   0  0  0  0  0  0  0  0  0  0  0  0
   10.1482  -16.7189   22.4763 C   0  0  0  0  0  0  0  0  0  0  0  0
   10.9475  -16.6368   24.7052 O   0  0  0  0  0  0  0  0  0  0  0  0
   11.8182  -16.4552   25.5981 O   0  0  0  0  0  0  0  0  0  0  0  0
    7.3483  -10.8483   25.1424 C   0  0  0  0  0  0  0  0  0  0  0  0
    7.4521  -12.1935   25.4660 C   0  0  0  0  0  0  0  0  0  0  0  0
    7.1743  -13.1872   24.5486 C   0  0  0  0  0  0  0  0  0  0  0  0
    7.2814  -14.5215   24.8841 C   0  0  0  0  0  0  0  0  0  0  0  0
    7.6667  -14.9437   26.1370 C   0  0  0  0  0  0  0  0  0  0  0  0
    7.7871  -16.3735   26.5188 C   0  0  2  0  0  0  0  0  0  0  0  0
    9.2029  -16.8846   26.4382 N   0  0  0  0  0  0  0  0  0  0  0  0
    9.6088  -16.8837   25.0624 C   0  0  0  0  0  0  0  0  0  0  0  0
    9.2820  -18.2521   27.0398 O   0  0  0  0  0  0  0  0  0  0  0  0
    9.6163  -19.3948   26.3703 C   0  0  0  0  0  0  0  0  0  0  0  0
    7.9470  -13.9388   27.0631 C   0  0  0  0  0  0  0  0  0  0  0  0
    7.8389  -12.6093   26.7241 O   0  0  0  0  0  0  0  0  0  0  0  0
  1  2  1  0
  2  3  2  0
  4  5  1  0
  4  2  1  0
  6  5  1  0
  7  6  1  0
  8  9  1  1
  8  7  1  0
 10  8  1  0
 11 10  2  0
 13 12  1  6
 13 14  1  0
 14 10  1  0
 15 13  1  0
 15 24  1  0
 16 15  2  0
 17 18  1  0
 18 28  2  0
 19 18  1  0
 19 20  2  0
 20 21  1  0
 21 27  2  0
 21 22  1  0
 23 22  1  1
 23 24  1  0
 23 25  1  0
 25 29  2  0
 25 26  1  0
 28 27  1  0
M  END
$$$$
