RAY.pdb
     RDKit          3D

 29 29  0  0  1  0  0  0  0  0999 V2000
    8.0127  -12.3387   18.0487 N   0  0  0  0  0  0  0  0  0  0  0  0
    8.2772  -13.7159   17.8384 C   0  0  0  0  0  0  0  0  0  0  0  0
    8.4707  -14.1858   16.6313 N   0  0  0  0  0  0  0  0  0  0  0  0
    8.3268  -14.5686   18.9706 N   0  0  0  0  0  0  0  0  0  0  0  0
    7.3431  -15.5930   19.1476 C   0  0  0  0  0  0  0  0  0  0  0  0
    6.1377  -15.1112   19.9283 C   0  0  0  0  0  0  0  0  0  0  0  0
    6.4004  -15.1117   21.4063 C   0  0  0  0  0  0  0  0  0  0  0  0
    6.5847  -16.5121   21.8992 C   0  0  2  0  0  0  0  0  0  0  0  0
    5.5833  -17.4272   21.4187 N   0  0  0  0  0  0  0  0  0  0  0  0
    6.6543  -16.5067   23.3940 C   0  0  0  0  0  0  0  0  0  0  0  0
    6.0041  -15.7024   24.0710 O   0  0  0  0  0  0  0  0  0  0  0  0
    8.6067  -15.1939   16.5125 C   0  0  0  0  0  0  0  0  0  0  0  0
    7.8965  -18.8606   26.0317 C   0  0  1  0  0  0  0  0  0  0  0  0
    7.7360  -17.4839   25.4555 N   0  0  0  0  0  0  0  0  0  0  0  0
    7.4811  -17.4399   24.0653 C   0  0  0  0  0  0  0  0  0  0  0  0
    8.9665  -16.7194   25.7648 O   0  0  0  0  0  0  0  0  0  0  0  0
    9.1445  -16.2168   26.9067 O   0  0  0  0  0  0  0  0  0  0  0  0
    9.7879  -15.2659   31.2803 C   0  0  0  0  0  0  0  0  0  0  0  0
   10.3024  -15.5815   30.0311 C   0  0  0  0  0  0  0  0  0  0  0  0
   10.7496  -16.8519   29.7270 C   0  0  0  0  0  0  0  0  0  0  0  0
   11.2594  -17.1519   28.4802 C   0  0  0  0  0  0  0  0  0  0  0  0
   11.3544  -16.2184   27.4723 C   0  0  0  0  0  0  0  0  0  0  0  0
   11.9005  -16.5199   26.1248 C   0  0  2  0  0  0  0  0  0  0  0  0
   11.1470  -15.8271   25.0183 N   0  0  0  0  0  0  0  0  0  0  0  0
    9.9408  -16.5599   24.7619 C   0  0  0  0  0  0  0  0  0  0  0  0
   12.0100  -15.7339   23.7999 O   0  0  0  0  0  0  0  0  0  0  0  0
   13.1448  -14.9819   23.6876 C   0  0  0  0  0  0  0  0  0  0  0  0
   10.9024  -14.9351   27.7807 C   0  0  0  0  0  0  0  0  0  0  0  0
   10.3947  -14.6404   29.0255 O   0  0  0  0  0  0  0  0  0  0  0  0
  1  2  1  0
  2  3  2  0
  4  5  1  0
  4  2  1  0
  6  5  1  0
  7  6  1  0
  8  9  1  1
  8  7  1  0
 10  8  1  0
 11 10  2  0
 13 12  1  1
 13 14  1  0
 14 10  1  0
 15 13  1  0
 15 24  1  0
 16 15  2  0
 17 18  1  0
 18 28  2  0
 19 18  1  0
 19 20  2  0
 20 21  1  0
 21 27  2  0
 21 22  1  0
 23 22  1  1
 23 24  1  0
 23 25  1  0
 25 29  2  0
 25 26  1  0
 28 27  1  0
M  END
$$$$
