RAY.pdb
     RDKit          3D

 29 29  0  0  1  0  0  0  0  0999 V2000
    5.8666  -19.9377   17.4107 N   0  0  0  0  0  0  0  0  0  0  0  0
    6.3289  -21.2347   17.0716 C   0  0  0  0  0  0  0  0  0  0  0  0
    5.5085  -22.1358   16.5918 N   0  0  0  0  0  0  0  0  0  0  0  0
    7.7028  -21.5277   17.2659 N   0  0  0  0  0  0  0  0  0  0  0  0
    8.5453  -20.6095   17.9700 C   0  0  0  0  0  0  0  0  0  0  0  0
    8.1401  -19.1664   17.7522 C   0  0  0  0  0  0  0  0  0  0  0  0
    9.1350  -18.2164   18.3533 C   0  0  0  0  0  0  0  0  0  0  0  0
    8.8963  -18.0782   19.8236 C   0  0  2  0  0  0  0  0  0  0  0  0
    7.6157  -18.5794   20.2478 N   0  0  0  0  0  0  0  0  0  0  0  0
    9.0895  -16.6498   20.2255 C   0  0  0  0  0  0  0  0  0  0  0  0
   10.1338  -16.0395   19.9705 O   0  0  0  0  0  0  0  0  0  0  0  0
    5.8827  -23.0539   16.3351 C   0  0  0  0  0  0  0  0  0  0  0  0
    6.7157  -13.9499   21.3494 C   0  0  2  0  0  0  0  0  0  0  0  0
    8.0663  -14.6021   21.2907 N   0  0  0  0  0  0  0  0  0  0  0  0
    8.0600  -15.9656   20.9161 C   0  0  0  0  0  0  0  0  0  0  0  0
    8.6986  -14.4500   22.6217 O   0  0  0  0  0  0  0  0  0  0  0  0
    8.9351  -13.3071   23.0974 O   0  0  0  0  0  0  0  0  0  0  0  0
    6.3857  -10.4039   27.0386 C   0  0  0  0  0  0  0  0  0  0  0  0
    6.8949  -11.6511   26.7070 C   0  0  0  0  0  0  0  0  0  0  0  0
    8.2515  -11.9080   26.7074 C   0  0  0  0  0  0  0  0  0  0  0  0
    8.7444  -13.1534   26.3752 C   0  0  0  0  0  0  0  0  0  0  0  0
    7.9282  -14.2064   26.0265 C   0  0  0  0  0  0  0  0  0  0  0  0
    8.4378  -15.5533   25.6646 C   0  0  2  0  0  0  0  0  0  0  0  0
    9.5762  -15.5037   24.6778 N   0  0  0  0  0  0  0  0  0  0  0  0
    9.0343  -15.6043   23.3535 C   0  0  0  0  0  0  0  0  0  0  0  0
   10.5446  -16.6066   24.9670 O   0  0  0  0  0  0  0  0  0  0  0  0
   10.8190  -17.6583   24.1395 C   0  0  0  0  0  0  0  0  0  0  0  0
    6.5577  -13.9456   26.0262 C   0  0  0  0  0  0  0  0  0  0  0  0
    6.0706  -12.7020   26.3583 O   0  0  0  0  0  0  0  0  0  0  0  0
  1  2  1  0
  2  3  2  0
  4  5  1  0
  4  2  1  0
  6  5  1  0
  7  6  1  0
  8  9  1  6
  8  7  1  0
 10  8  1  0
 11 10  2  0
 13 12  1  6
 13 14  1  0
 14 10  1  0
 15 13  1  0
 15 24  1  0
 16 15  2  0
 17 18  1  0
 18 28  2  0
 19 18  1  0
 19 20  2  0
 20 21  1  0
 21 27  2  0
 21 22  1  0
 23 22  1  6
 23 24  1  0
 23 25  1  0
 25 29  2  0
 25 26  1  0
 28 27  1  0
M  END
$$$$
