RAY.pdb
     RDKit          3D

 29 29  0  0  1  0  0  0  0  0999 V2000
    8.4379  -12.9739   19.8961 N   0  0  0  0  0  0  0  0  0  0  0  0
    7.9282  -13.1596   18.5859 C   0  0  0  0  0  0  0  0  0  0  0  0
    8.3362  -12.4080   17.5940 N   0  0  0  0  0  0  0  0  0  0  0  0
    6.9660  -14.1810   18.3805 N   0  0  0  0  0  0  0  0  0  0  0  0
    6.7592  -15.1899   19.3744 C   0  0  0  0  0  0  0  0  0  0  0  0
    7.9589  -15.3640   20.2827 C   0  0  0  0  0  0  0  0  0  0  0  0
    7.7289  -16.4426   21.3012 C   0  0  0  0  0  0  0  0  0  0  0  0
    7.9929  -17.7870   20.7006 C   0  0  2  0  0  0  0  0  0  0  0  0
    6.8051  -18.5789   20.5192 N   0  0  0  0  0  0  0  0  0  0  0  0
    9.0142  -18.5065   21.5244 C   0  0  0  0  0  0  0  0  0  0  0  0
    8.6910  -19.3590   22.3592 O   0  0  0  0  0  0  0  0  0  0  0  0
    7.9539  -12.5782   16.6592 C   0  0  0  0  0  0  0  0  0  0  0  0
   12.7416  -18.9364   21.2879 C   0  0  1  0  0  0  0  0  0  0  0  0
   11.4628  -18.8050   22.0627 N   0  0  0  0  0  0  0  0  0  0  0  0
   10.3895  -18.2150   21.3559 C   0  0  0  0  0  0  0  0  0  0  0  0
   11.7538  -18.0172   23.2829 O   0  0  0  0  0  0  0  0  0  0  0  0
   12.6424  -18.3896   24.0952 O   0  0  0  0  0  0  0  0  0  0  0  0
   10.2826  -13.9221   30.7555 C   0  0  0  0  0  0  0  0  0  0  0  0
   10.1907  -14.4809   29.4890 C   0  0  0  0  0  0  0  0  0  0  0  0
    9.8879  -13.7202   28.3772 C   0  0  0  0  0  0  0  0  0  0  0  0
    9.7994  -14.2891   27.1231 C   0  0  0  0  0  0  0  0  0  0  0  0
   10.0041  -15.6327   26.9009 C   0  0  0  0  0  0  0  0  0  0  0  0
    9.9125  -16.2649   25.5604 C   0  0  1  0  0  0  0  0  0  0  0  0
   11.1780  -16.1174   24.7550 N   0  0  0  0  0  0  0  0  0  0  0  0
   11.0215  -16.8402   23.5260 C   0  0  0  0  0  0  0  0  0  0  0  0
   12.3437  -16.6169   25.5486 O   0  0  0  0  0  0  0  0  0  0  0  0
   13.2550  -15.8335   26.1981 C   0  0  0  0  0  0  0  0  0  0  0  0
   10.3097  -16.4004   28.0249 C   0  0  0  0  0  0  0  0  0  0  0  0
   10.3971  -15.8287   29.2738 O   0  0  0  0  0  0  0  0  0  0  0  0
  1  2  1  0
  2  3  2  0
  4  5  1  0
  4  2  1  0
  6  5  1  0
  7  6  1  0
  8  9  1  1
  8  7  1  0
 10  8  1  0
 11 10  2  0
 13 12  1  6
 13 14  1  0
 14 10  1  0
 15 13  1  0
 15 24  1  0
 16 15  2  0
 17 18  1  0
 18 28  2  0
 19 18  1  0
 19 20  2  0
 20 21  1  0
 21 27  2  0
 21 22  1  0
 23 22  1  6
 23 24  1  0
 23 25  1  0
 25 29  2  0
 25 26  1  0
 28 27  1  0
M  END
$$$$
