RAY.pdb
     RDKit          3D

 29 29  0  0  1  0  0  0  0  0999 V2000
    7.3855  -12.2929   14.8660 N   0  0  0  0  0  0  0  0  0  0  0  0
    7.6407  -13.3014   13.9023 C   0  0  0  0  0  0  0  0  0  0  0  0
    7.1107  -13.2366   12.7064 N   0  0  0  0  0  0  0  0  0  0  0  0
    8.4850  -14.3801   14.2694 N   0  0  0  0  0  0  0  0  0  0  0  0
    8.9118  -14.5344   15.6268 C   0  0  0  0  0  0  0  0  0  0  0  0
    7.8698  -15.2174   16.4885 C   0  0  0  0  0  0  0  0  0  0  0  0
    7.9886  -14.8080   17.9279 C   0  0  0  0  0  0  0  0  0  0  0  0
    9.2310  -15.3843   18.5296 C   0  0  2  0  0  0  0  0  0  0  0  0
    9.8170  -16.4362   17.7414 N   0  0  0  0  0  0  0  0  0  0  0  0
    8.9417  -15.8379   19.9259 C   0  0  0  0  0  0  0  0  0  0  0  0
    8.3400  -15.1179   20.7306 O   0  0  0  0  0  0  0  0  0  0  0  0
    7.2900  -13.9999   12.0475 C   0  0  0  0  0  0  0  0  0  0  0  0
    9.4695  -19.1587   21.7289 C   0  0  2  0  0  0  0  0  0  0  0  0
    9.1200  -17.7032   21.6182 N   0  0  0  0  0  0  0  0  0  0  0  0
    9.3611  -17.1215   20.3521 C   0  0  0  0  0  0  0  0  0  0  0  0
    9.8833  -16.9758   22.6585 O   0  0  0  0  0  0  0  0  0  0  0  0
   11.0473  -16.5517   22.4273 O   0  0  0  0  0  0  0  0  0  0  0  0
   11.4277  -13.9686   30.8895 C   0  0  0  0  0  0  0  0  0  0  0  0
   10.8477  -14.3513   29.6886 C   0  0  0  0  0  0  0  0  0  0  0  0
   10.3923  -15.6374   29.4766 C   0  0  0  0  0  0  0  0  0  0  0  0
    9.8176  -16.0046   28.2769 C   0  0  0  0  0  0  0  0  0  0  0  0
    9.6627  -15.1260   27.2278 C   0  0  0  0  0  0  0  0  0  0  0  0
    9.0485  -15.5007   25.9289 C   0  0  1  0  0  0  0  0  0  0  0  0
   10.0269  -16.1494   24.9833 N   0  0  0  0  0  0  0  0  0  0  0  0
    9.2895  -16.7625   23.9166 C   0  0  0  0  0  0  0  0  0  0  0  0
   10.8627  -17.1445   25.7245 O   0  0  0  0  0  0  0  0  0  0  0  0
   12.1264  -16.9252   26.1944 C   0  0  0  0  0  0  0  0  0  0  0  0
   10.1234  -13.8269   27.4431 C   0  0  0  0  0  0  0  0  0  0  0  0
   10.6958  -13.4651   28.6413 O   0  0  0  0  0  0  0  0  0  0  0  0
  1  2  1  0
  2  3  2  0
  4  5  1  0
  4  2  1  0
  6  5  1  0
  7  6  1  0
  8  9  1  6
  8  7  1  0
 10  8  1  0
 11 10  2  0
 13 12  1  6
 13 14  1  0
 14 10  1  0
 15 13  1  0
 15 24  1  0
 16 15  2  0
 17 18  1  0
 18 28  2  0
 19 18  1  0
 19 20  2  0
 20 21  1  0
 21 27  2  0
 21 22  1  0
 23 22  1  6
 23 24  1  0
 23 25  1  0
 25 29  2  0
 25 26  1  0
 28 27  1  0
M  END
$$$$
