RAY.pdb
     RDKit          3D

 29 29  0  0  1  0  0  0  0  0999 V2000
    8.3843  -12.2204   17.4842 N   0  0  0  0  0  0  0  0  0  0  0  0
    8.1254  -13.6014   17.2922 C   0  0  0  0  0  0  0  0  0  0  0  0
    7.8104  -14.0672   16.1093 N   0  0  0  0  0  0  0  0  0  0  0  0
    8.2176  -14.4623   18.4153 N   0  0  0  0  0  0  0  0  0  0  0  0
    8.7193  -13.9719   19.6628 C   0  0  0  0  0  0  0  0  0  0  0  0
    7.6156  -13.6883   20.6608 C   0  0  0  0  0  0  0  0  0  0  0  0
    6.8292  -14.9262   20.9814 C   0  0  0  0  0  0  0  0  0  0  0  0
    7.7526  -16.0760   21.2328 C   0  0  2  0  0  0  0  0  0  0  0  0
    7.5287  -17.1954   20.3564 N   0  0  0  0  0  0  0  0  0  0  0  0
    7.6654  -16.4769   22.6719 C   0  0  0  0  0  0  0  0  0  0  0  0
    6.6882  -16.1827   23.3693 O   0  0  0  0  0  0  0  0  0  0  0  0
    7.7511  -15.0815   15.9807 C   0  0  0  0  0  0  0  0  0  0  0  0
    9.1851  -19.2153   24.6169 C   0  0  2  0  0  0  0  0  0  0  0  0
    8.7151  -17.7912   24.5548 N   0  0  0  0  0  0  0  0  0  0  0  0
    8.7204  -17.2120   23.2648 C   0  0  0  0  0  0  0  0  0  0  0  0
    9.5687  -16.9945   25.4664 O   0  0  0  0  0  0  0  0  0  0  0  0
   10.6092  -16.4237   25.0424 O   0  0  0  0  0  0  0  0  0  0  0  0
    6.2262  -11.5631   25.1404 C   0  0  0  0  0  0  0  0  0  0  0  0
    6.9274  -12.4377   25.9579 C   0  0  0  0  0  0  0  0  0  0  0  0
    8.2109  -12.1637   26.3868 C   0  0  0  0  0  0  0  0  0  0  0  0
    8.8971  -13.0428   27.1996 C   0  0  0  0  0  0  0  0  0  0  0  0
    8.3553  -14.2334   27.6302 C   0  0  0  0  0  0  0  0  0  0  0  0
    9.0765  -15.1935   28.5037 C   0  0  2  0  0  0  0  0  0  0  0  0
    9.9930  -16.1108   27.7351 N   0  0  0  0  0  0  0  0  0  0  0  0
    9.2016  -16.8818   26.8203 C   0  0  0  0  0  0  0  0  0  0  0  0
   10.7498  -16.9828   28.6864 O   0  0  0  0  0  0  0  0  0  0  0  0
   11.7401  -16.5645   29.5291 C   0  0  0  0  0  0  0  0  0  0  0  0
    7.0585  -14.5093   27.1961 C   0  0  0  0  0  0  0  0  0  0  0  0
    6.3779  -13.6296   26.3856 O   0  0  0  0  0  0  0  0  0  0  0  0
  1  2  1  0
  2  3  2  0
  4  5  1  0
  4  2  1  0
  6  5  1  0
  7  6  1  0
  8  9  1  6
  8  7  1  0
 10  8  1  0
 11 10  2  0
 13 12  1  6
 13 14  1  0
 14 10  1  0
 15 13  1  0
 15 24  1  0
 16 15  2  0
 17 18  1  0
 18 28  2  0
 19 18  1  0
 19 20  2  0
 20 21  1  0
 21 27  2  0
 21 22  1  0
 23 22  1  6
 23 24  1  0
 23 25  1  0
 25 29  2  0
 25 26  1  0
 28 27  1  0
M  END
$$$$
