RAY.pdb
     RDKit          3D

 29 29  0  0  1  0  0  0  0  0999 V2000
    7.1846  -15.2041   17.3042 N   0  0  0  0  0  0  0  0  0  0  0  0
    7.5608  -13.9020   16.8873 C   0  0  0  0  0  0  0  0  0  0  0  0
    7.7867  -13.6406   15.6240 N   0  0  0  0  0  0  0  0  0  0  0  0
    7.6847  -12.8923   17.8754 N   0  0  0  0  0  0  0  0  0  0  0  0
    7.8033  -13.2442   19.2577 C   0  0  0  0  0  0  0  0  0  0  0  0
    7.4946  -14.7050   19.5130 C   0  0  0  0  0  0  0  0  0  0  0  0
    7.5881  -15.0426   20.9727 C   0  0  0  0  0  0  0  0  0  0  0  0
    9.0206  -15.1746   21.3831 C   0  0  2  0  0  0  0  0  0  0  0  0
    9.8274  -15.8926   20.4320 N   0  0  0  0  0  0  0  0  0  0  0  0
    9.0918  -15.7931   22.7439 C   0  0  0  0  0  0  0  0  0  0  0  0
    8.2532  -15.5403   23.6162 O   0  0  0  0  0  0  0  0  0  0  0  0
    8.1182  -12.7063   15.3672 C   0  0  0  0  0  0  0  0  0  0  0  0
   11.3697  -18.4639   24.2424 C   0  0  2  0  0  0  0  0  0  0  0  0
   10.2773  -17.4347   24.2520 N   0  0  0  0  0  0  0  0  0  0  0  0
   10.1400  -16.6923   23.0564 C   0  0  0  0  0  0  0  0  0  0  0  0
   10.5326  -16.5169   25.3864 O   0  0  0  0  0  0  0  0  0  0  0  0
   11.2953  -15.5225   25.2534 O   0  0  0  0  0  0  0  0  0  0  0  0
    6.6425  -11.2359   25.0423 C   0  0  0  0  0  0  0  0  0  0  0  0
    7.1580  -12.2609   25.8225 C   0  0  0  0  0  0  0  0  0  0  0  0
    6.4261  -13.3955   26.1113 C   0  0  0  0  0  0  0  0  0  0  0  0
    6.9512  -14.4073   26.8890 C   0  0  0  0  0  0  0  0  0  0  0  0
    8.2206  -14.3532   27.4203 C   0  0  0  0  0  0  0  0  0  0  0  0
    8.8040  -15.4298   28.2602 C   0  0  2  0  0  0  0  0  0  0  0  0
   10.1375  -15.9135   27.7502 N   0  0  0  0  0  0  0  0  0  0  0  0
    9.9092  -16.7700   26.6225 C   0  0  0  0  0  0  0  0  0  0  0  0
   10.8714  -16.6207   28.8454 O   0  0  0  0  0  0  0  0  0  0  0  0
   11.3862  -16.0306   29.9647 C   0  0  0  0  0  0  0  0  0  0  0  0
    8.9590  -13.2062   27.1281 C   0  0  0  0  0  0  0  0  0  0  0  0
    8.4313  -12.1996   26.3519 O   0  0  0  0  0  0  0  0  0  0  0  0
  1  2  1  0
  2  3  2  0
  4  5  1  0
  4  2  1  0
  6  5  1  0
  7  6  1  0
  8  9  1  6
  8  7  1  0
 10  8  1  0
 11 10  2  0
 13 12  1  6
 13 14  1  0
 14 10  1  0
 15 13  1  0
 15 24  1  0
 16 15  2  0
 17 18  1  0
 18 28  2  0
 19 18  1  0
 19 20  2  0
 20 21  1  0
 21 27  2  0
 21 22  1  0
 23 22  1  6
 23 24  1  0
 23 25  1  0
 25 29  2  0
 25 26  1  0
 28 27  1  0
M  END
$$$$
