RAY.pdb
     RDKit          3D

 29 29  0  0  1  0  0  0  0  0999 V2000
    9.0910  -21.1849   14.5093 N   0  0  0  0  0  0  0  0  0  0  0  0
    8.3541  -21.9100   15.4799 C   0  0  0  0  0  0  0  0  0  0  0  0
    8.3059  -23.2184   15.4467 N   0  0  0  0  0  0  0  0  0  0  0  0
    7.6724  -21.1794   16.4863 N   0  0  0  0  0  0  0  0  0  0  0  0
    8.4024  -20.3580   17.4033 C   0  0  0  0  0  0  0  0  0  0  0  0
    8.9483  -19.1045   16.7513 C   0  0  0  0  0  0  0  0  0  0  0  0
    9.8026  -18.3152   17.7004 C   0  0  0  0  0  0  0  0  0  0  0  0
    8.9722  -17.7847   18.8260 C   0  0  2  0  0  0  0  0  0  0  0  0
    7.5558  -17.8759   18.5881 N   0  0  0  0  0  0  0  0  0  0  0  0
    9.3901  -16.3807   19.1319 C   0  0  0  0  0  0  0  0  0  0  0  0
   10.5626  -16.0969   19.4016 O   0  0  0  0  0  0  0  0  0  0  0  0
    7.7263  -23.7063   16.1358 C   0  0  0  0  0  0  0  0  0  0  0  0
    7.8544  -13.0215   18.5233 C   0  0  2  0  0  0  0  0  0  0  0  0
    8.6813  -13.9669   19.3451 N   0  0  0  0  0  0  0  0  0  0  0  0
    8.4306  -15.3396   19.1165 C   0  0  0  0  0  0  0  0  0  0  0  0
    8.4494  -13.6449   20.7723 O   0  0  0  0  0  0  0  0  0  0  0  0
    7.6902  -12.6956   21.1049 O   0  0  0  0  0  0  0  0  0  0  0  0
    6.4813  -12.5405   28.9047 C   0  0  0  0  0  0  0  0  0  0  0  0
    6.7291  -12.8574   27.5769 C   0  0  0  0  0  0  0  0  0  0  0  0
    7.1414  -11.9059   26.6653 C   0  0  0  0  0  0  0  0  0  0  0  0
    7.3840  -12.2350   25.3473 C   0  0  0  0  0  0  0  0  0  0  0  0
    7.2332  -13.5147   24.8614 C   0  0  0  0  0  0  0  0  0  0  0  0
    7.4877  -13.8897   23.4474 C   0  0  2  0  0  0  0  0  0  0  0  0
    8.9510  -14.0959   23.1499 N   0  0  0  0  0  0  0  0  0  0  0  0
    9.0911  -14.4166   21.7588 C   0  0  0  0  0  0  0  0  0  0  0  0
    9.4979  -15.1773   24.0271 O   0  0  0  0  0  0  0  0  0  0  0  0
    9.8505  -16.4308   23.6144 C   0  0  0  0  0  0  0  0  0  0  0  0
    6.8164  -14.4752   25.7833 C   0  0  0  0  0  0  0  0  0  0  0  0
    6.5756  -14.1425   27.0969 O   0  0  0  0  0  0  0  0  0  0  0  0
  1  2  1  0
  2  3  2  0
  4  5  1  0
  4  2  1  0
  6  5  1  0
  7  6  1  0
  8  9  1  6
  8  7  1  0
 10  8  1  0
 11 10  2  0
 13 12  1  6
 13 14  1  0
 14 10  1  0
 15 13  1  0
 15 24  1  0
 16 15  2  0
 17 18  1  0
 18 28  2  0
 19 18  1  0
 19 20  2  0
 20 21  1  0
 21 27  2  0
 21 22  1  0
 23 22  1  6
 23 24  1  0
 23 25  1  0
 25 29  2  0
 25 26  1  0
 28 27  1  0
M  END
$$$$
