HLR.pdb
     RDKit          3D

 30 30  0  0  1  0  0  0  0  0999 V2000
   23.5493  -11.0090  -15.4141 N   0  0  0  0  0  0  0  0  0  0  0  0
   22.5956  -10.3103  -16.2784 C   0  0  1  0  0  0  0  0  0  0  0  0
   21.4750  -11.2915  -16.5362 C   0  0  0  0  0  0  0  0  0  0  0  0
   21.9126  -12.3920  -17.4334 C   0  0  0  0  0  0  0  0  0  0  0  0
   22.2323  -13.6798  -17.0963 C   0  0  0  0  0  0  0  0  0  0  0  0
   22.5746  -14.3382  -18.2194 N   0  0  0  0  0  0  0  0  0  0  0  0
   22.4693  -13.4714  -19.2447 C   0  0  0  0  0  0  0  0  0  0  0  0
   22.0708  -12.2983  -18.7734 N   0  0  0  0  0  0  0  0  0  0  0  0
   22.0687   -9.1544  -15.5080 C   0  0  0  0  0  0  0  0  0  0  0  0
   21.8153   -9.2561  -14.2587 O   0  0  0  0  0  0  0  0  0  0  0  0
   21.2807   -4.4495  -13.3113 C   0  0  0  0  0  0  0  0  0  0  0  0
   21.5065   -4.3077  -14.7850 C   0  0  1  0  0  0  0  0  0  0  0  0
   22.5067   -3.1576  -14.9603 C   0  0  0  0  0  0  0  0  0  0  0  0
   22.1365   -5.5119  -15.4365 C   0  0  0  0  0  0  0  0  0  0  0  0
   21.3129   -6.7573  -15.3873 C   0  0  2  0  0  0  0  0  0  0  0  0
   21.8157   -7.8832  -16.0872 N   0  0  0  0  0  0  0  0  0  0  0  0
   19.9218   -6.3883  -15.7845 C   0  0  0  0  0  0  0  0  0  0  0  0
   19.7223   -6.2159  -17.0133 O   0  0  0  0  0  0  0  0  0  0  0  0
   12.2914   -9.7197  -13.6861 N   0  0  0  0  0  0  0  0  0  0  0  0
   11.9486   -8.6809  -14.5836 C   0  0  0  0  0  0  0  0  0  0  0  0
   10.7419   -8.5035  -14.9474 N   0  0  0  0  0  0  0  0  0  0  0  0
   12.9675   -7.8010  -15.1045 N   0  0  0  0  0  0  0  0  0  0  0  0
   14.3333   -7.9729  -14.7269 C   0  0  0  0  0  0  0  0  0  0  0  0
   15.2280   -7.0033  -15.4804 C   0  0  0  0  0  0  0  0  0  0  0  0
   16.6722   -7.1682  -15.1007 C   0  0  0  0  0  0  0  0  0  0  0  0
   17.5130   -5.9682  -15.3756 C   0  0  2  0  0  0  0  0  0  0  0  0
   18.8539   -6.2274  -14.8911 N   0  0  0  0  0  0  0  0  0  0  0  0
   17.0208   -4.7266  -14.7870 C   0  0  0  0  0  0  0  0  0  0  0  0
   17.5251   -4.1602  -13.7788 O   0  0  0  0  0  0  0  0  0  0  0  0
   15.9227   -4.0965  -15.3481 O   0  0  0  0  0  0  0  0  0  0  0  0
  2  1  1  1
  2  9  1  0
  2  3  1  0
  3  4  1  0
  4  5  2  0
  4  8  1  0
  5  6  1  0
  6  7  1  0
  8  7  2  0
  9 10  2  0
 12 11  1  1
 12 14  1  0
 13 12  1  0
 15 14  1  6
 16 15  1  0
 16  9  1  0
 17 27  1  0
 17 15  1  0
 18 17  2  0
 19 20  1  0
 20 22  1  0
 21 20  2  0
 23 22  1  0
 23 24  1  0
 24 25  1  0
 26 25  1  1
 26 27  1  0
 26 28  1  0
 28 30  1  0
 29 28  2  0
M  END
$$$$
