HLR.pdb
     RDKit          3D

 30 30  0  0  1  0  0  0  0  0999 V2000
   25.8004  -19.7794  -17.0278 N   0  0  0  0  0  0  0  0  0  0  0  0
   24.8947  -19.1152  -16.0880 C   0  0  1  0  0  0  0  0  0  0  0  0
   23.7863  -18.5244  -16.9289 C   0  0  0  0  0  0  0  0  0  0  0  0
   24.2665  -17.3636  -17.7224 C   0  0  0  0  0  0  0  0  0  0  0  0
   24.4030  -17.2679  -19.0812 C   0  0  0  0  0  0  0  0  0  0  0  0
   24.8694  -16.0394  -19.3738 N   0  0  0  0  0  0  0  0  0  0  0  0
   25.0216  -15.3769  -18.2112 C   0  0  0  0  0  0  0  0  0  0  0  0
   24.6591  -16.1728  -17.2150 N   0  0  0  0  0  0  0  0  0  0  0  0
   24.3318  -20.1665  -15.2019 C   0  0  0  0  0  0  0  0  0  0  0  0
   23.9989  -21.3105  -15.6664 O   0  0  0  0  0  0  0  0  0  0  0  0
   25.6584  -20.4033   -9.7306 C   0  0  0  0  0  0  0  0  0  0  0  0
   25.3567  -20.6798  -11.1712 C   0  0  1  0  0  0  0  0  0  0  0  0
   25.9859  -22.0421  -11.4908 C   0  0  0  0  0  0  0  0  0  0  0  0
   23.8886  -20.8142  -11.4846 C   0  0  0  0  0  0  0  0  0  0  0  0
   23.5645  -20.9487  -12.9366 C   0  0  2  0  0  0  0  0  0  0  0  0
   24.1285  -19.9835  -13.8088 N   0  0  0  0  0  0  0  0  0  0  0  0
   22.0800  -21.0549  -13.0545 C   0  0  0  0  0  0  0  0  0  0  0  0
   21.4384  -19.9768  -12.9795 O   0  0  0  0  0  0  0  0  0  0  0  0
   20.6208  -28.3982  -14.2657 N   0  0  0  0  0  0  0  0  0  0  0  0
   19.2631  -28.0641  -14.0482 C   0  0  0  0  0  0  0  0  0  0  0  0
   18.4623  -28.8979  -13.5159 N   0  0  0  0  0  0  0  0  0  0  0  0
   18.7614  -26.7653  -14.4291 N   0  0  0  0  0  0  0  0  0  0  0  0
   19.6505  -25.7624  -14.9204 C   0  0  0  0  0  0  0  0  0  0  0  0
   19.9331  -24.7206  -13.8512 C   0  0  0  0  0  0  0  0  0  0  0  0
   19.5395  -23.3417  -14.2992 C   0  0  0  0  0  0  0  0  0  0  0  0
   19.9340  -22.2600  -13.3524 C   0  0  2  0  0  0  0  0  0  0  0  0
   21.3787  -22.2543  -13.2392 N   0  0  0  0  0  0  0  0  0  0  0  0
   19.3479  -22.3673  -12.0200 C   0  0  0  0  0  0  0  0  0  0  0  0
   19.9791  -22.7105  -10.9829 O   0  0  0  0  0  0  0  0  0  0  0  0
   18.0048  -22.0802  -11.8428 O   0  0  0  0  0  0  0  0  0  0  0  0
  2  1  1  6
  2  9  1  0
  2  3  1  0
  3  4  1  0
  4  5  2  0
  4  8  1  0
  5  6  1  0
  6  7  1  0
  8  7  2  0
  9 10  2  0
 12 11  1  1
 12 14  1  0
 13 12  1  0
 15 14  1  1
 16 15  1  0
 16  9  1  0
 17 27  1  0
 17 15  1  0
 18 17  2  0
 19 20  1  0
 20 22  1  0
 21 20  2  0
 23 22  1  0
 23 24  1  0
 24 25  1  0
 26 25  1  6
 26 27  1  0
 26 28  1  0
 28 30  1  0
 29 28  2  0
M  END
$$$$
