HLR.pdb
     RDKit          3D

 30 30  0  0  1  0  0  0  0  0999 V2000
   28.0849  -22.0408  -17.1625 N   0  0  0  0  0  0  0  0  0  0  0  0
   27.3701  -21.0860  -18.0122 C   0  0  1  0  0  0  0  0  0  0  0  0
   26.7829  -21.8979  -19.1439 C   0  0  0  0  0  0  0  0  0  0  0  0
   27.8415  -22.4032  -20.0559 C   0  0  0  0  0  0  0  0  0  0  0  0
   28.1106  -23.7005  -20.4006 C   0  0  0  0  0  0  0  0  0  0  0  0
   29.1532  -23.7041  -21.2521 N   0  0  0  0  0  0  0  0  0  0  0  0
   29.5296  -22.4241  -21.4364 C   0  0  0  0  0  0  0  0  0  0  0  0
   28.7408  -21.6388  -20.7165 N   0  0  0  0  0  0  0  0  0  0  0  0
   26.2688  -20.5107  -17.1976 C   0  0  0  0  0  0  0  0  0  0  0  0
   25.6783  -21.2076  -16.3027 O   0  0  0  0  0  0  0  0  0  0  0  0
   26.3874  -15.1067  -16.0408 C   0  0  0  0  0  0  0  0  0  0  0  0
   26.2028  -16.5857  -15.8949 C   0  0  1  0  0  0  0  0  0  0  0  0
   26.2537  -16.8812  -14.3902 C   0  0  0  0  0  0  0  0  0  0  0  0
   24.8691  -17.0966  -16.3759 C   0  0  0  0  0  0  0  0  0  0  0  0
   24.7906  -18.5772  -16.5584 C   0  0  2  0  0  0  0  0  0  0  0  0
   25.8037  -19.1778  -17.3479 N   0  0  0  0  0  0  0  0  0  0  0  0
   23.4097  -18.8965  -17.0277 C   0  0  0  0  0  0  0  0  0  0  0  0
   23.1845  -18.7204  -18.2515 O   0  0  0  0  0  0  0  0  0  0  0  0
   16.3617  -21.4594  -14.7645 N   0  0  0  0  0  0  0  0  0  0  0  0
   16.2203  -22.3756  -15.8335 C   0  0  0  0  0  0  0  0  0  0  0  0
   15.0686  -22.7495  -16.2255 N   0  0  0  0  0  0  0  0  0  0  0  0
   17.3864  -22.9044  -16.5000 N   0  0  0  0  0  0  0  0  0  0  0  0
   18.6958  -22.5710  -16.0396 C   0  0  0  0  0  0  0  0  0  0  0  0
   19.1602  -21.2547  -16.6394 C   0  0  0  0  0  0  0  0  0  0  0  0
   20.5636  -20.9172  -16.2230 C   0  0  0  0  0  0  0  0  0  0  0  0
   21.0521  -19.6072  -16.7404 C   0  0  2  0  0  0  0  0  0  0  0  0
   22.3775  -19.3685  -16.2054 N   0  0  0  0  0  0  0  0  0  0  0  0
   20.1956  -18.4671  -16.4292 C   0  0  0  0  0  0  0  0  0  0  0  0
   19.1999  -18.1080  -17.1156 O   0  0  0  0  0  0  0  0  0  0  0  0
   20.4651  -17.7003  -15.3080 O   0  0  0  0  0  0  0  0  0  0  0  0
  2  1  1  1
  2  9  1  0
  2  3  1  0
  3  4  1  0
  4  5  2  0
  4  8  1  0
  5  6  1  0
  6  7  1  0
  8  7  2  0
  9 10  2  0
 12 11  1  1
 12 14  1  0
 13 12  1  0
 15 14  1  6
 16 15  1  0
 16  9  1  0
 17 27  1  0
 17 15  1  0
 18 17  2  0
 19 20  1  0
 20 22  1  0
 21 20  2  0
 23 22  1  0
 23 24  1  0
 24 25  1  0
 26 25  1  1
 26 27  1  0
 26 28  1  0
 28 30  1  0
 29 28  2  0
M  END
$$$$
