HLR.pdb
     RDKit          3D

 30 30  0  0  1  0  0  0  0  0999 V2000
   25.3310   -6.2679  -20.4513 N   0  0  0  0  0  0  0  0  0  0  0  0
   24.9810   -5.9255  -19.0711 C   0  0  1  0  0  0  0  0  0  0  0  0
   24.0317   -4.7528  -19.1637 C   0  0  0  0  0  0  0  0  0  0  0  0
   24.7448   -3.5056  -19.5429 C   0  0  0  0  0  0  0  0  0  0  0  0
   24.5083   -2.6910  -20.6175 C   0  0  0  0  0  0  0  0  0  0  0  0
   25.3871   -1.6721  -20.5770 N   0  0  0  0  0  0  0  0  0  0  0  0
   26.1622   -1.8491  -19.4900 C   0  0  0  0  0  0  0  0  0  0  0  0
   25.7771   -2.9532  -18.8657 N   0  0  0  0  0  0  0  0  0  0  0  0
   24.2644   -7.0932  -18.4964 C   0  0  0  0  0  0  0  0  0  0  0  0
   23.4659   -7.7923  -19.2098 O   0  0  0  0  0  0  0  0  0  0  0  0
   26.4816  -10.7829  -14.8784 C   0  0  0  0  0  0  0  0  0  0  0  0
   25.7326  -10.0721  -15.9631 C   0  0  1  0  0  0  0  0  0  0  0  0
   25.2586  -11.1544  -16.9417 C   0  0  0  0  0  0  0  0  0  0  0  0
   24.4902   -9.3582  -15.4962 C   0  0  0  0  0  0  0  0  0  0  0  0
   23.7500   -8.6195  -16.5630 C   0  0  2  0  0  0  0  0  0  0  0  0
   24.4108   -7.5093  -17.1469 N   0  0  0  0  0  0  0  0  0  0  0  0
   22.4005   -8.2842  -16.0195 C   0  0  0  0  0  0  0  0  0  0  0  0
   22.3454   -7.3024  -15.2368 O   0  0  0  0  0  0  0  0  0  0  0  0
   14.2631   -9.0415  -18.3580 N   0  0  0  0  0  0  0  0  0  0  0  0
   14.0602   -9.1063  -16.9591 C   0  0  0  0  0  0  0  0  0  0  0  0
   12.9385   -8.7919  -16.4464 N   0  0  0  0  0  0  0  0  0  0  0  0
   15.1281   -9.5317  -16.0859 N   0  0  0  0  0  0  0  0  0  0  0  0
   16.4210   -9.8251  -16.6150 C   0  0  0  0  0  0  0  0  0  0  0  0
   17.4910   -9.0093  -15.9093 C   0  0  0  0  0  0  0  0  0  0  0  0
   18.8675   -9.3461  -16.4079 C   0  0  0  0  0  0  0  0  0  0  0  0
   19.9619   -8.6096  -15.7136 C   0  0  2  0  0  0  0  0  0  0  0  0
   21.2231   -8.9813  -16.3229 N   0  0  0  0  0  0  0  0  0  0  0  0
   20.0378   -8.8382  -14.2740 C   0  0  0  0  0  0  0  0  0  0  0  0
   20.6336   -9.8086  -13.7310 O   0  0  0  0  0  0  0  0  0  0  0  0
   19.4227   -7.9470  -13.4107 O   0  0  0  0  0  0  0  0  0  0  0  0
  2  1  1  6
  2  9  1  0
  2  3  1  0
  3  4  1  0
  4  5  2  0
  4  8  1  0
  5  6  1  0
  6  7  1  0
  8  7  2  0
  9 10  2  0
 12 11  1  1
 12 14  1  0
 13 12  1  0
 15 14  1  1
 16 15  1  0
 16  9  1  0
 17 27  1  0
 17 15  1  0
 18 17  2  0
 19 20  1  0
 20 22  1  0
 21 20  2  0
 23 22  1  0
 23 24  1  0
 24 25  1  0
 26 25  1  6
 26 27  1  0
 26 28  1  0
 28 30  1  0
 29 28  2  0
M  END
$$$$
