HLR.pdb
     RDKit          3D

 30 30  0  0  1  0  0  0  0  0999 V2000
   27.1943  -22.9594  -16.4720 N   0  0  0  0  0  0  0  0  0  0  0  0
   27.0415  -21.6469  -15.8406 C   0  0  1  0  0  0  0  0  0  0  0  0
   26.2800  -20.7970  -16.8318 C   0  0  0  0  0  0  0  0  0  0  0  0
   27.1056  -19.6630  -17.3218 C   0  0  0  0  0  0  0  0  0  0  0  0
   27.3606  -18.4721  -16.6967 C   0  0  0  0  0  0  0  0  0  0  0  0
   28.1557  -17.7367  -17.4963 N   0  0  0  0  0  0  0  0  0  0  0  0
   28.3939  -18.4607  -18.6066 C   0  0  0  0  0  0  0  0  0  0  0  0
   27.7620  -19.6215  -18.5037 N   0  0  0  0  0  0  0  0  0  0  0  0
   26.2147  -21.8390  -14.6212 C   0  0  0  0  0  0  0  0  0  0  0  0
   25.3072  -22.7387  -14.5758 O   0  0  0  0  0  0  0  0  0  0  0  0
   25.1838  -21.9212   -9.2002 C   0  0  0  0  0  0  0  0  0  0  0  0
   25.1549  -20.5753   -9.8566 C   0  0  1  0  0  0  0  0  0  0  0  0
   25.6938  -19.5784   -8.8223 C   0  0  0  0  0  0  0  0  0  0  0  0
   26.0511  -20.4518  -11.0620 C   0  0  0  0  0  0  0  0  0  0  0  0
   25.5857  -21.1952  -12.2713 C   0  0  2  0  0  0  0  0  0  0  0  0
   26.3687  -21.0583  -13.4454 N   0  0  0  0  0  0  0  0  0  0  0  0
   24.1469  -20.8544  -12.4783 C   0  0  0  0  0  0  0  0  0  0  0  0
   23.3662  -21.1463  -11.5377 O   0  0  0  0  0  0  0  0  0  0  0  0
   24.5614  -19.4425  -18.8166 N   0  0  0  0  0  0  0  0  0  0  0  0
   23.2292  -19.5866  -19.2714 C   0  0  0  0  0  0  0  0  0  0  0  0
   22.9679  -20.2402  -20.3318 N   0  0  0  0  0  0  0  0  0  0  0  0
   22.1390  -18.9907  -18.5365 N   0  0  0  0  0  0  0  0  0  0  0  0
   22.3683  -18.3938  -17.2603 C   0  0  0  0  0  0  0  0  0  0  0  0
   22.4992  -19.4568  -16.1827 C   0  0  0  0  0  0  0  0  0  0  0  0
   22.0341  -18.9546  -14.8454 C   0  0  0  0  0  0  0  0  0  0  0  0
   22.2191  -19.9294  -13.7329 C   0  0  2  0  0  0  0  0  0  0  0  0
   23.6298  -20.2444  -13.6293 N   0  0  0  0  0  0  0  0  0  0  0  0
   21.4590  -21.1678  -13.8698 C   0  0  0  0  0  0  0  0  0  0  0  0
   21.9662  -22.3014  -14.0921 O   0  0  0  0  0  0  0  0  0  0  0  0
   20.0793  -21.1351  -13.7541 O   0  0  0  0  0  0  0  0  0  0  0  0
  2  1  1  6
  2  9  1  0
  2  3  1  0
  3  4  1  0
  4  5  2  0
  4  8  1  0
  5  6  1  0
  6  7  1  0
  8  7  2  0
  9 10  2  0
 12 11  1  1
 12 14  1  0
 13 12  1  0
 15 14  1  1
 16 15  1  0
 16  9  1  0
 17 27  1  0
 17 15  1  0
 18 17  2  0
 19 20  1  0
 20 22  1  0
 21 20  2  0
 23 22  1  0
 23 24  1  0
 24 25  1  0
 26 25  1  6
 26 27  1  0
 26 28  1  0
 28 30  1  0
 29 28  2  0
M  END
$$$$
