HLR.pdb
     RDKit          3D

 30 30  0  0  1  0  0  0  0  0999 V2000
   27.2387  -21.8562  -16.0397 N   0  0  0  0  0  0  0  0  0  0  0  0
   26.3571  -21.2264  -17.0250 C   0  0  1  0  0  0  0  0  0  0  0  0
   25.4059  -22.3090  -17.4810 C   0  0  0  0  0  0  0  0  0  0  0  0
   26.1037  -23.3370  -18.2958 C   0  0  0  0  0  0  0  0  0  0  0  0
   27.4264  -23.3822  -18.6460 C   0  0  0  0  0  0  0  0  0  0  0  0
   27.6298  -24.4871  -19.3877 N   0  0  0  0  0  0  0  0  0  0  0  0
   26.4480  -25.1234  -19.4984 C   0  0  0  0  0  0  0  0  0  0  0  0
   25.5272  -24.4321  -18.8415 N   0  0  0  0  0  0  0  0  0  0  0  0
   25.5926  -20.1670  -16.3175 C   0  0  0  0  0  0  0  0  0  0  0  0
   25.0446  -20.3952  -15.1849 O   0  0  0  0  0  0  0  0  0  0  0  0
   27.0500  -14.7829  -16.5380 C   0  0  0  0  0  0  0  0  0  0  0  0
   26.5606  -16.1265  -16.0929 C   0  0  1  0  0  0  0  0  0  0  0  0
   26.6108  -16.1185  -14.5595 C   0  0  0  0  0  0  0  0  0  0  0  0
   25.1294  -16.4209  -16.4623 C   0  0  0  0  0  0  0  0  0  0  0  0
   24.6862  -17.8226  -16.1968 C   0  0  2  0  0  0  0  0  0  0  0  0
   25.4198  -18.8556  -16.8333 N   0  0  0  0  0  0  0  0  0  0  0  0
   23.2196  -17.8861  -16.4691 C   0  0  0  0  0  0  0  0  0  0  0  0
   22.8844  -18.0543  -17.6686 O   0  0  0  0  0  0  0  0  0  0  0  0
   17.9429  -22.4244  -12.2532 N   0  0  0  0  0  0  0  0  0  0  0  0
   18.3046  -21.1414  -11.7789 C   0  0  0  0  0  0  0  0  0  0  0  0
   17.7636  -20.6543  -10.7349 N   0  0  0  0  0  0  0  0  0  0  0  0
   19.2982  -20.3594  -12.4755 N   0  0  0  0  0  0  0  0  0  0  0  0
   19.8573  -20.8282  -13.7024 C   0  0  0  0  0  0  0  0  0  0  0  0
   20.8165  -19.8039  -14.2848 C   0  0  0  0  0  0  0  0  0  0  0  0
   20.0945  -18.5830  -14.7796 C   0  0  0  0  0  0  0  0  0  0  0  0
   20.8194  -17.8413  -15.8504 C   0  0  2  0  0  0  0  0  0  0  0  0
   22.2217  -17.7724  -15.4916 N   0  0  0  0  0  0  0  0  0  0  0  0
   20.3222  -16.4932  -16.1071 C   0  0  0  0  0  0  0  0  0  0  0  0
   20.9174  -15.4322  -15.7731 O   0  0  0  0  0  0  0  0  0  0  0  0
   19.1130  -16.3276  -16.7615 O   0  0  0  0  0  0  0  0  0  0  0  0
  2  1  1  1
  2  9  1  0
  2  3  1  0
  3  4  1  0
  4  5  2  0
  4  8  1  0
  5  6  1  0
  6  7  1  0
  8  7  2  0
  9 10  2  0
 12 11  1  1
 12 14  1  0
 13 12  1  0
 15 14  1  6
 16 15  1  0
 16  9  1  0
 17 27  1  0
 17 15  1  0
 18 17  2  0
 19 20  1  0
 20 22  1  0
 21 20  2  0
 23 22  1  0
 23 24  1  0
 24 25  1  0
 26 25  1  1
 26 27  1  0
 26 28  1  0
 28 30  1  0
 29 28  2  0
M  END
$$$$
