HLR.pdb
     RDKit          3D

 30 30  0  0  1  0  0  0  0  0999 V2000
   26.7509  -21.8599  -15.8852 N   0  0  0  0  0  0  0  0  0  0  0  0
   25.9850  -20.7398  -15.3344 C   0  0  1  0  0  0  0  0  0  0  0  0
   25.1756  -20.1865  -16.4848 C   0  0  0  0  0  0  0  0  0  0  0  0
   26.0467  -19.5411  -17.5008 C   0  0  0  0  0  0  0  0  0  0  0  0
   26.3121  -19.9627  -18.7761 C   0  0  0  0  0  0  0  0  0  0  0  0
   27.1514  -19.0788  -19.3474 N   0  0  0  0  0  0  0  0  0  0  0  0
   27.4060  -18.1173  -18.4394 C   0  0  0  0  0  0  0  0  0  0  0  0
   26.7417  -18.3941  -17.3262 N   0  0  0  0  0  0  0  0  0  0  0  0
   25.0648  -21.2976  -14.3100 C   0  0  0  0  0  0  0  0  0  0  0  0
   24.5767  -22.4731  -14.4333 O   0  0  0  0  0  0  0  0  0  0  0  0
   25.6914  -20.0179   -8.8746 C   0  0  0  0  0  0  0  0  0  0  0  0
   25.4691  -20.6890  -10.1949 C   0  0  1  0  0  0  0  0  0  0  0  0
   25.6746  -22.1906   -9.9564 C   0  0  0  0  0  0  0  0  0  0  0  0
   24.0723  -20.5402  -10.7409 C   0  0  0  0  0  0  0  0  0  0  0  0
   23.8656  -21.1118  -12.1056 C   0  0  2  0  0  0  0  0  0  0  0  0
   24.6707  -20.5850  -13.1471 N   0  0  0  0  0  0  0  0  0  0  0  0
   22.4033  -21.0471  -12.3997 C   0  0  0  0  0  0  0  0  0  0  0  0
   22.0431  -20.1822  -13.2374 O   0  0  0  0  0  0  0  0  0  0  0  0
   16.2339  -26.2860   -9.5913 N   0  0  0  0  0  0  0  0  0  0  0  0
   17.1267  -26.3665  -10.6861 C   0  0  0  0  0  0  0  0  0  0  0  0
   17.4907  -27.4941  -11.1508 N   0  0  0  0  0  0  0  0  0  0  0  0
   17.6426  -25.1645  -11.2967 N   0  0  0  0  0  0  0  0  0  0  0  0
   17.0705  -23.8937  -10.9877 C   0  0  0  0  0  0  0  0  0  0  0  0
   17.7932  -22.7816  -11.7288 C   0  0  0  0  0  0  0  0  0  0  0  0
   19.2811  -22.8599  -11.5373 C   0  0  0  0  0  0  0  0  0  0  0  0
   20.0323  -21.7252  -12.1459 C   0  0  2  0  0  0  0  0  0  0  0  0
   21.4347  -21.8723  -11.8121 N   0  0  0  0  0  0  0  0  0  0  0  0
   19.5776  -20.3997  -11.7378 C   0  0  0  0  0  0  0  0  0  0  0  0
   20.0450  -19.7480  -10.7639 O   0  0  0  0  0  0  0  0  0  0  0  0
   18.5610  -19.7815  -12.4465 O   0  0  0  0  0  0  0  0  0  0  0  0
  2  1  1  6
  2  9  1  0
  2  3  1  0
  3  4  1  0
  4  5  2  0
  4  8  1  0
  5  6  1  0
  6  7  1  0
  8  7  2  0
  9 10  2  0
 12 11  1  1
 12 14  1  0
 13 12  1  0
 15 14  1  1
 16 15  1  0
 16  9  1  0
 17 27  1  0
 17 15  1  0
 18 17  2  0
 19 20  1  0
 20 22  1  0
 21 20  2  0
 23 22  1  0
 23 24  1  0
 24 25  1  0
 26 25  1  1
 26 27  1  0
 26 28  1  0
 28 30  1  0
 29 28  2  0
M  END
$$$$
