TQA.pdb
     RDKit          3D

 22 21  0  0  1  0  0  0  0  0999 V2000
   26.2262  -12.7630  -15.9653 C   0  0  0  0  0  0  0  0  0  0  0  0
   25.4229  -11.5006  -16.1762 C   0  0  1  0  0  0  0  0  0  0  0  0
   26.1585  -10.5491  -16.8681 O   0  0  0  0  0  0  0  0  0  0  0  0
   24.1728  -11.8667  -16.9317 C   0  0  2  0  0  0  0  0  0  0  0  0
   24.4696  -12.3937  -18.2364 N   0  0  0  0  0  0  0  0  0  0  0  0
   23.2278  -10.7181  -17.0188 C   0  0  0  0  0  0  0  0  0  0  0  0
   23.2056   -9.9721  -18.0494 O   0  0  0  0  0  0  0  0  0  0  0  0
   17.6619  -10.5585  -14.4902 N   0  0  0  0  0  0  0  0  0  0  0  0
   17.7868   -9.2395  -14.9809 C   0  0  0  0  0  0  0  0  0  0  0  0
   16.7819   -8.5048  -14.9925 O   0  0  0  0  0  0  0  0  0  0  0  0
   19.1150   -8.7611  -15.4713 C   0  0  0  0  0  0  0  0  0  0  0  0
   20.1448   -9.8605  -15.4143 C   0  0  0  0  0  0  0  0  0  0  0  0
   21.4457   -9.3616  -15.9430 C   0  0  2  0  0  0  0  0  0  0  0  0
   22.3650  -10.4872  -15.9287 N   0  0  0  0  0  0  0  0  0  0  0  0
   22.0587   -8.2504  -15.2141 C   0  0  0  0  0  0  0  0  0  0  0  0
   22.6733   -8.3454  -14.1072 O   0  0  0  0  0  0  0  0  0  0  0  0
   22.4733   -4.5268  -15.9897 C   0  0  0  0  0  0  0  0  0  0  0  0
   22.5476   -5.7687  -15.1498 C   0  0  2  0  0  0  0  0  0  0  0  0
   21.9697   -6.9266  -15.7813 N   0  0  0  0  0  0  0  0  0  0  0  0
   21.9824   -5.5462  -13.8125 C   0  0  0  0  0  0  0  0  0  0  0  0
   20.8267   -6.0148  -13.5504 O   0  0  0  0  0  0  0  0  0  0  0  0
   22.6654   -4.8495  -12.8438 O   0  0  0  0  0  0  0  0  0  0  0  0
  2  4  1  0
  2  1  1  6
  3  2  1  0
  4  5  1  6
  6  4  1  0
  6 14  1  0
  7  6  2  0
  8  9  1  0
  9 11  1  0
 10  9  2  0
 11 12  1  0
 13 12  1  1
 13 14  1  0
 15 13  1  0
 16 15  2  0
 18 19  1  0
 18 17  1  6
 19 15  1  0
 20 18  1  0
 21 20  2  0
 22 20  1  0
M  END
$$$$
