TQA.pdb
     RDKit          3D

 22 21  0  0  1  0  0  0  0  0999 V2000
   19.3812  -12.0715  -15.2110 C   0  0  0  0  0  0  0  0  0  0  0  0
   18.7397  -11.7170  -16.5325 C   0  0  1  0  0  0  0  0  0  0  0  0
   17.6575  -12.5428  -16.8009 O   0  0  0  0  0  0  0  0  0  0  0  0
   18.3118  -10.2747  -16.4687 C   0  0  2  0  0  0  0  0  0  0  0  0
   17.6063   -9.8716  -17.6552 N   0  0  0  0  0  0  0  0  0  0  0  0
   19.4649   -9.3713  -16.1967 C   0  0  0  0  0  0  0  0  0  0  0  0
   20.2022   -9.5489  -15.1749 O   0  0  0  0  0  0  0  0  0  0  0  0
   21.4804   -6.4847  -20.9751 N   0  0  0  0  0  0  0  0  0  0  0  0
   22.2443   -7.5489  -20.4460 C   0  0  0  0  0  0  0  0  0  0  0  0
   22.9858   -8.1944  -21.2098 O   0  0  0  0  0  0  0  0  0  0  0  0
   22.1442   -7.8720  -18.9903 C   0  0  0  0  0  0  0  0  0  0  0  0
   21.2071   -6.9247  -18.2854 C   0  0  0  0  0  0  0  0  0  0  0  0
   20.8692   -7.4596  -16.9362 C   0  0  2  0  0  0  0  0  0  0  0  0
   19.7102   -8.3205  -17.1032 N   0  0  0  0  0  0  0  0  0  0  0  0
   20.5679   -6.4684  -15.9024 C   0  0  0  0  0  0  0  0  0  0  0  0
   19.5094   -5.7703  -15.8374 O   0  0  0  0  0  0  0  0  0  0  0  0
   21.9905   -5.6761  -12.5087 C   0  0  0  0  0  0  0  0  0  0  0  0
   21.3496   -5.2835  -13.8080 C   0  0  2  0  0  0  0  0  0  0  0  0
   21.5403   -6.2488  -14.8593 N   0  0  0  0  0  0  0  0  0  0  0  0
   21.7686   -3.9399  -14.2281 C   0  0  0  0  0  0  0  0  0  0  0  0
   22.5322   -3.8255  -15.2420 O   0  0  0  0  0  0  0  0  0  0  0  0
   21.3597   -2.8108  -13.5586 O   0  0  0  0  0  0  0  0  0  0  0  0
  2  4  1  0
  2  1  1  1
  3  2  1  0
  4  5  1  6
  6  4  1  0
  6 14  1  0
  7  6  2  0
  8  9  1  0
  9 11  1  0
 10  9  2  0
 11 12  1  0
 13 12  1  6
 13 14  1  0
 15 13  1  0
 16 15  2  0
 18 19  1  0
 18 17  1  1
 19 15  1  0
 20 18  1  0
 21 20  2  0
 22 20  1  0
M  END
$$$$
