TQA.pdb
     RDKit          3D

 22 21  0  0  1  0  0  0  0  0999 V2000
   23.5997  -13.3215  -14.4098 C   0  0  0  0  0  0  0  0  0  0  0  0
   23.9108  -14.0164  -15.7151 C   0  0  1  0  0  0  0  0  0  0  0  0
   24.5086  -15.2491  -15.4956 O   0  0  0  0  0  0  0  0  0  0  0  0
   22.6211  -14.1729  -16.4765 C   0  0  2  0  0  0  0  0  0  0  0  0
   22.7831  -15.0006  -17.6413 N   0  0  0  0  0  0  0  0  0  0  0  0
   22.0309  -12.8524  -16.8341 C   0  0  0  0  0  0  0  0  0  0  0  0
   22.4987  -12.1729  -17.8029 O   0  0  0  0  0  0  0  0  0  0  0  0
   16.0885  -11.6094  -15.9356 N   0  0  0  0  0  0  0  0  0  0  0  0
   16.5558  -10.3896  -16.4739 C   0  0  0  0  0  0  0  0  0  0  0  0
   15.7258   -9.5354  -16.8364 O   0  0  0  0  0  0  0  0  0  0  0  0
   18.0269  -10.1557  -16.5945 C   0  0  0  0  0  0  0  0  0  0  0  0
   18.8078  -11.3811  -16.1935 C   0  0  0  0  0  0  0  0  0  0  0  0
   20.2609  -11.1551  -16.4347 C   0  0  2  0  0  0  0  0  0  0  0  0
   20.9443  -12.3844  -16.0684 N   0  0  0  0  0  0  0  0  0  0  0  0
   20.8747  -10.0456  -15.7039 C   0  0  0  0  0  0  0  0  0  0  0  0
   21.1453  -10.0407  -14.4634 O   0  0  0  0  0  0  0  0  0  0  0  0
   22.3159   -6.6794  -16.8015 C   0  0  0  0  0  0  0  0  0  0  0  0
   21.8566   -7.7165  -15.8183 C   0  0  2  0  0  0  0  0  0  0  0  0
   21.2092   -8.8463  -16.4330 N   0  0  0  0  0  0  0  0  0  0  0  0
   21.0213   -7.1244  -14.7652 C   0  0  0  0  0  0  0  0  0  0  0  0
   19.7652   -7.3383  -14.7871 O   0  0  0  0  0  0  0  0  0  0  0  0
   21.5582   -6.3504  -13.7637 O   0  0  0  0  0  0  0  0  0  0  0  0
  2  4  1  0
  2  1  1  1
  3  2  1  0
  4  5  1  6
  6  4  1  0
  6 14  1  0
  7  6  2  0
  8  9  1  0
  9 11  1  0
 10  9  2  0
 11 12  1  0
 13 12  1  1
 13 14  1  0
 15 13  1  0
 16 15  2  0
 18 19  1  0
 18 17  1  6
 19 15  1  0
 20 18  1  0
 21 20  2  0
 22 20  1  0
M  END
$$$$
