TQA.pdb
     RDKit          3D

 22 21  0  0  1  0  0  0  0  0999 V2000
   18.9422  -11.0049  -14.7481 C   0  0  0  0  0  0  0  0  0  0  0  0
   17.4940  -11.3237  -15.0386 C   0  0  1  0  0  0  0  0  0  0  0  0
   17.3260  -12.6707  -15.3260 O   0  0  0  0  0  0  0  0  0  0  0  0
   16.6806  -10.9258  -13.8354 C   0  0  2  0  0  0  0  0  0  0  0  0
   15.3112  -11.3496  -13.9498 N   0  0  0  0  0  0  0  0  0  0  0  0
   16.7695   -9.4621  -13.5722 C   0  0  0  0  0  0  0  0  0  0  0  0
   16.2703   -8.6238  -14.3891 O   0  0  0  0  0  0  0  0  0  0  0  0
   15.8954   -6.8310   -8.3678 N   0  0  0  0  0  0  0  0  0  0  0  0
   15.0249   -6.9656   -9.4725 C   0  0  0  0  0  0  0  0  0  0  0  0
   13.8002   -6.8327   -9.2925 O   0  0  0  0  0  0  0  0  0  0  0  0
   15.5923   -7.2625  -10.8228 C   0  0  0  0  0  0  0  0  0  0  0  0
   17.0964   -7.3515  -10.7739 C   0  0  0  0  0  0  0  0  0  0  0  0
   17.6305   -7.6250  -12.1379 C   0  0  2  0  0  0  0  0  0  0  0  0
   17.4207   -9.0399  -12.3959 N   0  0  0  0  0  0  0  0  0  0  0  0
   19.0448   -7.3169  -12.3544 C   0  0  0  0  0  0  0  0  0  0  0  0
   20.0198   -7.8825  -11.7700 O   0  0  0  0  0  0  0  0  0  0  0  0
   20.8841   -5.2371  -14.9508 C   0  0  0  0  0  0  0  0  0  0  0  0
   20.7443   -5.9505  -13.6375 C   0  0  2  0  0  0  0  0  0  0  0  0
   19.3840   -6.2876  -13.3070 N   0  0  0  0  0  0  0  0  0  0  0  0
   21.3939   -5.2057  -12.5510 C   0  0  0  0  0  0  0  0  0  0  0  0
   20.6672   -4.5263  -11.7545 O   0  0  0  0  0  0  0  0  0  0  0  0
   22.7572   -5.2239  -12.3738 O   0  0  0  0  0  0  0  0  0  0  0  0
  2  4  1  0
  2  1  1  1
  3  2  1  0
  4  5  1  6
  6  4  1  0
  6 14  1  0
  7  6  2  0
  8  9  1  0
  9 11  1  0
 10  9  2  0
 11 12  1  0
 13 12  1  1
 13 14  1  0
 15 13  1  0
 16 15  2  0
 18 19  1  0
 18 17  1  6
 19 15  1  0
 20 18  1  0
 21 20  2  0
 22 20  1  0
M  END
$$$$
