RLL.pdb
     RDKit          3D

 28 27  0  0  1  0  0  0  0  0999 V2000
    7.0799  -13.4759   19.0070 N   0  0  0  0  0  0  0  0  0  0  0  0
    8.3815  -13.0026   18.6346 C   0  0  0  0  0  0  0  0  0  0  0  0
    8.6310  -11.7524   18.5399 N   0  0  0  0  0  0  0  0  0  0  0  0
    9.4188  -13.9517   18.3618 N   0  0  0  0  0  0  0  0  0  0  0  0
    9.2171  -15.3607   18.4359 C   0  0  0  0  0  0  0  0  0  0  0  0
    8.7115  -15.9805   19.6542 C   0  0  0  0  0  0  0  0  0  0  0  0
    9.5485  -16.2414   20.8401 C   0  0  0  0  0  0  0  0  0  0  0  0
    8.9563  -16.9408   21.9896 C   0  0  2  0  0  0  0  0  0  0  0  0
    7.5547  -17.0400   21.9392 N   0  0  0  0  0  0  0  0  0  0  0  0
    9.3413  -16.3142   23.3032 C   0  0  0  0  0  0  0  0  0  0  0  0
   10.5316  -16.1550   23.6617 O   0  0  0  0  0  0  0  0  0  0  0  0
    9.5613  -11.3719   18.3127 C   0  0  0  0  0  0  0  0  0  0  0  0
    8.2806  -12.3644   25.8702 C   0  0  2  0  0  0  0  0  0  0  0  0
    7.1680  -13.3925   25.5042 C   0  0  0  0  0  0  0  0  0  0  0  0
    5.8998  -12.7920   26.0813 C   0  0  0  0  0  0  0  0  0  0  0  0
    7.4907  -14.6961   26.1673 C   0  0  2  0  0  0  0  0  0  0  0  0
    8.6038  -15.4915   25.5813 N   0  0  0  0  0  0  0  0  0  0  0  0
    8.3332  -15.8605   24.2248 C   0  0  0  0  0  0  0  0  0  0  0  0
    8.7792  -16.7488   26.4198 O   0  0  0  0  0  0  0  0  0  0  0  0
    8.3170  -17.8052   25.9305 C   0  0  0  0  0  0  0  0  0  0  0  0
   11.8500  -20.0676   26.9941 C   0  0  2  0  0  0  0  0  0  0  0  0
   11.5345  -18.8914   26.0580 C   0  0  0  0  0  0  0  0  0  0  0  0
   12.5858  -18.9352   24.9852 C   0  0  0  0  0  0  0  0  0  0  0  0
   11.5412  -17.6669   26.9011 C   0  0  2  0  0  0  0  0  0  0  0  0
   10.4825  -17.6191   27.9713 N   0  0  0  0  0  0  0  0  0  0  0  0
    9.4335  -16.6783   27.6738 C   0  0  0  0  0  0  0  0  0  0  0  0
   11.0028  -17.3816   29.3237 O   0  0  0  0  0  0  0  0  0  0  0  0
   11.2347  -18.3474   30.0919 O   0  0  0  0  0  0  0  0  0  0  0  0
  2  1  1  0
  3  2  2  0
  4  2  1  0
  5  4  1  0
  6  5  1  0
  7  6  1  0
  8  7  1  0
  8  9  1  6
 10 11  2  0
 10  8  1  0
 13 12  1  6
 13 15  1  0
 14 13  1  0
 16 15  1  6
 16 18  1  0
 16 17  1  0
 17 10  1  0
 18 19  2  0
 21 20  1  6
 21 22  1  0
 23 21  1  0
 24 23  1  6
 25 24  1  0
 25 18  1  0
 26 28  1  0
 26 24  1  0
 27 26  2  0
M  END
$$$$
