RLL.pdb
     RDKit          3D

 28 27  0  0  1  0  0  0  0  0999 V2000
    9.6974  -14.1880   16.3228 N   0  0  0  0  0  0  0  0  0  0  0  0
    8.2799  -14.3895   16.4056 C   0  0  0  0  0  0  0  0  0  0  0  0
    7.4806  -13.8289   15.5803 N   0  0  0  0  0  0  0  0  0  0  0  0
    7.7529  -15.2337   17.4356 N   0  0  0  0  0  0  0  0  0  0  0  0
    8.3603  -15.3597   18.7188 C   0  0  0  0  0  0  0  0  0  0  0  0
    8.5048  -14.2036   19.5943 C   0  0  0  0  0  0  0  0  0  0  0  0
    9.1512  -14.2636   20.9184 C   0  0  0  0  0  0  0  0  0  0  0  0
    8.6956  -15.2703   21.8882 C   0  0  2  0  0  0  0  0  0  0  0  0
    7.3159  -15.5350   21.8329 N   0  0  0  0  0  0  0  0  0  0  0  0
    9.0529  -14.9058   23.3044 C   0  0  0  0  0  0  0  0  0  0  0  0
   10.2264  -14.6655   23.6730 O   0  0  0  0  0  0  0  0  0  0  0  0
    6.4572  -13.9459   15.6083 C   0  0  0  0  0  0  0  0  0  0  0  0
    7.6607  -11.4282   25.8384 C   0  0  2  0  0  0  0  0  0  0  0  0
    6.6348  -12.5844   25.6395 C   0  0  0  0  0  0  0  0  0  0  0  0
    5.3706  -12.0822   26.3117 C   0  0  0  0  0  0  0  0  0  0  0  0
    7.1575  -13.8058   26.3309 C   0  0  2  0  0  0  0  0  0  0  0  0
    8.3062  -14.5020   25.6898 N   0  0  0  0  0  0  0  0  0  0  0  0
    8.0364  -14.8158   24.3193 C   0  0  0  0  0  0  0  0  0  0  0  0
    8.5685  -15.7883   26.4587 O   0  0  0  0  0  0  0  0  0  0  0  0
    8.5383  -15.6984   27.7077 C   0  0  0  0  0  0  0  0  0  0  0  0
    6.5136  -21.1737   26.6299 C   0  0  1  0  0  0  0  0  0  0  0  0
    7.6936  -20.3382   27.1482 C   0  0  0  0  0  0  0  0  0  0  0  0
    7.4836  -20.2182   28.6313 C   0  0  0  0  0  0  0  0  0  0  0  0
    7.6639  -19.0545   26.3987 C   0  0  2  0  0  0  0  0  0  0  0  0
    8.9179  -18.2260   26.4953 N   0  0  0  0  0  0  0  0  0  0  0  0
    8.8269  -16.9919   25.7586 C   0  0  0  0  0  0  0  0  0  0  0  0
   10.1444  -18.9436   26.1254 O   0  0  0  0  0  0  0  0  0  0  0  0
   10.5089  -18.9978   24.9249 O   0  0  0  0  0  0  0  0  0  0  0  0
  2  1  1  0
  3  2  2  0
  4  2  1  0
  5  4  1  0
  6  5  1  0
  7  6  1  0
  8  7  1  0
  8  9  1  1
 10 11  2  0
 10  8  1  0
 13 12  1  6
 13 15  1  0
 14 13  1  0
 16 15  1  6
 16 18  1  0
 16 17  1  0
 17 10  1  0
 18 19  2  0
 21 20  1  1
 21 22  1  0
 23 21  1  0
 24 23  1  1
 25 24  1  0
 25 18  1  0
 26 28  1  0
 26 24  1  0
 27 26  2  0
M  END
$$$$
