RLL.pdb
     RDKit          3D

 28 27  0  0  1  0  0  0  0  0999 V2000
    7.4196  -14.8882   16.1685 N   0  0  0  0  0  0  0  0  0  0  0  0
    8.1522  -13.6600   16.0611 C   0  0  0  0  0  0  0  0  0  0  0  0
    8.8136  -13.3718   15.0057 N   0  0  0  0  0  0  0  0  0  0  0  0
    8.1426  -12.7420   17.1604 N   0  0  0  0  0  0  0  0  0  0  0  0
    7.3609  -12.9487   18.3341 C   0  0  0  0  0  0  0  0  0  0  0  0
    7.6407  -14.0619   19.2322 C   0  0  0  0  0  0  0  0  0  0  0  0
    8.9612  -14.2992   19.8442 C   0  0  0  0  0  0  0  0  0  0  0  0
    9.1360  -15.4563   20.7342 C   0  0  2  0  0  0  0  0  0  0  0  0
    8.0112  -16.2965   20.8080 N   0  0  0  0  0  0  0  0  0  0  0  0
    9.5194  -15.0518   22.1327 C   0  0  0  0  0  0  0  0  0  0  0  0
   10.6420  -14.5763   22.4232 O   0  0  0  0  0  0  0  0  0  0  0  0
    9.4421  -12.5587   14.9305 C   0  0  0  0  0  0  0  0  0  0  0  0
    7.7127  -12.0745   25.2559 C   0  0  2  0  0  0  0  0  0  0  0  0
    6.8370  -13.3325   24.9739 C   0  0  0  0  0  0  0  0  0  0  0  0
    5.6396  -13.1676   25.8909 C   0  0  0  0  0  0  0  0  0  0  0  0
    7.6263  -14.5513   25.3410 C   0  0  2  0  0  0  0  0  0  0  0  0
    8.8728  -14.8035   24.5680 N   0  0  0  0  0  0  0  0  0  0  0  0
    8.5895  -15.1980   23.2213 C   0  0  0  0  0  0  0  0  0  0  0  0
    9.6457  -15.9128   25.2657 O   0  0  0  0  0  0  0  0  0  0  0  0
   10.2340  -16.7276   24.5180 C   0  0  0  0  0  0  0  0  0  0  0  0
   11.4312  -14.1717   28.5603 C   0  0  1  0  0  0  0  0  0  0  0  0
   10.4098  -15.1509   29.1580 C   0  0  0  0  0  0  0  0  0  0  0  0
   10.4099  -14.8828   30.6366 C   0  0  0  0  0  0  0  0  0  0  0  0
   10.8501  -16.5146   28.7619 C   0  0  2  0  0  0  0  0  0  0  0  0
   10.5862  -16.8820   27.3254 N   0  0  0  0  0  0  0  0  0  0  0  0
    9.6688  -15.9785   26.6802 C   0  0  0  0  0  0  0  0  0  0  0  0
   10.1479  -18.2695   27.1287 O   0  0  0  0  0  0  0  0  0  0  0  0
    9.0569  -18.5142   26.5573 O   0  0  0  0  0  0  0  0  0  0  0  0
  2  1  1  0
  3  2  2  0
  4  2  1  0
  5  4  1  0
  6  5  1  0
  7  6  1  0
  8  7  1  0
  8  9  1  1
 10 11  2  0
 10  8  1  0
 13 12  1  6
 13 15  1  0
 14 13  1  0
 16 15  1  6
 16 18  1  0
 16 17  1  0
 17 10  1  0
 18 19  2  0
 21 20  1  6
 21 22  1  0
 23 21  1  0
 24 23  1  6
 25 24  1  0
 25 18  1  0
 26 28  1  0
 26 24  1  0
 27 26  2  0
M  END
$$$$
