RLL.pdb
     RDKit          3D

 28 27  0  0  1  0  0  0  0  0999 V2000
   10.3593  -20.9924   16.1162 N   0  0  0  0  0  0  0  0  0  0  0  0
   10.4735  -22.1211   16.9936 C   0  0  0  0  0  0  0  0  0  0  0  0
   10.1069  -23.2886   16.6241 N   0  0  0  0  0  0  0  0  0  0  0  0
   11.0067  -21.9324   18.3094 N   0  0  0  0  0  0  0  0  0  0  0  0
   10.9683  -20.6792   18.9873 C   0  0  0  0  0  0  0  0  0  0  0  0
   10.5216  -19.4725   18.3030 C   0  0  0  0  0  0  0  0  0  0  0  0
   10.4716  -18.1461   18.9455 C   0  0  0  0  0  0  0  0  0  0  0  0
   10.0116  -18.0465   20.3383 C   0  0  2  0  0  0  0  0  0  0  0  0
    8.6544  -18.3670   20.5171 N   0  0  0  0  0  0  0  0  0  0  0  0
   10.2597  -16.6841   20.9287 C   0  0  0  0  0  0  0  0  0  0  0  0
   11.4075  -16.2424   21.1698 O   0  0  0  0  0  0  0  0  0  0  0  0
   10.1858  -24.1264   17.2189 C   0  0  0  0  0  0  0  0  0  0  0  0
    8.7748  -12.7657   19.0276 C   0  0  2  0  0  0  0  0  0  0  0  0
    7.7294  -13.6116   19.8153 C   0  0  0  0  0  0  0  0  0  0  0  0
    6.4224  -12.8659   19.6210 C   0  0  0  0  0  0  0  0  0  0  0  0
    8.1247  -13.6279   21.2599 C   0  0  2  0  0  0  0  0  0  0  0  0
    9.3202  -14.4372   21.6211 N   0  0  0  0  0  0  0  0  0  0  0  0
    9.1617  -15.8104   21.2486 C   0  0  0  0  0  0  0  0  0  0  0  0
    9.5175  -14.3435   23.1268 O   0  0  0  0  0  0  0  0  0  0  0  0
   10.0111  -13.2734   23.5513 C   0  0  0  0  0  0  0  0  0  0  0  0
    6.1903  -12.9858   26.9407 C   0  0  1  0  0  0  0  0  0  0  0  0
    7.4555  -13.8562   26.9700 C   0  0  0  0  0  0  0  0  0  0  0  0
    8.4718  -13.0666   27.7457 C   0  0  0  0  0  0  0  0  0  0  0  0
    7.8133  -14.1292   25.5529 C   0  0  2  0  0  0  0  0  0  0  0  0
    8.8696  -15.1834   25.3496 N   0  0  0  0  0  0  0  0  0  0  0  0
    9.1491  -15.4290   23.9584 C   0  0  0  0  0  0  0  0  0  0  0  0
    8.5972  -16.4506   26.0395 O   0  0  0  0  0  0  0  0  0  0  0  0
    8.0045  -17.3825   25.4420 O   0  0  0  0  0  0  0  0  0  0  0  0
  2  1  1  0
  3  2  2  0
  4  2  1  0
  5  4  1  0
  6  5  1  0
  7  6  1  0
  8  7  1  0
  8  9  1  6
 10 11  2  0
 10  8  1  0
 13 12  1  6
 13 15  1  0
 14 13  1  0
 16 15  1  6
 16 18  1  0
 16 17  1  0
 17 10  1  0
 18 19  2  0
 21 20  1  1
 21 22  1  0
 23 21  1  0
 24 23  1  1
 25 24  1  0
 25 18  1  0
 26 28  1  0
 26 24  1  0
 27 26  2  0
M  END
$$$$
