RLL.pdb
     RDKit          3D

 28 27  0  0  1  0  0  0  0  0999 V2000
    8.8709  -13.2210   15.5770 N   0  0  0  0  0  0  0  0  0  0  0  0
    8.6521  -13.8458   14.3048 C   0  0  0  0  0  0  0  0  0  0  0  0
    8.5616  -13.1549   13.2330 N   0  0  0  0  0  0  0  0  0  0  0  0
    8.5304  -15.2713   14.2378 N   0  0  0  0  0  0  0  0  0  0  0  0
    8.6183  -16.1101   15.3867 C   0  0  0  0  0  0  0  0  0  0  0  0
    9.7941  -16.0784   16.2473 C   0  0  0  0  0  0  0  0  0  0  0  0
   10.5764  -17.2783   16.5977 C   0  0  0  0  0  0  0  0  0  0  0  0
   10.2674  -17.9902   17.8464 C   0  0  2  0  0  0  0  0  0  0  0  0
    8.9809  -18.5561   17.8792 N   0  0  0  0  0  0  0  0  0  0  0  0
   10.4332  -17.1165   19.0611 C   0  0  0  0  0  0  0  0  0  0  0  0
   11.4921  -16.4974   19.3184 O   0  0  0  0  0  0  0  0  0  0  0  0
    8.4490  -13.5680   12.2957 C   0  0  0  0  0  0  0  0  0  0  0  0
    8.5819  -13.1618   20.5307 C   0  0  2  0  0  0  0  0  0  0  0  0
    7.6447  -14.4019   20.4179 C   0  0  0  0  0  0  0  0  0  0  0  0
    6.2739  -13.8696   20.7916 C   0  0  0  0  0  0  0  0  0  0  0  0
    8.1031  -15.4333   21.4025 C   0  0  2  0  0  0  0  0  0  0  0  0
    9.4160  -16.0813   21.1358 N   0  0  0  0  0  0  0  0  0  0  0  0
    9.3556  -16.9516   20.0007 C   0  0  0  0  0  0  0  0  0  0  0  0
    9.8052  -16.8858   22.3671 O   0  0  0  0  0  0  0  0  0  0  0  0
    9.2324  -17.9912   22.5055 C   0  0  0  0  0  0  0  0  0  0  0  0
   12.9680  -19.6047   24.8850 C   0  0  1  0  0  0  0  0  0  0  0  0
   13.5814  -18.2050   25.0398 C   0  0  0  0  0  0  0  0  0  0  0  0
   13.3921  -17.8380   26.4846 C   0  0  0  0  0  0  0  0  0  0  0  0
   12.8804  -17.3265   24.0664 C   0  0  1  0  0  0  0  0  0  0  0  0
   11.3833  -17.2660   24.2194 N   0  0  0  0  0  0  0  0  0  0  0  0
   10.7638  -16.3729   23.2745 C   0  0  0  0  0  0  0  0  0  0  0  0
   10.9286  -16.9534   25.5800 O   0  0  0  0  0  0  0  0  0  0  0  0
   10.6918  -15.7656   25.9116 O   0  0  0  0  0  0  0  0  0  0  0  0
  2  1  1  0
  3  2  2  0
  4  2  1  0
  5  4  1  0
  6  5  1  0
  7  6  1  0
  8  7  1  0
  8  9  1  6
 10 11  2  0
 10  8  1  0
 13 12  1  6
 13 15  1  0
 14 13  1  0
 16 15  1  6
 16 18  1  0
 16 17  1  0
 17 10  1  0
 18 19  2  0
 21 20  1  1
 21 22  1  0
 23 21  1  0
 24 23  1  6
 25 24  1  0
 25 18  1  0
 26 28  1  0
 26 24  1  0
 27 26  2  0
M  END
$$$$
