RLL.pdb
     RDKit          3D

 28 27  0  0  1  0  0  0  0  0999 V2000
    7.1826  -12.4879   17.9879 N   0  0  0  0  0  0  0  0  0  0  0  0
    8.2482  -13.2826   17.4494 C   0  0  0  0  0  0  0  0  0  0  0  0
    9.3676  -12.7583   17.1234 N   0  0  0  0  0  0  0  0  0  0  0  0
    8.0500  -14.6899   17.2723 N   0  0  0  0  0  0  0  0  0  0  0  0
    6.8921  -15.3735   17.7449 C   0  0  0  0  0  0  0  0  0  0  0  0
    6.9971  -16.3952   18.7789 C   0  0  0  0  0  0  0  0  0  0  0  0
    7.1736  -16.0866   20.2101 C   0  0  0  0  0  0  0  0  0  0  0  0
    8.2566  -16.7477   20.9527 C   0  0  2  0  0  0  0  0  0  0  0  0
    8.6592  -17.9778   20.4036 N   0  0  0  0  0  0  0  0  0  0  0  0
    7.9098  -16.9649   22.4014 C   0  0  0  0  0  0  0  0  0  0  0  0
    7.3024  -16.1149   23.0937 O   0  0  0  0  0  0  0  0  0  0  0  0
   10.1553  -13.2936   16.7299 C   0  0  0  0  0  0  0  0  0  0  0  0
    5.6702  -20.5710   24.6883 C   0  0  2  0  0  0  0  0  0  0  0  0
    7.0739  -20.7836   24.0455 C   0  0  0  0  0  0  0  0  0  0  0  0
    7.3804  -22.2488   24.2932 C   0  0  0  0  0  0  0  0  0  0  0  0
    8.0580  -19.9054   24.7552 C   0  0  2  0  0  0  0  0  0  0  0  0
    8.0027  -18.4497   24.4501 N   0  0  0  0  0  0  0  0  0  0  0  0
    8.2702  -18.1883   23.0683 C   0  0  0  0  0  0  0  0  0  0  0  0
    9.0455  -17.7471   25.3067 O   0  0  0  0  0  0  0  0  0  0  0  0
   10.1466  -17.5182   24.7553 C   0  0  0  0  0  0  0  0  0  0  0  0
    8.8352  -12.9204   28.5596 C   0  0  1  0  0  0  0  0  0  0  0  0
    9.7398  -14.1396   28.3264 C   0  0  0  0  0  0  0  0  0  0  0  0
   10.9490  -13.6140   27.6055 C   0  0  0  0  0  0  0  0  0  0  0  0
    8.9295  -15.1277   27.5663 C   0  0  2  0  0  0  0  0  0  0  0  0
    9.5945  -16.4586   27.3326 N   0  0  0  0  0  0  0  0  0  0  0  0
    8.7418  -17.3927   26.6437 C   0  0  0  0  0  0  0  0  0  0  0  0
   10.1445  -17.0787   28.5446 O   0  0  0  0  0  0  0  0  0  0  0  0
    9.5749  -18.0705   29.0631 O   0  0  0  0  0  0  0  0  0  0  0  0
  2  1  1  0
  3  2  2  0
  4  2  1  0
  5  4  1  0
  6  5  1  0
  7  6  1  0
  8  7  1  0
  8  9  1  6
 10 11  2  0
 10  8  1  0
 13 12  1  6
 13 15  1  0
 14 13  1  0
 16 15  1  6
 16 18  1  0
 16 17  1  0
 17 10  1  0
 18 19  2  0
 21 20  1  1
 21 22  1  0
 23 21  1  0
 24 23  1  6
 25 24  1  0
 25 18  1  0
 26 28  1  0
 26 24  1  0
 27 26  2  0
M  END
$$$$
