RLL.pdb
     RDKit          3D

 28 27  0  0  1  0  0  0  0  0999 V2000
    9.1834  -15.3572   16.2630 N   0  0  0  0  0  0  0  0  0  0  0  0
    8.3500  -14.2344   15.9440 C   0  0  0  0  0  0  0  0  0  0  0  0
    7.7350  -14.1609   14.8257 N   0  0  0  0  0  0  0  0  0  0  0  0
    8.2084  -13.1757   16.8981 N   0  0  0  0  0  0  0  0  0  0  0  0
    8.8137  -13.2106   18.1880 C   0  0  0  0  0  0  0  0  0  0  0  0
    8.5213  -14.2904   19.1221 C   0  0  0  0  0  0  0  0  0  0  0  0
    9.1383  -14.3984   20.4572 C   0  0  0  0  0  0  0  0  0  0  0  0
    8.7376  -15.5041   21.3394 C   0  0  2  0  0  0  0  0  0  0  0  0
    7.3670  -15.8122   21.2845 N   0  0  0  0  0  0  0  0  0  0  0  0
    9.1116  -15.2561   22.7764 C   0  0  0  0  0  0  0  0  0  0  0  0
   10.2936  -15.0813   23.1546 O   0  0  0  0  0  0  0  0  0  0  0  0
    7.2134  -13.3282   14.5151 C   0  0  0  0  0  0  0  0  0  0  0  0
    8.2167  -11.9645   26.1548 C   0  0  2  0  0  0  0  0  0  0  0  0
    7.0461  -12.7626   25.5054 C   0  0  0  0  0  0  0  0  0  0  0  0
    5.8016  -12.2147   26.1784 C   0  0  0  0  0  0  0  0  0  0  0  0
    7.2291  -14.2148   25.8234 C   0  0  2  0  0  0  0  0  0  0  0  0
    8.3754  -14.9065   25.1735 N   0  0  0  0  0  0  0  0  0  0  0  0
    8.1021  -15.2082   23.8010 C   0  0  0  0  0  0  0  0  0  0  0  0
    8.6384  -16.1997   25.9307 O   0  0  0  0  0  0  0  0  0  0  0  0
    8.1042  -17.2306   25.4607 C   0  0  0  0  0  0  0  0  0  0  0  0
   11.3002  -19.4743   25.5303 C   0  0  2  0  0  0  0  0  0  0  0  0
   11.4874  -17.9781   25.2379 C   0  0  0  0  0  0  0  0  0  0  0  0
   12.7260  -17.8830   24.3925 C   0  0  0  0  0  0  0  0  0  0  0  0
   11.5675  -17.2966   26.5570 C   0  0  2  0  0  0  0  0  0  0  0  0
   10.2982  -17.3164   27.3673 N   0  0  0  0  0  0  0  0  0  0  0  0
    9.4464  -16.1878   27.0936 C   0  0  0  0  0  0  0  0  0  0  0  0
   10.5089  -17.4485   28.8144 O   0  0  0  0  0  0  0  0  0  0  0  0
   10.6680  -16.4270   29.5273 O   0  0  0  0  0  0  0  0  0  0  0  0
  2  1  1  0
  3  2  2  0
  4  2  1  0
  5  4  1  0
  6  5  1  0
  7  6  1  0
  8  7  1  0
  8  9  1  1
 10 11  2  0
 10  8  1  0
 13 12  1  6
 13 15  1  0
 14 13  1  0
 16 15  1  6
 16 18  1  0
 16 17  1  0
 17 10  1  0
 18 19  2  0
 21 20  1  6
 21 22  1  0
 23 21  1  0
 24 23  1  6
 25 24  1  0
 25 18  1  0
 26 28  1  0
 26 24  1  0
 27 26  2  0
M  END
$$$$
