RLL.pdb
     RDKit          3D

 28 27  0  0  1  0  0  0  0  0999 V2000
    7.5207  -12.6419   17.8952 N   0  0  0  0  0  0  0  0  0  0  0  0
    7.6784  -13.7981   17.0615 C   0  0  0  0  0  0  0  0  0  0  0  0
    7.9612  -13.6873   15.8197 N   0  0  0  0  0  0  0  0  0  0  0  0
    7.5125  -15.1005   17.6338 N   0  0  0  0  0  0  0  0  0  0  0  0
    6.9507  -15.3115   18.9266 C   0  0  0  0  0  0  0  0  0  0  0  0
    7.6939  -14.9624   20.1307 C   0  0  0  0  0  0  0  0  0  0  0  0
    8.9079  -15.6747   20.5706 C   0  0  0  0  0  0  0  0  0  0  0  0
    8.9381  -16.2664   21.9161 C   0  0  2  0  0  0  0  0  0  0  0  0
    7.7257  -16.8612   22.3071 N   0  0  0  0  0  0  0  0  0  0  0  0
    9.3413  -15.2715   22.9716 C   0  0  0  0  0  0  0  0  0  0  0  0
   10.4262  -14.6447   22.9413 O   0  0  0  0  0  0  0  0  0  0  0  0
    7.9722  -14.4821   15.1639 C   0  0  0  0  0  0  0  0  0  0  0  0
    7.0489  -11.3921   24.6257 C   0  0  2  0  0  0  0  0  0  0  0  0
    6.4578  -12.7936   24.9652 C   0  0  0  0  0  0  0  0  0  0  0  0
    5.2351  -12.4888   25.8104 C   0  0  0  0  0  0  0  0  0  0  0  0
    7.4752  -13.5582   25.7550 C   0  0  2  0  0  0  0  0  0  0  0  0
    8.7205  -13.9545   25.0429 N   0  0  0  0  0  0  0  0  0  0  0  0
    8.4760  -14.9918   24.0871 C   0  0  0  0  0  0  0  0  0  0  0  0
    9.7201  -14.4488   26.0779 O   0  0  0  0  0  0  0  0  0  0  0  0
   10.0757  -13.6142   26.9416 C   0  0  0  0  0  0  0  0  0  0  0  0
    9.7203  -16.6397   30.7952 C   0  0  1  0  0  0  0  0  0  0  0  0
   10.7487  -16.7368   29.6585 C   0  0  0  0  0  0  0  0  0  0  0  0
   11.9451  -15.9580   30.1279 C   0  0  0  0  0  0  0  0  0  0  0  0
   10.0839  -16.2029   28.4405 C   0  0  2  0  0  0  0  0  0  0  0  0
   10.8797  -16.3284   27.1680 N   0  0  0  0  0  0  0  0  0  0  0  0
   10.1919  -15.7830   26.0263 C   0  0  0  0  0  0  0  0  0  0  0  0
   11.3374  -17.6925   26.8754 O   0  0  0  0  0  0  0  0  0  0  0  0
   12.3356  -18.1672   27.4712 O   0  0  0  0  0  0  0  0  0  0  0  0
  2  1  1  0
  3  2  2  0
  4  2  1  0
  5  4  1  0
  6  5  1  0
  7  6  1  0
  8  7  1  0
  8  9  1  1
 10 11  2  0
 10  8  1  0
 13 12  1  6
 13 15  1  0
 14 13  1  0
 16 15  1  6
 16 18  1  0
 16 17  1  0
 17 10  1  0
 18 19  2  0
 21 20  1  1
 21 22  1  0
 23 21  1  0
 24 23  1  1
 25 24  1  0
 25 18  1  0
 26 28  1  0
 26 24  1  0
 27 26  2  0
M  END
$$$$
