AVW.pdb
     RDKit          3D

 27 28  0  0  1  0  0  0  0  0999 V2000
   29.6408  -20.7218  -15.9710 C   0  0  0  0  0  0  0  0  0  0  0  0
   28.1932  -20.5561  -16.3099 C   0  0  2  0  0  0  0  0  0  0  0  0
   28.0391  -19.6756  -17.4515 N   0  0  0  0  0  0  0  0  0  0  0  0
   27.3485  -20.1656  -15.1767 C   0  0  0  0  0  0  0  0  0  0  0  0
   27.1870  -18.9405  -14.9264 O   0  0  0  0  0  0  0  0  0  0  0  0
   23.8360  -20.6043  -14.7738 C   0  0  0  0  0  0  0  0  0  0  0  0
   24.4220  -21.1268  -13.5035 C   0  0  2  0  0  0  0  0  0  0  0  0
   23.4814  -20.6959  -12.3701 C   0  0  0  0  0  0  0  0  0  0  0  0
   25.8274  -20.6508  -13.2294 C   0  0  2  0  0  0  0  0  0  0  0  0
   26.6754  -21.0732  -14.3093 N   0  0  0  0  0  0  0  0  0  0  0  0
   26.2543  -21.1694  -11.9210 C   0  0  0  0  0  0  0  0  0  0  0  0
   27.0126  -22.1788  -11.8604 O   0  0  0  0  0  0  0  0  0  0  0  0
   25.8681  -20.6074  -10.6556 N   0  0  0  0  0  0  0  0  0  0  0  0
   26.3023  -21.1850   -9.4079 C   0  0  1  0  0  0  0  0  0  0  0  0
   27.6770  -20.8115   -8.9687 C   0  0  0  0  0  0  0  0  0  0  0  0
   27.7983  -20.0946   -7.7041 C   0  0  0  0  0  0  0  0  0  0  0  0
   27.0257  -18.9733   -7.3649 C   0  0  0  0  0  0  0  0  0  0  0  0
   27.4418  -18.6055   -6.1479 N   0  0  0  0  0  0  0  0  0  0  0  0
   28.4272  -19.4264   -5.7025 C   0  0  0  0  0  0  0  0  0  0  0  0
   29.1471  -19.4439   -4.5244 C   0  0  0  0  0  0  0  0  0  0  0  0
   30.1002  -20.4056   -4.3200 C   0  0  0  0  0  0  0  0  0  0  0  0
   30.3557  -21.3765   -5.2947 C   0  0  0  0  0  0  0  0  0  0  0  0
   29.6365  -21.3514   -6.4613 C   0  0  0  0  0  0  0  0  0  0  0  0
   28.6757  -20.3888   -6.6782 C   0  0  0  0  0  0  0  0  0  0  0  0
   25.2738  -20.8861   -8.3867 C   0  0  0  0  0  0  0  0  0  0  0  0
   25.2052  -21.6505   -7.2442 O   0  0  0  0  0  0  0  0  0  0  0  0
   24.4707  -19.9411   -8.5640 O   0  0  0  0  0  0  0  0  0  0  0  0
  2  1  1  1
  2  3  1  0
  4  5  2  0
  4  2  1  0
  7  6  1  6
  7  9  1  0
  8  7  1  0
  9 10  1  6
 10  4  1  0
 11  9  1  0
 11 13  1  0
 12 11  2  0
 14 13  1  0
 14 25  1  0
 14 15  1  1
 16 15  1  0
 17 16  2  0
 18 17  1  0
 19 18  1  0
 19 24  2  0
 20 19  1  0
 21 20  2  0
 21 22  1  0
 22 23  2  0
 23 24  1  0
 24 16  1  0
 25 26  1  0
 27 25  2  0
M  END
$$$$
