AVW.pdb
     RDKit          3D

 27 28  0  0  1  0  0  0  0  0999 V2000
   22.4494  -19.0609  -14.6174 C   0  0  0  0  0  0  0  0  0  0  0  0
   23.8506  -18.8397  -15.0919 C   0  0  2  0  0  0  0  0  0  0  0  0
   23.8742  -18.6555  -16.5299 N   0  0  0  0  0  0  0  0  0  0  0  0
   24.8094  -19.8511  -14.6358 C   0  0  0  0  0  0  0  0  0  0  0  0
   24.4867  -21.0688  -14.6876 O   0  0  0  0  0  0  0  0  0  0  0  0
   28.7128  -18.8799  -12.9487 C   0  0  0  0  0  0  0  0  0  0  0  0
   28.4405  -20.0408  -13.8477 C   0  0  2  0  0  0  0  0  0  0  0  0
   28.7149  -19.5667  -15.2811 C   0  0  0  0  0  0  0  0  0  0  0  0
   27.0410  -20.5940  -13.7362 C   0  0  2  0  0  0  0  0  0  0  0  0
   26.1096  -19.5718  -14.1250 N   0  0  0  0  0  0  0  0  0  0  0  0
   26.8322  -21.0756  -12.3623 C   0  0  0  0  0  0  0  0  0  0  0  0
   27.5979  -21.9586  -11.8811 O   0  0  0  0  0  0  0  0  0  0  0  0
   25.7917  -20.6126  -11.4853 N   0  0  0  0  0  0  0  0  0  0  0  0
   25.7370  -21.0114  -10.1008 C   0  0  1  0  0  0  0  0  0  0  0  0
   26.8650  -20.5380   -9.2488 C   0  0  0  0  0  0  0  0  0  0  0  0
   26.6861  -20.6219   -7.8035 C   0  0  0  0  0  0  0  0  0  0  0  0
   25.5900  -21.2446   -7.1871 C   0  0  0  0  0  0  0  0  0  0  0  0
   25.7866  -21.0981   -5.8721 N   0  0  0  0  0  0  0  0  0  0  0  0
   26.9380  -20.4224   -5.6252 C   0  0  0  0  0  0  0  0  0  0  0  0
   27.5481  -20.0456   -4.4452 C   0  0  0  0  0  0  0  0  0  0  0  0
   28.7350  -19.3634   -4.4769 C   0  0  0  0  0  0  0  0  0  0  0  0
   29.3412  -19.0413   -5.6962 C   0  0  0  0  0  0  0  0  0  0  0  0
   28.7285  -19.4191   -6.8626 C   0  0  0  0  0  0  0  0  0  0  0  0
   27.5345  -20.1052   -6.8432 C   0  0  0  0  0  0  0  0  0  0  0  0
   24.4131  -20.6204   -9.5674 C   0  0  0  0  0  0  0  0  0  0  0  0
   23.9662  -21.1662   -8.3856 O   0  0  0  0  0  0  0  0  0  0  0  0
   23.7048  -19.7963  -10.1908 O   0  0  0  0  0  0  0  0  0  0  0  0
  2  1  1  6
  2  3  1  0
  4  5  2  0
  4  2  1  0
  7  6  1  1
  7  9  1  0
  8  7  1  0
  9 10  1  1
 10  4  1  0
 11  9  1  0
 11 13  1  0
 12 11  2  0
 14 13  1  0
 14 25  1  0
 14 15  1  1
 16 15  1  0
 17 16  2  0
 18 17  1  0
 19 18  1  0
 19 24  2  0
 20 19  1  0
 21 20  2  0
 21 22  1  0
 22 23  2  0
 23 24  1  0
 24 16  1  0
 25 26  1  0
 27 25  2  0
M  END
$$$$
