AVW.pdb
     RDKit          3D

 27 28  0  0  1  0  0  0  0  0999 V2000
   22.9982  -17.2581  -16.6145 C   0  0  0  0  0  0  0  0  0  0  0  0
   24.1310  -17.8285  -17.4077 C   0  0  2  0  0  0  0  0  0  0  0  0
   23.6945  -18.1509  -18.7523 N   0  0  0  0  0  0  0  0  0  0  0  0
   24.8235  -18.9443  -16.7554 C   0  0  0  0  0  0  0  0  0  0  0  0
   24.2571  -20.0694  -16.7013 O   0  0  0  0  0  0  0  0  0  0  0  0
   28.1528  -20.5381  -17.4738 C   0  0  0  0  0  0  0  0  0  0  0  0
   28.1215  -20.1671  -16.0276 C   0  0  2  0  0  0  0  0  0  0  0  0
   28.8454  -21.2856  -15.2662 C   0  0  0  0  0  0  0  0  0  0  0  0
   26.7335  -19.9657  -15.4710 C   0  0  2  0  0  0  0  0  0  0  0  0
   26.1157  -18.8675  -16.1608 N   0  0  0  0  0  0  0  0  0  0  0  0
   26.8336  -19.7549  -14.0189 C   0  0  0  0  0  0  0  0  0  0  0  0
   27.0270  -18.5920  -13.5631 O   0  0  0  0  0  0  0  0  0  0  0  0
   26.7281  -20.7970  -13.0344 N   0  0  0  0  0  0  0  0  0  0  0  0
   26.7214  -20.5050  -11.6225 C   0  0  1  0  0  0  0  0  0  0  0  0
   25.7207  -19.4932  -11.1784 C   0  0  0  0  0  0  0  0  0  0  0  0
   24.3211  -19.9040  -11.1672 C   0  0  0  0  0  0  0  0  0  0  0  0
   23.6737  -20.4406  -10.0437 C   0  0  0  0  0  0  0  0  0  0  0  0
   22.4219  -20.6974  -10.4393 N   0  0  0  0  0  0  0  0  0  0  0  0
   22.2437  -20.3551  -11.7409 C   0  0  0  0  0  0  0  0  0  0  0  0
   21.1408  -20.4292  -12.5684 C   0  0  0  0  0  0  0  0  0  0  0  0
   21.2300  -20.0007  -13.8660 C   0  0  0  0  0  0  0  0  0  0  0  0
   22.4306  -19.4858  -14.3672 C   0  0  0  0  0  0  0  0  0  0  0  0
   23.5204  -19.4162  -13.5387 C   0  0  0  0  0  0  0  0  0  0  0  0
   23.4428  -19.8444  -12.2320 C   0  0  0  0  0  0  0  0  0  0  0  0
   26.6010  -21.7875  -10.8940 C   0  0  0  0  0  0  0  0  0  0  0  0
   26.7435  -21.8099   -9.5252 O   0  0  0  0  0  0  0  0  0  0  0  0
   26.3706  -22.8462  -11.5228 O   0  0  0  0  0  0  0  0  0  0  0  0
  2  1  1  1
  2  3  1  0
  4  5  2  0
  4  2  1  0
  7  6  1  6
  7  9  1  0
  8  7  1  0
  9 10  1  6
 10  4  1  0
 11  9  1  0
 11 13  1  0
 12 11  2  0
 14 13  1  0
 14 25  1  0
 14 15  1  6
 16 15  1  0
 17 16  2  0
 18 17  1  0
 19 18  1  0
 19 24  2  0
 20 19  1  0
 21 20  2  0
 21 22  1  0
 22 23  2  0
 23 24  1  0
 24 16  1  0
 25 26  1  0
 27 25  2  0
M  END
$$$$
