AVW.pdb
     RDKit          3D

 27 28  0  0  1  0  0  0  0  0999 V2000
   33.4444  -25.3625  -18.1315 C   0  0  0  0  0  0  0  0  0  0  0  0
   33.7437  -26.2155  -19.3233 C   0  0  2  0  0  0  0  0  0  0  0  0
   34.1733  -25.3937  -20.4380 N   0  0  0  0  0  0  0  0  0  0  0  0
   32.6686  -27.1439  -19.6869 C   0  0  0  0  0  0  0  0  0  0  0  0
   31.8682  -26.8244  -20.6071 O   0  0  0  0  0  0  0  0  0  0  0  0
   33.0240  -31.1548  -20.0752 C   0  0  0  0  0  0  0  0  0  0  0  0
   31.8645  -30.7278  -19.2365 C   0  0  2  0  0  0  0  0  0  0  0  0
   30.7258  -31.7180  -19.5155 C   0  0  0  0  0  0  0  0  0  0  0  0
   31.4049  -29.3133  -19.4913 C   0  0  2  0  0  0  0  0  0  0  0  0
   32.4419  -28.4104  -19.0753 N   0  0  0  0  0  0  0  0  0  0  0  0
   30.1318  -29.0970  -18.7874 C   0  0  0  0  0  0  0  0  0  0  0  0
   29.0682  -29.6109  -19.2370 O   0  0  0  0  0  0  0  0  0  0  0  0
   29.9858  -28.3203  -17.5867 N   0  0  0  0  0  0  0  0  0  0  0  0
   28.6886  -28.0243  -17.0312 C   0  0  1  0  0  0  0  0  0  0  0  0
   27.6736  -27.5179  -17.9985 C   0  0  0  0  0  0  0  0  0  0  0  0
   26.3543  -27.1930  -17.4676 C   0  0  0  0  0  0  0  0  0  0  0  0
   25.9872  -25.9164  -17.0155 C   0  0  0  0  0  0  0  0  0  0  0  0
   24.7208  -26.0328  -16.6006 N   0  0  0  0  0  0  0  0  0  0  0  0
   24.2706  -27.3031  -16.7646 C   0  0  0  0  0  0  0  0  0  0  0  0
   23.0504  -27.8886  -16.4912 C   0  0  0  0  0  0  0  0  0  0  0  0
   22.8525  -29.2157  -16.7650 C   0  0  0  0  0  0  0  0  0  0  0  0
   23.8762  -29.9906  -17.3213 C   0  0  0  0  0  0  0  0  0  0  0  0
   25.0843  -29.4011  -17.5891 C   0  0  0  0  0  0  0  0  0  0  0  0
   25.2952  -28.0674  -17.3178 C   0  0  0  0  0  0  0  0  0  0  0  0
   28.2277  -29.2200  -16.2910 C   0  0  0  0  0  0  0  0  0  0  0  0
   27.5735  -29.0678  -15.0897 O   0  0  0  0  0  0  0  0  0  0  0  0
   28.4335  -30.3640  -16.7582 O   0  0  0  0  0  0  0  0  0  0  0  0
  2  1  1  1
  2  3  1  0
  4  5  2  0
  4  2  1  0
  7  6  1  6
  7  9  1  0
  8  7  1  0
  9 10  1  1
 10  4  1  0
 11  9  1  0
 11 13  1  0
 12 11  2  0
 14 13  1  0
 14 25  1  0
 14 15  1  6
 16 15  1  0
 17 16  2  0
 18 17  1  0
 19 18  1  0
 19 24  2  0
 20 19  1  0
 21 20  2  0
 21 22  1  0
 22 23  2  0
 23 24  1  0
 24 16  1  0
 25 26  1  0
 27 25  2  0
M  END
$$$$
