AVW.pdb
     RDKit          3D

 27 28  0  0  1  0  0  0  0  0999 V2000
   28.0577  -16.4631  -13.8820 C   0  0  0  0  0  0  0  0  0  0  0  0
   27.4242  -17.6161  -14.5938 C   0  0  2  0  0  0  0  0  0  0  0  0
   26.8016  -17.1697  -15.8249 N   0  0  0  0  0  0  0  0  0  0  0  0
   26.5208  -18.4170  -13.7617 C   0  0  0  0  0  0  0  0  0  0  0  0
   25.3416  -18.0127  -13.5729 O   0  0  0  0  0  0  0  0  0  0  0  0
   25.4946  -21.8181  -14.4485 C   0  0  0  0  0  0  0  0  0  0  0  0
   25.8638  -21.8154  -13.0014 C   0  0  2  0  0  0  0  0  0  0  0  0
   24.8218  -22.6768  -12.2754 C   0  0  0  0  0  0  0  0  0  0  0  0
   25.9317  -20.4406  -12.3834 C   0  0  2  0  0  0  0  0  0  0  0  0
   26.8672  -19.6459  -13.1298 N   0  0  0  0  0  0  0  0  0  0  0  0
   26.2922  -20.5787  -10.9641 C   0  0  0  0  0  0  0  0  0  0  0  0
   27.4262  -21.0359  -10.6439 O   0  0  0  0  0  0  0  0  0  0  0  0
   25.4331  -20.2267   -9.8667 N   0  0  0  0  0  0  0  0  0  0  0  0
   25.7407  -20.6130   -8.5121 C   0  0  1  0  0  0  0  0  0  0  0  0
   25.8450  -19.4954   -7.5311 C   0  0  0  0  0  0  0  0  0  0  0  0
   27.1817  -19.1442   -7.0643 C   0  0  0  0  0  0  0  0  0  0  0  0
   28.0702  -18.3287   -7.7817 C   0  0  0  0  0  0  0  0  0  0  0  0
   29.1773  -18.2596   -7.0340 N   0  0  0  0  0  0  0  0  0  0  0  0
   29.0385  -18.9807   -5.8922 C   0  0  0  0  0  0  0  0  0  0  0  0
   29.8957  -19.1975   -4.8316 C   0  0  0  0  0  0  0  0  0  0  0  0
   29.4968  -19.9770   -3.7788 C   0  0  0  0  0  0  0  0  0  0  0  0
   28.2249  -20.5600   -3.7633 C   0  0  0  0  0  0  0  0  0  0  0  0
   27.3806  -20.3396   -4.8204 C   0  0  0  0  0  0  0  0  0  0  0  0
   27.7708  -19.5577   -5.8850 C   0  0  0  0  0  0  0  0  0  0  0  0
   24.7638  -21.6461   -8.1014 C   0  0  0  0  0  0  0  0  0  0  0  0
   23.7374  -21.9898   -8.9514 O   0  0  0  0  0  0  0  0  0  0  0  0
   24.8732  -22.2032   -6.9847 O   0  0  0  0  0  0  0  0  0  0  0  0
  2  1  1  1
  2  3  1  0
  4  5  2  0
  4  2  1  0
  7  6  1  6
  7  9  1  0
  8  7  1  0
  9 10  1  6
 10  4  1  0
 11  9  1  0
 11 13  1  0
 12 11  2  0
 14 13  1  0
 14 25  1  0
 14 15  1  1
 16 15  1  0
 17 16  2  0
 18 17  1  0
 19 18  1  0
 19 24  2  0
 20 19  1  0
 21 20  2  0
 21 22  1  0
 22 23  2  0
 23 24  1  0
 24 16  1  0
 25 26  1  0
 27 25  2  0
M  END
$$$$
