AVW.pdb
     RDKit          3D

 27 28  0  0  1  0  0  0  0  0999 V2000
   28.9729  -26.0292  -16.5458 C   0  0  0  0  0  0  0  0  0  0  0  0
   29.7448  -24.8325  -17.0037 C   0  0  2  0  0  0  0  0  0  0  0  0
   31.1338  -24.9434  -16.6030 N   0  0  0  0  0  0  0  0  0  0  0  0
   29.1481  -23.5478  -16.6250 C   0  0  0  0  0  0  0  0  0  0  0  0
   29.6828  -22.8712  -15.7053 O   0  0  0  0  0  0  0  0  0  0  0  0
   27.4398  -20.7937  -19.1355 C   0  0  0  0  0  0  0  0  0  0  0  0
   26.6168  -21.1538  -17.9425 C   0  0  2  0  0  0  0  0  0  0  0  0
   25.8949  -19.8745  -17.4983 C   0  0  0  0  0  0  0  0  0  0  0  0
   27.4093  -21.7344  -16.7972 C   0  0  2  0  0  0  0  0  0  0  0  0
   27.9852  -22.9804  -17.2209 N   0  0  0  0  0  0  0  0  0  0  0  0
   26.5223  -21.8729  -15.6322 C   0  0  0  0  0  0  0  0  0  0  0  0
   25.6896  -22.8225  -15.5838 O   0  0  0  0  0  0  0  0  0  0  0  0
   26.5186  -20.9869  -14.5003 N   0  0  0  0  0  0  0  0  0  0  0  0
   25.6279  -21.1894  -13.3848 C   0  0  1  0  0  0  0  0  0  0  0  0
   25.9295  -20.3867  -12.1653 C   0  0  0  0  0  0  0  0  0  0  0  0
   25.0520  -20.5716  -11.0148 C   0  0  0  0  0  0  0  0  0  0  0  0
   25.4545  -21.1785   -9.8153 C   0  0  0  0  0  0  0  0  0  0  0  0
   24.3731  -21.1695   -9.0279 N   0  0  0  0  0  0  0  0  0  0  0  0
   23.3173  -20.5947   -9.6588 C   0  0  0  0  0  0  0  0  0  0  0  0
   22.0191  -20.3599   -9.2512 C   0  0  0  0  0  0  0  0  0  0  0  0
   21.1376  -19.7432  -10.0985 C   0  0  0  0  0  0  0  0  0  0  0  0
   21.5373  -19.3456  -11.3791 C   0  0  0  0  0  0  0  0  0  0  0  0
   22.8278  -19.5828  -11.7755 C   0  0  0  0  0  0  0  0  0  0  0  0
   23.7231  -20.2025  -10.9322 C   0  0  0  0  0  0  0  0  0  0  0  0
   24.2427  -20.9971  -13.8688 C   0  0  0  0  0  0  0  0  0  0  0  0
   23.2792  -21.9324  -13.5669 O   0  0  0  0  0  0  0  0  0  0  0  0
   23.9514  -19.9869  -14.5499 O   0  0  0  0  0  0  0  0  0  0  0  0
  2  1  1  1
  2  3  1  0
  4  5  2  0
  4  2  1  0
  7  6  1  6
  7  9  1  0
  8  7  1  0
  9 10  1  6
 10  4  1  0
 11  9  1  0
 11 13  1  0
 12 11  2  0
 14 13  1  0
 14 25  1  0
 14 15  1  1
 16 15  1  0
 17 16  2  0
 18 17  1  0
 19 18  1  0
 19 24  2  0
 20 19  1  0
 21 20  2  0
 21 22  1  0
 22 23  2  0
 23 24  1  0
 24 16  1  0
 25 26  1  0
 27 25  2  0
M  END
$$$$
