AVW.pdb
     RDKit          3D

 27 28  0  0  1  0  0  0  0  0999 V2000
   19.1377  -24.5094  -14.5290 C   0  0  0  0  0  0  0  0  0  0  0  0
   19.7473  -23.4758  -13.6360 C   0  0  2  0  0  0  0  0  0  0  0  0
   18.9557  -22.2611  -13.6550 N   0  0  0  0  0  0  0  0  0  0  0  0
   21.1708  -23.2267  -13.8845 C   0  0  0  0  0  0  0  0  0  0  0  0
   21.9931  -24.1707  -13.7357 O   0  0  0  0  0  0  0  0  0  0  0  0
   22.7969  -21.5243  -17.0200 C   0  0  0  0  0  0  0  0  0  0  0  0
   23.2816  -20.9005  -15.7527 C   0  0  2  0  0  0  0  0  0  0  0  0
   24.7591  -20.5465  -15.9685 C   0  0  0  0  0  0  0  0  0  0  0  0
   23.1237  -21.7753  -14.5334 C   0  0  2  0  0  0  0  0  0  0  0  0
   21.7224  -21.9775  -14.2902 N   0  0  0  0  0  0  0  0  0  0  0  0
   23.8218  -21.1416  -13.4046 C   0  0  0  0  0  0  0  0  0  0  0  0
   23.3097  -20.1391  -12.8299 O   0  0  0  0  0  0  0  0  0  0  0  0
   25.0859  -21.5791  -12.8784 N   0  0  0  0  0  0  0  0  0  0  0  0
   25.7505  -20.8651  -11.8166 C   0  0  1  0  0  0  0  0  0  0  0  0
   25.8262  -21.5779  -10.5095 C   0  0  0  0  0  0  0  0  0  0  0  0
   26.3971  -20.8445   -9.3852 C   0  0  0  0  0  0  0  0  0  0  0  0
   25.6998  -19.8718   -8.6526 C   0  0  0  0  0  0  0  0  0  0  0  0
   26.5618  -19.4315   -7.7292 N   0  0  0  0  0  0  0  0  0  0  0  0
   27.7562  -20.0677   -7.8368 C   0  0  0  0  0  0  0  0  0  0  0  0
   28.9268  -19.9546   -7.1132 C   0  0  0  0  0  0  0  0  0  0  0  0
   30.0052  -20.7363   -7.4313 C   0  0  0  0  0  0  0  0  0  0  0  0
   29.9363  -21.6533   -8.4859 C   0  0  0  0  0  0  0  0  0  0  0  0
   28.7705  -21.7587   -9.1990 C   0  0  0  0  0  0  0  0  0  0  0  0
   27.6794  -20.9776   -8.8885 C   0  0  0  0  0  0  0  0  0  0  0  0
   27.0777  -20.4413  -12.3155 C   0  0  0  0  0  0  0  0  0  0  0  0
   27.8186  -21.2998  -13.0955 O   0  0  0  0  0  0  0  0  0  0  0  0
   27.5222  -19.3061  -12.0275 O   0  0  0  0  0  0  0  0  0  0  0  0
  2  1  1  6
  2  3  1  0
  4  5  2  0
  4  2  1  0
  7  6  1  6
  7  9  1  0
  8  7  1  0
  9 10  1  1
 10  4  1  0
 11  9  1  0
 11 13  1  0
 12 11  2  0
 14 13  1  0
 14 25  1  0
 14 15  1  1
 16 15  1  0
 17 16  2  0
 18 17  1  0
 19 18  1  0
 19 24  2  0
 20 19  1  0
 21 20  2  0
 21 22  1  0
 22 23  2  0
 23 24  1  0
 24 16  1  0
 25 26  1  0
 27 25  2  0
M  END
$$$$
