GGG.pdb
     RDKit          3D

 13 12  0  0  0  0  0  0  0  0999 V2000
    8.6879  -15.5795   16.5394 N   0  0  0  0  0  0  0  0  0  0  0  0
    7.5611  -15.4345   17.4375 C   0  0  0  0  0  0  0  0  0  0  0  0
    7.8701  -14.4097   18.4424 C   0  0  0  0  0  0  0  0  0  0  0  0
    9.0675  -14.1440   18.7036 O   0  0  0  0  0  0  0  0  0  0  0  0
    6.8805  -13.6805   19.1567 N   0  0  0  0  0  0  0  0  0  0  0  0
    7.1878  -12.7806   20.2306 C   0  0  0  0  0  0  0  0  0  0  0  0
    7.7381  -13.3831   21.4351 C   0  0  0  0  0  0  0  0  0  0  0  0
    7.9976  -12.5814   22.4008 O   0  0  0  0  0  0  0  0  0  0  0  0
    8.0245  -14.7362   21.6807 N   0  0  0  0  0  0  0  0  0  0  0  0
    8.4842  -15.2294   22.9687 C   0  0  0  0  0  0  0  0  0  0  0  0
    9.9579  -15.2924   23.0279 C   0  0  0  0  0  0  0  0  0  0  0  0
   10.6581  -14.9661   22.0392 O   0  0  0  0  0  0  0  0  0  0  0  0
   10.5977  -15.7144   24.1799 O   0  0  0  0  0  0  0  0  0  0  0  0
  1  2  1  0
  3  2  1  0
  4  3  2  0
  5  3  1  0
  6  5  1  0
  7  9  1  0
  7  6  1  0
  8  7  2  0
 10  9  1  0
 11 13  1  0
 11 10  1  0
 12 11  2  0
M  END
$$$$
