GGG.pdb
     RDKit          3D

 13 12  0  0  0  0  0  0  0  0999 V2000
    3.1527  -24.6160   21.6036 N   0  0  0  0  0  0  0  0  0  0  0  0
    3.3955  -23.7524   22.7406 C   0  0  0  0  0  0  0  0  0  0  0  0
    3.9687  -22.4842   22.2731 C   0  0  0  0  0  0  0  0  0  0  0  0
    4.7909  -22.4914   21.3261 O   0  0  0  0  0  0  0  0  0  0  0  0
    3.6475  -21.2181   22.8342 N   0  0  0  0  0  0  0  0  0  0  0  0
    4.3370  -20.0077   22.4922 C   0  0  0  0  0  0  0  0  0  0  0  0
    5.6167  -19.7905   23.1494 C   0  0  0  0  0  0  0  0  0  0  0  0
    6.1892  -18.6679   22.9158 O   0  0  0  0  0  0  0  0  0  0  0  0
    6.3119  -20.6545   24.0115 N   0  0  0  0  0  0  0  0  0  0  0  0
    7.5891  -20.3140   24.6166 C   0  0  0  0  0  0  0  0  0  0  0  0
    7.5386  -20.4332   26.0872 C   0  0  0  0  0  0  0  0  0  0  0  0
    6.4846  -20.7840   26.6705 O   0  0  0  0  0  0  0  0  0  0  0  0
    8.6577  -20.1593   26.8535 O   0  0  0  0  0  0  0  0  0  0  0  0
  1  2  1  0
  3  2  1  0
  4  3  2  0
  5  3  1  0
  6  5  1  0
  7  9  1  0
  7  6  1  0
  8  7  2  0
 10  9  1  0
 11 13  1  0
 11 10  1  0
 12 11  2  0
M  END
$$$$
