GGG.pdb
     RDKit          3D

 13 12  0  0  0  0  0  0  0  0999 V2000
    0.6086  -19.9606   17.7860 N   0  0  0  0  0  0  0  0  0  0  0  0
    1.4147  -20.7141   18.7240 C   0  0  0  0  0  0  0  0  0  0  0  0
    2.0786  -19.7863   19.6480 C   0  0  0  0  0  0  0  0  0  0  0  0
    2.7481  -18.8313   19.1873 O   0  0  0  0  0  0  0  0  0  0  0  0
    2.0126  -19.8996   21.0637 N   0  0  0  0  0  0  0  0  0  0  0  0
    2.6826  -18.9998   21.9575 C   0  0  0  0  0  0  0  0  0  0  0  0
    4.0750  -19.3038   22.2495 C   0  0  0  0  0  0  0  0  0  0  0  0
    4.3061  -20.4518   22.7705 O   0  0  0  0  0  0  0  0  0  0  0  0
    5.2068  -18.5000   22.0345 N   0  0  0  0  0  0  0  0  0  0  0  0
    6.5524  -18.9083   22.4032 C   0  0  0  0  0  0  0  0  0  0  0  0
    6.8765  -18.5116   23.7878 C   0  0  0  0  0  0  0  0  0  0  0  0
    5.9841  -18.4514   24.6676 O   0  0  0  0  0  0  0  0  0  0  0  0
    8.1764  -18.1974   24.1429 O   0  0  0  0  0  0  0  0  0  0  0  0
  1  2  1  0
  3  2  1  0
  4  3  2  0
  5  3  1  0
  6  5  1  0
  7  9  1  0
  7  6  1  0
  8  7  2  0
 10  9  1  0
 11 13  1  0
 11 10  1  0
 12 11  2  0
M  END
$$$$
