GGG.pdb
     RDKit          3D

 13 12  0  0  0  0  0  0  0  0999 V2000
   -0.7689  -23.9194   22.8887 N   0  0  0  0  0  0  0  0  0  0  0  0
    0.1198  -23.1397   23.7253 C   0  0  0  0  0  0  0  0  0  0  0  0
    1.5112  -23.4864   23.4104 C   0  0  0  0  0  0  0  0  0  0  0  0
    1.8814  -23.5229   22.2128 O   0  0  0  0  0  0  0  0  0  0  0  0
    2.4912  -23.7907   24.3945 N   0  0  0  0  0  0  0  0  0  0  0  0
    3.8824  -23.9659   24.0921 C   0  0  0  0  0  0  0  0  0  0  0  0
    4.7804  -22.9307   24.5803 C   0  0  0  0  0  0  0  0  0  0  0  0
    4.8461  -21.8611   23.8771 O   0  0  0  0  0  0  0  0  0  0  0  0
    5.5902  -22.9488   25.7279 N   0  0  0  0  0  0  0  0  0  0  0  0
    6.3365  -21.7906   26.1916 C   0  0  0  0  0  0  0  0  0  0  0  0
    7.1085  -22.0988   27.4116 C   0  0  0  0  0  0  0  0  0  0  0  0
    7.1020  -23.2523   27.9052 O   0  0  0  0  0  0  0  0  0  0  0  0
    7.8571  -21.1172   28.0365 O   0  0  0  0  0  0  0  0  0  0  0  0
  1  2  1  0
  3  2  1  0
  4  3  2  0
  5  3  1  0
  6  5  1  0
  7  9  1  0
  7  6  1  0
  8  7  2  0
 10  9  1  0
 11 13  1  0
 11 10  1  0
 12 11  2  0
M  END
$$$$
