DTK.pdb
     RDKit          3D

 25 24  0  0  1  0  0  0  0  0999 V2000
   10.6546  -16.7066   17.0983 N   0  0  0  0  0  0  0  0  0  0  0  0
   10.2237  -17.2975   18.3516 C   0  0  1  0  0  0  0  0  0  0  0  0
   11.2020  -18.3481   18.8332 C   0  0  0  0  0  0  0  0  0  0  0  0
   11.3103  -19.4072   17.7869 C   0  0  0  0  0  0  0  0  0  0  0  0
   10.4543  -19.5772   16.9062 O   0  0  0  0  0  0  0  0  0  0  0  0
   10.0810  -16.2525   19.4064 C   0  0  0  0  0  0  0  0  0  0  0  0
   11.0453  -15.5606   19.7982 O   0  0  0  0  0  0  0  0  0  0  0  0
   12.4495  -20.2139   17.8526 O   0  0  0  0  0  0  0  0  0  0  0  0
    7.1897  -13.3810   19.8725 C   0  0  0  0  0  0  0  0  0  0  0  0
    7.1806  -14.4389   20.9556 C   0  0  1  0  0  0  0  0  0  0  0  0
    6.0740  -15.2330   20.9200 O   0  0  0  0  0  0  0  0  0  0  0  0
    8.5072  -15.1599   21.0471 C   0  0  2  0  0  0  0  0  0  0  0  0
    8.8140  -16.0384   19.9809 N   0  0  0  0  0  0  0  0  0  0  0  0
    8.5698  -15.7752   22.4012 C   0  0  0  0  0  0  0  0  0  0  0  0
    8.4869  -17.0276   22.4883 O   0  0  0  0  0  0  0  0  0  0  0  0
    8.7144  -15.0555   23.5934 N   0  0  0  0  0  0  0  0  0  0  0  0
    8.7970  -15.7580   24.9442 C   0  0  1  0  0  0  0  0  0  0  0  0
    9.2437  -14.7400   25.9115 C   0  0  0  0  0  0  0  0  0  0  0  0
    9.6329  -15.1032   27.2655 C   0  0  0  0  0  0  0  0  0  0  0  0
   10.0093  -14.1297   28.2997 C   0  0  0  0  0  0  0  0  0  0  0  0
   10.4224  -14.9012   29.6037 C   0  0  0  0  0  0  0  0  0  0  0  0
   10.7105  -13.8766   30.5873 N   0  0  0  0  0  0  0  0  0  0  0  0
    7.4117  -16.2331   25.0838 C   0  0  0  0  0  0  0  0  0  0  0  0
    6.4690  -15.5710   24.5164 O   0  0  0  0  0  0  0  0  0  0  0  0
    7.0001  -17.3383   25.7657 O   0  0  0  0  0  0  0  0  0  0  0  0
  2  1  1  6
  3  2  1  0
  4  3  1  0
  5  4  2  0
  6  2  1  0
  7  6  2  0
  8  4  1  0
 10  9  1  6
 10 12  1  0
 11 10  1  0
 12 14  1  0
 12 13  1  6
 13  6  1  0
 14 16  1  0
 15 14  2  0
 16 17  1  0
 17 18  1  1
 17 23  1  0
 18 19  1  0
 20 19  1  0
 21 22  1  0
 21 20  1  0
 23 24  2  0
 23 25  1  0
M  END
$$$$
