DTK.pdb
     RDKit          3D

 25 24  0  0  1  0  0  0  0  0999 V2000
    9.8098  -17.7807   18.3286 N   0  0  0  0  0  0  0  0  0  0  0  0
   11.0180  -17.4722   19.0705 C   0  0  1  0  0  0  0  0  0  0  0  0
   12.0643  -16.8323   18.1825 C   0  0  0  0  0  0  0  0  0  0  0  0
   12.6008  -17.8746   17.2585 C   0  0  0  0  0  0  0  0  0  0  0  0
   11.8898  -18.7468   16.7378 O   0  0  0  0  0  0  0  0  0  0  0  0
   10.7201  -16.5507   20.2050 C   0  0  0  0  0  0  0  0  0  0  0  0
   11.6179  -15.9468   20.8306 O   0  0  0  0  0  0  0  0  0  0  0  0
   13.9738  -17.8156   17.0052 O   0  0  0  0  0  0  0  0  0  0  0  0
    7.0633  -14.2837   20.5375 C   0  0  0  0  0  0  0  0  0  0  0  0
    7.4324  -15.2386   21.6531 C   0  0  1  0  0  0  0  0  0  0  0  0
    6.5954  -16.3102   21.7403 O   0  0  0  0  0  0  0  0  0  0  0  0
    8.9115  -15.5552   21.6544 C   0  0  2  0  0  0  0  0  0  0  0  0
    9.3789  -16.3546   20.5842 N   0  0  0  0  0  0  0  0  0  0  0  0
    9.2391  -16.0738   23.0108 C   0  0  0  0  0  0  0  0  0  0  0  0
    9.5110  -17.2966   23.1289 O   0  0  0  0  0  0  0  0  0  0  0  0
    9.2660  -15.2936   24.1731 N   0  0  0  0  0  0  0  0  0  0  0  0
    9.5562  -15.9065   25.5387 C   0  0  1  0  0  0  0  0  0  0  0  0
    9.8161  -14.7781   26.4500 C   0  0  0  0  0  0  0  0  0  0  0  0
   10.1648  -14.9981   27.8452 C   0  0  0  0  0  0  0  0  0  0  0  0
   10.3670  -13.9176   28.8203 C   0  0  0  0  0  0  0  0  0  0  0  0
   10.6670  -14.5468   30.2276 C   0  0  0  0  0  0  0  0  0  0  0  0
   10.9111  -13.4247   31.1115 N   0  0  0  0  0  0  0  0  0  0  0  0
    8.3124  -16.6593   25.7639 C   0  0  0  0  0  0  0  0  0  0  0  0
    8.3231  -17.6408   26.5921 O   0  0  0  0  0  0  0  0  0  0  0  0
    7.1057  -16.4223   25.1779 O   0  0  0  0  0  0  0  0  0  0  0  0
  2  1  1  6
  3  2  1  0
  4  3  1  0
  5  4  2  0
  6  2  1  0
  7  6  2  0
  8  4  1  0
 10  9  1  6
 10 12  1  0
 11 10  1  0
 12 14  1  0
 12 13  1  6
 13  6  1  0
 14 16  1  0
 15 14  2  0
 16 17  1  0
 17 18  1  1
 17 23  1  0
 18 19  1  0
 20 19  1  0
 21 22  1  0
 21 20  1  0
 23 24  2  0
 23 25  1  0
M  END
$$$$
