DTK.pdb
     RDKit          3D

 25 24  0  0  1  0  0  0  0  0999 V2000
    9.9778  -17.7436   18.4375 N   0  0  0  0  0  0  0  0  0  0  0  0
   11.1575  -17.3158   19.1662 C   0  0  1  0  0  0  0  0  0  0  0  0
   12.1816  -16.6904   18.2428 C   0  0  0  0  0  0  0  0  0  0  0  0
   12.7388  -17.7593   17.3625 C   0  0  0  0  0  0  0  0  0  0  0  0
   13.4006  -18.7144   17.7951 O   0  0  0  0  0  0  0  0  0  0  0  0
   10.7954  -16.3282   20.2237 C   0  0  0  0  0  0  0  0  0  0  0  0
   11.6437  -15.5902   20.7694 O   0  0  0  0  0  0  0  0  0  0  0  0
   12.4706  -17.6254   15.9976 O   0  0  0  0  0  0  0  0  0  0  0  0
    7.0927  -14.1997   20.6247 C   0  0  0  0  0  0  0  0  0  0  0  0
    7.4614  -15.1967   21.7029 C   0  0  1  0  0  0  0  0  0  0  0  0
    6.6451  -16.2873   21.7263 O   0  0  0  0  0  0  0  0  0  0  0  0
    8.9465  -15.4839   21.7175 C   0  0  2  0  0  0  0  0  0  0  0  0
    9.4491  -16.2238   20.6208 N   0  0  0  0  0  0  0  0  0  0  0  0
    9.2603  -16.0580   23.0547 C   0  0  0  0  0  0  0  0  0  0  0  0
    9.5572  -17.2788   23.1215 O   0  0  0  0  0  0  0  0  0  0  0  0
    9.2480  -15.3324   24.2520 N   0  0  0  0  0  0  0  0  0  0  0  0
    9.6295  -15.9776   25.5797 C   0  0  1  0  0  0  0  0  0  0  0  0
    9.7961  -14.8738   26.5416 C   0  0  0  0  0  0  0  0  0  0  0  0
   10.2909  -15.1131   27.8886 C   0  0  0  0  0  0  0  0  0  0  0  0
   10.4936  -14.0552   28.8880 C   0  0  0  0  0  0  0  0  0  0  0  0
   11.0142  -14.7022   30.2209 C   0  0  0  0  0  0  0  0  0  0  0  0
   11.1562  -13.6048   31.1567 N   0  0  0  0  0  0  0  0  0  0  0  0
    8.4729  -16.8623   25.7895 C   0  0  0  0  0  0  0  0  0  0  0  0
    8.6051  -17.8845   26.5556 O   0  0  0  0  0  0  0  0  0  0  0  0
    7.2313  -16.7128   25.2493 O   0  0  0  0  0  0  0  0  0  0  0  0
  2  1  1  6
  3  2  1  0
  4  3  1  0
  5  4  2  0
  6  2  1  0
  7  6  2  0
  8  4  1  0
 10  9  1  6
 10 12  1  0
 11 10  1  0
 12 14  1  0
 12 13  1  6
 13  6  1  0
 14 16  1  0
 15 14  2  0
 16 17  1  0
 17 18  1  1
 17 23  1  0
 18 19  1  0
 20 19  1  0
 21 22  1  0
 21 20  1  0
 23 24  2  0
 23 25  1  0
M  END
$$$$
