DTK.pdb
     RDKit          3D

 25 24  0  0  1  0  0  0  0  0999 V2000
   10.2739  -17.2795   15.7544 N   0  0  0  0  0  0  0  0  0  0  0  0
    9.4734  -17.7811   16.8558 C   0  0  1  0  0  0  0  0  0  0  0  0
    9.8262  -19.2158   17.1876 C   0  0  0  0  0  0  0  0  0  0  0  0
    9.6603  -20.0402   15.9543 C   0  0  0  0  0  0  0  0  0  0  0  0
    9.7537  -21.2765   15.9503 O   0  0  0  0  0  0  0  0  0  0  0  0
    9.6677  -16.9431   18.0743 C   0  0  0  0  0  0  0  0  0  0  0  0
   10.5720  -17.1709   18.9064 O   0  0  0  0  0  0  0  0  0  0  0  0
    9.3887  -19.3323   14.7805 O   0  0  0  0  0  0  0  0  0  0  0  0
    7.9483  -12.9330   20.5645 C   0  0  0  0  0  0  0  0  0  0  0  0
    7.7794  -13.8728   19.3894 C   0  0  1  0  0  0  0  0  0  0  0  0
    7.6393  -13.2236   18.1998 O   0  0  0  0  0  0  0  0  0  0  0  0
    8.7973  -14.9914   19.4145 C   0  0  2  0  0  0  0  0  0  0  0  0
    8.8009  -15.8562   18.2943 N   0  0  0  0  0  0  0  0  0  0  0  0
    8.6544  -15.6736   20.7298 C   0  0  0  0  0  0  0  0  0  0  0  0
    7.7700  -16.5610   20.8450 O   0  0  0  0  0  0  0  0  0  0  0  0
    9.4382  -15.3963   21.8564 N   0  0  0  0  0  0  0  0  0  0  0  0
    9.2493  -16.1544   23.1657 C   0  0  1  0  0  0  0  0  0  0  0  0
   10.4183  -17.0413   23.3008 C   0  0  0  0  0  0  0  0  0  0  0  0
   10.6174  -17.8536   24.4912 C   0  0  0  0  0  0  0  0  0  0  0  0
   11.8151  -18.6684   24.7373 C   0  0  0  0  0  0  0  0  0  0  0  0
   11.6630  -19.3988   26.1192 C   0  0  0  0  0  0  0  0  0  0  0  0
   12.7846  -20.3128   26.2019 N   0  0  0  0  0  0  0  0  0  0  0  0
    9.1628  -15.0331   24.1141 C   0  0  0  0  0  0  0  0  0  0  0  0
    8.6613  -15.2424   25.2777 O   0  0  0  0  0  0  0  0  0  0  0  0
    9.5742  -13.7532   23.8936 O   0  0  0  0  0  0  0  0  0  0  0  0
  2  1  1  6
  3  2  1  0
  4  3  1  0
  5  4  2  0
  6  2  1  0
  7  6  2  0
  8  4  1  0
 10  9  1  1
 10 12  1  0
 11 10  1  0
 12 14  1  0
 12 13  1  6
 13  6  1  0
 14 16  1  0
 15 14  2  0
 16 17  1  0
 17 18  1  1
 17 23  1  0
 18 19  1  0
 20 19  1  0
 21 22  1  0
 21 20  1  0
 23 24  2  0
 23 25  1  0
M  END
$$$$
