DTK.pdb
     RDKit          3D

 25 24  0  0  1  0  0  0  0  0999 V2000
   13.3437  -14.3546   17.5777 N   0  0  0  0  0  0  0  0  0  0  0  0
   13.5761  -15.2564   18.6905 C   0  0  1  0  0  0  0  0  0  0  0  0
   14.9925  -15.1375   19.2124 C   0  0  0  0  0  0  0  0  0  0  0  0
   15.9318  -15.5442   18.1259 C   0  0  0  0  0  0  0  0  0  0  0  0
   16.0313  -16.7118   17.7207 O   0  0  0  0  0  0  0  0  0  0  0  0
   12.6265  -14.9745   19.8056 C   0  0  0  0  0  0  0  0  0  0  0  0
   12.6871  -13.9297   20.4888 O   0  0  0  0  0  0  0  0  0  0  0  0
   16.7090  -14.5204   17.5778 O   0  0  0  0  0  0  0  0  0  0  0  0
    8.6301  -15.9049   19.5281 C   0  0  0  0  0  0  0  0  0  0  0  0
    9.2976  -16.4909   20.7543 C   0  0  1  0  0  0  0  0  0  0  0  0
    9.3375  -17.8528   20.7436 O   0  0  0  0  0  0  0  0  0  0  0  0
   10.6034  -15.7952   21.0691 C   0  0  2  0  0  0  0  0  0  0  0  0
   11.6259  -15.9201   20.0987 N   0  0  0  0  0  0  0  0  0  0  0  0
   10.9926  -16.2126   22.4439 C   0  0  0  0  0  0  0  0  0  0  0  0
   11.9312  -17.0410   22.5692 O   0  0  0  0  0  0  0  0  0  0  0  0
   10.3846  -15.7472   23.6161 N   0  0  0  0  0  0  0  0  0  0  0  0
   10.8433  -16.2153   24.9928 C   0  0  1  0  0  0  0  0  0  0  0  0
   10.3272  -15.2277   25.9570 C   0  0  0  0  0  0  0  0  0  0  0  0
   10.6159  -15.3372   27.3788 C   0  0  0  0  0  0  0  0  0  0  0  0
   10.1640  -14.3659   28.3845 C   0  0  0  0  0  0  0  0  0  0  0  0
   10.6307  -14.8450   29.8055 C   0  0  0  0  0  0  0  0  0  0  0  0
   10.2364  -13.7922   30.7200 N   0  0  0  0  0  0  0  0  0  0  0  0
   10.2360  -17.5546   25.0361 C   0  0  0  0  0  0  0  0  0  0  0  0
    9.1622  -17.7704   24.3655 O   0  0  0  0  0  0  0  0  0  0  0  0
   10.7024  -18.6327   25.7261 O   0  0  0  0  0  0  0  0  0  0  0  0
  2  1  1  6
  3  2  1  0
  4  3  1  0
  5  4  2  0
  6  2  1  0
  7  6  2  0
  8  4  1  0
 10  9  1  6
 10 12  1  0
 11 10  1  0
 12 14  1  0
 12 13  1  6
 13  6  1  0
 14 16  1  0
 15 14  2  0
 16 17  1  0
 17 18  1  1
 17 23  1  0
 18 19  1  0
 20 19  1  0
 21 22  1  0
 21 20  1  0
 23 24  2  0
 23 25  1  0
M  END
$$$$
