DTK.pdb
     RDKit          3D

 25 24  0  0  1  0  0  0  0  0999 V2000
    9.5942  -13.1220   17.3951 N   0  0  0  0  0  0  0  0  0  0  0  0
    9.0288  -14.3871   17.8254 C   0  0  1  0  0  0  0  0  0  0  0  0
    8.4653  -15.1674   16.6565 C   0  0  0  0  0  0  0  0  0  0  0  0
    8.2306  -14.2211   15.5262 C   0  0  0  0  0  0  0  0  0  0  0  0
    7.9124  -13.0344   15.6935 O   0  0  0  0  0  0  0  0  0  0  0  0
   10.0595  -15.2208   18.5091 C   0  0  0  0  0  0  0  0  0  0  0  0
    9.8397  -16.3983   18.8657 O   0  0  0  0  0  0  0  0  0  0  0  0
    8.3911  -14.7522   14.2438 O   0  0  0  0  0  0  0  0  0  0  0  0
   13.6445  -15.8026   17.1026 C   0  0  0  0  0  0  0  0  0  0  0  0
   13.7421  -15.1649   18.4723 C   0  0  1  0  0  0  0  0  0  0  0  0
   14.2578  -13.9041   18.4411 O   0  0  0  0  0  0  0  0  0  0  0  0
   12.4639  -15.3353   19.2631 C   0  0  2  0  0  0  0  0  0  0  0  0
   11.3258  -14.6603   18.7614 N   0  0  0  0  0  0  0  0  0  0  0  0
   12.7934  -15.0338   20.6832 C   0  0  0  0  0  0  0  0  0  0  0  0
   12.9825  -13.8327   21.0064 O   0  0  0  0  0  0  0  0  0  0  0  0
   12.9096  -15.9975   21.6922 N   0  0  0  0  0  0  0  0  0  0  0  0
   13.2074  -15.6087   23.1361 C   0  0  1  0  0  0  0  0  0  0  0  0
   12.3633  -16.4744   23.9785 C   0  0  0  0  0  0  0  0  0  0  0  0
   12.4797  -16.4634   25.4287 C   0  0  0  0  0  0  0  0  0  0  0  0
   11.7190  -17.3506   26.3193 C   0  0  0  0  0  0  0  0  0  0  0  0
   12.0221  -16.9624   27.8105 C   0  0  0  0  0  0  0  0  0  0  0  0
   11.0938  -17.7361   28.6104 N   0  0  0  0  0  0  0  0  0  0  0  0
   14.6568  -15.8555   23.1863 C   0  0  0  0  0  0  0  0  0  0  0  0
   15.1580  -16.7620   22.4271 O   0  0  0  0  0  0  0  0  0  0  0  0
   15.5618  -15.2051   23.9696 O   0  0  0  0  0  0  0  0  0  0  0  0
  2  1  1  6
  3  2  1  0
  4  3  1  0
  5  4  2  0
  6  2  1  0
  7  6  2  0
  8  4  1  0
 10  9  1  6
 10 12  1  0
 11 10  1  0
 12 14  1  0
 12 13  1  6
 13  6  1  0
 14 16  1  0
 15 14  2  0
 16 17  1  0
 17 18  1  1
 17 23  1  0
 18 19  1  0
 20 19  1  0
 21 22  1  0
 21 20  1  0
 23 24  2  0
 23 25  1  0
M  END
$$$$
