DTK.pdb
     RDKit          3D

 25 24  0  0  1  0  0  0  0  0999 V2000
    4.7185  -19.2360   19.5232 N   0  0  0  0  0  0  0  0  0  0  0  0
    4.6547  -18.0362   20.3369 C   0  0  1  0  0  0  0  0  0  0  0  0
    4.0190  -18.3137   21.6828 C   0  0  0  0  0  0  0  0  0  0  0  0
    2.8529  -19.2222   21.4760 C   0  0  0  0  0  0  0  0  0  0  0  0
    2.6027  -19.7638   20.3891 O   0  0  0  0  0  0  0  0  0  0  0  0
    6.0186  -17.4732   20.5551 C   0  0  0  0  0  0  0  0  0  0  0  0
    7.0261  -18.1976   20.7040 O   0  0  0  0  0  0  0  0  0  0  0  0
    2.0411  -19.4352   22.5932 O   0  0  0  0  0  0  0  0  0  0  0  0
    8.6355  -13.1925   20.8467 C   0  0  0  0  0  0  0  0  0  0  0  0
    7.3241  -13.8722   20.5141 C   0  0  1  0  0  0  0  0  0  0  0  0
    6.8058  -13.4803   19.3165 O   0  0  0  0  0  0  0  0  0  0  0  0
    7.3909  -15.3654   20.7470 C   0  0  2  0  0  0  0  0  0  0  0  0
    6.1760  -16.0750   20.5945 N   0  0  0  0  0  0  0  0  0  0  0  0
    8.0719  -15.5665   22.0553 C   0  0  0  0  0  0  0  0  0  0  0  0
    7.3930  -15.4270   23.1053 O   0  0  0  0  0  0  0  0  0  0  0  0
    9.4234  -15.9015   22.2028 N   0  0  0  0  0  0  0  0  0  0  0  0
   10.0173  -16.2396   23.5657 C   0  0  1  0  0  0  0  0  0  0  0  0
    9.8787  -17.6980   23.7253 C   0  0  0  0  0  0  0  0  0  0  0  0
   10.2421  -18.3602   24.9687 C   0  0  0  0  0  0  0  0  0  0  0  0
   10.0465  -19.7944   25.2217 C   0  0  0  0  0  0  0  0  0  0  0  0
   10.4644  -20.1155   26.7010 C   0  0  0  0  0  0  0  0  0  0  0  0
   10.2256  -21.5344   26.8736 N   0  0  0  0  0  0  0  0  0  0  0  0
   11.3850  -15.7247   23.3969 C   0  0  0  0  0  0  0  0  0  0  0  0
   11.8577  -15.5983   22.2095 O   0  0  0  0  0  0  0  0  0  0  0  0
   12.2361  -15.3472   24.3914 O   0  0  0  0  0  0  0  0  0  0  0  0
  2  1  1  6
  3  2  1  0
  4  3  1  0
  5  4  2  0
  6  2  1  0
  7  6  2  0
  8  4  1  0
 10  9  1  6
 10 12  1  0
 11 10  1  0
 12 14  1  0
 12 13  1  1
 13  6  1  0
 14 16  1  0
 15 14  2  0
 16 17  1  0
 17 18  1  6
 17 23  1  0
 18 19  1  0
 20 19  1  0
 21 22  1  0
 21 20  1  0
 23 24  2  0
 23 25  1  0
M  END
$$$$
