DTK.pdb
     RDKit          3D

 25 24  0  0  1  0  0  0  0  0999 V2000
    9.5274  -17.1775   15.7733 N   0  0  0  0  0  0  0  0  0  0  0  0
    8.5406  -17.2129   16.8366 C   0  0  1  0  0  0  0  0  0  0  0  0
    8.1903  -18.6354   17.2193 C   0  0  0  0  0  0  0  0  0  0  0  0
    7.4159  -19.2484   16.1000 C   0  0  0  0  0  0  0  0  0  0  0  0
    6.5000  -18.6576   15.5090 O   0  0  0  0  0  0  0  0  0  0  0  0
    9.0419  -16.4982   18.0460 C   0  0  0  0  0  0  0  0  0  0  0  0
   10.2367  -16.5525   18.4087 O   0  0  0  0  0  0  0  0  0  0  0  0
    7.7839  -20.5490   15.7455 O   0  0  0  0  0  0  0  0  0  0  0  0
    7.8410  -12.6803   19.1835 C   0  0  0  0  0  0  0  0  0  0  0  0
    7.5742  -13.7618   20.2090 C   0  0  1  0  0  0  0  0  0  0  0  0
    6.2468  -13.9953   20.4087 O   0  0  0  0  0  0  0  0  0  0  0  0
    8.4305  -14.9856   19.9698 C   0  0  2  0  0  0  0  0  0  0  0  0
    8.1358  -15.7348   18.8060 N   0  0  0  0  0  0  0  0  0  0  0  0
    8.4238  -15.7692   21.2355 C   0  0  0  0  0  0  0  0  0  0  0  0
    7.7458  -16.8283   21.2742 O   0  0  0  0  0  0  0  0  0  0  0  0
    9.1220  -15.4095   22.3946 N   0  0  0  0  0  0  0  0  0  0  0  0
    8.9621  -16.1879   23.6959 C   0  0  1  0  0  0  0  0  0  0  0  0
   10.3176  -16.6055   24.0955 C   0  0  0  0  0  0  0  0  0  0  0  0
   10.5340  -17.4696   25.2459 C   0  0  0  0  0  0  0  0  0  0  0  0
   11.8351  -18.0534   25.5998 C   0  0  0  0  0  0  0  0  0  0  0  0
   11.6855  -18.8675   26.9344 C   0  0  0  0  0  0  0  0  0  0  0  0
   13.0168  -19.3446   27.2506 N   0  0  0  0  0  0  0  0  0  0  0  0
    8.3134  -15.1709   24.5381 C   0  0  0  0  0  0  0  0  0  0  0  0
    8.4981  -13.9298   24.2647 O   0  0  0  0  0  0  0  0  0  0  0  0
    7.5051  -15.4034   25.6098 O   0  0  0  0  0  0  0  0  0  0  0  0
  2  1  1  6
  3  2  1  0
  4  3  1  0
  5  4  2  0
  6  2  1  0
  7  6  2  0
  8  4  1  0
 10  9  1  6
 10 12  1  0
 11 10  1  0
 12 14  1  0
 12 13  1  6
 13  6  1  0
 14 16  1  0
 15 14  2  0
 16 17  1  0
 17 18  1  1
 17 23  1  0
 18 19  1  0
 20 19  1  0
 21 22  1  0
 21 20  1  0
 23 24  2  0
 23 25  1  0
M  END
$$$$
