DTK.pdb
     RDKit          3D

 25 24  0  0  1  0  0  0  0  0999 V2000
    8.6080  -16.7438   16.2065 N   0  0  0  0  0  0  0  0  0  0  0  0
    9.1486  -17.6448   17.2072 C   0  0  1  0  0  0  0  0  0  0  0  0
   10.3309  -18.4233   16.6697 C   0  0  0  0  0  0  0  0  0  0  0  0
    9.8448  -19.3381   15.5950 C   0  0  0  0  0  0  0  0  0  0  0  0
   10.4670  -19.5323   14.5402 O   0  0  0  0  0  0  0  0  0  0  0  0
    9.5796  -16.8902   18.4194 C   0  0  0  0  0  0  0  0  0  0  0  0
   10.7830  -16.6883   18.6898 O   0  0  0  0  0  0  0  0  0  0  0  0
    8.6274  -19.9774   15.8440 O   0  0  0  0  0  0  0  0  0  0  0  0
    7.1761  -13.7440   19.9901 C   0  0  0  0  0  0  0  0  0  0  0  0
    7.6103  -14.8268   20.9552 C   0  0  1  0  0  0  0  0  0  0  0  0
    6.5744  -15.5854   21.4111 O   0  0  0  0  0  0  0  0  0  0  0  0
    8.8100  -15.5903   20.4395 C   0  0  2  0  0  0  0  0  0  0  0  0
    8.5946  -16.3872   19.2900 N   0  0  0  0  0  0  0  0  0  0  0  0
    9.3908  -16.3155   21.6026 C   0  0  0  0  0  0  0  0  0  0  0  0
    9.1873  -17.5539   21.6915 O   0  0  0  0  0  0  0  0  0  0  0  0
   10.1518  -15.7144   22.6124 N   0  0  0  0  0  0  0  0  0  0  0  0
   10.6445  -16.5065   23.8185 C   0  0  1  0  0  0  0  0  0  0  0  0
   12.1155  -16.4242   23.7927 C   0  0  0  0  0  0  0  0  0  0  0  0
   12.9424  -17.5157   24.2842 C   0  0  0  0  0  0  0  0  0  0  0  0
   14.4115  -17.5087   24.2559 C   0  0  0  0  0  0  0  0  0  0  0  0
   14.9417  -18.8675   24.8380 C   0  0  0  0  0  0  0  0  0  0  0  0
   16.3871  -18.7697   24.7996 N   0  0  0  0  0  0  0  0  0  0  0  0
    9.9656  -15.7863   24.9071 C   0  0  0  0  0  0  0  0  0  0  0  0
    9.4581  -14.6318   24.6647 O   0  0  0  0  0  0  0  0  0  0  0  0
    9.8025  -16.2222   26.1874 O   0  0  0  0  0  0  0  0  0  0  0  0
  2  1  1  6
  3  2  1  0
  4  3  1  0
  5  4  2  0
  6  2  1  0
  7  6  2  0
  8  4  1  0
 10  9  1  6
 10 12  1  0
 11 10  1  0
 12 14  1  0
 12 13  1  6
 13  6  1  0
 14 16  1  0
 15 14  2  0
 16 17  1  0
 17 18  1  1
 17 23  1  0
 18 19  1  0
 20 19  1  0
 21 22  1  0
 21 20  1  0
 23 24  2  0
 23 25  1  0
M  END
$$$$
