DTK.pdb
     RDKit          3D

 25 24  0  0  1  0  0  0  0  0999 V2000
   12.3087  -14.3310   17.6530 N   0  0  0  0  0  0  0  0  0  0  0  0
   12.0464  -15.3407   18.6617 C   0  0  1  0  0  0  0  0  0  0  0  0
   13.3188  -16.0452   19.0831 C   0  0  0  0  0  0  0  0  0  0  0  0
   13.9027  -16.7209   17.8870 C   0  0  0  0  0  0  0  0  0  0  0  0
   13.5088  -17.8212   17.4729 O   0  0  0  0  0  0  0  0  0  0  0  0
   11.4116  -14.7313   19.8660 C   0  0  0  0  0  0  0  0  0  0  0  0
   11.9466  -13.8011   20.5067 O   0  0  0  0  0  0  0  0  0  0  0  0
   14.9374  -16.0354   17.2449 O   0  0  0  0  0  0  0  0  0  0  0  0
    7.4359  -13.7229   20.3326 C   0  0  0  0  0  0  0  0  0  0  0  0
    7.9212  -14.8004   21.2791 C   0  0  1  0  0  0  0  0  0  0  0  0
    7.3595  -16.0181   21.0382 O   0  0  0  0  0  0  0  0  0  0  0  0
    9.4270  -14.7853   21.4221 C   0  0  2  0  0  0  0  0  0  0  0  0
   10.1645  -15.2223   20.2961 N   0  0  0  0  0  0  0  0  0  0  0  0
    9.7456  -15.4950   22.6913 C   0  0  0  0  0  0  0  0  0  0  0  0
   10.3010  -16.6215   22.6179 O   0  0  0  0  0  0  0  0  0  0  0  0
    9.4690  -14.9961   23.9699 N   0  0  0  0  0  0  0  0  0  0  0  0
    9.8852  -15.7507   25.2278 C   0  0  1  0  0  0  0  0  0  0  0  0
    9.7924  -14.7852   26.3372 C   0  0  0  0  0  0  0  0  0  0  0  0
   10.1602  -15.1564   27.6950 C   0  0  0  0  0  0  0  0  0  0  0  0
   10.0349  -14.2602   28.8527 C   0  0  0  0  0  0  0  0  0  0  0  0
   10.5181  -15.0170   30.1411 C   0  0  0  0  0  0  0  0  0  0  0  0
   10.2769  -14.1051   31.2414 N   0  0  0  0  0  0  0  0  0  0  0  0
    8.8991  -16.8425   25.2234 C   0  0  0  0  0  0  0  0  0  0  0  0
    7.7512  -16.6390   24.6850 O   0  0  0  0  0  0  0  0  0  0  0  0
    9.0728  -18.0917   25.7383 O   0  0  0  0  0  0  0  0  0  0  0  0
  2  1  1  6
  3  2  1  0
  4  3  1  0
  5  4  2  0
  6  2  1  0
  7  6  2  0
  8  4  1  0
 10  9  1  6
 10 12  1  0
 11 10  1  0
 12 14  1  0
 12 13  1  6
 13  6  1  0
 14 16  1  0
 15 14  2  0
 16 17  1  0
 17 18  1  1
 17 23  1  0
 18 19  1  0
 20 19  1  0
 21 22  1  0
 21 20  1  0
 23 24  2  0
 23 25  1  0
M  END
$$$$
