DTK.pdb
     RDKit          3D

 25 24  0  0  1  0  0  0  0  0999 V2000
    9.5874  -17.9433   18.5068 N   0  0  0  0  0  0  0  0  0  0  0  0
   10.8071  -17.4691   19.1339 C   0  0  1  0  0  0  0  0  0  0  0  0
   11.6756  -16.7113   18.1519 C   0  0  0  0  0  0  0  0  0  0  0  0
   12.1831  -17.6737   17.1300 C   0  0  0  0  0  0  0  0  0  0  0  0
   11.6535  -17.8210   16.0186 O   0  0  0  0  0  0  0  0  0  0  0  0
   10.4950  -16.5779   20.2885 C   0  0  0  0  0  0  0  0  0  0  0  0
   11.3838  -15.9791   20.9316 O   0  0  0  0  0  0  0  0  0  0  0  0
   13.3090  -18.4152   17.4979 O   0  0  0  0  0  0  0  0  0  0  0  0
    7.0427  -14.1475   20.4826 C   0  0  0  0  0  0  0  0  0  0  0  0
    7.2291  -15.1414   21.6094 C   0  0  1  0  0  0  0  0  0  0  0  0
    6.2905  -16.1291   21.6137 O   0  0  0  0  0  0  0  0  0  0  0  0
    8.6669  -15.5974   21.7236 C   0  0  2  0  0  0  0  0  0  0  0  0
    9.1504  -16.4053   20.6670 N   0  0  0  0  0  0  0  0  0  0  0  0
    8.8251  -16.1851   23.0821 C   0  0  0  0  0  0  0  0  0  0  0  0
    9.0174  -17.4251   23.1735 O   0  0  0  0  0  0  0  0  0  0  0  0
    8.7742  -15.4524   24.2741 N   0  0  0  0  0  0  0  0  0  0  0  0
    8.9734  -16.1204   25.6301 C   0  0  1  0  0  0  0  0  0  0  0  0
    9.2748  -15.0372   26.5827 C   0  0  0  0  0  0  0  0  0  0  0  0
    9.6340  -15.3230   27.9633 C   0  0  0  0  0  0  0  0  0  0  0  0
    9.8736  -14.2890   28.9793 C   0  0  0  0  0  0  0  0  0  0  0  0
   10.2538  -14.9821   30.3363 C   0  0  0  0  0  0  0  0  0  0  0  0
   10.4005  -13.9057   31.2954 N   0  0  0  0  0  0  0  0  0  0  0  0
    7.6750  -16.7932   25.7903 C   0  0  0  0  0  0  0  0  0  0  0  0
    6.6401  -16.2867   25.2233 O   0  0  0  0  0  0  0  0  0  0  0  0
    7.4372  -17.9367   26.4916 O   0  0  0  0  0  0  0  0  0  0  0  0
  2  1  1  6
  3  2  1  0
  4  3  1  0
  5  4  2  0
  6  2  1  0
  7  6  2  0
  8  4  1  0
 10  9  1  6
 10 12  1  0
 11 10  1  0
 12 14  1  0
 12 13  1  6
 13  6  1  0
 14 16  1  0
 15 14  2  0
 16 17  1  0
 17 18  1  1
 17 23  1  0
 18 19  1  0
 20 19  1  0
 21 22  1  0
 21 20  1  0
 23 24  2  0
 23 25  1  0
M  END
$$$$
