PFV.pdb
     RDKit          3D

 26 27  0  0  1  0  0  0  0  0999 V2000
   32.0745  -21.5243  -11.3732 N   0  0  0  0  0  0  0  0  0  0  0  0
   33.3865  -21.9810  -11.8138 C   0  0  0  0  0  0  0  0  0  0  0  0
   33.7319  -23.2208  -11.0687 C   0  0  0  0  0  0  0  0  0  0  0  0
   32.6289  -23.3789  -10.0643 C   0  0  0  0  0  0  0  0  0  0  0  0
   31.4813  -22.6226  -10.6847 C   0  0  1  0  0  0  0  0  0  0  0  0
   30.4719  -22.2768   -9.6714 C   0  0  0  0  0  0  0  0  0  0  0  0
   29.7941  -23.1845   -9.0721 O   0  0  0  0  0  0  0  0  0  0  0  0
   30.1563  -20.9537   -9.2686 N   0  0  0  0  0  0  0  0  0  0  0  0
   29.1272  -20.6709   -8.2772 C   0  0  1  0  0  0  0  0  0  0  0  0
   29.6375  -19.7538   -7.2089 C   0  0  0  0  0  0  0  0  0  0  0  0
   28.6962  -19.6141   -6.0816 C   0  0  0  0  0  0  0  0  0  0  0  0
   28.8934  -20.4457   -4.9784 C   0  0  0  0  0  0  0  0  0  0  0  0
   28.0814  -20.3755   -3.8757 C   0  0  0  0  0  0  0  0  0  0  0  0
   27.0590  -19.4526   -3.8918 C   0  0  0  0  0  0  0  0  0  0  0  0
   26.8448  -18.6152   -4.9790 C   0  0  0  0  0  0  0  0  0  0  0  0
   27.6642  -18.6987   -6.0705 C   0  0  0  0  0  0  0  0  0  0  0  0
   27.8863  -20.1909   -8.8946 C   0  0  0  0  0  0  0  0  0  0  0  0
   27.8256  -19.0142   -9.3111 O   0  0  0  0  0  0  0  0  0  0  0  0
   26.4633  -21.0355  -12.0010 C   0  0  0  0  0  0  0  0  0  0  0  0
   25.3472  -21.2886  -11.0285 C   0  0  1  0  0  0  0  0  0  0  0  0
   25.1220  -22.7464  -10.7649 C   0  0  0  0  0  0  0  0  0  0  0  0
   25.5592  -20.5566   -9.7054 C   0  0  2  0  0  0  0  0  0  0  0  0
   26.7473  -21.0185   -9.0364 N   0  0  0  0  0  0  0  0  0  0  0  0
   24.3698  -20.6543   -8.8318 C   0  0  0  0  0  0  0  0  0  0  0  0
   23.1427  -20.0908   -9.1346 O   0  0  0  0  0  0  0  0  0  0  0  0
   24.4612  -21.2829   -7.7457 O   0  0  0  0  0  0  0  0  0  0  0  0
  1  2  1  0
  3  2  1  0
  4  5  1  0
  4  3  1  0
  5  6  1  1
  5  1  1  0
  6  7  2  0
  8  9  1  0
  8  6  1  0
 10 11  1  0
  9 10  1  1
 11 12  2  0
 12 13  1  0
 14 13  2  0
 15 14  1  0
 16 15  2  0
 16 11  1  0
 17  9  1  0
 17 18  2  0
 20 19  1  6
 20 22  1  0
 21 20  1  0
 22 23  1  1
 22 24  1  0
 23 17  1  0
 24 26  2  0
 24 25  1  0
M  END
$$$$
