PFV.pdb
     RDKit          3D

 26 27  0  0  1  0  0  0  0  0999 V2000
   27.3774  -22.4748  -17.7092 N   0  0  0  0  0  0  0  0  0  0  0  0
   28.0905  -22.6600  -18.9667 C   0  0  0  0  0  0  0  0  0  0  0  0
   29.4595  -22.0973  -18.8228 C   0  0  0  0  0  0  0  0  0  0  0  0
   29.4588  -21.4388  -17.4748 C   0  0  0  0  0  0  0  0  0  0  0  0
   28.3682  -22.1679  -16.7312 C   0  0  1  0  0  0  0  0  0  0  0  0
   27.9083  -21.3845  -15.5737 C   0  0  0  0  0  0  0  0  0  0  0  0
   28.7072  -21.0767  -14.6200 O   0  0  0  0  0  0  0  0  0  0  0  0
   26.5837  -20.9073  -15.3998 N   0  0  0  0  0  0  0  0  0  0  0  0
   26.2200  -20.0121  -14.3098 C   0  0  1  0  0  0  0  0  0  0  0  0
   25.3457  -18.8954  -14.7908 C   0  0  0  0  0  0  0  0  0  0  0  0
   26.1176  -17.7635  -15.3378 C   0  0  0  0  0  0  0  0  0  0  0  0
   27.5063  -17.8972  -15.3766 C   0  0  0  0  0  0  0  0  0  0  0  0
   28.3061  -16.9062  -15.8850 C   0  0  0  0  0  0  0  0  0  0  0  0
   27.6917  -15.7682  -16.3589 C   0  0  0  0  0  0  0  0  0  0  0  0
   26.3117  -15.6143  -16.3300 C   0  0  0  0  0  0  0  0  0  0  0  0
   25.5290  -16.6126  -15.8195 C   0  0  0  0  0  0  0  0  0  0  0  0
   25.6438  -20.7367  -13.1723 C   0  0  0  0  0  0  0  0  0  0  0  0
   24.9495  -21.7542  -13.3834 O   0  0  0  0  0  0  0  0  0  0  0  0
   25.7772  -19.1529   -9.1300 C   0  0  0  0  0  0  0  0  0  0  0  0
   25.8848  -20.6256   -9.4041 C   0  0  1  0  0  0  0  0  0  0  0  0
   25.3169  -21.4674   -8.3022 C   0  0  0  0  0  0  0  0  0  0  0  0
   25.2351  -21.0134  -10.7304 C   0  0  2  0  0  0  0  0  0  0  0  0
   25.8472  -20.3220  -11.8348 N   0  0  0  0  0  0  0  0  0  0  0  0
   23.7712  -20.8050  -10.7017 C   0  0  0  0  0  0  0  0  0  0  0  0
   22.9016  -21.5505   -9.9252 O   0  0  0  0  0  0  0  0  0  0  0  0
   23.2700  -19.9011  -11.4193 O   0  0  0  0  0  0  0  0  0  0  0  0
  1  2  1  0
  3  2  1  0
  4  5  1  0
  4  3  1  0
  5  6  1  1
  5  1  1  0
  6  7  2  0
  8  9  1  0
  8  6  1  0
 10 11  1  0
  9 10  1  6
 11 12  2  0
 12 13  1  0
 14 13  2  0
 15 14  1  0
 16 15  2  0
 16 11  1  0
 17  9  1  0
 17 18  2  0
 20 19  1  1
 20 22  1  0
 21 20  1  0
 22 23  1  6
 22 24  1  0
 23 17  1  0
 24 26  2  0
 24 25  1  0
M  END
$$$$
