PFV.pdb
     RDKit          3D

 26 27  0  0  1  0  0  0  0  0999 V2000
   26.6588  -22.1408  -17.7744 N   0  0  0  0  0  0  0  0  0  0  0  0
   27.2187  -22.3871  -19.0973 C   0  0  0  0  0  0  0  0  0  0  0  0
   28.7013  -22.4187  -18.9863 C   0  0  0  0  0  0  0  0  0  0  0  0
   28.9834  -22.0267  -17.5659 C   0  0  0  0  0  0  0  0  0  0  0  0
   27.7101  -22.3903  -16.8444 C   0  0  1  0  0  0  0  0  0  0  0  0
   27.6140  -21.6799  -15.5595 C   0  0  0  0  0  0  0  0  0  0  0  0
   28.5437  -21.7660  -14.6816 O   0  0  0  0  0  0  0  0  0  0  0  0
   26.5240  -20.8579  -15.1738 N   0  0  0  0  0  0  0  0  0  0  0  0
   26.5476  -20.0630  -13.9534 C   0  0  1  0  0  0  0  0  0  0  0  0
   26.0528  -18.6712  -14.2004 C   0  0  0  0  0  0  0  0  0  0  0  0
   26.8474  -17.9569  -15.2176 C   0  0  0  0  0  0  0  0  0  0  0  0
   26.1461  -17.2864  -16.2206 C   0  0  0  0  0  0  0  0  0  0  0  0
   26.7975  -16.5793  -17.1983 C   0  0  0  0  0  0  0  0  0  0  0  0
   28.1740  -16.5518  -17.1585 C   0  0  0  0  0  0  0  0  0  0  0  0
   28.8919  -17.2118  -16.1696 C   0  0  0  0  0  0  0  0  0  0  0  0
   28.2261  -17.9124  -15.2021 C   0  0  0  0  0  0  0  0  0  0  0  0
   25.8472  -20.7287  -12.8501 C   0  0  0  0  0  0  0  0  0  0  0  0
   25.0192  -21.6291  -13.1058 O   0  0  0  0  0  0  0  0  0  0  0  0
   27.5923  -21.1778   -9.1997 C   0  0  0  0  0  0  0  0  0  0  0  0
   26.1272  -20.8646   -9.0946 C   0  0  1  0  0  0  0  0  0  0  0  0
   25.8612  -19.4835   -8.5778 C   0  0  0  0  0  0  0  0  0  0  0  0
   25.3994  -21.0626  -10.4222 C   0  0  2  0  0  0  0  0  0  0  0  0
   26.0772  -20.3855  -11.4967 N   0  0  0  0  0  0  0  0  0  0  0  0
   23.9803  -20.6558  -10.3317 C   0  0  0  0  0  0  0  0  0  0  0  0
   23.0385  -21.3110   -9.5580 O   0  0  0  0  0  0  0  0  0  0  0  0
   23.5892  -19.6577  -10.9904 O   0  0  0  0  0  0  0  0  0  0  0  0
  1  2  1  0
  3  2  1  0
  4  5  1  0
  4  3  1  0
  5  6  1  1
  5  1  1  0
  6  7  2  0
  8  9  1  0
  8  6  1  0
 10 11  1  0
  9 10  1  6
 11 12  2  0
 12 13  1  0
 14 13  2  0
 15 14  1  0
 16 15  2  0
 16 11  1  0
 17  9  1  0
 17 18  2  0
 20 19  1  6
 20 22  1  0
 21 20  1  0
 22 23  1  6
 22 24  1  0
 23 17  1  0
 24 26  2  0
 24 25  1  0
M  END
$$$$
