PFV.pdb
     RDKit          3D

 26 27  0  0  1  0  0  0  0  0999 V2000
   27.8758  -19.4597  -13.5445 N   0  0  0  0  0  0  0  0  0  0  0  0
   28.5148  -19.4858  -14.8542 C   0  0  0  0  0  0  0  0  0  0  0  0
   29.0183  -20.8618  -15.1088 C   0  0  0  0  0  0  0  0  0  0  0  0
   28.7791  -21.5968  -13.8230 C   0  0  0  0  0  0  0  0  0  0  0  0
   27.6565  -20.8208  -13.1815 C   0  0  1  0  0  0  0  0  0  0  0  0
   27.5851  -21.0978  -11.7382 C   0  0  0  0  0  0  0  0  0  0  0  0
   27.1500  -22.2200  -11.2978 O   0  0  0  0  0  0  0  0  0  0  0  0
   27.9750  -20.1864  -10.7234 N   0  0  0  0  0  0  0  0  0  0  0  0
   27.7531  -20.4600   -9.3100 C   0  0  1  0  0  0  0  0  0  0  0  0
   28.8370  -19.8668   -8.4637 C   0  0  0  0  0  0  0  0  0  0  0  0
   28.4924  -19.8468   -7.0295 C   0  0  0  0  0  0  0  0  0  0  0  0
   28.8716  -20.9518   -6.2662 C   0  0  0  0  0  0  0  0  0  0  0  0
   28.6117  -21.0152   -4.9214 C   0  0  0  0  0  0  0  0  0  0  0  0
   27.9607  -19.9472   -4.3445 C   0  0  0  0  0  0  0  0  0  0  0  0
   27.5744  -18.8376   -5.0852 C   0  0  0  0  0  0  0  0  0  0  0  0
   27.8415  -18.7910   -6.4255 C   0  0  0  0  0  0  0  0  0  0  0  0
   26.4099  -20.0605   -8.8770 C   0  0  0  0  0  0  0  0  0  0  0  0
   26.0706  -18.8610   -8.9643 O   0  0  0  0  0  0  0  0  0  0  0  0
   21.8259  -20.7746   -9.3213 C   0  0  0  0  0  0  0  0  0  0  0  0
   23.2928  -21.0624   -9.4658 C   0  0  1  0  0  0  0  0  0  0  0  0
   23.8984  -20.4151  -10.6740 C   0  0  0  0  0  0  0  0  0  0  0  0
   24.0831  -20.6633   -8.2218 C   0  0  2  0  0  0  0  0  0  0  0  0
   25.4780  -20.9915   -8.3603 N   0  0  0  0  0  0  0  0  0  0  0  0
   23.5041  -21.2538   -6.9956 C   0  0  0  0  0  0  0  0  0  0  0  0
   22.2637  -20.9114   -6.4867 O   0  0  0  0  0  0  0  0  0  0  0  0
   24.1647  -22.1198   -6.3656 O   0  0  0  0  0  0  0  0  0  0  0  0
  1  2  1  0
  3  2  1  0
  4  5  1  0
  4  3  1  0
  5  6  1  1
  5  1  1  0
  6  7  2  0
  8  9  1  0
  8  6  1  0
 10 11  1  0
  9 10  1  1
 11 12  2  0
 12 13  1  0
 14 13  2  0
 15 14  1  0
 16 15  2  0
 16 11  1  0
 17  9  1  0
 17 18  2  0
 20 19  1  1
 20 22  1  0
 21 20  1  0
 22 23  1  6
 22 24  1  0
 23 17  1  0
 24 26  2  0
 24 25  1  0
M  END
$$$$
