PFV.pdb
     RDKit          3D

 26 27  0  0  1  0  0  0  0  0999 V2000
   27.9951  -19.6416  -13.6073 N   0  0  0  0  0  0  0  0  0  0  0  0
   28.6829  -19.7378  -14.8886 C   0  0  0  0  0  0  0  0  0  0  0  0
   29.1618  -21.1345  -15.0660 C   0  0  0  0  0  0  0  0  0  0  0  0
   28.8555  -21.8087  -13.7612 C   0  0  0  0  0  0  0  0  0  0  0  0
   27.7286  -20.9806  -13.1970 C   0  0  1  0  0  0  0  0  0  0  0  0
   27.5952  -21.1945  -11.7474 C   0  0  0  0  0  0  0  0  0  0  0  0
   27.0391  -22.2504  -11.2800 O   0  0  0  0  0  0  0  0  0  0  0  0
   28.0502  -20.2888  -10.7549 N   0  0  0  0  0  0  0  0  0  0  0  0
   27.7389  -20.4666   -9.3431 C   0  0  1  0  0  0  0  0  0  0  0  0
   28.7897  -19.8504   -8.4718 C   0  0  0  0  0  0  0  0  0  0  0  0
   28.4493  -19.9147   -7.0379 C   0  0  0  0  0  0  0  0  0  0  0  0
   28.9171  -21.0159   -6.3194 C   0  0  0  0  0  0  0  0  0  0  0  0
   28.6675  -21.1530   -4.9781 C   0  0  0  0  0  0  0  0  0  0  0  0
   27.9362  -20.1635   -4.3590 C   0  0  0  0  0  0  0  0  0  0  0  0
   27.4611  -19.0593   -5.0547 C   0  0  0  0  0  0  0  0  0  0  0  0
   27.7193  -18.9385   -6.3921 C   0  0  0  0  0  0  0  0  0  0  0  0
   26.3857  -20.0049   -9.0162 C   0  0  0  0  0  0  0  0  0  0  0  0
   26.0896  -18.8038   -9.1938 O   0  0  0  0  0  0  0  0  0  0  0  0
   23.5297  -21.6767  -10.6171 C   0  0  0  0  0  0  0  0  0  0  0  0
   23.4099  -20.3901   -9.8517 C   0  0  1  0  0  0  0  0  0  0  0  0
   21.9985  -19.8961   -9.7574 C   0  0  0  0  0  0  0  0  0  0  0  0
   24.0094  -20.4953   -8.4513 C   0  0  2  0  0  0  0  0  0  0  0  0
   25.3965  -20.8770   -8.5031 N   0  0  0  0  0  0  0  0  0  0  0  0
   23.2257  -21.4073   -7.5901 C   0  0  0  0  0  0  0  0  0  0  0  0
   21.8846  -21.2299   -7.2989 O   0  0  0  0  0  0  0  0  0  0  0  0
   23.7962  -22.4082   -7.0842 O   0  0  0  0  0  0  0  0  0  0  0  0
  1  2  1  0
  3  2  1  0
  4  5  1  0
  4  3  1  0
  5  6  1  1
  5  1  1  0
  6  7  2  0
  8  9  1  0
  8  6  1  0
 10 11  1  0
  9 10  1  1
 11 12  2  0
 12 13  1  0
 14 13  2  0
 15 14  1  0
 16 15  2  0
 16 11  1  0
 17  9  1  0
 17 18  2  0
 20 19  1  1
 20 22  1  0
 21 20  1  0
 22 23  1  6
 22 24  1  0
 23 17  1  0
 24 26  2  0
 24 25  1  0
M  END
$$$$
