PFV.pdb
     RDKit          3D

 26 27  0  0  1  0  0  0  0  0999 V2000
   28.0450  -20.5232  -17.7492 N   0  0  0  0  0  0  0  0  0  0  0  0
   29.2765  -20.5408  -18.5284 C   0  0  0  0  0  0  0  0  0  0  0  0
   30.0644  -21.7417  -18.1429 C   0  0  0  0  0  0  0  0  0  0  0  0
   29.3070  -22.3391  -16.9940 C   0  0  0  0  0  0  0  0  0  0  0  0
   27.9022  -21.8314  -17.2008 C   0  0  1  0  0  0  0  0  0  0  0  0
   27.1218  -21.9255  -15.9570 C   0  0  0  0  0  0  0  0  0  0  0  0
   26.7602  -23.0604  -15.4839 O   0  0  0  0  0  0  0  0  0  0  0  0
   26.7045  -20.8127  -15.1824 N   0  0  0  0  0  0  0  0  0  0  0  0
   25.9668  -20.9697  -13.9362 C   0  0  1  0  0  0  0  0  0  0  0  0
   26.6499  -20.2631  -12.8062 C   0  0  0  0  0  0  0  0  0  0  0  0
   25.9544  -20.4448  -11.5180 C   0  0  0  0  0  0  0  0  0  0  0  0
   24.8308  -19.6515  -11.2816 C   0  0  0  0  0  0  0  0  0  0  0  0
   24.1083  -19.7626  -10.1216 C   0  0  0  0  0  0  0  0  0  0  0  0
   24.5292  -20.6875   -9.1917 C   0  0  0  0  0  0  0  0  0  0  0  0
   25.6443  -21.4871   -9.4065 C   0  0  0  0  0  0  0  0  0  0  0  0
   26.3534  -21.3632  -10.5691 C   0  0  0  0  0  0  0  0  0  0  0  0
   24.5584  -20.5860  -14.0791 C   0  0  0  0  0  0  0  0  0  0  0  0
   24.2729  -19.4062  -14.3761 O   0  0  0  0  0  0  0  0  0  0  0  0
   22.0691  -21.3320  -16.4823 C   0  0  0  0  0  0  0  0  0  0  0  0
   21.4364  -21.7456  -15.1846 C   0  0  1  0  0  0  0  0  0  0  0  0
   21.3885  -23.2326  -15.0064 C   0  0  0  0  0  0  0  0  0  0  0  0
   22.1244  -21.1082  -13.9796 C   0  0  2  0  0  0  0  0  0  0  0  0
   23.5038  -21.5107  -13.8912 N   0  0  0  0  0  0  0  0  0  0  0  0
   21.3943  -21.3878  -12.7242 C   0  0  0  0  0  0  0  0  0  0  0  0
   20.1783  -20.8150  -12.3957 O   0  0  0  0  0  0  0  0  0  0  0  0
   21.8938  -22.1913  -11.8946 O   0  0  0  0  0  0  0  0  0  0  0  0
  1  2  1  0
  3  2  1  0
  4  5  1  0
  4  3  1  0
  5  6  1  1
  5  1  1  0
  6  7  2  0
  8  9  1  0
  8  6  1  0
 10 11  1  0
  9 10  1  1
 11 12  2  0
 12 13  1  0
 14 13  2  0
 15 14  1  0
 16 15  2  0
 16 11  1  0
 17  9  1  0
 17 18  2  0
 20 19  1  6
 20 22  1  0
 21 20  1  0
 22 23  1  1
 22 24  1  0
 23 17  1  0
 24 26  2  0
 24 25  1  0
M  END
$$$$
