PFV.pdb
     RDKit          3D

 26 27  0  0  1  0  0  0  0  0999 V2000
   25.9689  -19.7786  -13.0982 N   0  0  0  0  0  0  0  0  0  0  0  0
   26.4049  -19.8331  -14.4878 C   0  0  0  0  0  0  0  0  0  0  0  0
   27.1390  -21.1082  -14.7048 C   0  0  0  0  0  0  0  0  0  0  0  0
   27.2432  -21.7223  -13.3400 C   0  0  0  0  0  0  0  0  0  0  0  0
   26.0889  -21.1055  -12.5910 C   0  0  1  0  0  0  0  0  0  0  0  0
   26.2839  -21.2231  -11.1373 C   0  0  0  0  0  0  0  0  0  0  0  0
   26.2650  -22.3644  -10.5547 O   0  0  0  0  0  0  0  0  0  0  0  0
   26.5042  -20.1274  -10.2636 N   0  0  0  0  0  0  0  0  0  0  0  0
   26.7813  -20.3115   -8.8454 C   0  0  1  0  0  0  0  0  0  0  0  0
   27.8705  -19.3951   -8.3799 C   0  0  0  0  0  0  0  0  0  0  0  0
   28.2174  -19.5986   -6.9605 C   0  0  0  0  0  0  0  0  0  0  0  0
   27.6489  -18.7247   -6.0327 C   0  0  0  0  0  0  0  0  0  0  0  0
   27.8972  -18.8470   -4.6898 C   0  0  0  0  0  0  0  0  0  0  0  0
   28.7304  -19.8659   -4.2834 C   0  0  0  0  0  0  0  0  0  0  0  0
   29.3066  -20.7467   -5.1895 C   0  0  0  0  0  0  0  0  0  0  0  0
   29.0482  -20.6102   -6.5254 C   0  0  0  0  0  0  0  0  0  0  0  0
   25.5661  -20.2116   -8.0304 C   0  0  0  0  0  0  0  0  0  0  0  0
   24.8267  -19.2118   -8.1547 O   0  0  0  0  0  0  0  0  0  0  0  0
   24.0680  -23.5401   -5.6613 C   0  0  0  0  0  0  0  0  0  0  0  0
   23.2460  -22.4552   -6.2958 C   0  0  1  0  0  0  0  0  0  0  0  0
   21.9124  -22.2726   -5.6376 C   0  0  0  0  0  0  0  0  0  0  0  0
   23.9851  -21.1196   -6.3325 C   0  0  2  0  0  0  0  0  0  0  0  0
   25.1984  -21.2139   -7.1016 N   0  0  0  0  0  0  0  0  0  0  0  0
   24.2425  -20.6016   -4.9713 C   0  0  0  0  0  0  0  0  0  0  0  0
   23.2488  -20.1717   -4.1095 O   0  0  0  0  0  0  0  0  0  0  0  0
   25.4288  -20.5412   -4.5563 O   0  0  0  0  0  0  0  0  0  0  0  0
  1  2  1  0
  3  2  1  0
  4  5  1  0
  4  3  1  0
  5  6  1  1
  5  1  1  0
  6  7  2  0
  8  9  1  0
  8  6  1  0
 10 11  1  0
  9 10  1  1
 11 12  2  0
 12 13  1  0
 14 13  2  0
 15 14  1  0
 16 15  2  0
 16 11  1  0
 17  9  1  0
 17 18  2  0
 20 19  1  1
 20 22  1  0
 21 20  1  0
 22 23  1  1
 22 24  1  0
 23 17  1  0
 24 26  2  0
 24 25  1  0
M  END
$$$$
