IIN.pdb
     RDKit          3D

 25 24  0  0  1  0  0  0  0  0999 V2000
   21.5098  -10.3782    7.5144 C   0  0  0  0  0  0  0  0  0  0  0  0
   20.6219  -11.0752    6.5619 C   0  0  0  0  0  0  0  0  0  0  0  0
   19.9806  -12.3372    6.9588 C   0  0  2  0  0  0  0  0  0  0  0  0
   20.9781  -13.3505    7.5151 C   0  0  0  0  0  0  0  0  0  0  0  0
   19.1101  -13.0329    6.0130 C   0  0  2  0  0  0  0  0  0  0  0  0
   17.9977  -12.1586    5.5839 N   0  0  0  0  0  0  0  0  0  0  0  0
   18.5698  -14.3658    6.3419 C   0  0  0  0  0  0  0  0  0  0  0  0
   17.6090  -14.4525    7.1619 O   0  0  0  0  0  0  0  0  0  0  0  0
   16.4678  -17.9941    3.3227 C   0  0  0  0  0  0  0  0  0  0  0  0
   17.0544  -17.2145    4.4614 C   0  0  0  0  0  0  0  0  0  0  0  0
   18.3242  -17.8043    5.0130 C   0  0  2  0  0  0  0  0  0  0  0  0
   18.1052  -19.2151    5.5126 C   0  0  0  0  0  0  0  0  0  0  0  0
   18.8074  -16.9240    6.1373 C   0  0  2  0  0  0  0  0  0  0  0  0
   19.0832  -15.5577    5.7776 N   0  0  0  0  0  0  0  0  0  0  0  0
   19.8397  -17.5249    6.9716 C   0  0  0  0  0  0  0  0  0  0  0  0
   21.0624  -17.3563    6.7613 O   0  0  0  0  0  0  0  0  0  0  0  0
   22.2423  -17.7221   12.1286 N   0  0  0  0  0  0  0  0  0  0  0  0
   22.1246  -18.3125   10.8499 C   0  0  0  0  0  0  0  0  0  0  0  0
   22.8784  -19.2517   10.4515 O   0  0  0  0  0  0  0  0  0  0  0  0
   21.0666  -17.7973    9.9480 C   0  0  0  0  0  0  0  0  0  0  0  0
   20.5603  -18.8516    8.9984 C   0  0  2  0  0  0  0  0  0  0  0  0
   19.5439  -18.3631    8.1081 N   0  0  0  0  0  0  0  0  0  0  0  0
   19.9138  -19.9110    9.8478 C   0  0  0  0  0  0  0  0  0  0  0  0
   18.6560  -20.0053    9.8708 O   0  0  0  0  0  0  0  0  0  0  0  0
   20.6356  -20.7968   10.6133 O   0  0  0  0  0  0  0  0  0  0  0  0
  2  1  1  0
  2  3  1  0
  3  5  1  0
  3  4  1  6
  5  6  1  1
  7  5  1  0
  7  8  2  0
  9 10  1  0
 10 11  1  0
 11 12  1  1
 13 11  1  0
 13 14  1  6
 14  7  1  0
 15 13  1  0
 16 15  2  0
 17 18  1  0
 18 20  1  0
 18 19  2  0
 21 20  1  1
 21 22  1  0
 22 15  1  0
 23 21  1  0
 23 25  1  0
 24 23  2  0
M  END
$$$$
