IIN.pdb
     RDKit          3D

 25 24  0  0  1  0  0  0  0  0999 V2000
   29.2072  -20.0926  -12.4870 C   0  0  0  0  0  0  0  0  0  0  0  0
   28.0743  -21.0259  -12.6517 C   0  0  0  0  0  0  0  0  0  0  0  0
   26.7397  -20.6381  -12.1720 C   0  0  2  0  0  0  0  0  0  0  0  0
   26.7509  -20.1858  -10.7138 C   0  0  0  0  0  0  0  0  0  0  0  0
   25.6142  -21.5529  -12.3524 C   0  0  2  0  0  0  0  0  0  0  0  0
   25.7216  -22.2681  -13.6419 N   0  0  0  0  0  0  0  0  0  0  0  0
   24.2298  -21.0697  -12.1888 C   0  0  0  0  0  0  0  0  0  0  0  0
   23.9203  -20.4419  -11.1337 O   0  0  0  0  0  0  0  0  0  0  0  0
   22.7805  -19.0898  -15.8826 C   0  0  0  0  0  0  0  0  0  0  0  0
   21.9919  -19.0668  -14.6074 C   0  0  0  0  0  0  0  0  0  0  0  0
   21.2381  -20.3403  -14.3344 C   0  0  2  0  0  0  0  0  0  0  0  0
   19.7621  -20.0756  -14.1365 C   0  0  0  0  0  0  0  0  0  0  0  0
   21.8209  -20.9821  -13.1012 C   0  0  2  0  0  0  0  0  0  0  0  0
   23.2278  -21.2801  -13.1658 N   0  0  0  0  0  0  0  0  0  0  0  0
   21.0212  -22.0696  -12.5530 C   0  0  0  0  0  0  0  0  0  0  0  0
   20.9853  -23.2096  -13.0695 O   0  0  0  0  0  0  0  0  0  0  0  0
   18.1640  -25.0673   -9.5784 N   0  0  0  0  0  0  0  0  0  0  0  0
   18.6548  -24.0776   -8.6967 C   0  0  0  0  0  0  0  0  0  0  0  0
   18.4995  -24.1354   -7.4392 O   0  0  0  0  0  0  0  0  0  0  0  0
   19.3812  -22.9279   -9.2873 C   0  0  0  0  0  0  0  0  0  0  0  0
   19.4882  -23.0273  -10.7867 C   0  0  2  0  0  0  0  0  0  0  0  0
   20.2045  -21.9279  -11.3721 N   0  0  0  0  0  0  0  0  0  0  0  0
   18.0827  -22.9549  -11.3171 C   0  0  0  0  0  0  0  0  0  0  0  0
   17.5224  -21.8310  -11.4372 O   0  0  0  0  0  0  0  0  0  0  0  0
   17.3654  -24.0696  -11.6839 O   0  0  0  0  0  0  0  0  0  0  0  0
  2  1  1  0
  2  3  1  0
  3  5  1  0
  3  4  1  1
  5  6  1  6
  7  5  1  0
  7  8  2  0
  9 10  1  0
 10 11  1  0
 11 12  1  1
 13 11  1  0
 13 14  1  6
 14  7  1  0
 15 13  1  0
 16 15  2  0
 17 18  1  0
 18 20  1  0
 18 19  2  0
 21 20  1  1
 21 22  1  0
 22 15  1  0
 23 21  1  0
 23 25  1  0
 24 23  2  0
M  END
$$$$
