IIN.pdb
     RDKit          3D

 25 24  0  0  1  0  0  0  0  0999 V2000
   28.1072  -24.9063  -19.1491 C   0  0  0  0  0  0  0  0  0  0  0  0
   27.4025  -23.6470  -18.8342 C   0  0  0  0  0  0  0  0  0  0  0  0
   26.3878  -23.6304  -17.7705 C   0  0  2  0  0  0  0  0  0  0  0  0
   25.5873  -22.3305  -17.7460 C   0  0  0  0  0  0  0  0  0  0  0  0
   26.7764  -23.9473  -16.3976 C   0  0  2  0  0  0  0  0  0  0  0  0
   27.2997  -25.3271  -16.3063 N   0  0  0  0  0  0  0  0  0  0  0  0
   25.8323  -23.7208  -15.2866 C   0  0  0  0  0  0  0  0  0  0  0  0
   24.9260  -24.5774  -15.0679 O   0  0  0  0  0  0  0  0  0  0  0  0
   25.2451  -20.6545   -9.8864 C   0  0  0  0  0  0  0  0  0  0  0  0
   24.7002  -21.3398  -11.1037 C   0  0  0  0  0  0  0  0  0  0  0  0
   25.7096  -21.5173  -12.2057 C   0  0  2  0  0  0  0  0  0  0  0  0
   26.2835  -20.1891  -12.6467 C   0  0  0  0  0  0  0  0  0  0  0  0
   25.0312  -22.2009  -13.3654 C   0  0  2  0  0  0  0  0  0  0  0  0
   25.8966  -22.5801  -14.4515 N   0  0  0  0  0  0  0  0  0  0  0  0
   23.7962  -21.5629  -13.8019 C   0  0  0  0  0  0  0  0  0  0  0  0
   23.7817  -20.5537  -14.5429 O   0  0  0  0  0  0  0  0  0  0  0  0
   18.7811  -21.4522  -15.8364 N   0  0  0  0  0  0  0  0  0  0  0  0
   18.8800  -21.8066  -14.4718 C   0  0  0  0  0  0  0  0  0  0  0  0
   17.9454  -21.6074  -13.6376 O   0  0  0  0  0  0  0  0  0  0  0  0
   20.1407  -22.4384  -14.0137 C   0  0  0  0  0  0  0  0  0  0  0  0
   21.2741  -21.4506  -13.9173 C   0  0  2  0  0  0  0  0  0  0  0  0
   22.4880  -22.0365  -13.4199 N   0  0  0  0  0  0  0  0  0  0  0  0
   20.8512  -20.4183  -12.9085 C   0  0  0  0  0  0  0  0  0  0  0  0
   20.3278  -19.3413  -13.3055 O   0  0  0  0  0  0  0  0  0  0  0  0
   21.0085  -20.5914  -11.5532 O   0  0  0  0  0  0  0  0  0  0  0  0
  2  1  1  0
  2  3  1  0
  3  5  1  0
  3  4  1  1
  5  6  1  6
  7  5  1  0
  7  8  2  0
  9 10  1  0
 10 11  1  0
 11 12  1  6
 13 11  1  0
 13 14  1  6
 14  7  1  0
 15 13  1  0
 16 15  2  0
 17 18  1  0
 18 20  1  0
 18 19  2  0
 21 20  1  1
 21 22  1  0
 22 15  1  0
 23 21  1  0
 23 25  1  0
 24 23  2  0
M  END
$$$$
