IIN.pdb
     RDKit          3D

 25 24  0  0  1  0  0  0  0  0999 V2000
   21.8680  -19.4198  -16.4544 C   0  0  0  0  0  0  0  0  0  0  0  0
   23.0145  -19.5622  -15.5343 C   0  0  0  0  0  0  0  0  0  0  0  0
   22.8116  -20.1714  -14.2117 C   0  0  2  0  0  0  0  0  0  0  0  0
   21.6305  -19.5606  -13.4614 C   0  0  0  0  0  0  0  0  0  0  0  0
   23.9354  -20.2691  -13.2822 C   0  0  2  0  0  0  0  0  0  0  0  0
   25.1546  -20.7294  -13.9805 N   0  0  0  0  0  0  0  0  0  0  0  0
   23.7942  -21.0229  -12.0218 C   0  0  0  0  0  0  0  0  0  0  0  0
   23.8120  -22.2883  -12.0590 O   0  0  0  0  0  0  0  0  0  0  0  0
   26.6552  -19.6112   -7.9543 C   0  0  0  0  0  0  0  0  0  0  0  0
   25.7423  -20.4805   -8.7664 C   0  0  0  0  0  0  0  0  0  0  0  0
   24.2954  -20.3879   -8.3635 C   0  0  2  0  0  0  0  0  0  0  0  0
   24.0373  -21.1172   -7.0637 C   0  0  0  0  0  0  0  0  0  0  0  0
   23.4563  -20.9799   -9.4670 C   0  0  2  0  0  0  0  0  0  0  0  0
   23.6377  -20.3881  -10.7667 N   0  0  0  0  0  0  0  0  0  0  0  0
   22.0584  -21.1899   -9.1142 C   0  0  0  0  0  0  0  0  0  0  0  0
   21.1843  -20.3051   -9.2581 O   0  0  0  0  0  0  0  0  0  0  0  0
   18.0670  -24.8416   -6.5279 N   0  0  0  0  0  0  0  0  0  0  0  0
   18.3889  -24.3047   -7.7950 C   0  0  0  0  0  0  0  0  0  0  0  0
   17.5110  -23.9954   -8.6567 O   0  0  0  0  0  0  0  0  0  0  0  0
   19.8228  -24.1010   -8.1128 C   0  0  0  0  0  0  0  0  0  0  0  0
   20.1745  -22.6440   -8.2634 C   0  0  2  0  0  0  0  0  0  0  0  0
   21.5618  -22.4307   -8.5705 N   0  0  0  0  0  0  0  0  0  0  0  0
   19.9293  -22.0085   -6.9225 C   0  0  0  0  0  0  0  0  0  0  0  0
   20.8407  -22.0289   -6.0506 O   0  0  0  0  0  0  0  0  0  0  0  0
   18.7425  -21.3963   -6.5930 O   0  0  0  0  0  0  0  0  0  0  0  0
  2  1  1  0
  2  3  1  0
  3  5  1  0
  3  4  1  1
  5  6  1  6
  7  5  1  0
  7  8  2  0
  9 10  1  0
 10 11  1  0
 11 12  1  1
 13 11  1  0
 13 14  1  6
 14  7  1  0
 15 13  1  0
 16 15  2  0
 17 18  1  0
 18 20  1  0
 18 19  2  0
 21 20  1  1
 21 22  1  0
 22 15  1  0
 23 21  1  0
 23 25  1  0
 24 23  2  0
M  END
$$$$
