IIN.pdb
     RDKit          3D

 25 24  0  0  1  0  0  0  0  0999 V2000
   19.1863  -16.8762  -18.4942 C   0  0  0  0  0  0  0  0  0  0  0  0
   20.5259  -16.8047  -17.8762 C   0  0  0  0  0  0  0  0  0  0  0  0
   20.9369  -15.5792  -17.1758 C   0  0  2  0  0  0  0  0  0  0  0  0
   20.8017  -14.3336  -18.0483 C   0  0  0  0  0  0  0  0  0  0  0  0
   22.2395  -15.5283  -16.5148 C   0  0  2  0  0  0  0  0  0  0  0  0
   22.4473  -16.7260  -15.6732 N   0  0  0  0  0  0  0  0  0  0  0  0
   22.6381  -14.3320  -15.7487 C   0  0  0  0  0  0  0  0  0  0  0  0
   22.0863  -14.1074  -14.6315 O   0  0  0  0  0  0  0  0  0  0  0  0
   27.6730  -13.2530  -15.0698 C   0  0  0  0  0  0  0  0  0  0  0  0
   26.1767  -13.2225  -14.9763 C   0  0  0  0  0  0  0  0  0  0  0  0
   25.5540  -11.9903  -15.5751 C   0  0  2  0  0  0  0  0  0  0  0  0
   25.8949  -10.7547  -14.7720 C   0  0  0  0  0  0  0  0  0  0  0  0
   24.0600  -12.1863  -15.6181 C   0  0  2  0  0  0  0  0  0  0  0  0
   23.6154  -13.4196  -16.2127 N   0  0  0  0  0  0  0  0  0  0  0  0
   23.3125  -11.0204  -16.0706 C   0  0  0  0  0  0  0  0  0  0  0  0
   23.3207  -10.6319  -17.2609 O   0  0  0  0  0  0  0  0  0  0  0  0
   19.2840   -7.7199  -17.2814 N   0  0  0  0  0  0  0  0  0  0  0  0
   19.5148   -8.0513  -15.9269 C   0  0  0  0  0  0  0  0  0  0  0  0
   19.1054   -7.3366  -14.9623 O   0  0  0  0  0  0  0  0  0  0  0  0
   20.2713   -9.2940  -15.6410 C   0  0  0  0  0  0  0  0  0  0  0  0
   21.7612   -9.0711  -15.6454 C   0  0  2  0  0  0  0  0  0  0  0  0
   22.5009  -10.2156  -15.1901 N   0  0  0  0  0  0  0  0  0  0  0  0
   22.0271   -7.9679  -14.6583 C   0  0  0  0  0  0  0  0  0  0  0  0
   21.6627   -6.7912  -14.9304 O   0  0  0  0  0  0  0  0  0  0  0  0
   22.6575   -8.1800  -13.4544 O   0  0  0  0  0  0  0  0  0  0  0  0
  2  1  1  0
  2  3  1  0
  3  5  1  0
  3  4  1  6
  5  6  1  1
  7  5  1  0
  7  8  2  0
  9 10  1  0
 10 11  1  0
 11 12  1  1
 13 11  1  0
 13 14  1  6
 14  7  1  0
 15 13  1  0
 16 15  2  0
 17 18  1  0
 18 20  1  0
 18 19  2  0
 21 20  1  1
 21 22  1  0
 22 15  1  0
 23 21  1  0
 23 25  1  0
 24 23  2  0
M  END
$$$$
