IIN.pdb
     RDKit          3D

 25 24  0  0  1  0  0  0  0  0999 V2000
   15.6982  -10.3943  -20.2089 C   0  0  0  0  0  0  0  0  0  0  0  0
   16.8638  -11.1049  -19.6452 C   0  0  0  0  0  0  0  0  0  0  0  0
   17.6235  -10.4933  -18.5450 C   0  0  2  0  0  0  0  0  0  0  0  0
   18.1972   -9.1286  -18.9183 C   0  0  0  0  0  0  0  0  0  0  0  0
   18.6765  -11.2598  -17.8818 C   0  0  2  0  0  0  0  0  0  0  0  0
   18.1965  -12.6128  -17.5283 N   0  0  0  0  0  0  0  0  0  0  0  0
   19.3938  -10.6908  -16.7248 C   0  0  0  0  0  0  0  0  0  0  0  0
   18.7996  -10.6206  -15.6091 O   0  0  0  0  0  0  0  0  0  0  0  0
   23.8945  -12.3875  -14.9231 C   0  0  0  0  0  0  0  0  0  0  0  0
   22.6291  -11.6094  -15.1274 C   0  0  0  0  0  0  0  0  0  0  0  0
   22.8535  -10.1731  -15.5167 C   0  0  2  0  0  0  0  0  0  0  0  0
   23.5575   -9.4078  -14.4183 C   0  0  0  0  0  0  0  0  0  0  0  0
   21.5146   -9.5462  -15.8109 C   0  0  2  0  0  0  0  0  0  0  0  0
   20.7245  -10.2165  -16.8102 N   0  0  0  0  0  0  0  0  0  0  0  0
   21.5499   -8.0987  -15.9728 C   0  0  0  0  0  0  0  0  0  0  0  0
   21.9676   -7.5447  -17.0151 O   0  0  0  0  0  0  0  0  0  0  0  0
   18.6660   -2.9297  -14.6856 N   0  0  0  0  0  0  0  0  0  0  0  0
   19.7685   -3.6692  -15.1707 C   0  0  0  0  0  0  0  0  0  0  0  0
   20.7604   -3.1299  -15.7489 O   0  0  0  0  0  0  0  0  0  0  0  0
   19.7462   -5.1401  -14.9860 C   0  0  0  0  0  0  0  0  0  0  0  0
   21.1133   -5.7561  -15.1309 C   0  0  2  0  0  0  0  0  0  0  0  0
   21.1084   -7.1815  -14.9503 N   0  0  0  0  0  0  0  0  0  0  0  0
   21.9542   -5.1860  -14.0219 C   0  0  0  0  0  0  0  0  0  0  0  0
   22.0000   -5.7804  -12.9101 O   0  0  0  0  0  0  0  0  0  0  0  0
   22.6877   -4.0307  -14.1602 O   0  0  0  0  0  0  0  0  0  0  0  0
  2  1  1  0
  2  3  1  0
  3  5  1  0
  3  4  1  6
  5  6  1  1
  7  5  1  0
  7  8  2  0
  9 10  1  0
 10 11  1  0
 11 12  1  1
 13 11  1  0
 13 14  1  6
 14  7  1  0
 15 13  1  0
 16 15  2  0
 17 18  1  0
 18 20  1  0
 18 19  2  0
 21 20  1  1
 21 22  1  0
 22 15  1  0
 23 21  1  0
 23 25  1  0
 24 23  2  0
M  END
$$$$
