FMG.pdb
     RDKit          3D

 24 24  0  0  1  0  0  0  0  0999 V2000
    9.6144  -17.1795   26.2456 N   0  0  0  0  0  0  0  0  0  0  0  0
    8.1975  -16.9644   26.4745 C   0  0  1  0  0  0  0  0  0  0  0  0
    7.9695  -15.9184   27.5457 C   0  0  0  0  0  0  0  0  0  0  0  0
    9.1529  -15.6600   28.3691 C   0  0  0  0  0  0  0  0  0  0  0  0
    9.9130  -16.7137   28.8105 C   0  0  0  0  0  0  0  0  0  0  0  0
   11.0456  -16.5329   29.5943 C   0  0  0  0  0  0  0  0  0  0  0  0
   11.3672  -15.2101   29.9084 C   0  0  0  0  0  0  0  0  0  0  0  0
   10.6159  -14.1446   29.4739 C   0  0  0  0  0  0  0  0  0  0  0  0
    9.4969  -14.3520   28.6974 C   0  0  0  0  0  0  0  0  0  0  0  0
    7.5868  -16.4598   25.2160 C   0  0  0  0  0  0  0  0  0  0  0  0
    6.4984  -16.9712   24.8565 O   0  0  0  0  0  0  0  0  0  0  0  0
    5.6961  -12.1973   26.3565 C   0  0  0  0  0  0  0  0  0  0  0  0
    6.6038  -13.3782   25.3272 S   0  0  0  0  0  0  0  0  0  0  0  0
    7.3975  -12.4976   23.9082 C   0  0  0  0  0  0  0  0  0  0  0  0
    8.0731  -13.4860   23.0156 C   0  0  0  0  0  0  0  0  0  0  0  0
    7.5303  -14.8917   23.2216 C   0  0  2  0  0  0  0  0  0  0  0  0
    8.1768  -15.4459   24.4276 N   0  0  0  0  0  0  0  0  0  0  0  0
    7.9937  -15.7187   22.0901 C   0  0  0  0  0  0  0  0  0  0  0  0
    7.5276  -15.4848   20.9440 O   0  0  0  0  0  0  0  0  0  0  0  0
    8.9410  -16.7696   22.1876 N   0  0  0  0  0  0  0  0  0  0  0  0
    9.3546  -17.4633   20.9841 C   0  0  0  0  0  0  0  0  0  0  0  0
   10.7262  -17.0626   20.5790 C   0  0  0  0  0  0  0  0  0  0  0  0
   11.5250  -16.5877   21.4183 O   0  0  0  0  0  0  0  0  0  0  0  0
   11.1071  -17.2202   19.2698 O   0  0  0  0  0  0  0  0  0  0  0  0
  2  1  1  6
  2 10  1  0
  3  2  1  0
  4  3  1  0
  4  9  2  0
  5  4  1  0
  6  5  2  0
  6  7  1  0
  7  8  2  0
  8  9  1  0
 10 11  2  0
 12 13  1  0
 13 14  1  0
 14 15  1  0
 16 15  1  6
 16 18  1  0
 17 10  1  0
 17 16  1  0
 18 19  2  0
 20 21  1  0
 20 18  1  0
 21 22  1  0
 22 23  2  0
 22 24  1  0
M  END
$$$$
