FMG.pdb
     RDKit          3D

 24 24  0  0  1  0  0  0  0  0999 V2000
    8.7904  -16.1211   25.9070 N   0  0  0  0  0  0  0  0  0  0  0  0
    7.5114  -16.6420   25.4609 C   0  0  1  0  0  0  0  0  0  0  0  0
    6.3658  -15.8038   25.9888 C   0  0  0  0  0  0  0  0  0  0  0  0
    6.7243  -14.4014   26.2118 C   0  0  0  0  0  0  0  0  0  0  0  0
    5.7326  -13.4611   26.3354 C   0  0  0  0  0  0  0  0  0  0  0  0
    6.0092  -12.1163   26.5473 C   0  0  0  0  0  0  0  0  0  0  0  0
    7.3617  -11.7754   26.6277 C   0  0  0  0  0  0  0  0  0  0  0  0
    8.3659  -12.7055   26.5060 C   0  0  0  0  0  0  0  0  0  0  0  0
    8.0638  -14.0332   26.2962 C   0  0  0  0  0  0  0  0  0  0  0  0
    7.4674  -16.5792   23.9758 C   0  0  0  0  0  0  0  0  0  0  0  0
    6.4220  -16.9836   23.4112 O   0  0  0  0  0  0  0  0  0  0  0  0
    8.4194  -12.0197   20.1358 C   0  0  0  0  0  0  0  0  0  0  0  0
    6.8344  -12.8741   20.3249 S   0  0  0  0  0  0  0  0  0  0  0  0
    7.0690  -14.4296   21.2968 C   0  0  0  0  0  0  0  0  0  0  0  0
    8.4371  -14.9759   21.0516 C   0  0  0  0  0  0  0  0  0  0  0  0
    8.6378  -16.3174   21.7394 C   0  0  2  0  0  0  0  0  0  0  0  0
    8.5393  -16.0904   23.1948 N   0  0  0  0  0  0  0  0  0  0  0  0
   10.0269  -16.7461   21.4835 C   0  0  0  0  0  0  0  0  0  0  0  0
   10.3501  -17.0685   20.3100 O   0  0  0  0  0  0  0  0  0  0  0  0
   11.0470  -16.8210   22.4658 N   0  0  0  0  0  0  0  0  0  0  0  0
   11.6321  -18.1089   22.7816 C   0  0  0  0  0  0  0  0  0  0  0  0
   12.6811  -18.4771   21.7968 C   0  0  0  0  0  0  0  0  0  0  0  0
   13.7955  -17.9061   21.8099 O   0  0  0  0  0  0  0  0  0  0  0  0
   12.4122  -19.4535   20.8705 O   0  0  0  0  0  0  0  0  0  0  0  0
  2  1  1  1
  2 10  1  0
  3  2  1  0
  4  3  1  0
  4  9  2  0
  5  4  1  0
  6  5  2  0
  6  7  1  0
  7  8  2  0
  8  9  1  0
 10 11  2  0
 12 13  1  0
 13 14  1  0
 14 15  1  0
 16 15  1  6
 16 18  1  0
 17 10  1  0
 17 16  1  0
 18 19  2  0
 20 21  1  0
 20 18  1  0
 21 22  1  0
 22 23  2  0
 22 24  1  0
M  END
$$$$
