FMG.pdb
     RDKit          3D

 24 24  0  0  1  0  0  0  0  0999 V2000
   11.5609  -16.7588   21.8022 N   0  0  0  0  0  0  0  0  0  0  0  0
   10.4579  -15.8167   21.8481 C   0  0  1  0  0  0  0  0  0  0  0  0
    9.4128  -16.1475   20.8029 C   0  0  0  0  0  0  0  0  0  0  0  0
    8.4346  -15.0769   20.5978 C   0  0  0  0  0  0  0  0  0  0  0  0
    8.8368  -13.8920   20.0346 C   0  0  0  0  0  0  0  0  0  0  0  0
    7.9567  -12.8399   19.8151 C   0  0  0  0  0  0  0  0  0  0  0  0
    6.6325  -13.0592   20.2029 C   0  0  0  0  0  0  0  0  0  0  0  0
    6.2148  -14.2400   20.7681 C   0  0  0  0  0  0  0  0  0  0  0  0
    7.1086  -15.2679   20.9747 C   0  0  0  0  0  0  0  0  0  0  0  0
    9.8072  -15.9154   23.1816 C   0  0  0  0  0  0  0  0  0  0  0  0
    9.9730  -16.9782   23.8281 O   0  0  0  0  0  0  0  0  0  0  0  0
    7.3178  -10.8020   27.0299 C   0  0  0  0  0  0  0  0  0  0  0  0
    6.0647  -12.1019   26.8955 S   0  0  0  0  0  0  0  0  0  0  0  0
    6.8804  -13.7360   26.6067 C   0  0  0  0  0  0  0  0  0  0  0  0
    7.5349  -13.7427   25.2644 C   0  0  0  0  0  0  0  0  0  0  0  0
    8.4653  -14.9344   25.0990 C   0  0  2  0  0  0  0  0  0  0  0  0
    9.0250  -14.8759   23.7343 N   0  0  0  0  0  0  0  0  0  0  0  0
    7.6384  -16.1560   25.1521 C   0  0  0  0  0  0  0  0  0  0  0  0
    6.6008  -16.2111   24.4409 O   0  0  0  0  0  0  0  0  0  0  0  0
    7.9236  -17.2950   25.9475 N   0  0  0  0  0  0  0  0  0  0  0  0
    6.9880  -18.4018   25.9599 C   0  0  0  0  0  0  0  0  0  0  0  0
    7.4626  -19.4951   26.8460 C   0  0  0  0  0  0  0  0  0  0  0  0
    8.5445  -19.3871   27.4673 O   0  0  0  0  0  0  0  0  0  0  0  0
    6.6981  -20.6276   26.9750 O   0  0  0  0  0  0  0  0  0  0  0  0
  2  1  1  1
  2 10  1  0
  3  2  1  0
  4  3  1  0
  4  9  2  0
  5  4  1  0
  6  5  2  0
  6  7  1  0
  7  8  2  0
  8  9  1  0
 10 11  2  0
 12 13  1  0
 13 14  1  0
 14 15  1  0
 16 15  1  6
 16 18  1  0
 17 10  1  0
 17 16  1  0
 18 19  2  0
 20 21  1  0
 20 18  1  0
 21 22  1  0
 22 23  2  0
 22 24  1  0
M  END
$$$$
