FMG.pdb
     RDKit          3D

 24 24  0  0  1  0  0  0  0  0999 V2000
    5.3280  -19.6934   22.4103 N   0  0  0  0  0  0  0  0  0  0  0  0
    5.9142  -19.3678   23.6974 C   0  0  1  0  0  0  0  0  0  0  0  0
    6.9871  -20.3667   24.0777 C   0  0  0  0  0  0  0  0  0  0  0  0
    6.4623  -21.7022   24.3713 C   0  0  0  0  0  0  0  0  0  0  0  0
    5.7824  -21.9191   25.5433 C   0  0  0  0  0  0  0  0  0  0  0  0
    5.2617  -23.1627   25.8782 C   0  0  0  0  0  0  0  0  0  0  0  0
    5.4713  -24.1841   24.9483 C   0  0  0  0  0  0  0  0  0  0  0  0
    6.1500  -23.9823   23.7706 C   0  0  0  0  0  0  0  0  0  0  0  0
    6.6565  -22.7385   23.4629 C   0  0  0  0  0  0  0  0  0  0  0  0
    6.5588  -18.0313   23.5987 C   0  0  0  0  0  0  0  0  0  0  0  0
    7.0175  -17.6923   22.4807 O   0  0  0  0  0  0  0  0  0  0  0  0
    7.3574  -10.9366   27.1003 C   0  0  0  0  0  0  0  0  0  0  0  0
    6.5171  -12.5360   26.9838 S   0  0  0  0  0  0  0  0  0  0  0  0
    7.3920  -13.6206   25.7683 C   0  0  0  0  0  0  0  0  0  0  0  0
    6.6863  -14.9326   25.6639 C   0  0  0  0  0  0  0  0  0  0  0  0
    7.3044  -15.8193   24.5939 C   0  0  2  0  0  0  0  0  0  0  0  0
    6.6705  -17.1485   24.6968 N   0  0  0  0  0  0  0  0  0  0  0  0
    8.7256  -16.0136   24.9425 C   0  0  0  0  0  0  0  0  0  0  0  0
    9.0096  -16.4392   26.0930 O   0  0  0  0  0  0  0  0  0  0  0  0
    9.8164  -15.7614   24.0720 N   0  0  0  0  0  0  0  0  0  0  0  0
   11.1689  -15.9205   24.5679 C   0  0  0  0  0  0  0  0  0  0  0  0
   12.1598  -15.8124   23.4668 C   0  0  0  0  0  0  0  0  0  0  0  0
   12.1422  -16.6229   22.5124 O   0  0  0  0  0  0  0  0  0  0  0  0
   13.0967  -14.8103   23.5095 O   0  0  0  0  0  0  0  0  0  0  0  0
  2  1  1  6
  2 10  1  0
  3  2  1  0
  4  3  1  0
  4  9  2  0
  5  4  1  0
  6  5  2  0
  6  7  1  0
  7  8  2  0
  8  9  1  0
 10 11  2  0
 12 13  1  0
 13 14  1  0
 14 15  1  0
 16 15  1  1
 16 18  1  0
 17 10  1  0
 17 16  1  0
 18 19  2  0
 20 21  1  0
 20 18  1  0
 21 22  1  0
 22 23  2  0
 22 24  1  0
M  END
$$$$
