FMG.pdb
     RDKit          3D

 24 24  0  0  1  0  0  0  0  0999 V2000
    9.0197  -16.5629   20.6127 N   0  0  0  0  0  0  0  0  0  0  0  0
    8.2439  -17.1004   21.7151 C   0  0  1  0  0  0  0  0  0  0  0  0
    8.4469  -18.5954   21.8484 C   0  0  0  0  0  0  0  0  0  0  0  0
    7.5949  -19.2104   22.8686 C   0  0  0  0  0  0  0  0  0  0  0  0
    6.6093  -18.4654   23.4657 C   0  0  0  0  0  0  0  0  0  0  0  0
    5.7701  -18.9919   24.4395 C   0  0  0  0  0  0  0  0  0  0  0  0
    5.9889  -20.3299   24.7771 C   0  0  0  0  0  0  0  0  0  0  0  0
    6.9716  -21.0886   24.1882 C   0  0  0  0  0  0  0  0  0  0  0  0
    7.7904  -20.5416   23.2246 C   0  0  0  0  0  0  0  0  0  0  0  0
    8.7141  -16.4685   22.9764 C   0  0  0  0  0  0  0  0  0  0  0  0
    9.9532  -16.4144   23.1684 O   0  0  0  0  0  0  0  0  0  0  0  0
    5.9857  -11.8329   27.1545 C   0  0  0  0  0  0  0  0  0  0  0  0
    6.0317  -11.7640   25.3459 S   0  0  0  0  0  0  0  0  0  0  0  0
    7.2481  -12.9972   24.6989 C   0  0  0  0  0  0  0  0  0  0  0  0
    7.2122  -14.2303   25.5407 C   0  0  0  0  0  0  0  0  0  0  0  0
    8.3023  -15.2136   25.1432 C   0  0  2  0  0  0  0  0  0  0  0  0
    7.8328  -15.9382   23.9458 N   0  0  0  0  0  0  0  0  0  0  0  0
    8.4078  -16.2202   26.2177 C   0  0  0  0  0  0  0  0  0  0  0  0
    8.9647  -15.8905   27.2978 O   0  0  0  0  0  0  0  0  0  0  0  0
    7.9206  -17.5495   26.1349 N   0  0  0  0  0  0  0  0  0  0  0  0
    8.0936  -18.4383   27.2665 C   0  0  0  0  0  0  0  0  0  0  0  0
    9.2722  -19.3222   27.0787 C   0  0  0  0  0  0  0  0  0  0  0  0
   10.3619  -18.8539   26.6767 O   0  0  0  0  0  0  0  0  0  0  0  0
    9.1510  -20.6617   27.3522 O   0  0  0  0  0  0  0  0  0  0  0  0
  2  1  1  6
  2 10  1  0
  3  2  1  0
  4  3  1  0
  4  9  2  0
  5  4  1  0
  6  5  2  0
  6  7  1  0
  7  8  2  0
  8  9  1  0
 10 11  2  0
 12 13  1  0
 13 14  1  0
 14 15  1  0
 16 15  1  1
 16 18  1  0
 17 10  1  0
 17 16  1  0
 18 19  2  0
 20 21  1  0
 20 18  1  0
 21 22  1  0
 22 23  2  0
 22 24  1  0
M  END
$$$$
