FMG.pdb
     RDKit          3D

 24 24  0  0  1  0  0  0  0  0999 V2000
    9.0262  -15.4598   21.1402 N   0  0  0  0  0  0  0  0  0  0  0  0
    8.8662  -14.8287   22.4373 C   0  0  1  0  0  0  0  0  0  0  0  0
    7.4501  -14.9864   22.9508 C   0  0  0  0  0  0  0  0  0  0  0  0
    7.1050  -14.0352   24.0096 C   0  0  0  0  0  0  0  0  0  0  0  0
    6.3060  -14.4406   25.0490 C   0  0  0  0  0  0  0  0  0  0  0  0
    5.9436  -13.5853   26.0819 C   0  0  0  0  0  0  0  0  0  0  0  0
    6.4422  -12.2827   26.0007 C   0  0  0  0  0  0  0  0  0  0  0  0
    7.2432  -11.8620   24.9664 C   0  0  0  0  0  0  0  0  0  0  0  0
    7.5876  -12.7310   23.9543 C   0  0  0  0  0  0  0  0  0  0  0  0
    9.7730  -15.5011   23.4052 C   0  0  0  0  0  0  0  0  0  0  0  0
   10.9059  -15.8475   22.9907 O   0  0  0  0  0  0  0  0  0  0  0  0
   10.8757  -14.4290   29.8575 C   0  0  0  0  0  0  0  0  0  0  0  0
   10.5081  -13.4900   28.3539 S   0  0  0  0  0  0  0  0  0  0  0  0
    9.2693  -14.4024   27.3281 C   0  0  0  0  0  0  0  0  0  0  0  0
    9.7101  -15.8175   27.1455 C   0  0  0  0  0  0  0  0  0  0  0  0
   10.4037  -16.0215   25.8075 C   0  0  2  0  0  0  0  0  0  0  0  0
    9.4110  -15.7584   24.7470 N   0  0  0  0  0  0  0  0  0  0  0  0
   10.7513  -17.4520   25.6993 C   0  0  0  0  0  0  0  0  0  0  0  0
   11.5952  -17.9282   26.5034 O   0  0  0  0  0  0  0  0  0  0  0  0
   10.2000  -18.3515   24.7515 N   0  0  0  0  0  0  0  0  0  0  0  0
   10.7443  -19.6907   24.6470 C   0  0  0  0  0  0  0  0  0  0  0  0
   12.1645  -19.6599   24.2134 C   0  0  0  0  0  0  0  0  0  0  0  0
   13.0428  -19.1488   24.9452 O   0  0  0  0  0  0  0  0  0  0  0  0
   12.5020  -20.2000   22.9976 O   0  0  0  0  0  0  0  0  0  0  0  0
  2  1  1  6
  2 10  1  0
  3  2  1  0
  4  3  1  0
  4  9  2  0
  5  4  1  0
  6  5  2  0
  6  7  1  0
  7  8  2  0
  8  9  1  0
 10 11  2  0
 12 13  1  0
 13 14  1  0
 14 15  1  0
 16 15  1  1
 16 18  1  0
 17 10  1  0
 17 16  1  0
 18 19  2  0
 20 21  1  0
 20 18  1  0
 21 22  1  0
 22 23  2  0
 22 24  1  0
M  END
$$$$
