FMG.pdb
     RDKit          3D

 24 24  0  0  1  0  0  0  0  0999 V2000
    9.6789  -17.6900   26.1991 N   0  0  0  0  0  0  0  0  0  0  0  0
    8.2423  -17.6376   26.3988 C   0  0  1  0  0  0  0  0  0  0  0  0
    7.9011  -17.1074   27.7758 C   0  0  0  0  0  0  0  0  0  0  0  0
    8.8399  -16.0921   28.2585 C   0  0  0  0  0  0  0  0  0  0  0  0
    8.6571  -14.7790   27.9045 C   0  0  0  0  0  0  0  0  0  0  0  0
    9.5132  -13.7712   28.3300 C   0  0  0  0  0  0  0  0  0  0  0  0
   10.5758  -14.1739   29.1428 C   0  0  0  0  0  0  0  0  0  0  0  0
   10.7719  -15.4847   29.5057 C   0  0  0  0  0  0  0  0  0  0  0  0
    9.9075  -16.4650   29.0697 C   0  0  0  0  0  0  0  0  0  0  0  0
    7.6600  -16.7025   25.3999 C   0  0  0  0  0  0  0  0  0  0  0  0
    6.4097  -16.5979   25.3668 O   0  0  0  0  0  0  0  0  0  0  0  0
    6.4343  -11.5179   26.7926 C   0  0  0  0  0  0  0  0  0  0  0  0
    7.7580  -12.3040   25.8398 S   0  0  0  0  0  0  0  0  0  0  0  0
    7.0597  -13.0834   24.3153 C   0  0  0  0  0  0  0  0  0  0  0  0
    8.1522  -13.7462   23.5423 C   0  0  0  0  0  0  0  0  0  0  0  0
    7.8805  -15.2296   23.3452 C   0  0  2  0  0  0  0  0  0  0  0  0
    8.4488  -15.9439   24.5054 N   0  0  0  0  0  0  0  0  0  0  0  0
    8.6559  -15.6724   22.1698 C   0  0  0  0  0  0  0  0  0  0  0  0
    8.3907  -15.1646   21.0486 O   0  0  0  0  0  0  0  0  0  0  0  0
    9.6967  -16.6353   22.2002 N   0  0  0  0  0  0  0  0  0  0  0  0
   10.2103  -17.1618   20.9513 C   0  0  0  0  0  0  0  0  0  0  0  0
   11.4739  -17.9122   21.1652 C   0  0  0  0  0  0  0  0  0  0  0  0
   12.2767  -18.0901   20.2206 O   0  0  0  0  0  0  0  0  0  0  0  0
   11.7507  -18.4091   22.4143 O   0  0  0  0  0  0  0  0  0  0  0  0
  2  1  1  1
  2 10  1  0
  3  2  1  0
  4  3  1  0
  4  9  2  0
  5  4  1  0
  6  5  2  0
  6  7  1  0
  7  8  2  0
  8  9  1  0
 10 11  2  0
 12 13  1  0
 13 14  1  0
 14 15  1  0
 16 15  1  1
 16 18  1  0
 17 10  1  0
 17 16  1  0
 18 19  2  0
 20 21  1  0
 20 18  1  0
 21 22  1  0
 22 23  2  0
 22 24  1  0
M  END
$$$$
