AQW.pdb
     RDKit          3D

 29 30  0  0  1  0  0  0  0  0999 V2000
   30.3927  -22.1923  -19.2600 C   0  0  0  0  0  0  0  0  0  0  0  0
   30.2243  -22.6151  -17.8408 C   0  0  2  0  0  0  0  0  0  0  0  0
   29.7497  -23.9645  -17.6699 N   0  0  0  0  0  0  0  0  0  0  0  0
   29.2454  -21.7012  -17.1859 C   0  0  0  0  0  0  0  0  0  0  0  0
   29.4510  -20.4635  -17.3059 O   0  0  0  0  0  0  0  0  0  0  0  0
   24.1699  -19.7722  -18.0460 N   0  0  0  0  0  0  0  0  0  0  0  0
   24.2110  -21.1756  -17.9192 C   0  0  0  0  0  0  0  0  0  0  0  0
   23.3687  -21.8755  -18.5066 O   0  0  0  0  0  0  0  0  0  0  0  0
   25.2549  -21.7956  -17.0894 C   0  0  0  0  0  0  0  0  0  0  0  0
   26.1664  -20.7339  -16.5765 C   0  0  0  0  0  0  0  0  0  0  0  0
   27.2980  -21.2683  -15.7267 C   0  0  2  0  0  0  0  0  0  0  0  0
   28.1231  -22.2066  -16.4540 N   0  0  0  0  0  0  0  0  0  0  0  0
   26.6675  -21.9774  -14.5902 C   0  0  0  0  0  0  0  0  0  0  0  0
   27.1188  -23.1007  -14.2661 O   0  0  0  0  0  0  0  0  0  0  0  0
   25.5790  -21.3870  -13.8940 N   0  0  0  0  0  0  0  0  0  0  0  0
   25.5983  -21.4016  -12.4531 C   0  0  1  0  0  0  0  0  0  0  0  0
   26.8465  -20.7453  -11.8977 C   0  0  0  0  0  0  0  0  0  0  0  0
   26.6386  -20.5443  -10.4478 C   0  0  0  0  0  0  0  0  0  0  0  0
   25.4902  -20.2329   -9.7803 C   0  0  0  0  0  0  0  0  0  0  0  0
   25.7147  -20.1330   -8.4609 N   0  0  0  0  0  0  0  0  0  0  0  0
   27.0142  -20.3779   -8.2463 C   0  0  0  0  0  0  0  0  0  0  0  0
   27.8004  -20.4153   -7.1139 C   0  0  0  0  0  0  0  0  0  0  0  0
   29.1555  -20.7007   -7.1582 C   0  0  0  0  0  0  0  0  0  0  0  0
   29.7533  -20.9589   -8.3723 C   0  0  0  0  0  0  0  0  0  0  0  0
   28.9692  -20.9225   -9.5092 C   0  0  0  0  0  0  0  0  0  0  0  0
   27.6180  -20.6400   -9.4838 C   0  0  0  0  0  0  0  0  0  0  0  0
   24.3798  -20.6748  -11.9825 C   0  0  0  0  0  0  0  0  0  0  0  0
   23.5527  -21.2304  -11.0224 O   0  0  0  0  0  0  0  0  0  0  0  0
   24.0533  -19.5443  -12.4278 O   0  0  0  0  0  0  0  0  0  0  0  0
  2  1  1  6
  2  3  1  0
  4  2  1  0
  5  4  2  0
  7  9  1  0
  7  6  1  0
  8  7  2  0
 11 10  1  6
 10  9  1  0
 11 12  1  0
 12  4  1  0
 13 14  2  0
 13 11  1  0
 15 13  1  0
 16 15  1  0
 16 17  1  1
 18 26  1  0
 18 17  1  0
 19 18  2  0
 20 19  1  0
 20 21  1  0
 21 22  1  0
 21 26  2  0
 22 23  2  0
 23 24  1  0
 25 24  2  0
 26 25  1  0
 27 28  1  0
 27 16  1  0
 29 27  2  0
M  END
$$$$
