AQW.pdb
     RDKit          3D

 29 30  0  0  1  0  0  0  0  0999 V2000
   20.4440  -12.5871    5.4926 C   0  0  0  0  0  0  0  0  0  0  0  0
   18.9974  -12.6018    5.1341 C   0  0  2  0  0  0  0  0  0  0  0  0
   18.2298  -11.5201    5.6962 N   0  0  0  0  0  0  0  0  0  0  0  0
   18.4020  -13.8812    5.6148 C   0  0  0  0  0  0  0  0  0  0  0  0
   17.9130  -13.8825    6.7764 O   0  0  0  0  0  0  0  0  0  0  0  0
   16.7779  -18.9271    2.2566 N   0  0  0  0  0  0  0  0  0  0  0  0
   16.1805  -19.1916    3.5058 C   0  0  0  0  0  0  0  0  0  0  0  0
   15.4007  -20.1514    3.6287 O   0  0  0  0  0  0  0  0  0  0  0  0
   16.4896  -18.3241    4.6525 C   0  0  0  0  0  0  0  0  0  0  0  0
   17.3269  -17.1815    4.1892 C   0  0  0  0  0  0  0  0  0  0  0  0
   17.7315  -16.2395    5.3015 C   0  0  2  0  0  0  0  0  0  0  0  0
   18.3866  -15.0547    4.7943 N   0  0  0  0  0  0  0  0  0  0  0  0
   18.6913  -16.9826    6.1492 C   0  0  0  0  0  0  0  0  0  0  0  0
   19.8686  -17.1131    5.7401 O   0  0  0  0  0  0  0  0  0  0  0  0
   18.2739  -17.5283    7.3926 N   0  0  0  0  0  0  0  0  0  0  0  0
   19.2269  -18.2870    8.1625 C   0  0  1  0  0  0  0  0  0  0  0  0
   19.3753  -17.7458    9.5705 C   0  0  0  0  0  0  0  0  0  0  0  0
   20.4141  -16.6942    9.5381 C   0  0  0  0  0  0  0  0  0  0  0  0
   20.2638  -15.3417    9.4416 C   0  0  0  0  0  0  0  0  0  0  0  0
   21.4561  -14.7257    9.4413 N   0  0  0  0  0  0  0  0  0  0  0  0
   22.4042  -15.6672    9.5376 C   0  0  0  0  0  0  0  0  0  0  0  0
   23.7820  -15.6281    9.5829 C   0  0  0  0  0  0  0  0  0  0  0  0
   24.5557  -16.7727    9.6873 C   0  0  0  0  0  0  0  0  0  0  0  0
   23.9388  -18.0031    9.7490 C   0  0  0  0  0  0  0  0  0  0  0  0
   22.5586  -18.0467    9.7038 C   0  0  0  0  0  0  0  0  0  0  0  0
   21.7722  -16.9167    9.6001 C   0  0  0  0  0  0  0  0  0  0  0  0
   18.7453  -19.7016    8.2012 C   0  0  0  0  0  0  0  0  0  0  0  0
   19.4850  -20.6824    8.8379 O   0  0  0  0  0  0  0  0  0  0  0  0
   17.6647  -20.0623    7.6671 O   0  0  0  0  0  0  0  0  0  0  0  0
  2  1  1  1
  2  3  1  0
  4  2  1  0
  5  4  2  0
  7  9  1  0
  7  6  1  0
  8  7  2  0
 11 10  1  6
 10  9  1  0
 11 12  1  0
 12  4  1  0
 13 14  2  0
 13 11  1  0
 15 13  1  0
 16 15  1  0
 16 17  1  1
 18 26  1  0
 18 17  1  0
 19 18  2  0
 20 19  1  0
 20 21  1  0
 21 22  1  0
 21 26  2  0
 22 23  2  0
 23 24  1  0
 25 24  2  0
 26 25  1  0
 27 28  1  0
 27 16  1  0
 29 27  2  0
M  END
$$$$
