AQW.pdb
     RDKit          3D

 29 30  0  0  1  0  0  0  0  0999 V2000
   26.5006  -18.4842  -20.9124 C   0  0  0  0  0  0  0  0  0  0  0  0
   26.5937  -18.4273  -19.4260 C   0  0  2  0  0  0  0  0  0  0  0  0
   27.9056  -18.6996  -18.8969 N   0  0  0  0  0  0  0  0  0  0  0  0
   25.6534  -19.4321  -18.8525 C   0  0  0  0  0  0  0  0  0  0  0  0
   24.7774  -19.9018  -19.6274 O   0  0  0  0  0  0  0  0  0  0  0  0
   27.9380  -21.9931  -15.4878 N   0  0  0  0  0  0  0  0  0  0  0  0
   27.7963  -22.6068  -16.7490 C   0  0  0  0  0  0  0  0  0  0  0  0
   28.7825  -23.1245  -17.3003 O   0  0  0  0  0  0  0  0  0  0  0  0
   26.4770  -22.6263  -17.3987 C   0  0  0  0  0  0  0  0  0  0  0  0
   25.4641  -22.0574  -16.4652 C   0  0  0  0  0  0  0  0  0  0  0  0
   24.7863  -20.8131  -16.9951 C   0  0  2  0  0  0  0  0  0  0  0  0
   25.7416  -19.8443  -17.4839 N   0  0  0  0  0  0  0  0  0  0  0  0
   24.0539  -20.2187  -15.8539 C   0  0  0  0  0  0  0  0  0  0  0  0
   24.7074  -19.5810  -14.9955 O   0  0  0  0  0  0  0  0  0  0  0  0
   22.6461  -20.3756  -15.7477 N   0  0  0  0  0  0  0  0  0  0  0  0
   21.9629  -19.7166  -14.6634 C   0  0  1  0  0  0  0  0  0  0  0  0
   21.7162  -18.2504  -14.9585 C   0  0  0  0  0  0  0  0  0  0  0  0
   20.7950  -18.1755  -16.1124 C   0  0  0  0  0  0  0  0  0  0  0  0
   19.4364  -18.2980  -16.1356 C   0  0  0  0  0  0  0  0  0  0  0  0
   18.9649  -18.1710  -17.3856 N   0  0  0  0  0  0  0  0  0  0  0  0
   20.0092  -17.9633  -18.1987 C   0  0  0  0  0  0  0  0  0  0  0  0
   20.1313  -17.7661  -19.5581 C   0  0  0  0  0  0  0  0  0  0  0  0
   21.3565  -17.5683  -20.1740 C   0  0  0  0  0  0  0  0  0  0  0  0
   22.5044  -17.5661  -19.4120 C   0  0  0  0  0  0  0  0  0  0  0  0
   22.3864  -17.7634  -18.0497 C   0  0  0  0  0  0  0  0  0  0  0  0
   21.1742  -17.9619  -17.4194 C   0  0  0  0  0  0  0  0  0  0  0  0
   20.6643  -20.4271  -14.4558 C   0  0  0  0  0  0  0  0  0  0  0  0
   19.8808  -20.1573  -13.3477 O   0  0  0  0  0  0  0  0  0  0  0  0
   20.2287  -21.2883  -15.2630 O   0  0  0  0  0  0  0  0  0  0  0  0
  2  1  1  6
  2  3  1  0
  4  2  1  0
  5  4  2  0
  7  9  1  0
  7  6  1  0
  8  7  2  0
 11 10  1  1
 10  9  1  0
 11 12  1  0
 12  4  1  0
 13 14  2  0
 13 11  1  0
 15 13  1  0
 16 15  1  0
 16 17  1  6
 18 26  1  0
 18 17  1  0
 19 18  2  0
 20 19  1  0
 20 21  1  0
 21 22  1  0
 21 26  2  0
 22 23  2  0
 23 24  1  0
 25 24  2  0
 26 25  1  0
 27 28  1  0
 27 16  1  0
 29 27  2  0
M  END
$$$$
