AQW.pdb
     RDKit          3D

 29 30  0  0  1  0  0  0  0  0999 V2000
   28.2697  -19.6447  -14.9771 C   0  0  0  0  0  0  0  0  0  0  0  0
   26.8802  -20.1014  -15.2633 C   0  0  2  0  0  0  0  0  0  0  0  0
   26.2364  -19.4145  -16.3538 N   0  0  0  0  0  0  0  0  0  0  0  0
   26.0512  -19.8949  -14.0416 C   0  0  0  0  0  0  0  0  0  0  0  0
   25.9464  -18.7134  -13.6157 O   0  0  0  0  0  0  0  0  0  0  0  0
   21.5646  -19.7160  -11.1762 N   0  0  0  0  0  0  0  0  0  0  0  0
   21.6702  -19.9172  -12.5675 C   0  0  0  0  0  0  0  0  0  0  0  0
   21.1945  -19.0792  -13.3524 O   0  0  0  0  0  0  0  0  0  0  0  0
   22.3449  -21.1217  -13.0740 C   0  0  0  0  0  0  0  0  0  0  0  0
   23.3897  -21.5433  -12.0985 C   0  0  0  0  0  0  0  0  0  0  0  0
   24.6556  -20.7186  -12.1753 C   0  0  2  0  0  0  0  0  0  0  0  0
   25.4039  -20.9891  -13.3824 N   0  0  0  0  0  0  0  0  0  0  0  0
   25.4811  -21.1116  -11.0108 C   0  0  0  0  0  0  0  0  0  0  0  0
   25.8002  -22.3172  -10.8882 O   0  0  0  0  0  0  0  0  0  0  0  0
   25.8934  -20.1357  -10.0644 N   0  0  0  0  0  0  0  0  0  0  0  0
   26.6489  -20.5703   -8.9169 C   0  0  1  0  0  0  0  0  0  0  0  0
   27.5355  -19.4677   -8.3730 C   0  0  0  0  0  0  0  0  0  0  0  0
   28.3799  -20.0557   -7.3114 C   0  0  0  0  0  0  0  0  0  0  0  0
   29.1660  -21.1698   -7.3581 C   0  0  0  0  0  0  0  0  0  0  0  0
   29.7764  -21.3755   -6.1807 N   0  0  0  0  0  0  0  0  0  0  0  0
   29.3980  -20.3981   -5.3463 C   0  0  0  0  0  0  0  0  0  0  0  0
   29.6976  -20.0994   -4.0337 C   0  0  0  0  0  0  0  0  0  0  0  0
   29.1620  -19.0017   -3.3796 C   0  0  0  0  0  0  0  0  0  0  0  0
   28.2961  -18.1686   -4.0536 C   0  0  0  0  0  0  0  0  0  0  0  0
   27.9933  -18.4643   -5.3688 C   0  0  0  0  0  0  0  0  0  0  0  0
   28.5175  -19.5534   -6.0361 C   0  0  0  0  0  0  0  0  0  0  0  0
   25.6690  -21.0058   -7.8754 C   0  0  0  0  0  0  0  0  0  0  0  0
   25.9647  -22.0537   -7.0216 O   0  0  0  0  0  0  0  0  0  0  0  0
   24.5493  -20.4514   -7.7273 O   0  0  0  0  0  0  0  0  0  0  0  0
  2  1  1  1
  2  3  1  0
  4  2  1  0
  5  4  2  0
  7  9  1  0
  7  6  1  0
  8  7  2  0
 11 10  1  6
 10  9  1  0
 11 12  1  0
 12  4  1  0
 13 14  2  0
 13 11  1  0
 15 13  1  0
 16 15  1  0
 16 17  1  1
 18 26  1  0
 18 17  1  0
 19 18  2  0
 20 19  1  0
 20 21  1  0
 21 22  1  0
 21 26  2  0
 22 23  2  0
 23 24  1  0
 25 24  2  0
 26 25  1  0
 27 28  1  0
 27 16  1  0
 29 27  2  0
M  END
$$$$
