AQW.pdb
     RDKit          3D

 29 30  0  0  1  0  0  0  0  0999 V2000
   27.0589  -24.9480  -15.7813 C   0  0  0  0  0  0  0  0  0  0  0  0
   27.0993  -23.5948  -16.4047 C   0  0  2  0  0  0  0  0  0  0  0  0
   28.3340  -23.2819  -17.0777 N   0  0  0  0  0  0  0  0  0  0  0  0
   26.8900  -22.5742  -15.3384 C   0  0  0  0  0  0  0  0  0  0  0  0
   27.9042  -21.9301  -14.9576 O   0  0  0  0  0  0  0  0  0  0  0  0
   21.6079  -19.5156  -15.0215 N   0  0  0  0  0  0  0  0  0  0  0  0
   22.4125  -18.7057  -14.1945 C   0  0  0  0  0  0  0  0  0  0  0  0
   21.9923  -17.6005  -13.8120 O   0  0  0  0  0  0  0  0  0  0  0  0
   23.7450  -19.1818  -13.7933 C   0  0  0  0  0  0  0  0  0  0  0  0
   24.0323  -20.4702  -14.4851 C   0  0  0  0  0  0  0  0  0  0  0  0
   25.3611  -21.0805  -14.0973 C   0  0  2  0  0  0  0  0  0  0  0  0
   25.5960  -22.3369  -14.7728 N   0  0  0  0  0  0  0  0  0  0  0  0
   25.2946  -21.3338  -12.6401 C   0  0  0  0  0  0  0  0  0  0  0  0
   24.6076  -22.3007  -12.2355 O   0  0  0  0  0  0  0  0  0  0  0  0
   25.9969  -20.4935  -11.7353 N   0  0  0  0  0  0  0  0  0  0  0  0
   25.9088  -20.7793  -10.3256 C   0  0  1  0  0  0  0  0  0  0  0  0
   27.0129  -20.0993   -9.5407 C   0  0  0  0  0  0  0  0  0  0  0  0
   26.7830  -20.3831   -8.1081 C   0  0  0  0  0  0  0  0  0  0  0  0
   25.8363  -21.1785   -7.5316 C   0  0  0  0  0  0  0  0  0  0  0  0
   25.9554  -21.1735   -6.1948 N   0  0  0  0  0  0  0  0  0  0  0  0
   26.9825  -20.3741   -5.8776 C   0  0  0  0  0  0  0  0  0  0  0  0
   27.5586  -19.9948   -4.6833 C   0  0  0  0  0  0  0  0  0  0  0  0
   28.6421  -19.1336   -4.6204 C   0  0  0  0  0  0  0  0  0  0  0  0
   29.1744  -18.6296   -5.7869 C   0  0  0  0  0  0  0  0  0  0  0  0
   28.6002  -19.0071   -6.9855 C   0  0  0  0  0  0  0  0  0  0  0  0
   27.5207  -19.8639   -7.0669 C   0  0  0  0  0  0  0  0  0  0  0  0
   24.5723  -20.3024   -9.8556 C   0  0  0  0  0  0  0  0  0  0  0  0
   23.8407  -21.0397   -8.9413 O   0  0  0  0  0  0  0  0  0  0  0  0
   24.0574  -19.2283  -10.2607 O   0  0  0  0  0  0  0  0  0  0  0  0
  2  1  1  1
  2  3  1  0
  4  2  1  0
  5  4  2  0
  7  9  1  0
  7  6  1  0
  8  7  2  0
 11 10  1  6
 10  9  1  0
 11 12  1  0
 12  4  1  0
 13 14  2  0
 13 11  1  0
 15 13  1  0
 16 15  1  0
 16 17  1  1
 18 26  1  0
 18 17  1  0
 19 18  2  0
 20 19  1  0
 20 21  1  0
 21 22  1  0
 21 26  2  0
 22 23  2  0
 23 24  1  0
 25 24  2  0
 26 25  1  0
 27 28  1  0
 27 16  1  0
 29 27  2  0
M  END
$$$$
