AQW.pdb
     RDKit          3D

 29 30  0  0  1  0  0  0  0  0999 V2000
   21.5468   -7.3694  -23.3435 C   0  0  0  0  0  0  0  0  0  0  0  0
   20.8387   -6.0892  -23.0592 C   0  0  2  0  0  0  0  0  0  0  0  0
   21.1704   -5.0096  -23.9535 N   0  0  0  0  0  0  0  0  0  0  0  0
   21.1798   -5.6551  -21.6744 C   0  0  0  0  0  0  0  0  0  0  0  0
   22.3621   -5.8576  -21.2875 O   0  0  0  0  0  0  0  0  0  0  0  0
   18.1621   -1.3716  -18.3173 N   0  0  0  0  0  0  0  0  0  0  0  0
   19.2741   -1.6240  -17.4883 C   0  0  0  0  0  0  0  0  0  0  0  0
   19.4551   -0.9370  -16.4686 O   0  0  0  0  0  0  0  0  0  0  0  0
   20.2095   -2.7020  -17.8428 C   0  0  0  0  0  0  0  0  0  0  0  0
   19.7326   -3.3742  -19.0845 C   0  0  0  0  0  0  0  0  0  0  0  0
   20.6542   -4.4716  -19.5691 C   0  0  2  0  0  0  0  0  0  0  0  0
   20.2086   -5.0366  -20.8230 N   0  0  0  0  0  0  0  0  0  0  0  0
   20.6205   -5.5314  -18.5359 C   0  0  0  0  0  0  0  0  0  0  0  0
   19.6755   -6.3543  -18.5589 O   0  0  0  0  0  0  0  0  0  0  0  0
   21.6404   -5.6015  -17.5496 N   0  0  0  0  0  0  0  0  0  0  0  0
   21.5555   -6.6343  -16.5482 C   0  0  1  0  0  0  0  0  0  0  0  0
   22.9209   -7.0144  -16.0109 C   0  0  0  0  0  0  0  0  0  0  0  0
   22.7551   -8.2328  -15.1901 C   0  0  0  0  0  0  0  0  0  0  0  0
   23.0870   -9.5217  -15.4899 C   0  0  0  0  0  0  0  0  0  0  0  0
   22.7731  -10.3454  -14.4779 N   0  0  0  0  0  0  0  0  0  0  0  0
   22.2309   -9.6065  -13.5008 C   0  0  0  0  0  0  0  0  0  0  0  0
   21.7310   -9.9031  -12.2502 C   0  0  0  0  0  0  0  0  0  0  0  0
   21.2119   -8.9336  -11.4074 C   0  0  0  0  0  0  0  0  0  0  0  0
   21.1879   -7.6197  -11.8212 C   0  0  0  0  0  0  0  0  0  0  0  0
   21.6878   -7.3183  -13.0734 C   0  0  0  0  0  0  0  0  0  0  0  0
   22.2086   -8.2711  -13.9261 C   0  0  0  0  0  0  0  0  0  0  0  0
   20.6921   -6.1159  -15.4436 C   0  0  0  0  0  0  0  0  0  0  0  0
   19.5822   -6.8265  -15.0218 O   0  0  0  0  0  0  0  0  0  0  0  0
   20.9278   -5.0292  -14.8549 O   0  0  0  0  0  0  0  0  0  0  0  0
  2  1  1  6
  2  3  1  0
  4  2  1  0
  5  4  2  0
  7  9  1  0
  7  6  1  0
  8  7  2  0
 11 10  1  1
 10  9  1  0
 11 12  1  0
 12  4  1  0
 13 14  2  0
 13 11  1  0
 15 13  1  0
 16 15  1  0
 16 17  1  1
 18 26  1  0
 18 17  1  0
 19 18  2  0
 20 19  1  0
 20 21  1  0
 21 22  1  0
 21 26  2  0
 22 23  2  0
 23 24  1  0
 25 24  2  0
 26 25  1  0
 27 28  1  0
 27 16  1  0
 29 27  2  0
M  END
$$$$
