AQW.pdb
     RDKit          3D

 29 30  0  0  1  0  0  0  0  0999 V2000
   29.6290  -22.0719  -16.3529 C   0  0  0  0  0  0  0  0  0  0  0  0
   28.1762  -21.8876  -16.6293 C   0  0  2  0  0  0  0  0  0  0  0  0
   27.8831  -21.1989  -17.8602 N   0  0  0  0  0  0  0  0  0  0  0  0
   27.5763  -21.1019  -15.5134 C   0  0  0  0  0  0  0  0  0  0  0  0
   27.9778  -19.9159  -15.3698 O   0  0  0  0  0  0  0  0  0  0  0  0
   21.8527  -20.4721  -14.7073 N   0  0  0  0  0  0  0  0  0  0  0  0
   22.2567  -19.7459  -13.5685 C   0  0  0  0  0  0  0  0  0  0  0  0
   21.4239  -19.0778  -12.9323 O   0  0  0  0  0  0  0  0  0  0  0  0
   23.6649  -19.7885  -13.1467 C   0  0  0  0  0  0  0  0  0  0  0  0
   24.4417  -20.6086  -14.1188 C   0  0  0  0  0  0  0  0  0  0  0  0
   25.8924  -20.7917  -13.7309 C   0  0  2  0  0  0  0  0  0  0  0  0
   26.5892  -21.6690  -14.6446 N   0  0  0  0  0  0  0  0  0  0  0  0
   25.8897  -21.4153  -12.3881 C   0  0  0  0  0  0  0  0  0  0  0  0
   25.4945  -22.5999  -12.2836 O   0  0  0  0  0  0  0  0  0  0  0  0
   26.3269  -20.6772  -11.2558 N   0  0  0  0  0  0  0  0  0  0  0  0
   26.2725  -21.3102   -9.9624 C   0  0  1  0  0  0  0  0  0  0  0  0
   27.4880  -20.9793   -9.1194 C   0  0  0  0  0  0  0  0  0  0  0  0
   27.0361  -20.8403   -7.7186 C   0  0  0  0  0  0  0  0  0  0  0  0
   25.8883  -21.2945   -7.1377 C   0  0  0  0  0  0  0  0  0  0  0  0
   25.8446  -20.9621   -5.8382 N   0  0  0  0  0  0  0  0  0  0  0  0
   26.9641  -20.2851   -5.5503 C   0  0  0  0  0  0  0  0  0  0  0  0
   27.4563  -19.7072   -4.3989 C   0  0  0  0  0  0  0  0  0  0  0  0
   28.6735  -19.0465   -4.3597 C   0  0  0  0  0  0  0  0  0  0  0  0
   29.4313  -18.9557   -5.5067 C   0  0  0  0  0  0  0  0  0  0  0  0
   28.9418  -19.5332   -6.6624 C   0  0  0  0  0  0  0  0  0  0  0  0
   27.7316  -20.1952   -6.7197 C   0  0  0  0  0  0  0  0  0  0  0  0
   25.0285  -20.8343   -9.2839 C   0  0  0  0  0  0  0  0  0  0  0  0
   24.4410  -21.5833   -8.2797 O   0  0  0  0  0  0  0  0  0  0  0  0
   24.4659  -19.7505   -9.5869 O   0  0  0  0  0  0  0  0  0  0  0  0
  2  1  1  1
  2  3  1  0
  4  2  1  0
  5  4  2  0
  7  9  1  0
  7  6  1  0
  8  7  2  0
 11 10  1  6
 10  9  1  0
 11 12  1  0
 12  4  1  0
 13 14  2  0
 13 11  1  0
 15 13  1  0
 16 15  1  0
 16 17  1  1
 18 26  1  0
 18 17  1  0
 19 18  2  0
 20 19  1  0
 20 21  1  0
 21 22  1  0
 21 26  2  0
 22 23  2  0
 23 24  1  0
 25 24  2  0
 26 25  1  0
 27 28  1  0
 27 16  1  0
 29 27  2  0
M  END
$$$$
