QEV.pdb
     RDKit          3D

 26 25  0  0  1  0  0  0  0  0999 V2000
   26.0424  -13.7516  -17.6591 N   0  0  0  0  0  0  0  0  0  0  0  0
   26.1642  -14.2971  -16.3672 C   0  0  0  0  0  0  0  0  0  0  0  0
   26.9337  -15.2558  -16.1695 O   0  0  0  0  0  0  0  0  0  0  0  0
   25.3799  -13.7299  -15.2559 C   0  0  0  0  0  0  0  0  0  0  0  0
   24.6347  -12.5140  -15.7039 C   0  0  0  0  0  0  0  0  0  0  0  0
   23.1541  -12.6009  -15.6056 C   0  0  2  0  0  0  0  0  0  0  0  0
   22.6643  -13.6922  -16.4298 N   0  0  0  0  0  0  0  0  0  0  0  0
   22.4207  -11.3824  -15.9570 C   0  0  0  0  0  0  0  0  0  0  0  0
   22.2302  -11.0869  -17.1571 O   0  0  0  0  0  0  0  0  0  0  0  0
   21.8919  -10.4822  -14.9968 N   0  0  0  0  0  0  0  0  0  0  0  0
   21.1019   -9.2879  -15.3660 C   0  0  1  0  0  0  0  0  0  0  0  0
   19.6758   -9.5990  -14.9826 C   0  0  0  0  0  0  0  0  0  0  0  0
   18.7273   -8.5156  -15.3632 C   0  0  0  0  0  0  0  0  0  0  0  0
   17.3267   -8.7260  -14.9570 C   0  0  0  0  0  0  0  0  0  0  0  0
   16.7459   -9.8309  -14.9049 O   0  0  0  0  0  0  0  0  0  0  0  0
   21.6551   -8.0874  -14.7321 C   0  0  0  0  0  0  0  0  0  0  0  0
   22.0575   -8.0334  -13.5483 O   0  0  0  0  0  0  0  0  0  0  0  0
   16.5312   -7.6226  -14.5865 O   0  0  0  0  0  0  0  0  0  0  0  0
   23.9848   -5.5364  -16.7591 C   0  0  0  0  0  0  0  0  0  0  0  0
   22.9672   -4.7680  -15.9460 C   0  0  1  0  0  0  0  0  0  0  0  0
   21.8450   -4.3575  -16.8949 C   0  0  0  0  0  0  0  0  0  0  0  0
   22.4228   -5.7028  -14.8873 C   0  0  2  0  0  0  0  0  0  0  0  0
   21.7693   -6.8525  -15.4723 N   0  0  0  0  0  0  0  0  0  0  0  0
   21.4446   -4.9647  -14.0548 C   0  0  0  0  0  0  0  0  0  0  0  0
   21.8823   -3.9616  -13.2152 O   0  0  0  0  0  0  0  0  0  0  0  0
   20.2077   -5.2175  -14.0803 O   0  0  0  0  0  0  0  0  0  0  0  0
  2  4  1  0
  2  1  1  0
  3  2  2  0
  5  4  1  0
  6  5  1  0
  6  8  1  0
  6  7  1  6
  8 10  1  0
  9  8  2  0
 10 11  1  0
 11 12  1  1
 11 16  1  0
 12 13  1  0
 13 14  1  0
 14 18  1  0
 14 15  2  0
 16 17  2  0
 20 19  1  6
 20 22  1  0
 21 20  1  0
 22 24  1  0
 22 23  1  6
 23 16  1  0
 24 25  1  0
 26 24  2  0
M  END
$$$$
