QEV.pdb
     RDKit          3D

 26 25  0  0  1  0  0  0  0  0999 V2000
   11.0943  -12.2995  -12.9015 N   0  0  0  0  0  0  0  0  0  0  0  0
   11.7546  -12.3425  -11.6592 C   0  0  0  0  0  0  0  0  0  0  0  0
   11.1025  -12.5419  -10.6173 O   0  0  0  0  0  0  0  0  0  0  0  0
   13.2146  -12.1513  -11.5989 C   0  0  0  0  0  0  0  0  0  0  0  0
   13.7527  -11.7773  -12.9425 C   0  0  0  0  0  0  0  0  0  0  0  0
   15.2260  -11.5927  -13.0108 C   0  0  2  0  0  0  0  0  0  0  0  0
   15.8988  -12.8359  -12.6760 N   0  0  0  0  0  0  0  0  0  0  0  0
   15.7726  -10.5233  -12.1720 C   0  0  0  0  0  0  0  0  0  0  0  0
   16.1820  -10.7760  -11.0177 O   0  0  0  0  0  0  0  0  0  0  0  0
   15.8744   -9.1725  -12.5929 N   0  0  0  0  0  0  0  0  0  0  0  0
   16.5513   -8.1308  -11.7907 C   0  0  1  0  0  0  0  0  0  0  0  0
   17.4993   -7.4314  -12.7338 C   0  0  0  0  0  0  0  0  0  0  0  0
   18.5996   -8.3169  -13.2066 C   0  0  0  0  0  0  0  0  0  0  0  0
   19.6092   -7.6724  -14.0648 C   0  0  0  0  0  0  0  0  0  0  0  0
   19.9927   -8.0967  -15.1756 O   0  0  0  0  0  0  0  0  0  0  0  0
   15.5675   -7.2511  -11.1523 C   0  0  0  0  0  0  0  0  0  0  0  0
   14.5498   -6.7965  -11.7214 O   0  0  0  0  0  0  0  0  0  0  0  0
   20.2247   -6.4757  -13.6450 O   0  0  0  0  0  0  0  0  0  0  0  0
   13.8311   -7.6980   -7.7522 C   0  0  0  0  0  0  0  0  0  0  0  0
   14.4824   -6.3334   -7.7288 C   0  0  1  0  0  0  0  0  0  0  0  0
   15.7865   -6.4667   -6.9479 C   0  0  0  0  0  0  0  0  0  0  0  0
   14.7832   -5.9420   -9.1596 C   0  0  2  0  0  0  0  0  0  0  0  0
   15.7286   -6.8464   -9.7752 N   0  0  0  0  0  0  0  0  0  0  0  0
   15.3483   -4.5726   -9.1723 C   0  0  0  0  0  0  0  0  0  0  0  0
   14.5332   -3.4952   -8.8941 O   0  0  0  0  0  0  0  0  0  0  0  0
   16.5631   -4.3446   -9.4305 O   0  0  0  0  0  0  0  0  0  0  0  0
  2  4  1  0
  2  1  1  0
  3  2  2  0
  5  4  1  0
  6  5  1  0
  6  8  1  0
  6  7  1  1
  8 10  1  0
  9  8  2  0
 10 11  1  0
 11 12  1  6
 11 16  1  0
 12 13  1  0
 13 14  1  0
 14 18  1  0
 14 15  2  0
 16 17  2  0
 20 19  1  6
 20 22  1  0
 21 20  1  0
 22 24  1  0
 22 23  1  1
 23 16  1  0
 24 25  1  0
 26 24  2  0
M  END
$$$$
