QEV.pdb
     RDKit          3D

 26 25  0  0  1  0  0  0  0  0999 V2000
   21.0355  -30.6110  -13.0102 N   0  0  0  0  0  0  0  0  0  0  0  0
   20.7514  -30.9052  -14.3571 C   0  0  0  0  0  0  0  0  0  0  0  0
   20.7014  -29.9855  -15.1950 O   0  0  0  0  0  0  0  0  0  0  0  0
   20.5149  -32.3006  -14.7676 C   0  0  0  0  0  0  0  0  0  0  0  0
   20.6635  -33.2249  -13.6022 C   0  0  0  0  0  0  0  0  0  0  0  0
   22.0190  -33.8065  -13.4182 C   0  0  2  0  0  0  0  0  0  0  0  0
   22.2116  -34.9178  -14.3336 N   0  0  0  0  0  0  0  0  0  0  0  0
   22.3393  -34.2561  -12.0612 C   0  0  0  0  0  0  0  0  0  0  0  0
   22.0280  -35.4092  -11.6905 O   0  0  0  0  0  0  0  0  0  0  0  0
   23.0024  -33.4461  -11.1040 N   0  0  0  0  0  0  0  0  0  0  0  0
   23.3345  -33.9206   -9.7433 C   0  0  1  0  0  0  0  0  0  0  0  0
   24.6920  -33.3445   -9.4227 C   0  0  0  0  0  0  0  0  0  0  0  0
   25.1887  -33.7526   -8.0792 C   0  0  0  0  0  0  0  0  0  0  0  0
   26.5399  -33.2797   -7.7310 C   0  0  0  0  0  0  0  0  0  0  0  0
   27.1240  -33.4904   -6.6468 O   0  0  0  0  0  0  0  0  0  0  0  0
   22.2775  -33.5527   -8.7965 C   0  0  0  0  0  0  0  0  0  0  0  0
   21.7175  -32.4340   -8.7602 O   0  0  0  0  0  0  0  0  0  0  0  0
   27.2788  -32.5220   -8.6624 O   0  0  0  0  0  0  0  0  0  0  0  0
   20.8306  -36.3304   -5.8047 C   0  0  0  0  0  0  0  0  0  0  0  0
   19.9063  -35.3980   -6.5552 C   0  0  1  0  0  0  0  0  0  0  0  0
   18.7862  -35.0021   -5.5977 C   0  0  0  0  0  0  0  0  0  0  0  0
   20.7040  -34.1710   -6.9414 C   0  0  2  0  0  0  0  0  0  0  0  0
   21.8076  -34.5023   -7.8150 N   0  0  0  0  0  0  0  0  0  0  0  0
   21.2361  -33.5398   -5.7114 C   0  0  0  0  0  0  0  0  0  0  0  0
   20.4216  -32.7211   -4.9570 O   0  0  0  0  0  0  0  0  0  0  0  0
   22.4217  -33.7212   -5.3166 O   0  0  0  0  0  0  0  0  0  0  0  0
  2  4  1  0
  2  1  1  0
  3  2  2  0
  5  4  1  0
  6  5  1  0
  6  8  1  0
  6  7  1  6
  8 10  1  0
  9  8  2  0
 10 11  1  0
 11 12  1  1
 11 16  1  0
 12 13  1  0
 13 14  1  0
 14 18  1  0
 14 15  2  0
 16 17  2  0
 20 19  1  1
 20 22  1  0
 21 20  1  0
 22 24  1  0
 22 23  1  6
 23 16  1  0
 24 25  1  0
 26 24  2  0
M  END
$$$$
