QEV.pdb
     RDKit          3D

 26 25  0  0  1  0  0  0  0  0999 V2000
   16.0034  -12.9707  -19.1854 N   0  0  0  0  0  0  0  0  0  0  0  0
   16.3642  -13.9856  -18.2793 C   0  0  0  0  0  0  0  0  0  0  0  0
   15.6396  -14.9903  -18.1535 O   0  0  0  0  0  0  0  0  0  0  0  0
   17.5981  -13.8529  -17.4845 C   0  0  0  0  0  0  0  0  0  0  0  0
   18.2725  -12.5502  -17.7724 C   0  0  0  0  0  0  0  0  0  0  0  0
   19.0036  -11.9440  -16.6290 C   0  0  2  0  0  0  0  0  0  0  0  0
   18.4474  -12.4204  -15.3745 N   0  0  0  0  0  0  0  0  0  0  0  0
   19.0381  -10.4798  -16.6005 C   0  0  0  0  0  0  0  0  0  0  0  0
   19.6025   -9.8457  -17.5189 O   0  0  0  0  0  0  0  0  0  0  0  0
   18.4547   -9.7027  -15.5672 N   0  0  0  0  0  0  0  0  0  0  0  0
   18.4938   -8.2245  -15.5551 C   0  0  1  0  0  0  0  0  0  0  0  0
   17.1260   -7.7768  -15.1010 C   0  0  0  0  0  0  0  0  0  0  0  0
   16.9937   -6.2943  -15.0457 C   0  0  0  0  0  0  0  0  0  0  0  0
   15.6706   -5.7895  -14.6390 C   0  0  0  0  0  0  0  0  0  0  0  0
   14.9406   -5.0394  -15.3211 O   0  0  0  0  0  0  0  0  0  0  0  0
   19.5999   -7.7447  -14.7211 C   0  0  0  0  0  0  0  0  0  0  0  0
   19.8491   -8.1611  -13.5675 O   0  0  0  0  0  0  0  0  0  0  0  0
   15.1370   -6.1527  -13.3857 O   0  0  0  0  0  0  0  0  0  0  0  0
   23.1432   -7.8776  -15.6580 C   0  0  0  0  0  0  0  0  0  0  0  0
   22.9288   -6.4285  -15.2824 C   0  0  1  0  0  0  0  0  0  0  0  0
   22.7343   -5.6479  -16.5789 C   0  0  0  0  0  0  0  0  0  0  0  0
   21.6691   -6.3507  -14.4470 C   0  0  2  0  0  0  0  0  0  0  0  0
   20.4974   -6.7233  -15.2082 N   0  0  0  0  0  0  0  0  0  0  0  0
   21.5042   -4.9620  -13.9581 C   0  0  0  0  0  0  0  0  0  0  0  0
   22.3791   -4.4615  -13.0165 O   0  0  0  0  0  0  0  0  0  0  0  0
   20.5832   -4.2039  -14.3724 O   0  0  0  0  0  0  0  0  0  0  0  0
  2  4  1  0
  2  1  1  0
  3  2  2  0
  5  4  1  0
  6  5  1  0
  6  8  1  0
  6  7  1  1
  8 10  1  0
  9  8  2  0
 10 11  1  0
 11 12  1  1
 11 16  1  0
 12 13  1  0
 13 14  1  0
 14 18  1  0
 14 15  2  0
 16 17  2  0
 20 19  1  6
 20 22  1  0
 21 20  1  0
 22 24  1  0
 22 23  1  6
 23 16  1  0
 24 25  1  0
 26 24  2  0
M  END
$$$$
