VPM.pdb
     RDKit          3D

 23 23  0  0  1  0  0  0  0  0999 V2000
   24.5767  -22.8875  -17.2037 C   0  0  0  0  0  0  0  0  0  0  0  0
   25.7310  -22.0156  -17.6397 C   0  0  2  0  0  0  0  0  0  0  0  0
   25.9338  -22.1547  -19.1200 C   0  0  0  0  0  0  0  0  0  0  0  0
   26.9636  -22.4198  -16.8490 C   0  0  2  0  0  0  0  0  0  0  0  0
   27.2300  -23.7890  -17.1517 N   0  0  0  0  0  0  0  0  0  0  0  0
   26.8173  -22.1524  -15.4157 C   0  0  0  0  0  0  0  0  0  0  0  0
   26.3835  -23.0946  -14.6545 O   0  0  0  0  0  0  0  0  0  0  0  0
   27.1428  -20.8796  -14.8565 N   0  0  0  0  0  0  0  0  0  0  0  0
   27.9098  -19.8831  -15.5670 C   0  0  0  0  0  0  0  0  0  0  0  0
   28.2379  -18.8113  -14.5371 C   0  0  0  0  0  0  0  0  0  0  0  0
   27.0163  -18.8925  -13.6647 C   0  0  0  0  0  0  0  0  0  0  0  0
   26.7945  -20.3836  -13.5732 C   0  0  1  0  0  0  0  0  0  0  0  0
   25.3930  -20.6672  -13.1464 C   0  0  0  0  0  0  0  0  0  0  0  0
   24.5531  -20.9399  -14.0268 O   0  0  0  0  0  0  0  0  0  0  0  0
   20.2644  -22.0559   -7.3085 C   0  0  0  0  0  0  0  0  0  0  0  0
   21.9660  -21.6142   -7.6843 S   0  0  0  0  0  0  0  0  0  0  0  0
   22.1207  -21.4267   -9.4851 C   0  0  0  0  0  0  0  0  0  0  0  0
   23.5159  -21.0492   -9.8897 C   0  0  0  0  0  0  0  0  0  0  0  0
   23.6200  -20.9014  -11.3633 C   0  0  2  0  0  0  0  0  0  0  0  0
   24.9973  -20.6354  -11.7846 N   0  0  0  0  0  0  0  0  0  0  0  0
   22.6940  -19.9168  -11.9455 C   0  0  0  0  0  0  0  0  0  0  0  0
   21.4378  -20.1541  -12.4487 O   0  0  0  0  0  0  0  0  0  0  0  0
   23.0864  -18.7033  -11.9984 O   0  0  0  0  0  0  0  0  0  0  0  0
  2  1  1  1
  2  3  1  0
  4  2  1  0
  4  5  1  1
  6  8  1  0
  6  4  1  0
  7  6  2  0
  8  9  1  0
 10  9  1  0
 11 10  1  0
 11 12  1  0
 12  8  1  0
 12 13  1  6
 13 20  1  0
 14 13  2  0
 16 15  1  0
 17 16  1  0
 18 17  1  0
 19 18  1  1
 19 20  1  0
 19 21  1  0
 21 22  1  0
 23 21  2  0
M  END
$$$$
