VPM.pdb
     RDKit          3D

 23 23  0  0  1  0  0  0  0  0999 V2000
   22.1791  -20.7684  -12.9961 C   0  0  0  0  0  0  0  0  0  0  0  0
   22.8845  -19.8887  -14.0016 C   0  0  2  0  0  0  0  0  0  0  0  0
   21.8717  -19.2415  -14.9000 C   0  0  0  0  0  0  0  0  0  0  0  0
   23.8772  -20.7416  -14.7729 C   0  0  2  0  0  0  0  0  0  0  0  0
   23.1222  -21.6711  -15.5497 N   0  0  0  0  0  0  0  0  0  0  0  0
   24.8657  -21.3748  -13.8960 C   0  0  0  0  0  0  0  0  0  0  0  0
   24.5568  -22.4818  -13.3179 O   0  0  0  0  0  0  0  0  0  0  0  0
   26.1497  -20.7910  -13.6740 N   0  0  0  0  0  0  0  0  0  0  0  0
   26.7115  -19.7786  -14.5374 C   0  0  0  0  0  0  0  0  0  0  0  0
   28.1610  -19.6275  -14.0982 C   0  0  0  0  0  0  0  0  0  0  0  0
   28.0296  -19.9195  -12.6293 C   0  0  0  0  0  0  0  0  0  0  0  0
   27.0615  -21.0786  -12.6251 C   0  0  1  0  0  0  0  0  0  0  0  0
   26.4437  -21.2244  -11.2746 C   0  0  0  0  0  0  0  0  0  0  0  0
   25.2431  -21.5544  -11.2089 O   0  0  0  0  0  0  0  0  0  0  0  0
   28.7741  -18.6615   -5.4148 C   0  0  0  0  0  0  0  0  0  0  0  0
   28.0029  -20.2346   -5.0115 S   0  0  0  0  0  0  0  0  0  0  0  0
   26.8411  -20.6567   -6.3435 C   0  0  0  0  0  0  0  0  0  0  0  0
   27.5016  -20.6279   -7.6909 C   0  0  0  0  0  0  0  0  0  0  0  0
   26.5407  -20.9952   -8.7614 C   0  0  2  0  0  0  0  0  0  0  0  0
   27.1765  -21.0008  -10.0809 N   0  0  0  0  0  0  0  0  0  0  0  0
   25.3072  -20.1926   -8.7771 C   0  0  0  0  0  0  0  0  0  0  0  0
   24.1026  -20.5094   -8.1973 O   0  0  0  0  0  0  0  0  0  0  0  0
   25.3424  -19.0764   -9.3952 O   0  0  0  0  0  0  0  0  0  0  0  0
  2  1  1  1
  2  3  1  0
  4  2  1  0
  4  5  1  1
  6  8  1  0
  6  4  1  0
  7  6  2  0
  8  9  1  0
 10  9  1  0
 11 10  1  0
 11 12  1  0
 12  8  1  0
 12 13  1  1
 13 20  1  0
 14 13  2  0
 16 15  1  0
 17 16  1  0
 18 17  1  0
 19 18  1  1
 19 20  1  0
 19 21  1  0
 21 22  1  0
 23 21  2  0
M  END
$$$$
