VPM.pdb
     RDKit          3D

 23 23  0  0  1  0  0  0  0  0999 V2000
   22.2934  -21.7625  -13.4557 C   0  0  0  0  0  0  0  0  0  0  0  0
   22.7586  -20.6783  -14.3994 C   0  0  2  0  0  0  0  0  0  0  0  0
   21.6311  -20.2869  -15.3089 C   0  0  0  0  0  0  0  0  0  0  0  0
   23.9646  -21.1938  -15.1660 C   0  0  2  0  0  0  0  0  0  0  0  0
   23.5243  -22.3004  -15.9526 N   0  0  0  0  0  0  0  0  0  0  0  0
   25.0906  -21.5110  -14.2835 C   0  0  0  0  0  0  0  0  0  0  0  0
   25.1715  -22.6964  -13.7901 O   0  0  0  0  0  0  0  0  0  0  0  0
   26.0866  -20.5388  -13.9650 N   0  0  0  0  0  0  0  0  0  0  0  0
   26.2945  -19.3427  -14.7474 C   0  0  0  0  0  0  0  0  0  0  0  0
   27.5875  -18.7335  -14.2239 C   0  0  0  0  0  0  0  0  0  0  0  0
   27.5146  -19.1454  -12.7799 C   0  0  0  0  0  0  0  0  0  0  0  0
   27.0053  -20.5634  -12.8835 C   0  0  1  0  0  0  0  0  0  0  0  0
   26.4298  -20.9971  -11.5768 C   0  0  0  0  0  0  0  0  0  0  0  0
   25.1890  -21.0618  -11.4723 O   0  0  0  0  0  0  0  0  0  0  0  0
   27.8989  -19.8332   -4.0051 C   0  0  0  0  0  0  0  0  0  0  0  0
   28.5424  -19.7811   -5.6830 S   0  0  0  0  0  0  0  0  0  0  0  0
   27.2906  -20.4877   -6.7946 C   0  0  0  0  0  0  0  0  0  0  0  0
   27.8002  -20.6152   -8.2006 C   0  0  0  0  0  0  0  0  0  0  0  0
   26.7731  -21.2215   -9.0848 C   0  0  2  0  0  0  0  0  0  0  0  0
   27.2461  -21.3332  -10.4665 N   0  0  0  0  0  0  0  0  0  0  0  0
   25.4571  -20.5648   -9.0326 C   0  0  0  0  0  0  0  0  0  0  0  0
   24.3128  -21.0433   -8.4417 O   0  0  0  0  0  0  0  0  0  0  0  0
   25.3487  -19.4242   -9.5954 O   0  0  0  0  0  0  0  0  0  0  0  0
  2  1  1  1
  2  3  1  0
  4  2  1  0
  4  5  1  1
  6  8  1  0
  6  4  1  0
  7  6  2  0
  8  9  1  0
 10  9  1  0
 11 10  1  0
 11 12  1  0
 12  8  1  0
 12 13  1  1
 13 20  1  0
 14 13  2  0
 16 15  1  0
 17 16  1  0
 18 17  1  0
 19 18  1  1
 19 20  1  0
 19 21  1  0
 21 22  1  0
 23 21  2  0
M  END
$$$$
