VPM.pdb
     RDKit          3D

 23 23  0  0  1  0  0  0  0  0999 V2000
   16.1448  -26.7515  -13.8807 C   0  0  0  0  0  0  0  0  0  0  0  0
   16.6354  -26.7296  -12.4520 C   0  0  2  0  0  0  0  0  0  0  0  0
   15.5308  -26.2644  -11.5491 C   0  0  0  0  0  0  0  0  0  0  0  0
   17.8575  -25.8302  -12.3776 C   0  0  2  0  0  0  0  0  0  0  0  0
   18.8380  -26.3752  -13.2601 N   0  0  0  0  0  0  0  0  0  0  0  0
   18.3361  -25.6546  -11.0037 C   0  0  0  0  0  0  0  0  0  0  0  0
   18.6912  -26.6963  -10.3374 O   0  0  0  0  0  0  0  0  0  0  0  0
   18.4131  -24.3634  -10.3991 N   0  0  0  0  0  0  0  0  0  0  0  0
   18.2533  -23.1368  -11.1447 C   0  0  0  0  0  0  0  0  0  0  0  0
   18.6566  -22.0235  -10.1881 C   0  0  0  0  0  0  0  0  0  0  0  0
   18.2186  -22.6203   -8.8796 C   0  0  0  0  0  0  0  0  0  0  0  0
   18.6471  -24.0604   -9.0325 C   0  0  1  0  0  0  0  0  0  0  0  0
   17.9096  -24.9196   -8.0606 C   0  0  0  0  0  0  0  0  0  0  0  0
   16.8285  -25.4243   -8.4231 O   0  0  0  0  0  0  0  0  0  0  0  0
   19.4345  -26.8615   -1.4123 C   0  0  0  0  0  0  0  0  0  0  0  0
   18.8090  -28.1382   -2.5126 S   0  0  0  0  0  0  0  0  0  0  0  0
   17.7370  -27.3483   -3.7492 C   0  0  0  0  0  0  0  0  0  0  0  0
   18.5222  -26.5102   -4.7155 C   0  0  0  0  0  0  0  0  0  0  0  0
   17.6406  -25.9495   -5.7704 C   0  0  2  0  0  0  0  0  0  0  0  0
   18.3996  -25.1736   -6.7539 N   0  0  0  0  0  0  0  0  0  0  0  0
   16.4959  -25.1763   -5.2629 C   0  0  0  0  0  0  0  0  0  0  0  0
   15.2865  -25.6673   -4.8340 O   0  0  0  0  0  0  0  0  0  0  0  0
   16.6231  -23.9073   -5.2104 O   0  0  0  0  0  0  0  0  0  0  0  0
  2  1  1  6
  2  3  1  0
  4  2  1  0
  4  5  1  6
  6  8  1  0
  6  4  1  0
  7  6  2  0
  8  9  1  0
 10  9  1  0
 11 10  1  0
 11 12  1  0
 12  8  1  0
 12 13  1  1
 13 20  1  0
 14 13  2  0
 16 15  1  0
 17 16  1  0
 18 17  1  0
 19 18  1  1
 19 20  1  0
 19 21  1  0
 21 22  1  0
 23 21  2  0
M  END
$$$$
