VPM.pdb
     RDKit          3D

 23 23  0  0  1  0  0  0  0  0999 V2000
   23.0001    3.5716  -10.2018 C   0  0  0  0  0  0  0  0  0  0  0  0
   23.4821    3.0127   -8.8835 C   0  0  2  0  0  0  0  0  0  0  0  0
   23.4314    4.0851   -7.8351 C   0  0  0  0  0  0  0  0  0  0  0  0
   24.8852    2.4639   -9.0788 C   0  0  2  0  0  0  0  0  0  0  0  0
   24.8001    1.4213  -10.0498 N   0  0  0  0  0  0  0  0  0  0  0  0
   25.4985    2.0428   -7.8163 C   0  0  0  0  0  0  0  0  0  0  0  0
   25.0094    1.0223   -7.2043 O   0  0  0  0  0  0  0  0  0  0  0  0
   26.6150    2.7376   -7.2601 N   0  0  0  0  0  0  0  0  0  0  0  0
   27.3760    3.7186   -7.9982 C   0  0  0  0  0  0  0  0  0  0  0  0
   28.5997    4.0128   -7.1421 C   0  0  0  0  0  0  0  0  0  0  0  0
   28.0183    3.8282   -5.7681 C   0  0  0  0  0  0  0  0  0  0  0  0
   27.1550    2.6032   -5.9546 C   0  0  1  0  0  0  0  0  0  0  0  0
   26.1446    2.5177   -4.8598 C   0  0  0  0  0  0  0  0  0  0  0  0
   25.1057    3.1995   -4.9628 O   0  0  0  0  0  0  0  0  0  0  0  0
   25.0102   -2.2676   -0.3741 C   0  0  0  0  0  0  0  0  0  0  0  0
   24.8618   -0.7694    0.6084 S   0  0  0  0  0  0  0  0  0  0  0  0
   24.6435    0.6347   -0.5244 C   0  0  0  0  0  0  0  0  0  0  0  0
   25.5974    0.5724   -1.6815 C   0  0  0  0  0  0  0  0  0  0  0  0
   25.4651    1.7736   -2.5441 C   0  0  2  0  0  0  0  0  0  0  0  0
   26.3326    1.6927   -3.7214 N   0  0  0  0  0  0  0  0  0  0  0  0
   25.6516    3.0536   -1.8422 C   0  0  0  0  0  0  0  0  0  0  0  0
   26.8415    3.6337   -1.4746 O   0  0  0  0  0  0  0  0  0  0  0  0
   24.6018    3.7096   -1.5311 O   0  0  0  0  0  0  0  0  0  0  0  0
  2  1  1  6
  2  3  1  0
  4  2  1  0
  4  5  1  6
  6  8  1  0
  6  4  1  0
  7  6  2  0
  8  9  1  0
 10  9  1  0
 11 10  1  0
 11 12  1  0
 12  8  1  0
 12 13  1  1
 13 20  1  0
 14 13  2  0
 16 15  1  0
 17 16  1  0
 18 17  1  0
 19 18  1  1
 19 20  1  0
 19 21  1  0
 21 22  1  0
 23 21  2  0
M  END
$$$$
