VPM.pdb
     RDKit          3D

 23 23  0  0  1  0  0  0  0  0999 V2000
   24.0237  -20.1146  -10.8185 C   0  0  0  0  0  0  0  0  0  0  0  0
   24.9824  -19.8993  -11.9662 C   0  0  2  0  0  0  0  0  0  0  0  0
   24.2102  -19.5728  -13.2107 C   0  0  0  0  0  0  0  0  0  0  0  0
   25.8295  -21.1503  -12.1254 C   0  0  2  0  0  0  0  0  0  0  0  0
   24.9769  -22.1767  -12.6320 N   0  0  0  0  0  0  0  0  0  0  0  0
   26.5182  -21.5172  -10.8851 C   0  0  0  0  0  0  0  0  0  0  0  0
   25.8148  -21.9196   -9.8859 O   0  0  0  0  0  0  0  0  0  0  0  0
   27.9389  -21.4359  -10.7677 N   0  0  0  0  0  0  0  0  0  0  0  0
   28.8192  -21.3822  -11.9114 C   0  0  0  0  0  0  0  0  0  0  0  0
   30.2240  -21.5594  -11.3526 C   0  0  0  0  0  0  0  0  0  0  0  0
   30.0660  -20.8989  -10.0114 C   0  0  0  0  0  0  0  0  0  0  0  0
   28.7077  -21.3947   -9.5755 C   0  0  1  0  0  0  0  0  0  0  0  0
   28.1613  -20.5130   -8.5027 C   0  0  0  0  0  0  0  0  0  0  0  0
   27.0143  -20.0470   -8.6509 O   0  0  0  0  0  0  0  0  0  0  0  0
   23.8865  -20.3628   -3.1794 C   0  0  0  0  0  0  0  0  0  0  0  0
   25.1924  -21.3668   -3.8995 S   0  0  0  0  0  0  0  0  0  0  0  0
   26.5512  -20.2652   -4.3916 C   0  0  0  0  0  0  0  0  0  0  0  0
   27.2319  -20.7416   -5.6416 C   0  0  0  0  0  0  0  0  0  0  0  0
   28.2581  -19.7676   -6.0916 C   0  0  2  0  0  0  0  0  0  0  0  0
   28.9022  -20.1960   -7.3354 N   0  0  0  0  0  0  0  0  0  0  0  0
   29.2625  -19.4234   -5.0725 C   0  0  0  0  0  0  0  0  0  0  0  0
   29.3088  -18.2864   -4.3027 O   0  0  0  0  0  0  0  0  0  0  0  0
   30.2030  -20.2622   -4.8700 O   0  0  0  0  0  0  0  0  0  0  0  0
  2  1  1  1
  2  3  1  0
  4  2  1  0
  4  5  1  1
  6  8  1  0
  6  4  1  0
  7  6  2  0
  8  9  1  0
 10  9  1  0
 11 10  1  0
 11 12  1  0
 12  8  1  0
 12 13  1  1
 13 20  1  0
 14 13  2  0
 16 15  1  0
 17 16  1  0
 18 17  1  0
 19 18  1  1
 19 20  1  0
 19 21  1  0
 21 22  1  0
 23 21  2  0
M  END
$$$$
