VPM.pdb
     RDKit          3D

 23 23  0  0  1  0  0  0  0  0999 V2000
   15.4459  -20.1744    3.7722 C   0  0  0  0  0  0  0  0  0  0  0  0
   15.1169  -19.2822    2.5982 C   0  0  2  0  0  0  0  0  0  0  0  0
   14.1558  -19.9868    1.6862 C   0  0  0  0  0  0  0  0  0  0  0  0
   16.4131  -18.9146    1.8962 C   0  0  2  0  0  0  0  0  0  0  0  0
   16.8825  -20.0883    1.2333 N   0  0  0  0  0  0  0  0  0  0  0  0
   17.3935  -18.3247    2.8116 C   0  0  0  0  0  0  0  0  0  0  0  0
   18.2384  -19.1013    3.3930 O   0  0  0  0  0  0  0  0  0  0  0  0
   17.4260  -16.9202    3.0670 N   0  0  0  0  0  0  0  0  0  0  0  0
   16.6407  -15.9677    2.3173 C   0  0  0  0  0  0  0  0  0  0  0  0
   17.1587  -14.5975    2.7313 C   0  0  0  0  0  0  0  0  0  0  0  0
   17.5462  -14.8752    4.1570 C   0  0  0  0  0  0  0  0  0  0  0  0
   18.1909  -16.2365    4.0476 C   0  0  1  0  0  0  0  0  0  0  0  0
   18.2307  -16.8930    5.3871 C   0  0  0  0  0  0  0  0  0  0  0  0
   17.2571  -17.5929    5.7290 O   0  0  0  0  0  0  0  0  0  0  0  0
   20.9072  -21.3900    5.3634 C   0  0  0  0  0  0  0  0  0  0  0  0
   21.6385  -20.5479    6.7734 S   0  0  0  0  0  0  0  0  0  0  0  0
   20.3194  -19.6587    7.6518 C   0  0  0  0  0  0  0  0  0  0  0  0
   20.6118  -18.1906    7.7603 C   0  0  0  0  0  0  0  0  0  0  0  0
   19.3752  -17.3883    7.5833 C   0  0  2  0  0  0  0  0  0  0  0  0
   19.3318  -16.7436    6.2688 N   0  0  0  0  0  0  0  0  0  0  0  0
   19.1215  -16.4119    8.6548 C   0  0  0  0  0  0  0  0  0  0  0  0
   18.5588  -16.6554    9.8843 O   0  0  0  0  0  0  0  0  0  0  0  0
   19.4533  -15.1995    8.4332 O   0  0  0  0  0  0  0  0  0  0  0  0
  2  1  1  1
  2  3  1  0
  4  2  1  0
  4  5  1  1
  6  8  1  0
  6  4  1  0
  7  6  2  0
  8  9  1  0
 10  9  1  0
 11 10  1  0
 11 12  1  0
 12  8  1  0
 12 13  1  1
 13 20  1  0
 14 13  2  0
 16 15  1  0
 17 16  1  0
 18 17  1  0
 19 18  1  1
 19 20  1  0
 19 21  1  0
 21 22  1  0
 23 21  2  0
M  END
$$$$
