VPM.pdb
     RDKit          3D

 23 23  0  0  1  0  0  0  0  0999 V2000
   25.1830  -16.7989  -15.4547 C   0  0  0  0  0  0  0  0  0  0  0  0
   25.7920  -17.5402  -14.2875 C   0  0  2  0  0  0  0  0  0  0  0  0
   27.1283  -16.9434  -13.9561 C   0  0  0  0  0  0  0  0  0  0  0  0
   25.8927  -19.0114  -14.6529 C   0  0  2  0  0  0  0  0  0  0  0  0
   24.7836  -19.3139  -15.4988 N   0  0  0  0  0  0  0  0  0  0  0  0
   25.9828  -19.8730  -13.4710 C   0  0  0  0  0  0  0  0  0  0  0  0
   24.9558  -19.9743  -12.7029 O   0  0  0  0  0  0  0  0  0  0  0  0
   27.1765  -20.5924  -13.1607 N   0  0  0  0  0  0  0  0  0  0  0  0
   28.2477  -20.7827  -14.1106 C   0  0  0  0  0  0  0  0  0  0  0  0
   29.1847  -21.7969  -13.4698 C   0  0  0  0  0  0  0  0  0  0  0  0
   29.0049  -21.4505  -12.0180 C   0  0  0  0  0  0  0  0  0  0  0  0
   27.5150  -21.2186  -11.9329 C   0  0  1  0  0  0  0  0  0  0  0  0
   27.1893  -20.4273  -10.7104 C   0  0  0  0  0  0  0  0  0  0  0  0
   27.9075  -19.4457  -10.4357 O   0  0  0  0  0  0  0  0  0  0  0  0
   28.5722  -20.0154   -4.2838 C   0  0  0  0  0  0  0  0  0  0  0  0
   28.3377  -18.9954   -5.7455 S   0  0  0  0  0  0  0  0  0  0  0  0
   26.6884  -19.3442   -6.4241 C   0  0  0  0  0  0  0  0  0  0  0  0
   26.7033  -19.4078   -7.9235 C   0  0  0  0  0  0  0  0  0  0  0  0
   26.2022  -20.7201   -8.4043 C   0  0  2  0  0  0  0  0  0  0  0  0
   26.0994  -20.7580   -9.8649 N   0  0  0  0  0  0  0  0  0  0  0  0
   24.9451  -21.1607   -7.7786 C   0  0  0  0  0  0  0  0  0  0  0  0
   23.8118  -21.6059   -8.4150 O   0  0  0  0  0  0  0  0  0  0  0  0
   24.8831  -21.1304   -6.5040 O   0  0  0  0  0  0  0  0  0  0  0  0
  2  1  1  6
  2  3  1  0
  4  2  1  0
  4  5  1  1
  6  8  1  0
  6  4  1  0
  7  6  2  0
  8  9  1  0
 10  9  1  0
 11 10  1  0
 11 12  1  0
 12  8  1  0
 12 13  1  1
 13 20  1  0
 14 13  2  0
 16 15  1  0
 17 16  1  0
 18 17  1  0
 19 18  1  6
 19 20  1  0
 19 21  1  0
 21 22  1  0
 23 21  2  0
M  END
$$$$
