VPM.pdb
     RDKit          3D

 23 23  0  0  1  0  0  0  0  0999 V2000
   22.3935  -20.3225  -15.9154 C   0  0  0  0  0  0  0  0  0  0  0  0
   23.2811  -20.6025  -14.7254 C   0  0  2  0  0  0  0  0  0  0  0  0
   23.3076  -19.4020  -13.8255 C   0  0  0  0  0  0  0  0  0  0  0  0
   24.6641  -20.9717  -15.2341 C   0  0  2  0  0  0  0  0  0  0  0  0
   24.4924  -21.9710  -16.2387 N   0  0  0  0  0  0  0  0  0  0  0  0
   25.5655  -21.3753  -14.1516 C   0  0  0  0  0  0  0  0  0  0  0  0
   25.3084  -22.4591  -13.5078 O   0  0  0  0  0  0  0  0  0  0  0  0
   26.7096  -20.5956  -13.8027 N   0  0  0  0  0  0  0  0  0  0  0  0
   27.2671  -19.5868  -14.6732 C   0  0  0  0  0  0  0  0  0  0  0  0
   28.5944  -19.1920  -14.0411 C   0  0  0  0  0  0  0  0  0  0  0  0
   28.2661  -19.3783  -12.5859 C   0  0  0  0  0  0  0  0  0  0  0  0
   27.4692  -20.6611  -12.6057 C   0  0  1  0  0  0  0  0  0  0  0  0
   26.6654  -20.7834  -11.3544 C   0  0  0  0  0  0  0  0  0  0  0  0
   25.5195  -20.2919  -11.3403 O   0  0  0  0  0  0  0  0  0  0  0  0
   28.7527  -19.7606   -4.2503 C   0  0  0  0  0  0  0  0  0  0  0  0
   28.5243  -18.9559   -5.8416 S   0  0  0  0  0  0  0  0  0  0  0  0
   27.2611  -19.8764   -6.7686 C   0  0  0  0  0  0  0  0  0  0  0  0
   27.7509  -20.2822   -8.1281 C   0  0  0  0  0  0  0  0  0  0  0  0
   26.7240  -21.0778   -8.8469 C   0  0  2  0  0  0  0  0  0  0  0  0
   27.1638  -21.4353  -10.1974 N   0  0  0  0  0  0  0  0  0  0  0  0
   25.3862  -20.4651   -8.8760 C   0  0  0  0  0  0  0  0  0  0  0  0
   24.2107  -21.0150   -8.4251 O   0  0  0  0  0  0  0  0  0  0  0  0
   25.2890  -19.2938   -9.3739 O   0  0  0  0  0  0  0  0  0  0  0  0
  2  1  1  6
  2  3  1  0
  4  2  1  0
  4  5  1  6
  6  8  1  0
  6  4  1  0
  7  6  2  0
  8  9  1  0
 10  9  1  0
 11 10  1  0
 11 12  1  0
 12  8  1  0
 12 13  1  1
 13 20  1  0
 14 13  2  0
 16 15  1  0
 17 16  1  0
 18 17  1  0
 19 18  1  6
 19 20  1  0
 19 21  1  0
 21 22  1  0
 23 21  2  0
M  END
$$$$
