VPM.pdb
     RDKit          3D

 23 23  0  0  1  0  0  0  0  0999 V2000
   25.6020  -18.0318  -13.7867 C   0  0  0  0  0  0  0  0  0  0  0  0
   27.0126  -18.1204  -14.3205 C   0  0  2  0  0  0  0  0  0  0  0  0
   27.1603  -17.2074  -15.5021 C   0  0  0  0  0  0  0  0  0  0  0  0
   27.3028  -19.5695  -14.6723 C   0  0  2  0  0  0  0  0  0  0  0  0
   26.4360  -19.9250  -15.7492 N   0  0  0  0  0  0  0  0  0  0  0  0
   27.1921  -20.4567  -13.5113 C   0  0  0  0  0  0  0  0  0  0  0  0
   26.0516  -20.9927  -13.2523 O   0  0  0  0  0  0  0  0  0  0  0  0
   28.3142  -20.7322  -12.6724 N   0  0  0  0  0  0  0  0  0  0  0  0
   29.6742  -20.4369  -13.0586 C   0  0  0  0  0  0  0  0  0  0  0  0
   30.5501  -21.1097  -12.0111 C   0  0  0  0  0  0  0  0  0  0  0  0
   29.6637  -20.9924  -10.8026 C   0  0  0  0  0  0  0  0  0  0  0  0
   28.3047  -21.3137  -11.3778 C   0  0  1  0  0  0  0  0  0  0  0  0
   27.2328  -20.8121  -10.4689 C   0  0  0  0  0  0  0  0  0  0  0  0
   26.7722  -19.6717  -10.6747 O   0  0  0  0  0  0  0  0  0  0  0  0
   27.9993  -19.3980   -4.2117 C   0  0  0  0  0  0  0  0  0  0  0  0
   28.3961  -19.0707   -5.9343 S   0  0  0  0  0  0  0  0  0  0  0  0
   27.6636  -20.3895   -6.9474 C   0  0  0  0  0  0  0  0  0  0  0  0
   26.4018  -19.9389   -7.6237 C   0  0  0  0  0  0  0  0  0  0  0  0
   25.7945  -21.0449   -8.4061 C   0  0  2  0  0  0  0  0  0  0  0  0
   26.7312  -21.5879   -9.3926 N   0  0  0  0  0  0  0  0  0  0  0  0
   24.5055  -20.7133   -9.0340 C   0  0  0  0  0  0  0  0  0  0  0  0
   24.2150  -20.6983  -10.3768 O   0  0  0  0  0  0  0  0  0  0  0  0
   23.5399  -20.4008   -8.2599 O   0  0  0  0  0  0  0  0  0  0  0  0
  2  1  1  6
  2  3  1  0
  4  2  1  0
  4  5  1  6
  6  8  1  0
  6  4  1  0
  7  6  2  0
  8  9  1  0
 10  9  1  0
 11 10  1  0
 11 12  1  0
 12  8  1  0
 12 13  1  1
 13 20  1  0
 14 13  2  0
 16 15  1  0
 17 16  1  0
 18 17  1  0
 19 18  1  6
 19 20  1  0
 19 21  1  0
 21 22  1  0
 23 21  2  0
M  END
$$$$
