VPM.pdb
     RDKit          3D

 23 23  0  0  1  0  0  0  0  0999 V2000
   30.0053  -19.9202  -16.7356 C   0  0  0  0  0  0  0  0  0  0  0  0
   28.8420  -19.9408  -15.7718 C   0  0  2  0  0  0  0  0  0  0  0  0
   28.7088  -21.3112  -15.1752 C   0  0  0  0  0  0  0  0  0  0  0  0
   27.5906  -19.5143  -16.5203 C   0  0  2  0  0  0  0  0  0  0  0  0
   27.8723  -18.2560  -17.1324 N   0  0  0  0  0  0  0  0  0  0  0  0
   26.4058  -19.4965  -15.6582 C   0  0  0  0  0  0  0  0  0  0  0  0
   26.3853  -18.6898  -14.6562 O   0  0  0  0  0  0  0  0  0  0  0  0
   25.2881  -20.3492  -15.9076 N   0  0  0  0  0  0  0  0  0  0  0  0
   25.0719  -21.0099  -17.1736 C   0  0  0  0  0  0  0  0  0  0  0  0
   23.6687  -21.5946  -17.0933 C   0  0  0  0  0  0  0  0  0  0  0  0
   23.5894  -21.9046  -15.6244 C   0  0  0  0  0  0  0  0  0  0  0  0
   24.2412  -20.6880  -15.0113 C   0  0  1  0  0  0  0  0  0  0  0  0
   24.6779  -20.9897  -13.6166 C   0  0  0  0  0  0  0  0  0  0  0  0
   25.8073  -21.4906  -13.4485 O   0  0  0  0  0  0  0  0  0  0  0  0
   28.7826  -20.1056   -8.7378 C   0  0  0  0  0  0  0  0  0  0  0  0
   27.1972  -19.2632   -8.8319 S   0  0  0  0  0  0  0  0  0  0  0  0
   25.9453  -20.4651   -9.3709 C   0  0  0  0  0  0  0  0  0  0  0  0
   25.5518  -20.2571  -10.8043 C   0  0  0  0  0  0  0  0  0  0  0  0
   24.2948  -20.9811  -11.1203 C   0  0  2  0  0  0  0  0  0  0  0  0
   23.8532  -20.7250  -12.4932 N   0  0  0  0  0  0  0  0  0  0  0  0
   23.1993  -20.7492  -10.1653 C   0  0  0  0  0  0  0  0  0  0  0  0
   23.0620  -21.2923   -8.9108 O   0  0  0  0  0  0  0  0  0  0  0  0
   22.2637  -19.9600  -10.5273 O   0  0  0  0  0  0  0  0  0  0  0  0
  2  1  1  6
  2  3  1  0
  4  2  1  0
  4  5  1  1
  6  8  1  0
  6  4  1  0
  7  6  2  0
  8  9  1  0
 10  9  1  0
 11 10  1  0
 11 12  1  0
 12  8  1  0
 12 13  1  1
 13 20  1  0
 14 13  2  0
 16 15  1  0
 17 16  1  0
 18 17  1  0
 19 18  1  1
 19 20  1  0
 19 21  1  0
 21 22  1  0
 23 21  2  0
M  END
$$$$
