DIT.pdb
     RDKit          3D

 24 23  0  0  1  0  0  0  0  0999 V2000
    8.3071  -14.7257   20.4533 N   0  0  0  0  0  0  0  0  0  0  0  0
    7.6278  -15.4439   21.5020 C   0  0  1  0  0  0  0  0  0  0  0  0
    7.7371  -16.9130   21.3024 C   0  0  0  0  0  0  0  0  0  0  0  0
    7.1324  -17.4132   20.0519 C   0  0  0  0  0  0  0  0  0  0  0  0
    7.7997  -17.8714   19.1126 O   0  0  0  0  0  0  0  0  0  0  0  0
    8.1888  -14.9920   22.8057 C   0  0  0  0  0  0  0  0  0  0  0  0
    9.4162  -14.7333   22.8968 O   0  0  0  0  0  0  0  0  0  0  0  0
    5.7369  -17.3921   19.8644 O   0  0  0  0  0  0  0  0  0  0  0  0
    7.2859  -11.3652   25.0883 C   0  0  0  0  0  0  0  0  0  0  0  0
    6.3205  -12.5117   25.2176 C   0  0  0  0  0  0  0  0  0  0  0  0
    6.8921  -13.6432   26.0481 C   0  0  2  0  0  0  0  0  0  0  0  0
    7.4887  -13.1323   27.3378 C   0  0  0  0  0  0  0  0  0  0  0  0
    7.8735  -14.4716   25.2475 C   0  0  2  0  0  0  0  0  0  0  0  0
    7.3941  -14.8416   23.9532 N   0  0  0  0  0  0  0  0  0  0  0  0
    8.3891  -15.6221   26.0302 C   0  0  0  0  0  0  0  0  0  0  0  0
    7.6171  -16.3648   26.7091 O   0  0  0  0  0  0  0  0  0  0  0  0
   11.9405  -18.9415   26.7237 C   0  0  0  0  0  0  0  0  0  0  0  0
   11.6059  -17.6040   26.0928 C   0  0  1  0  0  0  0  0  0  0  0  0
   11.5406  -17.7976   24.7274 O   0  0  0  0  0  0  0  0  0  0  0  0
   10.2864  -17.1608   26.6798 C   0  0  2  0  0  0  0  0  0  0  0  0
    9.7676  -15.9663   26.0716 N   0  0  0  0  0  0  0  0  0  0  0  0
   10.3974  -17.0436   28.1419 C   0  0  0  0  0  0  0  0  0  0  0  0
   10.5399  -15.9558   28.7498 O   0  0  0  0  0  0  0  0  0  0  0  0
   10.3422  -18.2024   28.9017 O   0  0  0  0  0  0  0  0  0  0  0  0
  2  1  1  6
  2  3  1  0
  3  4  1  0
  4  8  1  0
  5  4  2  0
  6 14  1  0
  6  2  1  0
  7  6  2  0
  9 10  1  0
 11 10  1  0
 11 13  1  0
 11 12  1  1
 13 14  1  6
 15 13  1  0
 15 16  2  0
 18 17  1  1
 19 18  1  0
 20 21  1  6
 20 18  1  0
 21 15  1  0
 22 20  1  0
 23 22  2  0
 24 22  1  0
M  END
$$$$
