DIT.pdb
     RDKit          3D

 24 23  0  0  1  0  0  0  0  0999 V2000
    7.8945  -14.7435   20.4922 N   0  0  0  0  0  0  0  0  0  0  0  0
    7.2330  -15.4852   21.5359 C   0  0  1  0  0  0  0  0  0  0  0  0
    7.1976  -16.9376   21.2206 C   0  0  0  0  0  0  0  0  0  0  0  0
    6.4451  -17.2864   19.9992 C   0  0  0  0  0  0  0  0  0  0  0  0
    6.7211  -16.8298   18.8799 O   0  0  0  0  0  0  0  0  0  0  0  0
    7.9253  -15.1869   22.8205 C   0  0  0  0  0  0  0  0  0  0  0  0
    9.1810  -15.2343   22.8743 O   0  0  0  0  0  0  0  0  0  0  0  0
    5.3536  -18.1746   20.0511 O   0  0  0  0  0  0  0  0  0  0  0  0
    5.9176  -11.4226   26.0694 C   0  0  0  0  0  0  0  0  0  0  0  0
    6.8481  -12.3542   25.3419 C   0  0  0  0  0  0  0  0  0  0  0  0
    7.1042  -13.6258   26.1257 C   0  0  2  0  0  0  0  0  0  0  0  0
    7.8354  -13.3395   27.4155 C   0  0  0  0  0  0  0  0  0  0  0  0
    7.8131  -14.6604   25.2788 C   0  0  2  0  0  0  0  0  0  0  0  0
    7.2254  -14.8514   23.9902 N   0  0  0  0  0  0  0  0  0  0  0  0
    8.0208  -15.9293   26.0197 C   0  0  0  0  0  0  0  0  0  0  0  0
    7.0494  -16.5798   26.5113 O   0  0  0  0  0  0  0  0  0  0  0  0
    9.4741  -18.9383   24.6827 C   0  0  0  0  0  0  0  0  0  0  0  0
   10.3151  -18.7221   25.9255 C   0  0  1  0  0  0  0  0  0  0  0  0
   11.5227  -18.1909   25.5184 O   0  0  0  0  0  0  0  0  0  0  0  0
    9.5406  -17.7835   26.8206 C   0  0  2  0  0  0  0  0  0  0  0  0
    9.3080  -16.4956   26.2264 N   0  0  0  0  0  0  0  0  0  0  0  0
   10.1928  -17.6855   28.1354 C   0  0  0  0  0  0  0  0  0  0  0  0
   10.7118  -16.6358   28.5848 O   0  0  0  0  0  0  0  0  0  0  0  0
   10.2411  -18.8191   28.9329 O   0  0  0  0  0  0  0  0  0  0  0  0
  2  1  1  6
  2  3  1  0
  3  4  1  0
  4  8  1  0
  5  4  2  0
  6 14  1  0
  6  2  1  0
  7  6  2  0
  9 10  1  0
 11 10  1  0
 11 13  1  0
 11 12  1  1
 13 14  1  6
 15 13  1  0
 15 16  2  0
 18 17  1  6
 19 18  1  0
 20 21  1  6
 20 18  1  0
 21 15  1  0
 22 20  1  0
 23 22  2  0
 24 22  1  0
M  END
$$$$
