DIT.pdb
     RDKit          3D

 24 23  0  0  1  0  0  0  0  0999 V2000
    8.6936  -18.2490   16.8819 N   0  0  0  0  0  0  0  0  0  0  0  0
    7.7168  -17.6778   17.7745 C   0  0  1  0  0  0  0  0  0  0  0  0
    6.8588  -18.7328   18.3752 C   0  0  0  0  0  0  0  0  0  0  0  0
    6.2750  -19.6806   17.4053 C   0  0  0  0  0  0  0  0  0  0  0  0
    6.5560  -19.6730   16.1976 O   0  0  0  0  0  0  0  0  0  0  0  0
    8.4432  -16.8704   18.7938 C   0  0  0  0  0  0  0  0  0  0  0  0
    9.6933  -16.9705   18.8890 O   0  0  0  0  0  0  0  0  0  0  0  0
    5.3503  -20.6595   17.8174 O   0  0  0  0  0  0  0  0  0  0  0  0
    6.7971  -11.8121   20.0149 C   0  0  0  0  0  0  0  0  0  0  0  0
    7.6301  -13.0417   19.7752 C   0  0  0  0  0  0  0  0  0  0  0  0
    7.7065  -13.9233   21.0056 C   0  0  2  0  0  0  0  0  0  0  0  0
    8.3336  -13.1920   22.1684 C   0  0  0  0  0  0  0  0  0  0  0  0
    8.4055  -15.2309   20.7026 C   0  0  2  0  0  0  0  0  0  0  0  0
    7.7818  -15.9911   19.6656 N   0  0  0  0  0  0  0  0  0  0  0  0
    8.6560  -16.0192   21.9347 C   0  0  0  0  0  0  0  0  0  0  0  0
    7.7131  -16.3530   22.7145 O   0  0  0  0  0  0  0  0  0  0  0  0
    9.7548  -19.3463   22.3606 C   0  0  0  0  0  0  0  0  0  0  0  0
   10.8091  -18.6017   23.1561 C   0  0  1  0  0  0  0  0  0  0  0  0
   11.9393  -18.5207   22.3673 O   0  0  0  0  0  0  0  0  0  0  0  0
   10.2324  -17.2446   23.4846 C   0  0  2  0  0  0  0  0  0  0  0  0
    9.9548  -16.4490   22.3202 N   0  0  0  0  0  0  0  0  0  0  0  0
   11.0984  -16.5470   24.4475 C   0  0  0  0  0  0  0  0  0  0  0  0
   11.7419  -15.5031   24.1845 O   0  0  0  0  0  0  0  0  0  0  0  0
   11.2158  -17.0695   25.7268 O   0  0  0  0  0  0  0  0  0  0  0  0
  2  1  1  6
  2  3  1  0
  3  4  1  0
  4  8  1  0
  5  4  2  0
  6 14  1  0
  6  2  1  0
  7  6  2  0
  9 10  1  0
 11 10  1  0
 11 13  1  0
 11 12  1  1
 13 14  1  6
 15 13  1  0
 15 16  2  0
 18 17  1  6
 19 18  1  0
 20 21  1  6
 20 18  1  0
 21 15  1  0
 22 20  1  0
 23 22  2  0
 24 22  1  0
M  END
$$$$
