DIT.pdb
     RDKit          3D

 24 23  0  0  1  0  0  0  0  0999 V2000
    9.5535  -17.8195   16.0721 N   0  0  0  0  0  0  0  0  0  0  0  0
    8.5894  -17.7538   17.1413 C   0  0  1  0  0  0  0  0  0  0  0  0
    8.1470  -19.1138   17.5476 C   0  0  0  0  0  0  0  0  0  0  0  0
    7.2634  -19.7913   16.5781 C   0  0  0  0  0  0  0  0  0  0  0  0
    6.6120  -20.8102   16.8522 O   0  0  0  0  0  0  0  0  0  0  0  0
    9.1975  -16.9826   18.2610 C   0  0  0  0  0  0  0  0  0  0  0  0
   10.4487  -16.9504   18.3847 O   0  0  0  0  0  0  0  0  0  0  0  0
    7.1167  -19.2996   15.2667 O   0  0  0  0  0  0  0  0  0  0  0  0
    6.7975  -12.3607   19.8908 C   0  0  0  0  0  0  0  0  0  0  0  0
    7.8248  -13.4077   19.5569 C   0  0  0  0  0  0  0  0  0  0  0  0
    8.0496  -14.3684   20.7073 C   0  0  2  0  0  0  0  0  0  0  0  0
    8.5714  -13.6510   21.9294 C   0  0  0  0  0  0  0  0  0  0  0  0
    8.9365  -15.5229   20.2943 C   0  0  2  0  0  0  0  0  0  0  0  0
    8.4220  -16.2814   19.1979 N   0  0  0  0  0  0  0  0  0  0  0  0
    9.3226  -16.3627   21.4552 C   0  0  0  0  0  0  0  0  0  0  0  0
    8.4876  -17.1210   22.0353 O   0  0  0  0  0  0  0  0  0  0  0  0
   12.8380  -18.5075   24.1420 C   0  0  0  0  0  0  0  0  0  0  0  0
   12.5552  -17.5307   23.0174 C   0  0  1  0  0  0  0  0  0  0  0  0
   12.9466  -18.1346   21.8392 O   0  0  0  0  0  0  0  0  0  0  0  0
   11.0739  -17.2369   23.0546 C   0  0  2  0  0  0  0  0  0  0  0  0
   10.6395  -16.3746   21.9899 N   0  0  0  0  0  0  0  0  0  0  0  0
   10.6928  -16.7271   24.3807 C   0  0  0  0  0  0  0  0  0  0  0  0
   10.7028  -15.5129   24.6952 O   0  0  0  0  0  0  0  0  0  0  0  0
   10.2970  -17.6386   25.3481 O   0  0  0  0  0  0  0  0  0  0  0  0
  2  1  1  6
  2  3  1  0
  3  4  1  0
  4  8  1  0
  5  4  2  0
  6 14  1  0
  6  2  1  0
  7  6  2  0
  9 10  1  0
 11 10  1  0
 11 13  1  0
 11 12  1  1
 13 14  1  6
 15 13  1  0
 15 16  2  0
 18 17  1  1
 19 18  1  0
 20 21  1  6
 20 18  1  0
 21 15  1  0
 22 20  1  0
 23 22  2  0
 24 22  1  0
M  END
$$$$
