DIT.pdb
     RDKit          3D

 24 23  0  0  1  0  0  0  0  0999 V2000
    8.4139  -15.0892   20.7401 N   0  0  0  0  0  0  0  0  0  0  0  0
    7.6928  -15.6323   21.8635 C   0  0  1  0  0  0  0  0  0  0  0  0
    7.5435  -17.1064   21.7420 C   0  0  0  0  0  0  0  0  0  0  0  0
    6.8231  -17.5568   20.5346 C   0  0  0  0  0  0  0  0  0  0  0  0
    6.2151  -16.7829   19.7803 O   0  0  0  0  0  0  0  0  0  0  0  0
    8.4027  -15.2213   23.1067 C   0  0  0  0  0  0  0  0  0  0  0  0
    9.6456  -15.0315   23.0776 O   0  0  0  0  0  0  0  0  0  0  0  0
    6.7928  -18.9183   20.1761 O   0  0  0  0  0  0  0  0  0  0  0  0
    6.0522  -11.6917   26.2389 C   0  0  0  0  0  0  0  0  0  0  0  0
    7.1117  -12.5060   25.5479 C   0  0  0  0  0  0  0  0  0  0  0  0
    7.5519  -13.6905   26.3846 C   0  0  2  0  0  0  0  0  0  0  0  0
    8.2868  -13.2445   27.6261 C   0  0  0  0  0  0  0  0  0  0  0  0
    8.3539  -14.6763   25.5630 C   0  0  2  0  0  0  0  0  0  0  0  0
    7.7336  -15.0355   24.3268 N   0  0  0  0  0  0  0  0  0  0  0  0
    8.7741  -15.8499   26.3682 C   0  0  0  0  0  0  0  0  0  0  0  0
    7.9550  -16.4810   27.1026 O   0  0  0  0  0  0  0  0  0  0  0  0
   11.2641  -18.5544   24.9781 C   0  0  0  0  0  0  0  0  0  0  0  0
   11.6994  -18.2197   26.3914 C   0  0  1  0  0  0  0  0  0  0  0  0
   12.8118  -17.4072   26.2981 O   0  0  0  0  0  0  0  0  0  0  0  0
   10.5318  -17.5305   27.0576 C   0  0  2  0  0  0  0  0  0  0  0  0
   10.1079  -16.3411   26.3710 N   0  0  0  0  0  0  0  0  0  0  0  0
   10.8334  -17.2826   28.4758 C   0  0  0  0  0  0  0  0  0  0  0  0
   10.8739  -16.1418   28.9956 O   0  0  0  0  0  0  0  0  0  0  0  0
   11.0899  -18.3718   29.2950 O   0  0  0  0  0  0  0  0  0  0  0  0
  2  1  1  6
  2  3  1  0
  3  4  1  0
  4  8  1  0
  5  4  2  0
  6 14  1  0
  6  2  1  0
  7  6  2  0
  9 10  1  0
 11 10  1  0
 11 13  1  0
 11 12  1  1
 13 14  1  6
 15 13  1  0
 15 16  2  0
 18 17  1  6
 19 18  1  0
 20 21  1  6
 20 18  1  0
 21 15  1  0
 22 20  1  0
 23 22  2  0
 24 22  1  0
M  END
$$$$
