DIT.pdb
     RDKit          3D

 24 23  0  0  1  0  0  0  0  0999 V2000
    7.3561  -15.5907   20.1675 N   0  0  0  0  0  0  0  0  0  0  0  0
    6.8131  -15.8515   21.4768 C   0  0  1  0  0  0  0  0  0  0  0  0
    6.4529  -17.2856   21.6310 C   0  0  0  0  0  0  0  0  0  0  0  0
    5.5744  -17.8192   20.5712 C   0  0  0  0  0  0  0  0  0  0  0  0
    5.0348  -18.9338   20.6360 O   0  0  0  0  0  0  0  0  0  0  0  0
    7.8070  -15.3910   22.4860 C   0  0  0  0  0  0  0  0  0  0  0  0
    9.0333  -15.4229   22.2087 O   0  0  0  0  0  0  0  0  0  0  0  0
    5.3028  -17.0689   19.4109 O   0  0  0  0  0  0  0  0  0  0  0  0
    6.3931  -12.2824   27.2150 C   0  0  0  0  0  0  0  0  0  0  0  0
    6.5852  -13.3395   26.1620 C   0  0  0  0  0  0  0  0  0  0  0  0
    7.9083  -13.1856   25.4390 C   0  0  2  0  0  0  0  0  0  0  0  0
    7.8754  -12.0263   24.4720 C   0  0  0  0  0  0  0  0  0  0  0  0
    8.3250  -14.4794   24.7737 C   0  0  2  0  0  0  0  0  0  0  0  0
    7.4272  -14.9173   23.7518 N   0  0  0  0  0  0  0  0  0  0  0  0
    8.6357  -15.5349   25.7696 C   0  0  0  0  0  0  0  0  0  0  0  0
    7.7196  -16.1870   26.3561 O   0  0  0  0  0  0  0  0  0  0  0  0
   11.8294  -19.0835   26.6813 C   0  0  0  0  0  0  0  0  0  0  0  0
   11.5549  -17.7591   25.9962 C   0  0  1  0  0  0  0  0  0  0  0  0
   11.3296  -18.0252   24.6603 O   0  0  0  0  0  0  0  0  0  0  0  0
   10.3503  -17.1545   26.6785 C   0  0  2  0  0  0  0  0  0  0  0  0
    9.9659  -15.8830   26.1295 N   0  0  0  0  0  0  0  0  0  0  0  0
   10.5692  -17.0953   28.1319 C   0  0  0  0  0  0  0  0  0  0  0  0
   10.6329  -18.1048   28.8736 O   0  0  0  0  0  0  0  0  0  0  0  0
   10.7150  -15.8507   28.7260 O   0  0  0  0  0  0  0  0  0  0  0  0
  2  1  1  6
  2  3  1  0
  3  4  1  0
  4  8  1  0
  5  4  2  0
  6 14  1  0
  6  2  1  0
  7  6  2  0
  9 10  1  0
 11 10  1  0
 11 13  1  0
 11 12  1  6
 13 14  1  6
 15 13  1  0
 15 16  2  0
 18 17  1  1
 19 18  1  0
 20 21  1  6
 20 18  1  0
 21 15  1  0
 22 20  1  0
 23 22  2  0
 24 22  1  0
M  END
$$$$
