WRH.pdb
     RDKit          3D

 36 38  0  0  1  0  0  0  0  0999 V2000
    6.5397  -17.6770   25.0652 N   0  0  0  0  0  0  0  0  0  0  0  0
    7.2328  -16.5673   24.4597 C   0  0  1  0  0  0  0  0  0  0  0  0
    8.2020  -16.0087   25.4797 C   0  0  0  0  0  0  0  0  0  0  0  0
    7.4278  -14.9846   26.2663 C   0  0  0  0  0  0  0  0  0  0  0  0
    6.6945  -15.2021   27.4189 C   0  0  0  0  0  0  0  0  0  0  0  0
    6.1738  -14.0207   27.7975 N   0  0  0  0  0  0  0  0  0  0  0  0
    6.5315  -13.0624   26.9556 C   0  0  0  0  0  0  0  0  0  0  0  0
    6.2412  -11.6927   26.9288 C   0  0  0  0  0  0  0  0  0  0  0  0
    6.7462  -10.8946   25.9159 C   0  0  0  0  0  0  0  0  0  0  0  0
    7.5324  -11.4807   24.9474 C   0  0  0  0  0  0  0  0  0  0  0  0
    7.8175  -12.8280   24.9754 C   0  0  0  0  0  0  0  0  0  0  0  0
    7.3194  -13.6430   25.9845 C   0  0  0  0  0  0  0  0  0  0  0  0
    7.9370  -17.0027   23.2249 C   0  0  0  0  0  0  0  0  0  0  0  0
    8.4992  -18.1243   23.2670 O   0  0  0  0  0  0  0  0  0  0  0  0
    8.1748  -14.0460   15.1470 N   0  0  0  0  0  0  0  0  0  0  0  0
    7.8062  -13.7290   16.4777 C   0  0  0  0  0  0  0  0  0  0  0  0
    7.1726  -12.6617   16.8279 N   0  0  0  0  0  0  0  0  0  0  0  0
    8.1627  -14.6632   17.4952 N   0  0  0  0  0  0  0  0  0  0  0  0
    9.1169  -15.7432   17.2850 C   0  0  0  0  0  0  0  0  0  0  0  0
    9.3147  -16.5522   18.5375 C   0  0  0  0  0  0  0  0  0  0  0  0
    8.5477  -15.9403   19.6659 C   0  0  0  0  0  0  0  0  0  0  0  0
    8.7708  -16.6836   20.9299 C   0  0  2  0  0  0  0  0  0  0  0  0
    7.9939  -16.2249   22.0445 N   0  0  0  0  0  0  0  0  0  0  0  0
   10.2159  -16.6494   21.3453 C   0  0  0  0  0  0  0  0  0  0  0  0
   10.6689  -15.5593   21.7602 O   0  0  0  0  0  0  0  0  0  0  0  0
    6.9795  -12.5124   17.8564 N   0  0  0  0  0  0  0  0  0  0  0  0
   11.0763  -17.7653   21.2943 C   0  0  1  0  0  0  0  0  0  0  0  0
   12.5197  -17.6403   21.5864 C   0  0  0  0  0  0  0  0  0  0  0  0
   13.0295  -18.9186   22.1583 C   0  0  0  0  0  0  0  0  0  0  0  0
   12.6139  -19.1068   23.5504 C   0  0  0  0  0  0  0  0  0  0  0  0
   12.3839  -18.0376   24.4420 N   0  0  0  0  0  0  0  0  0  0  0  0
   12.0278  -18.5847   25.6198 C   0  0  0  0  0  0  0  0  0  0  0  0
   12.0204  -19.9220   25.5237 N   0  0  0  0  0  0  0  0  0  0  0  0
   12.3787  -20.2043   24.2618 C   0  0  0  0  0  0  0  0  0  0  0  0
   13.2454  -17.2833   20.3673 O   0  0  0  0  0  0  0  0  0  0  0  0
   12.7606  -17.0972   19.0992 O   0  0  0  0  0  0  0  0  0  0  0  0
  2  1  1  1
  3  2  1  0
  3  4  1  0
  4  5  2  0
  5  6  1  0
  7  6  1  0
  8  7  2  0
  9  8  1  0
 10 11  1  0
 10  9  2  0
 11 12  2  0
 12  4  1  0
 12  7  1  0
 13  2  1  0
 13 14  2  0
 16 15  1  0
 17 16  2  0
 18 16  1  0
 19 20  1  0
 19 18  1  0
 20 21  1  0
 22 21  1  6
 22 23  1  0
 23 13  1  0
 24 22  1  0
 25 24  2  0
 26 24  1  0
 27 26  1  0
 27 34  1  0
 27 28  1  1
 29 28  1  0
 30 29  2  0
 31 30  1  0
 32 31  1  0
 32 33  2  0
 33 29  1  0
 34 35  1  0
 36 34  2  0
M  END
$$$$
