WRH.pdb
     RDKit          3D

 36 38  0  0  1  0  0  0  0  0999 V2000
    7.0494  -17.1179   25.7005 N   0  0  0  0  0  0  0  0  0  0  0  0
    7.5089  -16.0437   24.8559 C   0  0  1  0  0  0  0  0  0  0  0  0
    8.7789  -15.4841   25.4607 C   0  0  0  0  0  0  0  0  0  0  0  0
    8.3402  -14.6111   26.6063 C   0  0  0  0  0  0  0  0  0  0  0  0
    8.4883  -14.8744   27.9562 C   0  0  0  0  0  0  0  0  0  0  0  0
    7.9699  -13.8329   28.6320 N   0  0  0  0  0  0  0  0  0  0  0  0
    7.5003  -12.9207   27.7940 C   0  0  0  0  0  0  0  0  0  0  0  0
    6.8773  -11.6866   28.0172 C   0  0  0  0  0  0  0  0  0  0  0  0
    6.4693  -10.9098   26.9457 C   0  0  0  0  0  0  0  0  0  0  0  0
    6.6916  -11.3812   25.6697 C   0  0  0  0  0  0  0  0  0  0  0  0
    7.3051  -12.5950   25.4518 C   0  0  0  0  0  0  0  0  0  0  0  0
    7.7208  -13.3868   26.5152 C   0  0  0  0  0  0  0  0  0  0  0  0
    7.7377  -16.5305   23.4700 C   0  0  0  0  0  0  0  0  0  0  0  0
    7.7225  -17.7747   23.3039 O   0  0  0  0  0  0  0  0  0  0  0  0
   10.3824  -14.2112   17.6854 N   0  0  0  0  0  0  0  0  0  0  0  0
    9.1346  -14.2485   17.0156 C   0  0  0  0  0  0  0  0  0  0  0  0
    8.9465  -14.7550   15.8447 N   0  0  0  0  0  0  0  0  0  0  0  0
    8.0119  -13.6862   17.6929 N   0  0  0  0  0  0  0  0  0  0  0  0
    8.1022  -13.0755   19.0119 C   0  0  0  0  0  0  0  0  0  0  0  0
    8.6377  -14.0448   20.0299 C   0  0  0  0  0  0  0  0  0  0  0  0
    7.9026  -15.3434   19.9331 C   0  0  0  0  0  0  0  0  0  0  0  0
    8.2302  -16.2303   21.0759 C   0  0  2  0  0  0  0  0  0  0  0  0
    7.9638  -15.6710   22.3691 N   0  0  0  0  0  0  0  0  0  0  0  0
    9.6747  -16.6485   21.0564 C   0  0  0  0  0  0  0  0  0  0  0  0
   10.0677  -17.3118   20.0710 O   0  0  0  0  0  0  0  0  0  0  0  0
    7.9691  -14.7303   15.4428 N   0  0  0  0  0  0  0  0  0  0  0  0
   10.5985  -16.3364   22.0750 C   0  0  1  0  0  0  0  0  0  0  0  0
   12.0084  -16.7728   21.9978 C   0  0  0  0  0  0  0  0  0  0  0  0
   12.8907  -15.5892   21.7935 C   0  0  0  0  0  0  0  0  0  0  0  0
   12.9487  -15.1780   20.3888 C   0  0  0  0  0  0  0  0  0  0  0  0
   12.7390  -13.8498   19.9606 N   0  0  0  0  0  0  0  0  0  0  0  0
   12.8616  -13.8509   18.6196 C   0  0  0  0  0  0  0  0  0  0  0  0
   13.1331  -15.0889   18.1822 N   0  0  0  0  0  0  0  0  0  0  0  0
   13.1789  -15.8658   19.2753 C   0  0  0  0  0  0  0  0  0  0  0  0
   12.3731  -17.4966   23.2158 O   0  0  0  0  0  0  0  0  0  0  0  0
   13.5861  -18.0239   23.5742 O   0  0  0  0  0  0  0  0  0  0  0  0
  2  1  1  1
  3  2  1  0
  3  4  1  0
  4  5  2  0
  5  6  1  0
  7  6  1  0
  8  7  2  0
  9  8  1  0
 10 11  1  0
 10  9  2  0
 11 12  2  0
 12  4  1  0
 12  7  1  0
 13  2  1  0
 13 14  2  0
 16 15  1  0
 17 16  2  0
 18 16  1  0
 19 20  1  0
 19 18  1  0
 20 21  1  0
 22 21  1  6
 22 23  1  0
 23 13  1  0
 24 22  1  0
 25 24  2  0
 26 24  1  0
 27 26  1  0
 27 34  1  0
 27 28  1  6
 29 28  1  0
 30 29  2  0
 31 30  1  0
 32 31  1  0
 32 33  2  0
 33 29  1  0
 34 35  1  0
 36 34  2  0
M  END
$$$$
