WRH.pdb
     RDKit          3D

 36 38  0  0  1  0  0  0  0  0999 V2000
    6.0075  -17.6880   25.0663 N   0  0  0  0  0  0  0  0  0  0  0  0
    6.7227  -16.4784   24.7445 C   0  0  1  0  0  0  0  0  0  0  0  0
    7.7899  -16.2720   25.7982 C   0  0  0  0  0  0  0  0  0  0  0  0
    7.3248  -15.1091   26.6339 C   0  0  0  0  0  0  0  0  0  0  0  0
    6.7263  -15.1675   27.8796 C   0  0  0  0  0  0  0  0  0  0  0  0
    6.4814  -13.9040   28.2717 N   0  0  0  0  0  0  0  0  0  0  0  0
    6.8884  -13.0430   27.3508 C   0  0  0  0  0  0  0  0  0  0  0  0
    6.8473  -11.6440   27.3035 C   0  0  0  0  0  0  0  0  0  0  0  0
    7.3460  -10.9706   26.2009 C   0  0  0  0  0  0  0  0  0  0  0  0
    7.8770  -11.7084   25.1649 C   0  0  0  0  0  0  0  0  0  0  0  0
    7.9172  -13.0844   25.2131 C   0  0  0  0  0  0  0  0  0  0  0  0
    7.4215  -13.7758   26.3117 C   0  0  0  0  0  0  0  0  0  0  0  0
    7.3150  -16.5682   23.3839 C   0  0  0  0  0  0  0  0  0  0  0  0
    7.6691  -17.7103   23.0018 O   0  0  0  0  0  0  0  0  0  0  0  0
    7.1592  -12.8536   15.4519 N   0  0  0  0  0  0  0  0  0  0  0  0
    7.9074  -14.0559   15.4091 C   0  0  0  0  0  0  0  0  0  0  0  0
    8.1973  -14.7004   14.3304 N   0  0  0  0  0  0  0  0  0  0  0  0
    8.3711  -14.5820   16.6515 N   0  0  0  0  0  0  0  0  0  0  0  0
    8.0881  -13.9563   17.9358 C   0  0  0  0  0  0  0  0  0  0  0  0
    8.7421  -14.7031   19.0659 C   0  0  0  0  0  0  0  0  0  0  0  0
    7.9879  -14.4684   20.3357 C   0  0  0  0  0  0  0  0  0  0  0  0
    8.1234  -15.6210   21.2594 C   0  0  2  0  0  0  0  0  0  0  0  0
    7.4874  -15.4509   22.5333 N   0  0  0  0  0  0  0  0  0  0  0  0
    9.5663  -15.9564   21.5190 C   0  0  0  0  0  0  0  0  0  0  0  0
   10.1496  -15.3220   22.4261 O   0  0  0  0  0  0  0  0  0  0  0  0
    8.7887  -15.5724   14.4153 N   0  0  0  0  0  0  0  0  0  0  0  0
   10.2876  -16.9357   20.8055 C   0  0  2  0  0  0  0  0  0  0  0  0
   11.6672  -17.3063   21.1846 C   0  0  0  0  0  0  0  0  0  0  0  0
   11.8265  -18.7866   21.1178 C   0  0  0  0  0  0  0  0  0  0  0  0
   13.1998  -19.2090   21.4036 C   0  0  0  0  0  0  0  0  0  0  0  0
   14.2326  -18.3094   21.7432 N   0  0  0  0  0  0  0  0  0  0  0  0
   15.3442  -19.0470   21.9266 C   0  0  0  0  0  0  0  0  0  0  0  0
   15.0753  -20.3448   21.7244 N   0  0  0  0  0  0  0  0  0  0  0  0
   13.7723  -20.4081   21.4104 C   0  0  0  0  0  0  0  0  0  0  0  0
   12.6231  -16.6344   20.3043 O   0  0  0  0  0  0  0  0  0  0  0  0
   13.9068  -16.2354   20.5709 O   0  0  0  0  0  0  0  0  0  0  0  0
  2  1  1  1
  3  2  1  0
  3  4  1  0
  4  5  2  0
  5  6  1  0
  7  6  1  0
  8  7  2  0
  9  8  1  0
 10 11  1  0
 10  9  2  0
 11 12  2  0
 12  4  1  0
 12  7  1  0
 13  2  1  0
 13 14  2  0
 16 15  1  0
 17 16  2  0
 18 16  1  0
 19 20  1  0
 19 18  1  0
 20 21  1  0
 22 21  1  6
 22 23  1  0
 23 13  1  0
 24 22  1  0
 25 24  2  0
 26 24  1  0
 27 26  1  0
 27 34  1  0
 27 28  1  1
 29 28  1  0
 30 29  2  0
 31 30  1  0
 32 31  1  0
 32 33  2  0
 33 29  1  0
 34 35  1  0
 36 34  2  0
M  END
$$$$
