WRH.pdb
     RDKit          3D

 36 38  0  0  1  0  0  0  0  0999 V2000
    6.6062  -17.6077   24.9911 N   0  0  0  0  0  0  0  0  0  0  0  0
    7.1454  -16.4142   24.3885 C   0  0  1  0  0  0  0  0  0  0  0  0
    7.8013  -15.5950   25.4796 C   0  0  0  0  0  0  0  0  0  0  0  0
    6.7764  -14.5765   25.9030 C   0  0  0  0  0  0  0  0  0  0  0  0
    5.5553  -14.8259   26.5031 C   0  0  0  0  0  0  0  0  0  0  0  0
    4.9605  -13.6390   26.7213 N   0  0  0  0  0  0  0  0  0  0  0  0
    5.7293  -12.6472   26.2967 C   0  0  0  0  0  0  0  0  0  0  0  0
    5.5446  -11.2592   26.3044 C   0  0  0  0  0  0  0  0  0  0  0  0
    6.5205  -10.4249   25.7852 C   0  0  0  0  0  0  0  0  0  0  0  0
    7.6640  -10.9938   25.2673 C   0  0  0  0  0  0  0  0  0  0  0  0
    7.8445  -12.3594   25.2609 C   0  0  0  0  0  0  0  0  0  0  0  0
    6.8758  -13.2107   25.7779 C   0  0  0  0  0  0  0  0  0  0  0  0
    8.1143  -16.7627   23.3161 C   0  0  0  0  0  0  0  0  0  0  0  0
    8.5130  -17.9526   23.2869 O   0  0  0  0  0  0  0  0  0  0  0  0
    8.6646  -14.3943   15.0601 N   0  0  0  0  0  0  0  0  0  0  0  0
    8.3377  -14.0094   16.3838 C   0  0  0  0  0  0  0  0  0  0  0  0
    7.8192  -12.8745   16.7099 N   0  0  0  0  0  0  0  0  0  0  0  0
    8.6016  -14.9510   17.4226 N   0  0  0  0  0  0  0  0  0  0  0  0
    9.9249  -15.5019   17.6798 C   0  0  0  0  0  0  0  0  0  0  0  0
    9.9207  -16.3987   18.8875 C   0  0  0  0  0  0  0  0  0  0  0  0
    9.0225  -15.8318   19.9400 C   0  0  0  0  0  0  0  0  0  0  0  0
    9.4327  -16.2815   21.2926 C   0  0  2  0  0  0  0  0  0  0  0  0
    8.5864  -15.8330   22.3598 N   0  0  0  0  0  0  0  0  0  0  0  0
   10.8353  -15.8478   21.6192 C   0  0  0  0  0  0  0  0  0  0  0  0
   11.1200  -14.6424   21.4421 O   0  0  0  0  0  0  0  0  0  0  0  0
    7.7722  -12.6253   17.7360 N   0  0  0  0  0  0  0  0  0  0  0  0
   11.8335  -16.7149   22.1091 C   0  0  1  0  0  0  0  0  0  0  0  0
   12.2873  -16.6528   23.5142 C   0  0  0  0  0  0  0  0  0  0  0  0
   11.1359  -16.9053   24.4262 C   0  0  0  0  0  0  0  0  0  0  0  0
   11.5153  -16.8046   25.8375 C   0  0  0  0  0  0  0  0  0  0  0  0
   10.6930  -17.2488   26.8947 N   0  0  0  0  0  0  0  0  0  0  0  0
   11.3578  -16.9915   28.0372 C   0  0  0  0  0  0  0  0  0  0  0  0
   12.5381  -16.4169   27.7647 N   0  0  0  0  0  0  0  0  0  0  0  0
   12.6019  -16.3186   26.4281 C   0  0  0  0  0  0  0  0  0  0  0  0
   13.3568  -17.6263   23.7356 O   0  0  0  0  0  0  0  0  0  0  0  0
   13.4021  -18.9507   23.3868 O   0  0  0  0  0  0  0  0  0  0  0  0
  2  1  1  1
  3  2  1  0
  3  4  1  0
  4  5  2  0
  5  6  1  0
  7  6  1  0
  8  7  2  0
  9  8  1  0
 10 11  1  0
 10  9  2  0
 11 12  2  0
 12  4  1  0
 12  7  1  0
 13  2  1  0
 13 14  2  0
 16 15  1  0
 17 16  2  0
 18 16  1  0
 19 20  1  0
 19 18  1  0
 20 21  1  0
 22 21  1  6
 22 23  1  0
 23 13  1  0
 24 22  1  0
 25 24  2  0
 26 24  1  0
 27 26  1  0
 27 34  1  0
 27 28  1  6
 29 28  1  0
 30 29  2  0
 31 30  1  0
 32 31  1  0
 32 33  2  0
 33 29  1  0
 34 35  1  0
 36 34  2  0
M  END
$$$$
