WRH.pdb
     RDKit          3D

 36 38  0  0  1  0  0  0  0  0999 V2000
    7.0421  -16.9446   26.0255 N   0  0  0  0  0  0  0  0  0  0  0  0
    7.5974  -16.0117   25.0770 C   0  0  1  0  0  0  0  0  0  0  0  0
    8.8560  -15.4252   25.6801 C   0  0  0  0  0  0  0  0  0  0  0  0
    8.3946  -14.4602   26.7397 C   0  0  0  0  0  0  0  0  0  0  0  0
    8.7414  -14.4677   28.0788 C   0  0  0  0  0  0  0  0  0  0  0  0
    8.1175  -13.4300   28.6654 N   0  0  0  0  0  0  0  0  0  0  0  0
    7.3937  -12.7607   27.7805 C   0  0  0  0  0  0  0  0  0  0  0  0
    6.5803  -11.6283   27.9110 C   0  0  0  0  0  0  0  0  0  0  0  0
    5.9154  -11.1189   26.8080 C   0  0  0  0  0  0  0  0  0  0  0  0
    6.0758  -11.7514   25.5940 C   0  0  0  0  0  0  0  0  0  0  0  0
    6.8766  -12.8648   25.4671 C   0  0  0  0  0  0  0  0  0  0  0  0
    7.5510  -13.3888   26.5632 C   0  0  0  0  0  0  0  0  0  0  0  0
    7.8807  -16.6881   23.7839 C   0  0  0  0  0  0  0  0  0  0  0  0
    7.8071  -17.9413   23.7797 O   0  0  0  0  0  0  0  0  0  0  0  0
    9.2721  -13.8719   16.8784 N   0  0  0  0  0  0  0  0  0  0  0  0
    8.4069  -12.9950   17.5781 C   0  0  0  0  0  0  0  0  0  0  0  0
    8.6819  -11.7678   17.8635 N   0  0  0  0  0  0  0  0  0  0  0  0
    7.1433  -13.5138   17.9899 N   0  0  0  0  0  0  0  0  0  0  0  0
    6.9719  -14.8549   18.5311 C   0  0  0  0  0  0  0  0  0  0  0  0
    7.8615  -15.0838   19.7222 C   0  0  0  0  0  0  0  0  0  0  0  0
    7.6586  -16.4676   20.2514 C   0  0  0  0  0  0  0  0  0  0  0  0
    8.5430  -16.7316   21.4124 C   0  0  2  0  0  0  0  0  0  0  0  0
    8.2181  -15.9937   22.5983 N   0  0  0  0  0  0  0  0  0  0  0  0
    9.9838  -16.4476   21.0875 C   0  0  0  0  0  0  0  0  0  0  0  0
   10.4621  -15.3654   21.4943 O   0  0  0  0  0  0  0  0  0  0  0  0
    7.9782  -11.2187   18.4297 N   0  0  0  0  0  0  0  0  0  0  0  0
   10.8143  -17.3244   20.3596 C   0  0  1  0  0  0  0  0  0  0  0  0
   12.0423  -17.8939   20.9526 C   0  0  0  0  0  0  0  0  0  0  0  0
   11.7107  -18.5806   22.2331 C   0  0  0  0  0  0  0  0  0  0  0  0
   12.9011  -19.1139   22.8996 C   0  0  0  0  0  0  0  0  0  0  0  0
   14.1715  -18.5046   22.8216 N   0  0  0  0  0  0  0  0  0  0  0  0
   15.0130  -19.2689   23.5435 C   0  0  0  0  0  0  0  0  0  0  0  0
   14.3543  -20.3132   24.0662 N   0  0  0  0  0  0  0  0  0  0  0  0
   13.0819  -20.1898   23.6584 C   0  0  0  0  0  0  0  0  0  0  0  0
   12.6696  -18.8178   20.0075 O   0  0  0  0  0  0  0  0  0  0  0  0
   12.2099  -19.2499   18.7910 O   0  0  0  0  0  0  0  0  0  0  0  0
  2  1  1  1
  3  2  1  0
  3  4  1  0
  4  5  2  0
  5  6  1  0
  7  6  1  0
  8  7  2  0
  9  8  1  0
 10 11  1  0
 10  9  2  0
 11 12  2  0
 12  4  1  0
 12  7  1  0
 13  2  1  0
 13 14  2  0
 16 15  1  0
 17 16  2  0
 18 16  1  0
 19 20  1  0
 19 18  1  0
 20 21  1  0
 22 21  1  6
 22 23  1  0
 23 13  1  0
 24 22  1  0
 25 24  2  0
 26 24  1  0
 27 26  1  0
 27 34  1  0
 27 28  1  6
 29 28  1  0
 30 29  2  0
 31 30  1  0
 32 31  1  0
 32 33  2  0
 33 29  1  0
 34 35  1  0
 36 34  2  0
M  END
$$$$
