WRH.pdb
     RDKit          3D

 36 38  0  0  1  0  0  0  0  0999 V2000
    6.3945  -17.1230   24.8811 N   0  0  0  0  0  0  0  0  0  0  0  0
    7.4226  -16.1504   24.6065 C   0  0  1  0  0  0  0  0  0  0  0  0
    8.4840  -16.2769   25.6785 C   0  0  0  0  0  0  0  0  0  0  0  0
    8.2980  -15.0893   26.5851 C   0  0  0  0  0  0  0  0  0  0  0  0
    8.3808  -15.0764   27.9658 C   0  0  0  0  0  0  0  0  0  0  0  0
    8.1591  -13.8136   28.3738 N   0  0  0  0  0  0  0  0  0  0  0  0
    7.9402  -13.0200   27.3359 C   0  0  0  0  0  0  0  0  0  0  0  0
    7.6651  -11.6493   27.2557 C   0  0  0  0  0  0  0  0  0  0  0  0
    7.4685  -11.0507   26.0224 C   0  0  0  0  0  0  0  0  0  0  0  0
    7.5503  -11.8336   24.8911 C   0  0  0  0  0  0  0  0  0  0  0  0
    7.8216  -13.1817   24.9717 C   0  0  0  0  0  0  0  0  0  0  0  0
    8.0217  -13.7982   26.2007 C   0  0  0  0  0  0  0  0  0  0  0  0
    7.9940  -16.3632   23.2506 C   0  0  0  0  0  0  0  0  0  0  0  0
    7.8120  -17.4944   22.7377 O   0  0  0  0  0  0  0  0  0  0  0  0
    7.1379  -12.5158   16.5735 N   0  0  0  0  0  0  0  0  0  0  0  0
    7.2382  -13.8359   16.0691 C   0  0  0  0  0  0  0  0  0  0  0  0
    7.1149  -14.1566   14.8262 N   0  0  0  0  0  0  0  0  0  0  0  0
    7.4966  -14.8772   17.0094 N   0  0  0  0  0  0  0  0  0  0  0  0
    8.5933  -14.8309   17.9666 C   0  0  0  0  0  0  0  0  0  0  0  0
    8.0992  -14.5182   19.3525 C   0  0  0  0  0  0  0  0  0  0  0  0
    9.2481  -14.4920   20.3092 C   0  0  0  0  0  0  0  0  0  0  0  0
    9.2066  -15.6563   21.2273 C   0  0  2  0  0  0  0  0  0  0  0  0
    8.7106  -15.3703   22.5420 N   0  0  0  0  0  0  0  0  0  0  0  0
   10.5634  -16.2853   21.3862 C   0  0  0  0  0  0  0  0  0  0  0  0
   11.0417  -16.8785   20.3937 O   0  0  0  0  0  0  0  0  0  0  0  0
    7.1892  -15.1784   14.5660 N   0  0  0  0  0  0  0  0  0  0  0  0
   11.3166  -16.2421   22.5774 C   0  0  1  0  0  0  0  0  0  0  0  0
   12.6814  -16.8048   22.6479 C   0  0  0  0  0  0  0  0  0  0  0  0
   13.6733  -15.7018   22.7909 C   0  0  0  0  0  0  0  0  0  0  0  0
   13.9384  -15.0274   21.5177 C   0  0  0  0  0  0  0  0  0  0  0  0
   13.3935  -15.4522   20.2874 N   0  0  0  0  0  0  0  0  0  0  0  0
   13.8560  -14.6073   19.3463 C   0  0  0  0  0  0  0  0  0  0  0  0
   14.6523  -13.6850   19.9056 N   0  0  0  0  0  0  0  0  0  0  0  0
   14.6807  -13.9669   21.2171 C   0  0  0  0  0  0  0  0  0  0  0  0
   12.7755  -17.7446   23.7652 O   0  0  0  0  0  0  0  0  0  0  0  0
   12.1903  -17.6739   25.0023 O   0  0  0  0  0  0  0  0  0  0  0  0
  2  1  1  1
  3  2  1  0
  3  4  1  0
  4  5  2  0
  5  6  1  0
  7  6  1  0
  8  7  2  0
  9  8  1  0
 10 11  1  0
 10  9  2  0
 11 12  2  0
 12  4  1  0
 12  7  1  0
 13  2  1  0
 13 14  2  0
 16 15  1  0
 17 16  2  0
 18 16  1  0
 19 20  1  0
 19 18  1  0
 20 21  1  0
 22 21  1  6
 22 23  1  0
 23 13  1  0
 24 22  1  0
 25 24  2  0
 26 24  1  0
 27 26  1  0
 27 34  1  0
 27 28  1  6
 29 28  1  0
 30 29  2  0
 31 30  1  0
 32 31  1  0
 32 33  2  0
 33 29  1  0
 34 35  1  0
 36 34  2  0
M  END
$$$$
