YTA.pdb
     RDKit          3D

 25 25  0  0  1  0  0  0  0  0999 V2000
    5.2629  -10.5282   28.3955 O   0  0  0  0  0  0  0  0  0  0  0  0
    5.9146  -11.4692   27.5894 C   0  0  0  0  0  0  0  0  0  0  0  0
    7.0477  -12.1056   28.0528 C   0  0  0  0  0  0  0  0  0  0  0  0
    7.6892  -13.0343   27.2547 C   0  0  0  0  0  0  0  0  0  0  0  0
    7.2422  -13.3651   25.9873 C   0  0  0  0  0  0  0  0  0  0  0  0
    7.9591  -14.3596   25.1800 C   0  0  0  0  0  0  0  0  0  0  0  0
    7.0816  -15.4526   24.6282 C   0  0  2  0  0  0  0  0  0  0  0  0
    6.4537  -16.2395   25.6442 N   0  0  0  0  0  0  0  0  0  0  0  0
    7.8991  -16.2419   23.6852 C   0  0  0  0  0  0  0  0  0  0  0  0
    8.3718  -17.3334   24.0940 O   0  0  0  0  0  0  0  0  0  0  0  0
    6.1092  -12.7251   25.5311 C   0  0  0  0  0  0  0  0  0  0  0  0
    5.4700  -11.7986   26.3284 C   0  0  0  0  0  0  0  0  0  0  0  0
    7.6578  -16.0773   19.6260 C   0  0  0  0  0  0  0  0  0  0  0  0
    9.0902  -16.1891   20.0982 C   0  0  1  0  0  0  0  0  0  0  0  0
    9.7384  -14.9576   20.0261 O   0  0  0  0  0  0  0  0  0  0  0  0
    9.1058  -16.6224   21.5670 C   0  0  2  0  0  0  0  0  0  0  0  0
    8.1883  -15.8546   22.3499 N   0  0  0  0  0  0  0  0  0  0  0  0
   10.4914  -16.5873   22.1138 C   0  0  0  0  0  0  0  0  0  0  0  0
   10.7401  -15.9078   23.1420 O   0  0  0  0  0  0  0  0  0  0  0  0
   12.3469  -18.3790   23.5107 C   0  0  0  0  0  0  0  0  0  0  0  0
   12.7933  -17.5991   22.2665 C   0  0  2  0  0  0  0  0  0  0  0  0
   11.5783  -17.2943   21.5294 N   0  0  0  0  0  0  0  0  0  0  0  0
   13.7762  -18.3453   21.4832 C   0  0  0  0  0  0  0  0  0  0  0  0
   13.4930  -19.4270   20.6635 O   0  0  0  0  0  0  0  0  0  0  0  0
   14.9782  -17.9836   21.5530 O   0  0  0  0  0  0  0  0  0  0  0  0
  2  1  1  0
  3  2  2  0
  4  3  1  0
  5 11  1  0
  5  4  2  0
  6  5  1  0
  7  6  1  0
  7  8  1  1
  9  7  1  0
  9 10  2  0
 11 12  2  0
 12  2  1  0
 14 13  1  1
 14 15  1  0
 16 17  1  1
 16 14  1  0
 17  9  1  0
 18 16  1  0
 19 18  2  0
 21 20  1  1
 21 22  1  0
 22 18  1  0
 23 24  1  0
 23 21  1  0
 25 23  2  0
M  END
$$$$
