YTA.pdb
     RDKit          3D

 25 25  0  0  1  0  0  0  0  0999 V2000
    5.5615  -10.7098   28.6014 O   0  0  0  0  0  0  0  0  0  0  0  0
    6.1444  -11.6226   27.7144 C   0  0  0  0  0  0  0  0  0  0  0  0
    7.2682  -12.3281   28.0924 C   0  0  0  0  0  0  0  0  0  0  0  0
    7.8418  -13.2289   27.2145 C   0  0  0  0  0  0  0  0  0  0  0  0
    7.3344  -13.4636   25.9485 C   0  0  0  0  0  0  0  0  0  0  0  0
    7.9803  -14.4321   25.0542 C   0  0  0  0  0  0  0  0  0  0  0  0
    7.0589  -15.5099   24.5458 C   0  0  2  0  0  0  0  0  0  0  0  0
    6.4781  -16.2954   25.5906 N   0  0  0  0  0  0  0  0  0  0  0  0
    7.8120  -16.3036   23.5541 C   0  0  0  0  0  0  0  0  0  0  0  0
    8.2854  -17.4074   23.9273 O   0  0  0  0  0  0  0  0  0  0  0  0
    6.2110  -12.7550   25.5777 C   0  0  0  0  0  0  0  0  0  0  0  0
    5.6397  -11.8565   26.4546 C   0  0  0  0  0  0  0  0  0  0  0  0
    6.9540  -16.2462   19.6586 C   0  0  0  0  0  0  0  0  0  0  0  0
    8.4433  -16.4261   19.8508 C   0  0  1  0  0  0  0  0  0  0  0  0
    9.1295  -15.2441   19.5785 O   0  0  0  0  0  0  0  0  0  0  0  0
    8.7246  -16.7850   21.3128 C   0  0  2  0  0  0  0  0  0  0  0  0
    8.0386  -15.9074   22.2094 N   0  0  0  0  0  0  0  0  0  0  0  0
   10.1909  -16.8343   21.5724 C   0  0  0  0  0  0  0  0  0  0  0  0
   10.6968  -16.0812   22.4429 O   0  0  0  0  0  0  0  0  0  0  0  0
   12.2502  -18.7514   22.6726 C   0  0  0  0  0  0  0  0  0  0  0  0
   12.4212  -17.9850   21.3539 C   0  0  2  0  0  0  0  0  0  0  0  0
   11.0767  -17.7040   20.8785 N   0  0  0  0  0  0  0  0  0  0  0  0
   13.2323  -18.7319   20.3945 C   0  0  0  0  0  0  0  0  0  0  0  0
   12.7766  -19.7708   19.5976 O   0  0  0  0  0  0  0  0  0  0  0  0
   14.4426  -18.4129   20.2764 O   0  0  0  0  0  0  0  0  0  0  0  0
  2  1  1  0
  3  2  2  0
  4  3  1  0
  5 11  1  0
  5  4  2  0
  6  5  1  0
  7  6  1  0
  7  8  1  1
  9  7  1  0
  9 10  2  0
 11 12  2  0
 12  2  1  0
 14 13  1  1
 14 15  1  0
 16 17  1  1
 16 14  1  0
 17  9  1  0
 18 16  1  0
 19 18  2  0
 21 20  1  1
 21 22  1  0
 22 18  1  0
 23 24  1  0
 23 21  1  0
 25 23  2  0
M  END
$$$$
