YTA.pdb
     RDKit          3D

 25 25  0  0  1  0  0  0  0  0999 V2000
   18.8237  -13.7088   17.3662 O   0  0  0  0  0  0  0  0  0  0  0  0
   17.5204  -13.8450   17.8590 C   0  0  0  0  0  0  0  0  0  0  0  0
   17.2617  -14.7293   18.8859 C   0  0  0  0  0  0  0  0  0  0  0  0
   15.9738  -14.8617   19.3707 C   0  0  0  0  0  0  0  0  0  0  0  0
   14.9083  -14.1362   18.8669 C   0  0  0  0  0  0  0  0  0  0  0  0
   13.5592  -14.3129   19.4179 C   0  0  0  0  0  0  0  0  0  0  0  0
   12.7504  -15.3838   18.7337 C   0  0  2  0  0  0  0  0  0  0  0  0
   12.2346  -14.9768   17.4633 N   0  0  0  0  0  0  0  0  0  0  0  0
   11.7100  -15.8264   19.6836 C   0  0  0  0  0  0  0  0  0  0  0  0
   10.5429  -15.3880   19.5175 O   0  0  0  0  0  0  0  0  0  0  0  0
   15.1746  -13.2543   17.8409 C   0  0  0  0  0  0  0  0  0  0  0  0
   16.4601  -13.1231   17.3581 C   0  0  0  0  0  0  0  0  0  0  0  0
    9.5328  -19.0389   22.4869 C   0  0  0  0  0  0  0  0  0  0  0  0
   10.7186  -18.6553   21.6302 C   0  0  1  0  0  0  0  0  0  0  0  0
   10.5482  -19.0886   20.3167 O   0  0  0  0  0  0  0  0  0  0  0  0
   10.8405  -17.1291   21.5901 C   0  0  2  0  0  0  0  0  0  0  0  0
   11.9355  -16.7120   20.7705 N   0  0  0  0  0  0  0  0  0  0  0  0
   10.9131  -16.5682   22.9685 C   0  0  0  0  0  0  0  0  0  0  0  0
   11.9921  -16.6278   23.6111 O   0  0  0  0  0  0  0  0  0  0  0  0
    8.5794  -14.7449   25.2693 C   0  0  0  0  0  0  0  0  0  0  0  0
    9.8398  -15.5858   25.0250 C   0  0  2  0  0  0  0  0  0  0  0  0
    9.8082  -15.9529   23.6190 N   0  0  0  0  0  0  0  0  0  0  0  0
    9.9063  -16.7361   25.9243 C   0  0  0  0  0  0  0  0  0  0  0  0
   10.5025  -16.7410   27.1759 O   0  0  0  0  0  0  0  0  0  0  0  0
    9.3829  -17.8123   25.5392 O   0  0  0  0  0  0  0  0  0  0  0  0
  2  1  1  0
  3  2  2  0
  4  3  1  0
  5 11  1  0
  5  4  2  0
  6  5  1  0
  7  6  1  0
  7  8  1  6
  9  7  1  0
  9 10  2  0
 11 12  2  0
 12  2  1  0
 14 13  1  1
 14 15  1  0
 16 17  1  6
 16 14  1  0
 17  9  1  0
 18 16  1  0
 19 18  2  0
 21 20  1  1
 21 22  1  0
 22 18  1  0
 23 24  1  0
 23 21  1  0
 25 23  2  0
M  END
$$$$
