YTA.pdb
     RDKit          3D

 25 25  0  0  1  0  0  0  0  0999 V2000
   18.7157  -20.0234   17.8428 O   0  0  0  0  0  0  0  0  0  0  0  0
   17.6648  -19.0986   17.8276 C   0  0  0  0  0  0  0  0  0  0  0  0
   17.9376  -17.7462   17.8399 C   0  0  0  0  0  0  0  0  0  0  0  0
   16.8979  -16.8352   17.8247 C   0  0  0  0  0  0  0  0  0  0  0  0
   15.5687  -17.2199   17.7971 C   0  0  0  0  0  0  0  0  0  0  0  0
   14.5012  -16.2124   17.7806 C   0  0  0  0  0  0  0  0  0  0  0  0
   13.7302  -16.1540   16.4879 C   0  0  2  0  0  0  0  0  0  0  0  0
   14.5182  -15.7095   15.3801 N   0  0  0  0  0  0  0  0  0  0  0  0
   12.5262  -15.3333   16.7282 C   0  0  0  0  0  0  0  0  0  0  0  0
   12.6674  -14.0839   16.7581 O   0  0  0  0  0  0  0  0  0  0  0  0
   15.3038  -18.5731   17.7848 C   0  0  0  0  0  0  0  0  0  0  0  0
   16.3422  -19.4811   17.8000 C   0  0  0  0  0  0  0  0  0  0  0  0
    9.2990  -15.7560   14.8041 C   0  0  0  0  0  0  0  0  0  0  0  0
    8.8970  -15.5069   16.2406 C   0  0  1  0  0  0  0  0  0  0  0  0
    8.5019  -16.6900   16.8621 O   0  0  0  0  0  0  0  0  0  0  0  0
   10.1030  -14.9698   17.0170 C   0  0  2  0  0  0  0  0  0  0  0  0
   11.2212  -15.8565   16.9276 N   0  0  0  0  0  0  0  0  0  0  0  0
    9.7299  -14.6618   18.4263 C   0  0  0  0  0  0  0  0  0  0  0  0
   10.0990  -15.4283   19.3519 O   0  0  0  0  0  0  0  0  0  0  0  0
    7.5871  -12.0900   20.1198 C   0  0  0  0  0  0  0  0  0  0  0  0
    8.5711  -13.2666   20.1746 C   0  0  2  0  0  0  0  0  0  0  0  0
    8.9624  -13.5239   18.7986 N   0  0  0  0  0  0  0  0  0  0  0  0
    7.9878  -14.4300   20.8399 C   0  0  0  0  0  0  0  0  0  0  0  0
    7.9720  -14.6453   22.2094 O   0  0  0  0  0  0  0  0  0  0  0  0
    7.4552  -15.3116   20.1192 O   0  0  0  0  0  0  0  0  0  0  0  0
  2  1  1  0
  3  2  2  0
  4  3  1  0
  5 11  1  0
  5  4  2  0
  6  5  1  0
  7  6  1  0
  7  8  1  6
  9  7  1  0
  9 10  2  0
 11 12  2  0
 12  2  1  0
 14 13  1  6
 14 15  1  0
 16 17  1  1
 16 14  1  0
 17  9  1  0
 18 16  1  0
 19 18  2  0
 21 20  1  6
 21 22  1  0
 22 18  1  0
 23 24  1  0
 23 21  1  0
 25 23  2  0
M  END
$$$$
