YTA.pdb
     RDKit          3D

 25 25  0  0  1  0  0  0  0  0999 V2000
    4.9770  -10.5840   27.9719 O   0  0  0  0  0  0  0  0  0  0  0  0
    5.6422  -11.6726   27.3953 C   0  0  0  0  0  0  0  0  0  0  0  0
    6.8218  -12.1291   27.9465 C   0  0  0  0  0  0  0  0  0  0  0  0
    7.4765  -13.2042   27.3751 C   0  0  0  0  0  0  0  0  0  0  0  0
    6.9979  -13.8596   26.2540 C   0  0  0  0  0  0  0  0  0  0  0  0
    7.7307  -14.9978   25.6862 C   0  0  0  0  0  0  0  0  0  0  0  0
    6.8584  -15.9973   24.9728 C   0  0  2  0  0  0  0  0  0  0  0  0
    6.5702  -17.1574   25.7582 N   0  0  0  0  0  0  0  0  0  0  0  0
    7.5013  -16.3004   23.6783 C   0  0  0  0  0  0  0  0  0  0  0  0
    7.9037  -17.4766   23.4874 O   0  0  0  0  0  0  0  0  0  0  0  0
    5.8185  -13.3978   25.7088 C   0  0  0  0  0  0  0  0  0  0  0  0
    5.1661  -12.3250   26.2799 C   0  0  0  0  0  0  0  0  0  0  0  0
    8.6421  -13.4408   20.7358 C   0  0  0  0  0  0  0  0  0  0  0  0
    7.9583  -14.7130   20.2872 C   0  0  1  0  0  0  0  0  0  0  0  0
    8.5201  -15.1935   19.1059 O   0  0  0  0  0  0  0  0  0  0  0  0
    8.1542  -15.7950   21.3533 C   0  0  2  0  0  0  0  0  0  0  0  0
    7.6964  -15.3570   22.6351 N   0  0  0  0  0  0  0  0  0  0  0  0
    9.5695  -16.2599   21.3808 C   0  0  0  0  0  0  0  0  0  0  0  0
   10.4192  -15.6345   22.0646 O   0  0  0  0  0  0  0  0  0  0  0  0
   11.4820  -19.1287   19.8951 C   0  0  0  0  0  0  0  0  0  0  0  0
   11.4303  -17.7881   20.6405 C   0  0  2  0  0  0  0  0  0  0  0  0
   10.0304  -17.3978   20.6629 N   0  0  0  0  0  0  0  0  0  0  0  0
   12.3017  -16.7907   20.0224 C   0  0  0  0  0  0  0  0  0  0  0  0
   13.6554  -16.6395   20.2806 O   0  0  0  0  0  0  0  0  0  0  0  0
   11.7901  -16.0019   19.1878 O   0  0  0  0  0  0  0  0  0  0  0  0
  2  1  1  0
  3  2  2  0
  4  3  1  0
  5 11  1  0
  5  4  2  0
  6  5  1  0
  7  6  1  0
  7  8  1  1
  9  7  1  0
  9 10  2  0
 11 12  2  0
 12  2  1  0
 14 13  1  1
 14 15  1  0
 16 17  1  1
 16 14  1  0
 17  9  1  0
 18 16  1  0
 19 18  2  0
 21 20  1  6
 21 22  1  0
 22 18  1  0
 23 24  1  0
 23 21  1  0
 25 23  2  0
M  END
$$$$
