YTA.pdb
     RDKit          3D

 25 25  0  0  1  0  0  0  0  0999 V2000
   -0.1806  -25.9327   26.2093 O   0  0  0  0  0  0  0  0  0  0  0  0
    1.0878  -25.3946   25.9615 C   0  0  0  0  0  0  0  0  0  0  0  0
    1.3152  -24.0482   26.1595 C   0  0  0  0  0  0  0  0  0  0  0  0
    2.5687  -23.5196   25.9140 C   0  0  0  0  0  0  0  0  0  0  0  0
    3.6297  -24.2895   25.4702 C   0  0  0  0  0  0  0  0  0  0  0  0
    4.9423  -23.6796   25.2254 C   0  0  0  0  0  0  0  0  0  0  0  0
    5.0669  -23.0045   23.8846 C   0  0  2  0  0  0  0  0  0  0  0  0
    4.8355  -23.8880   22.7839 N   0  0  0  0  0  0  0  0  0  0  0  0
    6.3844  -22.3387   23.8458 C   0  0  0  0  0  0  0  0  0  0  0  0
    7.3866  -23.0433   23.5611 O   0  0  0  0  0  0  0  0  0  0  0  0
    3.3949  -25.6342   25.2746 C   0  0  0  0  0  0  0  0  0  0  0  0
    2.1437  -26.1605   25.5199 C   0  0  0  0  0  0  0  0  0  0  0  0
    7.3153  -18.8322   22.1781 C   0  0  0  0  0  0  0  0  0  0  0  0
    7.8727  -18.9361   23.5801 C   0  0  1  0  0  0  0  0  0  0  0  0
    7.0572  -18.2706   24.4935 O   0  0  0  0  0  0  0  0  0  0  0  0
    7.9133  -20.4084   24.0000 C   0  0  2  0  0  0  0  0  0  0  0  0
    6.5983  -20.9594   24.1071 N   0  0  0  0  0  0  0  0  0  0  0  0
    8.7079  -20.5802   25.2487 C   0  0  0  0  0  0  0  0  0  0  0  0
    8.1950  -20.2925   26.3599 O   0  0  0  0  0  0  0  0  0  0  0  0
   11.1108  -22.5856   26.7579 C   0  0  0  0  0  0  0  0  0  0  0  0
   10.8468  -21.1007   26.4733 C   0  0  2  0  0  0  0  0  0  0  0  0
   10.0455  -21.0631   25.2613 N   0  0  0  0  0  0  0  0  0  0  0  0
   12.0903  -20.3394   26.3715 C   0  0  0  0  0  0  0  0  0  0  0  0
   12.7966  -20.1116   25.2005 O   0  0  0  0  0  0  0  0  0  0  0  0
   12.5648  -19.8479   27.4269 O   0  0  0  0  0  0  0  0  0  0  0  0
  2  1  1  0
  3  2  2  0
  4  3  1  0
  5 11  1  0
  5  4  2  0
  6  5  1  0
  7  6  1  0
  7  8  1  6
  9  7  1  0
  9 10  2  0
 11 12  2  0
 12  2  1  0
 14 13  1  6
 14 15  1  0
 16 17  1  1
 16 14  1  0
 17  9  1  0
 18 16  1  0
 19 18  2  0
 21 20  1  6
 21 22  1  0
 22 18  1  0
 23 24  1  0
 23 21  1  0
 25 23  2  0
M  END
$$$$
