YTA.pdb
     RDKit          3D

 25 25  0  0  1  0  0  0  0  0999 V2000
   17.7763  -16.1271   17.5878 O   0  0  0  0  0  0  0  0  0  0  0  0
   16.5584  -15.6684   18.1038 C   0  0  0  0  0  0  0  0  0  0  0  0
   16.1421  -14.3791   17.8430 C   0  0  0  0  0  0  0  0  0  0  0  0
   14.9391  -13.9288   18.3536 C   0  0  0  0  0  0  0  0  0  0  0  0
   14.1135  -14.7233   19.1299 C   0  0  0  0  0  0  0  0  0  0  0  0
   12.8443  -14.1976   19.6474 C   0  0  0  0  0  0  0  0  0  0  0  0
   11.6228  -14.7594   18.9681 C   0  0  2  0  0  0  0  0  0  0  0  0
   11.5307  -14.4022   17.5862 N   0  0  0  0  0  0  0  0  0  0  0  0
   10.4480  -14.3549   19.7663 C   0  0  0  0  0  0  0  0  0  0  0  0
    9.9952  -13.1945   19.5922 O   0  0  0  0  0  0  0  0  0  0  0  0
   14.5359  -16.0107   19.3862 C   0  0  0  0  0  0  0  0  0  0  0  0
   15.7366  -16.4588   18.8760 C   0  0  0  0  0  0  0  0  0  0  0  0
    7.0810  -14.8874   19.5740 C   0  0  0  0  0  0  0  0  0  0  0  0
    7.3656  -15.3104   20.9979 C   0  0  1  0  0  0  0  0  0  0  0  0
    7.5184  -16.6926   21.0883 O   0  0  0  0  0  0  0  0  0  0  0  0
    8.6826  -14.6792   21.4590 C   0  0  2  0  0  0  0  0  0  0  0  0
    9.7946  -15.1844   20.7157 N   0  0  0  0  0  0  0  0  0  0  0  0
    8.8590  -14.8392   22.9299 C   0  0  0  0  0  0  0  0  0  0  0  0
    9.7207  -15.6409   23.3720 O   0  0  0  0  0  0  0  0  0  0  0  0
    7.1815  -13.4447   25.9881 C   0  0  0  0  0  0  0  0  0  0  0  0
    8.2048  -14.3712   25.3171 C   0  0  2  0  0  0  0  0  0  0  0  0
    8.0931  -14.1217   23.8896 N   0  0  0  0  0  0  0  0  0  0  0  0
    7.9890  -15.7703   25.6810 C   0  0  0  0  0  0  0  0  0  0  0  0
    8.6070  -16.4290   26.7327 O   0  0  0  0  0  0  0  0  0  0  0  0
    7.1788  -16.4376   24.9891 O   0  0  0  0  0  0  0  0  0  0  0  0
  2  1  1  0
  3  2  2  0
  4  3  1  0
  5 11  1  0
  5  4  2  0
  6  5  1  0
  7  6  1  0
  7  8  1  6
  9  7  1  0
  9 10  2  0
 11 12  2  0
 12  2  1  0
 14 13  1  6
 14 15  1  0
 16 17  1  6
 16 14  1  0
 17  9  1  0
 18 16  1  0
 19 18  2  0
 21 20  1  1
 21 22  1  0
 22 18  1  0
 23 24  1  0
 23 21  1  0
 25 23  2  0
M  END
$$$$
