YTA.pdb
     RDKit          3D

 25 25  0  0  1  0  0  0  0  0999 V2000
    6.1848  -10.1229   27.7354 O   0  0  0  0  0  0  0  0  0  0  0  0
    6.5621  -11.3431   27.1620 C   0  0  0  0  0  0  0  0  0  0  0  0
    7.7735  -11.4523   26.5107 C   0  0  0  0  0  0  0  0  0  0  0  0
    8.1435  -12.6583   25.9454 C   0  0  0  0  0  0  0  0  0  0  0  0
    7.3428  -13.7858   26.0013 C   0  0  0  0  0  0  0  0  0  0  0  0
    7.7826  -15.0438   25.3858 C   0  0  0  0  0  0  0  0  0  0  0  0
    6.7124  -15.7489   24.5943 C   0  0  2  0  0  0  0  0  0  0  0  0
    6.1443  -16.8662   25.2832 N   0  0  0  0  0  0  0  0  0  0  0  0
    7.2893  -16.0922   23.2790 C   0  0  0  0  0  0  0  0  0  0  0  0
    7.7016  -17.2685   23.1111 O   0  0  0  0  0  0  0  0  0  0  0  0
    6.1337  -13.6691   26.6540 C   0  0  0  0  0  0  0  0  0  0  0  0
    5.7656  -12.4651   27.2176 C   0  0  0  0  0  0  0  0  0  0  0  0
    8.4077  -13.3287   20.1856 C   0  0  0  0  0  0  0  0  0  0  0  0
    7.6927  -14.6125   19.8279 C   0  0  1  0  0  0  0  0  0  0  0  0
    8.2000  -15.1563   18.6494 O   0  0  0  0  0  0  0  0  0  0  0  0
    7.9214  -15.6441   20.9365 C   0  0  2  0  0  0  0  0  0  0  0  0
    7.4106  -15.1872   22.1914 N   0  0  0  0  0  0  0  0  0  0  0  0
    9.3588  -16.0296   21.0115 C   0  0  0  0  0  0  0  0  0  0  0  0
   10.1715  -15.2937   21.6267 O   0  0  0  0  0  0  0  0  0  0  0  0
   11.3969  -19.0044   19.9946 C   0  0  0  0  0  0  0  0  0  0  0  0
   11.2939  -17.5485   20.4693 C   0  0  2  0  0  0  0  0  0  0  0  0
    9.8815  -17.2100   20.4149 N   0  0  0  0  0  0  0  0  0  0  0  0
   12.1358  -16.6582   19.6725 C   0  0  0  0  0  0  0  0  0  0  0  0
   13.4101  -16.2370   20.0201 O   0  0  0  0  0  0  0  0  0  0  0  0
   11.6744  -16.2355   18.5822 O   0  0  0  0  0  0  0  0  0  0  0  0
  2  1  1  0
  3  2  2  0
  4  3  1  0
  5 11  1  0
  5  4  2  0
  6  5  1  0
  7  6  1  0
  7  8  1  1
  9  7  1  0
  9 10  2  0
 11 12  2  0
 12  2  1  0
 14 13  1  1
 14 15  1  0
 16 17  1  1
 16 14  1  0
 17  9  1  0
 18 16  1  0
 19 18  2  0
 21 20  1  6
 21 22  1  0
 22 18  1  0
 23 24  1  0
 23 21  1  0
 25 23  2  0
M  END
$$$$
