YVR.pdb
     RDKit          3D

 31 31  0  0  1  0  0  0  0  0999 V2000
   28.7101  -27.0059  -19.2540 O   0  0  0  0  0  0  0  0  0  0  0  0
   27.8017  -26.3927  -18.3967 C   0  0  0  0  0  0  0  0  0  0  0  0
   27.8042  -26.7529  -17.0738 C   0  0  0  0  0  0  0  0  0  0  0  0
   26.9179  -26.1697  -16.1814 C   0  0  0  0  0  0  0  0  0  0  0  0
   26.0080  -25.2138  -16.5857 C   0  0  0  0  0  0  0  0  0  0  0  0
   25.1088  -24.6518  -15.5747 C   0  0  0  0  0  0  0  0  0  0  0  0
   25.3054  -23.1720  -15.3516 C   0  0  2  0  0  0  0  0  0  0  0  0
   26.6556  -22.8403  -15.0294 N   0  0  0  0  0  0  0  0  0  0  0  0
   24.2887  -22.6604  -14.4294 C   0  0  0  0  0  0  0  0  0  0  0  0
   24.6042  -22.4786  -13.2062 O   0  0  0  0  0  0  0  0  0  0  0  0
   26.0069  -24.8528  -17.9164 C   0  0  0  0  0  0  0  0  0  0  0  0
   26.8969  -25.4436  -18.7935 C   0  0  0  0  0  0  0  0  0  0  0  0
   20.8352  -20.3568  -15.4535 C   0  0  0  0  0  0  0  0  0  0  0  0
   21.6223  -20.3749  -14.1693 C   0  0  2  0  0  0  0  0  0  0  0  0
   22.7548  -19.4013  -14.1395 C   0  0  0  0  0  0  0  0  0  0  0  0
   22.0541  -21.7948  -13.8051 C   0  0  2  0  0  0  0  0  0  0  0  0
   22.9516  -22.3409  -14.7808 N   0  0  0  0  0  0  0  0  0  0  0  0
   20.8085  -22.5643  -13.6471 C   0  0  0  0  0  0  0  0  0  0  0  0
   20.2827  -23.0122  -14.7030 O   0  0  0  0  0  0  0  0  0  0  0  0
   18.4970  -26.3938   -6.5856 N   0  0  0  0  0  0  0  0  0  0  0  0
   18.1397  -25.0715   -6.9563 C   0  0  0  0  0  0  0  0  0  0  0  0
   17.9218  -24.1293   -6.0712 N   0  0  0  0  0  0  0  0  0  0  0  0
   17.9936  -24.6843   -8.3385 N   0  0  0  0  0  0  0  0  0  0  0  0
   17.6430  -25.6395   -9.3522 C   0  0  0  0  0  0  0  0  0  0  0  0
   17.5673  -25.0077  -10.7436 C   0  0  0  0  0  0  0  0  0  0  0  0
   18.8430  -24.2303  -10.9322 C   0  0  0  0  0  0  0  0  0  0  0  0
   18.9381  -23.5947  -12.2769 C   0  0  2  0  0  0  0  0  0  0  0  0
   20.1738  -22.8327  -12.4277 N   0  0  0  0  0  0  0  0  0  0  0  0
   17.7968  -22.7627  -12.6714 C   0  0  0  0  0  0  0  0  0  0  0  0
   16.7876  -23.1229  -13.5421 O   0  0  0  0  0  0  0  0  0  0  0  0
   17.7018  -21.5943  -12.1827 O   0  0  0  0  0  0  0  0  0  0  0  0
  2 12  2  0
  2  1  1  0
  3  2  1  0
  4  5  1  0
  4  3  2  0
  5 11  2  0
  6  5  1  0
  7  6  1  0
  7  8  1  1
  9 10  2  0
  9  7  1  0
 11 12  1  0
 14 13  1  6
 14 16  1  0
 15 14  1  0
 16 18  1  0
 16 17  1  6
 17  9  1  0
 18 19  2  0
 21 20  1  0
 21 23  1  0
 22 21  2  0
 23 24  1  0
 24 25  1  0
 26 25  1  0
 27 26  1  1
 28 27  1  0
 28 18  1  0
 29 27  1  0
 30 29  1  0
 31 29  2  0
M  END
$$$$
