YVR.pdb
     RDKit          3D

 31 31  0  0  1  0  0  0  0  0999 V2000
   23.9147  -18.2941  -23.8027 O   0  0  0  0  0  0  0  0  0  0  0  0
   23.7210  -18.0548  -22.4458 C   0  0  0  0  0  0  0  0  0  0  0  0
   22.7514  -18.7662  -21.7874 C   0  0  0  0  0  0  0  0  0  0  0  0
   22.5215  -18.5628  -20.4354 C   0  0  0  0  0  0  0  0  0  0  0  0
   23.2521  -17.6457  -19.7072 C   0  0  0  0  0  0  0  0  0  0  0  0
   22.9407  -17.4959  -18.2834 C   0  0  0  0  0  0  0  0  0  0  0  0
   21.5871  -16.8797  -18.0260 C   0  0  2  0  0  0  0  0  0  0  0  0
   21.4841  -15.5499  -18.5339 N   0  0  0  0  0  0  0  0  0  0  0  0
   21.2117  -17.0532  -16.6207 C   0  0  0  0  0  0  0  0  0  0  0  0
   21.6397  -16.2119  -15.7618 O   0  0  0  0  0  0  0  0  0  0  0  0
   24.2267  -16.9311  -20.3710 C   0  0  0  0  0  0  0  0  0  0  0  0
   24.4436  -17.1456  -21.7191 C   0  0  0  0  0  0  0  0  0  0  0  0
   18.1393  -18.2106  -13.0888 C   0  0  0  0  0  0  0  0  0  0  0  0
   18.5129  -18.1363  -14.5462 C   0  0  2  0  0  0  0  0  0  0  0  0
   17.8340  -19.1584  -15.3980 C   0  0  0  0  0  0  0  0  0  0  0  0
   20.0301  -18.1285  -14.7286 C   0  0  2  0  0  0  0  0  0  0  0  0
   20.3955  -18.0979  -16.1148 N   0  0  0  0  0  0  0  0  0  0  0  0
   20.5262  -19.3139  -14.0094 C   0  0  0  0  0  0  0  0  0  0  0  0
   20.2605  -20.4371  -14.5193 O   0  0  0  0  0  0  0  0  0  0  0  0
   25.7229  -23.2345  -12.3688 N   0  0  0  0  0  0  0  0  0  0  0  0
   26.2332  -21.9143  -12.4694 C   0  0  0  0  0  0  0  0  0  0  0  0
   27.0089  -21.5352  -13.4560 N   0  0  0  0  0  0  0  0  0  0  0  0
   25.9267  -20.9053  -11.4847 N   0  0  0  0  0  0  0  0  0  0  0  0
   25.0400  -21.1730  -10.3870 C   0  0  0  0  0  0  0  0  0  0  0  0
   23.6224  -21.5084  -10.8546 C   0  0  0  0  0  0  0  0  0  0  0  0
   23.1231  -20.3047  -11.6091 C   0  0  0  0  0  0  0  0  0  0  0  0
   21.7219  -20.4659  -12.0908 C   0  0  2  0  0  0  0  0  0  0  0  0
   21.2621  -19.2868  -12.8180 N   0  0  0  0  0  0  0  0  0  0  0  0
   20.7341  -20.8294  -11.0698 C   0  0  0  0  0  0  0  0  0  0  0  0
   20.2808  -22.1035  -10.7910 O   0  0  0  0  0  0  0  0  0  0  0  0
   20.2292  -19.9053  -10.3598 O   0  0  0  0  0  0  0  0  0  0  0  0
  2 12  2  0
  2  1  1  0
  3  2  1  0
  4  5  1  0
  4  3  2  0
  5 11  2  0
  6  5  1  0
  7  6  1  0
  7  8  1  1
  9 10  2  0
  9  7  1  0
 11 12  1  0
 14 13  1  1
 14 16  1  0
 15 14  1  0
 16 18  1  0
 16 17  1  6
 17  9  1  0
 18 19  2  0
 21 20  1  0
 21 23  1  0
 22 21  2  0
 23 24  1  0
 24 25  1  0
 26 25  1  0
 27 26  1  1
 28 27  1  0
 28 18  1  0
 29 27  1  0
 30 29  1  0
 31 29  2  0
M  END
$$$$
