YVR.pdb
     RDKit          3D

 31 31  0  0  1  0  0  0  0  0999 V2000
   25.5414  -15.1594  -22.8442 O   0  0  0  0  0  0  0  0  0  0  0  0
   24.9027  -15.6972  -21.7312 C   0  0  0  0  0  0  0  0  0  0  0  0
   25.3011  -16.9289  -21.2793 C   0  0  0  0  0  0  0  0  0  0  0  0
   24.6947  -17.5057  -20.1740 C   0  0  0  0  0  0  0  0  0  0  0  0
   23.6770  -16.8693  -19.4927 C   0  0  0  0  0  0  0  0  0  0  0  0
   23.0934  -17.5534  -18.3360 C   0  0  0  0  0  0  0  0  0  0  0  0
   23.5664  -17.0049  -17.0118 C   0  0  2  0  0  0  0  0  0  0  0  0
   24.9707  -17.1717  -16.8190 N   0  0  0  0  0  0  0  0  0  0  0  0
   22.7139  -17.4973  -15.9271 C   0  0  0  0  0  0  0  0  0  0  0  0
   23.1156  -18.4891  -15.2316 O   0  0  0  0  0  0  0  0  0  0  0  0
   23.2775  -15.6308  -19.9486 C   0  0  0  0  0  0  0  0  0  0  0  0
   23.8922  -15.0693  -21.0519 C   0  0  0  0  0  0  0  0  0  0  0  0
   19.1279  -16.9187  -12.5956 C   0  0  0  0  0  0  0  0  0  0  0  0
   19.7779  -16.4237  -13.8611 C   0  0  2  0  0  0  0  0  0  0  0  0
   18.8110  -15.9103  -14.8774 C   0  0  0  0  0  0  0  0  0  0  0  0
   20.7392  -17.4648  -14.4331 C   0  0  2  0  0  0  0  0  0  0  0  0
   21.4503  -16.9589  -15.5707 N   0  0  0  0  0  0  0  0  0  0  0  0
   19.9173  -18.6511  -14.7256 C   0  0  0  0  0  0  0  0  0  0  0  0
   19.2971  -18.6525  -15.8245 O   0  0  0  0  0  0  0  0  0  0  0  0
   20.9751  -26.9495  -14.4356 N   0  0  0  0  0  0  0  0  0  0  0  0
   19.5802  -26.8500  -14.6764 C   0  0  0  0  0  0  0  0  0  0  0  0
   18.8778  -27.8480  -15.1553 N   0  0  0  0  0  0  0  0  0  0  0  0
   18.8485  -25.6359  -14.4072 N   0  0  0  0  0  0  0  0  0  0  0  0
   19.5112  -24.4462  -13.9505 C   0  0  0  0  0  0  0  0  0  0  0  0
   18.5248  -23.3292  -13.6039 C   0  0  0  0  0  0  0  0  0  0  0  0
   19.3488  -22.1004  -13.3238 C   0  0  0  0  0  0  0  0  0  0  0  0
   18.9774  -20.9464  -14.1907 C   0  0  2  0  0  0  0  0  0  0  0  0
   19.7759  -19.7632  -13.8859 N   0  0  0  0  0  0  0  0  0  0  0  0
   17.5552  -20.5893  -14.2029 C   0  0  0  0  0  0  0  0  0  0  0  0
   16.6132  -21.0238  -15.1141 O   0  0  0  0  0  0  0  0  0  0  0  0
   17.1199  -19.8065  -13.3024 O   0  0  0  0  0  0  0  0  0  0  0  0
  2 12  2  0
  2  1  1  0
  3  2  1  0
  4  5  1  0
  4  3  2  0
  5 11  2  0
  6  5  1  0
  7  6  1  0
  7  8  1  1
  9 10  2  0
  9  7  1  0
 11 12  1  0
 14 13  1  1
 14 16  1  0
 15 14  1  0
 16 18  1  0
 16 17  1  6
 17  9  1  0
 18 19  2  0
 21 20  1  0
 21 23  1  0
 22 21  2  0
 23 24  1  0
 24 25  1  0
 26 25  1  0
 27 26  1  1
 28 27  1  0
 28 18  1  0
 29 27  1  0
 30 29  1  0
 31 29  2  0
M  END
$$$$
