YVR.pdb
     RDKit          3D

 31 31  0  0  1  0  0  0  0  0999 V2000
   21.4480  -14.3931  -20.0685 O   0  0  0  0  0  0  0  0  0  0  0  0
   21.3065  -15.5094  -19.2500 C   0  0  0  0  0  0  0  0  0  0  0  0
   20.8843  -15.3250  -17.9586 C   0  0  0  0  0  0  0  0  0  0  0  0
   20.7283  -16.4066  -17.1054 C   0  0  0  0  0  0  0  0  0  0  0  0
   20.9892  -17.6975  -17.5184 C   0  0  0  0  0  0  0  0  0  0  0  0
   20.7979  -18.7795  -16.5493 C   0  0  0  0  0  0  0  0  0  0  0  0
   21.9524  -18.9382  -15.5901 C   0  0  2  0  0  0  0  0  0  0  0  0
   23.1803  -19.2358  -16.2540 N   0  0  0  0  0  0  0  0  0  0  0  0
   21.5837  -19.8457  -14.5009 C   0  0  0  0  0  0  0  0  0  0  0  0
   22.1072  -21.0091  -14.4663 O   0  0  0  0  0  0  0  0  0  0  0  0
   21.4137  -17.8810  -18.8173 C   0  0  0  0  0  0  0  0  0  0  0  0
   21.5643  -16.7924  -19.6555 C   0  0  0  0  0  0  0  0  0  0  0  0
   21.1662  -18.7709  -10.6516 C   0  0  0  0  0  0  0  0  0  0  0  0
   20.0911  -19.7341  -11.0823 C   0  0  2  0  0  0  0  0  0  0  0  0
   19.6487  -20.6689  -10.0046 C   0  0  0  0  0  0  0  0  0  0  0  0
   20.4812  -20.4588  -12.3699 C   0  0  2  0  0  0  0  0  0  0  0  0
   20.6743  -19.5416  -13.4549 N   0  0  0  0  0  0  0  0  0  0  0  0
   19.4176  -21.4484  -12.6106 C   0  0  0  0  0  0  0  0  0  0  0  0
   18.3116  -21.0012  -13.0216 O   0  0  0  0  0  0  0  0  0  0  0  0
   19.8976  -30.0756  -11.7066 N   0  0  0  0  0  0  0  0  0  0  0  0
   19.6685  -29.0587  -10.7437 C   0  0  0  0  0  0  0  0  0  0  0  0
   19.9965  -29.2001   -9.4823 N   0  0  0  0  0  0  0  0  0  0  0  0
   19.0564  -27.8014  -11.0990 N   0  0  0  0  0  0  0  0  0  0  0  0
   18.4874  -27.5851  -12.3999 C   0  0  0  0  0  0  0  0  0  0  0  0
   17.8302  -26.2091  -12.5245 C   0  0  0  0  0  0  0  0  0  0  0  0
   18.9264  -25.1920  -12.3477 C   0  0  0  0  0  0  0  0  0  0  0  0
   18.4480  -23.7914  -12.5232 C   0  0  2  0  0  0  0  0  0  0  0  0
   19.5418  -22.8305  -12.4205 N   0  0  0  0  0  0  0  0  0  0  0  0
   17.3476  -23.3786  -11.6462 C   0  0  0  0  0  0  0  0  0  0  0  0
   17.4372  -23.1181  -10.2932 O   0  0  0  0  0  0  0  0  0  0  0  0
   16.1904  -23.2403  -12.1510 O   0  0  0  0  0  0  0  0  0  0  0  0
  2 12  2  0
  2  1  1  0
  3  2  1  0
  4  5  1  0
  4  3  2  0
  5 11  2  0
  6  5  1  0
  7  6  1  0
  7  8  1  6
  9 10  2  0
  9  7  1  0
 11 12  1  0
 14 13  1  1
 14 16  1  0
 15 14  1  0
 16 18  1  0
 16 17  1  6
 17  9  1  0
 18 19  2  0
 21 20  1  0
 21 23  1  0
 22 21  2  0
 23 24  1  0
 24 25  1  0
 26 25  1  0
 27 26  1  1
 28 27  1  0
 28 18  1  0
 29 27  1  0
 30 29  1  0
 31 29  2  0
M  END
$$$$
