YVR.pdb
     RDKit          3D

 31 31  0  0  1  0  0  0  0  0999 V2000
   20.8495  -10.1290    5.8748 O   0  0  0  0  0  0  0  0  0  0  0  0
   20.3843  -11.4392    5.9299 C   0  0  0  0  0  0  0  0  0  0  0  0
   19.6075  -11.9021    4.8993 C   0  0  0  0  0  0  0  0  0  0  0  0
   19.1209  -13.2002    4.9096 C   0  0  0  0  0  0  0  0  0  0  0  0
   19.3964  -14.0681    5.9469 C   0  0  0  0  0  0  0  0  0  0  0  0
   18.8399  -15.4214    5.8750 C   0  0  0  0  0  0  0  0  0  0  0  0
   17.3351  -15.4470    5.7605 C   0  0  2  0  0  0  0  0  0  0  0  0
   16.6926  -14.7236    6.8096 N   0  0  0  0  0  0  0  0  0  0  0  0
   16.8670  -16.8202    5.5572 C   0  0  0  0  0  0  0  0  0  0  0  0
   16.4559  -17.4850    6.5659 O   0  0  0  0  0  0  0  0  0  0  0  0
   20.1777  -13.6009    6.9825 C   0  0  0  0  0  0  0  0  0  0  0  0
   20.6553  -12.3041    6.9574 C   0  0  0  0  0  0  0  0  0  0  0  0
   15.3099  -18.4960    2.0474 C   0  0  0  0  0  0  0  0  0  0  0  0
   16.2990  -19.3496    2.7972 C   0  0  2  0  0  0  0  0  0  0  0  0
   16.0339  -20.8159    2.6937 C   0  0  0  0  0  0  0  0  0  0  0  0
   16.4533  -18.8776    4.2424 C   0  0  2  0  0  0  0  0  0  0  0  0
   16.8284  -17.4953    4.3096 N   0  0  0  0  0  0  0  0  0  0  0  0
   17.4314  -19.7892    4.8593 C   0  0  0  0  0  0  0  0  0  0  0  0
   18.6287  -19.3927    4.8971 O   0  0  0  0  0  0  0  0  0  0  0  0
   17.7398  -22.8043   12.7449 N   0  0  0  0  0  0  0  0  0  0  0  0
   18.8333  -23.4893   12.1544 C   0  0  0  0  0  0  0  0  0  0  0  0
   19.6491  -24.2419   12.8521 N   0  0  0  0  0  0  0  0  0  0  0  0
   19.1134  -23.3963   10.7421 N   0  0  0  0  0  0  0  0  0  0  0  0
   18.3242  -22.5682    9.8736 C   0  0  0  0  0  0  0  0  0  0  0  0
   18.7346  -22.7091    8.4065 C   0  0  0  0  0  0  0  0  0  0  0  0
   17.8070  -21.8261    7.6145 C   0  0  0  0  0  0  0  0  0  0  0  0
   18.0718  -21.8785    6.1487 C   0  0  2  0  0  0  0  0  0  0  0  0
   17.1345  -21.0464    5.4007 N   0  0  0  0  0  0  0  0  0  0  0  0
   18.1191  -23.2192    5.5564 C   0  0  0  0  0  0  0  0  0  0  0  0
   19.1825  -24.0980    5.6120 O   0  0  0  0  0  0  0  0  0  0  0  0
   17.0998  -23.6384    4.9252 O   0  0  0  0  0  0  0  0  0  0  0  0
  2 12  2  0
  2  1  1  0
  3  2  1  0
  4  5  1  0
  4  3  2  0
  5 11  2  0
  6  5  1  0
  7  6  1  0
  7  8  1  1
  9 10  2  0
  9  7  1  0
 11 12  1  0
 14 13  1  1
 14 16  1  0
 15 14  1  0
 16 18  1  0
 16 17  1  6
 17  9  1  0
 18 19  2  0
 21 20  1  0
 21 23  1  0
 22 21  2  0
 23 24  1  0
 24 25  1  0
 26 25  1  0
 27 26  1  1
 28 27  1  0
 28 18  1  0
 29 27  1  0
 30 29  1  0
 31 29  2  0
M  END
$$$$
