YVR.pdb
     RDKit          3D

 31 31  0  0  1  0  0  0  0  0999 V2000
   25.5329  -15.6225  -21.1886 O   0  0  0  0  0  0  0  0  0  0  0  0
   25.5987  -16.6527  -20.2557 C   0  0  0  0  0  0  0  0  0  0  0  0
   24.9363  -17.8226  -20.5244 C   0  0  0  0  0  0  0  0  0  0  0  0
   24.9726  -18.8773  -19.6254 C   0  0  0  0  0  0  0  0  0  0  0  0
   25.6697  -18.7917  -18.4372 C   0  0  0  0  0  0  0  0  0  0  0  0
   25.6528  -19.9549  -17.5467 C   0  0  0  0  0  0  0  0  0  0  0  0
   27.0301  -20.4593  -17.1908 C   0  0  2  0  0  0  0  0  0  0  0  0
   27.5772  -21.3148  -18.1936 N   0  0  0  0  0  0  0  0  0  0  0  0
   27.0356  -20.9951  -15.8274 C   0  0  0  0  0  0  0  0  0  0  0  0
   26.8263  -22.2423  -15.6564 O   0  0  0  0  0  0  0  0  0  0  0  0
   26.3353  -17.6143  -18.1686 C   0  0  0  0  0  0  0  0  0  0  0  0
   26.2893  -16.5721  -19.0752 C   0  0  0  0  0  0  0  0  0  0  0  0
   28.0534  -18.8666  -12.1093 C   0  0  0  0  0  0  0  0  0  0  0  0
   28.2654  -20.3256  -12.4182 C   0  0  2  0  0  0  0  0  0  0  0  0
   29.6467  -20.6511  -12.8843 C   0  0  0  0  0  0  0  0  0  0  0  0
   27.1841  -20.8546  -13.3595 C   0  0  2  0  0  0  0  0  0  0  0  0
   27.2575  -20.2345  -14.6502 N   0  0  0  0  0  0  0  0  0  0  0  0
   25.9047  -20.6321  -12.6652 C   0  0  0  0  0  0  0  0  0  0  0  0
   25.2467  -19.6106  -13.0056 O   0  0  0  0  0  0  0  0  0  0  0  0
   19.9823  -21.6396   -7.3423 N   0  0  0  0  0  0  0  0  0  0  0  0
   20.8452  -22.4745   -6.5860 C   0  0  0  0  0  0  0  0  0  0  0  0
   20.4111  -23.2248   -5.6025 N   0  0  0  0  0  0  0  0  0  0  0  0
   22.2606  -22.5462   -6.8566 N   0  0  0  0  0  0  0  0  0  0  0  0
   22.8826  -21.6926   -7.8300 C   0  0  0  0  0  0  0  0  0  0  0  0
   22.5109  -22.0792   -9.2629 C   0  0  0  0  0  0  0  0  0  0  0  0
   23.8064  -22.3050   -9.9965 C   0  0  0  0  0  0  0  0  0  0  0  0
   24.1535  -21.1827  -10.9137 C   0  0  2  0  0  0  0  0  0  0  0  0
   25.3711  -21.4599  -11.6694 N   0  0  0  0  0  0  0  0  0  0  0  0
   24.2520  -19.8581  -10.2924 C   0  0  0  0  0  0  0  0  0  0  0  0
   23.2387  -18.9250  -10.1970 O   0  0  0  0  0  0  0  0  0  0  0  0
   25.3630  -19.5078   -9.7866 O   0  0  0  0  0  0  0  0  0  0  0  0
  2 12  2  0
  2  1  1  0
  3  2  1  0
  4  5  1  0
  4  3  2  0
  5 11  2  0
  6  5  1  0
  7  6  1  0
  7  8  1  6
  9 10  2  0
  9  7  1  0
 11 12  1  0
 14 13  1  6
 14 16  1  0
 15 14  1  0
 16 18  1  0
 16 17  1  6
 17  9  1  0
 18 19  2  0
 21 20  1  0
 21 23  1  0
 22 21  2  0
 23 24  1  0
 24 25  1  0
 26 25  1  0
 27 26  1  1
 28 27  1  0
 28 18  1  0
 29 27  1  0
 30 29  1  0
 31 29  2  0
M  END
$$$$
