YVR.pdb
     RDKit          3D

 31 31  0  0  1  0  0  0  0  0999 V2000
   15.8633  -14.9609  -14.7070 O   0  0  0  0  0  0  0  0  0  0  0  0
   16.9875  -15.7789  -14.7627 C   0  0  0  0  0  0  0  0  0  0  0  0
   16.9092  -17.0371  -14.2236 C   0  0  0  0  0  0  0  0  0  0  0  0
   18.0029  -17.8884  -14.2553 C   0  0  0  0  0  0  0  0  0  0  0  0
   19.2008  -17.5066  -14.8249 C   0  0  0  0  0  0  0  0  0  0  0  0
   20.3040  -18.4706  -14.8132 C   0  0  0  0  0  0  0  0  0  0  0  0
   20.4322  -19.2526  -16.0977 C   0  0  2  0  0  0  0  0  0  0  0  0
   19.3547  -20.1680  -16.2927 N   0  0  0  0  0  0  0  0  0  0  0  0
   21.7772  -19.8222  -16.2106 C   0  0  0  0  0  0  0  0  0  0  0  0
   22.0345  -20.9154  -15.6046 O   0  0  0  0  0  0  0  0  0  0  0  0
   19.2778  -16.2409  -15.3666 C   0  0  0  0  0  0  0  0  0  0  0  0
   18.1784  -15.4042  -15.3270 C   0  0  0  0  0  0  0  0  0  0  0  0
   24.1751  -19.7040  -19.5270 C   0  0  0  0  0  0  0  0  0  0  0  0
   24.9201  -19.4566  -18.2413 C   0  0  2  0  0  0  0  0  0  0  0  0
   26.3177  -19.9840  -18.2405 C   0  0  0  0  0  0  0  0  0  0  0  0
   24.1105  -19.9267  -17.0335 C   0  0  2  0  0  0  0  0  0  0  0  0
   22.8467  -19.2546  -16.9505 N   0  0  0  0  0  0  0  0  0  0  0  0
   24.9764  -19.7107  -15.8622 C   0  0  0  0  0  0  0  0  0  0  0  0
   25.1241  -18.5171  -15.4804 O   0  0  0  0  0  0  0  0  0  0  0  0
   23.8507  -20.8665   -8.2017 N   0  0  0  0  0  0  0  0  0  0  0  0
   23.5103  -20.7368   -9.5731 C   0  0  0  0  0  0  0  0  0  0  0  0
   22.2747  -20.5646   -9.9761 N   0  0  0  0  0  0  0  0  0  0  0  0
   24.5110  -20.7880  -10.6113 N   0  0  0  0  0  0  0  0  0  0  0  0
   25.9043  -20.9509  -10.3031 C   0  0  0  0  0  0  0  0  0  0  0  0
   26.7922  -20.8176  -11.5418 C   0  0  0  0  0  0  0  0  0  0  0  0
   25.8912  -20.9872  -12.7363 C   0  0  0  0  0  0  0  0  0  0  0  0
   26.5103  -20.4974  -14.0004 C   0  0  2  0  0  0  0  0  0  0  0  0
   25.6382  -20.7188  -15.1498 N   0  0  0  0  0  0  0  0  0  0  0  0
   27.8514  -21.0121  -14.2953 C   0  0  0  0  0  0  0  0  0  0  0  0
   29.0355  -20.5658  -13.7430 O   0  0  0  0  0  0  0  0  0  0  0  0
   27.9658  -21.9576  -15.1355 O   0  0  0  0  0  0  0  0  0  0  0  0
  2 12  2  0
  2  1  1  0
  3  2  1  0
  4  5  1  0
  4  3  2  0
  5 11  2  0
  6  5  1  0
  7  6  1  0
  7  8  1  1
  9 10  2  0
  9  7  1  0
 11 12  1  0
 14 13  1  6
 14 16  1  0
 15 14  1  0
 16 18  1  0
 16 17  1  1
 17  9  1  0
 18 19  2  0
 21 20  1  0
 21 23  1  0
 22 21  2  0
 23 24  1  0
 24 25  1  0
 26 25  1  0
 27 26  1  1
 28 27  1  0
 28 18  1  0
 29 27  1  0
 30 29  1  0
 31 29  2  0
M  END
$$$$
