YVR.pdb
     RDKit          3D

 31 31  0  0  1  0  0  0  0  0999 V2000
   33.0399  -14.4132  -24.1523 O   0  0  0  0  0  0  0  0  0  0  0  0
   33.0900  -13.4822  -23.1195 C   0  0  0  0  0  0  0  0  0  0  0  0
   31.9629  -12.7532  -22.8401 C   0  0  0  0  0  0  0  0  0  0  0  0
   31.9641  -11.8140  -21.8203 C   0  0  0  0  0  0  0  0  0  0  0  0
   33.0882  -11.5786  -21.0547 C   0  0  0  0  0  0  0  0  0  0  0  0
   32.9992  -10.5670  -19.9986 C   0  0  0  0  0  0  0  0  0  0  0  0
   32.9934  -11.1505  -18.6066 C   0  0  2  0  0  0  0  0  0  0  0  0
   31.9145  -12.0612  -18.3979 N   0  0  0  0  0  0  0  0  0  0  0  0
   33.1256  -10.0841  -17.6110 C   0  0  0  0  0  0  0  0  0  0  0  0
   32.0769   -9.6644  -17.0171 O   0  0  0  0  0  0  0  0  0  0  0  0
   34.2207  -12.3126  -21.3371 C   0  0  0  0  0  0  0  0  0  0  0  0
   34.2033  -13.2453  -22.3570 C   0  0  0  0  0  0  0  0  0  0  0  0
   35.8463   -9.8756  -14.7542 C   0  0  0  0  0  0  0  0  0  0  0  0
   35.6612   -8.5248  -15.3946 C   0  0  2  0  0  0  0  0  0  0  0  0
   35.8004   -7.3804  -14.4448 C   0  0  0  0  0  0  0  0  0  0  0  0
   34.3650   -8.4682  -16.2020 C   0  0  2  0  0  0  0  0  0  0  0  0
   34.3438   -9.4595  -17.2377 N   0  0  0  0  0  0  0  0  0  0  0  0
   34.2632   -7.0862  -16.7001 C   0  0  0  0  0  0  0  0  0  0  0  0
   35.0863   -6.7451  -17.5936 O   0  0  0  0  0  0  0  0  0  0  0  0
   28.7640   -3.5448  -21.3953 N   0  0  0  0  0  0  0  0  0  0  0  0
   30.0813   -4.0600  -21.5094 C   0  0  0  0  0  0  0  0  0  0  0  0
   30.5327   -4.5927  -22.6189 N   0  0  0  0  0  0  0  0  0  0  0  0
   31.0068   -4.0282  -20.4029 N   0  0  0  0  0  0  0  0  0  0  0  0
   30.7335   -3.2641  -19.2179 C   0  0  0  0  0  0  0  0  0  0  0  0
   31.9235   -3.2384  -18.2566 C   0  0  0  0  0  0  0  0  0  0  0  0
   32.0950   -4.6452  -17.7480 C   0  0  0  0  0  0  0  0  0  0  0  0
   33.2189   -4.7751  -16.7777 C   0  0  2  0  0  0  0  0  0  0  0  0
   33.3323   -6.1359  -16.2620 N   0  0  0  0  0  0  0  0  0  0  0  0
   33.2101   -3.8256  -15.6603 C   0  0  0  0  0  0  0  0  0  0  0  0
   33.4203   -2.4637  -15.7461 O   0  0  0  0  0  0  0  0  0  0  0  0
   32.9922   -4.2694  -14.4904 O   0  0  0  0  0  0  0  0  0  0  0  0
  2 12  2  0
  2  1  1  0
  3  2  1  0
  4  5  1  0
  4  3  2  0
  5 11  2  0
  6  5  1  0
  7  6  1  0
  7  8  1  1
  9 10  2  0
  9  7  1  0
 11 12  1  0
 14 13  1  1
 14 16  1  0
 15 14  1  0
 16 18  1  0
 16 17  1  6
 17  9  1  0
 18 19  2  0
 21 20  1  0
 21 23  1  0
 22 21  2  0
 23 24  1  0
 24 25  1  0
 26 25  1  0
 27 26  1  1
 28 27  1  0
 28 18  1  0
 29 27  1  0
 30 29  1  0
 31 29  2  0
M  END
$$$$
