YVR.pdb
     RDKit          3D

 31 31  0  0  1  0  0  0  0  0999 V2000
   29.2195  -14.1981  -17.2966 O   0  0  0  0  0  0  0  0  0  0  0  0
   28.5550  -15.3222  -16.8162 C   0  0  0  0  0  0  0  0  0  0  0  0
   28.2037  -15.3587  -15.4914 C   0  0  0  0  0  0  0  0  0  0  0  0
   27.5403  -16.4572  -14.9667 C   0  0  0  0  0  0  0  0  0  0  0  0
   27.2112  -17.5455  -15.7493 C   0  0  0  0  0  0  0  0  0  0  0  0
   26.5110  -18.6628  -15.1107 C   0  0  0  0  0  0  0  0  0  0  0  0
   27.4392  -19.7199  -14.5639 C   0  0  2  0  0  0  0  0  0  0  0  0
   28.2747  -20.2905  -15.5706 N   0  0  0  0  0  0  0  0  0  0  0  0
   26.6902  -20.6754  -13.7442 C   0  0  0  0  0  0  0  0  0  0  0  0
   26.0736  -21.6311  -14.3232 O   0  0  0  0  0  0  0  0  0  0  0  0
   27.5655  -17.5071  -17.0813 C   0  0  0  0  0  0  0  0  0  0  0  0
   28.2265  -16.4046  -17.5891 C   0  0  0  0  0  0  0  0  0  0  0  0
   25.4126  -19.7560   -9.6634 C   0  0  0  0  0  0  0  0  0  0  0  0
   25.6124  -21.1693  -10.1447 C   0  0  2  0  0  0  0  0  0  0  0  0
   26.8606  -21.8118   -9.6346 C   0  0  0  0  0  0  0  0  0  0  0  0
   25.4797  -21.2601  -11.6644 C   0  0  2  0  0  0  0  0  0  0  0  0
   26.5846  -20.6338  -12.3297 N   0  0  0  0  0  0  0  0  0  0  0  0
   24.1740  -20.6616  -11.9890 C   0  0  0  0  0  0  0  0  0  0  0  0
   24.1930  -19.5885  -12.6525 O   0  0  0  0  0  0  0  0  0  0  0  0
   22.5035  -27.0571  -15.6311 N   0  0  0  0  0  0  0  0  0  0  0  0
   23.1716  -25.8191  -15.8172 C   0  0  0  0  0  0  0  0  0  0  0  0
   24.3456  -25.7353  -16.3947 N   0  0  0  0  0  0  0  0  0  0  0  0
   22.5944  -24.5719  -15.3780 N   0  0  0  0  0  0  0  0  0  0  0  0
   21.2907  -24.5188  -14.7776 C   0  0  0  0  0  0  0  0  0  0  0  0
   20.9666  -23.1332  -14.2155 C   0  0  0  0  0  0  0  0  0  0  0  0
   22.0727  -22.7908  -13.2529 C   0  0  0  0  0  0  0  0  0  0  0  0
   21.8445  -21.4978  -12.5477 C   0  0  2  0  0  0  0  0  0  0  0  0
   22.9296  -21.1891  -11.6215 N   0  0  0  0  0  0  0  0  0  0  0  0
   20.5574  -21.3660  -11.8575 C   0  0  0  0  0  0  0  0  0  0  0  0
   19.4056  -20.8114  -12.3793 O   0  0  0  0  0  0  0  0  0  0  0  0
   20.4634  -21.7926  -10.6650 O   0  0  0  0  0  0  0  0  0  0  0  0
  2 12  2  0
  2  1  1  0
  3  2  1  0
  4  5  1  0
  4  3  2  0
  5 11  2  0
  6  5  1  0
  7  6  1  0
  7  8  1  6
  9 10  2  0
  9  7  1  0
 11 12  1  0
 14 13  1  6
 14 16  1  0
 15 14  1  0
 16 18  1  0
 16 17  1  6
 17  9  1  0
 18 19  2  0
 21 20  1  0
 21 23  1  0
 22 21  2  0
 23 24  1  0
 24 25  1  0
 26 25  1  0
 27 26  1  1
 28 27  1  0
 28 18  1  0
 29 27  1  0
 30 29  1  0
 31 29  2  0
M  END
$$$$
