YVR.pdb
     RDKit          3D

 31 31  0  0  1  0  0  0  0  0999 V2000
   19.0317  -23.0323  -11.8357 O   0  0  0  0  0  0  0  0  0  0  0  0
   18.5538  -23.5337  -10.6289 C   0  0  0  0  0  0  0  0  0  0  0  0
   19.4393  -23.7126   -9.5976 C   0  0  0  0  0  0  0  0  0  0  0  0
   19.0102  -24.2094   -8.3765 C   0  0  0  0  0  0  0  0  0  0  0  0
   17.6887  -24.5398   -8.1537 C   0  0  0  0  0  0  0  0  0  0  0  0
   17.3247  -25.0586   -6.8328 C   0  0  0  0  0  0  0  0  0  0  0  0
   17.9028  -26.4224   -6.5428 C   0  0  2  0  0  0  0  0  0  0  0  0
   17.6480  -27.3600   -7.5882 N   0  0  0  0  0  0  0  0  0  0  0  0
   17.5246  -26.8556   -5.1955 C   0  0  0  0  0  0  0  0  0  0  0  0
   16.3772  -27.3859   -5.0199 O   0  0  0  0  0  0  0  0  0  0  0  0
   16.7996  -24.3593   -9.1920 C   0  0  0  0  0  0  0  0  0  0  0  0
   17.2432  -23.8630  -10.4033 C   0  0  0  0  0  0  0  0  0  0  0  0
   19.8850  -26.4009   -1.5149 C   0  0  0  0  0  0  0  0  0  0  0  0
   18.9938  -27.5734   -1.8310 C   0  0  2  0  0  0  0  0  0  0  0  0
   19.7295  -28.7797   -2.3154 C   0  0  0  0  0  0  0  0  0  0  0  0
   17.8514  -27.1653   -2.7603 C   0  0  2  0  0  0  0  0  0  0  0  0
   18.3380  -26.7360   -4.0389 N   0  0  0  0  0  0  0  0  0  0  0  0
   17.0947  -26.1312   -2.0348 C   0  0  0  0  0  0  0  0  0  0  0  0
   16.8209  -25.0780   -2.6736 O   0  0  0  0  0  0  0  0  0  0  0  0
   12.0920  -21.0095   -2.6443 N   0  0  0  0  0  0  0  0  0  0  0  0
   11.3985  -21.5068   -1.5105 C   0  0  0  0  0  0  0  0  0  0  0  0
   10.3217  -20.9281   -1.0370 N   0  0  0  0  0  0  0  0  0  0  0  0
   11.8417  -22.6862   -0.8073 N   0  0  0  0  0  0  0  0  0  0  0  0
   12.9875  -23.4340   -1.2441 C   0  0  0  0  0  0  0  0  0  0  0  0
   13.2098  -24.6961   -0.4085 C   0  0  0  0  0  0  0  0  0  0  0  0
   14.3811  -25.4165   -1.0220 C   0  0  0  0  0  0  0  0  0  0  0  0
   15.5689  -25.4576   -0.1227 C   0  0  2  0  0  0  0  0  0  0  0  0
   16.6616  -26.2295   -0.7065 N   0  0  0  0  0  0  0  0  0  0  0  0
   15.3173  -25.9201    1.2459 C   0  0  0  0  0  0  0  0  0  0  0  0
   15.0710  -25.1206    2.3443 O   0  0  0  0  0  0  0  0  0  0  0  0
   15.3213  -27.1697    1.4730 O   0  0  0  0  0  0  0  0  0  0  0  0
  2 12  2  0
  2  1  1  0
  3  2  1  0
  4  5  1  0
  4  3  2  0
  5 11  2  0
  6  5  1  0
  7  6  1  0
  7  8  1  6
  9 10  2  0
  9  7  1  0
 11 12  1  0
 14 13  1  6
 14 16  1  0
 15 14  1  0
 16 18  1  0
 16 17  1  6
 17  9  1  0
 18 19  2  0
 21 20  1  0
 21 23  1  0
 22 21  2  0
 23 24  1  0
 24 25  1  0
 26 25  1  0
 27 26  1  6
 28 27  1  0
 28 18  1  0
 29 27  1  0
 30 29  1  0
 31 29  2  0
M  END
$$$$
