YVR.pdb
     RDKit          3D

 31 31  0  0  1  0  0  0  0  0999 V2000
   29.0433  -15.3316  -17.8750 O   0  0  0  0  0  0  0  0  0  0  0  0
   28.4198  -16.3223  -17.1228 C   0  0  0  0  0  0  0  0  0  0  0  0
   28.0541  -16.0328  -15.8335 C   0  0  0  0  0  0  0  0  0  0  0  0
   27.4302  -16.9874  -15.0451 C   0  0  0  0  0  0  0  0  0  0  0  0
   27.1557  -18.2531  -15.5223 C   0  0  0  0  0  0  0  0  0  0  0  0
   26.4943  -19.1981  -14.6191 C   0  0  0  0  0  0  0  0  0  0  0  0
   27.4508  -20.1418  -13.9315 C   0  0  2  0  0  0  0  0  0  0  0  0
   28.1588  -20.9721  -14.8514 N   0  0  0  0  0  0  0  0  0  0  0  0
   26.7721  -20.8412  -12.8378 C   0  0  0  0  0  0  0  0  0  0  0  0
   26.1185  -21.9053  -13.1007 O   0  0  0  0  0  0  0  0  0  0  0  0
   27.5242  -18.5425  -16.8191 C   0  0  0  0  0  0  0  0  0  0  0  0
   28.1454  -17.5798  -17.5923 C   0  0  0  0  0  0  0  0  0  0  0  0
   27.3612  -20.6740   -8.6498 C   0  0  0  0  0  0  0  0  0  0  0  0
   25.9789  -20.3643   -9.1620 C   0  0  2  0  0  0  0  0  0  0  0  0
   24.8840  -20.7561   -8.2244 C   0  0  0  0  0  0  0  0  0  0  0  0
   25.7749  -20.9164  -10.5723 C   0  0  2  0  0  0  0  0  0  0  0  0
   26.7751  -20.4329  -11.4788 N   0  0  0  0  0  0  0  0  0  0  0  0
   24.4008  -20.5477  -10.9520 C   0  0  0  0  0  0  0  0  0  0  0  0
   24.2205  -19.3607  -11.3404 O   0  0  0  0  0  0  0  0  0  0  0  0
   17.8104  -23.9704  -13.8291 N   0  0  0  0  0  0  0  0  0  0  0  0
   17.7101  -22.9000  -14.7553 C   0  0  0  0  0  0  0  0  0  0  0  0
   16.5751  -22.5633  -15.3183 N   0  0  0  0  0  0  0  0  0  0  0  0
   18.8596  -22.1149  -15.1348 N   0  0  0  0  0  0  0  0  0  0  0  0
   20.1408  -22.3131  -14.5165 C   0  0  0  0  0  0  0  0  0  0  0  0
   20.2824  -21.5290  -13.2104 C   0  0  0  0  0  0  0  0  0  0  0  0
   21.6761  -21.7884  -12.7028 C   0  0  0  0  0  0  0  0  0  0  0  0
   21.9653  -21.0809  -11.4233 C   0  0  2  0  0  0  0  0  0  0  0  0
   23.2945  -21.4059  -10.9152 N   0  0  0  0  0  0  0  0  0  0  0  0
   20.9746  -21.2600  -10.3571 C   0  0  0  0  0  0  0  0  0  0  0  0
   21.0700  -22.1365   -9.2945 O   0  0  0  0  0  0  0  0  0  0  0  0
   19.9177  -20.5565  -10.3883 O   0  0  0  0  0  0  0  0  0  0  0  0
  2 12  2  0
  2  1  1  0
  3  2  1  0
  4  5  1  0
  4  3  2  0
  5 11  2  0
  6  5  1  0
  7  6  1  0
  7  8  1  6
  9 10  2  0
  9  7  1  0
 11 12  1  0
 14 13  1  1
 14 16  1  0
 15 14  1  0
 16 18  1  0
 16 17  1  6
 17  9  1  0
 18 19  2  0
 21 20  1  0
 21 23  1  0
 22 21  2  0
 23 24  1  0
 24 25  1  0
 26 25  1  0
 27 26  1  6
 28 27  1  0
 28 18  1  0
 29 27  1  0
 30 29  1  0
 31 29  2  0
M  END
$$$$
