FMC.pdb
     RDKit          3D

 26 26  0  0  1  0  0  0  0  0999 V2000
    5.8652  -18.1049   25.5118 N   0  0  0  0  0  0  0  0  0  0  0  0
    6.2508  -16.7190   25.3695 C   0  0  1  0  0  0  0  0  0  0  0  0
    6.7719  -16.1908   26.6701 C   0  0  0  0  0  0  0  0  0  0  0  0
    6.9434  -14.7245   26.5324 C   0  0  0  0  0  0  0  0  0  0  0  0
    8.2239  -14.2184   26.5978 C   0  0  0  0  0  0  0  0  0  0  0  0
    8.4895  -12.8661   26.4809 C   0  0  0  0  0  0  0  0  0  0  0  0
    7.4375  -11.9927   26.2924 C   0  0  0  0  0  0  0  0  0  0  0  0
    6.1387  -12.4707   26.2223 C   0  0  0  0  0  0  0  0  0  0  0  0
    5.9081  -13.8360   26.3438 C   0  0  0  0  0  0  0  0  0  0  0  0
    7.1910  -16.5919   24.2488 C   0  0  0  0  0  0  0  0  0  0  0  0
    8.0606  -17.5070   24.1020 O   0  0  0  0  0  0  0  0  0  0  0  0
    7.5460  -11.4920   19.6554 C   0  0  0  0  0  0  0  0  0  0  0  0
    7.6243  -13.1100   18.8675 S   0  0  0  0  0  0  0  0  0  0  0  0
    8.3397  -14.3141   20.0015 C   0  0  0  0  0  0  0  0  0  0  0  0
    7.6473  -14.4538   21.3091 C   0  0  0  0  0  0  0  0  0  0  0  0
    8.1490  -15.5349   22.1653 C   0  0  2  0  0  0  0  0  0  0  0  0
    7.2158  -15.5520   23.3262 N   0  0  0  0  0  0  0  0  0  0  0  0
    9.4658  -15.5083   22.7375 C   0  0  0  0  0  0  0  0  0  0  0  0
    9.6896  -14.9716   23.8463 O   0  0  0  0  0  0  0  0  0  0  0  0
   10.6242  -16.0825   22.1049 N   0  0  0  0  0  0  0  0  0  0  0  0
   11.9674  -15.8977   22.5929 C   0  0  1  0  0  0  0  0  0  0  0  0
   12.0425  -16.4818   23.9871 C   0  0  0  0  0  0  0  0  0  0  0  0
   11.2341  -18.1056   23.9690 S   0  0  0  0  0  0  0  0  0  0  0  0
   12.9726  -16.5078   21.6915 C   0  0  0  0  0  0  0  0  0  0  0  0
   14.3118  -16.4554   22.0513 O   0  0  0  0  0  0  0  0  0  0  0  0
   12.5606  -17.0491   20.6336 O   0  0  0  0  0  0  0  0  0  0  0  0
  2  1  1  1
  3  2  1  0
  3  4  1  0
  4  5  2  0
  5  6  1  0
  7  6  2  0
  8  7  1  0
  9  4  1  0
  9  8  2  0
 10  2  1  0
 10 11  2  0
 12 13  1  0
 14 15  1  0
 14 13  1  0
 16 15  1  6
 16 18  1  0
 16 17  1  0
 17 10  1  0
 18 20  1  0
 19 18  2  0
 20 21  1  0
 21 24  1  0
 21 22  1  1
 23 22  1  0
 24 26  2  0
 24 25  1  0
M  END
$$$$
