FMC.pdb
     RDKit          3D

 26 26  0  0  1  0  0  0  0  0999 V2000
    7.2826  -18.8173   26.4715 N   0  0  0  0  0  0  0  0  0  0  0  0
    7.8300  -17.4794   26.4691 C   0  0  1  0  0  0  0  0  0  0  0  0
    9.0852  -17.4324   27.2842 C   0  0  0  0  0  0  0  0  0  0  0  0
    9.2721  -16.0394   27.7563 C   0  0  0  0  0  0  0  0  0  0  0  0
    9.9706  -15.8467   28.9288 C   0  0  0  0  0  0  0  0  0  0  0  0
   10.1987  -14.5872   29.4531 C   0  0  0  0  0  0  0  0  0  0  0  0
    9.7108  -13.4852   28.7803 C   0  0  0  0  0  0  0  0  0  0  0  0
    9.0046  -13.6462   27.5989 C   0  0  0  0  0  0  0  0  0  0  0  0
    8.7939  -14.9266   27.1007 C   0  0  0  0  0  0  0  0  0  0  0  0
    7.9967  -17.0283   25.0817 C   0  0  0  0  0  0  0  0  0  0  0  0
    8.5367  -17.8340   24.2606 O   0  0  0  0  0  0  0  0  0  0  0  0
    8.0353  -12.6821   19.1597 C   0  0  0  0  0  0  0  0  0  0  0  0
    8.2616  -13.7207   20.6140 S   0  0  0  0  0  0  0  0  0  0  0  0
    6.7403  -13.7707   21.5788 C   0  0  0  0  0  0  0  0  0  0  0  0
    6.8828  -14.2557   22.9764 C   0  0  0  0  0  0  0  0  0  0  0  0
    7.7428  -15.4334   23.1406 C   0  0  2  0  0  0  0  0  0  0  0  0
    7.6137  -15.7888   24.5814 N   0  0  0  0  0  0  0  0  0  0  0  0
    9.1552  -15.3903   22.8856 C   0  0  0  0  0  0  0  0  0  0  0  0
    9.9302  -14.7082   23.5938 O   0  0  0  0  0  0  0  0  0  0  0  0
    9.7971  -16.1100   21.8170 N   0  0  0  0  0  0  0  0  0  0  0  0
   11.2028  -16.0002   21.5195 C   0  0  1  0  0  0  0  0  0  0  0  0
   11.9753  -16.4682   22.7339 C   0  0  0  0  0  0  0  0  0  0  0  0
   11.3121  -18.0770   23.2461 S   0  0  0  0  0  0  0  0  0  0  0  0
   11.5738  -16.7685   20.3082 C   0  0  0  0  0  0  0  0  0  0  0  0
   12.8830  -16.7062   19.8525 O   0  0  0  0  0  0  0  0  0  0  0  0
   10.6764  -17.4468   19.7455 O   0  0  0  0  0  0  0  0  0  0  0  0
  2  1  1  6
  3  2  1  0
  3  4  1  0
  4  5  2  0
  5  6  1  0
  7  6  2  0
  8  7  1  0
  9  4  1  0
  9  8  2  0
 10  2  1  0
 10 11  2  0
 12 13  1  0
 14 15  1  0
 14 13  1  0
 16 15  1  1
 16 18  1  0
 16 17  1  0
 17 10  1  0
 18 20  1  0
 19 18  2  0
 20 21  1  0
 21 24  1  0
 21 22  1  1
 23 22  1  0
 24 26  2  0
 24 25  1  0
M  END
$$$$
