FMC.pdb
     RDKit          3D

 26 26  0  0  1  0  0  0  0  0999 V2000
    5.9129  -18.0910   25.3393 N   0  0  0  0  0  0  0  0  0  0  0  0
    6.3315  -16.7077   25.3101 C   0  0  1  0  0  0  0  0  0  0  0  0
    6.7382  -16.2611   26.6802 C   0  0  0  0  0  0  0  0  0  0  0  0
    6.8866  -14.7861   26.6552 C   0  0  0  0  0  0  0  0  0  0  0  0
    8.1593  -14.2666   26.7566 C   0  0  0  0  0  0  0  0  0  0  0  0
    8.4036  -12.9052   26.7433 C   0  0  0  0  0  0  0  0  0  0  0  0
    7.3376  -12.0365   26.6247 C   0  0  0  0  0  0  0  0  0  0  0  0
    6.0461  -12.5280   26.5209 C   0  0  0  0  0  0  0  0  0  0  0  0
    5.8371  -13.9021   26.5376 C   0  0  0  0  0  0  0  0  0  0  0  0
    7.3731  -16.5398   24.2889 C   0  0  0  0  0  0  0  0  0  0  0  0
    8.2861  -17.4217   24.2273 O   0  0  0  0  0  0  0  0  0  0  0  0
    6.6135  -12.4023   19.5049 C   0  0  0  0  0  0  0  0  0  0  0  0
    8.1130  -13.1779   18.8767 S   0  0  0  0  0  0  0  0  0  0  0  0
    8.7658  -14.3346   20.0948 C   0  0  0  0  0  0  0  0  0  0  0  0
    7.9796  -14.4554   21.3502 C   0  0  0  0  0  0  0  0  0  0  0  0
    8.4932  -15.4368   22.3128 C   0  0  2  0  0  0  0  0  0  0  0  0
    7.4512  -15.4942   23.3757 N   0  0  0  0  0  0  0  0  0  0  0  0
    9.7349  -15.2476   23.0088 C   0  0  0  0  0  0  0  0  0  0  0  0
    9.7771  -14.7322   24.1490 O   0  0  0  0  0  0  0  0  0  0  0  0
   11.0170  -15.6236   22.4733 N   0  0  0  0  0  0  0  0  0  0  0  0
   12.0970  -16.1285   23.2828 C   0  0  1  0  0  0  0  0  0  0  0  0
   11.6115  -17.3800   23.9817 C   0  0  0  0  0  0  0  0  0  0  0  0
   12.2831  -17.3887   25.6668 S   0  0  0  0  0  0  0  0  0  0  0  0
   13.3147  -16.3900   22.4802 C   0  0  0  0  0  0  0  0  0  0  0  0
   14.5261  -15.8723   22.9162 O   0  0  0  0  0  0  0  0  0  0  0  0
   13.1914  -17.0750   21.4325 O   0  0  0  0  0  0  0  0  0  0  0  0
  2  1  1  1
  3  2  1  0
  3  4  1  0
  4  5  2  0
  5  6  1  0
  7  6  2  0
  8  7  1  0
  9  4  1  0
  9  8  2  0
 10  2  1  0
 10 11  2  0
 12 13  1  0
 14 15  1  0
 14 13  1  0
 16 15  1  6
 16 18  1  0
 16 17  1  0
 17 10  1  0
 18 20  1  0
 19 18  2  0
 20 21  1  0
 21 24  1  0
 21 22  1  6
 23 22  1  0
 24 26  2  0
 24 25  1  0
M  END
$$$$
