FMC.pdb
     RDKit          3D

 26 26  0  0  1  0  0  0  0  0999 V2000
    6.3621  -17.9143   21.5594 N   0  0  0  0  0  0  0  0  0  0  0  0
    6.9943  -16.6161   21.4917 C   0  0  1  0  0  0  0  0  0  0  0  0
    6.2945  -15.7515   20.4893 C   0  0  0  0  0  0  0  0  0  0  0  0
    7.1661  -14.5870   20.2021 C   0  0  0  0  0  0  0  0  0  0  0  0
    6.7230  -13.3412   20.5913 C   0  0  0  0  0  0  0  0  0  0  0  0
    7.4613  -12.1929   20.3693 C   0  0  0  0  0  0  0  0  0  0  0  0
    8.6836  -12.2967   19.7365 C   0  0  0  0  0  0  0  0  0  0  0  0
    9.1566  -13.5352   19.3331 C   0  0  0  0  0  0  0  0  0  0  0  0
    8.3883  -14.6685   19.5723 C   0  0  0  0  0  0  0  0  0  0  0  0
    7.0604  -16.0401   22.8407 C   0  0  0  0  0  0  0  0  0  0  0  0
    6.4943  -14.9183   23.0313 O   0  0  0  0  0  0  0  0  0  0  0  0
    7.0327  -11.9513   25.4641 C   0  0  0  0  0  0  0  0  0  0  0  0
    7.1984  -12.6982   27.0949 S   0  0  0  0  0  0  0  0  0  0  0  0
    7.6742  -14.4291   26.9350 C   0  0  0  0  0  0  0  0  0  0  0  0
    7.2942  -15.0830   25.6557 C   0  0  0  0  0  0  0  0  0  0  0  0
    8.3788  -15.8060   24.9815 C   0  0  2  0  0  0  0  0  0  0  0  0
    7.6916  -16.6163   23.9374 N   0  0  0  0  0  0  0  0  0  0  0  0
    9.2311  -16.7284   25.6776 C   0  0  0  0  0  0  0  0  0  0  0  0
    8.8080  -17.8334   26.0866 O   0  0  0  0  0  0  0  0  0  0  0  0
   10.6189  -16.4750   25.9636 N   0  0  0  0  0  0  0  0  0  0  0  0
   11.4615  -17.3973   26.6818 C   0  0  1  0  0  0  0  0  0  0  0  0
   12.8912  -17.1615   26.2448 C   0  0  0  0  0  0  0  0  0  0  0  0
   13.0145  -17.5338   24.4737 S   0  0  0  0  0  0  0  0  0  0  0  0
   11.3102  -17.2577   28.1491 C   0  0  0  0  0  0  0  0  0  0  0  0
   12.0140  -18.1194   28.9783 O   0  0  0  0  0  0  0  0  0  0  0  0
   10.5440  -16.3567   28.5771 O   0  0  0  0  0  0  0  0  0  0  0  0
  2  1  1  1
  3  2  1  0
  3  4  1  0
  4  5  2  0
  5  6  1  0
  7  6  2  0
  8  7  1  0
  9  4  1  0
  9  8  2  0
 10  2  1  0
 10 11  2  0
 12 13  1  0
 14 15  1  0
 14 13  1  0
 16 15  1  1
 16 18  1  0
 16 17  1  0
 17 10  1  0
 18 20  1  0
 19 18  2  0
 20 21  1  0
 21 24  1  0
 21 22  1  1
 23 22  1  0
 24 26  2  0
 24 25  1  0
M  END
$$$$
