FMC.pdb
     RDKit          3D

 26 26  0  0  1  0  0  0  0  0999 V2000
    6.7799  -16.5451   24.9742 N   0  0  0  0  0  0  0  0  0  0  0  0
    7.4467  -16.0690   23.7832 C   0  0  1  0  0  0  0  0  0  0  0  0
    6.8247  -14.7886   23.3187 C   0  0  0  0  0  0  0  0  0  0  0  0
    7.1465  -13.7368   24.3129 C   0  0  0  0  0  0  0  0  0  0  0  0
    6.4209  -13.7166   25.4846 C   0  0  0  0  0  0  0  0  0  0  0  0
    6.6441  -12.7766   26.4744 C   0  0  0  0  0  0  0  0  0  0  0  0
    7.6264  -11.8260   26.2835 C   0  0  0  0  0  0  0  0  0  0  0  0
    8.3730  -11.8200   25.1161 C   0  0  0  0  0  0  0  0  0  0  0  0
    8.1220  -12.7796   24.1423 C   0  0  0  0  0  0  0  0  0  0  0  0
    8.8893  -15.9780   24.0410 C   0  0  0  0  0  0  0  0  0  0  0  0
    9.6176  -15.4560   23.1398 O   0  0  0  0  0  0  0  0  0  0  0  0
    9.7786  -15.2069   29.9563 C   0  0  0  0  0  0  0  0  0  0  0  0
   10.9295  -14.2133   28.9903 S   0  0  0  0  0  0  0  0  0  0  0  0
   10.7464  -14.5877   27.2371 C   0  0  0  0  0  0  0  0  0  0  0  0
   11.1392  -15.9621   26.8304 C   0  0  0  0  0  0  0  0  0  0  0  0
   11.0016  -16.2493   25.3978 C   0  0  2  0  0  0  0  0  0  0  0  0
    9.5357  -16.4151   25.1919 N   0  0  0  0  0  0  0  0  0  0  0  0
   11.6031  -17.4017   24.7879 C   0  0  0  0  0  0  0  0  0  0  0  0
   11.2093  -18.5620   25.0451 O   0  0  0  0  0  0  0  0  0  0  0  0
   12.6894  -17.3326   23.8461 N   0  0  0  0  0  0  0  0  0  0  0  0
   13.3366  -18.4964   23.2956 C   0  0  1  0  0  0  0  0  0  0  0  0
   13.7092  -18.1893   21.8613 C   0  0  0  0  0  0  0  0  0  0  0  0
   12.1864  -17.8425   20.9386 S   0  0  0  0  0  0  0  0  0  0  0  0
   14.5194  -18.9003   24.0914 C   0  0  0  0  0  0  0  0  0  0  0  0
   15.2370  -20.0215   23.6996 O   0  0  0  0  0  0  0  0  0  0  0  0
   14.8194  -18.2015   25.0932 O   0  0  0  0  0  0  0  0  0  0  0  0
  2  1  1  1
  3  2  1  0
  3  4  1  0
  4  5  2  0
  5  6  1  0
  7  6  2  0
  8  7  1  0
  9  4  1  0
  9  8  2  0
 10  2  1  0
 10 11  2  0
 12 13  1  0
 14 15  1  0
 14 13  1  0
 16 15  1  1
 16 18  1  0
 16 17  1  0
 17 10  1  0
 18 20  1  0
 19 18  2  0
 20 21  1  0
 21 24  1  0
 21 22  1  6
 23 22  1  0
 24 26  2  0
 24 25  1  0
M  END
$$$$
