FMC.pdb
     RDKit          3D

 26 26  0  0  1  0  0  0  0  0999 V2000
    6.0917  -19.3091   24.6824 N   0  0  0  0  0  0  0  0  0  0  0  0
    6.2708  -18.8996   23.3077 C   0  0  1  0  0  0  0  0  0  0  0  0
    5.0424  -19.2123   22.5105 C   0  0  0  0  0  0  0  0  0  0  0  0
    4.8063  -20.6739   22.5884 C   0  0  0  0  0  0  0  0  0  0  0  0
    5.8549  -21.5117   22.2749 C   0  0  0  0  0  0  0  0  0  0  0  0
    5.7366  -22.8892   22.3166 C   0  0  0  0  0  0  0  0  0  0  0  0
    4.5279  -23.4448   22.6846 C   0  0  0  0  0  0  0  0  0  0  0  0
    3.4547  -22.6290   23.0057 C   0  0  0  0  0  0  0  0  0  0  0  0
    3.6090  -21.2487   22.9530 C   0  0  0  0  0  0  0  0  0  0  0  0
    6.6670  -17.4862   23.2724 C   0  0  0  0  0  0  0  0  0  0  0  0
    6.9281  -16.9751   22.1385 O   0  0  0  0  0  0  0  0  0  0  0  0
    6.3773  -10.8633   27.2080 C   0  0  0  0  0  0  0  0  0  0  0  0
    6.9556  -12.5400   26.8935 S   0  0  0  0  0  0  0  0  0  0  0  0
    6.5301  -13.0342   25.2135 C   0  0  0  0  0  0  0  0  0  0  0  0
    6.2228  -14.4763   25.0276 C   0  0  0  0  0  0  0  0  0  0  0  0
    7.2225  -15.2310   24.2630 C   0  0  2  0  0  0  0  0  0  0  0  0
    6.7831  -16.6497   24.3769 N   0  0  0  0  0  0  0  0  0  0  0  0
    8.6137  -15.2350   24.6187 C   0  0  0  0  0  0  0  0  0  0  0  0
    9.2426  -14.1721   24.8237 O   0  0  0  0  0  0  0  0  0  0  0  0
    9.3970  -16.4333   24.7692 N   0  0  0  0  0  0  0  0  0  0  0  0
   10.8031  -16.4268   25.0841 C   0  0  1  0  0  0  0  0  0  0  0  0
   10.9446  -16.3404   26.5884 C   0  0  0  0  0  0  0  0  0  0  0  0
   10.1952  -17.8228   27.3175 S   0  0  0  0  0  0  0  0  0  0  0  0
   11.4978  -17.6164   24.5388 C   0  0  0  0  0  0  0  0  0  0  0  0
   10.7429  -18.6144   23.9390 O   0  0  0  0  0  0  0  0  0  0  0  0
   12.7500  -17.6656   24.6464 O   0  0  0  0  0  0  0  0  0  0  0  0
  2  1  1  1
  3  2  1  0
  3  4  1  0
  4  5  2  0
  5  6  1  0
  7  6  2  0
  8  7  1  0
  9  4  1  0
  9  8  2  0
 10  2  1  0
 10 11  2  0
 12 13  1  0
 14 15  1  0
 14 13  1  0
 16 15  1  1
 16 18  1  0
 16 17  1  0
 17 10  1  0
 18 20  1  0
 19 18  2  0
 20 21  1  0
 21 24  1  0
 21 22  1  1
 23 22  1  0
 24 26  2  0
 24 25  1  0
M  END
$$$$
