FMC.pdb
     RDKit          3D

 26 26  0  0  1  0  0  0  0  0999 V2000
    8.0917  -19.4885   27.1314 N   0  0  0  0  0  0  0  0  0  0  0  0
    8.5332  -18.1169   27.2475 C   0  0  1  0  0  0  0  0  0  0  0  0
    9.9843  -18.0695   27.6136 C   0  0  0  0  0  0  0  0  0  0  0  0
   10.2150  -16.8411   28.4111 C   0  0  0  0  0  0  0  0  0  0  0  0
   10.3710  -16.9795   29.7736 C   0  0  0  0  0  0  0  0  0  0  0  0
   10.5903  -15.8960   30.6049 C   0  0  0  0  0  0  0  0  0  0  0  0
   10.6554  -14.6328   30.0524 C   0  0  0  0  0  0  0  0  0  0  0  0
   10.5025  -14.4609   28.6859 C   0  0  0  0  0  0  0  0  0  0  0  0
   10.2834  -15.5722   27.8802 C   0  0  0  0  0  0  0  0  0  0  0  0
    8.2009  -17.3964   26.0119 C   0  0  0  0  0  0  0  0  0  0  0  0
    8.2879  -18.0340   24.9160 O   0  0  0  0  0  0  0  0  0  0  0  0
    5.5727  -11.5245   25.9607 C   0  0  0  0  0  0  0  0  0  0  0  0
    6.2639  -11.4780   24.2978 S   0  0  0  0  0  0  0  0  0  0  0  0
    6.9389  -13.0920   23.8653 C   0  0  0  0  0  0  0  0  0  0  0  0
    7.1730  -14.0158   25.0057 C   0  0  0  0  0  0  0  0  0  0  0  0
    7.6237  -15.3616   24.6326 C   0  0  2  0  0  0  0  0  0  0  0  0
    7.7962  -16.0686   25.9324 N   0  0  0  0  0  0  0  0  0  0  0  0
    8.8459  -15.5866   23.9133 C   0  0  0  0  0  0  0  0  0  0  0  0
    9.9626  -15.5046   24.4735 O   0  0  0  0  0  0  0  0  0  0  0  0
    8.9005  -15.9194   22.5140 N   0  0  0  0  0  0  0  0  0  0  0  0
   10.1326  -16.1220   21.7947 C   0  0  1  0  0  0  0  0  0  0  0  0
   10.1216  -17.5284   21.2359 C   0  0  0  0  0  0  0  0  0  0  0  0
    8.4527  -17.8842   20.6206 S   0  0  0  0  0  0  0  0  0  0  0  0
   10.3224  -15.1126   20.7268 C   0  0  0  0  0  0  0  0  0  0  0  0
   11.5128  -15.1103   20.0136 O   0  0  0  0  0  0  0  0  0  0  0  0
    9.3872  -14.2986   20.5155 O   0  0  0  0  0  0  0  0  0  0  0  0
  2  1  1  6
  3  2  1  0
  3  4  1  0
  4  5  2  0
  5  6  1  0
  7  6  2  0
  8  7  1  0
  9  4  1  0
  9  8  2  0
 10  2  1  0
 10 11  2  0
 12 13  1  0
 14 15  1  0
 14 13  1  0
 16 15  1  1
 16 18  1  0
 16 17  1  0
 17 10  1  0
 18 20  1  0
 19 18  2  0
 20 21  1  0
 21 24  1  0
 21 22  1  6
 23 22  1  0
 24 26  2  0
 24 25  1  0
M  END
$$$$
