FMC.pdb
     RDKit          3D

 26 26  0  0  1  0  0  0  0  0999 V2000
    6.0380  -18.3078   25.4396 N   0  0  0  0  0  0  0  0  0  0  0  0
    6.4210  -16.9152   25.3782 C   0  0  1  0  0  0  0  0  0  0  0  0
    6.9539  -16.4663   26.7035 C   0  0  0  0  0  0  0  0  0  0  0  0
    7.0747  -14.9889   26.6713 C   0  0  0  0  0  0  0  0  0  0  0  0
    8.3394  -14.4497   26.5735 C   0  0  0  0  0  0  0  0  0  0  0  0
    8.5585  -13.0844   26.5362 C   0  0  0  0  0  0  0  0  0  0  0  0
    7.4746  -12.2322   26.5990 C   0  0  0  0  0  0  0  0  0  0  0  0
    6.1905  -12.7437   26.6977 C   0  0  0  0  0  0  0  0  0  0  0  0
    6.0070  -14.1211   26.7326 C   0  0  0  0  0  0  0  0  0  0  0  0
    7.3504  -16.7189   24.2586 C   0  0  0  0  0  0  0  0  0  0  0  0
    8.1495  -17.6677   23.9822 O   0  0  0  0  0  0  0  0  0  0  0  0
    6.7926  -12.1719   18.9852 C   0  0  0  0  0  0  0  0  0  0  0  0
    8.4475  -12.6793   19.4841 S   0  0  0  0  0  0  0  0  0  0  0  0
    8.4189  -13.2978   21.1764 C   0  0  0  0  0  0  0  0  0  0  0  0
    7.5090  -14.4466   21.4241 C   0  0  0  0  0  0  0  0  0  0  0  0
    8.1142  -15.5751   22.1409 C   0  0  2  0  0  0  0  0  0  0  0  0
    7.4357  -15.5790   23.4670 N   0  0  0  0  0  0  0  0  0  0  0  0
    9.5190  -15.6301   22.4334 C   0  0  0  0  0  0  0  0  0  0  0  0
   10.3821  -15.5398   21.5310 O   0  0  0  0  0  0  0  0  0  0  0  0
   10.0537  -15.7907   23.7602 N   0  0  0  0  0  0  0  0  0  0  0  0
   11.4618  -15.7298   24.0601 C   0  0  1  0  0  0  0  0  0  0  0  0
   11.6144  -15.2834   25.4981 C   0  0  0  0  0  0  0  0  0  0  0  0
   10.7822  -16.4942   26.5620 S   0  0  0  0  0  0  0  0  0  0  0  0
   12.1360  -17.0267   23.8175 C   0  0  0  0  0  0  0  0  0  0  0  0
   11.3637  -18.1271   23.4739 O   0  0  0  0  0  0  0  0  0  0  0  0
   13.3875  -17.0688   23.9356 O   0  0  0  0  0  0  0  0  0  0  0  0
  2  1  1  1
  3  2  1  0
  3  4  1  0
  4  5  2  0
  5  6  1  0
  7  6  2  0
  8  7  1  0
  9  4  1  0
  9  8  2  0
 10  2  1  0
 10 11  2  0
 12 13  1  0
 14 15  1  0
 14 13  1  0
 16 15  1  1
 16 18  1  0
 16 17  1  0
 17 10  1  0
 18 20  1  0
 19 18  2  0
 20 21  1  0
 21 24  1  0
 21 22  1  1
 23 22  1  0
 24 26  2  0
 24 25  1  0
M  END
$$$$
