FMC.pdb
     RDKit          3D

 26 26  0  0  1  0  0  0  0  0999 V2000
    7.1625  -17.0506   26.5105 N   0  0  0  0  0  0  0  0  0  0  0  0
    6.4724  -16.8062   25.2640 C   0  0  1  0  0  0  0  0  0  0  0  0
    5.4102  -15.7684   25.4556 C   0  0  0  0  0  0  0  0  0  0  0  0
    6.0408  -14.5770   26.0730 C   0  0  0  0  0  0  0  0  0  0  0  0
    5.2360  -13.7312   26.8057 C   0  0  0  0  0  0  0  0  0  0  0  0
    5.7277  -12.5940   27.4208 C   0  0  0  0  0  0  0  0  0  0  0  0
    7.0695  -12.2950   27.2973 C   0  0  0  0  0  0  0  0  0  0  0  0
    7.9044  -13.1257   26.5672 C   0  0  0  0  0  0  0  0  0  0  0  0
    7.3766  -14.2604   25.9623 C   0  0  0  0  0  0  0  0  0  0  0  0
    7.4554  -16.4759   24.2245 C   0  0  0  0  0  0  0  0  0  0  0  0
    8.4842  -17.2160   24.1293 O   0  0  0  0  0  0  0  0  0  0  0  0
    8.6235  -12.4050   17.5567 C   0  0  0  0  0  0  0  0  0  0  0  0
    7.5905  -12.7242   18.9975 S   0  0  0  0  0  0  0  0  0  0  0  0
    8.4274  -13.8621   20.1165 C   0  0  0  0  0  0  0  0  0  0  0  0
    7.6869  -14.1995   21.3600 C   0  0  0  0  0  0  0  0  0  0  0  0
    8.2882  -15.2641   22.1717 C   0  0  2  0  0  0  0  0  0  0  0  0
    7.3613  -15.4176   23.3276 N   0  0  0  0  0  0  0  0  0  0  0  0
    9.5970  -15.1387   22.7490 C   0  0  0  0  0  0  0  0  0  0  0  0
    9.7792  -14.5609   23.8446 O   0  0  0  0  0  0  0  0  0  0  0  0
   10.7937  -15.6532   22.1365 N   0  0  0  0  0  0  0  0  0  0  0  0
   11.9878  -15.9742   22.8764 C   0  0  1  0  0  0  0  0  0  0  0  0
   11.6370  -17.0429   23.8890 C   0  0  0  0  0  0  0  0  0  0  0  0
   11.2830  -16.2329   25.4730 S   0  0  0  0  0  0  0  0  0  0  0  0
   13.0904  -16.4075   21.9866 C   0  0  0  0  0  0  0  0  0  0  0  0
   14.3805  -16.4545   22.4957 O   0  0  0  0  0  0  0  0  0  0  0  0
   12.8022  -16.7149   20.8015 O   0  0  0  0  0  0  0  0  0  0  0  0
  2  1  1  1
  3  2  1  0
  3  4  1  0
  4  5  2  0
  5  6  1  0
  7  6  2  0
  8  7  1  0
  9  4  1  0
  9  8  2  0
 10  2  1  0
 10 11  2  0
 12 13  1  0
 14 15  1  0
 14 13  1  0
 16 15  1  1
 16 18  1  0
 16 17  1  0
 17 10  1  0
 18 20  1  0
 19 18  2  0
 20 21  1  0
 21 24  1  0
 21 22  1  1
 23 22  1  0
 24 26  2  0
 24 25  1  0
M  END
$$$$
