HWQ.pdb
     RDKit          3D

 34 36  0  0  1  0  0  0  0  0999 V2000
   27.0037  -21.2866  -17.1919 N   0  0  0  0  0  0  0  0  0  0  0  0
   26.4582  -22.5429  -16.7401 C   0  0  1  0  0  0  0  0  0  0  0  0
   27.4067  -23.6668  -17.0128 C   0  0  0  0  0  0  0  0  0  0  0  0
   27.7884  -23.6247  -18.4481 C   0  0  0  0  0  0  0  0  0  0  0  0
   26.9425  -23.8459  -19.5284 C   0  0  0  0  0  0  0  0  0  0  0  0
   27.6289  -23.7264  -20.6755 N   0  0  0  0  0  0  0  0  0  0  0  0
   28.8942  -23.4334  -20.3443 C   0  0  0  0  0  0  0  0  0  0  0  0
   29.0041  -23.3689  -18.9978 N   0  0  0  0  0  0  0  0  0  0  0  0
   26.0236  -22.4872  -15.3230 C   0  0  0  0  0  0  0  0  0  0  0  0
   25.5285  -23.5304  -14.8194 O   0  0  0  0  0  0  0  0  0  0  0  0
   26.1633  -21.2985  -14.5679 N   0  0  0  0  0  0  0  0  0  0  0  0
   25.6510  -21.2462  -13.2302 C   0  0  1  0  0  0  0  0  0  0  0  0
   26.5624  -20.3516  -12.4392 C   0  0  0  0  0  0  0  0  0  0  0  0
   26.2820  -20.3451  -10.9933 C   0  0  0  0  0  0  0  0  0  0  0  0
   25.0358  -20.0181  -10.4325 C   0  0  0  0  0  0  0  0  0  0  0  0
   25.0923  -20.1346   -9.1007 N   0  0  0  0  0  0  0  0  0  0  0  0
   26.3461  -20.5323   -8.7394 C   0  0  0  0  0  0  0  0  0  0  0  0
   26.9028  -20.7831   -7.5088 C   0  0  0  0  0  0  0  0  0  0  0  0
   28.2102  -21.1700   -7.4025 C   0  0  0  0  0  0  0  0  0  0  0  0
   28.9535  -21.3021   -8.5475 C   0  0  0  0  0  0  0  0  0  0  0  0
   28.3883  -21.0492   -9.7763 C   0  0  0  0  0  0  0  0  0  0  0  0
   27.0719  -20.6579   -9.9236 C   0  0  0  0  0  0  0  0  0  0  0  0
   24.2229  -20.9983  -13.1000 C   0  0  0  0  0  0  0  0  0  0  0  0
   23.7822  -19.9283  -13.6445 O   0  0  0  0  0  0  0  0  0  0  0  0
   19.3947  -24.9538  -13.2387 N   0  0  0  0  0  0  0  0  0  0  0  0
   20.0224  -24.2019  -14.2489 C   0  0  0  0  0  0  0  0  0  0  0  0
   19.8178  -24.5573  -15.4613 O   0  0  0  0  0  0  0  0  0  0  0  0
   20.8866  -23.0364  -13.9950 C   0  0  0  0  0  0  0  0  0  0  0  0
   21.0280  -22.5863  -12.6018 C   0  0  0  0  0  0  0  0  0  0  0  0
   21.8709  -21.3715  -12.3542 C   0  0  2  0  0  0  0  0  0  0  0  0
   23.3054  -21.8184  -12.4389 N   0  0  0  0  0  0  0  0  0  0  0  0
   21.6749  -20.7157  -11.0620 C   0  0  0  0  0  0  0  0  0  0  0  0
   22.0110  -21.2137   -9.9655 O   0  0  0  0  0  0  0  0  0  0  0  0
   21.0755  -19.4440  -10.9922 O   0  0  0  0  0  0  0  0  0  0  0  0
  2  1  1  1
  2  9  1  0
  2  3  1  0
  3  4  1  0
  4  8  1  0
  5  6  1  0
  5  4  2  0
  6  7  1  0
  7  8  2  0
  9 10  2  0
 11 12  1  0
 11  9  1  0
 13 14  1  0
 12 13  1  1
 14 15  2  0
 16 15  1  0
 17 16  1  0
 18 17  2  0
 19 18  1  0
 20 19  2  0
 20 21  1  0
 21 22  2  0
 22 17  1  0
 22 14  1  0
 23 24  2  0
 23 12  1  0
 25 26  1  0
 26 28  1  0
 26 27  2  0
 28 29  1  0
 30 29  1  1
 30 32  1  0
 30 31  1  0
 31 23  1  0
 32 34  1  0
 33 32  2  0
M  END
$$$$
