HWQ.pdb
     RDKit          3D

 34 36  0  0  1  0  0  0  0  0999 V2000
   27.7665  -22.4817  -15.9089 N   0  0  0  0  0  0  0  0  0  0  0  0
   26.9430  -21.2997  -15.8408 C   0  0  1  0  0  0  0  0  0  0  0  0
   26.3463  -20.9859  -17.1759 C   0  0  0  0  0  0  0  0  0  0  0  0
   27.4257  -20.4963  -18.0721 C   0  0  0  0  0  0  0  0  0  0  0  0
   28.2083  -21.2763  -18.9150 C   0  0  0  0  0  0  0  0  0  0  0  0
   29.0805  -20.4983  -19.5751 N   0  0  0  0  0  0  0  0  0  0  0  0
   28.8665  -19.2396  -19.1674 C   0  0  0  0  0  0  0  0  0  0  0  0
   27.8664  -19.2247  -18.2568 N   0  0  0  0  0  0  0  0  0  0  0  0
   25.9282  -21.3859  -14.7625 C   0  0  0  0  0  0  0  0  0  0  0  0
   25.5002  -22.5286  -14.4492 O   0  0  0  0  0  0  0  0  0  0  0  0
   25.4607  -20.2194  -14.1117 N   0  0  0  0  0  0  0  0  0  0  0  0
   24.4761  -20.3338  -13.0763 C   0  0  1  0  0  0  0  0  0  0  0  0
   24.9405  -19.4874  -11.9252 C   0  0  0  0  0  0  0  0  0  0  0  0
   25.9338  -20.1494  -11.0625 C   0  0  0  0  0  0  0  0  0  0  0  0
   25.6324  -20.7486   -9.8278 C   0  0  0  0  0  0  0  0  0  0  0  0
   26.7382  -21.2889   -9.3030 N   0  0  0  0  0  0  0  0  0  0  0  0
   27.7864  -21.0726  -10.1487 C   0  0  0  0  0  0  0  0  0  0  0  0
   29.1128  -21.4194  -10.0625 C   0  0  0  0  0  0  0  0  0  0  0  0
   29.9879  -21.0749  -11.0555 C   0  0  0  0  0  0  0  0  0  0  0  0
   29.5153  -20.3769  -12.1373 C   0  0  0  0  0  0  0  0  0  0  0  0
   28.1852  -20.0336  -12.2162 C   0  0  0  0  0  0  0  0  0  0  0  0
   27.2717  -20.3646  -11.2345 C   0  0  0  0  0  0  0  0  0  0  0  0
   23.0903  -20.1675  -13.4882 C   0  0  0  0  0  0  0  0  0  0  0  0
   22.8969  -19.5273  -14.5784 O   0  0  0  0  0  0  0  0  0  0  0  0
   17.9996  -23.1680  -14.9790 N   0  0  0  0  0  0  0  0  0  0  0  0
   19.0864  -23.6786  -14.2455 C   0  0  0  0  0  0  0  0  0  0  0  0
   19.0528  -24.9181  -13.9282 O   0  0  0  0  0  0  0  0  0  0  0  0
   20.2527  -22.8793  -13.8324 C   0  0  0  0  0  0  0  0  0  0  0  0
   20.3703  -21.5179  -14.3767 C   0  0  0  0  0  0  0  0  0  0  0  0
   20.6078  -20.4055  -13.4001 C   0  0  2  0  0  0  0  0  0  0  0  0
   21.9689  -20.6405  -12.8027 N   0  0  0  0  0  0  0  0  0  0  0  0
   19.6428  -20.3044  -12.3062 C   0  0  0  0  0  0  0  0  0  0  0  0
   19.8719  -20.6731  -11.1335 O   0  0  0  0  0  0  0  0  0  0  0  0
   18.3621  -19.7663  -12.5334 O   0  0  0  0  0  0  0  0  0  0  0  0
  2  1  1  6
  2  9  1  0
  2  3  1  0
  3  4  1  0
  4  8  1  0
  5  6  1  0
  5  4  2  0
  6  7  1  0
  7  8  2  0
  9 10  2  0
 11 12  1  0
 11  9  1  0
 13 14  1  0
 12 13  1  1
 14 15  2  0
 16 15  1  0
 17 16  1  0
 18 17  2  0
 19 18  1  0
 20 19  2  0
 20 21  1  0
 21 22  2  0
 22 17  1  0
 22 14  1  0
 23 24  2  0
 23 12  1  0
 25 26  1  0
 26 28  1  0
 26 27  2  0
 28 29  1  0
 30 29  1  6
 30 32  1  0
 30 31  1  0
 31 23  1  0
 32 34  1  0
 33 32  2  0
M  END
$$$$
