HWQ.pdb
     RDKit          3D

 34 36  0  0  1  0  0  0  0  0999 V2000
   18.4866  -28.1100  -11.5302 N   0  0  0  0  0  0  0  0  0  0  0  0
   19.4903  -28.0715  -10.4953 C   0  0  1  0  0  0  0  0  0  0  0  0
   20.8641  -28.0171  -11.0843 C   0  0  0  0  0  0  0  0  0  0  0  0
   21.1125  -29.2836  -11.8205 C   0  0  0  0  0  0  0  0  0  0  0  0
   21.4466  -30.5085  -11.2554 C   0  0  0  0  0  0  0  0  0  0  0  0
   21.5949  -31.4294  -12.2206 N   0  0  0  0  0  0  0  0  0  0  0  0
   21.3615  -30.8126  -13.3874 C   0  0  0  0  0  0  0  0  0  0  0  0
   21.0681  -29.5121  -13.1589 N   0  0  0  0  0  0  0  0  0  0  0  0
   19.2412  -26.9874   -9.5140 C   0  0  0  0  0  0  0  0  0  0  0  0
   20.0684  -26.8446   -8.5746 O   0  0  0  0  0  0  0  0  0  0  0  0
   18.1101  -26.1457   -9.6350 N   0  0  0  0  0  0  0  0  0  0  0  0
   17.8436  -25.1692   -8.6200 C   0  0  1  0  0  0  0  0  0  0  0  0
   16.9992  -24.0958   -9.2459 C   0  0  0  0  0  0  0  0  0  0  0  0
   17.7046  -23.3037  -10.2677 C   0  0  0  0  0  0  0  0  0  0  0  0
   19.1026  -23.1891  -10.3514 C   0  0  0  0  0  0  0  0  0  0  0  0
   19.4340  -22.4289  -11.4014 N   0  0  0  0  0  0  0  0  0  0  0  0
   18.2970  -22.0219  -12.0356 C   0  0  0  0  0  0  0  0  0  0  0  0
   18.1048  -21.2335  -13.1440 C   0  0  0  0  0  0  0  0  0  0  0  0
   16.8421  -20.9564  -13.5901 C   0  0  0  0  0  0  0  0  0  0  0  0
   15.7730  -21.4803  -12.9093 C   0  0  0  0  0  0  0  0  0  0  0  0
   15.9740  -22.2692  -11.8000 C   0  0  0  0  0  0  0  0  0  0  0  0
   17.2334  -22.5719  -11.3205 C   0  0  0  0  0  0  0  0  0  0  0  0
   17.3927  -25.6856   -7.3363 C   0  0  0  0  0  0  0  0  0  0  0  0
   16.3484  -26.4235   -7.3583 O   0  0  0  0  0  0  0  0  0  0  0  0
   19.5116  -28.6954   -2.7954 N   0  0  0  0  0  0  0  0  0  0  0  0
   18.5990  -27.9201   -2.0567 C   0  0  0  0  0  0  0  0  0  0  0  0
   18.2136  -28.3810   -0.9266 O   0  0  0  0  0  0  0  0  0  0  0  0
   18.0723  -26.6180   -2.5006 C   0  0  0  0  0  0  0  0  0  0  0  0
   18.4549  -26.1522   -3.8423 C   0  0  0  0  0  0  0  0  0  0  0  0
   17.3655  -26.0350   -4.8656 C   0  0  2  0  0  0  0  0  0  0  0  0
   17.9951  -25.4459   -6.0990 N   0  0  0  0  0  0  0  0  0  0  0  0
   16.2294  -25.1946   -4.4897 C   0  0  0  0  0  0  0  0  0  0  0  0
   15.1727  -25.6307   -3.9832 O   0  0  0  0  0  0  0  0  0  0  0  0
   16.2767  -23.8020   -4.6891 O   0  0  0  0  0  0  0  0  0  0  0  0
  2  1  1  6
  2  9  1  0
  2  3  1  0
  3  4  1  0
  4  8  1  0
  5  6  1  0
  5  4  2  0
  6  7  1  0
  7  8  2  0
  9 10  2  0
 11 12  1  0
 11  9  1  0
 13 14  1  0
 12 13  1  6
 14 15  2  0
 16 15  1  0
 17 16  1  0
 18 17  2  0
 19 18  1  0
 20 19  2  0
 20 21  1  0
 21 22  2  0
 22 17  1  0
 22 14  1  0
 23 24  2  0
 23 12  1  0
 25 26  1  0
 26 28  1  0
 26 27  2  0
 28 29  1  0
 30 29  1  1
 30 32  1  0
 30 31  1  0
 31 23  1  0
 32 34  1  0
 33 32  2  0
M  END
$$$$
