HWQ.pdb
     RDKit          3D

 34 36  0  0  1  0  0  0  0  0999 V2000
   27.7402  -21.5402  -14.5624 N   0  0  0  0  0  0  0  0  0  0  0  0
   27.1150  -20.4376  -13.8743 C   0  0  1  0  0  0  0  0  0  0  0  0
   26.3133  -19.6020  -14.8209 C   0  0  0  0  0  0  0  0  0  0  0  0
   27.2436  -18.9473  -15.7768 C   0  0  0  0  0  0  0  0  0  0  0  0
   27.4391  -19.3044  -17.1056 C   0  0  0  0  0  0  0  0  0  0  0  0
   28.3519  -18.4946  -17.6646 N   0  0  0  0  0  0  0  0  0  0  0  0
   28.7395  -17.6303  -16.7164 C   0  0  0  0  0  0  0  0  0  0  0  0
   28.0755  -17.8939  -15.5678 N   0  0  0  0  0  0  0  0  0  0  0  0
   26.3325  -20.8844  -12.6962 C   0  0  0  0  0  0  0  0  0  0  0  0
   25.7920  -22.0212  -12.7473 O   0  0  0  0  0  0  0  0  0  0  0  0
   26.2014  -20.0562  -11.5562 N   0  0  0  0  0  0  0  0  0  0  0  0
   25.4179  -20.5044  -10.4428 C   0  0  1  0  0  0  0  0  0  0  0  0
   25.8677  -19.7253   -9.2396 C   0  0  0  0  0  0  0  0  0  0  0  0
   27.1324  -20.2063   -8.6579 C   0  0  0  0  0  0  0  0  0  0  0  0
   28.0191  -21.0800   -9.3097 C   0  0  0  0  0  0  0  0  0  0  0  0
   29.0877  -21.3034   -8.5360 N   0  0  0  0  0  0  0  0  0  0  0  0
   28.9516  -20.6042   -7.3727 C   0  0  0  0  0  0  0  0  0  0  0  0
   29.7630  -20.5066   -6.2686 C   0  0  0  0  0  0  0  0  0  0  0  0
   29.3970  -19.7318   -5.2026 C   0  0  0  0  0  0  0  0  0  0  0  0
   28.2050  -19.0556   -5.2580 C   0  0  0  0  0  0  0  0  0  0  0  0
   27.3981  -19.1586   -6.3677 C   0  0  0  0  0  0  0  0  0  0  0  0
   27.7343  -19.9297   -7.4633 C   0  0  0  0  0  0  0  0  0  0  0  0
   23.9818  -20.5899  -10.6625 C   0  0  0  0  0  0  0  0  0  0  0  0
   23.5342  -20.0104  -11.7110 O   0  0  0  0  0  0  0  0  0  0  0  0
   19.4620  -24.0941   -7.5893 N   0  0  0  0  0  0  0  0  0  0  0  0
   18.8120  -23.3846   -8.6158 C   0  0  0  0  0  0  0  0  0  0  0  0
   17.5608  -23.5987   -8.7792 O   0  0  0  0  0  0  0  0  0  0  0  0
   19.4796  -22.4136   -9.4998 C   0  0  0  0  0  0  0  0  0  0  0  0
   20.9066  -22.1476   -9.2617 C   0  0  0  0  0  0  0  0  0  0  0  0
   21.6179  -21.2762  -10.2528 C   0  0  2  0  0  0  0  0  0  0  0  0
   23.0635  -21.2415   -9.8359 N   0  0  0  0  0  0  0  0  0  0  0  0
   21.1384  -19.8979  -10.3451 C   0  0  0  0  0  0  0  0  0  0  0  0
   20.3595  -19.4850  -11.2319 O   0  0  0  0  0  0  0  0  0  0  0  0
   21.5483  -18.9363   -9.4024 O   0  0  0  0  0  0  0  0  0  0  0  0
  2  1  1  6
  2  9  1  0
  2  3  1  0
  3  4  1  0
  4  8  1  0
  5  6  1  0
  5  4  2  0
  6  7  1  0
  7  8  2  0
  9 10  2  0
 11 12  1  0
 11  9  1  0
 13 14  1  0
 12 13  1  1
 14 15  2  0
 16 15  1  0
 17 16  1  0
 18 17  2  0
 19 18  1  0
 20 19  2  0
 20 21  1  0
 21 22  2  0
 22 17  1  0
 22 14  1  0
 23 24  2  0
 23 12  1  0
 25 26  1  0
 26 28  1  0
 26 27  2  0
 28 29  1  0
 30 29  1  1
 30 32  1  0
 30 31  1  0
 31 23  1  0
 32 34  1  0
 33 32  2  0
M  END
$$$$
