HWQ.pdb
     RDKit          3D

 34 36  0  0  1  0  0  0  0  0999 V2000
   26.4052  -20.7779  -18.1127 N   0  0  0  0  0  0  0  0  0  0  0  0
   25.6711  -19.8442  -17.2949 C   0  0  1  0  0  0  0  0  0  0  0  0
   24.3822  -19.4588  -17.9487 C   0  0  0  0  0  0  0  0  0  0  0  0
   24.5596  -18.1339  -18.5974 C   0  0  0  0  0  0  0  0  0  0  0  0
   25.6495  -17.2853  -18.4444 C   0  0  0  0  0  0  0  0  0  0  0  0
   25.4696  -16.1767  -19.1793 N   0  0  0  0  0  0  0  0  0  0  0  0
   24.2866  -16.3052  -19.7960 C   0  0  0  0  0  0  0  0  0  0  0  0
   23.7250  -17.4866  -19.4519 N   0  0  0  0  0  0  0  0  0  0  0  0
   25.4882  -20.3379  -15.9082 C   0  0  0  0  0  0  0  0  0  0  0  0
   25.0438  -21.5068  -15.7552 O   0  0  0  0  0  0  0  0  0  0  0  0
   25.8042  -19.5180  -14.7989 N   0  0  0  0  0  0  0  0  0  0  0  0
   25.4249  -19.9347  -13.4809 C   0  0  1  0  0  0  0  0  0  0  0  0
   26.3174  -19.2126  -12.5119 C   0  0  0  0  0  0  0  0  0  0  0  0
   27.1635  -20.1061  -11.7026 C   0  0  0  0  0  0  0  0  0  0  0  0
   28.1575  -20.9459  -12.2327 C   0  0  0  0  0  0  0  0  0  0  0  0
   28.7693  -21.6066  -11.2431 N   0  0  0  0  0  0  0  0  0  0  0  0
   28.2170  -21.2387  -10.0513 C   0  0  0  0  0  0  0  0  0  0  0  0
   28.4866  -21.6310   -8.7627 C   0  0  0  0  0  0  0  0  0  0  0  0
   27.7758  -21.1140   -7.7149 C   0  0  0  0  0  0  0  0  0  0  0  0
   26.7895  -20.1976   -7.9762 C   0  0  0  0  0  0  0  0  0  0  0  0
   26.5257  -19.8097   -9.2698 C   0  0  0  0  0  0  0  0  0  0  0  0
   27.2226  -20.3085  -10.3530 C   0  0  0  0  0  0  0  0  0  0  0  0
   23.9994  -19.9179  -13.1886 C   0  0  0  0  0  0  0  0  0  0  0  0
   23.3757  -18.8386  -13.4745 O   0  0  0  0  0  0  0  0  0  0  0  0
   19.5175  -22.4509  -15.4470 N   0  0  0  0  0  0  0  0  0  0  0  0
   18.9770  -21.3485  -14.7596 C   0  0  0  0  0  0  0  0  0  0  0  0
   17.7089  -21.1841  -14.8144 O   0  0  0  0  0  0  0  0  0  0  0  0
   19.7770  -20.3867  -13.9820 C   0  0  0  0  0  0  0  0  0  0  0  0
   21.2201  -20.6445  -13.8612 C   0  0  0  0  0  0  0  0  0  0  0  0
   21.7766  -20.8020  -12.4781 C   0  0  2  0  0  0  0  0  0  0  0  0
   23.2649  -20.9660  -12.6290 N   0  0  0  0  0  0  0  0  0  0  0  0
   21.2689  -21.9418  -11.7157 C   0  0  0  0  0  0  0  0  0  0  0  0
   21.7959  -23.0758  -11.7164 O   0  0  0  0  0  0  0  0  0  0  0  0
   20.1189  -21.8081  -10.9152 O   0  0  0  0  0  0  0  0  0  0  0  0
  2  1  1  6
  2  9  1  0
  2  3  1  0
  3  4  1  0
  4  8  1  0
  5  6  1  0
  5  4  2  0
  6  7  1  0
  7  8  2  0
  9 10  2  0
 11 12  1  0
 11  9  1  0
 13 14  1  0
 12 13  1  1
 14 15  2  0
 16 15  1  0
 17 16  1  0
 18 17  2  0
 19 18  1  0
 20 19  2  0
 20 21  1  0
 21 22  2  0
 22 17  1  0
 22 14  1  0
 23 24  2  0
 23 12  1  0
 25 26  1  0
 26 28  1  0
 26 27  2  0
 28 29  1  0
 30 29  1  6
 30 32  1  0
 30 31  1  0
 31 23  1  0
 32 34  1  0
 33 32  2  0
M  END
$$$$
