HWQ.pdb
     RDKit          3D

 34 36  0  0  1  0  0  0  0  0999 V2000
   26.6892  -22.7955  -15.4073 N   0  0  0  0  0  0  0  0  0  0  0  0
   26.0472  -21.6026  -14.9127 C   0  0  1  0  0  0  0  0  0  0  0  0
   25.0488  -21.0846  -15.8986 C   0  0  0  0  0  0  0  0  0  0  0  0
   25.7793  -20.5838  -17.0916 C   0  0  0  0  0  0  0  0  0  0  0  0
   27.1584  -20.5707  -17.2629 C   0  0  0  0  0  0  0  0  0  0  0  0
   27.4630  -20.0487  -18.4613 N   0  0  0  0  0  0  0  0  0  0  0  0
   26.3038  -19.7301  -19.0540 C   0  0  0  0  0  0  0  0  0  0  0  0
   25.2761  -20.0493  -18.2347 N   0  0  0  0  0  0  0  0  0  0  0  0
   25.4727  -21.7963  -13.5591 C   0  0  0  0  0  0  0  0  0  0  0  0
   25.0763  -22.9513  -13.2494 O   0  0  0  0  0  0  0  0  0  0  0  0
   25.3759  -20.7153  -12.6509 N   0  0  0  0  0  0  0  0  0  0  0  0
   24.7542  -20.9169  -11.3752 C   0  0  1  0  0  0  0  0  0  0  0  0
   25.3982  -19.9622  -10.4104 C   0  0  0  0  0  0  0  0  0  0  0  0
   26.7260  -20.3946   -9.9422 C   0  0  0  0  0  0  0  0  0  0  0  0
   27.6276  -21.1485  -10.7124 C   0  0  0  0  0  0  0  0  0  0  0  0
   28.7545  -21.3539  -10.0210 N   0  0  0  0  0  0  0  0  0  0  0  0
   28.6438  -20.7591   -8.7984 C   0  0  0  0  0  0  0  0  0  0  0  0
   29.5135  -20.6895   -7.7373 C   0  0  0  0  0  0  0  0  0  0  0  0
   29.1628  -20.0287   -6.5925 C   0  0  0  0  0  0  0  0  0  0  0  0
   27.9268  -19.4380   -6.5250 C   0  0  0  0  0  0  0  0  0  0  0  0
   27.0616  -19.5122   -7.5924 C   0  0  0  0  0  0  0  0  0  0  0  0
   27.3805  -20.1692   -8.7647 C   0  0  0  0  0  0  0  0  0  0  0  0
   23.2997  -20.9633  -11.3711 C   0  0  0  0  0  0  0  0  0  0  0  0
   22.7088  -20.2688  -12.2678 O   0  0  0  0  0  0  0  0  0  0  0  0
   19.1570  -24.3070   -7.6048 N   0  0  0  0  0  0  0  0  0  0  0  0
   18.3971  -23.5701   -8.5317 C   0  0  0  0  0  0  0  0  0  0  0  0
   17.1230  -23.6172   -8.4190 O   0  0  0  0  0  0  0  0  0  0  0  0
   18.9770  -22.7495   -9.6088 C   0  0  0  0  0  0  0  0  0  0  0  0
   20.4340  -22.5481   -9.5997 C   0  0  0  0  0  0  0  0  0  0  0  0
   21.0110  -21.6557  -10.6572 C   0  0  2  0  0  0  0  0  0  0  0  0
   22.5052  -21.6913  -10.4822 N   0  0  0  0  0  0  0  0  0  0  0  0
   20.5814  -20.2586  -10.6124 C   0  0  0  0  0  0  0  0  0  0  0  0
   21.0770  -19.3973   -9.8533 O   0  0  0  0  0  0  0  0  0  0  0  0
   19.5503  -19.8029  -11.4552 O   0  0  0  0  0  0  0  0  0  0  0  0
  2  1  1  6
  2  9  1  0
  2  3  1  0
  3  4  1  0
  4  8  1  0
  5  6  1  0
  5  4  2  0
  6  7  1  0
  7  8  2  0
  9 10  2  0
 11 12  1  0
 11  9  1  0
 13 14  1  0
 12 13  1  1
 14 15  2  0
 16 15  1  0
 17 16  1  0
 18 17  2  0
 19 18  1  0
 20 19  2  0
 20 21  1  0
 21 22  2  0
 22 17  1  0
 22 14  1  0
 23 24  2  0
 23 12  1  0
 25 26  1  0
 26 28  1  0
 26 27  2  0
 28 29  1  0
 30 29  1  1
 30 32  1  0
 30 31  1  0
 31 23  1  0
 32 34  1  0
 33 32  2  0
M  END
$$$$
