EPH.pdb
     RDKit          3D

 27 28  0  0  1  0  0  0  0  0999 V2000
   18.1436  -13.3376  -18.8376 N   0  0  0  0  0  0  0  0  0  0  0  0
   17.5323  -12.1172  -18.4526 C   0  0  1  0  0  0  0  0  0  0  0  0
   17.0088  -12.1832  -17.0076 C   0  0  0  0  0  0  0  0  0  0  0  0
   16.0498  -13.3456  -16.8329 C   0  0  0  0  0  0  0  0  0  0  0  0
   15.5509  -13.4278  -15.4509 C   0  0  0  0  0  0  0  0  0  0  0  0
   16.1451  -12.9122  -14.4650 O   0  0  0  0  0  0  0  0  0  0  0  0
   18.3677  -10.9111  -18.5159 C   0  0  0  0  0  0  0  0  0  0  0  0
   19.6131  -11.1567  -18.7797 O   0  0  0  0  0  0  0  0  0  0  0  0
   14.3652  -14.1065  -15.2124 O   0  0  0  0  0  0  0  0  0  0  0  0
   17.9176   -9.6019  -18.3205 N   0  0  0  0  0  0  0  0  0  0  0  0
   16.5482   -9.2980  -17.9452 C   0  0  0  0  0  0  0  0  0  0  0  0
   16.2903   -7.9662  -18.5883 C   0  0  0  0  0  0  0  0  0  0  0  0
   17.5915   -7.5012  -19.1774 C   0  0  0  0  0  0  0  0  0  0  0  0
   18.6040   -8.3672  -18.4032 C   0  0  1  0  0  0  0  0  0  0  0  0
   18.8135   -7.8390  -17.0267 C   0  0  0  0  0  0  0  0  0  0  0  0
   17.9612   -8.0255  -16.1235 O   0  0  0  0  0  0  0  0  0  0  0  0
   19.9746   -7.1031  -16.6599 N   0  0  0  0  0  0  0  0  0  0  0  0
   20.2556   -6.7092  -15.2835 C   0  0  1  0  0  0  0  0  0  0  0  0
   21.6833   -6.9236  -14.9227 C   0  0  0  0  0  0  0  0  0  0  0  0
   22.0740   -8.3249  -15.1457 C   0  0  0  0  0  0  0  0  0  0  0  0
   21.4886   -9.4372  -14.5502 C   0  0  0  0  0  0  0  0  0  0  0  0
   22.0979  -10.5553  -14.9845 N   0  0  0  0  0  0  0  0  0  0  0  0
   23.0514  -10.1683  -15.8385 C   0  0  0  0  0  0  0  0  0  0  0  0
   23.0341   -8.8303  -15.9327 N   0  0  0  0  0  0  0  0  0  0  0  0
   19.8995   -5.2852  -15.1099 C   0  0  0  0  0  0  0  0  0  0  0  0
   19.5735   -4.6407  -16.1674 O   0  0  0  0  0  0  0  0  0  0  0  0
   19.8934   -4.6116  -13.8960 O   0  0  0  0  0  0  0  0  0  0  0  0
  2  1  1  1
  2  7  1  0
  3  2  1  0
  4  3  1  0
  5  6  2  0
  5  4  1  0
  7  8  2  0
  7 10  1  0
  9  5  1  0
 10 14  1  0
 10 11  1  0
 11 12  1  0
 13 12  1  0
 14 13  1  0
 14 15  1  1
 16 15  2  0
 17 15  1  0
 18 19  1  6
 18 17  1  0
 20 19  1  0
 21 20  2  0
 22 23  1  0
 22 21  1  0
 23 24  2  0
 24 20  1  0
 25 18  1  0
 26 25  2  0
 27 25  1  0
M  END
$$$$
