EPH.pdb
     RDKit          3D

 27 28  0  0  1  0  0  0  0  0999 V2000
   28.5883  -33.9685   -4.0168 N   0  0  0  0  0  0  0  0  0  0  0  0
   28.0053  -34.3631   -5.2479 C   0  0  1  0  0  0  0  0  0  0  0  0
   27.3963  -35.7726   -5.1541 C   0  0  0  0  0  0  0  0  0  0  0  0
   28.3929  -36.8231   -5.6064 C   0  0  0  0  0  0  0  0  0  0  0  0
   27.8515  -38.1820   -5.4461 C   0  0  0  0  0  0  0  0  0  0  0  0
   28.4538  -39.2208   -5.8324 O   0  0  0  0  0  0  0  0  0  0  0  0
   26.9378  -33.5054   -5.7783 C   0  0  0  0  0  0  0  0  0  0  0  0
   26.3625  -32.7753   -4.8744 O   0  0  0  0  0  0  0  0  0  0  0  0
   26.6141  -38.3363   -4.8391 O   0  0  0  0  0  0  0  0  0  0  0  0
   26.5395  -33.4408   -7.1169 N   0  0  0  0  0  0  0  0  0  0  0  0
   27.0821  -34.3242   -8.1335 C   0  0  0  0  0  0  0  0  0  0  0  0
   27.0566  -33.4893   -9.3809 C   0  0  0  0  0  0  0  0  0  0  0  0
   26.3501  -32.2082   -9.0400 C   0  0  0  0  0  0  0  0  0  0  0  0
   25.5923  -32.6087   -7.7596 C   0  0  1  0  0  0  0  0  0  0  0  0
   24.3845  -33.4164   -8.0864 C   0  0  0  0  0  0  0  0  0  0  0  0
   24.4658  -34.6534   -8.2862 O   0  0  0  0  0  0  0  0  0  0  0  0
   23.0869  -32.8419   -8.1894 N   0  0  0  0  0  0  0  0  0  0  0  0
   21.9872  -33.2163   -7.3069 C   0  0  1  0  0  0  0  0  0  0  0  0
   22.3185  -32.9853   -5.8746 C   0  0  0  0  0  0  0  0  0  0  0  0
   21.1961  -33.3801   -5.0083 C   0  0  0  0  0  0  0  0  0  0  0  0
   20.0116  -33.9738   -5.4314 C   0  0  0  0  0  0  0  0  0  0  0  0
   19.2135  -34.1954   -4.3713 N   0  0  0  0  0  0  0  0  0  0  0  0
   19.8713  -33.7541   -3.2940 C   0  0  0  0  0  0  0  0  0  0  0  0
   21.0598  -33.2659   -3.6798 N   0  0  0  0  0  0  0  0  0  0  0  0
   20.7870  -32.4381   -7.6792 C   0  0  0  0  0  0  0  0  0  0  0  0
   19.7070  -32.7082   -7.0461 O   0  0  0  0  0  0  0  0  0  0  0  0
   20.7539  -31.4487   -8.6524 O   0  0  0  0  0  0  0  0  0  0  0  0
  2  1  1  1
  2  7  1  0
  3  2  1  0
  4  3  1  0
  5  6  2  0
  5  4  1  0
  7  8  2  0
  7 10  1  0
  9  5  1  0
 10 14  1  0
 10 11  1  0
 11 12  1  0
 13 12  1  0
 14 13  1  0
 14 15  1  6
 16 15  2  0
 17 15  1  0
 18 19  1  1
 18 17  1  0
 20 19  1  0
 21 20  2  0
 22 23  1  0
 22 21  1  0
 23 24  2  0
 24 20  1  0
 25 18  1  0
 26 25  2  0
 27 25  1  0
M  END
$$$$
