EPH.pdb
     RDKit          3D

 27 28  0  0  1  0  0  0  0  0999 V2000
   24.9741  -15.6279  -16.9512 N   0  0  0  0  0  0  0  0  0  0  0  0
   25.2876  -14.2948  -17.3197 C   0  0  1  0  0  0  0  0  0  0  0  0
   24.5502  -13.8795  -18.6043 C   0  0  0  0  0  0  0  0  0  0  0  0
   24.6852  -14.9467  -19.6739 C   0  0  0  0  0  0  0  0  0  0  0  0
   23.3725  -15.3372  -20.2124 C   0  0  0  0  0  0  0  0  0  0  0  0
   22.3706  -15.5885  -19.4885 O   0  0  0  0  0  0  0  0  0  0  0  0
   24.9856  -13.2486  -16.3344 C   0  0  0  0  0  0  0  0  0  0  0  0
   24.1933  -13.6425  -15.3868 O   0  0  0  0  0  0  0  0  0  0  0  0
   23.2217  -15.4362  -21.5874 O   0  0  0  0  0  0  0  0  0  0  0  0
   25.4771  -11.9401  -16.3649 N   0  0  0  0  0  0  0  0  0  0  0  0
   26.3243  -11.4520  -17.4384 C   0  0  0  0  0  0  0  0  0  0  0  0
   27.2077  -10.4431  -16.7637 C   0  0  0  0  0  0  0  0  0  0  0  0
   26.7109  -10.2941  -15.3540 C   0  0  0  0  0  0  0  0  0  0  0  0
   25.2823  -10.8593  -15.4723 C   0  0  1  0  0  0  0  0  0  0  0  0
   24.3688   -9.8690  -16.1067 C   0  0  0  0  0  0  0  0  0  0  0  0
   24.3904   -9.6671  -17.3459 O   0  0  0  0  0  0  0  0  0  0  0  0
   23.4317   -9.1050  -15.3566 N   0  0  0  0  0  0  0  0  0  0  0  0
   22.1691   -8.6360  -15.9173 C   0  0  1  0  0  0  0  0  0  0  0  0
   21.0100   -8.9899  -15.0537 C   0  0  0  0  0  0  0  0  0  0  0  0
   19.7563   -8.4689  -15.6222 C   0  0  0  0  0  0  0  0  0  0  0  0
   19.0190   -9.0591  -16.6433 C   0  0  0  0  0  0  0  0  0  0  0  0
   17.9333   -8.3100  -16.9077 N   0  0  0  0  0  0  0  0  0  0  0  0
   17.9740   -7.2641  -16.0754 C   0  0  0  0  0  0  0  0  0  0  0  0
   19.0685   -7.3628  -15.3060 N   0  0  0  0  0  0  0  0  0  0  0  0
   22.2378   -7.1701  -16.0940 C   0  0  0  0  0  0  0  0  0  0  0  0
   23.1391   -6.5519  -15.4265 O   0  0  0  0  0  0  0  0  0  0  0  0
   21.4048   -6.4314  -16.9232 O   0  0  0  0  0  0  0  0  0  0  0  0
  2  1  1  1
  2  7  1  0
  3  2  1  0
  4  3  1  0
  5  6  2  0
  5  4  1  0
  7  8  2  0
  7 10  1  0
  9  5  1  0
 10 14  1  0
 10 11  1  0
 11 12  1  0
 13 12  1  0
 14 13  1  0
 14 15  1  6
 16 15  2  0
 17 15  1  0
 18 19  1  1
 18 17  1  0
 20 19  1  0
 21 20  2  0
 22 23  1  0
 22 21  1  0
 23 24  2  0
 24 20  1  0
 25 18  1  0
 26 25  2  0
 27 25  1  0
M  END
$$$$
