EPH.pdb
     RDKit          3D

 27 28  0  0  1  0  0  0  0  0999 V2000
   25.8858  -20.8367  -10.6390 N   0  0  0  0  0  0  0  0  0  0  0  0
   26.4300  -20.7079  -11.9423 C   0  0  1  0  0  0  0  0  0  0  0  0
   26.4325  -22.0550  -12.6850 C   0  0  0  0  0  0  0  0  0  0  0  0
   25.0221  -22.5940  -12.8312 C   0  0  0  0  0  0  0  0  0  0  0  0
   24.6176  -22.6652  -14.2444 C   0  0  0  0  0  0  0  0  0  0  0  0
   23.4204  -22.5735  -14.6307 O   0  0  0  0  0  0  0  0  0  0  0  0
   25.7650  -19.7596  -12.8451 C   0  0  0  0  0  0  0  0  0  0  0  0
   24.6442  -19.3017  -12.3814 O   0  0  0  0  0  0  0  0  0  0  0  0
   25.5994  -22.8422  -15.2078 O   0  0  0  0  0  0  0  0  0  0  0  0
   26.2477  -19.3534  -14.0927 N   0  0  0  0  0  0  0  0  0  0  0  0
   27.4273  -19.9433  -14.7001 C   0  0  0  0  0  0  0  0  0  0  0  0
   28.0213  -18.8152  -15.4928 C   0  0  0  0  0  0  0  0  0  0  0  0
   27.0551  -17.6674  -15.4191 C   0  0  0  0  0  0  0  0  0  0  0  0
   25.7576  -18.3868  -15.0027 C   0  0  1  0  0  0  0  0  0  0  0  0
   25.1408  -19.0867  -16.1635 C   0  0  0  0  0  0  0  0  0  0  0  0
   25.5976  -20.1799  -16.5794 O   0  0  0  0  0  0  0  0  0  0  0  0
   24.0142  -18.5652  -16.8587 N   0  0  0  0  0  0  0  0  0  0  0  0
   22.6462  -18.9770  -16.5631 C   0  0  1  0  0  0  0  0  0  0  0  0
   22.2896  -18.7437  -15.1372 C   0  0  0  0  0  0  0  0  0  0  0  0
   20.8951  -19.1354  -14.8763 C   0  0  0  0  0  0  0  0  0  0  0  0
   20.2109  -20.1723  -15.5017 C   0  0  0  0  0  0  0  0  0  0  0  0
   18.9578  -20.2436  -15.0173 N   0  0  0  0  0  0  0  0  0  0  0  0
   18.8419  -19.2749  -14.1027 C   0  0  0  0  0  0  0  0  0  0  0  0
   20.0056  -18.6125  -14.0209 N   0  0  0  0  0  0  0  0  0  0  0  0
   21.7205  -18.2331  -17.4430 C   0  0  0  0  0  0  0  0  0  0  0  0
   21.9527  -16.9831  -17.5968 O   0  0  0  0  0  0  0  0  0  0  0  0
   20.6348  -18.7908  -18.1044 O   0  0  0  0  0  0  0  0  0  0  0  0
  2  1  1  1
  2  7  1  0
  3  2  1  0
  4  3  1  0
  5  6  2  0
  5  4  1  0
  7  8  2  0
  7 10  1  0
  9  5  1  0
 10 14  1  0
 10 11  1  0
 11 12  1  0
 13 12  1  0
 14 13  1  0
 14 15  1  6
 16 15  2  0
 17 15  1  0
 18 19  1  1
 18 17  1  0
 20 19  1  0
 21 20  2  0
 22 23  1  0
 22 21  1  0
 23 24  2  0
 24 20  1  0
 25 18  1  0
 26 25  2  0
 27 25  1  0
M  END
$$$$
