MCA.pdb
     RDKit          3D

 20 19  0  0  1  0  0  0  0  0999 V2000
   27.9348  -10.8907  -15.4425 C   0  0  0  0  0  0  0  0  0  0  0  0
   27.1648  -12.4339  -16.0076 S   0  0  0  0  0  0  0  0  0  0  0  0
   25.7877  -12.0254  -17.1016 C   0  0  0  0  0  0  0  0  0  0  0  0
   24.6534  -11.4863  -16.2640 C   0  0  0  0  0  0  0  0  0  0  0  0
   23.4806  -11.0298  -17.0889 C   0  0  2  0  0  0  0  0  0  0  0  0
   23.8558  -10.3352  -18.2908 N   0  0  0  0  0  0  0  0  0  0  0  0
   22.6095  -10.2071  -16.2135 C   0  0  0  0  0  0  0  0  0  0  0  0
   22.1344  -10.6699  -15.1451 O   0  0  0  0  0  0  0  0  0  0  0  0
   22.2814   -8.8517  -16.5615 N   0  0  0  0  0  0  0  0  0  0  0  0
   21.5322   -8.0268  -15.6230 C   0  0  1  0  0  0  0  0  0  0  0  0
   22.3720   -6.7968  -15.3066 C   0  0  0  0  0  0  0  0  0  0  0  0
   21.4168   -5.7107  -14.2360 S   0  0  0  0  0  0  0  0  0  0  0  0
   20.2697   -7.6295  -16.2977 C   0  0  0  0  0  0  0  0  0  0  0  0
   20.2813   -7.1954  -17.4960 O   0  0  0  0  0  0  0  0  0  0  0  0
   16.6548   -8.0462  -15.7956 C   0  0  0  0  0  0  0  0  0  0  0  0
   17.8236   -7.2449  -16.3286 C   0  0  2  0  0  0  0  0  0  0  0  0
   19.0179   -7.7109  -15.6595 N   0  0  0  0  0  0  0  0  0  0  0  0
   17.6550   -5.8039  -16.0429 C   0  0  0  0  0  0  0  0  0  0  0  0
   16.6538   -5.1091  -16.7039 O   0  0  0  0  0  0  0  0  0  0  0  0
   18.3890   -5.2058  -15.2261 O   0  0  0  0  0  0  0  0  0  0  0  0
  2  1  1  0
  3  2  1  0
  4  3  1  0
  4  5  1  0
  5  6  1  6
  7  5  1  0
  7  9  1  0
  8  7  2  0
 10  9  1  0
 10 13  1  0
 10 11  1  6
 12 11  1  0
 13 17  1  0
 13 14  2  0
 16 15  1  1
 16 18  1  0
 17 16  1  0
 18 19  1  0
 20 18  2  0
M  END
$$$$
