MCA.pdb
     RDKit          3D

 20 19  0  0  1  0  0  0  0  0999 V2000
   23.7867  -10.2486  -23.6012 C   0  0  0  0  0  0  0  0  0  0  0  0
   23.3750   -9.3710  -22.0669 S   0  0  0  0  0  0  0  0  0  0  0  0
   21.8640  -10.0834  -21.3816 C   0  0  0  0  0  0  0  0  0  0  0  0
   21.5851   -9.4275  -20.0509 C   0  0  0  0  0  0  0  0  0  0  0  0
   21.0050  -10.3779  -19.0387 C   0  0  2  0  0  0  0  0  0  0  0  0
   20.1092  -11.3491  -19.6060 N   0  0  0  0  0  0  0  0  0  0  0  0
   20.3551   -9.5649  -17.9809 C   0  0  0  0  0  0  0  0  0  0  0  0
   19.1892   -9.1165  -18.1262 O   0  0  0  0  0  0  0  0  0  0  0  0
   21.0410   -9.2645  -16.7541 N   0  0  0  0  0  0  0  0  0  0  0  0
   20.3359   -8.5711  -15.6842 C   0  0  1  0  0  0  0  0  0  0  0  0
   20.3825   -9.4533  -14.4440 C   0  0  0  0  0  0  0  0  0  0  0  0
   18.8518  -10.3948  -14.3526 S   0  0  0  0  0  0  0  0  0  0  0  0
   21.0565   -7.2958  -15.4372 C   0  0  0  0  0  0  0  0  0  0  0  0
   22.3304   -7.2548  -15.4534 O   0  0  0  0  0  0  0  0  0  0  0  0
   20.1106   -3.7175  -15.0349 C   0  0  0  0  0  0  0  0  0  0  0  0
   21.1168   -4.8484  -15.0643 C   0  0  2  0  0  0  0  0  0  0  0  0
   20.3815   -6.0885  -15.1772 N   0  0  0  0  0  0  0  0  0  0  0  0
   21.9132   -4.8843  -13.8189 C   0  0  0  0  0  0  0  0  0  0  0  0
   23.0366   -4.0772  -13.7262 O   0  0  0  0  0  0  0  0  0  0  0  0
   21.5975   -5.6198  -12.8582 O   0  0  0  0  0  0  0  0  0  0  0  0
  2  1  1  0
  3  2  1  0
  4  3  1  0
  4  5  1  0
  5  6  1  6
  7  5  1  0
  7  9  1  0
  8  7  2  0
 10  9  1  0
 10 13  1  0
 10 11  1  1
 12 11  1  0
 13 17  1  0
 13 14  2  0
 16 15  1  1
 16 18  1  0
 17 16  1  0
 18 19  1  0
 20 18  2  0
M  END
$$$$
