MCA.pdb
     RDKit          3D

 20 19  0  0  1  0  0  0  0  0999 V2000
   27.1368  -18.9484   -8.4056 C   0  0  0  0  0  0  0  0  0  0  0  0
   26.6689  -20.6557   -8.0053 S   0  0  0  0  0  0  0  0  0  0  0  0
   25.3835  -21.1873   -9.1567 C   0  0  0  0  0  0  0  0  0  0  0  0
   25.4570  -20.3210  -10.3908 C   0  0  0  0  0  0  0  0  0  0  0  0
   25.3104  -21.1046  -11.6670 C   0  0  2  0  0  0  0  0  0  0  0  0
   26.4184  -21.9803  -11.9371 N   0  0  0  0  0  0  0  0  0  0  0  0
   25.0809  -20.1339  -12.7657 C   0  0  0  0  0  0  0  0  0  0  0  0
   24.1283  -19.3140  -12.7239 O   0  0  0  0  0  0  0  0  0  0  0  0
   25.9437  -20.1012  -13.9147 N   0  0  0  0  0  0  0  0  0  0  0  0
   25.6791  -19.1536  -14.9892 C   0  0  1  0  0  0  0  0  0  0  0  0
   26.7716  -18.0935  -14.9585 C   0  0  0  0  0  0  0  0  0  0  0  0
   28.1768  -18.7451  -14.0426 S   0  0  0  0  0  0  0  0  0  0  0  0
   25.7314  -19.9110  -16.2661 C   0  0  0  0  0  0  0  0  0  0  0  0
   26.5749  -20.8524  -16.4299 O   0  0  0  0  0  0  0  0  0  0  0  0
   23.6109  -20.2527  -19.2788 C   0  0  0  0  0  0  0  0  0  0  0  0
   24.9286  -20.4211  -18.5525 C   0  0  2  0  0  0  0  0  0  0  0  0
   24.8673  -19.6329  -17.3416 N   0  0  0  0  0  0  0  0  0  0  0  0
   26.0559  -19.9335  -19.3758 C   0  0  0  0  0  0  0  0  0  0  0  0
   26.6485  -18.7257  -19.0409 O   0  0  0  0  0  0  0  0  0  0  0  0
   26.4810  -20.5813  -20.3573 O   0  0  0  0  0  0  0  0  0  0  0  0
  2  1  1  0
  3  2  1  0
  4  3  1  0
  4  5  1  0
  5  6  1  6
  7  5  1  0
  7  9  1  0
  8  7  2  0
 10  9  1  0
 10 13  1  0
 10 11  1  6
 12 11  1  0
 13 17  1  0
 13 14  2  0
 16 15  1  6
 16 18  1  0
 17 16  1  0
 18 19  1  0
 20 18  2  0
M  END
$$$$
