MCA.pdb
     RDKit          3D

 20 19  0  0  1  0  0  0  0  0999 V2000
   27.5568  -17.9867   -7.2876 C   0  0  0  0  0  0  0  0  0  0  0  0
   27.1186  -19.5582   -6.4924 S   0  0  0  0  0  0  0  0  0  0  0  0
   27.1663  -20.8673   -7.7352 C   0  0  0  0  0  0  0  0  0  0  0  0
   26.7328  -20.2871   -9.0597 C   0  0  0  0  0  0  0  0  0  0  0  0
   26.8102  -21.2794  -10.1882 C   0  0  2  0  0  0  0  0  0  0  0  0
   28.1208  -21.8412  -10.3738 N   0  0  0  0  0  0  0  0  0  0  0  0
   26.3090  -20.6068  -11.4123 C   0  0  0  0  0  0  0  0  0  0  0  0
   27.0812  -19.9570  -12.1626 O   0  0  0  0  0  0  0  0  0  0  0  0
   24.9210  -20.6781  -11.7787 N   0  0  0  0  0  0  0  0  0  0  0  0
   24.5188  -20.3732  -13.1454 C   0  0  1  0  0  0  0  0  0  0  0  0
   25.0623  -21.4711  -14.0496 C   0  0  0  0  0  0  0  0  0  0  0  0
   24.7363  -23.0633  -13.2772 S   0  0  0  0  0  0  0  0  0  0  0  0
   23.0336  -20.3683  -13.1757 C   0  0  0  0  0  0  0  0  0  0  0  0
   22.3644  -21.1174  -12.3910 O   0  0  0  0  0  0  0  0  0  0  0  0
   20.3952  -18.3619  -14.8737 C   0  0  0  0  0  0  0  0  0  0  0  0
   20.8609  -19.4766  -13.9610 C   0  0  2  0  0  0  0  0  0  0  0  0
   22.3019  -19.5506  -14.0571 N   0  0  0  0  0  0  0  0  0  0  0  0
   20.2932  -20.7770  -14.3770 C   0  0  0  0  0  0  0  0  0  0  0  0
   19.0499  -21.1456  -13.8866 O   0  0  0  0  0  0  0  0  0  0  0  0
   20.9049  -21.5426  -15.1536 O   0  0  0  0  0  0  0  0  0  0  0  0
  2  1  1  0
  3  2  1  0
  4  3  1  0
  4  5  1  0
  5  6  1  6
  7  5  1  0
  7  9  1  0
  8  7  2  0
 10  9  1  0
 10 13  1  0
 10 11  1  6
 12 11  1  0
 13 17  1  0
 13 14  2  0
 16 15  1  6
 16 18  1  0
 17 16  1  0
 18 19  1  0
 20 18  2  0
M  END
$$$$
