MCA.pdb
     RDKit          3D

 20 19  0  0  1  0  0  0  0  0999 V2000
   22.0102  -21.3965  -13.2539 C   0  0  0  0  0  0  0  0  0  0  0  0
   22.7178  -20.0462  -14.2386 S   0  0  0  0  0  0  0  0  0  0  0  0
   24.1105  -20.6927  -15.1888 C   0  0  0  0  0  0  0  0  0  0  0  0
   24.1597  -22.1908  -15.0087 C   0  0  0  0  0  0  0  0  0  0  0  0
   25.2930  -22.8349  -15.7603 C   0  0  2  0  0  0  0  0  0  0  0  0
   25.3589  -22.4521  -17.1447 N   0  0  0  0  0  0  0  0  0  0  0  0
   25.1674  -24.3037  -15.5891 C   0  0  0  0  0  0  0  0  0  0  0  0
   25.1986  -24.8328  -14.4487 O   0  0  0  0  0  0  0  0  0  0  0  0
   25.0055  -25.1686  -16.7254 N   0  0  0  0  0  0  0  0  0  0  0  0
   24.7907  -26.5952  -16.5217 C   0  0  1  0  0  0  0  0  0  0  0  0
   23.5141  -26.9858  -17.2539 C   0  0  0  0  0  0  0  0  0  0  0  0
   22.1391  -26.8946  -16.0968 S   0  0  0  0  0  0  0  0  0  0  0  0
   25.9581  -27.3034  -17.1070 C   0  0  0  0  0  0  0  0  0  0  0  0
   26.4968  -26.8888  -18.1852 O   0  0  0  0  0  0  0  0  0  0  0  0
   28.6115  -29.4728  -15.9742 C   0  0  0  0  0  0  0  0  0  0  0  0
   27.6751  -29.0878  -17.0999 C   0  0  2  0  0  0  0  0  0  0  0  0
   26.5193  -28.4484  -16.5113 N   0  0  0  0  0  0  0  0  0  0  0  0
   27.2240  -30.2808  -17.8481 C   0  0  0  0  0  0  0  0  0  0  0  0
   28.1650  -31.0199  -18.5482 O   0  0  0  0  0  0  0  0  0  0  0  0
   26.0242  -30.6327  -17.8620 O   0  0  0  0  0  0  0  0  0  0  0  0
  2  1  1  0
  3  2  1  0
  4  3  1  0
  4  5  1  0
  5  6  1  6
  7  5  1  0
  7  9  1  0
  8  7  2  0
 10  9  1  0
 10 13  1  0
 10 11  1  6
 12 11  1  0
 13 17  1  0
 13 14  2  0
 16 15  1  1
 16 18  1  0
 17 16  1  0
 18 19  1  0
 20 18  2  0
M  END
$$$$
