MCA.pdb
     RDKit          3D

 20 19  0  0  1  0  0  0  0  0999 V2000
   22.9048  -20.7991   -8.4596 C   0  0  0  0  0  0  0  0  0  0  0  0
   24.6450  -20.4906   -8.0470 S   0  0  0  0  0  0  0  0  0  0  0  0
   25.6839  -21.4359   -9.1817 C   0  0  0  0  0  0  0  0  0  0  0  0
   26.1903  -20.5050  -10.2568 C   0  0  0  0  0  0  0  0  0  0  0  0
   25.3696  -20.5625  -11.5167 C   0  0  2  0  0  0  0  0  0  0  0  0
   24.7630  -21.8447  -11.7523 N   0  0  0  0  0  0  0  0  0  0  0  0
   26.2419  -20.1389  -12.6400 C   0  0  0  0  0  0  0  0  0  0  0  0
   26.8753  -19.0532  -12.6009 O   0  0  0  0  0  0  0  0  0  0  0  0
   26.3897  -20.9596  -13.8106 N   0  0  0  0  0  0  0  0  0  0  0  0
   27.1939  -20.4842  -14.9285 C   0  0  1  0  0  0  0  0  0  0  0  0
   28.2581  -21.5335  -15.2196 C   0  0  0  0  0  0  0  0  0  0  0  0
   29.0361  -21.1394  -16.7936 S   0  0  0  0  0  0  0  0  0  0  0  0
   26.2837  -20.3360  -16.0932 C   0  0  0  0  0  0  0  0  0  0  0  0
   25.5705  -21.3150  -16.4901 O   0  0  0  0  0  0  0  0  0  0  0  0
   24.8392  -17.5605  -18.0312 C   0  0  0  0  0  0  0  0  0  0  0  0
   25.2337  -19.0169  -17.9070 C   0  0  2  0  0  0  0  0  0  0  0  0
   26.1642  -19.1281  -16.8056 N   0  0  0  0  0  0  0  0  0  0  0  0
   25.9005  -19.4943  -19.1374 C   0  0  0  0  0  0  0  0  0  0  0  0
   25.1152  -19.9752  -20.1738 O   0  0  0  0  0  0  0  0  0  0  0  0
   27.1446  -19.4731  -19.2609 O   0  0  0  0  0  0  0  0  0  0  0  0
  2  1  1  0
  3  2  1  0
  4  3  1  0
  4  5  1  0
  5  6  1  6
  7  5  1  0
  7  9  1  0
  8  7  2  0
 10  9  1  0
 10 13  1  0
 10 11  1  6
 12 11  1  0
 13 17  1  0
 13 14  2  0
 16 15  1  6
 16 18  1  0
 17 16  1  0
 18 19  1  0
 20 18  2  0
M  END
$$$$
