MCA.pdb
     RDKit          3D

 20 19  0  0  1  0  0  0  0  0999 V2000
   18.1504  -17.6416  -19.2269 C   0  0  0  0  0  0  0  0  0  0  0  0
   18.3044  -19.1866  -18.2871 S   0  0  0  0  0  0  0  0  0  0  0  0
   19.9833  -19.2991  -17.6320 C   0  0  0  0  0  0  0  0  0  0  0  0
   20.3117  -18.0040  -16.9294 C   0  0  0  0  0  0  0  0  0  0  0  0
   21.7434  -17.9315  -16.4721 C   0  0  2  0  0  0  0  0  0  0  0  0
   22.1157  -18.9883  -15.5709 N   0  0  0  0  0  0  0  0  0  0  0  0
   21.9580  -16.5875  -15.8807 C   0  0  0  0  0  0  0  0  0  0  0  0
   21.7864  -16.3800  -14.6524 O   0  0  0  0  0  0  0  0  0  0  0  0
   22.3700  -15.4785  -16.6969 N   0  0  0  0  0  0  0  0  0  0  0  0
   22.6291  -14.1848  -16.0791 C   0  0  1  0  0  0  0  0  0  0  0  0
   24.1281  -13.9262  -16.1447 C   0  0  0  0  0  0  0  0  0  0  0  0
   24.9030  -14.6790  -14.7056 S   0  0  0  0  0  0  0  0  0  0  0  0
   21.8948  -13.1646  -16.8710 C   0  0  0  0  0  0  0  0  0  0  0  0
   22.1027  -13.0389  -18.1222 O   0  0  0  0  0  0  0  0  0  0  0  0
   19.2364  -10.6319  -16.2401 C   0  0  0  0  0  0  0  0  0  0  0  0
   20.3377  -11.2499  -17.0753 C   0  0  2  0  0  0  0  0  0  0  0  0
   20.9484  -12.2998  -16.2903 N   0  0  0  0  0  0  0  0  0  0  0  0
   21.3737  -10.2505  -17.4131 C   0  0  0  0  0  0  0  0  0  0  0  0
   21.1877   -9.4545  -18.5329 O   0  0  0  0  0  0  0  0  0  0  0  0
   22.4029  -10.1101  -16.7169 O   0  0  0  0  0  0  0  0  0  0  0  0
  2  1  1  0
  3  2  1  0
  4  3  1  0
  4  5  1  0
  5  6  1  1
  7  5  1  0
  7  9  1  0
  8  7  2  0
 10  9  1  0
 10 13  1  0
 10 11  1  6
 12 11  1  0
 13 17  1  0
 13 14  2  0
 16 15  1  1
 16 18  1  0
 17 16  1  0
 18 19  1  0
 20 18  2  0
M  END
$$$$
