MCA.pdb
     RDKit          3D

 20 19  0  0  1  0  0  0  0  0999 V2000
   27.4606  -18.0324   -6.2499 C   0  0  0  0  0  0  0  0  0  0  0  0
   28.0924  -19.6810   -6.6704 S   0  0  0  0  0  0  0  0  0  0  0  0
   26.7530  -20.6423   -7.4067 C   0  0  0  0  0  0  0  0  0  0  0  0
   26.5131  -20.1354   -8.8082 C   0  0  0  0  0  0  0  0  0  0  0  0
   26.6192  -21.2167   -9.8492 C   0  0  2  0  0  0  0  0  0  0  0  0
   27.8996  -21.8705   -9.8740 N   0  0  0  0  0  0  0  0  0  0  0  0
   26.2711  -20.6136  -11.1597 C   0  0  0  0  0  0  0  0  0  0  0  0
   27.1521  -20.1034  -11.8978 O   0  0  0  0  0  0  0  0  0  0  0  0
   24.9119  -20.5944  -11.6264 N   0  0  0  0  0  0  0  0  0  0  0  0
   24.6396  -20.6292  -13.0572 C   0  0  1  0  0  0  0  0  0  0  0  0
   25.1218  -21.9703  -13.5933 C   0  0  0  0  0  0  0  0  0  0  0  0
   24.8783  -21.9959  -15.3760 S   0  0  0  0  0  0  0  0  0  0  0  0
   23.1692  -20.5043  -13.2280 C   0  0  0  0  0  0  0  0  0  0  0  0
   22.3717  -21.2384  -12.5574 O   0  0  0  0  0  0  0  0  0  0  0  0
   20.8564  -18.3123  -15.1653 C   0  0  0  0  0  0  0  0  0  0  0  0
   21.1554  -19.4241  -14.1821 C   0  0  2  0  0  0  0  0  0  0  0  0
   22.5914  -19.5848  -14.1233 N   0  0  0  0  0  0  0  0  0  0  0  0
   20.5559  -20.7012  -14.6248 C   0  0  0  0  0  0  0  0  0  0  0  0
   21.3114  -21.5481  -15.4211 O   0  0  0  0  0  0  0  0  0  0  0  0
   19.3941  -21.0294  -14.2990 O   0  0  0  0  0  0  0  0  0  0  0  0
  2  1  1  0
  3  2  1  0
  4  3  1  0
  4  5  1  0
  5  6  1  6
  7  5  1  0
  7  9  1  0
  8  7  2  0
 10  9  1  0
 10 13  1  0
 10 11  1  1
 12 11  1  0
 13 17  1  0
 13 14  2  0
 16 15  1  6
 16 18  1  0
 17 16  1  0
 18 19  1  0
 20 18  2  0
M  END
$$$$
