MEF.pdb
     RDKit          3D

 29 29  0  0  1  0  0  0  0  0999 V2000
   19.9329  -16.3950  -19.4636 C   0  0  0  0  0  0  0  0  0  0  0  0
   20.0556  -14.8724  -18.4827 S   0  0  0  0  0  0  0  0  0  0  0  0
   20.0102  -13.4226  -19.5231 C   0  0  0  0  0  0  0  0  0  0  0  0
   20.1284  -12.1293  -18.7658 C   0  0  0  0  0  0  0  0  0  0  0  0
   20.1141  -10.9206  -19.6697 C   0  0  2  0  0  0  0  0  0  0  0  0
   21.0052  -11.0872  -20.8043 N   0  0  0  0  0  0  0  0  0  0  0  0
   20.5262   -9.6896  -18.9460 C   0  0  0  0  0  0  0  0  0  0  0  0
   21.6799   -9.1922  -19.0910 O   0  0  0  0  0  0  0  0  0  0  0  0
   19.6412   -9.0133  -18.0558 N   0  0  0  0  0  0  0  0  0  0  0  0
   20.0352   -7.7656  -17.3834 C   0  0  1  0  0  0  0  0  0  0  0  0
   18.9478   -6.7846  -17.6601 C   0  0  0  0  0  0  0  0  0  0  0  0
   19.1193   -5.9389  -18.8735 C   0  0  0  0  0  0  0  0  0  0  0  0
   18.1205   -6.1825  -19.9377 C   0  0  0  0  0  0  0  0  0  0  0  0
   17.2489   -7.0808  -19.8533 O   0  0  0  0  0  0  0  0  0  0  0  0
   20.0523   -8.0619  -15.9201 C   0  0  0  0  0  0  0  0  0  0  0  0
   19.1983   -8.9057  -15.5256 O   0  0  0  0  0  0  0  0  0  0  0  0
   18.1947   -5.3470  -21.0668 O   0  0  0  0  0  0  0  0  0  0  0  0
   20.9674   -7.4334  -15.0483 N   0  0  0  0  0  0  0  0  0  0  0  0
   20.9633   -7.7097  -13.6347 C   0  0  1  0  0  0  0  0  0  0  0  0
   22.3735   -7.7172  -13.1510 C   0  0  0  0  0  0  0  0  0  0  0  0
   22.5208   -7.9935  -11.7009 C   0  0  0  0  0  0  0  0  0  0  0  0
   22.8076   -9.2701  -11.2764 C   0  0  0  0  0  0  0  0  0  0  0  0
   22.9448   -9.5154   -9.9259 C   0  0  0  0  0  0  0  0  0  0  0  0
   22.8090   -8.5397   -8.9621 C   0  0  0  0  0  0  0  0  0  0  0  0
   22.5222   -7.2683   -9.4038 C   0  0  0  0  0  0  0  0  0  0  0  0
   22.3829   -7.0107  -10.7486 C   0  0  0  0  0  0  0  0  0  0  0  0
   20.0616   -6.7848  -12.9295 C   0  0  0  0  0  0  0  0  0  0  0  0
   19.3236   -7.1910  -11.8282 O   0  0  0  0  0  0  0  0  0  0  0  0
   19.9334   -5.5970  -13.3058 O   0  0  0  0  0  0  0  0  0  0  0  0
  2  1  1  0
  3  4  1  0
  3  2  1  0
  4  5  1  0
  5  6  1  6
  7  8  2  0
  7  5  1  0
  9  7  1  0
 10  9  1  0
 10 11  1  1
 12 13  1  0
 12 11  1  0
 13 14  2  0
 15 10  1  0
 16 15  2  0
 17 13  1  0
 18 15  1  0
 19 18  1  0
 19 20  1  1
 20 21  1  0
 21 26  2  0
 21 22  1  0
 22 23  2  0
 23 24  1  0
 25 24  2  0
 26 25  1  0
 27 19  1  0
 28 27  1  0
 29 27  2  0
M  END
$$$$
