MEF.pdb
     RDKit          3D

 29 29  0  0  1  0  0  0  0  0999 V2000
   21.3196  -30.8378    0.4464 C   0  0  0  0  0  0  0  0  0  0  0  0
   21.3337  -32.5330   -0.2026 S   0  0  0  0  0  0  0  0  0  0  0  0
   20.1498  -32.7341   -1.5234 C   0  0  0  0  0  0  0  0  0  0  0  0
   19.5414  -31.4424   -1.9938 C   0  0  0  0  0  0  0  0  0  0  0  0
   18.5388  -31.6403   -3.1047 C   0  0  2  0  0  0  0  0  0  0  0  0
   19.1766  -31.6478   -4.4095 N   0  0  0  0  0  0  0  0  0  0  0  0
   17.5075  -30.5701   -3.1098 C   0  0  0  0  0  0  0  0  0  0  0  0
   17.6414  -29.5262   -3.8110 O   0  0  0  0  0  0  0  0  0  0  0  0
   16.3210  -30.6705   -2.3254 N   0  0  0  0  0  0  0  0  0  0  0  0
   15.3013  -29.6103   -2.3378 C   0  0  1  0  0  0  0  0  0  0  0  0
   13.9921  -30.2920   -2.1318 C   0  0  0  0  0  0  0  0  0  0  0  0
   12.7853  -29.4206   -2.1659 C   0  0  0  0  0  0  0  0  0  0  0  0
   11.5028  -30.1414   -2.0077 C   0  0  0  0  0  0  0  0  0  0  0  0
   11.0293  -30.8822   -2.9027 O   0  0  0  0  0  0  0  0  0  0  0  0
   15.5807  -28.7422   -1.1555 C   0  0  0  0  0  0  0  0  0  0  0  0
   16.0028  -29.3428   -0.1269 O   0  0  0  0  0  0  0  0  0  0  0  0
   10.8280  -29.9549   -0.7878 O   0  0  0  0  0  0  0  0  0  0  0  0
   15.3817  -27.3454   -1.1992 N   0  0  0  0  0  0  0  0  0  0  0  0
   15.6827  -26.5118   -0.0639 C   0  0  1  0  0  0  0  0  0  0  0  0
   16.6367  -25.4509   -0.4968 C   0  0  0  0  0  0  0  0  0  0  0  0
   17.9598  -25.9600   -0.9337 C   0  0  0  0  0  0  0  0  0  0  0  0
   18.1308  -26.3882   -2.2298 C   0  0  0  0  0  0  0  0  0  0  0  0
   19.3659  -26.8574   -2.6262 C   0  0  0  0  0  0  0  0  0  0  0  0
   20.4558  -26.9231   -1.7853 C   0  0  0  0  0  0  0  0  0  0  0  0
   20.2676  -26.4909   -0.4924 C   0  0  0  0  0  0  0  0  0  0  0  0
   19.0401  -26.0204   -0.0847 C   0  0  0  0  0  0  0  0  0  0  0  0
   14.4437  -26.0251    0.5636 C   0  0  0  0  0  0  0  0  0  0  0  0
   13.1966  -26.3442    0.0484 O   0  0  0  0  0  0  0  0  0  0  0  0
   14.4796  -25.3039    1.5871 O   0  0  0  0  0  0  0  0  0  0  0  0
  2  1  1  0
  3  4  1  0
  3  2  1  0
  4  5  1  0
  5  6  1  6
  7  8  2  0
  7  5  1  0
  9  7  1  0
 10  9  1  0
 10 11  1  1
 12 13  1  0
 12 11  1  0
 13 14  2  0
 15 10  1  0
 16 15  2  0
 17 13  1  0
 18 15  1  0
 19 18  1  0
 19 20  1  6
 20 21  1  0
 21 26  2  0
 21 22  1  0
 22 23  2  0
 23 24  1  0
 25 24  2  0
 26 25  1  0
 27 19  1  0
 28 27  1  0
 29 27  2  0
M  END
$$$$
