MEF.pdb
     RDKit          3D

 29 29  0  0  1  0  0  0  0  0999 V2000
   28.1645  -18.9378   -6.5665 C   0  0  0  0  0  0  0  0  0  0  0  0
   28.6601  -20.6661   -6.3168 S   0  0  0  0  0  0  0  0  0  0  0  0
   28.8374  -21.5237   -7.8723 C   0  0  0  0  0  0  0  0  0  0  0  0
   27.9360  -21.0037   -8.9572 C   0  0  0  0  0  0  0  0  0  0  0  0
   28.2208  -21.6283  -10.3014 C   0  0  2  0  0  0  0  0  0  0  0  0
   29.6119  -21.4662  -10.6857 N   0  0  0  0  0  0  0  0  0  0  0  0
   27.3815  -21.0308  -11.3727 C   0  0  0  0  0  0  0  0  0  0  0  0
   27.5748  -19.8502  -11.7830 O   0  0  0  0  0  0  0  0  0  0  0  0
   26.3209  -21.7597  -11.9866 N   0  0  0  0  0  0  0  0  0  0  0  0
   25.4750  -21.1537  -13.0265 C   0  0  1  0  0  0  0  0  0  0  0  0
   25.6258  -22.0120  -14.2355 C   0  0  0  0  0  0  0  0  0  0  0  0
   24.8202  -21.6189  -15.4245 C   0  0  0  0  0  0  0  0  0  0  0  0
   25.2090  -20.3257  -16.0291 C   0  0  0  0  0  0  0  0  0  0  0  0
   26.4011  -19.9395  -16.0899 O   0  0  0  0  0  0  0  0  0  0  0  0
   24.0677  -21.2563  -12.5384 C   0  0  0  0  0  0  0  0  0  0  0  0
   23.8592  -22.1409  -11.6603 O   0  0  0  0  0  0  0  0  0  0  0  0
   24.1635  -19.5362  -16.5410 O   0  0  0  0  0  0  0  0  0  0  0  0
   23.0490  -20.4144  -13.0344 N   0  0  0  0  0  0  0  0  0  0  0  0
   21.6826  -20.5604  -12.6029 C   0  0  1  0  0  0  0  0  0  0  0  0
   21.3269  -19.3862  -11.7558 C   0  0  0  0  0  0  0  0  0  0  0  0
   19.8938  -19.3160  -11.3792 C   0  0  0  0  0  0  0  0  0  0  0  0
   19.4650  -19.9130  -10.2164 C   0  0  0  0  0  0  0  0  0  0  0  0
   18.1306  -19.8396   -9.8745 C   0  0  0  0  0  0  0  0  0  0  0  0
   17.1873  -19.1923  -10.6430 C   0  0  0  0  0  0  0  0  0  0  0  0
   17.6330  -18.6006  -11.8027 C   0  0  0  0  0  0  0  0  0  0  0  0
   18.9618  -18.6668  -12.1548 C   0  0  0  0  0  0  0  0  0  0  0  0
   20.7984  -20.7950  -13.7557 C   0  0  0  0  0  0  0  0  0  0  0  0
   21.0925  -20.2836  -15.0105 O   0  0  0  0  0  0  0  0  0  0  0  0
   19.7481  -21.4669  -13.6364 O   0  0  0  0  0  0  0  0  0  0  0  0
  2  1  1  0
  3  4  1  0
  3  2  1  0
  4  5  1  0
  5  6  1  6
  7  8  2  0
  7  5  1  0
  9  7  1  0
 10  9  1  0
 10 11  1  6
 12 13  1  0
 12 11  1  0
 13 14  2  0
 15 10  1  0
 16 15  2  0
 17 13  1  0
 18 15  1  0
 19 18  1  0
 19 20  1  6
 20 21  1  0
 21 26  2  0
 21 22  1  0
 22 23  2  0
 23 24  1  0
 25 24  2  0
 26 25  1  0
 27 19  1  0
 28 27  1  0
 29 27  2  0
M  END
$$$$
