MEF.pdb
     RDKit          3D

 29 29  0  0  1  0  0  0  0  0999 V2000
   26.6030  -15.9795  -17.8826 C   0  0  0  0  0  0  0  0  0  0  0  0
   28.3117  -16.5903  -17.9315 S   0  0  0  0  0  0  0  0  0  0  0  0
   28.5155  -18.0365  -16.9050 C   0  0  0  0  0  0  0  0  0  0  0  0
   27.6923  -18.0079  -15.6474 C   0  0  0  0  0  0  0  0  0  0  0  0
   27.9109  -19.2233  -14.7795 C   0  0  2  0  0  0  0  0  0  0  0  0
   27.6871  -20.4560  -15.5141 N   0  0  0  0  0  0  0  0  0  0  0  0
   27.0047  -19.2261  -13.6014 C   0  0  0  0  0  0  0  0  0  0  0  0
   26.6403  -18.1505  -13.0450 O   0  0  0  0  0  0  0  0  0  0  0  0
   26.5049  -20.4399  -13.0447 N   0  0  0  0  0  0  0  0  0  0  0  0
   25.4795  -20.4350  -11.9899 C   0  0  1  0  0  0  0  0  0  0  0  0
   24.5520  -21.5574  -12.3083 C   0  0  0  0  0  0  0  0  0  0  0  0
   23.2432  -21.5493  -11.5985 C   0  0  0  0  0  0  0  0  0  0  0  0
   22.3154  -20.4821  -12.0339 C   0  0  0  0  0  0  0  0  0  0  0  0
   22.1805  -20.1536  -13.2371 O   0  0  0  0  0  0  0  0  0  0  0  0
   26.1868  -20.7456  -10.7122 C   0  0  0  0  0  0  0  0  0  0  0  0
   26.9451  -21.7562  -10.7416 O   0  0  0  0  0  0  0  0  0  0  0  0
   21.5796  -19.8423  -11.0201 O   0  0  0  0  0  0  0  0  0  0  0  0
   26.0101  -19.9540   -9.5569 N   0  0  0  0  0  0  0  0  0  0  0  0
   26.5964  -20.3303   -8.2963 C   0  0  1  0  0  0  0  0  0  0  0  0
   27.2763  -19.1367   -7.7168 C   0  0  0  0  0  0  0  0  0  0  0  0
   27.8902  -19.3688   -6.3864 C   0  0  0  0  0  0  0  0  0  0  0  0
   27.1029  -19.7775   -5.3349 C   0  0  0  0  0  0  0  0  0  0  0  0
   27.6844  -19.9927   -4.1027 C   0  0  0  0  0  0  0  0  0  0  0  0
   29.0300  -19.8192   -3.8604 C   0  0  0  0  0  0  0  0  0  0  0  0
   29.8030  -19.4102   -4.9229 C   0  0  0  0  0  0  0  0  0  0  0  0
   29.2347  -19.1921   -6.1573 C   0  0  0  0  0  0  0  0  0  0  0  0
   25.5922  -20.9652   -7.4278 C   0  0  0  0  0  0  0  0  0  0  0  0
   25.9540  -21.8788   -6.4495 O   0  0  0  0  0  0  0  0  0  0  0  0
   24.3745  -20.6978   -7.5477 O   0  0  0  0  0  0  0  0  0  0  0  0
  2  1  1  0
  3  4  1  0
  3  2  1  0
  4  5  1  0
  5  6  1  6
  7  8  2  0
  7  5  1  0
  9  7  1  0
 10  9  1  0
 10 11  1  6
 12 13  1  0
 12 11  1  0
 13 14  2  0
 15 10  1  0
 16 15  2  0
 17 13  1  0
 18 15  1  0
 19 18  1  0
 19 20  1  1
 20 21  1  0
 21 26  2  0
 21 22  1  0
 22 23  2  0
 23 24  1  0
 25 24  2  0
 26 25  1  0
 27 19  1  0
 28 27  1  0
 29 27  2  0
M  END
$$$$
