MEF.pdb
     RDKit          3D

 29 29  0  0  1  0  0  0  0  0999 V2000
   32.1929  -22.1617  -10.6470 C   0  0  0  0  0  0  0  0  0  0  0  0
   32.4433  -22.6891  -12.3658 S   0  0  0  0  0  0  0  0  0  0  0  0
   31.1561  -22.0635  -13.4327 C   0  0  0  0  0  0  0  0  0  0  0  0
   29.9860  -21.4786  -12.6919 C   0  0  0  0  0  0  0  0  0  0  0  0
   28.9106  -20.9607  -13.6158 C   0  0  2  0  0  0  0  0  0  0  0  0
   29.4253  -19.9572  -14.5308 N   0  0  0  0  0  0  0  0  0  0  0  0
   27.7851  -20.3513  -12.8602 C   0  0  0  0  0  0  0  0  0  0  0  0
   27.6248  -19.0978  -12.8094 O   0  0  0  0  0  0  0  0  0  0  0  0
   26.8353  -21.1504  -12.1585 N   0  0  0  0  0  0  0  0  0  0  0  0
   25.5956  -20.5712  -11.6183 C   0  0  1  0  0  0  0  0  0  0  0  0
   24.4813  -21.4017  -12.1565 C   0  0  0  0  0  0  0  0  0  0  0  0
   24.1523  -21.2061  -13.5954 C   0  0  0  0  0  0  0  0  0  0  0  0
   23.7345  -19.8312  -13.9482 C   0  0  0  0  0  0  0  0  0  0  0  0
   22.9308  -19.1689  -13.2487 O   0  0  0  0  0  0  0  0  0  0  0  0
   25.6558  -20.7518  -10.1373 C   0  0  0  0  0  0  0  0  0  0  0  0
   24.6007  -20.4527   -9.5092 O   0  0  0  0  0  0  0  0  0  0  0  0
   24.2889  -19.2922  -15.1232 O   0  0  0  0  0  0  0  0  0  0  0  0
   26.8205  -21.2260   -9.4961 N   0  0  0  0  0  0  0  0  0  0  0  0
   26.9749  -21.1385   -8.0668 C   0  0  1  0  0  0  0  0  0  0  0  0
   28.0755  -20.1780   -7.7687 C   0  0  0  0  0  0  0  0  0  0  0  0
   28.2553  -19.8830   -6.3260 C   0  0  0  0  0  0  0  0  0  0  0  0
   28.8132  -20.8319   -5.5010 C   0  0  0  0  0  0  0  0  0  0  0  0
   28.9780  -20.5463   -4.1616 C   0  0  0  0  0  0  0  0  0  0  0  0
   28.6101  -19.3459   -3.5932 C   0  0  0  0  0  0  0  0  0  0  0  0
   28.0536  -18.4078   -4.4323 C   0  0  0  0  0  0  0  0  0  0  0  0
   27.8840  -18.6808   -5.7706 C   0  0  0  0  0  0  0  0  0  0  0  0
   25.6857  -20.8365   -7.4246 C   0  0  0  0  0  0  0  0  0  0  0  0
   24.8207  -19.8870   -7.9471 O   0  0  0  0  0  0  0  0  0  0  0  0
   25.3301  -21.4312   -6.3813 O   0  0  0  0  0  0  0  0  0  0  0  0
  2  1  1  0
  3  4  1  0
  3  2  1  0
  4  5  1  0
  5  6  1  6
  7  8  2  0
  7  5  1  0
  9  7  1  0
 10  9  1  0
 10 11  1  6
 12 13  1  0
 12 11  1  0
 13 14  2  0
 15 10  1  0
 16 15  2  0
 17 13  1  0
 18 15  1  0
 19 18  1  0
 19 20  1  6
 20 21  1  0
 21 26  2  0
 21 22  1  0
 22 23  2  0
 23 24  1  0
 25 24  2  0
 26 25  1  0
 27 19  1  0
 28 27  1  0
 29 27  2  0
M  END
$$$$
