MEF.pdb
     RDKit          3D

 29 29  0  0  1  0  0  0  0  0999 V2000
   32.3258  -23.0126   -9.8464 C   0  0  0  0  0  0  0  0  0  0  0  0
   33.4675  -22.6562  -11.2120 S   0  0  0  0  0  0  0  0  0  0  0  0
   32.5850  -22.2267  -12.7030 C   0  0  0  0  0  0  0  0  0  0  0  0
   31.3909  -21.3443  -12.4676 C   0  0  0  0  0  0  0  0  0  0  0  0
   30.1219  -22.1288  -12.2386 C   0  0  2  0  0  0  0  0  0  0  0  0
   29.7390  -22.8877  -13.4161 N   0  0  0  0  0  0  0  0  0  0  0  0
   28.9850  -21.2407  -11.8815 C   0  0  0  0  0  0  0  0  0  0  0  0
   29.1569  -20.1858  -11.2054 O   0  0  0  0  0  0  0  0  0  0  0  0
   27.6494  -21.5362  -12.2841 N   0  0  0  0  0  0  0  0  0  0  0  0
   26.5151  -20.7085  -11.8456 C   0  0  1  0  0  0  0  0  0  0  0  0
   25.3284  -21.1966  -12.6038 C   0  0  0  0  0  0  0  0  0  0  0  0
   24.3620  -20.1563  -13.0519 C   0  0  0  0  0  0  0  0  0  0  0  0
   22.9701  -20.3763  -12.6007 C   0  0  0  0  0  0  0  0  0  0  0  0
   22.2059  -21.2072  -13.1480 O   0  0  0  0  0  0  0  0  0  0  0  0
   26.3124  -21.0040  -10.3962 C   0  0  0  0  0  0  0  0  0  0  0  0
   26.2687  -22.2297  -10.0915 O   0  0  0  0  0  0  0  0  0  0  0  0
   22.5361  -19.5983  -11.5123 O   0  0  0  0  0  0  0  0  0  0  0  0
   26.1802  -19.9724   -9.4418 N   0  0  0  0  0  0  0  0  0  0  0  0
   25.9795  -20.2666   -8.0462 C   0  0  1  0  0  0  0  0  0  0  0  0
   26.5038  -19.1252   -7.2429 C   0  0  0  0  0  0  0  0  0  0  0  0
   27.4430  -19.5177   -6.1639 C   0  0  0  0  0  0  0  0  0  0  0  0
   27.2036  -20.6590   -5.4341 C   0  0  0  0  0  0  0  0  0  0  0  0
   28.0847  -21.0160   -4.4346 C   0  0  0  0  0  0  0  0  0  0  0  0
   29.2089  -20.2836   -4.1199 C   0  0  0  0  0  0  0  0  0  0  0  0
   29.4336  -19.1450   -4.8595 C   0  0  0  0  0  0  0  0  0  0  0  0
   28.5619  -18.7782   -5.8595 C   0  0  0  0  0  0  0  0  0  0  0  0
   24.5750  -20.6234   -7.7895 C   0  0  0  0  0  0  0  0  0  0  0  0
   24.2131  -21.4073   -6.7045 O   0  0  0  0  0  0  0  0  0  0  0  0
   23.6603  -20.2277   -8.5480 O   0  0  0  0  0  0  0  0  0  0  0  0
  2  1  1  0
  3  4  1  0
  3  2  1  0
  4  5  1  0
  5  6  1  6
  7  8  2  0
  7  5  1  0
  9  7  1  0
 10  9  1  0
 10 11  1  6
 12 13  1  0
 12 11  1  0
 13 14  2  0
 15 10  1  0
 16 15  2  0
 17 13  1  0
 18 15  1  0
 19 18  1  0
 19 20  1  1
 20 21  1  0
 21 26  2  0
 21 22  1  0
 22 23  2  0
 23 24  1  0
 25 24  2  0
 26 25  1  0
 27 19  1  0
 28 27  1  0
 29 27  2  0
M  END
$$$$
