MEF.pdb
     RDKit          3D

 29 29  0  0  1  0  0  0  0  0999 V2000
   22.5007  -14.5502  -16.2948 C   0  0  0  0  0  0  0  0  0  0  0  0
   21.9406  -15.1005  -17.9315 S   0  0  0  0  0  0  0  0  0  0  0  0
   20.7418  -13.9726  -18.6224 C   0  0  0  0  0  0  0  0  0  0  0  0
   21.2082  -12.5441  -18.6653 C   0  0  0  0  0  0  0  0  0  0  0  0
   20.7024  -11.8016  -19.8782 C   0  0  2  0  0  0  0  0  0  0  0  0
   21.1584  -12.4151  -21.1131 N   0  0  0  0  0  0  0  0  0  0  0  0
   21.1531  -10.3853  -19.8817 C   0  0  0  0  0  0  0  0  0  0  0  0
   21.7564   -9.8859  -20.8747 O   0  0  0  0  0  0  0  0  0  0  0  0
   20.9265   -9.5252  -18.7673 N   0  0  0  0  0  0  0  0  0  0  0  0
   21.2568   -8.0928  -18.8242 C   0  0  1  0  0  0  0  0  0  0  0  0
   20.3097   -7.4877  -19.8032 C   0  0  0  0  0  0  0  0  0  0  0  0
   18.8804   -7.4374  -19.3891 C   0  0  0  0  0  0  0  0  0  0  0  0
   18.1710   -6.1995  -19.7809 C   0  0  0  0  0  0  0  0  0  0  0  0
   17.0138   -5.9281  -19.3794 O   0  0  0  0  0  0  0  0  0  0  0  0
   20.9646   -7.5381  -17.4691 C   0  0  0  0  0  0  0  0  0  0  0  0
   19.9881   -8.0650  -16.8643 O   0  0  0  0  0  0  0  0  0  0  0  0
   18.8650   -5.3267  -20.6383 O   0  0  0  0  0  0  0  0  0  0  0  0
   21.7365   -6.4947  -16.9141 N   0  0  0  0  0  0  0  0  0  0  0  0
   21.5087   -6.0300  -15.5701 C   0  0  1  0  0  0  0  0  0  0  0  0
   22.7749   -6.1805  -14.7974 C   0  0  0  0  0  0  0  0  0  0  0  0
   23.2799   -7.5730  -14.7167 C   0  0  0  0  0  0  0  0  0  0  0  0
   22.7008   -8.4576  -13.8367 C   0  0  0  0  0  0  0  0  0  0  0  0
   23.1766   -9.7508  -13.7716 C   0  0  0  0  0  0  0  0  0  0  0  0
   24.2151  -10.2150  -14.5496 C   0  0  0  0  0  0  0  0  0  0  0  0
   24.7830   -9.3172  -15.4245 C   0  0  0  0  0  0  0  0  0  0  0  0
   24.3172   -8.0242  -15.4989 C   0  0  0  0  0  0  0  0  0  0  0  0
   20.9364   -4.6742  -15.5815 C   0  0  0  0  0  0  0  0  0  0  0  0
   20.4947   -4.0642  -14.4172 O   0  0  0  0  0  0  0  0  0  0  0  0
   20.8306   -4.0280  -16.6492 O   0  0  0  0  0  0  0  0  0  0  0  0
  2  1  1  0
  3  4  1  0
  3  2  1  0
  4  5  1  0
  5  6  1  6
  7  8  2  0
  7  5  1  0
  9  7  1  0
 10  9  1  0
 10 11  1  6
 12 13  1  0
 12 11  1  0
 13 14  2  0
 15 10  1  0
 16 15  2  0
 17 13  1  0
 18 15  1  0
 19 18  1  0
 19 20  1  1
 20 21  1  0
 21 26  2  0
 21 22  1  0
 22 23  2  0
 23 24  1  0
 25 24  2  0
 26 25  1  0
 27 19  1  0
 28 27  1  0
 29 27  2  0
M  END
$$$$
