MEF.pdb
     RDKit          3D

 29 29  0  0  1  0  0  0  0  0999 V2000
   29.4398  -15.4510  -17.6960 C   0  0  0  0  0  0  0  0  0  0  0  0
   30.6097  -16.7848  -17.3119 S   0  0  0  0  0  0  0  0  0  0  0  0
   29.8138  -18.3820  -17.3582 C   0  0  0  0  0  0  0  0  0  0  0  0
   28.4940  -18.4224  -16.6396 C   0  0  0  0  0  0  0  0  0  0  0  0
   27.7920  -19.7509  -16.7836 C   0  0  2  0  0  0  0  0  0  0  0  0
   27.5386  -20.0770  -18.1759 N   0  0  0  0  0  0  0  0  0  0  0  0
   26.4881  -19.7623  -16.0703 C   0  0  0  0  0  0  0  0  0  0  0  0
   25.6614  -18.8126  -16.1886 O   0  0  0  0  0  0  0  0  0  0  0  0
   26.1093  -20.8429  -15.2207 N   0  0  0  0  0  0  0  0  0  0  0  0
   24.8159  -20.8508  -14.5200 C   0  0  1  0  0  0  0  0  0  0  0  0
   23.9838  -21.8852  -15.1974 C   0  0  0  0  0  0  0  0  0  0  0  0
   22.7148  -21.4078  -15.8126 C   0  0  0  0  0  0  0  0  0  0  0  0
   22.8371  -20.1411  -16.5675 C   0  0  0  0  0  0  0  0  0  0  0  0
   23.2183  -20.1007  -17.7621 O   0  0  0  0  0  0  0  0  0  0  0  0
   25.0951  -21.2994  -13.1235 C   0  0  0  0  0  0  0  0  0  0  0  0
   25.5904  -22.4567  -13.0124 O   0  0  0  0  0  0  0  0  0  0  0  0
   22.5008  -18.9652  -15.8728 O   0  0  0  0  0  0  0  0  0  0  0  0
   24.8188  -20.4747  -12.0118 N   0  0  0  0  0  0  0  0  0  0  0  0
   25.1304  -20.8984  -10.6710 C   0  0  1  0  0  0  0  0  0  0  0  0
   26.1144  -19.9408  -10.0899 C   0  0  0  0  0  0  0  0  0  0  0  0
   27.5181  -20.1785  -10.5067 C   0  0  0  0  0  0  0  0  0  0  0  0
   28.4205  -20.6876   -9.6018 C   0  0  0  0  0  0  0  0  0  0  0  0
   29.7227  -20.9071  -10.0007 C   0  0  0  0  0  0  0  0  0  0  0  0
   30.1789  -20.6415  -11.2738 C   0  0  0  0  0  0  0  0  0  0  0  0
   29.2634  -20.1327  -12.1664 C   0  0  0  0  0  0  0  0  0  0  0  0
   27.9612  -19.9094  -11.7806 C   0  0  0  0  0  0  0  0  0  0  0  0
   23.8985  -21.0864   -9.8883 C   0  0  0  0  0  0  0  0  0  0  0  0
   23.9163  -21.7001   -8.6451 O   0  0  0  0  0  0  0  0  0  0  0  0
   22.7914  -20.6957  -10.3248 O   0  0  0  0  0  0  0  0  0  0  0  0
  2  1  1  0
  3  4  1  0
  3  2  1  0
  4  5  1  0
  5  6  1  6
  7  8  2  0
  7  5  1  0
  9  7  1  0
 10  9  1  0
 10 11  1  6
 12 13  1  0
 12 11  1  0
 13 14  2  0
 15 10  1  0
 16 15  2  0
 17 13  1  0
 18 15  1  0
 19 18  1  0
 19 20  1  1
 20 21  1  0
 21 26  2  0
 21 22  1  0
 22 23  2  0
 23 24  1  0
 25 24  2  0
 26 25  1  0
 27 19  1  0
 28 27  1  0
 29 27  2  0
M  END
$$$$
