SWR.pdb
     RDKit          3D

 32 33  0  0  1  0  0  0  0  0999 V2000
    8.3243  -16.2154   19.1569 O   0  0  0  0  0  0  0  0  0  0  0  0
    7.0965  -16.0388   19.7857 C   0  0  0  0  0  0  0  0  0  0  0  0
    7.1043  -14.7619   20.6358 C   0  0  2  0  0  0  0  0  0  0  0  0
    7.3543  -13.6828   19.6661 N   0  0  0  0  0  0  0  0  0  0  0  0
    8.2461  -14.8440   21.5978 C   0  0  0  0  0  0  0  0  0  0  0  0
    9.3353  -14.2858   21.3871 O   0  0  0  0  0  0  0  0  0  0  0  0
    8.0847  -15.5767   22.7825 N   0  0  0  0  0  0  0  0  0  0  0  0
    8.9106  -15.7691   23.8995 C   0  0  1  0  0  0  0  0  0  0  0  0
    8.2734  -16.0050   25.2452 C   0  0  0  0  0  0  0  0  0  0  0  0
    7.2382  -14.9657   25.5796 C   0  0  0  0  0  0  0  0  0  0  0  0
    5.8736  -15.0752   25.4733 C   0  0  0  0  0  0  0  0  0  0  0  0
    5.3516  -13.9032   25.8510 N   0  0  0  0  0  0  0  0  0  0  0  0
    6.3531  -13.0421   26.1987 C   0  0  0  0  0  0  0  0  0  0  0  0
    6.3614  -11.7478   26.6461 C   0  0  0  0  0  0  0  0  0  0  0  0
    7.5692  -11.1106   26.9270 C   0  0  0  0  0  0  0  0  0  0  0  0
    8.7764  -11.7564   26.7647 C   0  0  0  0  0  0  0  0  0  0  0  0
    8.7588  -13.0570   26.3152 C   0  0  0  0  0  0  0  0  0  0  0  0
    7.5467  -13.7016   26.0314 C   0  0  0  0  0  0  0  0  0  0  0  0
    9.9008  -16.8230   23.6647 C   0  0  0  0  0  0  0  0  0  0  0  0
    9.4561  -17.9760   23.3445 O   0  0  0  0  0  0  0  0  0  0  0  0
   13.0838  -13.6386   18.9172 N   0  0  0  0  0  0  0  0  0  0  0  0
   14.3251  -14.3131   18.9610 C   0  0  0  0  0  0  0  0  0  0  0  0
   15.1638  -14.3458   17.9454 N   0  0  0  0  0  0  0  0  0  0  0  0
   14.8049  -15.0255   20.1121 N   0  0  0  0  0  0  0  0  0  0  0  0
   14.0586  -15.0732   21.3138 C   0  0  0  0  0  0  0  0  0  0  0  0
   13.1698  -16.2491   21.5407 C   0  0  0  0  0  0  0  0  0  0  0  0
   13.4266  -17.0175   22.7908 C   0  0  0  0  0  0  0  0  0  0  0  0
   12.2758  -17.5590   23.5328 C   0  0  2  0  0  0  0  0  0  0  0  0
   11.2643  -16.5303   23.7964 N   0  0  0  0  0  0  0  0  0  0  0  0
   12.6510  -18.0905   24.8987 C   0  0  0  0  0  0  0  0  0  0  0  0
   12.0985  -17.5816   26.0614 O   0  0  0  0  0  0  0  0  0  0  0  0
   13.4728  -19.0147   25.0420 O   0  0  0  0  0  0  0  0  0  0  0  0
  2  1  1  0
  3  2  1  0
  3  4  1  6
  5  6  2  0
  5  3  1  0
  7  5  1  0
  8  7  1  0
  9 10  1  0
  8  9  1  1
 10 11  2  0
 10 18  1  0
 11 12  1  0
 12 13  1  0
 13 14  2  0
 15 14  1  0
 16 15  2  0
 17 18  2  0
 17 16  1  0
 18 13  1  0
 19  8  1  0
 19 29  1  0
 20 19  2  0
 22 21  1  0
 23 22  2  0
 24 22  1  0
 25 26  1  0
 25 24  1  0
 26 27  1  0
 28 27  1  1
 28 29  1  0
 28 30  1  0
 30 31  1  0
 32 30  2  0
M  END
$$$$
