SWR.pdb
     RDKit          3D

 32 33  0  0  1  0  0  0  0  0999 V2000
    7.2130  -21.2587   23.3220 O   0  0  0  0  0  0  0  0  0  0  0  0
    6.7135  -20.2338   22.5255 C   0  0  0  0  0  0  0  0  0  0  0  0
    5.9769  -19.1955   23.3815 C   0  0  2  0  0  0  0  0  0  0  0  0
    4.7050  -18.9783   22.6725 N   0  0  0  0  0  0  0  0  0  0  0  0
    6.7742  -17.9306   23.3766 C   0  0  0  0  0  0  0  0  0  0  0  0
    6.5355  -16.9964   22.5939 O   0  0  0  0  0  0  0  0  0  0  0  0
    7.8306  -17.7902   24.2881 N   0  0  0  0  0  0  0  0  0  0  0  0
    8.7257  -16.7426   24.5495 C   0  0  1  0  0  0  0  0  0  0  0  0
    8.6751  -16.0585   25.8919 C   0  0  0  0  0  0  0  0  0  0  0  0
    7.4309  -15.2310   26.0672 C   0  0  0  0  0  0  0  0  0  0  0  0
    6.1323  -15.6719   26.1367 C   0  0  0  0  0  0  0  0  0  0  0  0
    5.3538  -14.5921   26.2665 N   0  0  0  0  0  0  0  0  0  0  0  0
    6.1258  -13.4655   26.2823 C   0  0  0  0  0  0  0  0  0  0  0  0
    5.8336  -12.1321   26.3926 C   0  0  0  0  0  0  0  0  0  0  0  0
    6.8576  -11.1861   26.3776 C   0  0  0  0  0  0  0  0  0  0  0  0
    8.1786  -11.5601   26.2526 C   0  0  0  0  0  0  0  0  0  0  0  0
    8.4634  -12.9020   26.1427 C   0  0  0  0  0  0  0  0  0  0  0  0
    7.4369  -13.8566   26.1574 C   0  0  0  0  0  0  0  0  0  0  0  0
   10.1113  -17.1362   24.2821 C   0  0  0  0  0  0  0  0  0  0  0  0
   11.0008  -16.7184   25.0970 O   0  0  0  0  0  0  0  0  0  0  0  0
    8.2784  -12.4459   19.0417 N   0  0  0  0  0  0  0  0  0  0  0  0
    8.3218  -13.7120   18.4149 C   0  0  0  0  0  0  0  0  0  0  0  0
    7.5759  -14.0275   17.3757 N   0  0  0  0  0  0  0  0  0  0  0  0
    9.1828  -14.7812   18.8369 N   0  0  0  0  0  0  0  0  0  0  0  0
   10.3450  -14.5326   19.6056 C   0  0  0  0  0  0  0  0  0  0  0  0
   11.0869  -15.7046   20.1535 C   0  0  0  0  0  0  0  0  0  0  0  0
   10.3963  -16.4511   21.2421 C   0  0  0  0  0  0  0  0  0  0  0  0
   11.1784  -17.4032   22.0482 C   0  0  2  0  0  0  0  0  0  0  0  0
   10.3985  -17.9375   23.1695 N   0  0  0  0  0  0  0  0  0  0  0  0
   12.3953  -16.7736   22.6898 C   0  0  0  0  0  0  0  0  0  0  0  0
   12.3265  -16.1164   23.9061 O   0  0  0  0  0  0  0  0  0  0  0  0
   13.5189  -16.8198   22.1554 O   0  0  0  0  0  0  0  0  0  0  0  0
  2  1  1  0
  3  2  1  0
  3  4  1  6
  5  6  2  0
  5  3  1  0
  7  5  1  0
  8  7  1  0
  9 10  1  0
  8  9  1  1
 10 11  2  0
 10 18  1  0
 11 12  1  0
 12 13  1  0
 13 14  2  0
 15 14  1  0
 16 15  2  0
 17 18  2  0
 17 16  1  0
 18 13  1  0
 19  8  1  0
 19 29  1  0
 20 19  2  0
 22 21  1  0
 23 22  2  0
 24 22  1  0
 25 26  1  0
 25 24  1  0
 26 27  1  0
 28 27  1  1
 28 29  1  0
 28 30  1  0
 30 31  1  0
 32 30  2  0
M  END
$$$$
