SWR.pdb
     RDKit          3D

 32 33  0  0  1  0  0  0  0  0999 V2000
    7.5286  -18.8067   19.3260 O   0  0  0  0  0  0  0  0  0  0  0  0
    6.8056  -17.7025   18.8876 C   0  0  0  0  0  0  0  0  0  0  0  0
    7.7096  -16.4662   18.7988 C   0  0  2  0  0  0  0  0  0  0  0  0
    8.7397  -16.8408   17.8160 N   0  0  0  0  0  0  0  0  0  0  0  0
    8.3470  -16.2523   20.1344 C   0  0  0  0  0  0  0  0  0  0  0  0
    9.4755  -16.6908   20.4110 O   0  0  0  0  0  0  0  0  0  0  0  0
    7.6482  -15.5304   21.1125 N   0  0  0  0  0  0  0  0  0  0  0  0
    7.9669  -15.1594   22.4270 C   0  0  1  0  0  0  0  0  0  0  0  0
    6.9762  -14.3393   23.2135 C   0  0  0  0  0  0  0  0  0  0  0  0
    7.3887  -14.1644   24.6497 C   0  0  0  0  0  0  0  0  0  0  0  0
    8.1207  -15.0302   25.4244 C   0  0  0  0  0  0  0  0  0  0  0  0
    8.2242  -14.4828   26.6404 N   0  0  0  0  0  0  0  0  0  0  0  0
    7.5738  -13.2821   26.6632 C   0  0  0  0  0  0  0  0  0  0  0  0
    7.3819  -12.3400   27.6383 C   0  0  0  0  0  0  0  0  0  0  0  0
    6.6560  -11.1822   27.3619 C   0  0  0  0  0  0  0  0  0  0  0  0
    6.1162  -10.9541   26.1140 C   0  0  0  0  0  0  0  0  0  0  0  0
    6.3143  -11.9058   25.1398 C   0  0  0  0  0  0  0  0  0  0  0  0
    7.0435  -13.0713   25.4134 C   0  0  0  0  0  0  0  0  0  0  0  0
    8.3558  -16.3172   23.2362 C   0  0  0  0  0  0  0  0  0  0  0  0
    7.5145  -17.2736   23.3227 O   0  0  0  0  0  0  0  0  0  0  0  0
   15.1850  -21.6454   23.7258 N   0  0  0  0  0  0  0  0  0  0  0  0
   14.3503  -21.6401   22.5852 C   0  0  0  0  0  0  0  0  0  0  0  0
   14.3091  -22.6309   21.7178 N   0  0  0  0  0  0  0  0  0  0  0  0
   13.4586  -20.5637   22.2550 N   0  0  0  0  0  0  0  0  0  0  0  0
   13.4155  -19.3785   23.0274 C   0  0  0  0  0  0  0  0  0  0  0  0
   12.2030  -19.1275   23.8587 C   0  0  0  0  0  0  0  0  0  0  0  0
   11.4208  -17.9103   23.5039 C   0  0  0  0  0  0  0  0  0  0  0  0
   10.2157  -17.5948   24.2890 C   0  0  2  0  0  0  0  0  0  0  0  0
    9.6063  -16.3292   23.8672 N   0  0  0  0  0  0  0  0  0  0  0  0
   10.5023  -17.4127   25.7633 C   0  0  0  0  0  0  0  0  0  0  0  0
   10.3805  -18.4527   26.6686 O   0  0  0  0  0  0  0  0  0  0  0  0
   10.8657  -16.3182   26.2325 O   0  0  0  0  0  0  0  0  0  0  0  0
  2  1  1  0
  3  2  1  0
  3  4  1  6
  5  6  2  0
  5  3  1  0
  7  5  1  0
  8  7  1  0
  9 10  1  0
  8  9  1  1
 10 11  2  0
 10 18  1  0
 11 12  1  0
 12 13  1  0
 13 14  2  0
 15 14  1  0
 16 15  2  0
 17 18  2  0
 17 16  1  0
 18 13  1  0
 19  8  1  0
 19 29  1  0
 20 19  2  0
 22 21  1  0
 23 22  2  0
 24 22  1  0
 25 26  1  0
 25 24  1  0
 26 27  1  0
 28 27  1  6
 28 29  1  0
 28 30  1  0
 30 31  1  0
 32 30  2  0
M  END
$$$$
