SWR.pdb
     RDKit          3D

 32 33  0  0  1  0  0  0  0  0999 V2000
    7.9755  -17.9061   19.7831 O   0  0  0  0  0  0  0  0  0  0  0  0
    6.9507  -18.0342   20.7146 C   0  0  0  0  0  0  0  0  0  0  0  0
    6.5194  -16.6570   21.2351 C   0  0  2  0  0  0  0  0  0  0  0  0
    6.1690  -15.9040   20.0196 N   0  0  0  0  0  0  0  0  0  0  0  0
    7.6955  -16.0154   21.8991 C   0  0  0  0  0  0  0  0  0  0  0  0
    8.4715  -15.2590   21.2923 O   0  0  0  0  0  0  0  0  0  0  0  0
    7.9339  -16.2743   23.2564 N   0  0  0  0  0  0  0  0  0  0  0  0
    8.9618  -15.8899   24.1297 C   0  0  1  0  0  0  0  0  0  0  0  0
    8.6464  -15.7111   25.5929 C   0  0  0  0  0  0  0  0  0  0  0  0
    7.4670  -14.8045   25.8186 C   0  0  0  0  0  0  0  0  0  0  0  0
    6.1402  -15.1526   25.8800 C   0  0  0  0  0  0  0  0  0  0  0  0
    5.4436  -14.0263   26.0675 N   0  0  0  0  0  0  0  0  0  0  0  0
    6.2959  -12.9609   26.1284 C   0  0  0  0  0  0  0  0  0  0  0  0
    6.1026  -11.6165   26.3035 C   0  0  0  0  0  0  0  0  0  0  0  0
    7.1929  -10.7478   26.3228 C   0  0  0  0  0  0  0  0  0  0  0  0
    8.4823  -11.2105   26.1677 C   0  0  0  0  0  0  0  0  0  0  0  0
    8.6675  -12.5629   25.9927 C   0  0  0  0  0  0  0  0  0  0  0  0
    7.5741  -13.4400   25.9727 C   0  0  0  0  0  0  0  0  0  0  0  0
   10.1284  -16.7682   24.0113 C   0  0  0  0  0  0  0  0  0  0  0  0
    9.9092  -18.0259   24.0008 O   0  0  0  0  0  0  0  0  0  0  0  0
   18.1587  -16.4846   24.9641 N   0  0  0  0  0  0  0  0  0  0  0  0
   18.3954  -16.9495   23.6506 C   0  0  0  0  0  0  0  0  0  0  0  0
   19.4855  -17.6027   23.3028 N   0  0  0  0  0  0  0  0  0  0  0  0
   17.4760  -16.7665   22.5625 N   0  0  0  0  0  0  0  0  0  0  0  0
   16.2215  -16.1398   22.7544 C   0  0  0  0  0  0  0  0  0  0  0  0
   15.0716  -16.9889   23.1797 C   0  0  0  0  0  0  0  0  0  0  0  0
   13.7750  -16.2759   23.3524 C   0  0  0  0  0  0  0  0  0  0  0  0
   12.5836  -17.0607   23.7167 C   0  0  2  0  0  0  0  0  0  0  0  0
   11.4081  -16.2065   23.9154 N   0  0  0  0  0  0  0  0  0  0  0  0
   12.7443  -17.8062   25.0233 C   0  0  0  0  0  0  0  0  0  0  0  0
   12.4701  -17.2147   26.2443 O   0  0  0  0  0  0  0  0  0  0  0  0
   13.1277  -18.9901   25.0624 O   0  0  0  0  0  0  0  0  0  0  0  0
  2  1  1  0
  3  2  1  0
  3  4  1  6
  5  6  2  0
  5  3  1  0
  7  5  1  0
  8  7  1  0
  9 10  1  0
  8  9  1  1
 10 11  2  0
 10 18  1  0
 11 12  1  0
 12 13  1  0
 13 14  2  0
 15 14  1  0
 16 15  2  0
 17 18  2  0
 17 16  1  0
 18 13  1  0
 19  8  1  0
 19 29  1  0
 20 19  2  0
 22 21  1  0
 23 22  2  0
 24 22  1  0
 25 26  1  0
 25 24  1  0
 26 27  1  0
 28 27  1  1
 28 29  1  0
 28 30  1  0
 30 31  1  0
 32 30  2  0
M  END
$$$$
