SWR.pdb
     RDKit          3D

 32 33  0  0  1  0  0  0  0  0999 V2000
    7.1009  -16.4111   18.3777 O   0  0  0  0  0  0  0  0  0  0  0  0
    7.9252  -16.1824   19.4743 C   0  0  0  0  0  0  0  0  0  0  0  0
    7.3919  -15.0162   20.3164 C   0  0  2  0  0  0  0  0  0  0  0  0
    7.4208  -13.8647   19.3996 N   0  0  0  0  0  0  0  0  0  0  0  0
    8.3414  -14.7792   21.4469 C   0  0  0  0  0  0  0  0  0  0  0  0
    9.1965  -13.8789   21.4201 O   0  0  0  0  0  0  0  0  0  0  0  0
    8.2664  -15.6012   22.5805 N   0  0  0  0  0  0  0  0  0  0  0  0
    9.0280  -15.6684   23.7562 C   0  0  1  0  0  0  0  0  0  0  0  0
    8.3230  -15.8938   25.0695 C   0  0  0  0  0  0  0  0  0  0  0  0
    7.2191  -14.8992   25.3057 C   0  0  0  0  0  0  0  0  0  0  0  0
    5.8717  -15.0784   25.1105 C   0  0  0  0  0  0  0  0  0  0  0  0
    5.2698  -13.9251   25.4211 N   0  0  0  0  0  0  0  0  0  0  0  0
    6.2029  -13.0078   25.8125 C   0  0  0  0  0  0  0  0  0  0  0  0
    6.1189  -11.7047   26.2250 C   0  0  0  0  0  0  0  0  0  0  0  0
    7.2728  -11.0024   26.5699 C   0  0  0  0  0  0  0  0  0  0  0  0
    8.5177  -11.5915   26.5065 C   0  0  0  0  0  0  0  0  0  0  0  0
    8.5930  -12.9014   26.0914 C   0  0  0  0  0  0  0  0  0  0  0  0
    7.4353  -13.6114   25.7437 C   0  0  0  0  0  0  0  0  0  0  0  0
   10.1154  -16.6434   23.6409 C   0  0  0  0  0  0  0  0  0  0  0  0
    9.8486  -17.8506   23.9591 O   0  0  0  0  0  0  0  0  0  0  0  0
   16.9734  -14.2871   19.9403 N   0  0  0  0  0  0  0  0  0  0  0  0
   15.8971  -14.2744   19.0241 C   0  0  0  0  0  0  0  0  0  0  0  0
   16.0570  -14.1092   17.7269 N   0  0  0  0  0  0  0  0  0  0  0  0
   14.5232  -14.4454   19.4061 N   0  0  0  0  0  0  0  0  0  0  0  0
   14.1575  -14.7005   20.7494 C   0  0  0  0  0  0  0  0  0  0  0  0
   13.2860  -15.8785   21.0270 C   0  0  0  0  0  0  0  0  0  0  0  0
   13.5937  -16.6251   22.2789 C   0  0  0  0  0  0  0  0  0  0  0  0
   12.4757  -17.1821   23.0587 C   0  0  2  0  0  0  0  0  0  0  0  0
   11.3751  -16.2225   23.1953 N   0  0  0  0  0  0  0  0  0  0  0  0
   12.8624  -17.5307   24.4791 C   0  0  0  0  0  0  0  0  0  0  0  0
   12.4312  -16.7835   25.5616 O   0  0  0  0  0  0  0  0  0  0  0  0
   13.5847  -18.5099   24.7428 O   0  0  0  0  0  0  0  0  0  0  0  0
  2  1  1  0
  3  2  1  0
  3  4  1  6
  5  6  2  0
  5  3  1  0
  7  5  1  0
  8  7  1  0
  9 10  1  0
  8  9  1  1
 10 11  2  0
 10 18  1  0
 11 12  1  0
 12 13  1  0
 13 14  2  0
 15 14  1  0
 16 15  2  0
 17 18  2  0
 17 16  1  0
 18 13  1  0
 19  8  1  0
 19 29  1  0
 20 19  2  0
 22 21  1  0
 23 22  2  0
 24 22  1  0
 25 26  1  0
 25 24  1  0
 26 27  1  0
 28 27  1  1
 28 29  1  0
 28 30  1  0
 30 31  1  0
 32 30  2  0
M  END
$$$$
