SWR.pdb
     RDKit          3D

 32 33  0  0  1  0  0  0  0  0999 V2000
    6.8183  -20.3036   21.5502 O   0  0  0  0  0  0  0  0  0  0  0  0
    6.2489  -20.5361   22.7975 C   0  0  0  0  0  0  0  0  0  0  0  0
    5.5175  -19.2843   23.2987 C   0  0  2  0  0  0  0  0  0  0  0  0
    4.3003  -19.2211   22.4729 N   0  0  0  0  0  0  0  0  0  0  0  0
    6.3758  -18.0929   23.0160 C   0  0  0  0  0  0  0  0  0  0  0  0
    6.2809  -17.4388   21.9646 O   0  0  0  0  0  0  0  0  0  0  0  0
    7.3232  -17.6965   23.9708 N   0  0  0  0  0  0  0  0  0  0  0  0
    8.3101  -16.7002   23.9717 C   0  0  1  0  0  0  0  0  0  0  0  0
    8.6648  -16.0267   25.2730 C   0  0  0  0  0  0  0  0  0  0  0  0
    7.5175  -15.2363   25.8409 C   0  0  0  0  0  0  0  0  0  0  0  0
    6.3516  -15.7195   26.3820 C   0  0  0  0  0  0  0  0  0  0  0  0
    5.6101  -14.6630   26.7327 N   0  0  0  0  0  0  0  0  0  0  0  0
    6.2759  -13.5100   26.4284 C   0  0  0  0  0  0  0  0  0  0  0  0
    5.9685  -12.1841   26.5789 C   0  0  0  0  0  0  0  0  0  0  0  0
    6.8691  -11.2038   26.1645 C   0  0  0  0  0  0  0  0  0  0  0  0
    8.0811  -11.5360   25.5975 C   0  0  0  0  0  0  0  0  0  0  0  0
    8.3822  -12.8708   25.4505 C   0  0  0  0  0  0  0  0  0  0  0  0
    7.4796  -13.8597   25.8658 C   0  0  0  0  0  0  0  0  0  0  0  0
    9.5469  -17.1638   23.3379 C   0  0  0  0  0  0  0  0  0  0  0  0
    9.8992  -18.3696   23.5660 O   0  0  0  0  0  0  0  0  0  0  0  0
    7.4172  -14.6564   17.3986 N   0  0  0  0  0  0  0  0  0  0  0  0
    8.5752  -13.8459   17.4062 C   0  0  0  0  0  0  0  0  0  0  0  0
    8.6365  -12.6711   16.8131 N   0  0  0  0  0  0  0  0  0  0  0  0
    9.7993  -14.2112   18.0626 N   0  0  0  0  0  0  0  0  0  0  0  0
    9.8114  -14.6566   19.4060 C   0  0  0  0  0  0  0  0  0  0  0  0
   11.1323  -14.9319   20.0413 C   0  0  0  0  0  0  0  0  0  0  0  0
   11.4033  -16.3597   20.3687 C   0  0  0  0  0  0  0  0  0  0  0  0
   11.4509  -16.7599   21.7850 C   0  0  2  0  0  0  0  0  0  0  0  0
   10.2764  -16.2868   22.5249 N   0  0  0  0  0  0  0  0  0  0  0  0
   12.6342  -16.1752   22.5244 C   0  0  0  0  0  0  0  0  0  0  0  0
   13.9390  -16.4250   22.1356 O   0  0  0  0  0  0  0  0  0  0  0  0
   12.4905  -15.4373   23.5169 O   0  0  0  0  0  0  0  0  0  0  0  0
  2  1  1  0
  3  2  1  0
  3  4  1  6
  5  6  2  0
  5  3  1  0
  7  5  1  0
  8  7  1  0
  9 10  1  0
  8  9  1  1
 10 11  2  0
 10 18  1  0
 11 12  1  0
 12 13  1  0
 13 14  2  0
 15 14  1  0
 16 15  2  0
 17 18  2  0
 17 16  1  0
 18 13  1  0
 19  8  1  0
 19 29  1  0
 20 19  2  0
 22 21  1  0
 23 22  2  0
 24 22  1  0
 25 26  1  0
 25 24  1  0
 26 27  1  0
 28 27  1  6
 28 29  1  0
 28 30  1  0
 30 31  1  0
 32 30  2  0
M  END
$$$$
