SWR.pdb
     RDKit          3D

 32 33  0  0  1  0  0  0  0  0999 V2000
    5.3786  -16.0420   21.1298 O   0  0  0  0  0  0  0  0  0  0  0  0
    6.6127  -15.4314   21.3254 C   0  0  0  0  0  0  0  0  0  0  0  0
    7.6991  -16.4822   21.5878 C   0  0  2  0  0  0  0  0  0  0  0  0
    6.9712  -17.6148   22.1834 N   0  0  0  0  0  0  0  0  0  0  0  0
    8.6612  -15.9249   22.5877 C   0  0  0  0  0  0  0  0  0  0  0  0
    9.3420  -14.9109   22.3626 O   0  0  0  0  0  0  0  0  0  0  0  0
    8.8023  -16.5677   23.8259 N   0  0  0  0  0  0  0  0  0  0  0  0
    9.6196  -16.3172   24.9377 C   0  0  1  0  0  0  0  0  0  0  0  0
    8.9749  -15.9262   26.2431 C   0  0  0  0  0  0  0  0  0  0  0  0
    7.7509  -15.0740   26.0454 C   0  0  0  0  0  0  0  0  0  0  0  0
    6.4728  -15.4921   25.7673 C   0  0  0  0  0  0  0  0  0  0  0  0
    5.7151  -14.3965   25.6470 N   0  0  0  0  0  0  0  0  0  0  0  0
    6.4801  -13.2822   25.8425 C   0  0  0  0  0  0  0  0  0  0  0  0
    6.2013  -11.9415   25.8301 C   0  0  0  0  0  0  0  0  0  0  0  0
    7.2126  -11.0125   26.0706 C   0  0  0  0  0  0  0  0  0  0  0  0
    8.5078  -11.4109   26.3248 C   0  0  0  0  0  0  0  0  0  0  0  0
    8.7791  -12.7600   26.3359 C   0  0  0  0  0  0  0  0  0  0  0  0
    7.7652  -13.6976   26.0946 C   0  0  0  0  0  0  0  0  0  0  0  0
   10.5427  -17.4263   25.1908 C   0  0  0  0  0  0  0  0  0  0  0  0
   11.4866  -17.2170   26.0245 O   0  0  0  0  0  0  0  0  0  0  0  0
   15.9042  -19.5479   19.1283 N   0  0  0  0  0  0  0  0  0  0  0  0
   16.1567  -18.9614   20.3891 C   0  0  0  0  0  0  0  0  0  0  0  0
   17.2950  -19.1067   21.0366 N   0  0  0  0  0  0  0  0  0  0  0  0
   15.2080  -18.1440   21.0924 N   0  0  0  0  0  0  0  0  0  0  0  0
   14.6532  -18.5551   22.3279 C   0  0  0  0  0  0  0  0  0  0  0  0
   13.3824  -19.3352   22.3007 C   0  0  0  0  0  0  0  0  0  0  0  0
   12.2121  -18.6806   22.9496 C   0  0  0  0  0  0  0  0  0  0  0  0
   11.5078  -19.4022   24.0226 C   0  0  2  0  0  0  0  0  0  0  0  0
   10.3568  -18.6445   24.5246 N   0  0  0  0  0  0  0  0  0  0  0  0
   12.3733  -19.6411   25.2403 C   0  0  0  0  0  0  0  0  0  0  0  0
   13.3298  -18.7289   25.6513 O   0  0  0  0  0  0  0  0  0  0  0  0
   12.2637  -20.6693   25.9338 O   0  0  0  0  0  0  0  0  0  0  0  0
  2  1  1  0
  3  2  1  0
  3  4  1  1
  5  6  2  0
  5  3  1  0
  7  5  1  0
  8  7  1  0
  9 10  1  0
  8  9  1  1
 10 11  2  0
 10 18  1  0
 11 12  1  0
 12 13  1  0
 13 14  2  0
 15 14  1  0
 16 15  2  0
 17 18  2  0
 17 16  1  0
 18 13  1  0
 19  8  1  0
 19 29  1  0
 20 19  2  0
 22 21  1  0
 23 22  2  0
 24 22  1  0
 25 26  1  0
 25 24  1  0
 26 27  1  0
 28 27  1  6
 28 29  1  0
 28 30  1  0
 30 31  1  0
 32 30  2  0
M  END
$$$$
