SWR.pdb
     RDKit          3D

 32 33  0  0  1  0  0  0  0  0999 V2000
   11.3878  -20.0402   17.5225 O   0  0  0  0  0  0  0  0  0  0  0  0
   10.1284  -20.2057   18.0889 C   0  0  0  0  0  0  0  0  0  0  0  0
    9.2884  -18.9335   17.9180 C   0  0  2  0  0  0  0  0  0  0  0  0
    9.4131  -18.6066   16.4880 N   0  0  0  0  0  0  0  0  0  0  0  0
    9.9092  -17.8462   18.7354 C   0  0  0  0  0  0  0  0  0  0  0  0
   10.7014  -17.0205   18.2527 O   0  0  0  0  0  0  0  0  0  0  0  0
    9.5873  -17.7520   20.0969 N   0  0  0  0  0  0  0  0  0  0  0  0
    9.9620  -16.8468   21.1004 C   0  0  1  0  0  0  0  0  0  0  0  0
    8.9641  -16.4942   22.1738 C   0  0  0  0  0  0  0  0  0  0  0  0
    7.7649  -15.7693   21.6260 C   0  0  0  0  0  0  0  0  0  0  0  0
    6.4842  -16.2464   21.4926 C   0  0  0  0  0  0  0  0  0  0  0  0
    5.7550  -15.2730   20.9361 N   0  0  0  0  0  0  0  0  0  0  0  0
    6.5409  -14.1792   20.7093 C   0  0  0  0  0  0  0  0  0  0  0  0
    6.2935  -12.9441   20.1721 C   0  0  0  0  0  0  0  0  0  0  0  0
    7.3204  -12.0071   20.0657 C   0  0  0  0  0  0  0  0  0  0  0  0
    8.5998  -12.2925   20.4927 C   0  0  0  0  0  0  0  0  0  0  0  0
    8.8395  -13.5359   21.0317 C   0  0  0  0  0  0  0  0  0  0  0  0
    7.8100  -14.4811   21.1406 C   0  0  0  0  0  0  0  0  0  0  0  0
   11.2158  -17.2440   21.7460 C   0  0  0  0  0  0  0  0  0  0  0  0
   11.4455  -18.4957   21.8465 O   0  0  0  0  0  0  0  0  0  0  0  0
   18.2421  -13.8435   22.0386 N   0  0  0  0  0  0  0  0  0  0  0  0
   18.5446  -14.2007   20.7049 C   0  0  0  0  0  0  0  0  0  0  0  0
   19.7746  -14.2645   20.2372 N   0  0  0  0  0  0  0  0  0  0  0  0
   17.5500  -14.5363   19.7246 N   0  0  0  0  0  0  0  0  0  0  0  0
   16.1687  -14.4888   20.0292 C   0  0  0  0  0  0  0  0  0  0  0  0
   15.6265  -15.4977   20.9844 C   0  0  0  0  0  0  0  0  0  0  0  0
   14.1528  -15.4540   21.1980 C   0  0  0  0  0  0  0  0  0  0  0  0
   13.5442  -16.4391   22.1076 C   0  0  2  0  0  0  0  0  0  0  0  0
   12.0928  -16.2577   22.2153 N   0  0  0  0  0  0  0  0  0  0  0  0
   14.0538  -16.3255   23.5275 C   0  0  0  0  0  0  0  0  0  0  0  0
   15.3086  -16.7795   23.8955 O   0  0  0  0  0  0  0  0  0  0  0  0
   13.3694  -15.8139   24.4331 O   0  0  0  0  0  0  0  0  0  0  0  0
  2  1  1  0
  3  2  1  0
  3  4  1  6
  5  6  2  0
  5  3  1  0
  7  5  1  0
  8  7  1  0
  9 10  1  0
  8  9  1  1
 10 11  2  0
 10 18  1  0
 11 12  1  0
 12 13  1  0
 13 14  2  0
 15 14  1  0
 16 15  2  0
 17 18  2  0
 17 16  1  0
 18 13  1  0
 19  8  1  0
 19 29  1  0
 20 19  2  0
 22 21  1  0
 23 22  2  0
 24 22  1  0
 25 26  1  0
 25 24  1  0
 26 27  1  0
 28 27  1  6
 28 29  1  0
 28 30  1  0
 30 31  1  0
 32 30  2  0
M  END
$$$$
