SWR.pdb
     RDKit          3D

 32 33  0  0  1  0  0  0  0  0999 V2000
    7.0463  -20.6777   22.7722 O   0  0  0  0  0  0  0  0  0  0  0  0
    5.8031  -20.2447   23.2209 C   0  0  0  0  0  0  0  0  0  0  0  0
    5.6026  -18.7575   22.9026 C   0  0  2  0  0  0  0  0  0  0  0  0
    5.2730  -18.7354   21.4680 N   0  0  0  0  0  0  0  0  0  0  0  0
    6.8997  -18.0488   23.1286 C   0  0  0  0  0  0  0  0  0  0  0  0
    7.6181  -17.6613   22.1926 O   0  0  0  0  0  0  0  0  0  0  0  0
    7.3234  -17.8108   24.4439 N   0  0  0  0  0  0  0  0  0  0  0  0
    8.4559  -17.1777   24.9764 C   0  0  1  0  0  0  0  0  0  0  0  0
    8.3312  -16.4412   26.2858 C   0  0  0  0  0  0  0  0  0  0  0  0
    7.3848  -15.2748   26.1997 C   0  0  0  0  0  0  0  0  0  0  0  0
    6.0217  -15.2858   26.3647 C   0  0  0  0  0  0  0  0  0  0  0  0
    5.5895  -14.0345   26.1733 N   0  0  0  0  0  0  0  0  0  0  0  0
    6.6474  -13.2189   25.8890 C   0  0  0  0  0  0  0  0  0  0  0  0
    6.7511  -11.8807   25.6175 C   0  0  0  0  0  0  0  0  0  0  0  0
    7.9974  -11.3120   25.3588 C   0  0  0  0  0  0  0  0  0  0  0  0
    9.1486  -12.0705   25.3682 C   0  0  0  0  0  0  0  0  0  0  0  0
    9.0354  -13.4144   25.6424 C   0  0  0  0  0  0  0  0  0  0  0  0
    7.7842  -13.9904   25.9031 C   0  0  0  0  0  0  0  0  0  0  0  0
    9.5951  -18.0944   25.0672 C   0  0  0  0  0  0  0  0  0  0  0  0
    9.3900  -19.2208   25.6321 O   0  0  0  0  0  0  0  0  0  0  0  0
   15.6659  -16.6012   20.5074 N   0  0  0  0  0  0  0  0  0  0  0  0
   14.6950  -17.5266   20.0618 C   0  0  0  0  0  0  0  0  0  0  0  0
   14.0924  -17.4327   18.8939 N   0  0  0  0  0  0  0  0  0  0  0  0
   14.2687  -18.6650   20.8268 N   0  0  0  0  0  0  0  0  0  0  0  0
   14.9038  -19.0170   22.0416 C   0  0  0  0  0  0  0  0  0  0  0  0
   14.0429  -19.3062   23.2245 C   0  0  0  0  0  0  0  0  0  0  0  0
   12.8435  -18.4356   23.3752 C   0  0  0  0  0  0  0  0  0  0  0  0
   11.9663  -18.6417   24.5398 C   0  0  2  0  0  0  0  0  0  0  0  0
   10.8350  -17.7083   24.5420 N   0  0  0  0  0  0  0  0  0  0  0  0
   12.6684  -18.4004   25.8580 C   0  0  0  0  0  0  0  0  0  0  0  0
   13.7299  -19.1831   26.2782 O   0  0  0  0  0  0  0  0  0  0  0  0
   12.3268  -17.4827   26.6269 O   0  0  0  0  0  0  0  0  0  0  0  0
  2  1  1  0
  3  2  1  0
  3  4  1  6
  5  6  2  0
  5  3  1  0
  7  5  1  0
  8  7  1  0
  9 10  1  0
  8  9  1  1
 10 11  2  0
 10 18  1  0
 11 12  1  0
 12 13  1  0
 13 14  2  0
 15 14  1  0
 16 15  2  0
 17 18  2  0
 17 16  1  0
 18 13  1  0
 19  8  1  0
 19 29  1  0
 20 19  2  0
 22 21  1  0
 23 22  2  0
 24 22  1  0
 25 26  1  0
 25 24  1  0
 26 27  1  0
 28 27  1  6
 28 29  1  0
 28 30  1  0
 30 31  1  0
 32 30  2  0
M  END
$$$$
