SWR.pdb
     RDKit          3D

 32 33  0  0  1  0  0  0  0  0999 V2000
    8.2628  -16.4229   19.4406 O   0  0  0  0  0  0  0  0  0  0  0  0
    7.0019  -16.1307   19.9495 C   0  0  0  0  0  0  0  0  0  0  0  0
    7.0045  -14.7638   20.6460 C   0  0  2  0  0  0  0  0  0  0  0  0
    7.1346  -13.7962   19.5441 N   0  0  0  0  0  0  0  0  0  0  0  0
    8.2117  -14.6858   21.5249 C   0  0  0  0  0  0  0  0  0  0  0  0
    9.2720  -14.1563   21.1538 O   0  0  0  0  0  0  0  0  0  0  0  0
    8.1478  -15.2288   22.8162 N   0  0  0  0  0  0  0  0  0  0  0  0
    9.0986  -15.3600   23.8387 C   0  0  1  0  0  0  0  0  0  0  0  0
    8.6240  -15.6049   25.2484 C   0  0  0  0  0  0  0  0  0  0  0  0
    7.4560  -14.7324   25.6199 C   0  0  0  0  0  0  0  0  0  0  0  0
    6.1324  -15.0895   25.6975 C   0  0  0  0  0  0  0  0  0  0  0  0
    5.4454  -13.9928   26.0352 N   0  0  0  0  0  0  0  0  0  0  0  0
    6.3007  -12.9374   26.1769 C   0  0  0  0  0  0  0  0  0  0  0  0
    6.1163  -11.6208   26.5055 C   0  0  0  0  0  0  0  0  0  0  0  0
    7.2074  -10.7558   26.5746 C   0  0  0  0  0  0  0  0  0  0  0  0
    8.4888  -11.1945   26.3172 C   0  0  0  0  0  0  0  0  0  0  0  0
    8.6651  -12.5191   25.9881 C   0  0  0  0  0  0  0  0  0  0  0  0
    7.5708  -13.3924   25.9175 C   0  0  0  0  0  0  0  0  0  0  0  0
   10.1113  -16.3662   23.5095 C   0  0  0  0  0  0  0  0  0  0  0  0
    9.6981  -17.4570   22.9905 O   0  0  0  0  0  0  0  0  0  0  0  0
   16.2791  -14.6279   21.0557 N   0  0  0  0  0  0  0  0  0  0  0  0
   15.6881  -14.4634   19.7823 C   0  0  0  0  0  0  0  0  0  0  0  0
   16.0632  -13.5326   18.9286 N   0  0  0  0  0  0  0  0  0  0  0  0
   14.6265  -15.2920   19.2832 N   0  0  0  0  0  0  0  0  0  0  0  0
   14.0773  -16.3370   20.0640 C   0  0  0  0  0  0  0  0  0  0  0  0
   13.1346  -15.9717   21.1604 C   0  0  0  0  0  0  0  0  0  0  0  0
   13.5252  -16.4292   22.5233 C   0  0  0  0  0  0  0  0  0  0  0  0
   12.5005  -17.0545   23.3761 C   0  0  2  0  0  0  0  0  0  0  0  0
   11.4612  -16.0976   23.7699 N   0  0  0  0  0  0  0  0  0  0  0  0
   13.0579  -17.5778   24.6816 C   0  0  0  0  0  0  0  0  0  0  0  0
   12.6718  -17.0585   25.9052 O   0  0  0  0  0  0  0  0  0  0  0  0
   13.8887  -18.5045   24.7177 O   0  0  0  0  0  0  0  0  0  0  0  0
  2  1  1  0
  3  2  1  0
  3  4  1  6
  5  6  2  0
  5  3  1  0
  7  5  1  0
  8  7  1  0
  9 10  1  0
  8  9  1  1
 10 11  2  0
 10 18  1  0
 11 12  1  0
 12 13  1  0
 13 14  2  0
 15 14  1  0
 16 15  2  0
 17 18  2  0
 17 16  1  0
 18 13  1  0
 19  8  1  0
 19 29  1  0
 20 19  2  0
 22 21  1  0
 23 22  2  0
 24 22  1  0
 25 26  1  0
 25 24  1  0
 26 27  1  0
 28 27  1  1
 28 29  1  0
 28 30  1  0
 30 31  1  0
 32 30  2  0
M  END
$$$$
