SWR.pdb
     RDKit          3D

 32 33  0  0  1  0  0  0  0  0999 V2000
    5.8042  -21.5228   22.9029 O   0  0  0  0  0  0  0  0  0  0  0  0
    6.5587  -20.3682   22.7251 C   0  0  0  0  0  0  0  0  0  0  0  0
    5.7570  -19.1296   23.1453 C   0  0  2  0  0  0  0  0  0  0  0  0
    4.6454  -19.0736   22.1817 N   0  0  0  0  0  0  0  0  0  0  0  0
    6.6272  -17.9256   22.9752 C   0  0  0  0  0  0  0  0  0  0  0  0
    6.6892  -17.2949   21.9072 O   0  0  0  0  0  0  0  0  0  0  0  0
    7.4027  -17.4896   24.0591 N   0  0  0  0  0  0  0  0  0  0  0  0
    8.4012  -16.5120   24.1794 C   0  0  1  0  0  0  0  0  0  0  0  0
    8.6385  -15.8742   25.5245 C   0  0  0  0  0  0  0  0  0  0  0  0
    7.4452  -15.0964   26.0089 C   0  0  0  0  0  0  0  0  0  0  0  0
    6.1846  -15.5717   26.2742 C   0  0  0  0  0  0  0  0  0  0  0  0
    5.4392  -14.5276   26.6526 N   0  0  0  0  0  0  0  0  0  0  0  0
    6.1952  -13.3903   26.6363 C   0  0  0  0  0  0  0  0  0  0  0  0
    5.9227  -12.0809   26.9305 C   0  0  0  0  0  0  0  0  0  0  0  0
    6.9214  -11.1146   26.8194 C   0  0  0  0  0  0  0  0  0  0  0  0
    8.1975  -11.4442   26.4149 C   0  0  0  0  0  0  0  0  0  0  0  0
    8.4629  -12.7623   26.1217 C   0  0  0  0  0  0  0  0  0  0  0  0
    7.4617  -13.7373   26.2320 C   0  0  0  0  0  0  0  0  0  0  0  0
    9.6860  -16.9846   23.6576 C   0  0  0  0  0  0  0  0  0  0  0  0
   10.1575  -18.0584   24.1618 O   0  0  0  0  0  0  0  0  0  0  0  0
    8.4524  -15.0721   16.8782 N   0  0  0  0  0  0  0  0  0  0  0  0
    8.9520  -14.0024   17.6553 C   0  0  0  0  0  0  0  0  0  0  0  0
    8.2052  -12.9951   18.0594 N   0  0  0  0  0  0  0  0  0  0  0  0
   10.3171  -13.9028   18.0902 N   0  0  0  0  0  0  0  0  0  0  0  0
   11.0026  -15.0175   18.6294 C   0  0  0  0  0  0  0  0  0  0  0  0
   10.8639  -15.2862   20.0898 C   0  0  0  0  0  0  0  0  0  0  0  0
   11.6410  -16.4475   20.6066 C   0  0  0  0  0  0  0  0  0  0  0  0
   11.5689  -16.7586   22.0440 C   0  0  2  0  0  0  0  0  0  0  0  0
   10.3306  -16.2570   22.6488 N   0  0  0  0  0  0  0  0  0  0  0  0
   12.6785  -16.1129   22.8443 C   0  0  0  0  0  0  0  0  0  0  0  0
   12.4192  -15.2469   23.8926 O   0  0  0  0  0  0  0  0  0  0  0  0
   13.8795  -16.3328   22.6003 O   0  0  0  0  0  0  0  0  0  0  0  0
  2  1  1  0
  3  2  1  0
  3  4  1  6
  5  6  2  0
  5  3  1  0
  7  5  1  0
  8  7  1  0
  9 10  1  0
  8  9  1  1
 10 11  2  0
 10 18  1  0
 11 12  1  0
 12 13  1  0
 13 14  2  0
 15 14  1  0
 16 15  2  0
 17 18  2  0
 17 16  1  0
 18 13  1  0
 19  8  1  0
 19 29  1  0
 20 19  2  0
 22 21  1  0
 23 22  2  0
 24 22  1  0
 25 26  1  0
 25 24  1  0
 26 27  1  0
 28 27  1  6
 28 29  1  0
 28 30  1  0
 30 31  1  0
 32 30  2  0
M  END
$$$$
