SWR.pdb
     RDKit          3D

 32 33  0  0  1  0  0  0  0  0999 V2000
    9.3380  -16.1620   18.0541 O   0  0  0  0  0  0  0  0  0  0  0  0
    8.0994  -15.6385   17.6991 C   0  0  0  0  0  0  0  0  0  0  0  0
    7.8833  -14.2698   18.3576 C   0  0  2  0  0  0  0  0  0  0  0  0
    8.6584  -13.3390   17.5209 N   0  0  0  0  0  0  0  0  0  0  0  0
    8.4684  -14.3116   19.7330 C   0  0  0  0  0  0  0  0  0  0  0  0
    9.6146  -13.9031   19.9812 O   0  0  0  0  0  0  0  0  0  0  0  0
    7.6975  -14.8298   20.7835 N   0  0  0  0  0  0  0  0  0  0  0  0
    7.8377  -14.7795   22.1780 C   0  0  1  0  0  0  0  0  0  0  0  0
    6.6581  -14.3534   23.0143 C   0  0  0  0  0  0  0  0  0  0  0  0
    6.9034  -14.5366   24.4873 C   0  0  0  0  0  0  0  0  0  0  0  0
    7.1078  -15.7136   25.1644 C   0  0  0  0  0  0  0  0  0  0  0  0
    7.2550  -15.4060   26.4577 N   0  0  0  0  0  0  0  0  0  0  0  0
    7.1498  -14.0548   26.6260 C   0  0  0  0  0  0  0  0  0  0  0  0
    7.2229  -13.2398   27.7241 C   0  0  0  0  0  0  0  0  0  0  0  0
    7.0733  -11.8607   27.5852 C   0  0  0  0  0  0  0  0  0  0  0  0
    6.8499  -11.2832   26.3535 C   0  0  0  0  0  0  0  0  0  0  0  0
    6.7784  -12.1094   25.2552 C   0  0  0  0  0  0  0  0  0  0  0  0
    6.9282  -13.4967   25.3902 C   0  0  0  0  0  0  0  0  0  0  0  0
    8.3548  -16.0407   22.7151 C   0  0  0  0  0  0  0  0  0  0  0  0
    7.7941  -17.1153   22.3145 O   0  0  0  0  0  0  0  0  0  0  0  0
   15.2295  -14.2095   18.9050 N   0  0  0  0  0  0  0  0  0  0  0  0
   14.0320  -14.4771   19.6064 C   0  0  0  0  0  0  0  0  0  0  0  0
   12.8391  -14.1696   19.1392 N   0  0  0  0  0  0  0  0  0  0  0  0
   13.9870  -15.1148   20.8925 N   0  0  0  0  0  0  0  0  0  0  0  0
   13.0912  -16.1780   21.1576 C   0  0  0  0  0  0  0  0  0  0  0  0
   12.1579  -16.0368   22.3123 C   0  0  0  0  0  0  0  0  0  0  0  0
   11.2624  -17.2009   22.5615 C   0  0  0  0  0  0  0  0  0  0  0  0
   10.3474  -17.1507   23.7140 C   0  0  2  0  0  0  0  0  0  0  0  0
    9.4199  -16.0181   23.6247 N   0  0  0  0  0  0  0  0  0  0  0  0
   11.0665  -16.9578   25.0310 C   0  0  0  0  0  0  0  0  0  0  0  0
   11.9284  -17.9121   25.5433 O   0  0  0  0  0  0  0  0  0  0  0  0
   10.9201  -15.9284   25.7158 O   0  0  0  0  0  0  0  0  0  0  0  0
  2  1  1  0
  3  2  1  0
  3  4  1  6
  5  6  2  0
  5  3  1  0
  7  5  1  0
  8  7  1  0
  9 10  1  0
  8  9  1  1
 10 11  2  0
 10 18  1  0
 11 12  1  0
 12 13  1  0
 13 14  2  0
 15 14  1  0
 16 15  2  0
 17 18  2  0
 17 16  1  0
 18 13  1  0
 19  8  1  0
 19 29  1  0
 20 19  2  0
 22 21  1  0
 23 22  2  0
 24 22  1  0
 25 26  1  0
 25 24  1  0
 26 27  1  0
 28 27  1  6
 28 29  1  0
 28 30  1  0
 30 31  1  0
 32 30  2  0
M  END
$$$$
