SWR.pdb
     RDKit          3D

 32 33  0  0  1  0  0  0  0  0999 V2000
    7.6815  -16.0972   18.9045 O   0  0  0  0  0  0  0  0  0  0  0  0
    6.5153  -15.9492   19.6477 C   0  0  0  0  0  0  0  0  0  0  0  0
    6.5606  -14.6554   20.4708 C   0  0  2  0  0  0  0  0  0  0  0  0
    6.6150  -13.5855   19.4610 N   0  0  0  0  0  0  0  0  0  0  0  0
    7.8230  -14.6513   21.2721 C   0  0  0  0  0  0  0  0  0  0  0  0
    8.8678  -14.1174   20.8650 O   0  0  0  0  0  0  0  0  0  0  0  0
    7.8311  -15.2714   22.5297 N   0  0  0  0  0  0  0  0  0  0  0  0
    8.8279  -15.4293   23.5036 C   0  0  1  0  0  0  0  0  0  0  0  0
    8.4377  -15.9281   24.8717 C   0  0  0  0  0  0  0  0  0  0  0  0
    7.3245  -15.1197   25.4808 C   0  0  0  0  0  0  0  0  0  0  0  0
    6.0187  -15.4991   25.6714 C   0  0  0  0  0  0  0  0  0  0  0  0
    5.3796  -14.4585   26.2169 N   0  0  0  0  0  0  0  0  0  0  0  0
    6.2483  -13.4176   26.3814 C   0  0  0  0  0  0  0  0  0  0  0  0
    6.1078  -12.1517   26.8847 C   0  0  0  0  0  0  0  0  0  0  0  0
    7.2016  -11.2883   26.9269 C   0  0  0  0  0  0  0  0  0  0  0  0
    8.4421  -11.6781   26.4688 C   0  0  0  0  0  0  0  0  0  0  0  0
    8.5745  -12.9520   25.9651 C   0  0  0  0  0  0  0  0  0  0  0  0
    7.4774  -13.8235   25.9207 C   0  0  0  0  0  0  0  0  0  0  0  0
    9.9393  -16.2474   23.0119 C   0  0  0  0  0  0  0  0  0  0  0  0
    9.6468  -17.3889   22.5208 O   0  0  0  0  0  0  0  0  0  0  0  0
   15.6513  -13.2011   17.4957 N   0  0  0  0  0  0  0  0  0  0  0  0
   16.4448  -13.7462   18.5305 C   0  0  0  0  0  0  0  0  0  0  0  0
   17.7342  -13.5051   18.6530 N   0  0  0  0  0  0  0  0  0  0  0  0
   15.9324  -14.6109   19.5565 N   0  0  0  0  0  0  0  0  0  0  0  0
   14.6028  -15.0944   19.5174 C   0  0  0  0  0  0  0  0  0  0  0  0
   14.1479  -15.9846   20.6241 C   0  0  0  0  0  0  0  0  0  0  0  0
   12.9781  -15.4934   21.4048 C   0  0  0  0  0  0  0  0  0  0  0  0
   12.3383  -16.4087   22.3646 C   0  0  2  0  0  0  0  0  0  0  0  0
   11.2483  -15.7557   23.0969 N   0  0  0  0  0  0  0  0  0  0  0  0
   13.2867  -16.8962   23.4378 C   0  0  0  0  0  0  0  0  0  0  0  0
   14.2838  -17.8188   23.1723 O   0  0  0  0  0  0  0  0  0  0  0  0
   13.2178  -16.4872   24.6118 O   0  0  0  0  0  0  0  0  0  0  0  0
  2  1  1  0
  3  2  1  0
  3  4  1  6
  5  6  2  0
  5  3  1  0
  7  5  1  0
  8  7  1  0
  9 10  1  0
  8  9  1  1
 10 11  2  0
 10 18  1  0
 11 12  1  0
 12 13  1  0
 13 14  2  0
 15 14  1  0
 16 15  2  0
 17 18  2  0
 17 16  1  0
 18 13  1  0
 19  8  1  0
 19 29  1  0
 20 19  2  0
 22 21  1  0
 23 22  2  0
 24 22  1  0
 25 26  1  0
 25 24  1  0
 26 27  1  0
 28 27  1  6
 28 29  1  0
 28 30  1  0
 30 31  1  0
 32 30  2  0
M  END
$$$$
