EVE.pdb
     RDKit          3D

 26 25  0  0  1  0  0  0  0  0999 V2000
   17.6042  -14.0102  -16.9498 N   0  0  0  0  0  0  0  0  0  0  0  0
   16.7187  -12.9310  -16.5709 C   0  0  1  0  0  0  0  0  0  0  0  0
   16.4322  -13.0264  -15.1097 C   0  0  0  0  0  0  0  0  0  0  0  0
   15.6130  -14.2438  -14.7687 C   0  0  0  0  0  0  0  0  0  0  0  0
   15.2424  -14.3134  -13.3398 C   0  0  0  0  0  0  0  0  0  0  0  0
   14.4924  -15.2313  -12.9495 O   0  0  0  0  0  0  0  0  0  0  0  0
   17.3546  -11.5953  -16.9122 C   0  0  0  0  0  0  0  0  0  0  0  0
   18.6005  -11.5391  -17.0282 O   0  0  0  0  0  0  0  0  0  0  0  0
   15.7009  -13.3917  -12.4164 O   0  0  0  0  0  0  0  0  0  0  0  0
   14.5941   -8.3945  -17.7280 C   0  0  0  0  0  0  0  0  0  0  0  0
   15.9529   -8.4930  -18.4431 C   0  0  1  0  0  0  0  0  0  0  0  0
   16.3247   -7.0178  -18.6322 C   0  0  0  0  0  0  0  0  0  0  0  0
   16.9423   -9.1156  -17.4823 C   0  0  2  0  0  0  0  0  0  0  0  0
   16.5655  -10.4626  -17.0913 N   0  0  0  0  0  0  0  0  0  0  0  0
   17.3296   -8.3190  -16.3468 C   0  0  0  0  0  0  0  0  0  0  0  0
   16.5452   -8.3675  -15.3061 O   0  0  0  0  0  0  0  0  0  0  0  0
   18.4362   -7.4798  -16.1506 N   0  0  0  0  0  0  0  0  0  0  0  0
   18.7192   -6.7500  -14.9195 C   0  0  1  0  0  0  0  0  0  0  0  0
   20.2093   -6.6203  -14.7974 C   0  0  0  0  0  0  0  0  0  0  0  0
   20.6530   -5.7499  -13.6616 C   0  0  0  0  0  0  0  0  0  0  0  0
   22.1195   -5.6625  -13.6485 C   0  0  0  0  0  0  0  0  0  0  0  0
   22.8430   -6.5681  -14.0742 O   0  0  0  0  0  0  0  0  0  0  0  0
   18.0595   -5.4207  -14.9174 C   0  0  0  0  0  0  0  0  0  0  0  0
   17.6147   -4.9266  -13.8682 O   0  0  0  0  0  0  0  0  0  0  0  0
   22.7174   -4.5043  -13.1313 O   0  0  0  0  0  0  0  0  0  0  0  0
   17.9403   -4.7271  -16.1012 O   0  0  0  0  0  0  0  0  0  0  0  0
  2  1  1  1
  2  3  1  0
  4  5  1  0
  4  3  1  0
  5  6  2  0
  7  2  1  0
  8  7  2  0
  9  5  1  0
 11 10  1  1
 11 13  1  0
 12 11  1  0
 13 14  1  1
 14  7  1  0
 15 13  1  0
 15 16  2  0
 17 15  1  0
 18 19  1  6
 18 17  1  0
 20 21  1  0
 20 19  1  0
 21 22  2  0
 23 18  1  0
 24 23  2  0
 25 21  1  0
 26 23  1  0
M  END
$$$$
