EVE.pdb
     RDKit          3D

 26 25  0  0  1  0  0  0  0  0999 V2000
   27.6154  -12.5641  -17.6923 N   0  0  0  0  0  0  0  0  0  0  0  0
   27.4181  -11.3474  -16.9354 C   0  0  1  0  0  0  0  0  0  0  0  0
   28.2919  -10.2768  -17.4979 C   0  0  0  0  0  0  0  0  0  0  0  0
   29.7502  -10.6526  -17.4572 C   0  0  0  0  0  0  0  0  0  0  0  0
   30.6414   -9.5762  -17.9380 C   0  0  0  0  0  0  0  0  0  0  0  0
   31.1001   -9.6380  -19.0970 O   0  0  0  0  0  0  0  0  0  0  0  0
   25.9573  -10.9370  -16.9866 C   0  0  0  0  0  0  0  0  0  0  0  0
   25.3613  -10.9855  -18.0871 O   0  0  0  0  0  0  0  0  0  0  0  0
   30.9855   -8.4979  -17.1436 O   0  0  0  0  0  0  0  0  0  0  0  0
   21.7084  -10.5805  -14.6360 C   0  0  0  0  0  0  0  0  0  0  0  0
   23.1433  -11.1121  -14.7964 C   0  0  1  0  0  0  0  0  0  0  0  0
   22.9247  -12.3842  -15.6235 C   0  0  0  0  0  0  0  0  0  0  0  0
   23.9169  -10.1215  -15.6389 C   0  0  2  0  0  0  0  0  0  0  0  0
   25.3006  -10.5176  -15.8330 N   0  0  0  0  0  0  0  0  0  0  0  0
   23.8057   -8.7338  -15.2705 C   0  0  0  0  0  0  0  0  0  0  0  0
   24.4019   -8.3740  -14.1677 O   0  0  0  0  0  0  0  0  0  0  0  0
   23.1572   -7.6655  -15.9073 N   0  0  0  0  0  0  0  0  0  0  0  0
   23.0435   -6.3171  -15.3622 C   0  0  1  0  0  0  0  0  0  0  0  0
   22.5939   -5.4121  -16.4718 C   0  0  0  0  0  0  0  0  0  0  0  0
   22.3492   -3.9980  -16.0418 C   0  0  0  0  0  0  0  0  0  0  0  0
   21.8533   -3.2132  -17.1805 C   0  0  0  0  0  0  0  0  0  0  0  0
   21.7526   -3.6832  -18.3180 O   0  0  0  0  0  0  0  0  0  0  0  0
   22.1006   -6.2766  -14.2169 C   0  0  0  0  0  0  0  0  0  0  0  0
   21.1220   -7.0398  -14.1639 O   0  0  0  0  0  0  0  0  0  0  0  0
   21.4811   -1.8787  -16.9636 O   0  0  0  0  0  0  0  0  0  0  0  0
   22.3181   -5.3758  -13.1981 O   0  0  0  0  0  0  0  0  0  0  0  0
  2  1  1  6
  2  3  1  0
  4  5  1  0
  4  3  1  0
  5  6  2  0
  7  2  1  0
  8  7  2  0
  9  5  1  0
 11 10  1  6
 11 13  1  0
 12 11  1  0
 13 14  1  1
 14  7  1  0
 15 13  1  0
 15 16  2  0
 17 15  1  0
 18 19  1  6
 18 17  1  0
 20 21  1  0
 20 19  1  0
 21 22  2  0
 23 18  1  0
 24 23  2  0
 25 21  1  0
 26 23  1  0
M  END
$$$$
