EVE.pdb
     RDKit          3D

 26 25  0  0  1  0  0  0  0  0999 V2000
   24.1233  -21.2964  -15.5126 N   0  0  0  0  0  0  0  0  0  0  0  0
   22.7057  -21.4002  -15.2445 C   0  0  1  0  0  0  0  0  0  0  0  0
   22.1813  -22.6476  -15.8732 C   0  0  0  0  0  0  0  0  0  0  0  0
   22.1194  -22.5454  -17.3748 C   0  0  0  0  0  0  0  0  0  0  0  0
   21.1068  -21.5798  -17.8505 C   0  0  0  0  0  0  0  0  0  0  0  0
   21.4569  -20.6580  -18.6153 O   0  0  0  0  0  0  0  0  0  0  0  0
   22.4611  -21.4045  -13.7461 C   0  0  0  0  0  0  0  0  0  0  0  0
   23.3836  -21.7888  -12.9913 O   0  0  0  0  0  0  0  0  0  0  0  0
   19.7785  -21.6639  -17.4751 O   0  0  0  0  0  0  0  0  0  0  0  0
   19.2302  -18.9674  -12.4365 C   0  0  0  0  0  0  0  0  0  0  0  0
   20.4795  -19.2983  -11.6015 C   0  0  1  0  0  0  0  0  0  0  0  0
   19.9508  -19.1735  -10.1679 C   0  0  0  0  0  0  0  0  0  0  0  0
   20.8397  -20.7461  -11.8535 C   0  0  2  0  0  0  0  0  0  0  0  0
   21.2371  -20.9891  -13.2290 N   0  0  0  0  0  0  0  0  0  0  0  0
   19.9042  -21.7359  -11.3855 C   0  0  0  0  0  0  0  0  0  0  0  0
   19.0339  -22.1717  -12.2536 O   0  0  0  0  0  0  0  0  0  0  0  0
   19.7606  -22.3389  -10.1273 N   0  0  0  0  0  0  0  0  0  0  0  0
   18.7423  -23.3275   -9.7897 C   0  0  1  0  0  0  0  0  0  0  0  0
   19.0556  -23.8571   -8.4208 C   0  0  0  0  0  0  0  0  0  0  0  0
   18.0532  -24.8445   -7.9067 C   0  0  0  0  0  0  0  0  0  0  0  0
   18.4949  -25.3668   -6.6064 C   0  0  0  0  0  0  0  0  0  0  0  0
   18.0164  -26.3878   -6.1031 O   0  0  0  0  0  0  0  0  0  0  0  0
   17.3811  -22.7386   -9.8423 C   0  0  0  0  0  0  0  0  0  0  0  0
   17.1674  -21.5801   -9.4484 O   0  0  0  0  0  0  0  0  0  0  0  0
   19.4990  -24.6762   -5.9127 O   0  0  0  0  0  0  0  0  0  0  0  0
   16.3405  -23.4931  -10.3366 O   0  0  0  0  0  0  0  0  0  0  0  0
  2  1  1  1
  2  3  1  0
  4  5  1  0
  4  3  1  0
  5  6  2  0
  7  2  1  0
  8  7  2  0
  9  5  1  0
 11 10  1  6
 11 13  1  0
 12 11  1  0
 13 14  1  6
 14  7  1  0
 15 13  1  0
 15 16  2  0
 17 15  1  0
 18 19  1  1
 18 17  1  0
 20 21  1  0
 20 19  1  0
 21 22  2  0
 23 18  1  0
 24 23  2  0
 25 21  1  0
 26 23  1  0
M  END
$$$$
