EVE.pdb
     RDKit          3D

 26 25  0  0  1  0  0  0  0  0999 V2000
   28.8971  -35.2371   -4.2472 N   0  0  0  0  0  0  0  0  0  0  0  0
   27.9103  -35.4022   -3.2026 C   0  0  1  0  0  0  0  0  0  0  0  0
   28.3521  -36.4909   -2.2829 C   0  0  0  0  0  0  0  0  0  0  0  0
   28.1556  -37.8582   -2.8838 C   0  0  0  0  0  0  0  0  0  0  0  0
   26.7572  -38.3304   -2.8091 C   0  0  0  0  0  0  0  0  0  0  0  0
   25.9512  -37.7311   -2.0684 O   0  0  0  0  0  0  0  0  0  0  0  0
   27.7302  -34.0964   -2.4494 C   0  0  0  0  0  0  0  0  0  0  0  0
   28.7030  -33.3112   -2.3739 O   0  0  0  0  0  0  0  0  0  0  0  0
   26.3096  -39.4186   -3.5355 O   0  0  0  0  0  0  0  0  0  0  0  0
   25.5864  -31.5489   -3.3252 C   0  0  0  0  0  0  0  0  0  0  0  0
   25.0555  -31.7926   -1.9017 C   0  0  1  0  0  0  0  0  0  0  0  0
   23.8463  -32.6989   -2.1599 C   0  0  0  0  0  0  0  0  0  0  0  0
   26.0963  -32.5887   -1.1450 C   0  0  2  0  0  0  0  0  0  0  0  0
   26.5089  -33.7844   -1.8585 N   0  0  0  0  0  0  0  0  0  0  0  0
   25.8182  -32.8635    0.2410 C   0  0  0  0  0  0  0  0  0  0  0  0
   25.2389  -34.0018    0.5046 O   0  0  0  0  0  0  0  0  0  0  0  0
   26.0722  -32.1068    1.3943 N   0  0  0  0  0  0  0  0  0  0  0  0
   25.6289  -32.4632    2.7377 C   0  0  1  0  0  0  0  0  0  0  0  0
   26.4496  -31.6727    3.7144 C   0  0  0  0  0  0  0  0  0  0  0  0
   26.1783  -32.0089    5.1489 C   0  0  0  0  0  0  0  0  0  0  0  0
   27.0192  -31.1766    6.0199 C   0  0  0  0  0  0  0  0  0  0  0  0
   27.7357  -31.6538    6.9052 O   0  0  0  0  0  0  0  0  0  0  0  0
   24.1789  -32.2008    2.9140 C   0  0  0  0  0  0  0  0  0  0  0  0
   23.5727  -31.4174    2.1647 O   0  0  0  0  0  0  0  0  0  0  0  0
   27.0047  -29.7864    5.8362 O   0  0  0  0  0  0  0  0  0  0  0  0
   23.4984  -32.8388    3.9272 O   0  0  0  0  0  0  0  0  0  0  0  0
  2  1  1  6
  2  3  1  0
  4  5  1  0
  4  3  1  0
  5  6  2  0
  7  2  1  0
  8  7  2  0
  9  5  1  0
 11 10  1  6
 11 13  1  0
 12 11  1  0
 13 14  1  6
 14  7  1  0
 15 13  1  0
 15 16  2  0
 17 15  1  0
 18 19  1  1
 18 17  1  0
 20 21  1  0
 20 19  1  0
 21 22  2  0
 23 18  1  0
 24 23  2  0
 25 21  1  0
 26 23  1  0
M  END
$$$$
