EVE.pdb
     RDKit          3D

 26 25  0  0  1  0  0  0  0  0999 V2000
   19.0936  -13.1964  -17.0014 N   0  0  0  0  0  0  0  0  0  0  0  0
   19.4356  -11.8172  -17.2716 C   0  0  1  0  0  0  0  0  0  0  0  0
   18.1840  -11.0463  -17.5276 C   0  0  0  0  0  0  0  0  0  0  0  0
   17.3992  -11.6039  -18.6862 C   0  0  0  0  0  0  0  0  0  0  0  0
   16.1367  -10.8775  -18.9363 C   0  0  0  0  0  0  0  0  0  0  0  0
   16.1211   -9.9560  -19.7776 O   0  0  0  0  0  0  0  0  0  0  0  0
   20.2006  -11.2337  -16.0972 C   0  0  0  0  0  0  0  0  0  0  0  0
   19.7630  -11.4333  -14.9407 O   0  0  0  0  0  0  0  0  0  0  0  0
   14.9668  -11.1860  -18.2665 O   0  0  0  0  0  0  0  0  0  0  0  0
   23.5415  -11.8795  -15.2102 C   0  0  0  0  0  0  0  0  0  0  0  0
   23.6245  -10.3484  -15.3378 C   0  0  1  0  0  0  0  0  0  0  0  0
   24.2274  -10.1742  -16.7365 C   0  0  0  0  0  0  0  0  0  0  0  0
   22.2128   -9.8040  -15.3549 C   0  0  2  0  0  0  0  0  0  0  0  0
   21.3617  -10.4951  -16.3073 N   0  0  0  0  0  0  0  0  0  0  0  0
   22.0725   -8.3741  -15.4533 C   0  0  0  0  0  0  0  0  0  0  0  0
   21.8155   -7.8940  -16.6383 O   0  0  0  0  0  0  0  0  0  0  0  0
   22.1587   -7.3751  -14.4727 N   0  0  0  0  0  0  0  0  0  0  0  0
   21.9393   -5.9528  -14.7122 C   0  0  1  0  0  0  0  0  0  0  0  0
   20.5656   -5.7942  -15.2952 C   0  0  0  0  0  0  0  0  0  0  0  0
   20.1581   -4.3691  -15.5128 C   0  0  0  0  0  0  0  0  0  0  0  0
   18.7977   -4.3221  -16.0655 C   0  0  0  0  0  0  0  0  0  0  0  0
   18.1107   -5.3354  -16.2272 O   0  0  0  0  0  0  0  0  0  0  0  0
   22.0897   -5.1665  -13.4626 C   0  0  0  0  0  0  0  0  0  0  0  0
   22.2237   -3.9320  -13.4933 O   0  0  0  0  0  0  0  0  0  0  0  0
   18.2618   -3.0763  -16.4226 O   0  0  0  0  0  0  0  0  0  0  0  0
   22.0803   -5.8209  -12.2509 O   0  0  0  0  0  0  0  0  0  0  0  0
  2  1  1  1
  2  3  1  0
  4  5  1  0
  4  3  1  0
  5  6  2  0
  7  2  1  0
  8  7  2  0
  9  5  1  0
 11 10  1  6
 11 13  1  0
 12 11  1  0
 13 14  1  6
 14  7  1  0
 15 13  1  0
 15 16  2  0
 17 15  1  0
 18 19  1  1
 18 17  1  0
 20 21  1  0
 20 19  1  0
 21 22  2  0
 23 18  1  0
 24 23  2  0
 25 21  1  0
 26 23  1  0
M  END
$$$$
