EVE.pdb
     RDKit          3D

 26 25  0  0  1  0  0  0  0  0999 V2000
   19.5021  -14.1625  -17.3231 N   0  0  0  0  0  0  0  0  0  0  0  0
   19.7565  -12.7654  -17.5982 C   0  0  1  0  0  0  0  0  0  0  0  0
   18.4787  -12.1073  -17.9986 C   0  0  0  0  0  0  0  0  0  0  0  0
   17.8657  -12.7483  -19.2162 C   0  0  0  0  0  0  0  0  0  0  0  0
   16.5866  -12.1269  -19.6184 C   0  0  0  0  0  0  0  0  0  0  0  0
   15.9857  -12.5649  -20.6207 O   0  0  0  0  0  0  0  0  0  0  0  0
   20.3495  -12.0958  -16.3714 C   0  0  0  0  0  0  0  0  0  0  0  0
   19.8378  -12.3359  -15.2537 O   0  0  0  0  0  0  0  0  0  0  0  0
   16.0305  -11.0718  -18.9184 O   0  0  0  0  0  0  0  0  0  0  0  0
   24.3376  -10.7179  -16.5096 C   0  0  0  0  0  0  0  0  0  0  0  0
   23.5226  -10.9044  -15.2179 C   0  0  1  0  0  0  0  0  0  0  0  0
   24.1932   -9.9061  -14.2672 C   0  0  0  0  0  0  0  0  0  0  0  0
   22.1095  -10.4341  -15.4852 C   0  0  2  0  0  0  0  0  0  0  0  0
   21.4376  -11.2360  -16.4925 N   0  0  0  0  0  0  0  0  0  0  0  0
   21.9307   -9.0243  -15.7188 C   0  0  0  0  0  0  0  0  0  0  0  0
   22.3917   -8.5574  -16.8459 O   0  0  0  0  0  0  0  0  0  0  0  0
   21.3256   -8.0342  -14.9310 N   0  0  0  0  0  0  0  0  0  0  0  0
   21.3276   -6.6084  -15.2399 C   0  0  1  0  0  0  0  0  0  0  0  0
   19.9016   -6.1790  -15.4252 C   0  0  0  0  0  0  0  0  0  0  0  0
   19.7449   -4.7385  -15.8060 C   0  0  0  0  0  0  0  0  0  0  0  0
   18.3188   -4.4183  -15.9553 C   0  0  0  0  0  0  0  0  0  0  0  0
   17.4269   -5.2489  -15.7569 O   0  0  0  0  0  0  0  0  0  0  0  0
   21.9923   -5.8259  -14.1683 C   0  0  0  0  0  0  0  0  0  0  0  0
   22.1476   -6.2989  -13.0303 O   0  0  0  0  0  0  0  0  0  0  0  0
   17.9603   -3.1179  -16.3385 O   0  0  0  0  0  0  0  0  0  0  0  0
   22.4426   -4.5541  -14.4449 O   0  0  0  0  0  0  0  0  0  0  0  0
  2  1  1  1
  2  3  1  0
  4  5  1  0
  4  3  1  0
  5  6  2  0
  7  2  1  0
  8  7  2  0
  9  5  1  0
 11 10  1  6
 11 13  1  0
 12 11  1  0
 13 14  1  6
 14  7  1  0
 15 13  1  0
 15 16  2  0
 17 15  1  0
 18 19  1  1
 18 17  1  0
 20 21  1  0
 20 19  1  0
 21 22  2  0
 23 18  1  0
 24 23  2  0
 25 21  1  0
 26 23  1  0
M  END
$$$$
