EVE.pdb
     RDKit          3D

 26 25  0  0  1  0  0  0  0  0999 V2000
   27.5067  -22.3405  -16.1628 N   0  0  0  0  0  0  0  0  0  0  0  0
   26.7149  -21.2047  -15.7440 C   0  0  1  0  0  0  0  0  0  0  0  0
   25.9638  -20.6748  -16.9193 C   0  0  0  0  0  0  0  0  0  0  0  0
   26.8802  -20.1059  -17.9709 C   0  0  0  0  0  0  0  0  0  0  0  0
   27.5513  -18.8602  -17.5447 C   0  0  0  0  0  0  0  0  0  0  0  0
   28.7949  -18.7839  -17.6157 O   0  0  0  0  0  0  0  0  0  0  0  0
   25.7642  -21.6171  -14.6345 C   0  0  0  0  0  0  0  0  0  0  0  0
   25.0415  -22.6247  -14.8108 O   0  0  0  0  0  0  0  0  0  0  0  0
   26.8447  -17.7713  -17.0679 O   0  0  0  0  0  0  0  0  0  0  0  0
   24.5219  -21.0204   -9.8571 C   0  0  0  0  0  0  0  0  0  0  0  0
   25.4954  -20.6871  -11.0010 C   0  0  1  0  0  0  0  0  0  0  0  0
   26.6304  -21.6890  -10.7600 C   0  0  0  0  0  0  0  0  0  0  0  0
   24.8181  -21.0379  -12.3078 C   0  0  2  0  0  0  0  0  0  0  0  0
   25.7021  -20.8880  -13.4503 N   0  0  0  0  0  0  0  0  0  0  0  0
   23.5293  -20.4419  -12.5483 C   0  0  0  0  0  0  0  0  0  0  0  0
   23.5256  -19.2850  -13.1504 O   0  0  0  0  0  0  0  0  0  0  0  0
   22.2377  -20.8990  -12.2483 N   0  0  0  0  0  0  0  0  0  0  0  0
   21.0043  -20.2458  -12.6730 C   0  0  1  0  0  0  0  0  0  0  0  0
   20.9943  -20.2198  -14.1735 C   0  0  0  0  0  0  0  0  0  0  0  0
   19.7169  -19.7064  -14.7643 C   0  0  0  0  0  0  0  0  0  0  0  0
   19.6206  -20.1200  -16.1708 C   0  0  0  0  0  0  0  0  0  0  0  0
   20.4304  -20.8919  -16.6934 O   0  0  0  0  0  0  0  0  0  0  0  0
   19.8112  -20.9469  -12.1371 C   0  0  0  0  0  0  0  0  0  0  0  0
   19.8622  -22.1450  -11.8136 O   0  0  0  0  0  0  0  0  0  0  0  0
   18.5669  -19.6163  -16.9470 O   0  0  0  0  0  0  0  0  0  0  0  0
   18.6295  -20.2533  -11.9982 O   0  0  0  0  0  0  0  0  0  0  0  0
  2  1  1  6
  2  3  1  0
  4  5  1  0
  4  3  1  0
  5  6  2  0
  7  2  1  0
  8  7  2  0
  9  5  1  0
 11 10  1  1
 11 13  1  0
 12 11  1  0
 13 14  1  6
 14  7  1  0
 15 13  1  0
 15 16  2  0
 17 15  1  0
 18 19  1  6
 18 17  1  0
 20 21  1  0
 20 19  1  0
 21 22  2  0
 23 18  1  0
 24 23  2  0
 25 21  1  0
 26 23  1  0
M  END
$$$$
