EVE.pdb
     RDKit          3D

 26 25  0  0  1  0  0  0  0  0999 V2000
   18.9082  -12.5668  -16.7916 N   0  0  0  0  0  0  0  0  0  0  0  0
   19.1413  -11.1536  -16.9935 C   0  0  1  0  0  0  0  0  0  0  0  0
   17.8456  -10.4874  -17.3156 C   0  0  0  0  0  0  0  0  0  0  0  0
   17.3399  -10.8586  -18.6852 C   0  0  0  0  0  0  0  0  0  0  0  0
   16.0484  -10.2231  -19.0198 C   0  0  0  0  0  0  0  0  0  0  0  0
   15.9993   -8.9847  -19.1664 O   0  0  0  0  0  0  0  0  0  0  0  0
   19.7667  -10.5490  -15.7492 C   0  0  0  0  0  0  0  0  0  0  0  0
   19.2379  -10.7869  -14.6390 O   0  0  0  0  0  0  0  0  0  0  0  0
   14.8872  -10.9575  -19.1768 O   0  0  0  0  0  0  0  0  0  0  0  0
   22.7773  -11.1701  -14.3240 C   0  0  0  0  0  0  0  0  0  0  0  0
   22.9830   -9.6587  -14.5258 C   0  0  1  0  0  0  0  0  0  0  0  0
   23.8184   -9.6162  -15.8105 C   0  0  0  0  0  0  0  0  0  0  0  0
   21.6332   -9.0379  -14.8129 C   0  0  2  0  0  0  0  0  0  0  0  0
   20.9022   -9.7497  -15.8464 N   0  0  0  0  0  0  0  0  0  0  0  0
   21.6089   -7.6139  -15.0265 C   0  0  0  0  0  0  0  0  0  0  0  0
   21.9929   -7.1940  -16.2000 O   0  0  0  0  0  0  0  0  0  0  0  0
   21.2285   -6.5659  -14.1755 N   0  0  0  0  0  0  0  0  0  0  0  0
   21.4341   -5.1492  -14.4569 C   0  0  1  0  0  0  0  0  0  0  0  0
   20.0833   -4.5104  -14.5963 C   0  0  0  0  0  0  0  0  0  0  0  0
   19.3245   -4.9511  -15.8106 C   0  0  0  0  0  0  0  0  0  0  0  0
   17.9866   -4.3441  -15.8055 C   0  0  0  0  0  0  0  0  0  0  0  0
   17.6147   -3.5626  -14.9248 O   0  0  0  0  0  0  0  0  0  0  0  0
   22.2318   -4.4979  -13.3884 C   0  0  0  0  0  0  0  0  0  0  0  0
   22.4893   -5.0908  -12.3277 O   0  0  0  0  0  0  0  0  0  0  0  0
   17.0999   -4.6674  -16.8428 O   0  0  0  0  0  0  0  0  0  0  0  0
   22.6920   -3.2141  -13.5804 O   0  0  0  0  0  0  0  0  0  0  0  0
  2  1  1  1
  2  3  1  0
  4  5  1  0
  4  3  1  0
  5  6  2  0
  7  2  1  0
  8  7  2  0
  9  5  1  0
 11 10  1  6
 11 13  1  0
 12 11  1  0
 13 14  1  6
 14  7  1  0
 15 13  1  0
 15 16  2  0
 17 15  1  0
 18 19  1  1
 18 17  1  0
 20 21  1  0
 20 19  1  0
 21 22  2  0
 23 18  1  0
 24 23  2  0
 25 21  1  0
 26 23  1  0
M  END
$$$$
