QGT.pdb
     RDKit          3D

 21 20  0  0  1  0  0  0  0  0999 V2000
    9.1115  -20.7029   17.8306 N   0  0  0  0  0  0  0  0  0  0  0  0
   10.0244  -19.6137   17.5670 C   0  0  0  0  0  0  0  0  0  0  0  0
   10.7881  -19.7677   16.5917 O   0  0  0  0  0  0  0  0  0  0  0  0
   10.0139  -18.4382   18.4199 C   0  0  0  0  0  0  0  0  0  0  0  0
    8.9916  -18.3718   19.5106 C   0  0  0  0  0  0  0  0  0  0  0  0
    8.4461  -17.0045   19.6688 C   0  0  2  0  0  0  0  0  0  0  0  0
    9.4706  -16.0081   19.6156 N   0  0  0  0  0  0  0  0  0  0  0  0
    7.6254  -16.8244   20.8851 C   0  0  0  0  0  0  0  0  0  0  0  0
    6.5598  -17.4758   21.0734 O   0  0  0  0  0  0  0  0  0  0  0  0
    8.0350  -15.8966   21.8737 N   0  0  0  0  0  0  0  0  0  0  0  0
    7.2308  -15.6455   23.0533 C   0  0  0  0  0  0  0  0  0  0  0  0
    7.8350  -14.6750   23.9883 C   0  0  0  0  0  0  0  0  0  0  0  0
    9.0166  -14.2313   23.7898 O   0  0  0  0  0  0  0  0  0  0  0  0
    6.3379  -11.2967   25.2883 C   0  0  0  0  0  0  0  0  0  0  0  0
    6.7724  -12.1609   26.4376 C   0  0  1  0  0  0  0  0  0  0  0  0
    5.6704  -12.8708   26.9529 O   0  0  0  0  0  0  0  0  0  0  0  0
    7.7662  -13.2026   25.9770 C   0  0  2  0  0  0  0  0  0  0  0  0
    7.1508  -14.2004   25.1294 N   0  0  0  0  0  0  0  0  0  0  0  0
    8.4795  -13.8289   27.1180 C   0  0  0  0  0  0  0  0  0  0  0  0
    9.0944  -13.1029   27.9387 O   0  0  0  0  0  0  0  0  0  0  0  0
    8.4981  -15.1942   27.3215 O   0  0  0  0  0  0  0  0  0  0  0  0
  1  2  1  0
  2  3  2  0
  4  5  1  0
  4  2  1  0
  6  5  1  0
  6  7  1  1
  8  9  2  0
  8  6  1  0
 10  8  1  0
 11 10  1  0
 11 12  1  0
 12 18  1  0
 13 12  2  0
 15 16  1  0
 15 14  1  6
 17 15  1  0
 17 19  1  0
 17 18  1  1
 19 20  2  0
 19 21  1  0
M  END
$$$$
