QGT.pdb
     RDKit          3D

 21 20  0  0  1  0  0  0  0  0999 V2000
   -0.0008  -19.9004   19.6357 N   0  0  0  0  0  0  0  0  0  0  0  0
    0.2858  -19.3453   20.9392 C   0  0  0  0  0  0  0  0  0  0  0  0
   -0.6751  -18.8029   21.5229 O   0  0  0  0  0  0  0  0  0  0  0  0
    1.6284  -19.4369   21.4854 C   0  0  0  0  0  0  0  0  0  0  0  0
    2.6918  -20.0558   20.6337 C   0  0  0  0  0  0  0  0  0  0  0  0
    3.9934  -20.1137   21.3369 C   0  0  2  0  0  0  0  0  0  0  0  0
    3.8604  -20.6045   22.6735 N   0  0  0  0  0  0  0  0  0  0  0  0
    4.7309  -18.8325   21.3376 C   0  0  0  0  0  0  0  0  0  0  0  0
    5.1652  -18.3121   20.2718 O   0  0  0  0  0  0  0  0  0  0  0  0
    4.9643  -18.1609   22.5625 N   0  0  0  0  0  0  0  0  0  0  0  0
    5.5940  -16.8559   22.6004 C   0  0  0  0  0  0  0  0  0  0  0  0
    6.9322  -16.8601   23.2252 C   0  0  0  0  0  0  0  0  0  0  0  0
    7.1028  -17.3545   24.3910 O   0  0  0  0  0  0  0  0  0  0  0  0
   10.5190  -16.7247   21.0220 C   0  0  0  0  0  0  0  0  0  0  0  0
   10.4720  -15.9297   22.2957 C   0  0  1  0  0  0  0  0  0  0  0  0
   10.1646  -14.5840   22.0151 O   0  0  0  0  0  0  0  0  0  0  0  0
    9.3704  -16.4335   23.1998 C   0  0  2  0  0  0  0  0  0  0  0  0
    8.0683  -16.3244   22.5789 N   0  0  0  0  0  0  0  0  0  0  0  0
    9.3943  -15.7661   24.5252 C   0  0  0  0  0  0  0  0  0  0  0  0
    8.4600  -14.9892   24.8452 O   0  0  0  0  0  0  0  0  0  0  0  0
   10.4125  -15.9632   25.4365 O   0  0  0  0  0  0  0  0  0  0  0  0
  1  2  1  0
  2  3  2  0
  4  5  1  0
  4  2  1  0
  6  5  1  0
  6  7  1  1
  8  9  2  0
  8  6  1  0
 10  8  1  0
 11 10  1  0
 11 12  1  0
 12 18  1  0
 13 12  2  0
 15 16  1  0
 15 14  1  6
 17 15  1  0
 17 19  1  0
 17 18  1  6
 19 20  2  0
 19 21  1  0
M  END
$$$$
