QGT.pdb
     RDKit          3D

 21 20  0  0  1  0  0  0  0  0999 V2000
    7.0517  -19.0586   17.0610 N   0  0  0  0  0  0  0  0  0  0  0  0
    8.4048  -18.9601   16.5622 C   0  0  0  0  0  0  0  0  0  0  0  0
    8.8088  -19.9310   15.8898 O   0  0  0  0  0  0  0  0  0  0  0  0
    9.2019  -17.7830   16.8599 C   0  0  0  0  0  0  0  0  0  0  0  0
    8.5648  -16.6867   17.6545 C   0  0  0  0  0  0  0  0  0  0  0  0
    9.0355  -16.6817   19.0582 C   0  0  2  0  0  0  0  0  0  0  0  0
    8.5665  -17.8200   19.7859 N   0  0  0  0  0  0  0  0  0  0  0  0
    8.7124  -15.4407   19.7935 C   0  0  0  0  0  0  0  0  0  0  0  0
    9.4246  -14.4022   19.6950 O   0  0  0  0  0  0  0  0  0  0  0  0
    7.5750  -15.4036   20.6366 N   0  0  0  0  0  0  0  0  0  0  0  0
    7.2656  -14.2351   21.4366 C   0  0  0  0  0  0  0  0  0  0  0  0
    7.7279  -14.3339   22.8358 C   0  0  0  0  0  0  0  0  0  0  0  0
    7.4844  -13.3953   23.6679 O   0  0  0  0  0  0  0  0  0  0  0  0
    6.5127  -16.1394   25.4235 C   0  0  0  0  0  0  0  0  0  0  0  0
    7.9605  -16.5384   25.4552 C   0  0  1  0  0  0  0  0  0  0  0  0
    8.1386  -17.7669   24.7894 O   0  0  0  0  0  0  0  0  0  0  0  0
    8.8089  -15.5308   24.7136 C   0  0  2  0  0  0  0  0  0  0  0  0
    8.4521  -15.4484   23.3141 N   0  0  0  0  0  0  0  0  0  0  0  0
   10.2590  -15.7951   24.8866 C   0  0  0  0  0  0  0  0  0  0  0  0
   10.9773  -15.9980   23.8758 O   0  0  0  0  0  0  0  0  0  0  0  0
   10.8639  -15.8287   26.1271 O   0  0  0  0  0  0  0  0  0  0  0  0
  1  2  1  0
  2  3  2  0
  4  5  1  0
  4  2  1  0
  6  5  1  0
  6  7  1  1
  8  9  2  0
  8  6  1  0
 10  8  1  0
 11 10  1  0
 11 12  1  0
 12 18  1  0
 13 12  2  0
 15 16  1  0
 15 14  1  6
 17 15  1  0
 17 19  1  0
 17 18  1  6
 19 20  2  0
 19 21  1  0
M  END
$$$$
