QGT.pdb
     RDKit          3D

 21 20  0  0  1  0  0  0  0  0999 V2000
   10.9333  -19.3974   18.3375 N   0  0  0  0  0  0  0  0  0  0  0  0
    9.7640  -18.5484   18.3735 C   0  0  0  0  0  0  0  0  0  0  0  0
    9.8843  -17.4332   17.8259 O   0  0  0  0  0  0  0  0  0  0  0  0
    8.5520  -19.0134   19.0248 C   0  0  0  0  0  0  0  0  0  0  0  0
    7.7922  -18.0403   19.8703 C   0  0  0  0  0  0  0  0  0  0  0  0
    8.4355  -17.8400   21.1887 C   0  0  2  0  0  0  0  0  0  0  0  0
    8.7314  -19.0805   21.8359 N   0  0  0  0  0  0  0  0  0  0  0  0
    7.6720  -16.9615   22.1001 C   0  0  0  0  0  0  0  0  0  0  0  0
    7.2713  -15.8178   21.7441 O   0  0  0  0  0  0  0  0  0  0  0  0
    7.3766  -17.4036   23.4128 N   0  0  0  0  0  0  0  0  0  0  0  0
    6.6048  -16.5875   24.3289 C   0  0  0  0  0  0  0  0  0  0  0  0
    7.3627  -15.4547   24.8978 C   0  0  0  0  0  0  0  0  0  0  0  0
    8.6118  -15.3254   24.6620 O   0  0  0  0  0  0  0  0  0  0  0  0
    6.1168  -11.4889   25.4562 C   0  0  0  0  0  0  0  0  0  0  0  0
    6.6694  -12.2116   26.6516 C   0  0  1  0  0  0  0  0  0  0  0  0
    5.6199  -12.7694   27.4075 O   0  0  0  0  0  0  0  0  0  0  0  0
    7.5397  -13.3699   26.2205 C   0  0  2  0  0  0  0  0  0  0  0  0
    6.7566  -14.4778   25.7187 N   0  0  0  0  0  0  0  0  0  0  0  0
    8.4580  -13.8040   27.3026 C   0  0  0  0  0  0  0  0  0  0  0  0
    9.2305  -12.9670   27.8334 O   0  0  0  0  0  0  0  0  0  0  0  0
    8.5027  -15.1060   27.7595 O   0  0  0  0  0  0  0  0  0  0  0  0
  1  2  1  0
  2  3  2  0
  4  5  1  0
  4  2  1  0
  6  5  1  0
  6  7  1  1
  8  9  2  0
  8  6  1  0
 10  8  1  0
 11 10  1  0
 11 12  1  0
 12 18  1  0
 13 12  2  0
 15 16  1  0
 15 14  1  6
 17 15  1  0
 17 19  1  0
 17 18  1  1
 19 20  2  0
 19 21  1  0
M  END
$$$$
