QNF.pdb
     RDKit          3D

 29 29  0  0  1  0  0  0  0  0999 V2000
    5.0198  -18.8014   19.0415 N   0  0  0  0  0  0  0  0  0  0  0  0
    5.9271  -18.2421   18.1132 C   0  0  0  0  0  0  0  0  0  0  0  0
    5.5650  -18.1163   16.9280 O   0  0  0  0  0  0  0  0  0  0  0  0
    7.2572  -17.8209   18.5423 C   0  0  0  0  0  0  0  0  0  0  0  0
    7.5857  -17.9845   19.9770 C   0  0  0  0  0  0  0  0  0  0  0  0
    8.5254  -16.9554   20.5639 C   0  0  2  0  0  0  0  0  0  0  0  0
    9.5924  -16.5451   19.7385 N   0  0  0  0  0  0  0  0  0  0  0  0
    8.9344  -17.2539   21.9466 C   0  0  0  0  0  0  0  0  0  0  0  0
    8.0153  -17.2213   22.8178 O   0  0  0  0  0  0  0  0  0  0  0  0
   12.4332  -20.1988   22.1313 N   0  0  0  0  0  0  0  0  0  0  0  0
   11.4710  -19.9417   23.1290 C   0  0  0  0  0  0  0  0  0  0  0  0
   10.4788  -20.6899   23.2616 O   0  0  0  0  0  0  0  0  0  0  0  0
   11.6109  -18.7892   24.0348 C   0  0  0  0  0  0  0  0  0  0  0  0
   10.4894  -17.8150   23.7494 C   0  0  2  0  0  0  0  0  0  0  0  0
   10.2463  -17.5630   22.3593 N   0  0  0  0  0  0  0  0  0  0  0  0
   10.7347  -16.5251   24.4894 C   0  0  0  0  0  0  0  0  0  0  0  0
   11.4046  -15.5939   23.9888 O   0  0  0  0  0  0  0  0  0  0  0  0
   10.1750  -16.3995   25.7779 N   0  0  0  0  0  0  0  0  0  0  0  0
   10.5518  -15.2966   26.6961 C   0  0  1  0  0  0  0  0  0  0  0  0
   10.3242  -13.9822   25.9863 C   0  0  0  0  0  0  0  0  0  0  0  0
    8.8928  -13.6720   25.9590 C   0  0  0  0  0  0  0  0  0  0  0  0
    8.3298  -12.8125   26.8527 C   0  0  0  0  0  0  0  0  0  0  0  0
    6.9789  -12.5644   26.7787 C   0  0  0  0  0  0  0  0  0  0  0  0
    6.1782  -13.1702   25.8156 C   0  0  0  0  0  0  0  0  0  0  0  0
    6.7454  -14.0265   24.9279 C   0  0  0  0  0  0  0  0  0  0  0  0
    8.1096  -14.2854   24.9913 C   0  0  0  0  0  0  0  0  0  0  0  0
    9.8885  -15.4294   27.9793 C   0  0  0  0  0  0  0  0  0  0  0  0
    8.9928  -16.4719   28.2378 O   0  0  0  0  0  0  0  0  0  0  0  0
   10.0893  -14.6180   28.9041 O   0  0  0  0  0  0  0  0  0  0  0  0
  1  2  1  0
  2  3  2  0
  4  2  1  0
  4  5  1  0
  6  5  1  0
  6  7  1  6
  8  9  2  0
  8  6  1  0
 10 11  1  0
 11 12  2  0
 11 13  1  0
 14 13  1  6
 14 15  1  0
 15  8  1  0
 16 18  1  0
 16 14  1  0
 17 16  2  0
 19 20  1  6
 19 18  1  0
 21 22  2  0
 21 20  1  0
 23 22  1  0
 24 23  2  0
 25 24  1  0
 25 26  2  0
 26 21  1  0
 27 19  1  0
 28 27  1  0
 29 27  2  0
M  END
$$$$
