QNF.pdb
     RDKit          3D

 29 29  0  0  1  0  0  0  0  0999 V2000
    6.0518  -18.2817   17.0221 N   0  0  0  0  0  0  0  0  0  0  0  0
    7.3006  -18.5797   16.4311 C   0  0  0  0  0  0  0  0  0  0  0  0
    7.3852  -18.5863   15.1884 O   0  0  0  0  0  0  0  0  0  0  0  0
    8.4624  -18.8699   17.2659 C   0  0  0  0  0  0  0  0  0  0  0  0
    8.2585  -18.8564   18.7326 C   0  0  0  0  0  0  0  0  0  0  0  0
    9.4568  -18.4594   19.5653 C   0  0  2  0  0  0  0  0  0  0  0  0
    9.8068  -19.3391   20.6101 N   0  0  0  0  0  0  0  0  0  0  0  0
    9.4492  -17.0432   19.9682 C   0  0  0  0  0  0  0  0  0  0  0  0
    9.2680  -16.2015   19.0390 O   0  0  0  0  0  0  0  0  0  0  0  0
    8.0440  -12.3919   20.6034 N   0  0  0  0  0  0  0  0  0  0  0  0
    7.6538  -13.4067   21.5007 C   0  0  0  0  0  0  0  0  0  0  0  0
    7.1244  -13.1171   22.5950 O   0  0  0  0  0  0  0  0  0  0  0  0
    7.8607  -14.8271   21.1716 C   0  0  0  0  0  0  0  0  0  0  0  0
    9.2632  -15.2163   21.5840 C   0  0  2  0  0  0  0  0  0  0  0  0
    9.6283  -16.5696   21.2837 N   0  0  0  0  0  0  0  0  0  0  0  0
    9.4629  -14.9234   23.0489 C   0  0  0  0  0  0  0  0  0  0  0  0
   10.3272  -14.1109   23.4479 O   0  0  0  0  0  0  0  0  0  0  0  0
    8.6315  -15.6004   23.9653 N   0  0  0  0  0  0  0  0  0  0  0  0
    8.9959  -15.7526   25.3955 C   0  0  1  0  0  0  0  0  0  0  0  0
    7.7692  -15.4806   26.2349 C   0  0  0  0  0  0  0  0  0  0  0  0
    7.4730  -14.0460   26.2340 C   0  0  0  0  0  0  0  0  0  0  0  0
    8.4243  -13.1188   26.5336 C   0  0  0  0  0  0  0  0  0  0  0  0
    8.0840  -11.7861   26.5197 C   0  0  0  0  0  0  0  0  0  0  0  0
    6.7946  -11.3663   26.2085 C   0  0  0  0  0  0  0  0  0  0  0  0
    5.8506  -12.2956   25.9112 C   0  0  0  0  0  0  0  0  0  0  0  0
    6.1816  -13.6456   25.9210 C   0  0  0  0  0  0  0  0  0  0  0  0
    9.6434  -17.0271   25.6416 C   0  0  0  0  0  0  0  0  0  0  0  0
   10.2472  -17.3184   26.8690 O   0  0  0  0  0  0  0  0  0  0  0  0
    9.6891  -17.9148   24.7675 O   0  0  0  0  0  0  0  0  0  0  0  0
  1  2  1  0
  2  3  2  0
  4  2  1  0
  4  5  1  0
  6  5  1  0
  6  7  1  1
  8  9  2  0
  8  6  1  0
 10 11  1  0
 11 12  2  0
 11 13  1  0
 14 13  1  1
 14 15  1  0
 15  8  1  0
 16 18  1  0
 16 14  1  0
 17 16  2  0
 19 20  1  1
 19 18  1  0
 21 22  2  0
 21 20  1  0
 23 22  1  0
 24 23  2  0
 25 24  1  0
 25 26  2  0
 26 21  1  0
 27 19  1  0
 28 27  1  0
 29 27  2  0
M  END
$$$$
