QNF.pdb
     RDKit          3D

 29 29  0  0  1  0  0  0  0  0999 V2000
    9.6396  -19.0457   17.0803 N   0  0  0  0  0  0  0  0  0  0  0  0
    8.3575  -18.4572   17.1667 C   0  0  0  0  0  0  0  0  0  0  0  0
    7.9216  -17.8315   16.1818 O   0  0  0  0  0  0  0  0  0  0  0  0
    7.5661  -18.5862   18.3865 C   0  0  0  0  0  0  0  0  0  0  0  0
    8.0942  -19.4821   19.4407 C   0  0  0  0  0  0  0  0  0  0  0  0
    7.7636  -19.0973   20.8652 C   0  0  2  0  0  0  0  0  0  0  0  0
    6.4995  -18.5082   21.0727 N   0  0  0  0  0  0  0  0  0  0  0  0
    8.8589  -18.3938   21.5532 C   0  0  0  0  0  0  0  0  0  0  0  0
    9.9768  -18.9895   21.5731 O   0  0  0  0  0  0  0  0  0  0  0  0
   12.0841  -16.2425   20.6286 N   0  0  0  0  0  0  0  0  0  0  0  0
   10.8976  -15.4984   20.7892 C   0  0  0  0  0  0  0  0  0  0  0  0
   10.2900  -15.0503   19.7933 O   0  0  0  0  0  0  0  0  0  0  0  0
   10.3483  -15.2315   22.1291 C   0  0  0  0  0  0  0  0  0  0  0  0
    9.9299  -16.5472   22.7474 C   0  0  2  0  0  0  0  0  0  0  0  0
    8.7526  -17.1353   22.1791 N   0  0  0  0  0  0  0  0  0  0  0  0
    9.7769  -16.3835   24.2379 C   0  0  0  0  0  0  0  0  0  0  0  0
   10.6583  -15.8330   24.9355 O   0  0  0  0  0  0  0  0  0  0  0  0
    8.5925  -16.8736   24.8264 N   0  0  0  0  0  0  0  0  0  0  0  0
    8.3110  -16.7197   26.2750 C   0  0  1  0  0  0  0  0  0  0  0  0
    6.9739  -16.0338   26.4339 C   0  0  0  0  0  0  0  0  0  0  0  0
    7.1304  -14.5889   26.2506 C   0  0  0  0  0  0  0  0  0  0  0  0
    7.7431  -13.8113   27.1857 C   0  0  0  0  0  0  0  0  0  0  0  0
    7.8562  -12.4594   26.9581 C   0  0  0  0  0  0  0  0  0  0  0  0
    7.3600  -11.8714   25.7990 C   0  0  0  0  0  0  0  0  0  0  0  0
    6.7498  -12.6520   24.8709 C   0  0  0  0  0  0  0  0  0  0  0  0
    6.6295  -14.0196   25.0883 C   0  0  0  0  0  0  0  0  0  0  0  0
    8.4448  -17.9832   26.9749 C   0  0  0  0  0  0  0  0  0  0  0  0
    8.4804  -18.0481   28.3715 O   0  0  0  0  0  0  0  0  0  0  0  0
    8.5349  -19.0634   26.3592 O   0  0  0  0  0  0  0  0  0  0  0  0
  1  2  1  0
  2  3  2  0
  4  2  1  0
  4  5  1  0
  6  5  1  0
  6  7  1  6
  8  9  2  0
  8  6  1  0
 10 11  1  0
 11 12  2  0
 11 13  1  0
 14 13  1  6
 14 15  1  0
 15  8  1  0
 16 18  1  0
 16 14  1  0
 17 16  2  0
 19 20  1  6
 19 18  1  0
 21 22  2  0
 21 20  1  0
 23 22  1  0
 24 23  2  0
 25 24  1  0
 25 26  2  0
 26 21  1  0
 27 19  1  0
 28 27  1  0
 29 27  2  0
M  END
$$$$
