QNF.pdb
     RDKit          3D

 29 29  0  0  1  0  0  0  0  0999 V2000
    7.6549  -19.4976   26.2448 N   0  0  0  0  0  0  0  0  0  0  0  0
    6.4136  -19.0286   25.7582 C   0  0  0  0  0  0  0  0  0  0  0  0
    5.4721  -18.8911   26.5620 O   0  0  0  0  0  0  0  0  0  0  0  0
    6.2470  -18.7119   24.3430 C   0  0  0  0  0  0  0  0  0  0  0  0
    7.4375  -18.8593   23.4748 C   0  0  0  0  0  0  0  0  0  0  0  0
    8.2767  -17.6161   23.2829 C   0  0  2  0  0  0  0  0  0  0  0  0
    7.7460  -16.6345   22.4210 N   0  0  0  0  0  0  0  0  0  0  0  0
    9.7013  -17.9001   23.0422 C   0  0  0  0  0  0  0  0  0  0  0  0
   10.0039  -18.2717   21.8694 O   0  0  0  0  0  0  0  0  0  0  0  0
   13.4226  -14.4092   21.9685 N   0  0  0  0  0  0  0  0  0  0  0  0
   12.7537  -15.6500   21.9551 C   0  0  0  0  0  0  0  0  0  0  0  0
   13.2283  -16.6200   21.3261 O   0  0  0  0  0  0  0  0  0  0  0  0
   11.4840  -15.8320   22.6785 C   0  0  0  0  0  0  0  0  0  0  0  0
   11.7223  -16.7748   23.8373 C   0  0  2  0  0  0  0  0  0  0  0  0
   10.7270  -17.7931   24.0030 N   0  0  0  0  0  0  0  0  0  0  0  0
   11.8930  -15.9849   25.1095 C   0  0  0  0  0  0  0  0  0  0  0  0
   12.9737  -15.4235   25.3981 O   0  0  0  0  0  0  0  0  0  0  0  0
   10.7806  -15.8954   25.9719 N   0  0  0  0  0  0  0  0  0  0  0  0
   10.9071  -15.4284   27.3745 C   0  0  1  0  0  0  0  0  0  0  0  0
   10.4492  -13.9901   27.4447 C   0  0  0  0  0  0  0  0  0  0  0  0
    9.1621  -13.8431   26.7608 C   0  0  0  0  0  0  0  0  0  0  0  0
    7.9821  -14.0795   27.3982 C   0  0  0  0  0  0  0  0  0  0  0  0
    6.8060  -13.9282   26.7011 C   0  0  0  0  0  0  0  0  0  0  0  0
    6.7953  -13.5414   25.3648 C   0  0  0  0  0  0  0  0  0  0  0  0
    7.9751  -13.3077   24.7349 C   0  0  0  0  0  0  0  0  0  0  0  0
    9.1707  -13.4564   25.4280 C   0  0  0  0  0  0  0  0  0  0  0  0
   10.2440  -16.3340   28.2933 C   0  0  0  0  0  0  0  0  0  0  0  0
   10.2807  -16.1325   29.6768 O   0  0  0  0  0  0  0  0  0  0  0  0
    9.6149  -17.3304   27.8866 O   0  0  0  0  0  0  0  0  0  0  0  0
  1  2  1  0
  2  3  2  0
  4  2  1  0
  4  5  1  0
  6  5  1  0
  6  7  1  6
  8  9  2  0
  8  6  1  0
 10 11  1  0
 11 12  2  0
 11 13  1  0
 14 13  1  6
 14 15  1  0
 15  8  1  0
 16 18  1  0
 16 14  1  0
 17 16  2  0
 19 20  1  6
 19 18  1  0
 21 22  2  0
 21 20  1  0
 23 22  1  0
 24 23  2  0
 25 24  1  0
 25 26  2  0
 26 21  1  0
 27 19  1  0
 28 27  1  0
 29 27  2  0
M  END
$$$$
