QNF.pdb
     RDKit          3D

 29 29  0  0  1  0  0  0  0  0999 V2000
    7.7793  -15.5403   16.5930 N   0  0  0  0  0  0  0  0  0  0  0  0
    7.6651  -14.3028   17.2660 C   0  0  0  0  0  0  0  0  0  0  0  0
    7.0468  -13.3762   16.7086 O   0  0  0  0  0  0  0  0  0  0  0  0
    8.2596  -14.1228   18.5870 C   0  0  0  0  0  0  0  0  0  0  0  0
    7.4922  -14.6322   19.7465 C   0  0  0  0  0  0  0  0  0  0  0  0
    8.1347  -14.4431   21.1022 C   0  0  2  0  0  0  0  0  0  0  0  0
    8.9388  -13.2949   21.2545 N   0  0  0  0  0  0  0  0  0  0  0  0
    8.7541  -15.6681   21.6350 C   0  0  0  0  0  0  0  0  0  0  0  0
    8.0296  -16.7073   21.6252 O   0  0  0  0  0  0  0  0  0  0  0  0
   12.1330  -17.8408   19.5854 N   0  0  0  0  0  0  0  0  0  0  0  0
   11.4088  -18.1669   20.7500 C   0  0  0  0  0  0  0  0  0  0  0  0
   10.4503  -18.9671   20.6980 O   0  0  0  0  0  0  0  0  0  0  0  0
   11.7623  -17.5740   22.0507 C   0  0  0  0  0  0  0  0  0  0  0  0
   10.5057  -17.0167   22.6821 C   0  0  2  0  0  0  0  0  0  0  0  0
   10.0644  -15.7626   22.1458 N   0  0  0  0  0  0  0  0  0  0  0  0
   10.6843  -16.9238   24.1757 C   0  0  0  0  0  0  0  0  0  0  0  0
   11.3849  -17.7451   24.8092 O   0  0  0  0  0  0  0  0  0  0  0  0
   10.0314  -15.8666   24.8430 N   0  0  0  0  0  0  0  0  0  0  0  0
   10.1308  -15.6815   26.3117 C   0  0  1  0  0  0  0  0  0  0  0  0
   10.0767  -14.2019   26.6138 C   0  0  0  0  0  0  0  0  0  0  0  0
    8.7946  -13.6495   26.1700 C   0  0  0  0  0  0  0  0  0  0  0  0
    7.7310  -13.5429   27.0138 C   0  0  0  0  0  0  0  0  0  0  0  0
    6.5518  -13.0192   26.5369 C   0  0  0  0  0  0  0  0  0  0  0  0
    6.4220  -12.5985   25.2172 C   0  0  0  0  0  0  0  0  0  0  0  0
    7.4859  -12.7078   24.3810 C   0  0  0  0  0  0  0  0  0  0  0  0
    8.6835  -13.2347   24.8504 C   0  0  0  0  0  0  0  0  0  0  0  0
    9.1528  -16.4919   27.0123 C   0  0  0  0  0  0  0  0  0  0  0  0
    9.2892  -16.7954   28.3707 O   0  0  0  0  0  0  0  0  0  0  0  0
    8.1507  -16.9523   26.4310 O   0  0  0  0  0  0  0  0  0  0  0  0
  1  2  1  0
  2  3  2  0
  4  2  1  0
  4  5  1  0
  6  5  1  0
  6  7  1  6
  8  9  2  0
  8  6  1  0
 10 11  1  0
 11 12  2  0
 11 13  1  0
 14 13  1  6
 14 15  1  0
 15  8  1  0
 16 18  1  0
 16 14  1  0
 17 16  2  0
 19 20  1  6
 19 18  1  0
 21 22  2  0
 21 20  1  0
 23 22  1  0
 24 23  2  0
 25 24  1  0
 25 26  2  0
 26 21  1  0
 27 19  1  0
 28 27  1  0
 29 27  2  0
M  END
$$$$
