QNF.pdb
     RDKit          3D

 29 29  0  0  1  0  0  0  0  0999 V2000
    8.4181  -12.6548   16.2281 N   0  0  0  0  0  0  0  0  0  0  0  0
    7.6216  -13.8029   16.0158 C   0  0  0  0  0  0  0  0  0  0  0  0
    7.2918  -14.0920   14.8500 O   0  0  0  0  0  0  0  0  0  0  0  0
    7.2004  -14.6285   17.1435 C   0  0  0  0  0  0  0  0  0  0  0  0
    7.6471  -14.2073   18.4911 C   0  0  0  0  0  0  0  0  0  0  0  0
    8.5643  -15.1666   19.2159 C   0  0  2  0  0  0  0  0  0  0  0  0
    9.1043  -16.2147   18.4426 N   0  0  0  0  0  0  0  0  0  0  0  0
    8.0410  -15.6084   20.5193 C   0  0  0  0  0  0  0  0  0  0  0  0
    6.7811  -15.5852   20.6497 O   0  0  0  0  0  0  0  0  0  0  0  0
    5.3356  -17.3838   24.4217 N   0  0  0  0  0  0  0  0  0  0  0  0
    6.5657  -17.8798   23.9440 C   0  0  0  0  0  0  0  0  0  0  0  0
    7.2470  -18.6634   24.6394 O   0  0  0  0  0  0  0  0  0  0  0  0
    7.0757  -17.4872   22.6195 C   0  0  0  0  0  0  0  0  0  0  0  0
    8.1647  -16.4548   22.8109 C   0  0  2  0  0  0  0  0  0  0  0  0
    8.8251  -16.0422   21.6074 N   0  0  0  0  0  0  0  0  0  0  0  0
    9.1646  -16.9511   23.8236 C   0  0  0  0  0  0  0  0  0  0  0  0
    9.2907  -18.1686   24.0849 O   0  0  0  0  0  0  0  0  0  0  0  0
    9.9649  -15.9874   24.4716 N   0  0  0  0  0  0  0  0  0  0  0  0
    9.3943  -14.9972   25.4178 C   0  0  1  0  0  0  0  0  0  0  0  0
    8.1780  -14.3683   24.7787 C   0  0  0  0  0  0  0  0  0  0  0  0
    7.5671  -13.4117   25.7048 C   0  0  0  0  0  0  0  0  0  0  0  0
    6.5823  -13.7820   26.5694 C   0  0  0  0  0  0  0  0  0  0  0  0
    6.0451  -12.8368   27.4121 C   0  0  0  0  0  0  0  0  0  0  0  0
    6.4832  -11.5164   27.4002 C   0  0  0  0  0  0  0  0  0  0  0  0
    7.4649  -11.1535   26.5356 C   0  0  0  0  0  0  0  0  0  0  0  0
    8.0167  -12.0990   25.6791 C   0  0  0  0  0  0  0  0  0  0  0  0
    9.1718  -15.5850   26.7251 C   0  0  0  0  0  0  0  0  0  0  0  0
    8.7925  -16.9229   26.8730 O   0  0  0  0  0  0  0  0  0  0  0  0
    9.3085  -14.9202   27.7707 O   0  0  0  0  0  0  0  0  0  0  0  0
  1  2  1  0
  2  3  2  0
  4  2  1  0
  4  5  1  0
  6  5  1  0
  6  7  1  6
  8  9  2  0
  8  6  1  0
 10 11  1  0
 11 12  2  0
 11 13  1  0
 14 13  1  6
 14 15  1  0
 15  8  1  0
 16 18  1  0
 16 14  1  0
 17 16  2  0
 19 20  1  6
 19 18  1  0
 21 22  2  0
 21 20  1  0
 23 22  1  0
 24 23  2  0
 25 24  1  0
 25 26  2  0
 26 21  1  0
 27 19  1  0
 28 27  1  0
 29 27  2  0
M  END
$$$$
