QNF.pdb
     RDKit          3D

 29 29  0  0  1  0  0  0  0  0999 V2000
    8.1631  -12.7371   17.2939 N   0  0  0  0  0  0  0  0  0  0  0  0
    7.7950  -13.9316   16.6341 C   0  0  0  0  0  0  0  0  0  0  0  0
    8.0070  -14.0259   15.4103 O   0  0  0  0  0  0  0  0  0  0  0  0
    7.1823  -15.0278   17.3782 C   0  0  0  0  0  0  0  0  0  0  0  0
    7.4429  -15.0820   18.8350 C   0  0  0  0  0  0  0  0  0  0  0  0
    8.8973  -15.1084   19.2481 C   0  0  2  0  0  0  0  0  0  0  0  0
    9.8307  -15.3624   18.2223 N   0  0  0  0  0  0  0  0  0  0  0  0
    9.1461  -15.8860   20.4735 C   0  0  0  0  0  0  0  0  0  0  0  0
    8.1820  -15.9575   21.2923 O   0  0  0  0  0  0  0  0  0  0  0  0
   12.6824  -19.0939   20.1827 N   0  0  0  0  0  0  0  0  0  0  0  0
   11.6574  -19.0542   21.1497 C   0  0  0  0  0  0  0  0  0  0  0  0
   10.7060  -19.8629   21.0994 O   0  0  0  0  0  0  0  0  0  0  0  0
   11.6827  -18.0621   22.2376 C   0  0  0  0  0  0  0  0  0  0  0  0
   10.4862  -17.1495   22.0832 C   0  0  2  0  0  0  0  0  0  0  0  0
   10.3540  -16.5384   20.7932 N   0  0  0  0  0  0  0  0  0  0  0  0
   10.4998  -16.1040   23.1687 C   0  0  0  0  0  0  0  0  0  0  0  0
   10.9922  -14.9680   22.9851 O   0  0  0  0  0  0  0  0  0  0  0  0
    9.9296  -16.4509   24.4112 N   0  0  0  0  0  0  0  0  0  0  0  0
    9.3676  -15.4321   25.3317 C   0  0  1  0  0  0  0  0  0  0  0  0
    8.4781  -14.5051   24.5362 C   0  0  0  0  0  0  0  0  0  0  0  0
    7.8542  -13.5255   25.4290 C   0  0  0  0  0  0  0  0  0  0  0  0
    6.5249  -13.5688   25.7216 C   0  0  0  0  0  0  0  0  0  0  0  0
    5.9965  -12.6183   26.5639 C   0  0  0  0  0  0  0  0  0  0  0  0
    6.7865  -11.6175   27.1204 C   0  0  0  0  0  0  0  0  0  0  0  0
    8.1109  -11.5795   26.8244 C   0  0  0  0  0  0  0  0  0  0  0  0
    8.6576  -12.5344   25.9751 C   0  0  0  0  0  0  0  0  0  0  0  0
    8.7417  -16.0514   26.4845 C   0  0  0  0  0  0  0  0  0  0  0  0
    7.9765  -17.2161   26.3665 O   0  0  0  0  0  0  0  0  0  0  0  0
    8.8597  -15.5693   27.6280 O   0  0  0  0  0  0  0  0  0  0  0  0
  1  2  1  0
  2  3  2  0
  4  2  1  0
  4  5  1  0
  6  5  1  0
  6  7  1  6
  8  9  2  0
  8  6  1  0
 10 11  1  0
 11 12  2  0
 11 13  1  0
 14 13  1  6
 14 15  1  0
 15  8  1  0
 16 18  1  0
 16 14  1  0
 17 16  2  0
 19 20  1  6
 19 18  1  0
 21 22  2  0
 21 20  1  0
 23 22  1  0
 24 23  2  0
 25 24  1  0
 25 26  2  0
 26 21  1  0
 27 19  1  0
 28 27  1  0
 29 27  2  0
M  END
$$$$
