QNF.pdb
     RDKit          3D

 29 29  0  0  1  0  0  0  0  0999 V2000
    8.4774  -12.2481   18.7588 N   0  0  0  0  0  0  0  0  0  0  0  0
    7.8271  -13.3619   18.1805 C   0  0  0  0  0  0  0  0  0  0  0  0
    8.0914  -13.6593   17.0001 O   0  0  0  0  0  0  0  0  0  0  0  0
    6.8695  -14.1433   18.9570 C   0  0  0  0  0  0  0  0  0  0  0  0
    7.1553  -14.3192   20.3993 C   0  0  0  0  0  0  0  0  0  0  0  0
    8.5266  -14.8558   20.7432 C   0  0  2  0  0  0  0  0  0  0  0  0
    9.2330  -15.4763   19.6925 N   0  0  0  0  0  0  0  0  0  0  0  0
    8.5607  -15.6170   22.0031 C   0  0  0  0  0  0  0  0  0  0  0  0
    7.5832  -15.4369   22.7885 O   0  0  0  0  0  0  0  0  0  0  0  0
   10.7212  -19.5944   21.4861 N   0  0  0  0  0  0  0  0  0  0  0  0
    9.7593  -19.3020   22.4743 C   0  0  0  0  0  0  0  0  0  0  0  0
    8.5739  -19.6726   22.3354 O   0  0  0  0  0  0  0  0  0  0  0  0
   10.1266  -18.5547   23.6889 C   0  0  0  0  0  0  0  0  0  0  0  0
    9.4579  -17.1987   23.6391 C   0  0  2  0  0  0  0  0  0  0  0  0
    9.5821  -16.5086   22.3888 N   0  0  0  0  0  0  0  0  0  0  0  0
    9.9599  -16.3416   24.7726 C   0  0  0  0  0  0  0  0  0  0  0  0
   11.0648  -15.7562   24.7184 O   0  0  0  0  0  0  0  0  0  0  0  0
    9.1321  -16.2167   25.9078 N   0  0  0  0  0  0  0  0  0  0  0  0
    9.5981  -15.5596   27.1537 C   0  0  1  0  0  0  0  0  0  0  0  0
    8.4033  -14.9526   27.8519 C   0  0  0  0  0  0  0  0  0  0  0  0
    7.7824  -13.9435   26.9904 C   0  0  0  0  0  0  0  0  0  0  0  0
    6.6656  -14.2155   26.2603 C   0  0  0  0  0  0  0  0  0  0  0  0
    6.1311  -13.2273   25.4666 C   0  0  0  0  0  0  0  0  0  0  0  0
    6.7045  -11.9618   25.3929 C   0  0  0  0  0  0  0  0  0  0  0  0
    7.8181  -11.6972   26.1228 C   0  0  0  0  0  0  0  0  0  0  0  0
    8.3678  -12.6868   26.9295 C   0  0  0  0  0  0  0  0  0  0  0  0
   10.3923  -16.4652   27.9619 C   0  0  0  0  0  0  0  0  0  0  0  0
   10.5554  -17.8095   27.6122 O   0  0  0  0  0  0  0  0  0  0  0  0
   10.9612  -16.0819   29.0028 O   0  0  0  0  0  0  0  0  0  0  0  0
  1  2  1  0
  2  3  2  0
  4  2  1  0
  4  5  1  0
  6  5  1  0
  6  7  1  6
  8  9  2  0
  8  6  1  0
 10 11  1  0
 11 12  2  0
 11 13  1  0
 14 13  1  6
 14 15  1  0
 15  8  1  0
 16 18  1  0
 16 14  1  0
 17 16  2  0
 19 20  1  1
 19 18  1  0
 21 22  2  0
 21 20  1  0
 23 22  1  0
 24 23  2  0
 25 24  1  0
 25 26  2  0
 26 21  1  0
 27 19  1  0
 28 27  1  0
 29 27  2  0
M  END
$$$$
