QNF.pdb
     RDKit          3D

 29 29  0  0  1  0  0  0  0  0999 V2000
   10.2701  -18.4824   16.0465 N   0  0  0  0  0  0  0  0  0  0  0  0
   10.0105  -19.5596   16.9240 C   0  0  0  0  0  0  0  0  0  0  0  0
    9.6249  -20.6413   16.4416 O   0  0  0  0  0  0  0  0  0  0  0  0
   10.1950  -19.4008   18.3632 C   0  0  0  0  0  0  0  0  0  0  0  0
   10.5115  -18.0407   18.8561 C   0  0  0  0  0  0  0  0  0  0  0  0
   10.7131  -17.9061   20.3487 C   0  0  2  0  0  0  0  0  0  0  0  0
   10.1382  -18.9160   21.1473 N   0  0  0  0  0  0  0  0  0  0  0  0
   10.4656  -16.5457   20.8548 C   0  0  0  0  0  0  0  0  0  0  0  0
   10.9800  -15.6011   20.1854 O   0  0  0  0  0  0  0  0  0  0  0  0
    6.9736  -15.8417   22.0741 N   0  0  0  0  0  0  0  0  0  0  0  0
    7.2849  -14.7513   21.2367 C   0  0  0  0  0  0  0  0  0  0  0  0
    6.4330  -14.2973   20.4430 O   0  0  0  0  0  0  0  0  0  0  0  0
    8.6166  -14.1240   21.2762 C   0  0  0  0  0  0  0  0  0  0  0  0
    9.4591  -14.8497   22.3017 C   0  0  2  0  0  0  0  0  0  0  0  0
    9.7170  -16.2285   22.0062 N   0  0  0  0  0  0  0  0  0  0  0  0
    8.8365  -14.7051   23.6666 C   0  0  0  0  0  0  0  0  0  0  0  0
    8.4568  -13.5959   24.1049 O   0  0  0  0  0  0  0  0  0  0  0  0
    8.6910  -15.8750   24.4409 N   0  0  0  0  0  0  0  0  0  0  0  0
    9.0659  -15.9215   25.8757 C   0  0  1  0  0  0  0  0  0  0  0  0
    7.8126  -15.7620   26.7046 C   0  0  0  0  0  0  0  0  0  0  0  0
    7.3643  -14.3679   26.6667 C   0  0  0  0  0  0  0  0  0  0  0  0
    6.1194  -14.0283   26.2315 C   0  0  0  0  0  0  0  0  0  0  0  0
    5.7579  -12.7012   26.2155 C   0  0  0  0  0  0  0  0  0  0  0  0
    6.6325  -11.7025   26.6316 C   0  0  0  0  0  0  0  0  0  0  0  0
    7.8723  -12.0475   27.0639 C   0  0  0  0  0  0  0  0  0  0  0  0
    8.2500  -13.3851   27.0856 C   0  0  0  0  0  0  0  0  0  0  0  0
    9.8597  -17.0981   26.1751 C   0  0  0  0  0  0  0  0  0  0  0  0
   10.3923  -17.3191   27.4492 O   0  0  0  0  0  0  0  0  0  0  0  0
   10.1008  -17.9601   25.3074 O   0  0  0  0  0  0  0  0  0  0  0  0
  1  2  1  0
  2  3  2  0
  4  2  1  0
  4  5  1  0
  6  5  1  0
  6  7  1  1
  8  9  2  0
  8  6  1  0
 10 11  1  0
 11 12  2  0
 11 13  1  0
 14 13  1  6
 14 15  1  0
 15  8  1  0
 16 18  1  0
 16 14  1  0
 17 16  2  0
 19 20  1  1
 19 18  1  0
 21 22  2  0
 21 20  1  0
 23 22  1  0
 24 23  2  0
 25 24  1  0
 25 26  2  0
 26 21  1  0
 27 19  1  0
 28 27  1  0
 29 27  2  0
M  END
$$$$
