QNF.pdb
     RDKit          3D

 29 29  0  0  1  0  0  0  0  0999 V2000
    6.4019  -18.5242   16.3010 N   0  0  0  0  0  0  0  0  0  0  0  0
    7.4210  -17.6159   15.9348 C   0  0  0  0  0  0  0  0  0  0  0  0
    7.6340  -17.4160   14.7239 O   0  0  0  0  0  0  0  0  0  0  0  0
    8.2012  -16.9288   16.9595 C   0  0  0  0  0  0  0  0  0  0  0  0
    7.8042  -17.1485   18.3691 C   0  0  0  0  0  0  0  0  0  0  0  0
    8.7181  -16.5528   19.4162 C   0  0  2  0  0  0  0  0  0  0  0  0
    9.9744  -16.1022   18.9615 N   0  0  0  0  0  0  0  0  0  0  0  0
    8.7926  -17.3488   20.6527 C   0  0  0  0  0  0  0  0  0  0  0  0
    7.6929  -17.8001   21.0908 O   0  0  0  0  0  0  0  0  0  0  0  0
    9.5835  -21.7504   23.2574 N   0  0  0  0  0  0  0  0  0  0  0  0
   10.6563  -20.8416   23.1557 C   0  0  0  0  0  0  0  0  0  0  0  0
   11.5520  -20.8172   24.0268 O   0  0  0  0  0  0  0  0  0  0  0  0
   10.7465  -19.9023   22.0252 C   0  0  0  0  0  0  0  0  0  0  0  0
    9.9431  -18.6658   22.3630 C   0  0  2  0  0  0  0  0  0  0  0  0
    9.9733  -17.6344   21.3678 N   0  0  0  0  0  0  0  0  0  0  0  0
   10.3770  -18.1266   23.7018 C   0  0  0  0  0  0  0  0  0  0  0  0
   10.2884  -18.8078   24.7481 O   0  0  0  0  0  0  0  0  0  0  0  0
   10.8956  -16.8154   23.7364 N   0  0  0  0  0  0  0  0  0  0  0  0
   11.0357  -16.0571   25.0039 C   0  0  1  0  0  0  0  0  0  0  0  0
    9.6624  -15.6147   25.4528 C   0  0  0  0  0  0  0  0  0  0  0  0
    9.7580  -14.9229   26.7405 C   0  0  0  0  0  0  0  0  0  0  0  0
   10.2293  -15.5477   27.8550 C   0  0  0  0  0  0  0  0  0  0  0  0
   10.2915  -14.8460   29.0365 C   0  0  0  0  0  0  0  0  0  0  0  0
    9.8844  -13.5181   29.1179 C   0  0  0  0  0  0  0  0  0  0  0  0
    9.4150  -12.9011   28.0034 C   0  0  0  0  0  0  0  0  0  0  0  0
    9.3477  -13.5987   26.8029 C   0  0  0  0  0  0  0  0  0  0  0  0
   11.7953  -16.8075   25.9857 C   0  0  0  0  0  0  0  0  0  0  0  0
   11.2875  -17.9704   26.5738 O   0  0  0  0  0  0  0  0  0  0  0  0
   12.9322  -16.4451   26.3465 O   0  0  0  0  0  0  0  0  0  0  0  0
  1  2  1  0
  2  3  2  0
  4  2  1  0
  4  5  1  0
  6  5  1  0
  6  7  1  6
  8  9  2  0
  8  6  1  0
 10 11  1  0
 11 12  2  0
 11 13  1  0
 14 13  1  6
 14 15  1  0
 15  8  1  0
 16 18  1  0
 16 14  1  0
 17 16  2  0
 19 20  1  1
 19 18  1  0
 21 22  2  0
 21 20  1  0
 23 22  1  0
 24 23  2  0
 25 24  1  0
 25 26  2  0
 26 21  1  0
 27 19  1  0
 28 27  1  0
 29 27  2  0
M  END
$$$$
