VDK.pdb
     RDKit          3D

 25 24  0  0  1  0  0  0  0  0999 V2000
    7.5978  -13.0326   20.4683 C   0  0  0  0  0  0  0  0  0  0  0  0
    8.6802  -13.3178   19.4793 C   0  0  2  0  0  0  0  0  0  0  0  0
    8.4872  -12.5303   18.1912 C   0  0  0  0  0  0  0  0  0  0  0  0
    8.7514  -14.7844   19.1002 C   0  0  2  0  0  0  0  0  0  0  0  0
    7.5301  -15.1775   18.4217 N   0  0  0  0  0  0  0  0  0  0  0  0
    8.9736  -15.6523   20.2649 C   0  0  0  0  0  0  0  0  0  0  0  0
    8.0535  -16.1178   20.9801 O   0  0  0  0  0  0  0  0  0  0  0  0
   10.3059  -16.0340   20.6695 N   0  0  0  0  0  0  0  0  0  0  0  0
   10.5652  -16.8208   21.8322 C   0  0  1  0  0  0  0  0  0  0  0  0
   11.8005  -17.6769   21.7166 C   0  0  0  0  0  0  0  0  0  0  0  0
   11.6761  -18.7226   20.6828 C   0  0  0  0  0  0  0  0  0  0  0  0
   12.3376  -18.5710   19.6264 O   0  0  0  0  0  0  0  0  0  0  0  0
   10.6026  -16.0089   23.0769 C   0  0  0  0  0  0  0  0  0  0  0  0
   11.4852  -15.1251   23.2296 O   0  0  0  0  0  0  0  0  0  0  0  0
   10.8927  -19.8484   20.7876 O   0  0  0  0  0  0  0  0  0  0  0  0
    9.6624  -16.2126   24.0940 N   0  0  0  0  0  0  0  0  0  0  0  0
    9.6401  -15.4478   25.3463 C   0  0  1  0  0  0  0  0  0  0  0  0
    8.3600  -14.6454   25.3077 C   0  0  0  0  0  0  0  0  0  0  0  0
    8.1266  -13.8051   26.5210 C   0  0  0  0  0  0  0  0  0  0  0  0
    6.8214  -13.0633   26.3695 C   0  0  0  0  0  0  0  0  0  0  0  0
    6.5669  -12.2025   27.5964 C   0  0  0  0  0  0  0  0  0  0  0  0
    5.3769  -11.3941   27.3891 N   0  0  0  0  0  0  0  0  0  0  0  0
    9.6466  -16.4195   26.4627 C   0  0  0  0  0  0  0  0  0  0  0  0
    9.5224  -17.7991   26.2360 O   0  0  0  0  0  0  0  0  0  0  0  0
    9.7650  -16.0114   27.6408 O   0  0  0  0  0  0  0  0  0  0  0  0
  2  1  1  1
  3  2  1  0
  4  2  1  0
  4  6  1  0
  4  5  1  1
  6  7  2  0
  8  9  1  0
  8  6  1  0
 10 11  1  0
  9 10  1  6
 11 12  2  0
 13  9  1  0
 13 14  2  0
 15 11  1  0
 16 13  1  0
 17 16  1  0
 17 23  1  0
 17 18  1  6
 19 18  1  0
 20 19  1  0
 21 22  1  0
 21 20  1  0
 23 25  2  0
 23 24  1  0
M  END
$$$$
