VDK.pdb
     RDKit          3D

 25 24  0  0  1  0  0  0  0  0999 V2000
    6.9609  -14.2035   19.2487 C   0  0  0  0  0  0  0  0  0  0  0  0
    8.0784  -13.2865   19.6245 C   0  0  2  0  0  0  0  0  0  0  0  0
    8.2303  -12.1465   18.6275 C   0  0  0  0  0  0  0  0  0  0  0  0
    9.4159  -13.9973   19.6979 C   0  0  2  0  0  0  0  0  0  0  0  0
    9.7417  -14.5684   18.4041 N   0  0  0  0  0  0  0  0  0  0  0  0
    9.4337  -15.0495   20.7236 C   0  0  0  0  0  0  0  0  0  0  0  0
    8.9832  -14.9055   21.8860 O   0  0  0  0  0  0  0  0  0  0  0  0
    9.9882  -16.3536   20.4471 N   0  0  0  0  0  0  0  0  0  0  0  0
   10.1763  -17.3438   21.4582 C   0  0  1  0  0  0  0  0  0  0  0  0
   10.6565  -18.6682   20.9219 C   0  0  0  0  0  0  0  0  0  0  0  0
    9.7066  -19.2778   19.9712 C   0  0  0  0  0  0  0  0  0  0  0  0
   10.1755  -19.7326   18.8989 O   0  0  0  0  0  0  0  0  0  0  0  0
   11.0529  -16.8750   22.5634 C   0  0  0  0  0  0  0  0  0  0  0  0
   12.2305  -16.5024   22.3225 O   0  0  0  0  0  0  0  0  0  0  0  0
    8.3497  -19.3857   20.1694 O   0  0  0  0  0  0  0  0  0  0  0  0
   10.5862  -16.8401   23.8828 N   0  0  0  0  0  0  0  0  0  0  0  0
   11.3957  -16.3881   25.0205 C   0  0  1  0  0  0  0  0  0  0  0  0
   10.4103  -15.8361   26.0245 C   0  0  0  0  0  0  0  0  0  0  0  0
   11.0259  -15.4130   27.3186 C   0  0  0  0  0  0  0  0  0  0  0  0
    9.9419  -14.9346   28.2528 C   0  0  0  0  0  0  0  0  0  0  0  0
   10.5464  -14.5334   29.5888 C   0  0  0  0  0  0  0  0  0  0  0  0
    9.4906  -14.1299   30.5026 N   0  0  0  0  0  0  0  0  0  0  0  0
   12.1184  -17.5664   25.5498 C   0  0  0  0  0  0  0  0  0  0  0  0
   11.5802  -18.8595   25.4593 O   0  0  0  0  0  0  0  0  0  0  0  0
   13.2369  -17.4166   26.0931 O   0  0  0  0  0  0  0  0  0  0  0  0
  2  1  1  6
  3  2  1  0
  4  2  1  0
  4  6  1  0
  4  5  1  6
  6  7  2  0
  8  9  1  0
  8  6  1  0
 10 11  1  0
  9 10  1  6
 11 12  2  0
 13  9  1  0
 13 14  2  0
 15 11  1  0
 16 13  1  0
 17 16  1  0
 17 23  1  0
 17 18  1  1
 19 18  1  0
 20 19  1  0
 21 22  1  0
 21 20  1  0
 23 25  2  0
 23 24  1  0
M  END
$$$$
