VDK.pdb
     RDKit          3D

 25 24  0  0  1  0  0  0  0  0999 V2000
    7.8159  -13.0361   20.8363 C   0  0  0  0  0  0  0  0  0  0  0  0
    8.6772  -13.5309   19.7208 C   0  0  2  0  0  0  0  0  0  0  0  0
    8.3379  -12.8492   18.4029 C   0  0  0  0  0  0  0  0  0  0  0  0
    8.5421  -15.0249   19.4989 C   0  0  2  0  0  0  0  0  0  0  0  0
    7.1840  -15.3423   19.0975 N   0  0  0  0  0  0  0  0  0  0  0  0
    8.9009  -15.8018   20.6936 C   0  0  0  0  0  0  0  0  0  0  0  0
    8.0699  -16.2184   21.5366 O   0  0  0  0  0  0  0  0  0  0  0  0
   10.2745  -16.1433   20.9785 N   0  0  0  0  0  0  0  0  0  0  0  0
   10.6607  -16.9015   22.1249 C   0  0  1  0  0  0  0  0  0  0  0  0
   11.9583  -17.6471   21.9442 C   0  0  0  0  0  0  0  0  0  0  0  0
   11.8945  -18.6515   20.8649 C   0  0  0  0  0  0  0  0  0  0  0  0
   12.8485  -18.6832   20.0492 O   0  0  0  0  0  0  0  0  0  0  0  0
   10.6914  -16.0861   23.3674 C   0  0  0  0  0  0  0  0  0  0  0  0
   11.6900  -15.3657   23.6271 O   0  0  0  0  0  0  0  0  0  0  0  0
   10.8720  -19.5538   20.6845 O   0  0  0  0  0  0  0  0  0  0  0  0
    9.6166  -16.1056   24.2642 N   0  0  0  0  0  0  0  0  0  0  0  0
    9.5493  -15.2742   25.4718 C   0  0  1  0  0  0  0  0  0  0  0  0
    8.2835  -14.4603   25.3327 C   0  0  0  0  0  0  0  0  0  0  0  0
    8.0448  -13.5020   26.4540 C   0  0  0  0  0  0  0  0  0  0  0  0
    6.7438  -12.7748   26.2192 C   0  0  0  0  0  0  0  0  0  0  0  0
    6.5120  -11.7543   27.3219 C   0  0  0  0  0  0  0  0  0  0  0  0
    5.2075  -11.1363   27.1508 N   0  0  0  0  0  0  0  0  0  0  0  0
    9.4925  -16.1845   26.6375 C   0  0  0  0  0  0  0  0  0  0  0  0
    9.2929  -17.5650   26.4819 O   0  0  0  0  0  0  0  0  0  0  0  0
    9.6246  -15.7219   27.7938 O   0  0  0  0  0  0  0  0  0  0  0  0
  2  1  1  1
  3  2  1  0
  4  2  1  0
  4  6  1  0
  4  5  1  1
  6  7  2  0
  8  9  1  0
  8  6  1  0
 10 11  1  0
  9 10  1  6
 11 12  2  0
 13  9  1  0
 13 14  2  0
 15 11  1  0
 16 13  1  0
 17 16  1  0
 17 23  1  0
 17 18  1  6
 19 18  1  0
 20 19  1  0
 21 22  1  0
 21 20  1  0
 23 25  2  0
 23 24  1  0
M  END
$$$$
