VDK.pdb
     RDKit          3D

 25 24  0  0  1  0  0  0  0  0999 V2000
    7.7339  -13.0451   21.6452 C   0  0  0  0  0  0  0  0  0  0  0  0
    8.3960  -13.4572   20.3713 C   0  0  2  0  0  0  0  0  0  0  0  0
    7.8367  -12.6992   19.1757 C   0  0  0  0  0  0  0  0  0  0  0  0
    8.2302  -14.9361   20.0803 C   0  0  2  0  0  0  0  0  0  0  0  0
    6.8296  -15.2386   19.8493 N   0  0  0  0  0  0  0  0  0  0  0  0
    8.7478  -15.7805   21.1659 C   0  0  0  0  0  0  0  0  0  0  0  0
    8.0301  -16.3034   22.0526 O   0  0  0  0  0  0  0  0  0  0  0  0
   10.1578  -16.0685   21.2814 N   0  0  0  0  0  0  0  0  0  0  0  0
   10.6984  -16.8778   22.3259 C   0  0  1  0  0  0  0  0  0  0  0  0
   12.0932  -17.3743   22.0422 C   0  0  0  0  0  0  0  0  0  0  0  0
   12.6155  -18.2509   23.1083 C   0  0  0  0  0  0  0  0  0  0  0  0
   11.8196  -19.0787   23.6161 O   0  0  0  0  0  0  0  0  0  0  0  0
   10.6365  -16.2148   23.6550 C   0  0  0  0  0  0  0  0  0  0  0  0
   11.4417  -15.2904   23.9391 O   0  0  0  0  0  0  0  0  0  0  0  0
   13.9048  -18.2305   23.5873 O   0  0  0  0  0  0  0  0  0  0  0  0
    9.6872  -16.6051   24.6071 N   0  0  0  0  0  0  0  0  0  0  0  0
    9.5657  -15.9904   25.9342 C   0  0  1  0  0  0  0  0  0  0  0  0
    8.2085  -15.3259   25.9497 C   0  0  0  0  0  0  0  0  0  0  0  0
    8.2512  -13.8504   26.1811 C   0  0  0  0  0  0  0  0  0  0  0  0
    6.8479  -13.2980   26.1335 C   0  0  0  0  0  0  0  0  0  0  0  0
    6.8799  -11.7841   26.2683 C   0  0  0  0  0  0  0  0  0  0  0  0
    5.5262  -11.2584   26.2084 N   0  0  0  0  0  0  0  0  0  0  0  0
    9.6591  -17.0741   26.9380 C   0  0  0  0  0  0  0  0  0  0  0  0
    9.8031  -18.4173   26.5570 O   0  0  0  0  0  0  0  0  0  0  0  0
    9.6092  -16.7965   28.1582 O   0  0  0  0  0  0  0  0  0  0  0  0
  2  1  1  1
  3  2  1  0
  4  2  1  0
  4  6  1  0
  4  5  1  1
  6  7  2  0
  8  9  1  0
  8  6  1  0
 10 11  1  0
  9 10  1  6
 11 12  2  0
 13  9  1  0
 13 14  2  0
 15 11  1  0
 16 13  1  0
 17 16  1  0
 17 23  1  0
 17 18  1  6
 19 18  1  0
 20 19  1  0
 21 22  1  0
 21 20  1  0
 23 25  2  0
 23 24  1  0
M  END
$$$$
