VDK.pdb
     RDKit          3D

 25 24  0  0  1  0  0  0  0  0999 V2000
    7.3945  -12.2599   18.8040 C   0  0  0  0  0  0  0  0  0  0  0  0
    8.3538  -13.2451   19.3873 C   0  0  2  0  0  0  0  0  0  0  0  0
    9.5899  -12.5599   19.9524 C   0  0  0  0  0  0  0  0  0  0  0  0
    8.8327  -14.2638   18.3713 C   0  0  2  0  0  0  0  0  0  0  0  0
    7.6999  -14.9988   17.8392 N   0  0  0  0  0  0  0  0  0  0  0  0
    9.8105  -15.2022   18.9393 C   0  0  0  0  0  0  0  0  0  0  0  0
    9.5058  -16.1877   19.6540 O   0  0  0  0  0  0  0  0  0  0  0  0
   11.2257  -15.0419   18.7020 N   0  0  0  0  0  0  0  0  0  0  0  0
   12.2068  -15.9175   19.2577 C   0  0  1  0  0  0  0  0  0  0  0  0
   13.4116  -16.1107   18.3727 C   0  0  0  0  0  0  0  0  0  0  0  0
   13.0808  -16.7658   17.0924 C   0  0  0  0  0  0  0  0  0  0  0  0
   12.4517  -17.8511   17.1452 O   0  0  0  0  0  0  0  0  0  0  0  0
   12.6200  -15.5186   20.6288 C   0  0  0  0  0  0  0  0  0  0  0  0
   13.2231  -14.4302   20.8165 O   0  0  0  0  0  0  0  0  0  0  0  0
   13.4084  -16.2794   15.8481 O   0  0  0  0  0  0  0  0  0  0  0  0
   12.3468  -16.3418   21.7277 N   0  0  0  0  0  0  0  0  0  0  0  0
   12.7253  -16.0105   23.1064 C   0  0  1  0  0  0  0  0  0  0  0  0
   12.0535  -17.0515   23.9718 C   0  0  0  0  0  0  0  0  0  0  0  0
   12.4552  -17.0047   25.4102 C   0  0  0  0  0  0  0  0  0  0  0  0
   11.7364  -18.0966   26.1638 C   0  0  0  0  0  0  0  0  0  0  0  0
   12.1803  -18.1041   27.6178 C   0  0  0  0  0  0  0  0  0  0  0  0
   11.4383  -19.1162   28.3511 N   0  0  0  0  0  0  0  0  0  0  0  0
   14.2005  -16.0901   23.1954 C   0  0  0  0  0  0  0  0  0  0  0  0
   14.9288  -17.0495   22.4749 O   0  0  0  0  0  0  0  0  0  0  0  0
   14.8228  -15.2873   23.9281 O   0  0  0  0  0  0  0  0  0  0  0  0
  2  1  1  6
  3  2  1  0
  4  2  1  0
  4  6  1  0
  4  5  1  1
  6  7  2  0
  8  9  1  0
  8  6  1  0
 10 11  1  0
  9 10  1  6
 11 12  2  0
 13  9  1  0
 13 14  2  0
 15 11  1  0
 16 13  1  0
 17 16  1  0
 17 23  1  0
 17 18  1  1
 19 18  1  0
 20 19  1  0
 21 22  1  0
 21 20  1  0
 23 25  2  0
 23 24  1  0
M  END
$$$$
