VDK.pdb
     RDKit          3D

 25 24  0  0  1  0  0  0  0  0999 V2000
    7.5640  -13.2321   20.5861 C   0  0  0  0  0  0  0  0  0  0  0  0
    8.5901  -13.4436   19.5214 C   0  0  2  0  0  0  0  0  0  0  0  0
    8.3431  -12.5477   18.3160 C   0  0  0  0  0  0  0  0  0  0  0  0
    8.6203  -14.8733   19.0170 C   0  0  2  0  0  0  0  0  0  0  0  0
    7.3868  -15.1736   18.3137 N   0  0  0  0  0  0  0  0  0  0  0  0
    8.8222  -15.8441   20.1015 C   0  0  0  0  0  0  0  0  0  0  0  0
    7.8891  -16.3905   20.7383 O   0  0  0  0  0  0  0  0  0  0  0  0
   10.1483  -16.2405   20.5127 N   0  0  0  0  0  0  0  0  0  0  0  0
   10.3951  -17.0084   21.6907 C   0  0  1  0  0  0  0  0  0  0  0  0
   11.6086  -17.8967   21.5869 C   0  0  0  0  0  0  0  0  0  0  0  0
   11.8182  -18.7207   22.7931 C   0  0  0  0  0  0  0  0  0  0  0  0
   10.8134  -19.2927   23.2827 O   0  0  0  0  0  0  0  0  0  0  0  0
   10.4596  -16.1712   22.9174 C   0  0  0  0  0  0  0  0  0  0  0  0
   11.4449  -15.4139   23.1155 O   0  0  0  0  0  0  0  0  0  0  0  0
   13.0275  -18.9097   23.4206 O   0  0  0  0  0  0  0  0  0  0  0  0
    9.4318  -16.2109   23.8670 N   0  0  0  0  0  0  0  0  0  0  0  0
    9.3924  -15.3563   25.0595 C   0  0  1  0  0  0  0  0  0  0  0  0
    8.0999  -14.5797   24.9583 C   0  0  0  0  0  0  0  0  0  0  0  0
    7.8661  -13.6291   26.0872 C   0  0  0  0  0  0  0  0  0  0  0  0
    6.5836  -12.8726   25.8438 C   0  0  0  0  0  0  0  0  0  0  0  0
    6.3316  -11.8963   26.9816 C   0  0  0  0  0  0  0  0  0  0  0  0
    5.1540  -11.0962   26.6886 N   0  0  0  0  0  0  0  0  0  0  0  0
    9.4100  -16.2429   26.2445 C   0  0  0  0  0  0  0  0  0  0  0  0
    9.8620  -15.7900   27.4936 O   0  0  0  0  0  0  0  0  0  0  0  0
    9.0144  -17.4267   26.1404 O   0  0  0  0  0  0  0  0  0  0  0  0
  2  1  1  1
  3  2  1  0
  4  2  1  0
  4  6  1  0
  4  5  1  1
  6  7  2  0
  8  9  1  0
  8  6  1  0
 10 11  1  0
  9 10  1  6
 11 12  2  0
 13  9  1  0
 13 14  2  0
 15 11  1  0
 16 13  1  0
 17 16  1  0
 17 23  1  0
 17 18  1  6
 19 18  1  0
 20 19  1  0
 21 22  1  0
 21 20  1  0
 23 25  2  0
 23 24  1  0
M  END
$$$$
