VDK.pdb
     RDKit          3D

 25 24  0  0  1  0  0  0  0  0999 V2000
    7.8940  -14.5267   18.3399 C   0  0  0  0  0  0  0  0  0  0  0  0
    7.9330  -13.3978   19.3172 C   0  0  2  0  0  0  0  0  0  0  0  0
    8.0101  -12.0490   18.6161 C   0  0  0  0  0  0  0  0  0  0  0  0
    9.1200  -13.4814   20.2571 C   0  0  2  0  0  0  0  0  0  0  0  0
   10.3549  -13.3869   19.5004 N   0  0  0  0  0  0  0  0  0  0  0  0
    9.1179  -14.7180   21.0510 C   0  0  0  0  0  0  0  0  0  0  0  0
    8.1277  -15.1351   21.6994 O   0  0  0  0  0  0  0  0  0  0  0  0
   10.2920  -15.5541   21.1356 N   0  0  0  0  0  0  0  0  0  0  0  0
   10.3897  -16.6610   22.0318 C   0  0  1  0  0  0  0  0  0  0  0  0
   11.4283  -17.6750   21.6251 C   0  0  0  0  0  0  0  0  0  0  0  0
   11.4838  -18.8335   22.5376 C   0  0  0  0  0  0  0  0  0  0  0  0
   10.3912  -19.3111   22.9306 O   0  0  0  0  0  0  0  0  0  0  0  0
   10.5906  -16.2397   23.4432 C   0  0  0  0  0  0  0  0  0  0  0  0
   11.6949  -15.7601   23.8093 O   0  0  0  0  0  0  0  0  0  0  0  0
   12.6386  -19.4287   22.9895 O   0  0  0  0  0  0  0  0  0  0  0  0
    9.5611  -16.3684   24.3830 N   0  0  0  0  0  0  0  0  0  0  0  0
    9.7072  -16.0239   25.8021 C   0  0  1  0  0  0  0  0  0  0  0  0
    8.3656  -15.4715   26.2247 C   0  0  0  0  0  0  0  0  0  0  0  0
    8.3063  -13.9794   26.2777 C   0  0  0  0  0  0  0  0  0  0  0  0
    6.9178  -13.5502   26.6833 C   0  0  0  0  0  0  0  0  0  0  0  0
    6.8290  -12.0327   26.7086 C   0  0  0  0  0  0  0  0  0  0  0  0
    5.5245  -11.6268   27.2047 N   0  0  0  0  0  0  0  0  0  0  0  0
   10.0442  -17.2675   26.5306 C   0  0  0  0  0  0  0  0  0  0  0  0
   10.0857  -18.5108   25.8807 O   0  0  0  0  0  0  0  0  0  0  0  0
   10.2997  -17.2198   27.7558 O   0  0  0  0  0  0  0  0  0  0  0  0
  2  1  1  6
  3  2  1  0
  4  2  1  0
  4  6  1  0
  4  5  1  6
  6  7  2  0
  8  9  1  0
  8  6  1  0
 10 11  1  0
  9 10  1  6
 11 12  2  0
 13  9  1  0
 13 14  2  0
 15 11  1  0
 16 13  1  0
 17 16  1  0
 17 23  1  0
 17 18  1  1
 19 18  1  0
 20 19  1  0
 21 22  1  0
 21 20  1  0
 23 25  2  0
 23 24  1  0
M  END
$$$$
