GKM.pdb
     RDKit          3D

 22 21  0  0  1  0  0  0  0  0999 V2000
    2.4567  -19.9700   21.1240 N   0  0  0  0  0  0  0  0  0  0  0  0
    3.2531  -18.7698   21.0279 C   0  0  0  0  0  0  0  0  0  0  0  0
    4.0637  -18.6293   22.2758 C   0  0  0  0  0  0  0  0  0  0  0  0
    3.6880  -17.8912   23.2351 O   0  0  0  0  0  0  0  0  0  0  0  0
    5.2916  -19.3104   22.4547 N   0  0  0  0  0  0  0  0  0  0  0  0
    6.0587  -19.1838   23.7105 C   0  0  1  0  0  0  0  0  0  0  0  0
    7.0404  -20.3433   23.7149 C   0  0  0  0  0  0  0  0  0  0  0  0
    7.9676  -20.3701   24.8736 C   0  0  0  0  0  0  0  0  0  0  0  0
    7.2114  -20.5965   26.1862 C   0  0  0  0  0  0  0  0  0  0  0  0
    8.1638  -20.7214   27.3377 C   0  0  0  0  0  0  0  0  0  0  0  0
    7.4685  -20.9587   28.5873 N   0  0  0  0  0  0  0  0  0  0  0  0
    6.6752  -17.8597   23.7197 C   0  0  0  0  0  0  0  0  0  0  0  0
    7.1959  -17.3875   22.6433 O   0  0  0  0  0  0  0  0  0  0  0  0
    7.2935  -10.7224   27.1037 C   0  0  0  0  0  0  0  0  0  0  0  0
    6.4113  -12.2962   26.9709 S   0  0  0  0  0  0  0  0  0  0  0  0
    7.2853  -13.4025   25.8388 C   0  0  0  0  0  0  0  0  0  0  0  0
    6.6558  -14.7455   25.6861 C   0  0  0  0  0  0  0  0  0  0  0  0
    7.3945  -15.6728   24.7455 C   0  0  2  0  0  0  0  0  0  0  0  0
    6.7731  -16.9791   24.8318 N   0  0  0  0  0  0  0  0  0  0  0  0
    8.8362  -15.6760   24.9830 C   0  0  0  0  0  0  0  0  0  0  0  0
    9.7419  -14.7598   24.4677 O   0  0  0  0  0  0  0  0  0  0  0  0
    9.3100  -16.5819   25.7158 O   0  0  0  0  0  0  0  0  0  0  0  0
  1  2  1  0
  2  3  1  0
  3  4  2  0
  5  3  1  0
  5  6  1  0
  6  7  1  6
  8  7  1  0
  9 10  1  0
  9  8  1  0
 10 11  1  0
 12  6  1  0
 12 19  1  0
 13 12  2  0
 15 14  1  0
 16 15  1  0
 17 16  1  0
 18 19  1  0
 18 17  1  1
 20 18  1  0
 21 20  1  0
 22 20  2  0
M  END
$$$$
