GKM.pdb
     RDKit          3D

 22 21  0  0  1  0  0  0  0  0999 V2000
    4.4644  -19.7275   21.8618 N   0  0  0  0  0  0  0  0  0  0  0  0
    4.5203  -18.6992   22.8734 C   0  0  0  0  0  0  0  0  0  0  0  0
    5.6819  -17.8038   22.5852 C   0  0  0  0  0  0  0  0  0  0  0  0
    6.8736  -18.1577   22.8315 O   0  0  0  0  0  0  0  0  0  0  0  0
    5.5159  -16.5152   22.0233 N   0  0  0  0  0  0  0  0  0  0  0  0
    6.6799  -15.6546   21.7302 C   0  0  1  0  0  0  0  0  0  0  0  0
    6.1219  -14.4279   21.0288 C   0  0  0  0  0  0  0  0  0  0  0  0
    7.1461  -13.4869   20.5105 C   0  0  0  0  0  0  0  0  0  0  0  0
    7.5629  -13.8496   19.0820 C   0  0  0  0  0  0  0  0  0  0  0  0
    8.6737  -12.9614   18.6069 C   0  0  0  0  0  0  0  0  0  0  0  0
    9.0452  -13.2514   17.2360 N   0  0  0  0  0  0  0  0  0  0  0  0
    7.3568  -15.3815   22.9953 C   0  0  0  0  0  0  0  0  0  0  0  0
    6.6959  -14.8914   23.9831 O   0  0  0  0  0  0  0  0  0  0  0  0
    6.9131  -12.1175   27.5873 C   0  0  0  0  0  0  0  0  0  0  0  0
    7.1195  -13.2666   26.2054 S   0  0  0  0  0  0  0  0  0  0  0  0
    8.1475  -14.6653   26.7113 C   0  0  0  0  0  0  0  0  0  0  0  0
    8.3524  -15.6914   25.6490 C   0  0  0  0  0  0  0  0  0  0  0  0
    9.3249  -15.2766   24.5662 C   0  0  2  0  0  0  0  0  0  0  0  0
    8.7303  -15.6059   23.2863 N   0  0  0  0  0  0  0  0  0  0  0  0
   10.6594  -15.8356   24.7707 C   0  0  0  0  0  0  0  0  0  0  0  0
   11.7343  -15.1714   25.3440 O   0  0  0  0  0  0  0  0  0  0  0  0
   10.8648  -17.0197   24.3995 O   0  0  0  0  0  0  0  0  0  0  0  0
  1  2  1  0
  2  3  1  0
  3  4  2  0
  5  3  1  0
  5  6  1  0
  6  7  1  1
  8  7  1  0
  9 10  1  0
  9  8  1  0
 10 11  1  0
 12  6  1  0
 12 19  1  0
 13 12  2  0
 15 14  1  0
 16 15  1  0
 17 16  1  0
 18 19  1  0
 18 17  1  1
 20 18  1  0
 21 20  1  0
 22 20  2  0
M  END
$$$$
