GKM.pdb
     RDKit          3D

 22 21  0  0  1  0  0  0  0  0999 V2000
    7.7826  -12.1438   18.9305 N   0  0  0  0  0  0  0  0  0  0  0  0
    8.7624  -13.1825   19.1428 C   0  0  0  0  0  0  0  0  0  0  0  0
    8.2390  -14.1348   20.1690 C   0  0  0  0  0  0  0  0  0  0  0  0
    7.1642  -13.9090   20.8014 O   0  0  0  0  0  0  0  0  0  0  0  0
    8.9125  -15.3377   20.4905 N   0  0  0  0  0  0  0  0  0  0  0  0
    8.3740  -16.2663   21.5049 C   0  0  1  0  0  0  0  0  0  0  0  0
    8.8879  -17.6433   21.1202 C   0  0  0  0  0  0  0  0  0  0  0  0
    8.4600  -18.7421   22.0217 C   0  0  0  0  0  0  0  0  0  0  0  0
    8.9787  -20.0974   21.5320 C   0  0  0  0  0  0  0  0  0  0  0  0
    8.6227  -21.1875   22.4982 C   0  0  0  0  0  0  0  0  0  0  0  0
    8.9839  -22.4961   21.9896 N   0  0  0  0  0  0  0  0  0  0  0  0
    8.8136  -15.7927   22.8147 C   0  0  0  0  0  0  0  0  0  0  0  0
   10.0556  -15.5296   23.0175 O   0  0  0  0  0  0  0  0  0  0  0  0
    6.5460  -10.2813   26.6172 C   0  0  0  0  0  0  0  0  0  0  0  0
    6.2642  -12.0624   26.7619 S   0  0  0  0  0  0  0  0  0  0  0  0
    7.5930  -12.9687   25.9360 C   0  0  0  0  0  0  0  0  0  0  0  0
    7.4563  -14.4521   26.0017 C   0  0  0  0  0  0  0  0  0  0  0  0
    8.5307  -15.2074   25.2498 C   0  0  2  0  0  0  0  0  0  0  0  0
    7.9927  -15.5715   23.9544 N   0  0  0  0  0  0  0  0  0  0  0  0
    9.0637  -16.3311   26.0168 C   0  0  0  0  0  0  0  0  0  0  0  0
   10.0363  -16.2472   27.0028 O   0  0  0  0  0  0  0  0  0  0  0  0
    8.6103  -17.4785   25.7721 O   0  0  0  0  0  0  0  0  0  0  0  0
  1  2  1  0
  2  3  1  0
  3  4  2  0
  5  3  1  0
  5  6  1  0
  6  7  1  6
  8  7  1  0
  9 10  1  0
  9  8  1  0
 10 11  1  0
 12  6  1  0
 12 19  1  0
 13 12  2  0
 15 14  1  0
 16 15  1  0
 17 16  1  0
 18 19  1  0
 18 17  1  1
 20 18  1  0
 21 20  1  0
 22 20  2  0
M  END
$$$$
