GKM.pdb
     RDKit          3D

 22 21  0  0  1  0  0  0  0  0999 V2000
    7.9480  -12.7188   18.2171 N   0  0  0  0  0  0  0  0  0  0  0  0
    8.8271  -13.7404   18.7343 C   0  0  0  0  0  0  0  0  0  0  0  0
    8.1962  -14.3504   19.9441 C   0  0  0  0  0  0  0  0  0  0  0  0
    7.4770  -13.6704   20.7355 O   0  0  0  0  0  0  0  0  0  0  0  0
    8.3664  -15.7169   20.2719 N   0  0  0  0  0  0  0  0  0  0  0  0
    7.6389  -16.3268   21.4035 C   0  0  1  0  0  0  0  0  0  0  0  0
    7.7576  -17.8290   21.2108 C   0  0  0  0  0  0  0  0  0  0  0  0
    7.2056  -18.6450   22.3211 C   0  0  0  0  0  0  0  0  0  0  0  0
    6.0187  -19.4920   21.8523 C   0  0  0  0  0  0  0  0  0  0  0  0
    5.4506  -20.2914   22.9867 C   0  0  0  0  0  0  0  0  0  0  0  0
    4.2013  -20.9299   22.6221 N   0  0  0  0  0  0  0  0  0  0  0  0
    8.2344  -15.8187   22.6365 C   0  0  0  0  0  0  0  0  0  0  0  0
    9.5004  -15.6023   22.6952 O   0  0  0  0  0  0  0  0  0  0  0  0
    6.0374  -11.1360   26.4315 C   0  0  0  0  0  0  0  0  0  0  0  0
    6.7346  -12.1982   27.7193 S   0  0  0  0  0  0  0  0  0  0  0  0
    7.7956  -13.4589   26.9748 C   0  0  0  0  0  0  0  0  0  0  0  0
    7.2953  -13.9918   25.6751 C   0  0  0  0  0  0  0  0  0  0  0  0
    8.2219  -14.9910   25.0171 C   0  0  2  0  0  0  0  0  0  0  0  0
    7.5496  -15.5142   23.8447 N   0  0  0  0  0  0  0  0  0  0  0  0
    8.6906  -16.0149   25.9482 C   0  0  0  0  0  0  0  0  0  0  0  0
    9.7178  -15.8608   26.8682 O   0  0  0  0  0  0  0  0  0  0  0  0
    8.1226  -17.1369   25.9241 O   0  0  0  0  0  0  0  0  0  0  0  0
  1  2  1  0
  2  3  1  0
  3  4  2  0
  5  3  1  0
  5  6  1  0
  6  7  1  1
  8  7  1  0
  9 10  1  0
  9  8  1  0
 10 11  1  0
 12  6  1  0
 12 19  1  0
 13 12  2  0
 15 14  1  0
 16 15  1  0
 17 16  1  0
 18 19  1  0
 18 17  1  1
 20 18  1  0
 21 20  1  0
 22 20  2  0
M  END
$$$$
