GKM.pdb
     RDKit          3D

 22 21  0  0  1  0  0  0  0  0999 V2000
    8.0393  -17.0783   17.5569 N   0  0  0  0  0  0  0  0  0  0  0  0
    8.9734  -16.5200   18.5054 C   0  0  0  0  0  0  0  0  0  0  0  0
    8.4438  -16.7363   19.8862 C   0  0  0  0  0  0  0  0  0  0  0  0
    7.4610  -16.0737   20.3346 O   0  0  0  0  0  0  0  0  0  0  0  0
    9.0089  -17.6898   20.7667 N   0  0  0  0  0  0  0  0  0  0  0  0
    8.4006  -17.9672   22.0838 C   0  0  1  0  0  0  0  0  0  0  0  0
    8.9529  -19.3135   22.5199 C   0  0  0  0  0  0  0  0  0  0  0  0
    8.5178  -19.7585   23.8675 C   0  0  0  0  0  0  0  0  0  0  0  0
    7.2138  -20.5585   23.7951 C   0  0  0  0  0  0  0  0  0  0  0  0
    6.7823  -21.0032   25.1607 C   0  0  0  0  0  0  0  0  0  0  0  0
    5.5629  -21.7854   25.1112 N   0  0  0  0  0  0  0  0  0  0  0  0
    8.7342  -16.8532   22.9676 C   0  0  0  0  0  0  0  0  0  0  0  0
    9.9276  -16.3749   22.9735 O   0  0  0  0  0  0  0  0  0  0  0  0
    6.2969  -10.7773   27.4582 C   0  0  0  0  0  0  0  0  0  0  0  0
    5.8426  -12.1572   26.3802 S   0  0  0  0  0  0  0  0  0  0  0  0
    7.3120  -13.1223   25.9571 C   0  0  0  0  0  0  0  0  0  0  0  0
    7.0530  -14.2561   25.0240 C   0  0  0  0  0  0  0  0  0  0  0  0
    8.2743  -15.0938   24.7126 C   0  0  2  0  0  0  0  0  0  0  0  0
    7.8537  -16.1945   23.8689 N   0  0  0  0  0  0  0  0  0  0  0  0
    8.9939  -15.5007   25.9174 C   0  0  0  0  0  0  0  0  0  0  0  0
    9.9683  -14.7563   26.5665 O   0  0  0  0  0  0  0  0  0  0  0  0
    8.7156  -16.6200   26.4194 O   0  0  0  0  0  0  0  0  0  0  0  0
  1  2  1  0
  2  3  1  0
  3  4  2  0
  5  3  1  0
  5  6  1  0
  6  7  1  1
  8  7  1  0
  9 10  1  0
  9  8  1  0
 10 11  1  0
 12  6  1  0
 12 19  1  0
 13 12  2  0
 15 14  1  0
 16 15  1  0
 17 16  1  0
 18 19  1  0
 18 17  1  1
 20 18  1  0
 21 20  1  0
 22 20  2  0
M  END
$$$$
