GKM.pdb
     RDKit          3D

 22 21  0  0  1  0  0  0  0  0999 V2000
    7.7428  -12.7376   18.7683 N   0  0  0  0  0  0  0  0  0  0  0  0
    8.5831  -13.8266   19.2066 C   0  0  0  0  0  0  0  0  0  0  0  0
    7.8740  -14.5758   20.2882 C   0  0  0  0  0  0  0  0  0  0  0  0
    6.9789  -14.0304   21.0004 O   0  0  0  0  0  0  0  0  0  0  0  0
    8.1621  -15.9315   20.5760 N   0  0  0  0  0  0  0  0  0  0  0  0
    7.4965  -16.6328   21.6926 C   0  0  1  0  0  0  0  0  0  0  0  0
    7.6889  -18.1157   21.4238 C   0  0  0  0  0  0  0  0  0  0  0  0
    7.1655  -19.0138   22.4833 C   0  0  0  0  0  0  0  0  0  0  0  0
    5.9234  -19.7723   22.0061 C   0  0  0  0  0  0  0  0  0  0  0  0
    5.3812  -20.6498   23.0946 C   0  0  0  0  0  0  0  0  0  0  0  0
    4.2865  -21.4755   22.6245 N   0  0  0  0  0  0  0  0  0  0  0  0
    8.0957  -16.1530   22.9351 C   0  0  0  0  0  0  0  0  0  0  0  0
    9.3733  -16.0471   23.0316 O   0  0  0  0  0  0  0  0  0  0  0  0
    6.9867  -10.2473   26.9951 C   0  0  0  0  0  0  0  0  0  0  0  0
    6.3716  -11.9486   26.9920 S   0  0  0  0  0  0  0  0  0  0  0  0
    7.5455  -13.0299   26.1421 C   0  0  0  0  0  0  0  0  0  0  0  0
    7.1433  -14.4653   26.1088 C   0  0  0  0  0  0  0  0  0  0  0  0
    8.0847  -15.3546   25.3257 C   0  0  2  0  0  0  0  0  0  0  0  0
    7.4028  -15.7644   24.1144 N   0  0  0  0  0  0  0  0  0  0  0  0
    8.6035  -16.4608   26.1270 C   0  0  0  0  0  0  0  0  0  0  0  0
    9.6970  -16.3979   26.9788 O   0  0  0  0  0  0  0  0  0  0  0  0
    8.0177  -17.5710   26.0471 O   0  0  0  0  0  0  0  0  0  0  0  0
  1  2  1  0
  2  3  1  0
  3  4  2  0
  5  3  1  0
  5  6  1  0
  6  7  1  6
  8  7  1  0
  9 10  1  0
  9  8  1  0
 10 11  1  0
 12  6  1  0
 12 19  1  0
 13 12  2  0
 15 14  1  0
 16 15  1  0
 17 16  1  0
 18 19  1  0
 18 17  1  1
 20 18  1  0
 21 20  1  0
 22 20  2  0
M  END
$$$$
