GKM.pdb
     RDKit          3D

 22 21  0  0  1  0  0  0  0  0999 V2000
    1.9595  -19.2831   20.9953 N   0  0  0  0  0  0  0  0  0  0  0  0
    3.0924  -18.4033   20.8330 C   0  0  0  0  0  0  0  0  0  0  0  0
    3.8607  -18.3672   22.1146 C   0  0  0  0  0  0  0  0  0  0  0  0
    3.3160  -18.0333   23.2091 O   0  0  0  0  0  0  0  0  0  0  0  0
    5.2345  -18.7025   22.1767 N   0  0  0  0  0  0  0  0  0  0  0  0
    5.9533  -18.7409   23.4664 C   0  0  1  0  0  0  0  0  0  0  0  0
    6.8818  -19.9408   23.3875 C   0  0  0  0  0  0  0  0  0  0  0  0
    6.2510  -21.2401   23.7296 C   0  0  0  0  0  0  0  0  0  0  0  0
    7.2724  -22.3809   23.6945 C   0  0  0  0  0  0  0  0  0  0  0  0
    6.6223  -23.6916   24.0230 C   0  0  0  0  0  0  0  0  0  0  0  0
    7.5441  -24.8007   23.8769 N   0  0  0  0  0  0  0  0  0  0  0  0
    6.6267  -17.4558   23.6349 C   0  0  0  0  0  0  0  0  0  0  0  0
    7.1876  -16.8889   22.6265 O   0  0  0  0  0  0  0  0  0  0  0  0
    7.1563  -10.5291   27.3377 C   0  0  0  0  0  0  0  0  0  0  0  0
    6.2773  -12.0920   27.0983 S   0  0  0  0  0  0  0  0  0  0  0  0
    7.2327  -13.1803   26.0157 C   0  0  0  0  0  0  0  0  0  0  0  0
    6.6117  -14.5165   25.7871 C   0  0  0  0  0  0  0  0  0  0  0  0
    7.4343  -15.4412   24.9162 C   0  0  2  0  0  0  0  0  0  0  0  0
    6.7420  -16.7122   24.8413 N   0  0  0  0  0  0  0  0  0  0  0  0
    8.8227  -15.5383   25.3608 C   0  0  0  0  0  0  0  0  0  0  0  0
    9.4310  -16.6778   25.8674 O   0  0  0  0  0  0  0  0  0  0  0  0
    9.5392  -14.5073   25.2830 O   0  0  0  0  0  0  0  0  0  0  0  0
  1  2  1  0
  2  3  1  0
  3  4  2  0
  5  3  1  0
  5  6  1  0
  6  7  1  6
  8  7  1  0
  9 10  1  0
  9  8  1  0
 10 11  1  0
 12  6  1  0
 12 19  1  0
 13 12  2  0
 15 14  1  0
 16 15  1  0
 17 16  1  0
 18 19  1  0
 18 17  1  1
 20 18  1  0
 21 20  1  0
 22 20  2  0
M  END
$$$$
