GKM.pdb
     RDKit          3D

 22 21  0  0  1  0  0  0  0  0999 V2000
    4.2346  -19.8572   22.4123 N   0  0  0  0  0  0  0  0  0  0  0  0
    4.2041  -18.4425   22.6980 C   0  0  0  0  0  0  0  0  0  0  0  0
    5.5498  -17.8631   22.4023 C   0  0  0  0  0  0  0  0  0  0  0  0
    6.6014  -18.5695   22.4346 O   0  0  0  0  0  0  0  0  0  0  0  0
    5.7236  -16.4979   22.0711 N   0  0  0  0  0  0  0  0  0  0  0  0
    7.0661  -15.9414   21.8074 C   0  0  1  0  0  0  0  0  0  0  0  0
    6.8863  -14.9446   20.6751 C   0  0  0  0  0  0  0  0  0  0  0  0
    8.1035  -14.6995   19.8617 C   0  0  0  0  0  0  0  0  0  0  0  0
    7.8298  -13.6930   18.7402 C   0  0  0  0  0  0  0  0  0  0  0  0
    9.0232  -13.5541   17.8429 C   0  0  0  0  0  0  0  0  0  0  0  0
    8.8424  -12.4973   16.8672 N   0  0  0  0  0  0  0  0  0  0  0  0
    7.5590  -15.3667   23.0564 C   0  0  0  0  0  0  0  0  0  0  0  0
    7.1270  -14.2214   23.4495 O   0  0  0  0  0  0  0  0  0  0  0  0
    6.2409  -11.9818   26.4884 C   0  0  0  0  0  0  0  0  0  0  0  0
    6.9282  -12.9706   27.8384 S   0  0  0  0  0  0  0  0  0  0  0  0
    8.1719  -14.1154   27.1966 C   0  0  0  0  0  0  0  0  0  0  0  0
    7.8232  -14.7251   25.8813 C   0  0  0  0  0  0  0  0  0  0  0  0
    9.0108  -15.2648   25.1141 C   0  0  2  0  0  0  0  0  0  0  0  0
    8.5066  -15.9505   23.9412 N   0  0  0  0  0  0  0  0  0  0  0  0
    9.8942  -16.0744   25.9503 C   0  0  0  0  0  0  0  0  0  0  0  0
   10.6700  -15.6023   26.9993 O   0  0  0  0  0  0  0  0  0  0  0  0
    9.9668  -17.3067   25.7091 O   0  0  0  0  0  0  0  0  0  0  0  0
  1  2  1  0
  2  3  1  0
  3  4  2  0
  5  3  1  0
  5  6  1  0
  6  7  1  6
  8  7  1  0
  9 10  1  0
  9  8  1  0
 10 11  1  0
 12  6  1  0
 12 19  1  0
 13 12  2  0
 15 14  1  0
 16 15  1  0
 17 16  1  0
 18 19  1  0
 18 17  1  1
 20 18  1  0
 21 20  1  0
 22 20  2  0
M  END
$$$$
