GKM.pdb
     RDKit          3D

 22 21  0  0  1  0  0  0  0  0999 V2000
    5.6197  -18.9168   20.9212 N   0  0  0  0  0  0  0  0  0  0  0  0
    5.4125  -17.6724   21.6230 C   0  0  0  0  0  0  0  0  0  0  0  0
    6.6209  -16.8115   21.4425 C   0  0  0  0  0  0  0  0  0  0  0  0
    7.7818  -17.3072   21.3302 O   0  0  0  0  0  0  0  0  0  0  0  0
    6.5360  -15.3996   21.3874 N   0  0  0  0  0  0  0  0  0  0  0  0
    7.7483  -14.5667   21.2522 C   0  0  1  0  0  0  0  0  0  0  0  0
    7.3027  -13.2984   20.5445 C   0  0  0  0  0  0  0  0  0  0  0  0
    7.0992  -13.4403   19.0811 C   0  0  0  0  0  0  0  0  0  0  0  0
    8.4354  -13.5696   18.3436 C   0  0  0  0  0  0  0  0  0  0  0  0
    8.2258  -13.6072   16.8592 C   0  0  0  0  0  0  0  0  0  0  0  0
    9.0170  -14.6465   16.2305 N   0  0  0  0  0  0  0  0  0  0  0  0
    8.2942  -14.3611   22.5912 C   0  0  0  0  0  0  0  0  0  0  0  0
    8.3502  -13.1756   23.0855 O   0  0  0  0  0  0  0  0  0  0  0  0
    6.7784  -11.5174   26.6290 C   0  0  0  0  0  0  0  0  0  0  0  0
    8.0436  -12.5471   27.4112 S   0  0  0  0  0  0  0  0  0  0  0  0
    7.8253  -14.2742   26.9226 C   0  0  0  0  0  0  0  0  0  0  0  0
    7.7779  -14.4931   25.4485 C   0  0  0  0  0  0  0  0  0  0  0  0
    9.0242  -15.1333   24.8766 C   0  0  2  0  0  0  0  0  0  0  0  0
    8.7957  -15.3649   23.4644 N   0  0  0  0  0  0  0  0  0  0  0  0
    9.4335  -16.3215   25.6221 C   0  0  0  0  0  0  0  0  0  0  0  0
    9.0719  -17.6272   25.3228 O   0  0  0  0  0  0  0  0  0  0  0  0
   10.1776  -16.1608   26.6234 O   0  0  0  0  0  0  0  0  0  0  0  0
  1  2  1  0
  2  3  1  0
  3  4  2  0
  5  3  1  0
  5  6  1  0
  6  7  1  1
  8  7  1  0
  9 10  1  0
  9  8  1  0
 10 11  1  0
 12  6  1  0
 12 19  1  0
 13 12  2  0
 15 14  1  0
 16 15  1  0
 17 16  1  0
 18 19  1  0
 18 17  1  1
 20 18  1  0
 21 20  1  0
 22 20  2  0
M  END
$$$$
