GKM.pdb
     RDKit          3D

 22 21  0  0  1  0  0  0  0  0999 V2000
   11.5141  -17.2244   18.7507 N   0  0  0  0  0  0  0  0  0  0  0  0
   10.7152  -18.0727   19.6029 C   0  0  0  0  0  0  0  0  0  0  0  0
    9.7789  -17.2160   20.3925 C   0  0  0  0  0  0  0  0  0  0  0  0
    9.8337  -15.9507   20.3465 O   0  0  0  0  0  0  0  0  0  0  0  0
    8.7825  -17.7685   21.2325 N   0  0  0  0  0  0  0  0  0  0  0  0
    7.8631  -16.9023   21.9980 C   0  0  1  0  0  0  0  0  0  0  0  0
    6.6146  -17.7338   22.2386 C   0  0  0  0  0  0  0  0  0  0  0  0
    6.8663  -19.0948   22.7748 C   0  0  0  0  0  0  0  0  0  0  0  0
    5.5584  -19.8686   22.9647 C   0  0  0  0  0  0  0  0  0  0  0  0
    5.8298  -21.2896   23.3596 C   0  0  0  0  0  0  0  0  0  0  0  0
    4.6089  -22.0662   23.4467 N   0  0  0  0  0  0  0  0  0  0  0  0
    8.5606  -16.4802   23.2098 C   0  0  0  0  0  0  0  0  0  0  0  0
    9.2354  -17.3359   23.8920 O   0  0  0  0  0  0  0  0  0  0  0  0
    6.6603  -10.6746   25.9814 C   0  0  0  0  0  0  0  0  0  0  0  0
    6.1082  -12.0453   27.0251 S   0  0  0  0  0  0  0  0  0  0  0  0
    7.1981  -13.4708   26.8029 C   0  0  0  0  0  0  0  0  0  0  0  0
    7.4020  -13.8708   25.3810 C   0  0  0  0  0  0  0  0  0  0  0  0
    8.4852  -14.9080   25.1783 C   0  0  2  0  0  0  0  0  0  0  0  0
    8.5898  -15.1680   23.7564 N   0  0  0  0  0  0  0  0  0  0  0  0
    8.2742  -16.1020   25.9937 C   0  0  0  0  0  0  0  0  0  0  0  0
    9.0251  -16.4663   27.1021 O   0  0  0  0  0  0  0  0  0  0  0  0
    7.3344  -16.8745   25.6742 O   0  0  0  0  0  0  0  0  0  0  0  0
  1  2  1  0
  2  3  1  0
  3  4  2  0
  5  3  1  0
  5  6  1  0
  6  7  1  1
  8  7  1  0
  9 10  1  0
  9  8  1  0
 10 11  1  0
 12  6  1  0
 12 19  1  0
 13 12  2  0
 15 14  1  0
 16 15  1  0
 17 16  1  0
 18 19  1  0
 18 17  1  6
 20 18  1  0
 21 20  1  0
 22 20  2  0
M  END
$$$$
