LTM.pdb
     RDKit          3D

 24 23  0  0  1  0  0  0  0  0999 V2000
   29.3673  -17.8430  -16.3378 C   0  0  0  0  0  0  0  0  0  0  0  0
   28.0989  -17.0130  -16.3640 C   0  0  2  0  0  0  0  0  0  0  0  0
   28.4458  -15.6191  -16.7810 C   0  0  0  0  0  0  0  0  0  0  0  0
   27.4762  -17.0737  -14.9856 C   0  0  0  0  0  0  0  0  0  0  0  0
   27.2421  -18.5325  -14.6593 C   0  0  2  0  0  0  0  0  0  0  0  0
   26.6095  -19.1301  -15.8152 N   0  0  0  0  0  0  0  0  0  0  0  0
   26.4087  -18.7097  -13.4513 C   0  0  0  0  0  0  0  0  0  0  0  0
   25.7602  -17.7751  -12.9529 O   0  0  0  0  0  0  0  0  0  0  0  0
   23.4913  -21.5362  -10.8403 C   0  0  0  0  0  0  0  0  0  0  0  0
   24.3699  -21.2322  -12.0353 C   0  0  1  0  0  0  0  0  0  0  0  0
   23.6169  -20.8166  -13.1317 O   0  0  0  0  0  0  0  0  0  0  0  0
   25.4801  -20.2777  -11.7074 C   0  0  2  0  0  0  0  0  0  0  0  0
   26.3327  -19.9724  -12.8273 N   0  0  0  0  0  0  0  0  0  0  0  0
   26.2422  -20.8346  -10.5608 C   0  0  0  0  0  0  0  0  0  0  0  0
   27.0034  -21.8220  -10.7304 O   0  0  0  0  0  0  0  0  0  0  0  0
   28.2404  -17.6148   -5.3279 C   0  0  0  0  0  0  0  0  0  0  0  0
   28.8422  -19.3193   -5.1170 S   0  0  0  0  0  0  0  0  0  0  0  0
   27.7403  -20.4968   -5.9408 C   0  0  0  0  0  0  0  0  0  0  0  0
   27.3913  -19.9350   -7.3115 C   0  0  0  0  0  0  0  0  0  0  0  0
   26.4823  -20.9266   -8.0536 C   0  0  2  0  0  0  0  0  0  0  0  0
   26.1192  -20.2668   -9.2916 N   0  0  0  0  0  0  0  0  0  0  0  0
   25.3350  -21.2135   -7.1968 C   0  0  0  0  0  0  0  0  0  0  0  0
   24.0796  -20.7473   -7.5184 O   0  0  0  0  0  0  0  0  0  0  0  0
   25.4827  -21.8885   -6.1577 O   0  0  0  0  0  0  0  0  0  0  0  0
  2  1  1  1
  2  3  1  0
  4  2  1  0
  5  7  1  0
  5  4  1  0
  5  6  1  6
  7  8  2  0
 10  9  1  1
 11 10  1  0
 12 10  1  0
 13  7  1  0
 12 13  1  6
 14 15  2  0
 14 12  1  0
 16 17  1  0
 18 19  1  0
 18 17  1  0
 20 19  1  1
 20 21  1  0
 21 14  1  0
 22 20  1  0
 22 23  1  0
 24 22  2  0
M  END
$$$$
