LTM.pdb
     RDKit          3D

 24 23  0  0  1  0  0  0  0  0999 V2000
   16.4227  -10.1038  -17.3442 C   0  0  0  0  0  0  0  0  0  0  0  0
   16.2889  -11.4557  -16.6712 C   0  0  2  0  0  0  0  0  0  0  0  0
   14.9275  -12.0033  -16.9605 C   0  0  0  0  0  0  0  0  0  0  0  0
   16.5402  -11.2637  -15.1908 C   0  0  0  0  0  0  0  0  0  0  0  0
   17.9248  -10.6724  -15.0405 C   0  0  2  0  0  0  0  0  0  0  0  0
   18.8710  -11.7442  -15.2628 N   0  0  0  0  0  0  0  0  0  0  0  0
   18.1293  -10.0552  -13.7129 C   0  0  0  0  0  0  0  0  0  0  0  0
   18.2506  -10.7340  -12.6801 O   0  0  0  0  0  0  0  0  0  0  0  0
   20.9565   -7.9271  -12.4791 C   0  0  0  0  0  0  0  0  0  0  0  0
   19.6888   -7.1036  -12.3951 C   0  0  1  0  0  0  0  0  0  0  0  0
   19.6414   -6.1336  -13.3944 O   0  0  0  0  0  0  0  0  0  0  0  0
   18.4512   -7.9511  -12.3597 C   0  0  2  0  0  0  0  0  0  0  0  0
   18.1918   -8.6513  -13.5912 N   0  0  0  0  0  0  0  0  0  0  0  0
   17.3125   -7.0862  -11.9585 C   0  0  0  0  0  0  0  0  0  0  0  0
   16.5431   -6.6117  -12.8335 O   0  0  0  0  0  0  0  0  0  0  0  0
   14.6467   -5.5313   -5.1370 C   0  0  0  0  0  0  0  0  0  0  0  0
   14.1280   -6.6259   -6.4953 S   0  0  0  0  0  0  0  0  0  0  0  0
   14.4881   -5.8720   -8.1019 C   0  0  0  0  0  0  0  0  0  0  0  0
   15.6415   -6.6384   -8.7333 C   0  0  0  0  0  0  0  0  0  0  0  0
   15.9667   -6.0315  -10.1067 C   0  0  2  0  0  0  0  0  0  0  0  0
   17.0896   -6.7959  -10.6114 N   0  0  0  0  0  0  0  0  0  0  0  0
   16.2746   -4.6173   -9.9124 C   0  0  0  0  0  0  0  0  0  0  0  0
   15.2869   -3.6613   -9.9994 O   0  0  0  0  0  0  0  0  0  0  0  0
   17.4439   -4.2593   -9.6642 O   0  0  0  0  0  0  0  0  0  0  0  0
  2  1  1  6
  2  3  1  0
  4  2  1  0
  5  7  1  0
  5  4  1  0
  5  6  1  1
  7  8  2  0
 10  9  1  6
 11 10  1  0
 12 10  1  0
 13  7  1  0
 12 13  1  6
 14 15  2  0
 14 12  1  0
 16 17  1  0
 18 19  1  0
 18 17  1  0
 20 19  1  1
 20 21  1  0
 21 14  1  0
 22 20  1  0
 22 23  1  0
 24 22  2  0
M  END
$$$$
