LTM.pdb
     RDKit          3D

 24 23  0  0  1  0  0  0  0  0999 V2000
   21.4424  -17.3055  -14.5975 C   0  0  0  0  0  0  0  0  0  0  0  0
   20.1810  -17.9153  -14.0182 C   0  0  2  0  0  0  0  0  0  0  0  0
   19.3341  -16.8198  -13.4526 C   0  0  0  0  0  0  0  0  0  0  0  0
   20.5939  -18.9331  -12.9766 C   0  0  0  0  0  0  0  0  0  0  0  0
   21.5696  -19.8836  -13.6353 C   0  0  2  0  0  0  0  0  0  0  0  0
   20.7959  -20.7719  -14.4754 N   0  0  0  0  0  0  0  0  0  0  0  0
   22.3610  -20.6476  -12.6478 C   0  0  0  0  0  0  0  0  0  0  0  0
   21.8427  -21.4849  -11.8911 O   0  0  0  0  0  0  0  0  0  0  0  0
   24.4015  -23.4029  -12.9855 C   0  0  0  0  0  0  0  0  0  0  0  0
   25.3432  -22.3147  -12.5155 C   0  0  1  0  0  0  0  0  0  0  0  0
   26.1038  -21.8066  -13.5667 O   0  0  0  0  0  0  0  0  0  0  0  0
   24.6405  -21.2371  -11.7433 C   0  0  2  0  0  0  0  0  0  0  0  0
   23.7515  -20.4351  -12.5437 N   0  0  0  0  0  0  0  0  0  0  0  0
   25.6706  -20.4150  -11.0588 C   0  0  0  0  0  0  0  0  0  0  0  0
   26.0278  -19.3140  -11.5520 O   0  0  0  0  0  0  0  0  0  0  0  0
   27.8051  -18.5838   -4.7099 C   0  0  0  0  0  0  0  0  0  0  0  0
   28.4468  -20.1609   -5.3526 S   0  0  0  0  0  0  0  0  0  0  0  0
   28.6781  -20.0776   -7.1467 C   0  0  0  0  0  0  0  0  0  0  0  0
   27.4037  -20.5805   -7.8093 C   0  0  0  0  0  0  0  0  0  0  0  0
   27.5031  -20.3761   -9.3287 C   0  0  2  0  0  0  0  0  0  0  0  0
   26.2468  -20.8577   -9.8669 N   0  0  0  0  0  0  0  0  0  0  0  0
   28.6600  -21.1266   -9.8091 C   0  0  0  0  0  0  0  0  0  0  0  0
   29.9243  -20.5822   -9.7610 O   0  0  0  0  0  0  0  0  0  0  0  0
   28.5127  -22.2763  -10.2711 O   0  0  0  0  0  0  0  0  0  0  0  0
  2  1  1  1
  2  3  1  0
  4  2  1  0
  5  7  1  0
  5  4  1  0
  5  6  1  1
  7  8  2  0
 10  9  1  6
 11 10  1  0
 12 10  1  0
 13  7  1  0
 12 13  1  6
 14 15  2  0
 14 12  1  0
 16 17  1  0
 18 19  1  0
 18 17  1  0
 20 19  1  1
 20 21  1  0
 21 14  1  0
 22 20  1  0
 22 23  1  0
 24 22  2  0
M  END
$$$$
