TKA.pdb
     RDKit          3D

 22 21  0  0  1  0  0  0  0  0999 V2000
   11.8095  -20.9187   20.2095 C   0  0  0  0  0  0  0  0  0  0  0  0
   11.8646  -20.1508   18.9176 C   0  0  1  0  0  0  0  0  0  0  0  0
   11.8768  -21.0045   17.8395 O   0  0  0  0  0  0  0  0  0  0  0  0
   10.7276  -19.1608   18.7913 C   0  0  2  0  0  0  0  0  0  0  0  0
   10.7184  -18.5720   17.4726 N   0  0  0  0  0  0  0  0  0  0  0  0
   10.8674  -18.1240   19.8493 C   0  0  0  0  0  0  0  0  0  0  0  0
   11.9858  -17.8821   20.3671 O   0  0  0  0  0  0  0  0  0  0  0  0
    9.7625  -17.3655   20.3221 N   0  0  0  0  0  0  0  0  0  0  0  0
    9.8798  -16.3287   21.2903 C   0  0  1  0  0  0  0  0  0  0  0  0
    8.6979  -15.3711   21.1684 C   0  0  0  0  0  0  0  0  0  0  0  0
    8.7020  -14.6432   19.8655 C   0  0  0  0  0  0  0  0  0  0  0  0
    7.4691  -13.7886   19.7683 C   0  0  0  0  0  0  0  0  0  0  0  0
    7.3977  -12.9437   18.5295 C   0  0  0  0  0  0  0  0  0  0  0  0
    6.1372  -12.1891   18.6213 N   0  0  0  0  0  0  0  0  0  0  0  0
    9.9646  -16.7951   22.6750 C   0  0  0  0  0  0  0  0  0  0  0  0
    9.1866  -17.6929   23.0713 O   0  0  0  0  0  0  0  0  0  0  0  0
   12.2462  -16.5273   25.6524 C   0  0  0  0  0  0  0  0  0  0  0  0
   10.9714  -16.8548   24.9170 C   0  0  2  0  0  0  0  0  0  0  0  0
   10.8895  -16.2860   23.6168 N   0  0  0  0  0  0  0  0  0  0  0  0
    9.8469  -16.3575   25.7466 C   0  0  0  0  0  0  0  0  0  0  0  0
    9.6028  -16.8485   27.0285 O   0  0  0  0  0  0  0  0  0  0  0  0
    9.0867  -15.4699   25.2930 O   0  0  0  0  0  0  0  0  0  0  0  0
  2  1  1  1
  2  3  1  0
  4  2  1  0
  4  5  1  6
  6  4  1  0
  7  6  2  0
  8  6  1  0
  9  8  1  0
 10 11  1  0
  9 10  1  1
 12 13  1  0
 12 11  1  0
 13 14  1  0
 15  9  1  0
 15 19  1  0
 16 15  2  0
 18 19  1  0
 18 17  1  1
 18 20  1  0
 20 21  1  0
 22 20  2  0
M  END
$$$$
