TKA.pdb
     RDKit          3D

 22 21  0  0  1  0  0  0  0  0999 V2000
    4.3117  -21.2565   24.3327 C   0  0  0  0  0  0  0  0  0  0  0  0
    5.4986  -20.4832   23.8281 C   0  0  1  0  0  0  0  0  0  0  0  0
    6.6492  -21.2299   23.9273 O   0  0  0  0  0  0  0  0  0  0  0  0
    5.3056  -20.0014   22.4070 C   0  0  2  0  0  0  0  0  0  0  0  0
    5.1925  -21.1249   21.5067 N   0  0  0  0  0  0  0  0  0  0  0  0
    6.4443  -19.1187   22.0353 C   0  0  0  0  0  0  0  0  0  0  0  0
    7.5391  -19.6070   21.6603 O   0  0  0  0  0  0  0  0  0  0  0  0
    6.3556  -17.7012   22.0838 N   0  0  0  0  0  0  0  0  0  0  0  0
    7.4564  -16.8372   21.8232 C   0  0  1  0  0  0  0  0  0  0  0  0
    6.9461  -15.4561   21.4218 C   0  0  0  0  0  0  0  0  0  0  0  0
    8.0580  -14.5468   21.0166 C   0  0  0  0  0  0  0  0  0  0  0  0
    7.6044  -13.6841   19.8721 C   0  0  0  0  0  0  0  0  0  0  0  0
    8.6801  -12.8158   19.2871 C   0  0  0  0  0  0  0  0  0  0  0  0
    8.0797  -12.1522   18.1184 N   0  0  0  0  0  0  0  0  0  0  0  0
    8.3898  -16.6857   22.9402 C   0  0  0  0  0  0  0  0  0  0  0  0
    7.9582  -16.3237   24.0588 O   0  0  0  0  0  0  0  0  0  0  0  0
   11.0355  -17.9692   24.6752 C   0  0  0  0  0  0  0  0  0  0  0  0
   10.6286  -16.7082   23.9558 C   0  0  2  0  0  0  0  0  0  0  0  0
    9.7800  -16.9273   22.8365 N   0  0  0  0  0  0  0  0  0  0  0  0
   11.8737  -16.0374   23.5090 C   0  0  0  0  0  0  0  0  0  0  0  0
   12.8061  -15.5342   24.4152 O   0  0  0  0  0  0  0  0  0  0  0  0
   12.1059  -15.9131   22.2834 O   0  0  0  0  0  0  0  0  0  0  0  0
  2  1  1  6
  2  3  1  0
  4  2  1  0
  4  5  1  6
  6  4  1  0
  7  6  2  0
  8  6  1  0
  9  8  1  0
 10 11  1  0
  9 10  1  1
 12 13  1  0
 12 11  1  0
 13 14  1  0
 15  9  1  0
 15 19  1  0
 16 15  2  0
 18 19  1  0
 18 17  1  6
 18 20  1  0
 20 21  1  0
 22 20  2  0
M  END
$$$$
