TKA.pdb
     RDKit          3D

 22 21  0  0  1  0  0  0  0  0999 V2000
    9.9281  -13.8128   18.2081 C   0  0  0  0  0  0  0  0  0  0  0  0
    9.3409  -14.0617   19.5700 C   0  0  1  0  0  0  0  0  0  0  0  0
    9.7909  -13.1303   20.4762 O   0  0  0  0  0  0  0  0  0  0  0  0
    7.8283  -14.0834   19.5458 C   0  0  2  0  0  0  0  0  0  0  0  0
    7.3153  -12.8186   19.0739 N   0  0  0  0  0  0  0  0  0  0  0  0
    7.3259  -14.3994   20.9102 C   0  0  0  0  0  0  0  0  0  0  0  0
    6.7367  -13.5270   21.5953 O   0  0  0  0  0  0  0  0  0  0  0  0
    7.4832  -15.6825   21.5007 N   0  0  0  0  0  0  0  0  0  0  0  0
    7.1027  -15.9816   22.8394 C   0  0  1  0  0  0  0  0  0  0  0  0
    7.2624  -17.4767   23.1005 C   0  0  0  0  0  0  0  0  0  0  0  0
    6.9589  -17.8307   24.5182 C   0  0  0  0  0  0  0  0  0  0  0  0
    7.0532  -19.3210   24.6909 C   0  0  0  0  0  0  0  0  0  0  0  0
    6.6262  -19.8159   26.0423 C   0  0  0  0  0  0  0  0  0  0  0  0
    6.6600  -21.2857   25.9690 N   0  0  0  0  0  0  0  0  0  0  0  0
    7.8454  -15.2449   23.8629 C   0  0  0  0  0  0  0  0  0  0  0  0
    9.0961  -15.2084   23.8098 O   0  0  0  0  0  0  0  0  0  0  0  0
    7.2374  -12.6328   26.4649 C   0  0  0  0  0  0  0  0  0  0  0  0
    8.0075  -13.7501   25.8079 C   0  0  2  0  0  0  0  0  0  0  0  0
    7.2284  -14.5553   24.9331 N   0  0  0  0  0  0  0  0  0  0  0  0
    8.5653  -14.5945   26.8924 C   0  0  0  0  0  0  0  0  0  0  0  0
    9.4465  -14.0843   27.8448 O   0  0  0  0  0  0  0  0  0  0  0  0
    8.2427  -15.8036   26.9653 O   0  0  0  0  0  0  0  0  0  0  0  0
  2  1  1  6
  2  3  1  0
  4  2  1  0
  4  5  1  1
  6  4  1  0
  7  6  2  0
  8  6  1  0
  9  8  1  0
 10 11  1  0
  9 10  1  1
 12 13  1  0
 12 11  1  0
 13 14  1  0
 15  9  1  0
 15 19  1  0
 16 15  2  0
 18 19  1  0
 18 17  1  1
 18 20  1  0
 20 21  1  0
 22 20  2  0
M  END
$$$$
