TKA.pdb
     RDKit          3D

 22 21  0  0  1  0  0  0  0  0999 V2000
   10.8058  -14.0058   20.3556 C   0  0  0  0  0  0  0  0  0  0  0  0
    9.8740  -13.2354   19.4614 C   0  0  1  0  0  0  0  0  0  0  0  0
   10.5184  -12.8254   18.3177 O   0  0  0  0  0  0  0  0  0  0  0  0
    8.6329  -14.0263   19.1105 C   0  0  2  0  0  0  0  0  0  0  0  0
    7.7820  -13.2610   18.2296 N   0  0  0  0  0  0  0  0  0  0  0  0
    7.9240  -14.3980   20.3647 C   0  0  0  0  0  0  0  0  0  0  0  0
    7.2631  -13.5436   21.0057 O   0  0  0  0  0  0  0  0  0  0  0  0
    7.9561  -15.7161   20.8949 N   0  0  0  0  0  0  0  0  0  0  0  0
    7.3282  -16.0849   22.1180 C   0  0  1  0  0  0  0  0  0  0  0  0
    7.2513  -17.6055   22.2218 C   0  0  0  0  0  0  0  0  0  0  0  0
    6.5479  -18.0449   23.4626 C   0  0  0  0  0  0  0  0  0  0  0  0
    6.5464  -19.5467   23.5294 C   0  0  0  0  0  0  0  0  0  0  0  0
    5.2679  -20.1422   24.0435 C   0  0  0  0  0  0  0  0  0  0  0  0
    5.4795  -21.5986   24.0767 N   0  0  0  0  0  0  0  0  0  0  0  0
    7.9827  -15.5654   23.3196 C   0  0  0  0  0  0  0  0  0  0  0  0
    9.2219  -15.6914   23.4494 O   0  0  0  0  0  0  0  0  0  0  0  0
    7.2546  -13.2512   26.1774 C   0  0  0  0  0  0  0  0  0  0  0  0
    8.0114  -14.3301   25.4449 C   0  0  2  0  0  0  0  0  0  0  0  0
    7.2906  -14.9152   24.3684 N   0  0  0  0  0  0  0  0  0  0  0  0
    8.3534  -15.3770   26.4384 C   0  0  0  0  0  0  0  0  0  0  0  0
    9.2116  -15.1260   27.5082 O   0  0  0  0  0  0  0  0  0  0  0  0
    7.8630  -16.5249   26.3237 O   0  0  0  0  0  0  0  0  0  0  0  0
  2  1  1  1
  2  3  1  0
  4  2  1  0
  4  5  1  6
  6  4  1  0
  7  6  2  0
  8  6  1  0
  9  8  1  0
 10 11  1  0
  9 10  1  1
 12 13  1  0
 12 11  1  0
 13 14  1  0
 15  9  1  0
 15 19  1  0
 16 15  2  0
 18 19  1  0
 18 17  1  1
 18 20  1  0
 20 21  1  0
 22 20  2  0
M  END
$$$$
