TKA.pdb
     RDKit          3D

 22 21  0  0  1  0  0  0  0  0999 V2000
    7.6001  -12.4503   20.3447 C   0  0  0  0  0  0  0  0  0  0  0  0
    7.7572  -13.8976   19.9678 C   0  0  1  0  0  0  0  0  0  0  0  0
    7.9414  -14.0345   18.6119 O   0  0  0  0  0  0  0  0  0  0  0  0
    8.8859  -14.5661   20.7216 C   0  0  2  0  0  0  0  0  0  0  0  0
    9.2050  -15.8404   20.1218 N   0  0  0  0  0  0  0  0  0  0  0  0
    8.4924  -14.7195   22.1483 C   0  0  0  0  0  0  0  0  0  0  0  0
    8.1346  -13.7244   22.8260 O   0  0  0  0  0  0  0  0  0  0  0  0
    8.5001  -15.9778   22.8087 N   0  0  0  0  0  0  0  0  0  0  0  0
    8.0912  -16.1567   24.1604 C   0  0  1  0  0  0  0  0  0  0  0  0
    7.8375  -17.6367   24.4324 C   0  0  0  0  0  0  0  0  0  0  0  0
    7.4127  -17.8798   25.8422 C   0  0  0  0  0  0  0  0  0  0  0  0
    7.2070  -19.3539   26.0537 C   0  0  0  0  0  0  0  0  0  0  0  0
    6.7641  -19.7246   27.4393 C   0  0  0  0  0  0  0  0  0  0  0  0
    6.5991  -21.1874   27.4382 N   0  0  0  0  0  0  0  0  0  0  0  0
    9.0388  -15.6527   25.1553 C   0  0  0  0  0  0  0  0  0  0  0  0
   10.2584  -15.9078   25.0290 O   0  0  0  0  0  0  0  0  0  0  0  0
    9.2071  -13.1659   27.9525 C   0  0  0  0  0  0  0  0  0  0  0  0
    9.6464  -14.3746   27.1656 C   0  0  2  0  0  0  0  0  0  0  0  0
    8.6581  -14.8783   26.2765 N   0  0  0  0  0  0  0  0  0  0  0  0
   10.0123  -15.4261   28.1457 C   0  0  0  0  0  0  0  0  0  0  0  0
   11.0350  -15.2435   29.0756 O   0  0  0  0  0  0  0  0  0  0  0  0
    9.3915  -16.5151   28.1479 O   0  0  0  0  0  0  0  0  0  0  0  0
  2  1  1  6
  2  3  1  0
  4  2  1  0
  4  5  1  6
  6  4  1  0
  7  6  2  0
  8  6  1  0
  9  8  1  0
 10 11  1  0
  9 10  1  1
 12 13  1  0
 12 11  1  0
 13 14  1  0
 15  9  1  0
 15 19  1  0
 16 15  2  0
 18 19  1  0
 18 17  1  1
 18 20  1  0
 20 21  1  0
 22 20  2  0
M  END
$$$$
