TKA.pdb
     RDKit          3D

 22 21  0  0  1  0  0  0  0  0999 V2000
    7.3370  -17.9323   18.6171 C   0  0  0  0  0  0  0  0  0  0  0  0
    7.9378  -17.5138   19.9306 C   0  0  1  0  0  0  0  0  0  0  0  0
    8.8581  -18.4384   20.3661 O   0  0  0  0  0  0  0  0  0  0  0  0
    8.5665  -16.1395   19.8604 C   0  0  2  0  0  0  0  0  0  0  0  0
    9.6921  -16.1476   18.9556 N   0  0  0  0  0  0  0  0  0  0  0  0
    8.9719  -15.7210   21.2294 C   0  0  0  0  0  0  0  0  0  0  0  0
   10.1466  -15.9033   21.6349 O   0  0  0  0  0  0  0  0  0  0  0  0
    8.0676  -15.1037   22.1355 N   0  0  0  0  0  0  0  0  0  0  0  0
    8.4350  -14.6804   23.4439 C   0  0  1  0  0  0  0  0  0  0  0  0
    7.3009  -13.8678   24.0621 C   0  0  0  0  0  0  0  0  0  0  0  0
    7.6304  -13.4124   25.4446 C   0  0  0  0  0  0  0  0  0  0  0  0
    6.5365  -12.5115   25.9466 C   0  0  0  0  0  0  0  0  0  0  0  0
    6.7837  -11.9394   27.3122 C   0  0  0  0  0  0  0  0  0  0  0  0
    5.5938  -11.1376   27.6412 N   0  0  0  0  0  0  0  0  0  0  0  0
    8.7866  -15.7668   24.3594 C   0  0  0  0  0  0  0  0  0  0  0  0
    7.9455  -16.6614   24.6054 O   0  0  0  0  0  0  0  0  0  0  0  0
   11.7457  -17.5725   25.5129 C   0  0  0  0  0  0  0  0  0  0  0  0
   10.3603  -17.0320   25.7617 C   0  0  2  0  0  0  0  0  0  0  0  0
   10.0437  -15.8747   24.9994 N   0  0  0  0  0  0  0  0  0  0  0  0
   10.2675  -16.7131   27.2073 C   0  0  0  0  0  0  0  0  0  0  0  0
   10.5263  -17.6668   28.1909 O   0  0  0  0  0  0  0  0  0  0  0  0
    9.9481  -15.5558   27.5679 O   0  0  0  0  0  0  0  0  0  0  0  0
  2  1  1  6
  2  3  1  0
  4  2  1  0
  4  5  1  6
  6  4  1  0
  7  6  2  0
  8  6  1  0
  9  8  1  0
 10 11  1  0
  9 10  1  1
 12 13  1  0
 12 11  1  0
 13 14  1  0
 15  9  1  0
 15 19  1  0
 16 15  2  0
 18 19  1  0
 18 17  1  1
 18 20  1  0
 20 21  1  0
 22 20  2  0
M  END
$$$$
