TKA.pdb
     RDKit          3D

 22 21  0  0  1  0  0  0  0  0999 V2000
    7.6937  -18.5722   20.9242 C   0  0  0  0  0  0  0  0  0  0  0  0
    8.6265  -18.0820   19.8513 C   0  0  1  0  0  0  0  0  0  0  0  0
    8.3236  -18.6549   18.6383 O   0  0  0  0  0  0  0  0  0  0  0  0
    8.6233  -16.5735   19.7355 C   0  0  2  0  0  0  0  0  0  0  0  0
    9.4594  -16.1524   18.6359 N   0  0  0  0  0  0  0  0  0  0  0  0
    9.0823  -15.9872   21.0237 C   0  0  0  0  0  0  0  0  0  0  0  0
   10.2813  -16.0884   21.3839 O   0  0  0  0  0  0  0  0  0  0  0  0
    8.2042  -15.2937   21.8999 N   0  0  0  0  0  0  0  0  0  0  0  0
    8.5749  -14.8679   23.2065 C   0  0  1  0  0  0  0  0  0  0  0  0
    7.4592  -14.0196   23.8101 C   0  0  0  0  0  0  0  0  0  0  0  0
    7.7548  -13.6310   25.2203 C   0  0  0  0  0  0  0  0  0  0  0  0
    6.6644  -12.7290   25.7278 C   0  0  0  0  0  0  0  0  0  0  0  0
    6.9068  -12.1778   27.1028 C   0  0  0  0  0  0  0  0  0  0  0  0
    5.7791  -11.2751   27.3862 N   0  0  0  0  0  0  0  0  0  0  0  0
    8.8919  -15.9545   24.1343 C   0  0  0  0  0  0  0  0  0  0  0  0
    8.0199  -16.8141   24.3972 O   0  0  0  0  0  0  0  0  0  0  0  0
   11.8072  -17.8202   25.3459 C   0  0  0  0  0  0  0  0  0  0  0  0
   10.4242  -17.2555   25.5498 C   0  0  2  0  0  0  0  0  0  0  0  0
   10.1484  -16.1006   24.7681 N   0  0  0  0  0  0  0  0  0  0  0  0
   10.2952  -16.9213   26.9891 C   0  0  0  0  0  0  0  0  0  0  0  0
   10.4778  -17.8775   27.9873 O   0  0  0  0  0  0  0  0  0  0  0  0
   10.0142  -15.7485   27.3308 O   0  0  0  0  0  0  0  0  0  0  0  0
  2  1  1  1
  2  3  1  0
  4  2  1  0
  4  5  1  6
  6  4  1  0
  7  6  2  0
  8  6  1  0
  9  8  1  0
 10 11  1  0
  9 10  1  1
 12 13  1  0
 12 11  1  0
 13 14  1  0
 15  9  1  0
 15 19  1  0
 16 15  2  0
 18 19  1  0
 18 17  1  1
 18 20  1  0
 20 21  1  0
 22 20  2  0
M  END
$$$$
