RHL.pdb
     RDKit          3D

 30 30  0  0  1  0  0  0  0  0999 V2000
   12.5099  -24.6787   23.1549 N   0  0  0  0  0  0  0  0  0  0  0  0
   12.9246  -24.4692   21.8117 C   0  0  0  0  0  0  0  0  0  0  0  0
   12.9436  -25.4305   20.9424 N   0  0  0  0  0  0  0  0  0  0  0  0
   13.3382  -23.1732   21.3767 N   0  0  0  0  0  0  0  0  0  0  0  0
   13.3979  -22.0291   22.2668 C   0  0  0  0  0  0  0  0  0  0  0  0
   12.1895  -21.1705   21.9806 C   0  0  0  0  0  0  0  0  0  0  0  0
   12.5075  -19.6929   22.0770 C   0  0  0  0  0  0  0  0  0  0  0  0
   11.4424  -19.0670   22.9427 C   0  0  2  0  0  0  0  0  0  0  0  0
   10.2569  -19.8975   22.8543 N   0  0  0  0  0  0  0  0  0  0  0  0
   11.1631  -17.6649   22.6132 C   0  0  0  0  0  0  0  0  0  0  0  0
   12.0939  -16.8441   22.5313 O   0  0  0  0  0  0  0  0  0  0  0  0
   13.2522  -25.3077   19.9717 N   0  0  0  0  0  0  0  0  0  0  0  0
    9.8365  -17.2497   22.3894 C   0  0  1  0  0  0  0  0  0  0  0  0
    9.5451  -15.8646   22.1119 C   0  0  0  0  0  0  0  0  0  0  0  0
    8.2735  -15.8218   21.2875 C   0  0  0  0  0  0  0  0  0  0  0  0
    7.9398  -14.4440   20.8686 C   0  0  0  0  0  0  0  0  0  0  0  0
    8.8674  -13.4756   20.5450 N   0  0  0  0  0  0  0  0  0  0  0  0
    8.2006  -12.3614   20.2162 C   0  0  0  0  0  0  0  0  0  0  0  0
    6.8845  -12.6210   20.3299 N   0  0  0  0  0  0  0  0  0  0  0  0
    6.7412  -13.8840   20.7251 C   0  0  0  0  0  0  0  0  0  0  0  0
    9.4009  -15.0924   23.3773 O   0  0  0  0  0  0  0  0  0  0  0  0
    9.5277  -13.8419   23.3779 C   0  0  0  0  0  0  0  0  0  0  0  0
    8.1247  -12.1886   26.1330 C   0  0  2  0  0  0  0  0  0  0  0  0
    7.2725  -13.2693   25.4844 C   0  0  0  0  0  0  0  0  0  0  0  0
    5.8260  -12.8649   25.6691 C   0  0  0  0  0  0  0  0  0  0  0  0
    7.5827  -14.5993   26.0991 C   0  0  2  0  0  0  0  0  0  0  0  0
    8.9741  -15.0737   25.8816 N   0  0  0  0  0  0  0  0  0  0  0  0
    9.1187  -15.7554   24.5989 C   0  0  0  0  0  0  0  0  0  0  0  0
    9.5465  -15.8728   26.9792 O   0  0  0  0  0  0  0  0  0  0  0  0
    9.9285  -17.0792   26.7810 O   0  0  0  0  0  0  0  0  0  0  0  0
  2  3  2  0
  2  1  1  0
  4  2  1  0
  5  4  1  0
  6  5  1  0
  7  6  1  0
  8  9  1  6
  8  7  1  0
 10 11  2  0
 10  8  1  0
 12 10  1  0
 13 12  1  0
 13 20  1  0
 13 14  1  6
 15 19  1  0
 15 14  1  0
 16 15  2  0
 17 16  1  0
 17 18  1  0
 18 19  2  0
 20 27  1  0
 21 20  2  0
 23 22  1  6
 23 25  1  0
 24 23  1  0
 26 25  1  6
 26 28  1  0
 27 26  1  0
 28 29  2  0
 28 30  1  0
M  END
$$$$
