RHL.pdb
     RDKit          3D

 30 30  0  0  1  0  0  0  0  0999 V2000
    7.7206  -15.6468   13.7747 N   0  0  0  0  0  0  0  0  0  0  0  0
    8.9036  -15.4122   14.5266 C   0  0  0  0  0  0  0  0  0  0  0  0
   10.0055  -16.0519   14.2880 N   0  0  0  0  0  0  0  0  0  0  0  0
    8.9103  -14.4501   15.5822 N   0  0  0  0  0  0  0  0  0  0  0  0
    7.7133  -13.7562   16.0186 C   0  0  0  0  0  0  0  0  0  0  0  0
    8.0773  -12.9554   17.2456 C   0  0  0  0  0  0  0  0  0  0  0  0
    7.5797  -13.6090   18.5180 C   0  0  0  0  0  0  0  0  0  0  0  0
    8.7221  -13.5857   19.5030 C   0  0  2  0  0  0  0  0  0  0  0  0
    9.9250  -13.9766   18.7936 N   0  0  0  0  0  0  0  0  0  0  0  0
    8.4895  -14.4080   20.6956 C   0  0  0  0  0  0  0  0  0  0  0  0
    7.5194  -14.1735   21.4376 O   0  0  0  0  0  0  0  0  0  0  0  0
   10.8782  -15.8834   14.8003 N   0  0  0  0  0  0  0  0  0  0  0  0
    9.3686  -15.4651   20.9987 C   0  0  1  0  0  0  0  0  0  0  0  0
    9.1137  -16.3206   22.1317 C   0  0  0  0  0  0  0  0  0  0  0  0
   10.0476  -17.5101   22.0249 C   0  0  0  0  0  0  0  0  0  0  0  0
    9.9103  -18.4184   23.1831 C   0  0  0  0  0  0  0  0  0  0  0  0
    8.7453  -18.6102   23.8965 N   0  0  0  0  0  0  0  0  0  0  0  0
    8.9993  -19.4972   24.8674 C   0  0  0  0  0  0  0  0  0  0  0  0
   10.2931  -19.8560   24.7686 N   0  0  0  0  0  0  0  0  0  0  0  0
   10.8319  -19.1961   23.7458 C   0  0  0  0  0  0  0  0  0  0  0  0
    9.3176  -15.5801   23.4078 O   0  0  0  0  0  0  0  0  0  0  0  0
   10.3697  -14.9198   23.5996 C   0  0  0  0  0  0  0  0  0  0  0  0
    5.9814  -12.2026   27.0414 C   0  0  1  0  0  0  0  0  0  0  0  0
    7.3231  -12.9042   26.8912 C   0  0  0  0  0  0  0  0  0  0  0  0
    8.3807  -11.8257   26.8004 C   0  0  0  0  0  0  0  0  0  0  0  0
    7.3006  -13.7931   25.6861 C   0  0  2  0  0  0  0  0  0  0  0  0
    8.3882  -14.8050   25.6414 N   0  0  0  0  0  0  0  0  0  0  0  0
    8.3291  -15.6088   24.4244 C   0  0  0  0  0  0  0  0  0  0  0  0
    8.5074  -15.6555   26.8387 O   0  0  0  0  0  0  0  0  0  0  0  0
    9.2224  -15.2869   27.8354 O   0  0  0  0  0  0  0  0  0  0  0  0
  2  3  2  0
  2  1  1  0
  4  2  1  0
  5  4  1  0
  6  5  1  0
  7  6  1  0
  8  9  1  6
  8  7  1  0
 10 11  2  0
 10  8  1  0
 12 10  1  0
 13 12  1  0
 13 20  1  0
 13 14  1  6
 15 19  1  0
 15 14  1  0
 16 15  2  0
 17 16  1  0
 17 18  1  0
 18 19  2  0
 20 27  1  0
 21 20  2  0
 23 22  1  1
 23 25  1  0
 24 23  1  0
 26 25  1  6
 26 28  1  0
 27 26  1  0
 28 29  2  0
 28 30  1  0
M  END
$$$$
