RHL.pdb
     RDKit          3D

 30 30  0  0  1  0  0  0  0  0999 V2000
   12.7789  -21.7744   19.1746 N   0  0  0  0  0  0  0  0  0  0  0  0
   13.9004  -22.1879   19.9434 C   0  0  0  0  0  0  0  0  0  0  0  0
   14.5691  -23.2610   19.6579 N   0  0  0  0  0  0  0  0  0  0  0  0
   14.3277  -21.4198   21.0693 N   0  0  0  0  0  0  0  0  0  0  0  0
   13.7092  -20.1611   21.4404 C   0  0  0  0  0  0  0  0  0  0  0  0
   12.6677  -20.4619   22.4911 C   0  0  0  0  0  0  0  0  0  0  0  0
   11.2614  -20.2305   21.9787 C   0  0  0  0  0  0  0  0  0  0  0  0
   10.5898  -19.2840   22.9424 C   0  0  2  0  0  0  0  0  0  0  0  0
    9.2688  -19.8092   23.2291 N   0  0  0  0  0  0  0  0  0  0  0  0
   10.5442  -17.8956   22.4702 C   0  0  0  0  0  0  0  0  0  0  0  0
   11.5933  -17.2363   22.3639 O   0  0  0  0  0  0  0  0  0  0  0  0
   15.3495  -23.6077   20.2265 N   0  0  0  0  0  0  0  0  0  0  0  0
    9.3077  -17.3103   22.1372 C   0  0  1  0  0  0  0  0  0  0  0  0
    9.2495  -15.9420   21.6844 C   0  0  0  0  0  0  0  0  0  0  0  0
    8.0498  -15.8157   20.7662 C   0  0  0  0  0  0  0  0  0  0  0  0
    7.9260  -14.4501   20.2136 C   0  0  0  0  0  0  0  0  0  0  0  0
    7.4269  -13.3658   20.9050 N   0  0  0  0  0  0  0  0  0  0  0  0
    7.4675  -12.3042   20.0893 C   0  0  0  0  0  0  0  0  0  0  0  0
    7.9798  -12.7093   18.9121 N   0  0  0  0  0  0  0  0  0  0  0  0
    8.2525  -14.0092   19.0013 C   0  0  0  0  0  0  0  0  0  0  0  0
    9.1521  -15.0079   22.8404 O   0  0  0  0  0  0  0  0  0  0  0  0
    9.3995  -13.7844   22.6928 C   0  0  0  0  0  0  0  0  0  0  0  0
    5.6993  -12.5766   26.5959 C   0  0  1  0  0  0  0  0  0  0  0  0
    7.1404  -13.0620   26.5443 C   0  0  0  0  0  0  0  0  0  0  0  0
    8.0214  -11.8330   26.4887 C   0  0  0  0  0  0  0  0  0  0  0  0
    7.3319  -13.9631   25.3635 C   0  0  2  0  0  0  0  0  0  0  0  0
    8.6566  -14.6341   25.3039 N   0  0  0  0  0  0  0  0  0  0  0  0
    8.7795  -15.4839   24.1234 C   0  0  0  0  0  0  0  0  0  0  0  0
    9.0532  -15.3557   26.5257 O   0  0  0  0  0  0  0  0  0  0  0  0
    9.6611  -14.7495   27.4763 O   0  0  0  0  0  0  0  0  0  0  0  0
  2  3  2  0
  2  1  1  0
  4  2  1  0
  5  4  1  0
  6  5  1  0
  7  6  1  0
  8  9  1  6
  8  7  1  0
 10 11  2  0
 10  8  1  0
 12 10  1  0
 13 12  1  0
 13 20  1  0
 13 14  1  1
 15 19  1  0
 15 14  1  0
 16 15  2  0
 17 16  1  0
 17 18  1  0
 18 19  2  0
 20 27  1  0
 21 20  2  0
 23 22  1  1
 23 25  1  0
 24 23  1  0
 26 25  1  6
 26 28  1  0
 27 26  1  0
 28 29  2  0
 28 30  1  0
M  END
$$$$
