RHL.pdb
     RDKit          3D

 30 30  0  0  1  0  0  0  0  0999 V2000
    7.0608  -13.0092   14.3175 N   0  0  0  0  0  0  0  0  0  0  0  0
    8.0514  -14.0260   14.3853 C   0  0  0  0  0  0  0  0  0  0  0  0
    8.6575  -14.4641   13.3265 N   0  0  0  0  0  0  0  0  0  0  0  0
    8.4116  -14.6017   15.6418 N   0  0  0  0  0  0  0  0  0  0  0  0
    7.8529  -14.1479   16.9014 C   0  0  0  0  0  0  0  0  0  0  0  0
    8.5080  -14.9488   18.0009 C   0  0  0  0  0  0  0  0  0  0  0  0
    7.9311  -14.6213   19.3624 C   0  0  0  0  0  0  0  0  0  0  0  0
    8.9361  -15.0788   20.3902 C   0  0  2  0  0  0  0  0  0  0  0  0
    9.6104  -16.2476   19.8588 N   0  0  0  0  0  0  0  0  0  0  0  0
    8.3544  -15.3281   21.7138 C   0  0  0  0  0  0  0  0  0  0  0  0
    7.5575  -14.5126   22.2105 O   0  0  0  0  0  0  0  0  0  0  0  0
    9.3919  -15.1801   13.3521 N   0  0  0  0  0  0  0  0  0  0  0  0
    8.7010  -16.4946   22.4218 C   0  0  1  0  0  0  0  0  0  0  0  0
    8.1069  -16.7684   23.7074 C   0  0  0  0  0  0  0  0  0  0  0  0
    8.2720  -18.2505   23.9803 C   0  0  0  0  0  0  0  0  0  0  0  0
    7.2772  -19.0564   23.2412 C   0  0  0  0  0  0  0  0  0  0  0  0
    6.2635  -18.5335   22.4653 N   0  0  0  0  0  0  0  0  0  0  0  0
    5.5666  -19.5573   21.9552 C   0  0  0  0  0  0  0  0  0  0  0  0
    6.1271  -20.6980   22.3987 N   0  0  0  0  0  0  0  0  0  0  0  0
    7.1606  -20.3804   23.1754 C   0  0  0  0  0  0  0  0  0  0  0  0
    8.7465  -15.9438   24.7700 O   0  0  0  0  0  0  0  0  0  0  0  0
    9.9940  -15.7918   24.7935 C   0  0  0  0  0  0  0  0  0  0  0  0
    8.2246  -11.8564   25.3305 C   0  0  2  0  0  0  0  0  0  0  0  0
    7.0891  -12.6080   26.0093 C   0  0  0  0  0  0  0  0  0  0  0  0
    6.0444  -11.5826   26.3928 C   0  0  0  0  0  0  0  0  0  0  0  0
    7.6142  -13.3658   27.1895 C   0  0  2  0  0  0  0  0  0  0  0  0
    8.5086  -14.5027   26.8486 N   0  0  0  0  0  0  0  0  0  0  0  0
    7.9590  -15.3185   25.7701 C   0  0  0  0  0  0  0  0  0  0  0  0
    8.9305  -15.3363   27.9879 O   0  0  0  0  0  0  0  0  0  0  0  0
    9.5851  -14.8280   28.9645 O   0  0  0  0  0  0  0  0  0  0  0  0
  2  3  2  0
  2  1  1  0
  4  2  1  0
  5  4  1  0
  6  5  1  0
  7  6  1  0
  8  9  1  6
  8  7  1  0
 10 11  2  0
 10  8  1  0
 12 10  1  0
 13 12  1  0
 13 20  1  0
 13 14  1  6
 15 19  1  0
 15 14  1  0
 16 15  2  0
 17 16  1  0
 17 18  1  0
 18 19  2  0
 20 27  1  0
 21 20  2  0
 23 22  1  6
 23 25  1  0
 24 23  1  0
 26 25  1  6
 26 28  1  0
 27 26  1  0
 28 29  2  0
 28 30  1  0
M  END
$$$$
