RHL.pdb
     RDKit          3D

 30 30  0  0  1  0  0  0  0  0999 V2000
    7.6023  -15.8857   16.6992 N   0  0  0  0  0  0  0  0  0  0  0  0
    8.1912  -14.8474   15.9278 C   0  0  0  0  0  0  0  0  0  0  0  0
    8.9126  -15.0968   14.8801 N   0  0  0  0  0  0  0  0  0  0  0  0
    8.0009  -13.4795   16.2919 N   0  0  0  0  0  0  0  0  0  0  0  0
    7.2124  -13.0761   17.4410 C   0  0  0  0  0  0  0  0  0  0  0  0
    8.0320  -13.3657   18.6754 C   0  0  0  0  0  0  0  0  0  0  0  0
    7.5682  -14.6221   19.3826 C   0  0  0  0  0  0  0  0  0  0  0  0
    8.6860  -15.0511   20.3004 C   0  0  2  0  0  0  0  0  0  0  0  0
    9.3759  -16.1589   19.6683 N   0  0  0  0  0  0  0  0  0  0  0  0
    8.2406  -15.3780   21.6595 C   0  0  0  0  0  0  0  0  0  0  0  0
    7.4682  -14.6143   22.2653 O   0  0  0  0  0  0  0  0  0  0  0  0
    9.3304  -14.3647   14.2952 N   0  0  0  0  0  0  0  0  0  0  0  0
    8.6904  -16.5603   22.2776 C   0  0  1  0  0  0  0  0  0  0  0  0
    8.2792  -16.8793   23.6229 C   0  0  0  0  0  0  0  0  0  0  0  0
    8.5654  -18.3504   23.8511 C   0  0  0  0  0  0  0  0  0  0  0  0
    8.1891  -18.7750   25.2162 C   0  0  0  0  0  0  0  0  0  0  0  0
    6.8959  -18.8275   25.6935 N   0  0  0  0  0  0  0  0  0  0  0  0
    6.9431  -19.2549   26.9620 C   0  0  0  0  0  0  0  0  0  0  0  0
    8.2347  -19.4667   27.2770 N   0  0  0  0  0  0  0  0  0  0  0  0
    8.9772  -19.1726   26.2120 C   0  0  0  0  0  0  0  0  0  0  0  0
    8.9962  -16.0247   24.6099 O   0  0  0  0  0  0  0  0  0  0  0  0
   10.2462  -15.9040   24.5579 C   0  0  0  0  0  0  0  0  0  0  0  0
    7.3864  -12.0959   25.4305 C   0  0  1  0  0  0  0  0  0  0  0  0
    6.8122  -13.0892   26.4298 C   0  0  0  0  0  0  0  0  0  0  0  0
    5.7356  -12.3646   27.2078 C   0  0  0  0  0  0  0  0  0  0  0  0
    7.9043  -13.6155   27.3091 C   0  0  2  0  0  0  0  0  0  0  0  0
    8.9055  -14.4654   26.6134 N   0  0  0  0  0  0  0  0  0  0  0  0
    8.2804  -15.3354   25.6218 C   0  0  0  0  0  0  0  0  0  0  0  0
    9.8103  -15.2235   27.4952 O   0  0  0  0  0  0  0  0  0  0  0  0
    9.6535  -16.4830   27.6679 O   0  0  0  0  0  0  0  0  0  0  0  0
  2  3  2  0
  2  1  1  0
  4  2  1  0
  5  4  1  0
  6  5  1  0
  7  6  1  0
  8  9  1  6
  8  7  1  0
 10 11  2  0
 10  8  1  0
 12 10  1  0
 13 12  1  0
 13 20  1  0
 13 14  1  6
 15 19  1  0
 15 14  1  0
 16 15  2  0
 17 16  1  0
 17 18  1  0
 18 19  2  0
 20 27  1  0
 21 20  2  0
 23 22  1  6
 23 25  1  0
 24 23  1  0
 26 25  1  6
 26 28  1  0
 27 26  1  0
 28 29  2  0
 28 30  1  0
M  END
$$$$
