ACF.pdb
     RDKit          3D

 23 23  0  0  1  0  0  0  0  0999 V2000
   31.4630  -34.3813  -16.1243 C   0  0  0  0  0  0  0  0  0  0  0  0
   30.5101  -33.3424  -16.6315 C   0  0  2  0  0  0  0  0  0  0  0  0
   31.2122  -32.1896  -17.1805 N   0  0  0  0  0  0  0  0  0  0  0  0
   29.6244  -32.9058  -15.5054 C   0  0  0  0  0  0  0  0  0  0  0  0
   29.8011  -31.8279  -14.8973 O   0  0  0  0  0  0  0  0  0  0  0  0
   28.5341  -33.7027  -15.0732 N   0  0  0  0  0  0  0  0  0  0  0  0
   27.5559  -33.2546  -14.1544 C   0  0  1  0  0  0  0  0  0  0  0  0
   26.3356  -32.6390  -14.7650 C   0  0  0  0  0  0  0  0  0  0  0  0
   25.7874  -33.5131  -16.2545 S   0  0  0  0  0  0  0  0  0  0  0  0
   27.1114  -34.3874  -13.3021 C   0  0  0  0  0  0  0  0  0  0  0  0
   26.9284  -35.5035  -13.8217 O   0  0  0  0  0  0  0  0  0  0  0  0
   26.8868  -34.2347  -11.9001 N   0  0  0  0  0  0  0  0  0  0  0  0
   26.4995  -35.3990  -11.1039 C   0  0  1  0  0  0  0  0  0  0  0  0
   26.7973  -35.1768   -9.6576 C   0  0  0  0  0  0  0  0  0  0  0  0
   26.0530  -34.0029   -9.1571 C   0  0  0  0  0  0  0  0  0  0  0  0
   26.5045  -32.7025   -9.2868 C   0  0  0  0  0  0  0  0  0  0  0  0
   25.7881  -31.6241   -8.8208 C   0  0  0  0  0  0  0  0  0  0  0  0
   24.5738  -31.8161   -8.1977 C   0  0  0  0  0  0  0  0  0  0  0  0
   24.0820  -33.0900   -8.0442 C   0  0  0  0  0  0  0  0  0  0  0  0
   24.8202  -34.1425   -8.5198 C   0  0  0  0  0  0  0  0  0  0  0  0
   25.0557  -35.5842  -11.3049 C   0  0  0  0  0  0  0  0  0  0  0  0
   24.4176  -36.7597  -10.9209 O   0  0  0  0  0  0  0  0  0  0  0  0
   24.3804  -34.6700  -11.8317 O   0  0  0  0  0  0  0  0  0  0  0  0
  2  1  1  1
  3  2  1  0
  4  6  1  0
  4  2  1  0
  5  4  2  0
  7 10  1  0
  7  6  1  0
  7  8  1  6
  9  8  1  0
 10 12  1  0
 11 10  2  0
 12 13  1  0
 13 21  1  0
 13 14  1  1
 15 14  1  0
 16 15  2  0
 17 16  1  0
 18 19  1  0
 18 17  2  0
 19 20  2  0
 20 15  1  0
 21 22  1  0
 23 21  2  0
M  END
$$$$
