ACF.pdb
     RDKit          3D

 23 23  0  0  1  0  0  0  0  0999 V2000
   14.0420    0.2116   -6.8112 C   0  0  0  0  0  0  0  0  0  0  0  0
   15.2399   -0.4440   -7.4275 C   0  0  2  0  0  0  0  0  0  0  0  0
   16.0153    0.4944   -8.2284 N   0  0  0  0  0  0  0  0  0  0  0  0
   14.7816   -1.5829   -8.2855 C   0  0  0  0  0  0  0  0  0  0  0  0
   13.5758   -1.7704   -8.5566 O   0  0  0  0  0  0  0  0  0  0  0  0
   15.7035   -2.5095   -8.8352 N   0  0  0  0  0  0  0  0  0  0  0  0
   15.3614   -3.4511   -9.8344 C   0  0  1  0  0  0  0  0  0  0  0  0
   15.8368   -3.1230  -11.2155 C   0  0  0  0  0  0  0  0  0  0  0  0
   15.0297   -1.6509  -11.8970 S   0  0  0  0  0  0  0  0  0  0  0  0
   15.9069   -4.7854   -9.4746 C   0  0  0  0  0  0  0  0  0  0  0  0
   17.0732   -4.8703   -9.0483 O   0  0  0  0  0  0  0  0  0  0  0  0
   15.1316   -5.9777   -9.6033 N   0  0  0  0  0  0  0  0  0  0  0  0
   15.6859   -7.2484   -9.1368 C   0  0  1  0  0  0  0  0  0  0  0  0
   15.3185   -7.4970   -7.7109 C   0  0  0  0  0  0  0  0  0  0  0  0
   13.8556   -7.3906   -7.5341 C   0  0  0  0  0  0  0  0  0  0  0  0
   12.9868   -8.4502   -7.7186 C   0  0  0  0  0  0  0  0  0  0  0  0
   11.6280   -8.3287   -7.5383 C   0  0  0  0  0  0  0  0  0  0  0  0
   11.0847   -7.1196   -7.1607 C   0  0  0  0  0  0  0  0  0  0  0  0
   11.9068   -6.0359   -6.9652 C   0  0  0  0  0  0  0  0  0  0  0  0
   13.2557   -6.1905   -7.1529 C   0  0  0  0  0  0  0  0  0  0  0  0
   15.1207   -8.2954   -9.9992 C   0  0  0  0  0  0  0  0  0  0  0  0
   15.5793   -9.6078   -9.9378 O   0  0  0  0  0  0  0  0  0  0  0  0
   14.2081   -8.0075  -10.8077 O   0  0  0  0  0  0  0  0  0  0  0  0
  2  1  1  6
  3  2  1  0
  4  6  1  0
  4  2  1  0
  5  4  2  0
  7 10  1  0
  7  6  1  0
  7  8  1  6
  9  8  1  0
 10 12  1  0
 11 10  2  0
 12 13  1  0
 13 21  1  0
 13 14  1  1
 15 14  1  0
 16 15  2  0
 17 16  1  0
 18 19  1  0
 18 17  2  0
 19 20  2  0
 20 15  1  0
 21 22  1  0
 23 21  2  0
M  END
$$$$
