ACF.pdb
     RDKit          3D

 23 23  0  0  1  0  0  0  0  0999 V2000
   27.9087   -8.7937  -17.8591 C   0  0  0  0  0  0  0  0  0  0  0  0
   27.2120  -10.0221  -17.3590 C   0  0  2  0  0  0  0  0  0  0  0  0
   27.2288  -11.0916  -18.3484 N   0  0  0  0  0  0  0  0  0  0  0  0
   25.7964   -9.6715  -17.0174 C   0  0  0  0  0  0  0  0  0  0  0  0
   24.9315   -9.4598  -17.8948 O   0  0  0  0  0  0  0  0  0  0  0  0
   25.3683   -9.5626  -15.6700 N   0  0  0  0  0  0  0  0  0  0  0  0
   24.0263   -9.3167  -15.2951 C   0  0  1  0  0  0  0  0  0  0  0  0
   23.6193   -9.8706  -13.9652 C   0  0  0  0  0  0  0  0  0  0  0  0
   21.9080   -9.4589  -13.5352 S   0  0  0  0  0  0  0  0  0  0  0  0
   23.7719   -7.8531  -15.2712 C   0  0  0  0  0  0  0  0  0  0  0  0
   24.6073   -7.0997  -14.7386 O   0  0  0  0  0  0  0  0  0  0  0  0
   22.5943   -7.2820  -15.8426 N   0  0  0  0  0  0  0  0  0  0  0  0
   22.4228   -5.8295  -15.8319 C   0  0  1  0  0  0  0  0  0  0  0  0
   22.6953   -5.2522  -17.1819 C   0  0  0  0  0  0  0  0  0  0  0  0
   22.4090   -3.8028  -17.1852 C   0  0  0  0  0  0  0  0  0  0  0  0
   21.2212   -3.2620  -17.6415 C   0  0  0  0  0  0  0  0  0  0  0  0
   20.9739   -1.9084  -17.6254 C   0  0  0  0  0  0  0  0  0  0  0  0
   21.9258   -1.0360  -17.1433 C   0  0  0  0  0  0  0  0  0  0  0  0
   23.1231   -1.5247  -16.6786 C   0  0  0  0  0  0  0  0  0  0  0  0
   23.3379   -2.8781  -16.7083 C   0  0  0  0  0  0  0  0  0  0  0  0
   21.0301   -5.5735  -15.4394 C   0  0  0  0  0  0  0  0  0  0  0  0
   20.6795   -4.4343  -14.7213 O   0  0  0  0  0  0  0  0  0  0  0  0
   20.1363   -6.3929  -15.7541 O   0  0  0  0  0  0  0  0  0  0  0  0
  2  1  1  6
  3  2  1  0
  4  6  1  0
  4  2  1  0
  5  4  2  0
  7 10  1  0
  7  6  1  0
  7  8  1  1
  9  8  1  0
 10 12  1  0
 11 10  2  0
 12 13  1  0
 13 21  1  0
 13 14  1  6
 15 14  1  0
 16 15  2  0
 17 16  1  0
 18 19  1  0
 18 17  2  0
 19 20  2  0
 20 15  1  0
 21 22  1  0
 23 21  2  0
M  END
$$$$
