ACF.pdb
     RDKit          3D

 23 23  0  0  1  0  0  0  0  0999 V2000
   24.5806  -34.7384  -10.5534 C   0  0  0  0  0  0  0  0  0  0  0  0
   23.3802  -35.4990  -10.0789 C   0  0  2  0  0  0  0  0  0  0  0  0
   22.1439  -34.9415  -10.6120 N   0  0  0  0  0  0  0  0  0  0  0  0
   23.3457  -35.4658   -8.5819 C   0  0  0  0  0  0  0  0  0  0  0  0
   22.6836  -34.6152   -7.9488 O   0  0  0  0  0  0  0  0  0  0  0  0
   24.0694  -36.4070   -7.8067 N   0  0  0  0  0  0  0  0  0  0  0  0
   24.0364  -36.4431   -6.3926 C   0  0  1  0  0  0  0  0  0  0  0  0
   23.9734  -37.8105   -5.7865 C   0  0  0  0  0  0  0  0  0  0  0  0
   23.9025  -37.7659   -3.9765 S   0  0  0  0  0  0  0  0  0  0  0  0
   25.2377  -35.7619   -5.8448 C   0  0  0  0  0  0  0  0  0  0  0  0
   26.3676  -36.1386   -6.2060 O   0  0  0  0  0  0  0  0  0  0  0  0
   25.1356  -34.6842   -4.9134 N   0  0  0  0  0  0  0  0  0  0  0  0
   26.3542  -34.0384   -4.4262 C   0  0  1  0  0  0  0  0  0  0  0  0
   26.3800  -32.5950   -4.8079 C   0  0  0  0  0  0  0  0  0  0  0  0
   26.2793  -32.4525   -6.2749 C   0  0  0  0  0  0  0  0  0  0  0  0
   25.1137  -32.0961   -6.9275 C   0  0  0  0  0  0  0  0  0  0  0  0
   25.0472  -31.9602   -8.2952 C   0  0  0  0  0  0  0  0  0  0  0  0
   26.1665  -32.1812   -9.0685 C   0  0  0  0  0  0  0  0  0  0  0  0
   27.3492  -32.5380   -8.4668 C   0  0  0  0  0  0  0  0  0  0  0  0
   27.3818  -32.6647   -7.1024 C   0  0  0  0  0  0  0  0  0  0  0  0
   26.3484  -34.1792   -2.9635 C   0  0  0  0  0  0  0  0  0  0  0  0
   25.3543  -34.9021   -2.3110 O   0  0  0  0  0  0  0  0  0  0  0  0
   27.2531  -33.6404   -2.2848 O   0  0  0  0  0  0  0  0  0  0  0  0
  2  1  1  6
  3  2  1  0
  4  6  1  0
  4  2  1  0
  5  4  2  0
  7 10  1  0
  7  6  1  0
  7  8  1  6
  9  8  1  0
 10 12  1  0
 11 10  2  0
 12 13  1  0
 13 21  1  0
 13 14  1  1
 15 14  1  0
 16 15  2  0
 17 16  1  0
 18 19  1  0
 18 17  2  0
 19 20  2  0
 20 15  1  0
 21 22  1  0
 23 21  2  0
M  END
$$$$
