ACF.pdb
     RDKit          3D

 23 23  0  0  1  0  0  0  0  0999 V2000
   24.5499  -18.8369  -18.7587 C   0  0  0  0  0  0  0  0  0  0  0  0
   23.6308  -17.6555  -18.8240 C   0  0  2  0  0  0  0  0  0  0  0  0
   24.3617  -16.4166  -19.0566 N   0  0  0  0  0  0  0  0  0  0  0  0
   22.8712  -17.5604  -17.5366 C   0  0  0  0  0  0  0  0  0  0  0  0
   23.4383  -17.3586  -16.4410 O   0  0  0  0  0  0  0  0  0  0  0  0
   21.4602  -17.6962  -17.5013 N   0  0  0  0  0  0  0  0  0  0  0  0
   20.6793  -17.4307  -16.3516 C   0  0  1  0  0  0  0  0  0  0  0  0
   20.4620  -15.9819  -16.0435 C   0  0  0  0  0  0  0  0  0  0  0  0
   19.6724  -15.0916  -17.4099 S   0  0  0  0  0  0  0  0  0  0  0  0
   19.3442  -18.0668  -16.4938 C   0  0  0  0  0  0  0  0  0  0  0  0
   18.8187  -18.1315  -17.6202 O   0  0  0  0  0  0  0  0  0  0  0  0
   18.6427  -18.6083  -15.3739 N   0  0  0  0  0  0  0  0  0  0  0  0
   17.3021  -19.1610  -15.5653 C   0  0  1  0  0  0  0  0  0  0  0  0
   16.9404  -20.0786  -14.4441 C   0  0  0  0  0  0  0  0  0  0  0  0
   15.6030  -20.6630  -14.6731 C   0  0  0  0  0  0  0  0  0  0  0  0
   15.3738  -21.7335  -15.5176 C   0  0  0  0  0  0  0  0  0  0  0  0
   14.1195  -22.2668  -15.7071 C   0  0  0  0  0  0  0  0  0  0  0  0
   13.0336  -21.7355  -15.0453 C   0  0  0  0  0  0  0  0  0  0  0  0
   13.2097  -20.6704  -14.1950 C   0  0  0  0  0  0  0  0  0  0  0  0
   14.4720  -20.1628  -14.0282 C   0  0  0  0  0  0  0  0  0  0  0  0
   16.3786  -18.0188  -15.6077 C   0  0  0  0  0  0  0  0  0  0  0  0
   15.2776  -18.0109  -16.4587 O   0  0  0  0  0  0  0  0  0  0  0  0
   16.5808  -17.0297  -14.8660 O   0  0  0  0  0  0  0  0  0  0  0  0
  2  1  1  1
  3  2  1  0
  4  6  1  0
  4  2  1  0
  5  4  2  0
  7 10  1  0
  7  6  1  0
  7  8  1  6
  9  8  1  0
 10 12  1  0
 11 10  2  0
 12 13  1  0
 13 21  1  0
 13 14  1  1
 15 14  1  0
 16 15  2  0
 17 16  1  0
 18 19  1  0
 18 17  2  0
 19 20  2  0
 20 15  1  0
 21 22  1  0
 23 21  2  0
M  END
$$$$
