ACF.pdb
     RDKit          3D

 23 23  0  0  1  0  0  0  0  0999 V2000
   26.5532  -25.6878  -17.5357 C   0  0  0  0  0  0  0  0  0  0  0  0
   27.5530  -24.6266  -17.1908 C   0  0  2  0  0  0  0  0  0  0  0  0
   28.7878  -25.1987  -16.6700 N   0  0  0  0  0  0  0  0  0  0  0  0
   26.9525  -23.7074  -16.1721 C   0  0  0  0  0  0  0  0  0  0  0  0
   26.3266  -24.1324  -15.1771 O   0  0  0  0  0  0  0  0  0  0  0  0
   27.0677  -22.2991  -16.2909 N   0  0  0  0  0  0  0  0  0  0  0  0
   26.6746  -21.3956  -15.2754 C   0  0  1  0  0  0  0  0  0  0  0  0
   27.2663  -20.0239  -15.3720 C   0  0  0  0  0  0  0  0  0  0  0  0
   26.7233  -18.9365  -14.0283 S   0  0  0  0  0  0  0  0  0  0  0  0
   25.1960  -21.2503  -15.2776 C   0  0  0  0  0  0  0  0  0  0  0  0
   24.6056  -21.0612  -16.3569 O   0  0  0  0  0  0  0  0  0  0  0  0
   24.4286  -21.3211  -14.0754 N   0  0  0  0  0  0  0  0  0  0  0  0
   22.9695  -21.2484  -14.1496 C   0  0  1  0  0  0  0  0  0  0  0  0
   22.3429  -21.9435  -12.9860 C   0  0  0  0  0  0  0  0  0  0  0  0
   22.7357  -21.2832  -11.7241 C   0  0  0  0  0  0  0  0  0  0  0  0
   21.8933  -20.4588  -11.0014 C   0  0  0  0  0  0  0  0  0  0  0  0
   22.2792  -19.8624   -9.8227 C   0  0  0  0  0  0  0  0  0  0  0  0
   23.5447  -20.0758   -9.3203 C   0  0  0  0  0  0  0  0  0  0  0  0
   24.4194  -20.8871  -10.0022 C   0  0  0  0  0  0  0  0  0  0  0  0
   24.0039  -21.4661  -11.1731 C   0  0  0  0  0  0  0  0  0  0  0  0
   22.6189  -19.8214  -14.1406 C   0  0  0  0  0  0  0  0  0  0  0  0
   23.5743  -18.8442  -13.8785 O   0  0  0  0  0  0  0  0  0  0  0  0
   21.4387  -19.4711  -14.3725 O   0  0  0  0  0  0  0  0  0  0  0  0
  2  1  1  1
  3  2  1  0
  4  6  1  0
  4  2  1  0
  5  4  2  0
  7 10  1  0
  7  6  1  0
  7  8  1  6
  9  8  1  0
 10 12  1  0
 11 10  2  0
 12 13  1  0
 13 21  1  0
 13 14  1  1
 15 14  1  0
 16 15  2  0
 17 16  1  0
 18 19  1  0
 18 17  2  0
 19 20  2  0
 20 15  1  0
 21 22  1  0
 23 21  2  0
M  END
$$$$
