ACF.pdb
     RDKit          3D

 23 23  0  0  1  0  0  0  0  0999 V2000
   13.3324  -10.8713  -12.5799 C   0  0  0  0  0  0  0  0  0  0  0  0
   14.7334  -11.0145  -13.0912 C   0  0  2  0  0  0  0  0  0  0  0  0
   15.2111  -12.3863  -12.9769 N   0  0  0  0  0  0  0  0  0  0  0  0
   15.6292  -10.1006  -12.3130 C   0  0  0  0  0  0  0  0  0  0  0  0
   16.0937  -10.4143  -11.1956 O   0  0  0  0  0  0  0  0  0  0  0  0
   15.9952   -8.8252  -12.8129 N   0  0  0  0  0  0  0  0  0  0  0  0
   16.9082   -7.9637  -12.1600 C   0  0  1  0  0  0  0  0  0  0  0  0
   17.8765   -7.2562  -13.0560 C   0  0  0  0  0  0  0  0  0  0  0  0
   19.1321   -8.3695  -13.7393 S   0  0  0  0  0  0  0  0  0  0  0  0
   16.1639   -6.9304  -11.3947 C   0  0  0  0  0  0  0  0  0  0  0  0
   15.1769   -6.3807  -11.9171 O   0  0  0  0  0  0  0  0  0  0  0  0
   16.5472   -6.5471  -10.0735 N   0  0  0  0  0  0  0  0  0  0  0  0
   15.7769   -5.5207   -9.3717 C   0  0  1  0  0  0  0  0  0  0  0  0
   15.5745   -5.8941   -7.9401 C   0  0  0  0  0  0  0  0  0  0  0  0
   14.3853   -6.7596   -7.8010 C   0  0  0  0  0  0  0  0  0  0  0  0
   14.4337   -8.1391   -7.8791 C   0  0  0  0  0  0  0  0  0  0  0  0
   13.3131   -8.9248   -7.7364 C   0  0  0  0  0  0  0  0  0  0  0  0
   12.0844   -8.3439   -7.5069 C   0  0  0  0  0  0  0  0  0  0  0  0
   11.9842   -6.9761   -7.4213 C   0  0  0  0  0  0  0  0  0  0  0  0
   13.1195   -6.2222   -7.5678 C   0  0  0  0  0  0  0  0  0  0  0  0
   16.5498   -4.2748   -9.4695 C   0  0  0  0  0  0  0  0  0  0  0  0
   17.8507   -4.2684   -9.9638 O   0  0  0  0  0  0  0  0  0  0  0  0
   16.0336   -3.1940   -9.1025 O   0  0  0  0  0  0  0  0  0  0  0  0
  2  1  1  1
  3  2  1  0
  4  6  1  0
  4  2  1  0
  5  4  2  0
  7 10  1  0
  7  6  1  0
  7  8  1  6
  9  8  1  0
 10 12  1  0
 11 10  2  0
 12 13  1  0
 13 21  1  0
 13 14  1  1
 15 14  1  0
 16 15  2  0
 17 16  1  0
 18 19  1  0
 18 17  2  0
 19 20  2  0
 20 15  1  0
 21 22  1  0
 23 21  2  0
M  END
$$$$
