ACF.pdb
     RDKit          3D

 23 23  0  0  1  0  0  0  0  0999 V2000
   23.3980  -14.7503  -19.2654 C   0  0  0  0  0  0  0  0  0  0  0  0
   22.6362  -14.0977  -18.1525 C   0  0  2  0  0  0  0  0  0  0  0  0
   21.2390  -14.5111  -18.1411 N   0  0  0  0  0  0  0  0  0  0  0  0
   22.7224  -12.6110  -18.3125 C   0  0  0  0  0  0  0  0  0  0  0  0
   23.7862  -11.9809  -18.1278 O   0  0  0  0  0  0  0  0  0  0  0  0
   21.5903  -11.8426  -18.6844 N   0  0  0  0  0  0  0  0  0  0  0  0
   21.6166  -10.4357  -18.8328 C   0  0  1  0  0  0  0  0  0  0  0  0
   20.5604   -9.8644  -19.7266 C   0  0  0  0  0  0  0  0  0  0  0  0
   20.4673   -8.0576  -19.6258 S   0  0  0  0  0  0  0  0  0  0  0  0
   21.4806   -9.7880  -17.5026 C   0  0  0  0  0  0  0  0  0  0  0  0
   20.5492  -10.1315  -16.7518 O   0  0  0  0  0  0  0  0  0  0  0  0
   22.3888   -8.7800  -17.0572 N   0  0  0  0  0  0  0  0  0  0  0  0
   22.1584   -8.1237  -15.7704 C   0  0  1  0  0  0  0  0  0  0  0  0
   22.9167   -8.8084  -14.6814 C   0  0  0  0  0  0  0  0  0  0  0  0
   24.2726   -9.1638  -15.1481 C   0  0  0  0  0  0  0  0  0  0  0  0
   25.0334   -8.3513  -15.9681 C   0  0  0  0  0  0  0  0  0  0  0  0
   26.2986   -8.7002  -16.3820 C   0  0  0  0  0  0  0  0  0  0  0  0
   26.8533   -9.8965  -15.9810 C   0  0  0  0  0  0  0  0  0  0  0  0
   26.1366  -10.7392  -15.1658 C   0  0  0  0  0  0  0  0  0  0  0  0
   24.8793  -10.3619  -14.7714 C   0  0  0  0  0  0  0  0  0  0  0  0
   22.6187   -6.7361  -15.9180 C   0  0  0  0  0  0  0  0  0  0  0  0
   23.1526   -6.2755  -17.1177 O   0  0  0  0  0  0  0  0  0  0  0  0
   22.5316   -5.9472  -14.9488 O   0  0  0  0  0  0  0  0  0  0  0  0
  2  1  1  6
  3  2  1  0
  4  6  1  0
  4  2  1  0
  5  4  2  0
  7 10  1  0
  7  6  1  0
  7  8  1  6
  9  8  1  0
 10 12  1  0
 11 10  2  0
 12 13  1  0
 13 21  1  0
 13 14  1  1
 15 14  1  0
 16 15  2  0
 17 16  1  0
 18 19  1  0
 18 17  2  0
 19 20  2  0
 20 15  1  0
 21 22  1  0
 23 21  2  0
M  END
$$$$
