ACF.pdb
     RDKit          3D

 23 23  0  0  1  0  0  0  0  0999 V2000
   17.8286  -14.7335  -14.8258 C   0  0  0  0  0  0  0  0  0  0  0  0
   17.6675  -13.9850  -16.1136 C   0  0  2  0  0  0  0  0  0  0  0  0
   17.8286  -14.8590  -17.2684 N   0  0  0  0  0  0  0  0  0  0  0  0
   18.6834  -12.8857  -16.1658 C   0  0  0  0  0  0  0  0  0  0  0  0
   19.9121  -13.1140  -16.1966 O   0  0  0  0  0  0  0  0  0  0  0  0
   18.2943  -11.5223  -16.1829 N   0  0  0  0  0  0  0  0  0  0  0  0
   19.1958  -10.4563  -16.4134 C   0  0  1  0  0  0  0  0  0  0  0  0
   19.0293   -9.7458  -17.7205 C   0  0  0  0  0  0  0  0  0  0  0  0
   17.3092   -9.2752  -18.0415 S   0  0  0  0  0  0  0  0  0  0  0  0
   19.0664   -9.4466  -15.3313 C   0  0  0  0  0  0  0  0  0  0  0  0
   17.9783   -9.3267  -14.7390 O   0  0  0  0  0  0  0  0  0  0  0  0
   20.1558   -8.6063  -14.9484 N   0  0  0  0  0  0  0  0  0  0  0  0
   19.9875   -7.6768  -13.8317 C   0  0  1  0  0  0  0  0  0  0  0  0
   21.2827   -7.4600  -13.1208 C   0  0  0  0  0  0  0  0  0  0  0  0
   22.3118   -6.9835  -14.0677 C   0  0  0  0  0  0  0  0  0  0  0  0
   22.5474   -5.6461  -14.3273 C   0  0  0  0  0  0  0  0  0  0  0  0
   23.5189   -5.2264  -15.2068 C   0  0  0  0  0  0  0  0  0  0  0  0
   24.3006   -6.1494  -15.8676 C   0  0  0  0  0  0  0  0  0  0  0  0
   24.1048   -7.4910  -15.6438 C   0  0  0  0  0  0  0  0  0  0  0  0
   23.1290   -7.8758  -14.7615 C   0  0  0  0  0  0  0  0  0  0  0  0
   19.5030   -6.4138  -14.4055 C   0  0  0  0  0  0  0  0  0  0  0  0
   19.0491   -5.3785  -13.5939 O   0  0  0  0  0  0  0  0  0  0  0  0
   19.4956   -6.2596  -15.6486 O   0  0  0  0  0  0  0  0  0  0  0  0
  2  1  1  1
  3  2  1  0
  4  6  1  0
  4  2  1  0
  5  4  2  0
  7 10  1  0
  7  6  1  0
  7  8  1  6
  9  8  1  0
 10 12  1  0
 11 10  2  0
 12 13  1  0
 13 21  1  0
 13 14  1  6
 15 14  1  0
 16 15  2  0
 17 16  1  0
 18 19  1  0
 18 17  2  0
 19 20  2  0
 20 15  1  0
 21 22  1  0
 23 21  2  0
M  END
$$$$
