ACF.pdb
     RDKit          3D

 23 23  0  0  1  0  0  0  0  0999 V2000
   22.0641  -11.9779  -20.0269 C   0  0  0  0  0  0  0  0  0  0  0  0
   23.4197  -12.1235  -19.4059 C   0  0  2  0  0  0  0  0  0  0  0  0
   23.6978  -13.5056  -19.0374 N   0  0  0  0  0  0  0  0  0  0  0  0
   23.4923  -11.2516  -18.1902 C   0  0  0  0  0  0  0  0  0  0  0  0
   22.5852  -11.2293  -17.3304 O   0  0  0  0  0  0  0  0  0  0  0  0
   24.6042  -10.4033  -17.9565 N   0  0  0  0  0  0  0  0  0  0  0  0
   24.7108   -9.5478  -16.8346 C   0  0  1  0  0  0  0  0  0  0  0  0
   26.1050   -9.1536  -16.4578 C   0  0  0  0  0  0  0  0  0  0  0  0
   26.7172  -10.0604  -15.0135 S   0  0  0  0  0  0  0  0  0  0  0  0
   23.9401   -8.3013  -17.0788 C   0  0  0  0  0  0  0  0  0  0  0  0
   24.1057   -7.6838  -18.1467 O   0  0  0  0  0  0  0  0  0  0  0  0
   23.0118   -7.7881  -16.1227 N   0  0  0  0  0  0  0  0  0  0  0  0
   22.2773   -6.5593  -16.4230 C   0  0  1  0  0  0  0  0  0  0  0  0
   20.9391   -6.8696  -17.0084 C   0  0  0  0  0  0  0  0  0  0  0  0
   20.1880   -5.6218  -17.2565 C   0  0  0  0  0  0  0  0  0  0  0  0
   19.1026   -5.2225  -16.4990 C   0  0  0  0  0  0  0  0  0  0  0  0
   18.4248   -4.0501  -16.7436 C   0  0  0  0  0  0  0  0  0  0  0  0
   18.8189   -3.2243  -17.7743 C   0  0  0  0  0  0  0  0  0  0  0  0
   19.8922   -3.5774  -18.5564 C   0  0  0  0  0  0  0  0  0  0  0  0
   20.5458   -4.7516  -18.2862 C   0  0  0  0  0  0  0  0  0  0  0  0
   22.1232   -5.8402  -15.1508 C   0  0  0  0  0  0  0  0  0  0  0  0
   22.1661   -4.4503  -15.0966 O   0  0  0  0  0  0  0  0  0  0  0  0
   21.9497   -6.4848  -14.0908 O   0  0  0  0  0  0  0  0  0  0  0  0
  2  1  1  1
  3  2  1  0
  4  6  1  0
  4  2  1  0
  5  4  2  0
  7 10  1  0
  7  6  1  0
  7  8  1  6
  9  8  1  0
 10 12  1  0
 11 10  2  0
 12 13  1  0
 13 21  1  0
 13 14  1  1
 15 14  1  0
 16 15  2  0
 17 16  1  0
 18 19  1  0
 18 17  2  0
 19 20  2  0
 20 15  1  0
 21 22  1  0
 23 21  2  0
M  END
$$$$
