HYM.pdb
     RDKit          3D

 31 32  0  0  1  0  0  0  0  0999 V2000
    6.4622  -19.2656   20.4216 N   0  0  0  0  0  0  0  0  0  0  0  0
    6.2885  -17.9653   21.0892 C   0  0  1  0  0  0  0  0  0  0  0  0
    5.5272  -18.2728   22.3621 C   0  0  0  0  0  0  0  0  0  0  0  0
    4.1707  -18.7353   21.9622 C   0  0  0  0  0  0  0  0  0  0  0  0
    3.5219  -18.4515   20.7578 C   0  0  0  0  0  0  0  0  0  0  0  0
    2.3267  -19.0348   20.7569 N   0  0  0  0  0  0  0  0  0  0  0  0
    2.1778  -19.6950   21.9350 C   0  0  0  0  0  0  0  0  0  0  0  0
    3.3031  -19.4980   22.6421 N   0  0  0  0  0  0  0  0  0  0  0  0
    7.6377  -17.4346   21.3684 C   0  0  0  0  0  0  0  0  0  0  0  0
    8.6198  -18.1876   21.6501 O   0  0  0  0  0  0  0  0  0  0  0  0
    7.3229  -13.9505   15.7800 O   0  0  0  0  0  0  0  0  0  0  0  0
    7.8479  -14.0052   17.0623 C   0  0  0  0  0  0  0  0  0  0  0  0
    8.9749  -14.7608   17.3090 C   0  0  0  0  0  0  0  0  0  0  0  0
    9.5015  -14.8191   18.5827 C   0  0  0  0  0  0  0  0  0  0  0  0
    8.8658  -14.0978   19.6027 C   0  0  0  0  0  0  0  0  0  0  0  0
    9.3947  -14.1545   20.9793 C   0  0  0  0  0  0  0  0  0  0  0  0
    9.1958  -15.4757   21.6411 C   0  0  2  0  0  0  0  0  0  0  0  0
    7.8970  -16.0528   21.3337 N   0  0  0  0  0  0  0  0  0  0  0  0
    9.4360  -15.4302   23.0902 C   0  0  0  0  0  0  0  0  0  0  0  0
   10.5265  -15.0828   23.5955 O   0  0  0  0  0  0  0  0  0  0  0  0
    7.7399  -13.3466   19.3425 C   0  0  0  0  0  0  0  0  0  0  0  0
    7.2110  -13.2876   18.0651 C   0  0  0  0  0  0  0  0  0  0  0  0
    6.8019  -11.1089   28.4638 C   0  0  0  0  0  0  0  0  0  0  0  0
    6.4247  -12.1709   27.0699 S   0  0  0  0  0  0  0  0  0  0  0  0
    7.5324  -13.5909   26.9477 C   0  0  0  0  0  0  0  0  0  0  0  0
    7.5973  -14.1595   25.5709 C   0  0  0  0  0  0  0  0  0  0  0  0
    8.5054  -15.3611   25.4333 C   0  0  2  0  0  0  0  0  0  0  0  0
    8.4088  -15.7900   24.0379 N   0  0  0  0  0  0  0  0  0  0  0  0
    8.1714  -16.4732   26.3129 C   0  0  0  0  0  0  0  0  0  0  0  0
    8.1895  -16.3353   27.5578 O   0  0  0  0  0  0  0  0  0  0  0  0
    7.8257  -17.7070   25.7986 O   0  0  0  0  0  0  0  0  0  0  0  0
  2  1  1  6
  3  2  1  0
  3  4  1  0
  4  8  1  0
  4  5  2  0
  5  6  1  0
  7  6  1  0
  8  7  2  0
  9 18  1  0
  9  2  1  0
 10  9  2  0
 11 12  1  0
 12 13  2  0
 13 14  1  0
 15 16  1  0
 15 14  2  0
 17 16  1  1
 17 18  1  0
 19 17  1  0
 20 19  2  0
 21 15  1  0
 22 21  2  0
 22 12  1  0
 23 24  1  0
 24 25  1  0
 27 26  1  6
 26 25  1  0
 27 28  1  0
 28 19  1  0
 29 31  1  0
 29 27  1  0
 30 29  2  0
M  END
$$$$
