HYM.pdb
     RDKit          3D

 31 32  0  0  1  0  0  0  0  0999 V2000
   10.6152  -17.8611   18.8196 N   0  0  0  0  0  0  0  0  0  0  0  0
    9.6361  -18.2971   19.8285 C   0  0  1  0  0  0  0  0  0  0  0  0
   10.0834  -19.6845   20.2401 C   0  0  0  0  0  0  0  0  0  0  0  0
    9.4990  -20.6428   19.2633 C   0  0  0  0  0  0  0  0  0  0  0  0
    8.1656  -21.0564   19.2072 C   0  0  0  0  0  0  0  0  0  0  0  0
    8.0163  -21.9160   18.2034 N   0  0  0  0  0  0  0  0  0  0  0  0
    9.2233  -22.0749   17.6001 C   0  0  0  0  0  0  0  0  0  0  0  0
   10.0984  -21.2967   18.2585 N   0  0  0  0  0  0  0  0  0  0  0  0
    9.7090  -17.3392   20.9496 C   0  0  0  0  0  0  0  0  0  0  0  0
   10.7946  -16.7819   21.2986 O   0  0  0  0  0  0  0  0  0  0  0  0
    6.8815  -12.0234   27.4164 O   0  0  0  0  0  0  0  0  0  0  0  0
    6.9777  -12.8482   26.3059 C   0  0  0  0  0  0  0  0  0  0  0  0
    7.6321  -12.4025   25.1767 C   0  0  0  0  0  0  0  0  0  0  0  0
    7.7309  -13.2186   24.0689 C   0  0  0  0  0  0  0  0  0  0  0  0
    7.1545  -14.4951   24.1253 C   0  0  0  0  0  0  0  0  0  0  0  0
    7.2278  -15.3847   22.9500 C   0  0  0  0  0  0  0  0  0  0  0  0
    8.5668  -16.0121   22.7590 C   0  0  2  0  0  0  0  0  0  0  0  0
    8.5629  -16.9976   21.6898 N   0  0  0  0  0  0  0  0  0  0  0  0
    9.1192  -16.5679   24.0022 C   0  0  0  0  0  0  0  0  0  0  0  0
    8.6059  -17.5323   24.6117 O   0  0  0  0  0  0  0  0  0  0  0  0
    6.5032  -14.9281   25.2601 C   0  0  0  0  0  0  0  0  0  0  0  0
    6.4037  -14.1101   26.3719 C   0  0  0  0  0  0  0  0  0  0  0  0
    9.5598  -12.9441   29.1410 C   0  0  0  0  0  0  0  0  0  0  0  0
   10.9385  -14.0800   29.2897 S   0  0  0  0  0  0  0  0  0  0  0  0
   10.7226  -15.5800   28.3091 C   0  0  0  0  0  0  0  0  0  0  0  0
   10.4462  -15.2985   26.8713 C   0  0  0  0  0  0  0  0  0  0  0  0
   10.7272  -16.4584   25.9421 C   0  0  2  0  0  0  0  0  0  0  0  0
   10.3112  -16.0250   24.6082 N   0  0  0  0  0  0  0  0  0  0  0  0
   10.0390  -17.6931   26.2939 C   0  0  0  0  0  0  0  0  0  0  0  0
    8.8510  -17.8873   25.9475 O   0  0  0  0  0  0  0  0  0  0  0  0
   10.6772  -18.6812   27.0170 O   0  0  0  0  0  0  0  0  0  0  0  0
  2  1  1  6
  3  2  1  0
  3  4  1  0
  4  8  1  0
  4  5  2  0
  5  6  1  0
  7  6  1  0
  8  7  2  0
  9 18  1  0
  9  2  1  0
 10  9  2  0
 11 12  1  0
 12 13  2  0
 13 14  1  0
 15 16  1  0
 15 14  2  0
 17 16  1  1
 17 18  1  0
 19 17  1  0
 20 19  2  0
 21 15  1  0
 22 21  2  0
 22 12  1  0
 23 24  1  0
 24 25  1  0
 27 26  1  1
 26 25  1  0
 27 28  1  0
 28 19  1  0
 29 31  1  0
 29 27  1  0
 30 29  2  0
M  END
$$$$
