HYM.pdb
     RDKit          3D

 31 32  0  0  1  0  0  0  0  0999 V2000
    8.7975  -16.6948   18.8059 N   0  0  0  0  0  0  0  0  0  0  0  0
    8.6050  -15.5875   19.7564 C   0  0  1  0  0  0  0  0  0  0  0  0
    7.3349  -14.8958   19.3059 C   0  0  0  0  0  0  0  0  0  0  0  0
    7.6178  -14.2744   17.9840 C   0  0  0  0  0  0  0  0  0  0  0  0
    8.2393  -13.0422   17.7655 C   0  0  0  0  0  0  0  0  0  0  0  0
    8.3202  -12.8192   16.4568 N   0  0  0  0  0  0  0  0  0  0  0  0
    7.7650  -13.8788   15.8125 C   0  0  0  0  0  0  0  0  0  0  0  0
    7.3500  -14.7405   16.7561 N   0  0  0  0  0  0  0  0  0  0  0  0
    8.4610  -16.1848   21.0988 C   0  0  0  0  0  0  0  0  0  0  0  0
    7.3292  -16.3746   21.6410 O   0  0  0  0  0  0  0  0  0  0  0  0
    7.5481  -22.3579   19.8379 O   0  0  0  0  0  0  0  0  0  0  0  0
    8.2011  -21.4236   20.6276 C   0  0  0  0  0  0  0  0  0  0  0  0
    9.2698  -20.7197   20.1133 C   0  0  0  0  0  0  0  0  0  0  0  0
    9.9233  -19.7890   20.8942 C   0  0  0  0  0  0  0  0  0  0  0  0
    9.4747  -19.5841   22.2063 C   0  0  0  0  0  0  0  0  0  0  0  0
   10.1646  -18.6083   23.0723 C   0  0  0  0  0  0  0  0  0  0  0  0
    9.4991  -17.2749   23.1172 C   0  0  2  0  0  0  0  0  0  0  0  0
    9.5871  -16.5752   21.8456 N   0  0  0  0  0  0  0  0  0  0  0  0
    9.9737  -16.4371   24.2274 C   0  0  0  0  0  0  0  0  0  0  0  0
   11.1006  -15.8942   24.2457 O   0  0  0  0  0  0  0  0  0  0  0  0
    8.4055  -20.2944   22.7080 C   0  0  0  0  0  0  0  0  0  0  0  0
    7.7494  -21.2281   21.9252 C   0  0  0  0  0  0  0  0  0  0  0  0
    6.3099  -11.1237   26.1675 C   0  0  0  0  0  0  0  0  0  0  0  0
    6.7539  -12.6025   27.0782 S   0  0  0  0  0  0  0  0  0  0  0  0
    8.1730  -13.4646   26.3704 C   0  0  0  0  0  0  0  0  0  0  0  0
    8.5515  -14.6860   27.1371 C   0  0  0  0  0  0  0  0  0  0  0  0
    9.7001  -15.4680   26.5397 C   0  0  2  0  0  0  0  0  0  0  0  0
    9.1529  -16.1838   25.3871 N   0  0  0  0  0  0  0  0  0  0  0  0
   10.3252  -16.4143   27.4538 C   0  0  0  0  0  0  0  0  0  0  0  0
    9.9225  -17.5983   27.5270 O   0  0  0  0  0  0  0  0  0  0  0  0
   11.3771  -16.0323   28.2625 O   0  0  0  0  0  0  0  0  0  0  0  0
  2  1  1  6
  3  2  1  0
  3  4  1  0
  4  8  1  0
  4  5  2  0
  5  6  1  0
  7  6  1  0
  8  7  2  0
  9 18  1  0
  9  2  1  0
 10  9  2  0
 11 12  1  0
 12 13  2  0
 13 14  1  0
 15 16  1  0
 15 14  2  0
 17 16  1  6
 17 18  1  0
 19 17  1  0
 20 19  2  0
 21 15  1  0
 22 21  2  0
 22 12  1  0
 23 24  1  0
 24 25  1  0
 27 26  1  1
 26 25  1  0
 27 28  1  0
 28 19  1  0
 29 31  1  0
 29 27  1  0
 30 29  2  0
M  END
$$$$
