HYM.pdb
     RDKit          3D

 31 32  0  0  1  0  0  0  0  0999 V2000
   10.8119  -17.9830   18.7731 N   0  0  0  0  0  0  0  0  0  0  0  0
    9.7820  -18.4104   19.7340 C   0  0  1  0  0  0  0  0  0  0  0  0
   10.2056  -19.7954   20.1777 C   0  0  0  0  0  0  0  0  0  0  0  0
    9.5253  -20.7709   19.2835 C   0  0  0  0  0  0  0  0  0  0  0  0
    8.5171  -21.6657   19.6508 C   0  0  0  0  0  0  0  0  0  0  0  0
    8.1541  -22.3764   18.5868 N   0  0  0  0  0  0  0  0  0  0  0  0
    8.9029  -21.9667   17.5296 C   0  0  0  0  0  0  0  0  0  0  0  0
    9.7204  -20.9990   17.9772 N   0  0  0  0  0  0  0  0  0  0  0  0
    9.7993  -17.4446   20.8505 C   0  0  0  0  0  0  0  0  0  0  0  0
   10.8637  -16.8717   21.2377 O   0  0  0  0  0  0  0  0  0  0  0  0
    6.7586  -11.8299   26.9015 O   0  0  0  0  0  0  0  0  0  0  0  0
    6.8537  -12.7494   25.8679 C   0  0  0  0  0  0  0  0  0  0  0  0
    6.3355  -14.0172   26.0294 C   0  0  0  0  0  0  0  0  0  0  0  0
    6.4272  -14.9361   25.0046 C   0  0  0  0  0  0  0  0  0  0  0  0
    7.0536  -14.5476   23.8124 C   0  0  0  0  0  0  0  0  0  0  0  0
    7.1833  -15.5138   22.7043 C   0  0  0  0  0  0  0  0  0  0  0  0
    8.5572  -16.0742   22.5589 C   0  0  2  0  0  0  0  0  0  0  0  0
    8.6211  -17.1125   21.5429 N   0  0  0  0  0  0  0  0  0  0  0  0
    9.1247  -16.5327   23.8346 C   0  0  0  0  0  0  0  0  0  0  0  0
    8.5192  -17.2927   24.6225 O   0  0  0  0  0  0  0  0  0  0  0  0
    7.5674  -13.2773   23.6641 C   0  0  0  0  0  0  0  0  0  0  0  0
    7.4757  -12.3549   24.6916 C   0  0  0  0  0  0  0  0  0  0  0  0
    9.9877  -12.4373   28.1761 C   0  0  0  0  0  0  0  0  0  0  0  0
    9.3531  -13.9978   28.7886 S   0  0  0  0  0  0  0  0  0  0  0  0
   10.0432  -15.4249   27.9252 C   0  0  0  0  0  0  0  0  0  0  0  0
    9.9084  -15.3277   26.4435 C   0  0  0  0  0  0  0  0  0  0  0  0
   10.8297  -16.2450   25.6706 C   0  0  2  0  0  0  0  0  0  0  0  0
   10.4410  -16.1268   24.2652 N   0  0  0  0  0  0  0  0  0  0  0  0
   10.7722  -17.6418   26.0801 C   0  0  0  0  0  0  0  0  0  0  0  0
    9.6754  -18.2403   26.1693 O   0  0  0  0  0  0  0  0  0  0  0  0
   11.9236  -18.3425   26.3796 O   0  0  0  0  0  0  0  0  0  0  0  0
  2  1  1  6
  3  2  1  0
  3  4  1  0
  4  8  1  0
  4  5  2  0
  5  6  1  0
  7  6  1  0
  8  7  2  0
  9 18  1  0
  9  2  1  0
 10  9  2  0
 11 12  1  0
 12 13  2  0
 13 14  1  0
 15 16  1  0
 15 14  2  0
 17 16  1  1
 17 18  1  0
 19 17  1  0
 20 19  2  0
 21 15  1  0
 22 21  2  0
 22 12  1  0
 23 24  1  0
 24 25  1  0
 27 26  1  1
 26 25  1  0
 27 28  1  0
 28 19  1  0
 29 31  1  0
 29 27  1  0
 30 29  2  0
M  END
$$$$
