HYM.pdb
     RDKit          3D

 31 32  0  0  1  0  0  0  0  0999 V2000
   11.7041  -17.6767   18.9598 N   0  0  0  0  0  0  0  0  0  0  0  0
   10.6824  -18.0929   19.9343 C   0  0  1  0  0  0  0  0  0  0  0  0
   11.2973  -19.2606   20.6777 C   0  0  0  0  0  0  0  0  0  0  0  0
   11.2134  -20.4456   19.7819 C   0  0  0  0  0  0  0  0  0  0  0  0
   10.7195  -20.4608   18.4750 C   0  0  0  0  0  0  0  0  0  0  0  0
   10.8034  -21.6965   17.9902 N   0  0  0  0  0  0  0  0  0  0  0  0
   11.3417  -22.4918   18.9513 C   0  0  0  0  0  0  0  0  0  0  0  0
   11.5790  -21.7129   20.0200 N   0  0  0  0  0  0  0  0  0  0  0  0
   10.4342  -16.9416   20.8247 C   0  0  0  0  0  0  0  0  0  0  0  0
   11.3422  -16.1081   21.1278 O   0  0  0  0  0  0  0  0  0  0  0  0
    8.0156  -12.6587   16.7463 O   0  0  0  0  0  0  0  0  0  0  0  0
    7.9255  -13.1922   18.0230 C   0  0  0  0  0  0  0  0  0  0  0  0
    8.3643  -12.4576   19.1046 C   0  0  0  0  0  0  0  0  0  0  0  0
    8.2773  -12.9832   20.3770 C   0  0  0  0  0  0  0  0  0  0  0  0
    7.7374  -14.2672   20.5345 C   0  0  0  0  0  0  0  0  0  0  0  0
    7.6476  -14.8641   21.8812 C   0  0  0  0  0  0  0  0  0  0  0  0
    8.8723  -15.6124   22.2852 C   0  0  2  0  0  0  0  0  0  0  0  0
    9.1635  -16.7151   21.3832 N   0  0  0  0  0  0  0  0  0  0  0  0
    8.8337  -16.0571   23.6853 C   0  0  0  0  0  0  0  0  0  0  0  0
    8.0674  -16.9547   24.1005 O   0  0  0  0  0  0  0  0  0  0  0  0
    7.3026  -14.9907   19.4450 C   0  0  0  0  0  0  0  0  0  0  0  0
    7.3895  -14.4641   18.1682 C   0  0  0  0  0  0  0  0  0  0  0  0
    7.3673  -10.8103   27.2324 C   0  0  0  0  0  0  0  0  0  0  0  0
    6.3973  -12.2658   26.8400 S   0  0  0  0  0  0  0  0  0  0  0  0
    7.3168  -13.8035   27.0587 C   0  0  0  0  0  0  0  0  0  0  0  0
    7.9673  -14.2745   25.8025 C   0  0  0  0  0  0  0  0  0  0  0  0
    9.1743  -15.1601   26.0177 C   0  0  2  0  0  0  0  0  0  0  0  0
    9.6942  -15.4748   24.6869 N   0  0  0  0  0  0  0  0  0  0  0  0
    8.8957  -16.3939   26.7403 C   0  0  0  0  0  0  0  0  0  0  0  0
    8.2048  -17.3005   26.2207 O   0  0  0  0  0  0  0  0  0  0  0  0
    9.3856  -16.5970   28.0151 O   0  0  0  0  0  0  0  0  0  0  0  0
  2  1  1  6
  3  2  1  0
  3  4  1  0
  4  8  1  0
  4  5  2  0
  5  6  1  0
  7  6  1  0
  8  7  2  0
  9 18  1  0
  9  2  1  0
 10  9  2  0
 11 12  1  0
 12 13  2  0
 13 14  1  0
 15 16  1  0
 15 14  2  0
 17 16  1  6
 17 18  1  0
 19 17  1  0
 20 19  2  0
 21 15  1  0
 22 21  2  0
 22 12  1  0
 23 24  1  0
 24 25  1  0
 27 26  1  6
 26 25  1  0
 27 28  1  0
 28 19  1  0
 29 31  1  0
 29 27  1  0
 30 29  2  0
M  END
$$$$
