HYM.pdb
     RDKit          3D

 31 32  0  0  1  0  0  0  0  0999 V2000
   10.5849  -17.0261   19.7871 N   0  0  0  0  0  0  0  0  0  0  0  0
    9.4873  -17.4314   20.6802 C   0  0  1  0  0  0  0  0  0  0  0  0
    9.7758  -18.8765   21.0309 C   0  0  0  0  0  0  0  0  0  0  0  0
    9.4230  -19.6967   19.8407 C   0  0  0  0  0  0  0  0  0  0  0  0
    8.5774  -19.3164   18.7955 C   0  0  0  0  0  0  0  0  0  0  0  0
    8.5018  -20.3072   17.9115 N   0  0  0  0  0  0  0  0  0  0  0  0
    9.2797  -21.3292   18.3548 C   0  0  0  0  0  0  0  0  0  0  0  0
    9.8228  -20.9349   19.5187 N   0  0  0  0  0  0  0  0  0  0  0  0
    9.5436  -16.5544   21.8665 C   0  0  0  0  0  0  0  0  0  0  0  0
   10.6130  -16.3681   22.5244 O   0  0  0  0  0  0  0  0  0  0  0  0
    6.9305  -11.3458   28.4457 O   0  0  0  0  0  0  0  0  0  0  0  0
    6.9723  -12.0765   27.2679 C   0  0  0  0  0  0  0  0  0  0  0  0
    6.2493  -13.2461   27.1618 C   0  0  0  0  0  0  0  0  0  0  0  0
    6.2870  -13.9772   25.9925 C   0  0  0  0  0  0  0  0  0  0  0  0
    7.0708  -13.5021   24.9320 C   0  0  0  0  0  0  0  0  0  0  0  0
    7.1459  -14.2712   23.6746 C   0  0  0  0  0  0  0  0  0  0  0  0
    8.3587  -15.1326   23.5735 C   0  0  2  0  0  0  0  0  0  0  0  0
    8.3993  -15.8778   22.3256 N   0  0  0  0  0  0  0  0  0  0  0  0
    8.5294  -16.0166   24.7350 C   0  0  0  0  0  0  0  0  0  0  0  0
    7.7960  -17.0048   24.9603 O   0  0  0  0  0  0  0  0  0  0  0  0
    7.7886  -12.3316   25.0513 C   0  0  0  0  0  0  0  0  0  0  0  0
    7.7512  -11.5976   26.2239 C   0  0  0  0  0  0  0  0  0  0  0  0
    9.4364  -21.5607   24.3836 C   0  0  0  0  0  0  0  0  0  0  0  0
   10.4558  -20.3774   25.2632 S   0  0  0  0  0  0  0  0  0  0  0  0
    9.5454  -18.9023   25.7667 C   0  0  0  0  0  0  0  0  0  0  0  0
   10.4047  -17.8967   26.4548 C   0  0  0  0  0  0  0  0  0  0  0  0
    9.6753  -16.6458   26.8918 C   0  0  2  0  0  0  0  0  0  0  0  0
    9.5740  -15.7952   25.7058 N   0  0  0  0  0  0  0  0  0  0  0  0
   10.3279  -15.9122   27.9678 C   0  0  0  0  0  0  0  0  0  0  0  0
   10.1290  -16.2177   29.1663 O   0  0  0  0  0  0  0  0  0  0  0  0
   11.1825  -14.8624   27.6958 O   0  0  0  0  0  0  0  0  0  0  0  0
  2  1  1  6
  3  2  1  0
  3  4  1  0
  4  8  1  0
  4  5  2  0
  5  6  1  0
  7  6  1  0
  8  7  2  0
  9 18  1  0
  9  2  1  0
 10  9  2  0
 11 12  1  0
 12 13  2  0
 13 14  1  0
 15 16  1  0
 15 14  2  0
 17 16  1  1
 17 18  1  0
 19 17  1  0
 20 19  2  0
 21 15  1  0
 22 21  2  0
 22 12  1  0
 23 24  1  0
 24 25  1  0
 27 26  1  6
 26 25  1  0
 27 28  1  0
 28 19  1  0
 29 31  1  0
 29 27  1  0
 30 29  2  0
M  END
$$$$
