AMS.pdb
     RDKit          3D

 20 19  0  0  1  0  0  0  0  0999 V2000
    7.0304  -15.2062   19.5868 C   0  0  0  0  0  0  0  0  0  0  0  0
    7.3235  -13.8322   20.1935 C   0  0  2  0  0  0  0  0  0  0  0  0
    8.1161  -13.0349   19.2776 N   0  0  0  0  0  0  0  0  0  0  0  0
    8.0560  -13.9700   21.4736 C   0  0  0  0  0  0  0  0  0  0  0  0
    9.3023  -14.1190   21.4871 O   0  0  0  0  0  0  0  0  0  0  0  0
    6.4076  -11.1468   27.1478 C   0  0  0  0  0  0  0  0  0  0  0  0
    6.8588  -12.8253   27.6796 S   0  0  0  0  0  0  0  0  0  0  0  0
    7.8333  -13.6135   26.3878 C   0  0  0  0  0  0  0  0  0  0  0  0
    7.1651  -13.4272   25.0542 C   0  0  0  0  0  0  0  0  0  0  0  0
    8.0370  -14.0096   23.9766 C   0  0  2  0  0  0  0  0  0  0  0  0
    7.3627  -13.9357   22.6981 N   0  0  0  0  0  0  0  0  0  0  0  0
    8.3608  -15.4393   24.3053 C   0  0  0  0  0  0  0  0  0  0  0  0
    7.4707  -16.3198   24.1779 O   0  0  0  0  0  0  0  0  0  0  0  0
   12.0739  -16.9650   24.1341 O   0  0  0  0  0  0  0  0  0  0  0  0
   10.9480  -17.8157   24.1608 C   0  0  0  0  0  0  0  0  0  0  0  0
    9.8861  -17.2158   25.0614 C   0  0  2  0  0  0  0  0  0  0  0  0
    9.6276  -15.8391   24.7535 N   0  0  0  0  0  0  0  0  0  0  0  0
   10.3309  -17.3997   26.4622 C   0  0  0  0  0  0  0  0  0  0  0  0
   10.5585  -18.7243   26.8754 O   0  0  0  0  0  0  0  0  0  0  0  0
   10.5071  -16.4732   27.2642 O   0  0  0  0  0  0  0  0  0  0  0  0
  2  3  1  0
  2  1  1  6
  4 11  1  0
  4  2  1  0
  5  4  2  0
  7  8  1  0
  7  6  1  0
  8  9  1  0
 10  9  1  1
 10 11  1  0
 10 12  1  0
 12 17  1  0
 13 12  2  0
 15 14  1  0
 16 15  1  6
 16 18  1  0
 17 16  1  0
 18 19  1  0
 20 18  2  0
M  END
$$$$
