AMS.pdb
     RDKit          3D

 20 19  0  0  1  0  0  0  0  0999 V2000
    5.8741  -19.8639   23.3294 C   0  0  0  0  0  0  0  0  0  0  0  0
    5.2650  -18.4697   23.4933 C   0  0  2  0  0  0  0  0  0  0  0  0
    4.2732  -18.2282   22.4635 N   0  0  0  0  0  0  0  0  0  0  0  0
    6.3134  -17.4266   23.4095 C   0  0  0  0  0  0  0  0  0  0  0  0
    6.7918  -17.0850   22.3004 O   0  0  0  0  0  0  0  0  0  0  0  0
    5.5502  -11.3286   26.5479 C   0  0  0  0  0  0  0  0  0  0  0  0
    6.6840  -12.7002   26.9181 S   0  0  0  0  0  0  0  0  0  0  0  0
    6.7934  -13.7814   25.4833 C   0  0  0  0  0  0  0  0  0  0  0  0
    7.7335  -14.9192   25.7679 C   0  0  0  0  0  0  0  0  0  0  0  0
    7.8327  -15.7972   24.5512 C   0  0  2  0  0  0  0  0  0  0  0  0
    6.7903  -16.8008   24.5767 N   0  0  0  0  0  0  0  0  0  0  0  0
    9.1816  -16.4574   24.5124 C   0  0  0  0  0  0  0  0  0  0  0  0
    9.3946  -17.4708   25.2275 O   0  0  0  0  0  0  0  0  0  0  0  0
   11.5593  -16.1045   21.3015 O   0  0  0  0  0  0  0  0  0  0  0  0
   12.3327  -16.2229   22.4762 C   0  0  0  0  0  0  0  0  0  0  0  0
   11.4548  -16.7198   23.6080 C   0  0  2  0  0  0  0  0  0  0  0  0
   10.2257  -15.9869   23.7037 N   0  0  0  0  0  0  0  0  0  0  0  0
   12.2479  -16.6434   24.8566 C   0  0  0  0  0  0  0  0  0  0  0  0
   13.4634  -17.3502   24.8675 O   0  0  0  0  0  0  0  0  0  0  0  0
   11.9048  -16.0072   25.8617 O   0  0  0  0  0  0  0  0  0  0  0  0
  2  3  1  0
  2  1  1  6
  4 11  1  0
  4  2  1  0
  5  4  2  0
  7  8  1  0
  7  6  1  0
  8  9  1  0
 10  9  1  1
 10 11  1  0
 10 12  1  0
 12 17  1  0
 13 12  2  0
 15 14  1  0
 16 15  1  6
 16 18  1  0
 17 16  1  0
 18 19  1  0
 20 18  2  0
M  END
$$$$
