AMS.pdb
     RDKit          3D

 20 19  0  0  1  0  0  0  0  0999 V2000
    7.9143  -14.8191   19.2897 C   0  0  0  0  0  0  0  0  0  0  0  0
    7.9937  -15.8774   20.3922 C   0  0  2  0  0  0  0  0  0  0  0  0
    6.6850  -16.4530   20.6342 N   0  0  0  0  0  0  0  0  0  0  0  0
    8.5023  -15.2854   21.6512 C   0  0  0  0  0  0  0  0  0  0  0  0
    9.6782  -14.8531   21.7281 O   0  0  0  0  0  0  0  0  0  0  0  0
    6.9076  -10.7570   26.6434 C   0  0  0  0  0  0  0  0  0  0  0  0
    6.3948  -12.4761   26.9359 S   0  0  0  0  0  0  0  0  0  0  0  0
    7.5738  -13.5871   26.1514 C   0  0  0  0  0  0  0  0  0  0  0  0
    7.0767  -13.9856   24.7899 C   0  0  0  0  0  0  0  0  0  0  0  0
    8.1551  -14.7482   24.0715 C   0  0  2  0  0  0  0  0  0  0  0  0
    7.6713  -15.1987   22.7840 N   0  0  0  0  0  0  0  0  0  0  0  0
    8.5809  -15.9257   24.9016 C   0  0  0  0  0  0  0  0  0  0  0  0
    7.7346  -16.8060   25.2058 O   0  0  0  0  0  0  0  0  0  0  0  0
   12.5783  -16.8388   25.3449 O   0  0  0  0  0  0  0  0  0  0  0  0
   11.5960  -17.8517   25.3108 C   0  0  0  0  0  0  0  0  0  0  0  0
   10.3159  -17.3316   25.9348 C   0  0  2  0  0  0  0  0  0  0  0  0
    9.8968  -16.0874   25.3574 N   0  0  0  0  0  0  0  0  0  0  0  0
   10.5422  -17.2204   27.3944 C   0  0  0  0  0  0  0  0  0  0  0  0
   10.9193  -18.4009   28.0587 O   0  0  0  0  0  0  0  0  0  0  0  0
   10.4197  -16.1713   28.0402 O   0  0  0  0  0  0  0  0  0  0  0  0
  2  3  1  0
  2  1  1  6
  4 11  1  0
  4  2  1  0
  5  4  2  0
  7  8  1  0
  7  6  1  0
  8  9  1  0
 10  9  1  1
 10 11  1  0
 10 12  1  0
 12 17  1  0
 13 12  2  0
 15 14  1  0
 16 15  1  6
 16 18  1  0
 17 16  1  0
 18 19  1  0
 20 18  2  0
M  END
$$$$
