AMS.pdb
     RDKit          3D

 20 19  0  0  1  0  0  0  0  0999 V2000
    8.9136  -19.3683   21.8986 C   0  0  0  0  0  0  0  0  0  0  0  0
    8.3089  -18.0191   21.5037 C   0  0  2  0  0  0  0  0  0  0  0  0
    8.6731  -17.6824   20.1412 N   0  0  0  0  0  0  0  0  0  0  0  0
    8.7822  -16.9473   22.4100 C   0  0  0  0  0  0  0  0  0  0  0  0
    9.9375  -16.4709   22.2924 O   0  0  0  0  0  0  0  0  0  0  0  0
    6.8262  -11.2429   27.4027 C   0  0  0  0  0  0  0  0  0  0  0  0
    6.2330  -12.5820   26.3262 S   0  0  0  0  0  0  0  0  0  0  0  0
    7.6342  -13.5798   25.7961 C   0  0  0  0  0  0  0  0  0  0  0  0
    7.1718  -14.6541   24.8517 C   0  0  0  0  0  0  0  0  0  0  0  0
    8.3643  -15.4191   24.3482 C   0  0  2  0  0  0  0  0  0  0  0  0
    7.9402  -16.4455   23.4202 N   0  0  0  0  0  0  0  0  0  0  0  0
    9.0919  -16.0412   25.5060 C   0  0  0  0  0  0  0  0  0  0  0  0
    8.6033  -17.0541   26.0709 O   0  0  0  0  0  0  0  0  0  0  0  0
   12.8712  -15.9804   25.4477 O   0  0  0  0  0  0  0  0  0  0  0  0
   12.5497  -16.0667   26.8192 C   0  0  0  0  0  0  0  0  0  0  0  0
   11.0543  -16.2632   26.9736 C   0  0  2  0  0  0  0  0  0  0  0  0
   10.3067  -15.5353   25.9896 N   0  0  0  0  0  0  0  0  0  0  0  0
   10.6910  -15.8685   28.3542 C   0  0  0  0  0  0  0  0  0  0  0  0
   11.3774  -16.5242   29.3914 O   0  0  0  0  0  0  0  0  0  0  0  0
    9.8382  -15.0153   28.6328 O   0  0  0  0  0  0  0  0  0  0  0  0
  2  3  1  0
  2  1  1  1
  4 11  1  0
  4  2  1  0
  5  4  2  0
  7  8  1  0
  7  6  1  0
  8  9  1  0
 10  9  1  1
 10 11  1  0
 10 12  1  0
 12 17  1  0
 13 12  2  0
 15 14  1  0
 16 15  1  6
 16 18  1  0
 17 16  1  0
 18 19  1  0
 20 18  2  0
M  END
$$$$
