AMS.pdb
     RDKit          3D

 20 19  0  0  1  0  0  0  0  0999 V2000
    7.7510  -17.8884   20.1480 C   0  0  0  0  0  0  0  0  0  0  0  0
    8.0295  -16.3864   20.0581 C   0  0  2  0  0  0  0  0  0  0  0  0
    8.9670  -16.1103   18.9869 N   0  0  0  0  0  0  0  0  0  0  0  0
    8.5886  -15.8798   21.3329 C   0  0  0  0  0  0  0  0  0  0  0  0
    9.8296  -15.8258   21.5130 O   0  0  0  0  0  0  0  0  0  0  0  0
    7.1010  -11.7043   27.8188 C   0  0  0  0  0  0  0  0  0  0  0  0
    6.3982  -12.5128   26.3504 S   0  0  0  0  0  0  0  0  0  0  0  0
    7.6780  -13.4861   25.5412 C   0  0  0  0  0  0  0  0  0  0  0  0
    7.1359  -14.1013   24.2814 C   0  0  0  0  0  0  0  0  0  0  0  0
    8.2282  -14.8763   23.5979 C   0  0  2  0  0  0  0  0  0  0  0  0
    7.7332  -15.4501   22.3649 N   0  0  0  0  0  0  0  0  0  0  0  0
    8.7232  -15.9636   24.5088 C   0  0  0  0  0  0  0  0  0  0  0  0
    7.9814  -16.9503   24.7538 O   0  0  0  0  0  0  0  0  0  0  0  0
   12.1097  -17.5392   24.2283 O   0  0  0  0  0  0  0  0  0  0  0  0
   11.9195  -17.3487   25.6138 C   0  0  0  0  0  0  0  0  0  0  0  0
   10.4607  -17.0353   25.8824 C   0  0  2  0  0  0  0  0  0  0  0  0
    9.9916  -15.9252   25.1047 N   0  0  0  0  0  0  0  0  0  0  0  0
   10.3141  -16.7981   27.3371 C   0  0  0  0  0  0  0  0  0  0  0  0
   10.7918  -17.8125   28.1856 O   0  0  0  0  0  0  0  0  0  0  0  0
    9.8070  -15.7816   27.8294 O   0  0  0  0  0  0  0  0  0  0  0  0
  2  3  1  0
  2  1  1  1
  4 11  1  0
  4  2  1  0
  5  4  2  0
  7  8  1  0
  7  6  1  0
  8  9  1  0
 10  9  1  1
 10 11  1  0
 10 12  1  0
 12 17  1  0
 13 12  2  0
 15 14  1  0
 16 15  1  1
 16 18  1  0
 17 16  1  0
 18 19  1  0
 20 18  2  0
M  END
$$$$
