AMS.pdb
     RDKit          3D

 20 19  0  0  1  0  0  0  0  0999 V2000
    7.4662  -17.9268   19.8104 C   0  0  0  0  0  0  0  0  0  0  0  0
    7.6291  -16.4053   19.7924 C   0  0  2  0  0  0  0  0  0  0  0  0
    8.4062  -15.9947   18.6392 N   0  0  0  0  0  0  0  0  0  0  0  0
    8.3057  -15.9362   21.0239 C   0  0  0  0  0  0  0  0  0  0  0  0
    9.5569  -15.9651   21.1195 O   0  0  0  0  0  0  0  0  0  0  0  0
    7.5080  -11.9450   27.7568 C   0  0  0  0  0  0  0  0  0  0  0  0
    6.6640  -12.6344   26.3020 S   0  0  0  0  0  0  0  0  0  0  0  0
    7.8274  -13.6359   25.3623 C   0  0  0  0  0  0  0  0  0  0  0  0
    7.1877  -14.1038   24.0850 C   0  0  0  0  0  0  0  0  0  0  0  0
    8.1666  -14.9521   23.3215 C   0  0  2  0  0  0  0  0  0  0  0  0
    7.5526  -15.4493   22.1088 N   0  0  0  0  0  0  0  0  0  0  0  0
    8.6165  -16.1010   24.1785 C   0  0  0  0  0  0  0  0  0  0  0  0
    7.8465  -17.0812   24.3525 O   0  0  0  0  0  0  0  0  0  0  0  0
   11.6370  -17.8968   23.6444 O   0  0  0  0  0  0  0  0  0  0  0  0
   11.6418  -17.8038   25.0528 C   0  0  0  0  0  0  0  0  0  0  0  0
   10.2968  -17.2894   25.5270 C   0  0  2  0  0  0  0  0  0  0  0  0
    9.8727  -16.1279   24.8003 N   0  0  0  0  0  0  0  0  0  0  0  0
   10.4045  -17.0286   26.9811 C   0  0  0  0  0  0  0  0  0  0  0  0
   10.8524  -18.0990   27.7751 O   0  0  0  0  0  0  0  0  0  0  0  0
   10.1281  -15.9473   27.5169 O   0  0  0  0  0  0  0  0  0  0  0  0
  2  3  1  0
  2  1  1  1
  4 11  1  0
  4  2  1  0
  5  4  2  0
  7  8  1  0
  7  6  1  0
  8  9  1  0
 10  9  1  1
 10 11  1  0
 10 12  1  0
 12 17  1  0
 13 12  2  0
 15 14  1  0
 16 15  1  6
 16 18  1  0
 17 16  1  0
 18 19  1  0
 20 18  2  0
M  END
$$$$
