AMS.pdb
     RDKit          3D

 20 19  0  0  1  0  0  0  0  0999 V2000
    6.7969  -18.7233   20.6241 C   0  0  0  0  0  0  0  0  0  0  0  0
    6.6715  -17.2070   20.4605 C   0  0  2  0  0  0  0  0  0  0  0  0
    7.0704  -16.8090   19.1245 N   0  0  0  0  0  0  0  0  0  0  0  0
    7.5195  -16.5014   21.4491 C   0  0  0  0  0  0  0  0  0  0  0  0
    8.7444  -16.3281   21.2364 O   0  0  0  0  0  0  0  0  0  0  0  0
    7.6413  -11.6788   27.6396 C   0  0  0  0  0  0  0  0  0  0  0  0
    6.6094  -12.6504   26.5016 S   0  0  0  0  0  0  0  0  0  0  0  0
    7.6682  -13.6957   25.4887 C   0  0  0  0  0  0  0  0  0  0  0  0
    6.8447  -14.4147   24.4570 C   0  0  0  0  0  0  0  0  0  0  0  0
    7.7417  -15.2944   23.6310 C   0  0  2  0  0  0  0  0  0  0  0  0
    6.9622  -16.0131   22.6459 N   0  0  0  0  0  0  0  0  0  0  0  0
    8.4614  -16.2641   24.5245 C   0  0  0  0  0  0  0  0  0  0  0  0
    7.8004  -17.1227   25.1647 O   0  0  0  0  0  0  0  0  0  0  0  0
   12.6142  -16.3135   24.8335 O   0  0  0  0  0  0  0  0  0  0  0  0
   11.9265  -17.5450   24.8820 C   0  0  0  0  0  0  0  0  0  0  0  0
   10.5148  -17.3129   25.3836 C   0  0  2  0  0  0  0  0  0  0  0  0
    9.8550  -16.2532   24.6775 N   0  0  0  0  0  0  0  0  0  0  0  0
   10.5946  -17.0480   26.8387 C   0  0  0  0  0  0  0  0  0  0  0  0
   11.1583  -18.0659   27.6280 O   0  0  0  0  0  0  0  0  0  0  0  0
   10.2014  -16.0059   27.3794 O   0  0  0  0  0  0  0  0  0  0  0  0
  2  3  1  0
  2  1  1  6
  4 11  1  0
  4  2  1  0
  5  4  2  0
  7  8  1  0
  7  6  1  0
  8  9  1  0
 10  9  1  1
 10 11  1  0
 10 12  1  0
 12 17  1  0
 13 12  2  0
 15 14  1  0
 16 15  1  6
 16 18  1  0
 17 16  1  0
 18 19  1  0
 20 18  2  0
M  END
$$$$
