YVF.pdb
     RDKit          3D

 31 32  0  0  1  0  0  0  0  0999 V2000
    7.9108  -24.2102   16.6979 O   0  0  0  0  0  0  0  0  0  0  0  0
    8.2213  -23.0429   17.4220 C   0  0  0  0  0  0  0  0  0  0  0  0
    7.2390  -22.1171   17.7156 C   0  0  0  0  0  0  0  0  0  0  0  0
    7.5560  -20.9641   18.4330 C   0  0  0  0  0  0  0  0  0  0  0  0
    8.8400  -20.7300   18.8573 C   0  0  0  0  0  0  0  0  0  0  0  0
    9.2057  -19.5154   19.6197 C   0  0  0  0  0  0  0  0  0  0  0  0
    9.1988  -18.2715   18.7600 C   0  0  2  0  0  0  0  0  0  0  0  0
   10.2922  -18.3699   17.7985 N   0  0  0  0  0  0  0  0  0  0  0  0
    9.3927  -17.1042   19.6568 C   0  0  0  0  0  0  0  0  0  0  0  0
   10.5312  -16.9497   20.1640 O   0  0  0  0  0  0  0  0  0  0  0  0
    9.8109  -21.6594   18.5592 C   0  0  0  0  0  0  0  0  0  0  0  0
    9.5103  -22.8177   17.8425 C   0  0  0  0  0  0  0  0  0  0  0  0
    7.6986  -13.4991   19.2628 C   0  0  0  0  0  0  0  0  0  0  0  0
    7.5573  -13.9769   20.6771 C   0  0  2  0  0  0  0  0  0  0  0  0
    7.8715  -12.8300   21.6137 C   0  0  0  0  0  0  0  0  0  0  0  0
    8.4493  -15.1779   20.9756 C   0  0  2  0  0  0  0  0  0  0  0  0
    8.3558  -16.1783   19.9525 N   0  0  0  0  0  0  0  0  0  0  0  0
    8.2655  -15.6866   22.3342 C   0  0  0  0  0  0  0  0  0  0  0  0
    7.2541  -16.3809   22.6943 O   0  0  0  0  0  0  0  0  0  0  0  0
    9.2128  -15.4420   23.3671 N   0  0  0  0  0  0  0  0  0  0  0  0
    8.8183  -14.9336   24.6689 C   0  0  1  0  0  0  0  0  0  0  0  0
    8.1945  -13.5572   24.3946 C   0  0  0  0  0  0  0  0  0  0  0  0
    7.6511  -12.9722   25.6368 C   0  0  0  0  0  0  0  0  0  0  0  0
    8.4808  -12.4398   26.6087 C   0  0  0  0  0  0  0  0  0  0  0  0
    7.9700  -11.8920   27.7732 C   0  0  0  0  0  0  0  0  0  0  0  0
    6.6035  -11.9003   27.9212 C   0  0  0  0  0  0  0  0  0  0  0  0
    5.7614  -12.4336   26.9488 C   0  0  0  0  0  0  0  0  0  0  0  0
    6.2806  -12.9765   25.7933 C   0  0  0  0  0  0  0  0  0  0  0  0
    7.8932  -15.8162   25.3693 C   0  0  0  0  0  0  0  0  0  0  0  0
    8.2140  -16.3662   26.5937 O   0  0  0  0  0  0  0  0  0  0  0  0
    6.7829  -16.0888   24.8614 O   0  0  0  0  0  0  0  0  0  0  0  0
  2 12  2  0
  2  1  1  0
  3  2  1  0
  4  5  1  0
  4  3  2  0
  5 11  2  0
  6  5  1  0
  7  6  1  0
  7  8  1  6
  9  7  1  0
 10  9  2  0
 11 12  1  0
 14 13  1  6
 14 16  1  0
 15 14  1  0
 16 18  1  0
 16 17  1  6
 17  9  1  0
 18 20  1  0
 19 18  2  0
 20 21  1  0
 21 29  1  0
 21 22  1  6
 23 22  1  0
 24 23  2  0
 25 24  1  0
 26 25  2  0
 26 27  1  0
 27 28  2  0
 28 23  1  0
 29 31  2  0
 29 30  1  0
M  END
$$$$
