YVF.pdb
     RDKit          3D

 31 32  0  0  1  0  0  0  0  0999 V2000
    8.9613  -12.7765   16.3251 O   0  0  0  0  0  0  0  0  0  0  0  0
    8.4741  -13.3278   17.5259 C   0  0  0  0  0  0  0  0  0  0  0  0
    9.3305  -13.9612   18.4055 C   0  0  0  0  0  0  0  0  0  0  0  0
    8.8390  -14.5043   19.5922 C   0  0  0  0  0  0  0  0  0  0  0  0
    7.5054  -14.4199   19.9053 C   0  0  0  0  0  0  0  0  0  0  0  0
    6.9555  -14.9872   21.1567 C   0  0  0  0  0  0  0  0  0  0  0  0
    6.7543  -16.4834   21.0715 C   0  0  2  0  0  0  0  0  0  0  0  0
    5.5762  -16.7440   20.2507 N   0  0  0  0  0  0  0  0  0  0  0  0
    6.5533  -16.9893   22.4528 C   0  0  0  0  0  0  0  0  0  0  0  0
    5.4800  -16.6829   23.0285 O   0  0  0  0  0  0  0  0  0  0  0  0
    6.6611  -13.7865   19.0215 C   0  0  0  0  0  0  0  0  0  0  0  0
    7.1369  -13.2381   17.8304 C   0  0  0  0  0  0  0  0  0  0  0  0
    7.2421  -19.6888   26.3867 C   0  0  0  0  0  0  0  0  0  0  0  0
    7.1975  -19.4462   24.9076 C   0  0  2  0  0  0  0  0  0  0  0  0
    8.1607  -20.3955   24.2276 C   0  0  0  0  0  0  0  0  0  0  0  0
    7.5200  -17.9995   24.5469 C   0  0  2  0  0  0  0  0  0  0  0  0
    7.5138  -17.7900   23.1283 N   0  0  0  0  0  0  0  0  0  0  0  0
    8.7203  -17.5092   25.2230 C   0  0  0  0  0  0  0  0  0  0  0  0
    9.9042  -17.8737   24.9064 O   0  0  0  0  0  0  0  0  0  0  0  0
    8.6557  -16.5779   26.2966 N   0  0  0  0  0  0  0  0  0  0  0  0
    9.8362  -16.1797   27.0425 C   0  0  1  0  0  0  0  0  0  0  0  0
   10.1573  -14.7561   26.5639 C   0  0  0  0  0  0  0  0  0  0  0  0
    8.9792  -13.8776   26.7081 C   0  0  0  0  0  0  0  0  0  0  0  0
    8.8716  -12.9783   27.7551 C   0  0  0  0  0  0  0  0  0  0  0  0
    7.7663  -12.1554   27.8894 C   0  0  0  0  0  0  0  0  0  0  0  0
    6.7813  -12.2710   26.9378 C   0  0  0  0  0  0  0  0  0  0  0  0
    6.8811  -13.1728   25.8813 C   0  0  0  0  0  0  0  0  0  0  0  0
    7.9860  -13.9872   25.7572 C   0  0  0  0  0  0  0  0  0  0  0  0
    9.6433  -16.2337   28.4865 C   0  0  0  0  0  0  0  0  0  0  0  0
   10.6878  -16.0053   29.3591 O   0  0  0  0  0  0  0  0  0  0  0  0
    8.5133  -16.4912   28.9575 O   0  0  0  0  0  0  0  0  0  0  0  0
  2 12  2  0
  2  1  1  0
  3  2  1  0
  4  5  1  0
  4  3  2  0
  5 11  2  0
  6  5  1  0
  7  6  1  0
  7  8  1  6
  9  7  1  0
 10  9  2  0
 11 12  1  0
 14 13  1  1
 14 16  1  0
 15 14  1  0
 16 18  1  0
 16 17  1  6
 17  9  1  0
 18 20  1  0
 19 18  2  0
 20 21  1  0
 21 29  1  0
 21 22  1  6
 23 22  1  0
 24 23  2  0
 25 24  1  0
 26 25  2  0
 26 27  1  0
 27 28  2  0
 28 23  1  0
 29 31  2  0
 29 30  1  0
M  END
$$$$
