YVF.pdb
     RDKit          3D

 31 32  0  0  1  0  0  0  0  0999 V2000
    7.7504  -13.5321   14.7837 O   0  0  0  0  0  0  0  0  0  0  0  0
    7.5358  -13.8471   16.1394 C   0  0  0  0  0  0  0  0  0  0  0  0
    7.9794  -12.9991   17.1356 C   0  0  0  0  0  0  0  0  0  0  0  0
    7.7624  -13.3194   18.4754 C   0  0  0  0  0  0  0  0  0  0  0  0
    7.1091  -14.4743   18.8259 C   0  0  0  0  0  0  0  0  0  0  0  0
    6.8652  -14.8402   20.2390 C   0  0  0  0  0  0  0  0  0  0  0  0
    8.0867  -15.4403   20.8979 C   0  0  2  0  0  0  0  0  0  0  0  0
    8.5507  -16.5558   20.0794 N   0  0  0  0  0  0  0  0  0  0  0  0
    7.6838  -15.9119   22.2469 C   0  0  0  0  0  0  0  0  0  0  0  0
    7.2091  -15.0594   23.0376 O   0  0  0  0  0  0  0  0  0  0  0  0
    6.6714  -15.3120   17.8250 C   0  0  0  0  0  0  0  0  0  0  0  0
    6.8805  -15.0062   16.4801 C   0  0  0  0  0  0  0  0  0  0  0  0
    5.9507  -19.4417   23.2192 C   0  0  0  0  0  0  0  0  0  0  0  0
    7.1662  -19.1741   24.0556 C   0  0  2  0  0  0  0  0  0  0  0  0
    6.8832  -19.6025   25.4796 C   0  0  0  0  0  0  0  0  0  0  0  0
    7.5933  -17.7104   24.0068 C   0  0  2  0  0  0  0  0  0  0  0  0
    7.8152  -17.2648   22.6619 N   0  0  0  0  0  0  0  0  0  0  0  0
    8.6912  -17.4175   24.9272 C   0  0  0  0  0  0  0  0  0  0  0  0
    9.8451  -17.9614   24.8412 O   0  0  0  0  0  0  0  0  0  0  0  0
    8.5518  -16.4931   25.9996 N   0  0  0  0  0  0  0  0  0  0  0  0
    9.6381  -16.2147   26.9222 C   0  0  1  0  0  0  0  0  0  0  0  0
   10.1629  -14.8273   26.5238 C   0  0  0  0  0  0  0  0  0  0  0  0
    9.0618  -13.8443   26.4801 C   0  0  0  0  0  0  0  0  0  0  0  0
    8.8435  -12.9563   27.5194 C   0  0  0  0  0  0  0  0  0  0  0  0
    7.8106  -12.0353   27.4774 C   0  0  0  0  0  0  0  0  0  0  0  0
    7.0121  -12.0419   26.3586 C   0  0  0  0  0  0  0  0  0  0  0  0
    7.2243  -12.9315   25.3084 C   0  0  0  0  0  0  0  0  0  0  0  0
    8.2557  -13.8442   25.3607 C   0  0  0  0  0  0  0  0  0  0  0  0
    9.2240  -16.2550   28.3194 C   0  0  0  0  0  0  0  0  0  0  0  0
   10.1423  -16.1432   29.3435 O   0  0  0  0  0  0  0  0  0  0  0  0
    8.0151  -16.3934   28.6099 O   0  0  0  0  0  0  0  0  0  0  0  0
  2 12  2  0
  2  1  1  0
  3  2  1  0
  4  5  1  0
  4  3  2  0
  5 11  2  0
  6  5  1  0
  7  6  1  0
  7  8  1  6
  9  7  1  0
 10  9  2  0
 11 12  1  0
 14 13  1  6
 14 16  1  0
 15 14  1  0
 16 18  1  0
 16 17  1  6
 17  9  1  0
 18 20  1  0
 19 18  2  0
 20 21  1  0
 21 29  1  0
 21 22  1  6
 23 22  1  0
 24 23  2  0
 25 24  1  0
 26 25  2  0
 26 27  1  0
 27 28  2  0
 28 23  1  0
 29 31  2  0
 29 30  1  0
M  END
$$$$
