YVF.pdb
     RDKit          3D

 31 32  0  0  1  0  0  0  0  0999 V2000
    7.5000  -11.8818   17.0506 O   0  0  0  0  0  0  0  0  0  0  0  0
    7.5057  -12.6548   18.2277 C   0  0  0  0  0  0  0  0  0  0  0  0
    6.4129  -13.4305   18.5632 C   0  0  0  0  0  0  0  0  0  0  0  0
    6.4276  -14.1926   19.7309 C   0  0  0  0  0  0  0  0  0  0  0  0
    7.5199  -14.1859   20.5618 C   0  0  0  0  0  0  0  0  0  0  0  0
    7.5634  -14.9840   21.8074 C   0  0  0  0  0  0  0  0  0  0  0  0
    8.1591  -16.3569   21.5917 C   0  0  2  0  0  0  0  0  0  0  0  0
    7.1527  -17.2012   20.9561 N   0  0  0  0  0  0  0  0  0  0  0  0
    8.5334  -16.8987   22.9224 C   0  0  0  0  0  0  0  0  0  0  0  0
    7.6320  -17.4653   23.5885 O   0  0  0  0  0  0  0  0  0  0  0  0
    8.6033  -13.4094   20.2178 C   0  0  0  0  0  0  0  0  0  0  0  0
    8.6044  -12.6414   19.0533 C   0  0  0  0  0  0  0  0  0  0  0  0
   11.1485  -19.4150   23.4881 C   0  0  0  0  0  0  0  0  0  0  0  0
   11.4335  -18.3470   24.5013 C   0  0  2  0  0  0  0  0  0  0  0  0
   11.8089  -19.0047   25.8119 C   0  0  0  0  0  0  0  0  0  0  0  0
   10.2541  -17.3982   24.6915 C   0  0  2  0  0  0  0  0  0  0  0  0
    9.8477  -16.7986   23.4539 N   0  0  0  0  0  0  0  0  0  0  0  0
   10.4729  -16.4455   25.7791 C   0  0  0  0  0  0  0  0  0  0  0  0
   11.3309  -15.4993   25.7231 O   0  0  0  0  0  0  0  0  0  0  0  0
    9.7360  -16.5042   26.9947 N   0  0  0  0  0  0  0  0  0  0  0  0
   10.0900  -15.6979   28.1493 C   0  0  1  0  0  0  0  0  0  0  0  0
    8.7985  -14.9667   28.5445 C   0  0  0  0  0  0  0  0  0  0  0  0
    8.3899  -14.0188   27.4885 C   0  0  0  0  0  0  0  0  0  0  0  0
    7.4449  -14.3605   26.5362 C   0  0  0  0  0  0  0  0  0  0  0  0
    7.0630  -13.4710   25.5464 C   0  0  0  0  0  0  0  0  0  0  0  0
    7.6632  -12.2346   25.5512 C   0  0  0  0  0  0  0  0  0  0  0  0
    8.6146  -11.8823   26.5052 C   0  0  0  0  0  0  0  0  0  0  0  0
    8.9875  -12.7756   27.4862 C   0  0  0  0  0  0  0  0  0  0  0  0
   10.6242  -16.4862   29.2531 C   0  0  0  0  0  0  0  0  0  0  0  0
   11.2781  -15.8884   30.3113 O   0  0  0  0  0  0  0  0  0  0  0  0
   10.4942  -17.7304   29.2537 O   0  0  0  0  0  0  0  0  0  0  0  0
  2 12  2  0
  2  1  1  0
  3  2  1  0
  4  5  1  0
  4  3  2  0
  5 11  2  0
  6  5  1  0
  7  6  1  0
  7  8  1  1
  9  7  1  0
 10  9  2  0
 11 12  1  0
 14 13  1  6
 14 16  1  0
 15 14  1  0
 16 18  1  0
 16 17  1  6
 17  9  1  0
 18 20  1  0
 19 18  2  0
 20 21  1  0
 21 29  1  0
 21 22  1  1
 23 22  1  0
 24 23  2  0
 25 24  1  0
 26 25  2  0
 26 27  1  0
 27 28  2  0
 28 23  1  0
 29 31  2  0
 29 30  1  0
M  END
$$$$
