NLI.pdb
     RDKit          3D

 25 24  0  0  1  0  0  0  0  0999 V2000
   25.9124  -22.0762  -10.3894 N   0  0  0  0  0  0  0  0  0  0  0  0
   24.6200  -21.5917  -10.8491 C   0  0  0  0  0  0  0  0  0  0  0  0
   23.6955  -21.5772  -10.0093 O   0  0  0  0  0  0  0  0  0  0  0  0
   24.4784  -21.1575  -12.2434 C   0  0  0  0  0  0  0  0  0  0  0  0
   23.4734  -20.0661  -12.4404 C   0  0  2  0  0  0  0  0  0  0  0  0
   22.1190  -20.7249  -12.2629 N   0  0  0  0  0  0  0  0  0  0  0  0
   23.3797  -19.5463  -13.8218 C   0  0  0  0  0  0  0  0  0  0  0  0
   24.4475  -19.2381  -14.4393 O   0  0  0  0  0  0  0  0  0  0  0  0
   19.5917  -19.1381  -18.6796 C   0  0  0  0  0  0  0  0  0  0  0  0
   20.9000  -19.1052  -17.9796 C   0  0  2  0  0  0  0  0  0  0  0  0
   21.6277  -20.4195  -18.2263 C   0  0  0  0  0  0  0  0  0  0  0  0
   20.8696  -18.7265  -16.5512 C   0  0  0  0  0  0  0  0  0  0  0  0
   22.1878  -18.6942  -15.8500 C   0  0  2  0  0  0  0  0  0  0  0  0
   22.1879  -19.3566  -14.5562 N   0  0  0  0  0  0  0  0  0  0  0  0
   22.6598  -17.2899  -15.7737 C   0  0  0  0  0  0  0  0  0  0  0  0
   22.1753  -16.5375  -14.8594 O   0  0  0  0  0  0  0  0  0  0  0  0
   27.6937  -16.1021  -15.4775 C   0  0  0  0  0  0  0  0  0  0  0  0
   26.2067  -16.0812  -15.3975 C   0  0  0  0  0  0  0  0  0  0  0  0
   25.5336  -15.2637  -16.4457 C   0  0  2  0  0  0  0  0  0  0  0  0
   26.0295  -13.8441  -16.2991 C   0  0  0  0  0  0  0  0  0  0  0  0
   24.0292  -15.3261  -16.4395 C   0  0  2  0  0  0  0  0  0  0  0  0
   23.6124  -16.7021  -16.6340 N   0  0  0  0  0  0  0  0  0  0  0  0
   23.4722  -14.5076  -17.5302 C   0  0  0  0  0  0  0  0  0  0  0  0
   23.4096  -14.9778  -18.6829 O   0  0  0  0  0  0  0  0  0  0  0  0
   23.0244  -13.2305  -17.2683 O   0  0  0  0  0  0  0  0  0  0  0  0
  1  2  1  0
  2  4  1  0
  3  2  2  0
  5  4  1  0
  5  6  1  6
  7  8  2  0
  7  5  1  0
 10  9  1  1
 10 11  1  0
 10 12  1  0
 13 12  1  1
 13 14  1  0
 14  7  1  0
 15 13  1  0
 15 22  1  0
 16 15  2  0
 17 18  1  0
 18 19  1  0
 19 21  1  0
 19 20  1  1
 21 22  1  6
 21 23  1  0
 23 24  2  0
 23 25  1  0
M  END
$$$$
