NLI.pdb
     RDKit          3D

 25 24  0  0  1  0  0  0  0  0999 V2000
   19.2883  -18.3658  -15.2193 N   0  0  0  0  0  0  0  0  0  0  0  0
   20.0126  -18.9617  -14.1071 C   0  0  0  0  0  0  0  0  0  0  0  0
   19.3596  -19.1793  -13.0649 O   0  0  0  0  0  0  0  0  0  0  0  0
   21.4386  -19.2663  -14.2691 C   0  0  0  0  0  0  0  0  0  0  0  0
   22.0317  -18.7395  -15.5383 C   0  0  2  0  0  0  0  0  0  0  0  0
   21.6822  -19.7606  -16.6038 N   0  0  0  0  0  0  0  0  0  0  0  0
   23.5098  -18.7451  -15.5854 C   0  0  0  0  0  0  0  0  0  0  0  0
   24.1230  -19.8587  -15.6024 O   0  0  0  0  0  0  0  0  0  0  0  0
   27.1018  -17.1383  -18.1908 C   0  0  0  0  0  0  0  0  0  0  0  0
   26.5623  -16.1041  -17.2732 C   0  0  2  0  0  0  0  0  0  0  0  0
   27.2773  -14.7859  -17.5363 C   0  0  0  0  0  0  0  0  0  0  0  0
   26.5220  -16.4575  -15.8386 C   0  0  0  0  0  0  0  0  0  0  0  0
   25.7851  -17.7085  -15.4888 C   0  0  2  0  0  0  0  0  0  0  0  0
   24.3415  -17.6036  -15.6223 N   0  0  0  0  0  0  0  0  0  0  0  0
   26.2036  -18.1533  -14.1369 C   0  0  0  0  0  0  0  0  0  0  0  0
   26.3726  -17.2643  -13.2326 O   0  0  0  0  0  0  0  0  0  0  0  0
   25.2843  -20.7064   -9.1384 C   0  0  0  0  0  0  0  0  0  0  0  0
   26.3828  -20.5221  -10.1269 C   0  0  0  0  0  0  0  0  0  0  0  0
   25.9335  -20.2206  -11.5151 C   0  0  2  0  0  0  0  0  0  0  0  0
   25.1957  -21.4363  -12.0252 C   0  0  0  0  0  0  0  0  0  0  0  0
   27.0234  -19.7981  -12.4643 C   0  0  2  0  0  0  0  0  0  0  0  0
   26.4344  -19.4926  -13.7545 N   0  0  0  0  0  0  0  0  0  0  0  0
   28.0056  -20.8816  -12.6406 C   0  0  0  0  0  0  0  0  0  0  0  0
   27.9577  -21.5962  -13.6609 O   0  0  0  0  0  0  0  0  0  0  0  0
   28.9689  -21.0964  -11.6784 O   0  0  0  0  0  0  0  0  0  0  0  0
  1  2  1  0
  2  4  1  0
  3  2  2  0
  5  4  1  0
  5  6  1  6
  7  8  2  0
  7  5  1  0
 10  9  1  6
 10 11  1  0
 10 12  1  0
 13 12  1  1
 13 14  1  0
 14  7  1  0
 15 13  1  0
 15 22  1  0
 16 15  2  0
 17 18  1  0
 18 19  1  0
 19 21  1  0
 19 20  1  6
 21 22  1  6
 21 23  1  0
 23 24  2  0
 23 25  1  0
M  END
$$$$
