NLI.pdb
     RDKit          3D

 25 24  0  0  1  0  0  0  0  0999 V2000
   22.7923  -16.2058  -17.7663 N   0  0  0  0  0  0  0  0  0  0  0  0
   23.9263  -16.7280  -18.5133 C   0  0  0  0  0  0  0  0  0  0  0  0
   24.0569  -16.3254  -19.6884 O   0  0  0  0  0  0  0  0  0  0  0  0
   24.8324  -17.6780  -17.8583 C   0  0  0  0  0  0  0  0  0  0  0  0
   24.4414  -18.0211  -16.4549 C   0  0  2  0  0  0  0  0  0  0  0  0
   24.8172  -16.8110  -15.6216 N   0  0  0  0  0  0  0  0  0  0  0  0
   25.2504  -19.0869  -15.8250 C   0  0  0  0  0  0  0  0  0  0  0  0
   24.9824  -20.3018  -16.0866 O   0  0  0  0  0  0  0  0  0  0  0  0
   30.2237  -20.3886  -12.1998 C   0  0  0  0  0  0  0  0  0  0  0  0
   29.0559  -20.7607  -13.0365 C   0  0  2  0  0  0  0  0  0  0  0  0
   29.4973  -21.7776  -14.0802 C   0  0  0  0  0  0  0  0  0  0  0  0
   28.2828  -19.6428  -13.6171 C   0  0  0  0  0  0  0  0  0  0  0  0
   27.0049  -20.0088  -14.2978 C   0  0  2  0  0  0  0  0  0  0  0  0
   26.3323  -18.8905  -14.9379 N   0  0  0  0  0  0  0  0  0  0  0  0
   26.1331  -20.7255  -13.3350 C   0  0  0  0  0  0  0  0  0  0  0  0
   26.3264  -21.9780  -13.1598 O   0  0  0  0  0  0  0  0  0  0  0  0
   26.3280  -20.4206   -8.4763 C   0  0  0  0  0  0  0  0  0  0  0  0
   25.9449  -20.9713   -9.8059 C   0  0  0  0  0  0  0  0  0  0  0  0
   24.5827  -20.5901  -10.2738 C   0  0  2  0  0  0  0  0  0  0  0  0
   23.5878  -21.2084   -9.3197 C   0  0  0  0  0  0  0  0  0  0  0  0
   24.2723  -20.9481  -11.7031 C   0  0  2  0  0  0  0  0  0  0  0  0
   25.0934  -20.1373  -12.5825 N   0  0  0  0  0  0  0  0  0  0  0  0
   22.8554  -20.6843  -12.0074 C   0  0  0  0  0  0  0  0  0  0  0  0
   22.5459  -19.6789  -12.6761 O   0  0  0  0  0  0  0  0  0  0  0  0
   21.8842  -21.5500  -11.5519 O   0  0  0  0  0  0  0  0  0  0  0  0
  1  2  1  0
  2  4  1  0
  3  2  2  0
  5  4  1  0
  5  6  1  1
  7  8  2  0
  7  5  1  0
 10  9  1  6
 10 11  1  0
 10 12  1  0
 13 12  1  1
 13 14  1  0
 14  7  1  0
 15 13  1  0
 15 22  1  0
 16 15  2  0
 17 18  1  0
 18 19  1  0
 19 21  1  0
 19 20  1  1
 21 22  1  6
 21 23  1  0
 23 24  2  0
 23 25  1  0
M  END
$$$$
