NLI.pdb
     RDKit          3D

 25 24  0  0  1  0  0  0  0  0999 V2000
   21.3874  -24.9585  -23.0603 N   0  0  0  0  0  0  0  0  0  0  0  0
   22.6763  -25.3328  -22.4989 C   0  0  0  0  0  0  0  0  0  0  0  0
   23.6904  -24.8980  -23.0843 O   0  0  0  0  0  0  0  0  0  0  0  0
   22.7113  -26.1820  -21.3030 C   0  0  0  0  0  0  0  0  0  0  0  0
   24.0331  -26.8430  -21.0661 C   0  0  2  0  0  0  0  0  0  0  0  0
   24.0266  -28.0860  -21.9350 N   0  0  0  0  0  0  0  0  0  0  0  0
   24.2097  -27.4176  -19.7149 C   0  0  0  0  0  0  0  0  0  0  0  0
   23.7188  -28.5628  -19.4619 O   0  0  0  0  0  0  0  0  0  0  0  0
   27.4963  -29.1523  -16.9010 C   0  0  0  0  0  0  0  0  0  0  0  0
   27.4263  -27.6709  -16.9540 C   0  0  2  0  0  0  0  0  0  0  0  0
   28.6331  -27.0910  -16.2293 C   0  0  0  0  0  0  0  0  0  0  0  0
   26.1514  -27.0592  -16.5237 C   0  0  0  0  0  0  0  0  0  0  0  0
   24.9433  -27.4231  -17.3228 C   0  0  2  0  0  0  0  0  0  0  0  0
   24.8968  -26.8106  -18.6401 N   0  0  0  0  0  0  0  0  0  0  0  0
   23.7294  -27.1416  -16.5180 C   0  0  0  0  0  0  0  0  0  0  0  0
   23.5650  -27.7860  -15.4250 O   0  0  0  0  0  0  0  0  0  0  0  0
   22.0745  -22.3679  -15.7885 C   0  0  0  0  0  0  0  0  0  0  0  0
   22.1224  -23.7847  -15.3323 C   0  0  0  0  0  0  0  0  0  0  0  0
   21.1031  -24.6778  -15.9514 C   0  0  2  0  0  0  0  0  0  0  0  0
   19.8265  -24.5244  -15.1582 C   0  0  0  0  0  0  0  0  0  0  0  0
   21.5066  -26.1234  -16.0732 C   0  0  2  0  0  0  0  0  0  0  0  0
   22.7245  -26.2097  -16.8570 N   0  0  0  0  0  0  0  0  0  0  0  0
   20.4547  -26.8996  -16.7521 C   0  0  0  0  0  0  0  0  0  0  0  0
   19.6447  -27.5626  -16.0752 O   0  0  0  0  0  0  0  0  0  0  0  0
   20.3736  -26.8863  -18.1280 O   0  0  0  0  0  0  0  0  0  0  0  0
  1  2  1  0
  2  4  1  0
  3  2  2  0
  5  4  1  0
  5  6  1  6
  7  8  2  0
  7  5  1  0
 10  9  1  1
 10 11  1  0
 10 12  1  0
 13 12  1  1
 13 14  1  0
 14  7  1  0
 15 13  1  0
 15 22  1  0
 16 15  2  0
 17 18  1  0
 18 19  1  0
 19 21  1  0
 19 20  1  1
 21 22  1  6
 21 23  1  0
 23 24  2  0
 23 25  1  0
M  END
$$$$
