NLI.pdb
     RDKit          3D

 25 24  0  0  1  0  0  0  0  0999 V2000
   28.8742  -17.4987  -16.1837 N   0  0  0  0  0  0  0  0  0  0  0  0
   27.4814  -17.5138  -16.6035 C   0  0  0  0  0  0  0  0  0  0  0  0
   27.1596  -16.7150  -17.5081 O   0  0  0  0  0  0  0  0  0  0  0  0
   26.5533  -18.4462  -15.9540 C   0  0  0  0  0  0  0  0  0  0  0  0
   27.1723  -19.2529  -14.8557 C   0  0  2  0  0  0  0  0  0  0  0  0
   27.9904  -20.3242  -15.5508 N   0  0  0  0  0  0  0  0  0  0  0  0
   26.2210  -20.0628  -14.0644 C   0  0  0  0  0  0  0  0  0  0  0  0
   25.7246  -21.1128  -14.5816 O   0  0  0  0  0  0  0  0  0  0  0  0
   26.5317  -22.1204  -10.0838 C   0  0  0  0  0  0  0  0  0  0  0  0
   25.9947  -20.7482   -9.9075 C   0  0  2  0  0  0  0  0  0  0  0  0
   25.9334  -20.4266   -8.4206 C   0  0  0  0  0  0  0  0  0  0  0  0
   24.7317  -20.4431  -10.6120 C   0  0  0  0  0  0  0  0  0  0  0  0
   24.7587  -20.5741  -12.0994 C   0  0  2  0  0  0  0  0  0  0  0  0
   25.7963  -19.7874  -12.7454 N   0  0  0  0  0  0  0  0  0  0  0  0
   23.4055  -20.2853  -12.6342 C   0  0  0  0  0  0  0  0  0  0  0  0
   23.0533  -19.0619  -12.7608 O   0  0  0  0  0  0  0  0  0  0  0  0
   21.6934  -21.5902  -17.2460 C   0  0  0  0  0  0  0  0  0  0  0  0
   21.8787  -20.9688  -15.9053 C   0  0  0  0  0  0  0  0  0  0  0  0
   20.9159  -21.4253  -14.8639 C   0  0  2  0  0  0  0  0  0  0  0  0
   19.5254  -21.1163  -15.3676 C   0  0  0  0  0  0  0  0  0  0  0  0
   21.1430  -20.8576  -13.4878 C   0  0  2  0  0  0  0  0  0  0  0  0
   22.4580  -21.2570  -13.0229 N   0  0  0  0  0  0  0  0  0  0  0  0
   20.1350  -21.3692  -12.5434 C   0  0  0  0  0  0  0  0  0  0  0  0
   20.2313  -22.5346  -12.1114 O   0  0  0  0  0  0  0  0  0  0  0  0
   19.0954  -20.5569  -12.1444 O   0  0  0  0  0  0  0  0  0  0  0  0
  1  2  1  0
  2  4  1  0
  3  2  2  0
  5  4  1  0
  5  6  1  6
  7  8  2  0
  7  5  1  0
 10  9  1  1
 10 11  1  0
 10 12  1  0
 13 12  1  1
 13 14  1  0
 14  7  1  0
 15 13  1  0
 15 22  1  0
 16 15  2  0
 17 18  1  0
 18 19  1  0
 19 21  1  0
 19 20  1  6
 21 22  1  1
 21 23  1  0
 23 24  2  0
 23 25  1  0
M  END
$$$$
