NLI.pdb
     RDKit          3D

 25 24  0  0  1  0  0  0  0  0999 V2000
   21.2507  -19.3640  -13.7333 N   0  0  0  0  0  0  0  0  0  0  0  0
   21.0197  -19.5660  -12.3111 C   0  0  0  0  0  0  0  0  0  0  0  0
   19.9410  -19.1355  -11.8516 O   0  0  0  0  0  0  0  0  0  0  0  0
   22.0451  -20.2487  -11.5143 C   0  0  0  0  0  0  0  0  0  0  0  0
   23.3174  -20.5107  -12.2578 C   0  0  2  0  0  0  0  0  0  0  0  0
   23.0613  -21.7652  -13.0706 N   0  0  0  0  0  0  0  0  0  0  0  0
   24.4594  -20.9235  -11.4137 C   0  0  0  0  0  0  0  0  0  0  0  0
   24.4541  -22.0826  -10.8914 O   0  0  0  0  0  0  0  0  0  0  0  0
   29.4667  -20.5997   -8.9889 C   0  0  0  0  0  0  0  0  0  0  0  0
   29.1484  -21.2535  -10.2826 C   0  0  2  0  0  0  0  0  0  0  0  0
   30.4187  -21.3482  -11.1164 C   0  0  0  0  0  0  0  0  0  0  0  0
   28.0083  -20.6922  -11.0375 C   0  0  0  0  0  0  0  0  0  0  0  0
   26.6966  -20.6620  -10.3241 C   0  0  2  0  0  0  0  0  0  0  0  0
   25.5991  -20.1412  -11.1223 N   0  0  0  0  0  0  0  0  0  0  0  0
   26.8624  -19.9396   -9.0391 C   0  0  0  0  0  0  0  0  0  0  0  0
   26.7452  -18.6656   -9.0416 O   0  0  0  0  0  0  0  0  0  0  0  0
   28.1130  -20.8140   -2.9837 C   0  0  0  0  0  0  0  0  0  0  0  0
   27.6579  -19.9477   -4.1064 C   0  0  0  0  0  0  0  0  0  0  0  0
   27.5327  -20.6384   -5.4206 C   0  0  2  0  0  0  0  0  0  0  0  0
   28.7781  -21.4716   -5.6136 C   0  0  0  0  0  0  0  0  0  0  0  0
   27.2856  -19.7342   -6.5991 C   0  0  2  0  0  0  0  0  0  0  0  0
   27.1413  -20.5441   -7.7941 N   0  0  0  0  0  0  0  0  0  0  0  0
   28.4178  -18.8115   -6.7905 C   0  0  0  0  0  0  0  0  0  0  0  0
   28.5019  -17.7857   -6.0873 O   0  0  0  0  0  0  0  0  0  0  0  0
   29.3742  -19.0891   -7.7434 O   0  0  0  0  0  0  0  0  0  0  0  0
  1  2  1  0
  2  4  1  0
  3  2  2  0
  5  4  1  0
  5  6  1  6
  7  8  2  0
  7  5  1  0
 10  9  1  1
 10 11  1  0
 10 12  1  0
 13 12  1  6
 13 14  1  0
 14  7  1  0
 15 13  1  0
 15 22  1  0
 16 15  2  0
 17 18  1  0
 18 19  1  0
 19 21  1  0
 19 20  1  6
 21 22  1  6
 21 23  1  0
 23 24  2  0
 23 25  1  0
M  END
$$$$
