NLI.pdb
     RDKit          3D

 25 24  0  0  1  0  0  0  0  0999 V2000
   21.0381  -19.3181  -13.3374 N   0  0  0  0  0  0  0  0  0  0  0  0
   20.8336  -20.0200  -12.0796 C   0  0  0  0  0  0  0  0  0  0  0  0
   19.6952  -19.9409  -11.5719 O   0  0  0  0  0  0  0  0  0  0  0  0
   21.9524  -20.7646  -11.4910 C   0  0  0  0  0  0  0  0  0  0  0  0
   23.2344  -20.6371  -12.2528 C   0  0  2  0  0  0  0  0  0  0  0  0
   23.1894  -21.7255  -13.3079 N   0  0  0  0  0  0  0  0  0  0  0  0
   24.4502  -21.0004  -11.4931 C   0  0  0  0  0  0  0  0  0  0  0  0
   24.5646  -22.1825  -11.0394 O   0  0  0  0  0  0  0  0  0  0  0  0
   30.5046  -20.5325  -10.9234 C   0  0  0  0  0  0  0  0  0  0  0  0
   29.1747  -20.9596  -10.4220 C   0  0  2  0  0  0  0  0  0  0  0  0
   29.1232  -22.4808  -10.3860 C   0  0  0  0  0  0  0  0  0  0  0  0
   27.9995  -20.3624  -11.0904 C   0  0  0  0  0  0  0  0  0  0  0  0
   26.6791  -20.5927  -10.4318 C   0  0  2  0  0  0  0  0  0  0  0  0
   25.5394  -20.1448  -11.2149 N   0  0  0  0  0  0  0  0  0  0  0  0
   26.7076  -19.9996   -9.0724 C   0  0  0  0  0  0  0  0  0  0  0  0
   26.1854  -18.8437   -8.9053 O   0  0  0  0  0  0  0  0  0  0  0  0
   28.6398  -21.0888   -3.2311 C   0  0  0  0  0  0  0  0  0  0  0  0
   27.9242  -20.2528   -4.2347 C   0  0  0  0  0  0  0  0  0  0  0  0
   27.9475  -20.7855   -5.6259 C   0  0  2  0  0  0  0  0  0  0  0  0
   29.3882  -21.0794   -5.9731 C   0  0  0  0  0  0  0  0  0  0  0  0
   27.2992  -19.9045   -6.6607 C   0  0  2  0  0  0  0  0  0  0  0  0
   27.2683  -20.6088   -7.9288 N   0  0  0  0  0  0  0  0  0  0  0  0
   28.0653  -18.6583   -6.8337 C   0  0  0  0  0  0  0  0  0  0  0  0
   28.9439  -18.5929   -7.7156 O   0  0  0  0  0  0  0  0  0  0  0  0
   27.8050  -17.5757   -6.0211 O   0  0  0  0  0  0  0  0  0  0  0  0
  1  2  1  0
  2  4  1  0
  3  2  2  0
  5  4  1  0
  5  6  1  6
  7  8  2  0
  7  5  1  0
 10  9  1  6
 10 11  1  0
 10 12  1  0
 13 12  1  6
 13 14  1  0
 14  7  1  0
 15 13  1  0
 15 22  1  0
 16 15  2  0
 17 18  1  0
 18 19  1  0
 19 21  1  0
 19 20  1  6
 21 22  1  6
 21 23  1  0
 23 24  2  0
 23 25  1  0
M  END
$$$$
