NLI.pdb
     RDKit          3D

 25 24  0  0  1  0  0  0  0  0999 V2000
   19.7644  -13.1867  -19.6817 N   0  0  0  0  0  0  0  0  0  0  0  0
   19.1136  -11.9453  -19.2920 C   0  0  0  0  0  0  0  0  0  0  0  0
   18.0612  -11.6501  -19.8965 O   0  0  0  0  0  0  0  0  0  0  0  0
   19.7175  -11.1277  -18.2340 C   0  0  0  0  0  0  0  0  0  0  0  0
   20.9835  -11.6972  -17.6744 C   0  0  2  0  0  0  0  0  0  0  0  0
   20.5503  -12.8216  -16.7535 N   0  0  0  0  0  0  0  0  0  0  0  0
   21.7108  -10.8062  -16.7448 C   0  0  0  0  0  0  0  0  0  0  0  0
   21.1898  -10.5315  -15.6180 O   0  0  0  0  0  0  0  0  0  0  0  0
   25.7465  -11.0273  -14.6179 C   0  0  0  0  0  0  0  0  0  0  0  0
   25.8292  -10.4019  -15.9612 C   0  0  2  0  0  0  0  0  0  0  0  0
   27.2938  -10.2460  -16.3466 C   0  0  0  0  0  0  0  0  0  0  0  0
   25.0505   -9.1607  -16.1553 C   0  0  0  0  0  0  0  0  0  0  0  0
   23.5675   -9.2874  -16.0330 C   0  0  2  0  0  0  0  0  0  0  0  0
   22.9709  -10.2130  -16.9817 N   0  0  0  0  0  0  0  0  0  0  0  0
   22.9607   -7.9352  -16.0945 C   0  0  0  0  0  0  0  0  0  0  0  0
   22.9176   -7.3421  -17.2273 O   0  0  0  0  0  0  0  0  0  0  0  0
   18.1759   -6.9187  -15.9079 C   0  0  0  0  0  0  0  0  0  0  0  0
   19.6440   -6.7630  -16.1039 C   0  0  0  0  0  0  0  0  0  0  0  0
   20.3445   -6.0103  -15.0256 C   0  0  2  0  0  0  0  0  0  0  0  0
   19.7090   -4.6421  -14.9436 C   0  0  0  0  0  0  0  0  0  0  0  0
   21.8396   -5.9161  -15.1768 C   0  0  2  0  0  0  0  0  0  0  0  0
   22.4170   -7.2348  -14.9958 N   0  0  0  0  0  0  0  0  0  0  0  0
   22.4071   -5.0113  -14.1624 C   0  0  0  0  0  0  0  0  0  0  0  0
   22.7348   -5.4635  -13.0480 O   0  0  0  0  0  0  0  0  0  0  0  0
   22.5718   -3.6739  -14.4527 O   0  0  0  0  0  0  0  0  0  0  0  0
  1  2  1  0
  2  4  1  0
  3  2  2  0
  5  4  1  0
  5  6  1  1
  7  8  2  0
  7  5  1  0
 10  9  1  1
 10 11  1  0
 10 12  1  0
 13 12  1  6
 13 14  1  0
 14  7  1  0
 15 13  1  0
 15 22  1  0
 16 15  2  0
 17 18  1  0
 18 19  1  0
 19 21  1  0
 19 20  1  6
 21 22  1  1
 21 23  1  0
 23 24  2  0
 23 25  1  0
M  END
$$$$
