FAT.pdb
     RDKit          3D

 24 24  0  0  1  0  0  0  0  0999 V2000
    8.7022  -16.9387   16.4869 N   0  0  0  0  0  0  0  0  0  0  0  0
    8.7196  -15.9856   17.5663 C   0  0  1  0  0  0  0  0  0  0  0  0
    7.5540  -15.0218   17.4905 C   0  0  0  0  0  0  0  0  0  0  0  0
    7.6925  -14.0899   18.6605 C   0  0  0  0  0  0  0  0  0  0  0  0
    8.4890  -12.9579   18.5599 C   0  0  0  0  0  0  0  0  0  0  0  0
    8.6258  -12.0921   19.6264 C   0  0  0  0  0  0  0  0  0  0  0  0
    7.9385  -12.4051   20.7843 C   0  0  0  0  0  0  0  0  0  0  0  0
    7.1451  -13.5297   20.8894 C   0  0  0  0  0  0  0  0  0  0  0  0
    7.0106  -14.3928   19.8217 C   0  0  0  0  0  0  0  0  0  0  0  0
    8.6981  -16.7350   18.8483 C   0  0  0  0  0  0  0  0  0  0  0  0
    7.7883  -17.5592   19.1120 O   0  0  0  0  0  0  0  0  0  0  0  0
   10.9550  -18.3508   20.9673 C   0  0  0  0  0  0  0  0  0  0  0  0
    9.8072  -17.3680   21.0178 C   0  0  2  0  0  0  0  0  0  0  0  0
    9.7061  -16.5599   19.8458 N   0  0  0  0  0  0  0  0  0  0  0  0
   10.0010  -16.5142   22.2265 C   0  0  0  0  0  0  0  0  0  0  0  0
   10.9169  -15.6572   22.2951 O   0  0  0  0  0  0  0  0  0  0  0  0
    7.5158  -14.1971   24.2739 C   0  0  0  0  0  0  0  0  0  0  0  0
    8.1177  -15.2761   25.1612 C   0  0  1  0  0  0  0  0  0  0  0  0
    7.1595  -16.2899   25.2375 O   0  0  0  0  0  0  0  0  0  0  0  0
    9.3647  -15.8622   24.5667 C   0  0  2  0  0  0  0  0  0  0  0  0
    9.1628  -16.6148   23.3782 N   0  0  0  0  0  0  0  0  0  0  0  0
   10.0674  -16.6615   25.6304 C   0  0  0  0  0  0  0  0  0  0  0  0
   10.5333  -16.0588   26.7900 O   0  0  0  0  0  0  0  0  0  0  0  0
   10.2618  -17.8992   25.5169 O   0  0  0  0  0  0  0  0  0  0  0  0
  2  1  1  6
  3  2  1  0
  4  3  1  0
  5  4  2  0
  6  5  1  0
  7  6  2  0
  7  8  1  0
  8  9  2  0
  9  4  1  0
 10  2  1  0
 10 11  2  0
 13 12  1  6
 13 14  1  0
 13 15  1  0
 14 10  1  0
 15 16  2  0
 15 21  1  0
 18 17  1  6
 18 19  1  0
 18 20  1  0
 20 22  1  0
 20 21  1  6
 22 24  2  0
 22 23  1  0
M  END
$$$$
