FAT.pdb
     RDKit          3D

 24 24  0  0  1  0  0  0  0  0999 V2000
    7.1353  -17.9953   26.4395 N   0  0  0  0  0  0  0  0  0  0  0  0
    7.0008  -16.8447   25.5840 C   0  0  1  0  0  0  0  0  0  0  0  0
    8.1475  -15.8711   25.7587 C   0  0  0  0  0  0  0  0  0  0  0  0
    7.5348  -14.5043   25.8722 C   0  0  0  0  0  0  0  0  0  0  0  0
    6.2104  -14.3639   26.2625 C   0  0  0  0  0  0  0  0  0  0  0  0
    5.6337  -13.1144   26.3715 C   0  0  0  0  0  0  0  0  0  0  0  0
    6.4311  -12.0244   26.0764 C   0  0  0  0  0  0  0  0  0  0  0  0
    7.7487  -12.1587   25.6878 C   0  0  0  0  0  0  0  0  0  0  0  0
    8.3219  -13.4088   25.5799 C   0  0  0  0  0  0  0  0  0  0  0  0
    6.9236  -17.3175   24.1783 C   0  0  0  0  0  0  0  0  0  0  0  0
    7.7308  -18.1659   23.7255 O   0  0  0  0  0  0  0  0  0  0  0  0
    4.5045  -16.8899   21.2735 C   0  0  0  0  0  0  0  0  0  0  0  0
    5.8160  -17.2781   21.9179 C   0  0  2  0  0  0  0  0  0  0  0  0
    5.9319  -16.8351   23.2695 N   0  0  0  0  0  0  0  0  0  0  0  0
    6.9125  -16.7044   21.0836 C   0  0  0  0  0  0  0  0  0  0  0  0
    7.0778  -17.0365   19.8834 O   0  0  0  0  0  0  0  0  0  0  0  0
    7.2101  -13.1451   20.2595 C   0  0  0  0  0  0  0  0  0  0  0  0
    8.5863  -13.5487   20.7664 C   0  0  1  0  0  0  0  0  0  0  0  0
    8.6579  -13.0962   22.0862 O   0  0  0  0  0  0  0  0  0  0  0  0
    8.7667  -15.0385   20.7781 C   0  0  2  0  0  0  0  0  0  0  0  0
    7.8407  -15.7456   21.5919 N   0  0  0  0  0  0  0  0  0  0  0  0
   10.1930  -15.3411   21.1495 C   0  0  0  0  0  0  0  0  0  0  0  0
   11.2504  -14.8284   20.4120 O   0  0  0  0  0  0  0  0  0  0  0  0
   10.4874  -16.0650   22.1353 O   0  0  0  0  0  0  0  0  0  0  0  0
  2  1  1  1
  3  2  1  0
  4  3  1  0
  5  4  2  0
  6  5  1  0
  7  6  2  0
  7  8  1  0
  8  9  2  0
  9  4  1  0
 10  2  1  0
 10 11  2  0
 13 12  1  6
 13 14  1  0
 13 15  1  0
 14 10  1  0
 15 16  2  0
 15 21  1  0
 18 17  1  1
 18 19  1  0
 18 20  1  0
 20 22  1  0
 20 21  1  1
 22 24  2  0
 22 23  1  0
M  END
$$$$
