FAT.pdb
     RDKit          3D

 24 24  0  0  1  0  0  0  0  0999 V2000
    6.0929  -16.4477   23.6927 N   0  0  0  0  0  0  0  0  0  0  0  0
    7.2926  -15.7707   24.1124 C   0  0  1  0  0  0  0  0  0  0  0  0
    7.1140  -15.0746   25.4453 C   0  0  0  0  0  0  0  0  0  0  0  0
    6.5239  -13.7256   25.1480 C   0  0  0  0  0  0  0  0  0  0  0  0
    7.2142  -12.8226   24.3517 C   0  0  0  0  0  0  0  0  0  0  0  0
    6.6845  -11.5793   24.0695 C   0  0  0  0  0  0  0  0  0  0  0  0
    5.4484  -11.2829   24.6128 C   0  0  0  0  0  0  0  0  0  0  0  0
    4.7579  -12.1775   25.4053 C   0  0  0  0  0  0  0  0  0  0  0  0
    5.2900  -13.4190   25.6853 C   0  0  0  0  0  0  0  0  0  0  0  0
    8.3888  -16.7699   24.1850 C   0  0  0  0  0  0  0  0  0  0  0  0
    8.3540  -17.8326   23.5173 O   0  0  0  0  0  0  0  0  0  0  0  0
   11.2946  -17.4770   23.5567 C   0  0  0  0  0  0  0  0  0  0  0  0
   10.7061  -17.3923   24.9468 C   0  0  2  0  0  0  0  0  0  0  0  0
    9.5365  -16.5774   25.0142 N   0  0  0  0  0  0  0  0  0  0  0  0
   11.7674  -16.8599   25.8511 C   0  0  0  0  0  0  0  0  0  0  0  0
   12.9555  -17.2636   25.7916 O   0  0  0  0  0  0  0  0  0  0  0  0
   10.0125  -14.2666   28.6407 C   0  0  0  0  0  0  0  0  0  0  0  0
   10.5948  -15.5909   29.1106 C   0  0  1  0  0  0  0  0  0  0  0  0
    9.5582  -16.5225   29.0145 O   0  0  0  0  0  0  0  0  0  0  0  0
   11.7174  -16.0558   28.2296 C   0  0  2  0  0  0  0  0  0  0  0  0
   11.5036  -15.8621   26.8381 N   0  0  0  0  0  0  0  0  0  0  0  0
   12.0177  -17.4923   28.5617 C   0  0  0  0  0  0  0  0  0  0  0  0
   11.1289  -18.5055   28.2322 O   0  0  0  0  0  0  0  0  0  0  0  0
   13.0771  -17.8353   29.1469 O   0  0  0  0  0  0  0  0  0  0  0  0
  2  1  1  1
  3  2  1  0
  4  3  1  0
  5  4  2  0
  6  5  1  0
  7  6  2  0
  7  8  1  0
  8  9  2  0
  9  4  1  0
 10  2  1  0
 10 11  2  0
 13 12  1  6
 13 14  1  0
 13 15  1  0
 14 10  1  0
 15 16  2  0
 15 21  1  0
 18 17  1  6
 18 19  1  0
 18 20  1  0
 20 22  1  0
 20 21  1  6
 22 24  2  0
 22 23  1  0
M  END
$$$$
