FAT.pdb
     RDKit          3D

 24 24  0  0  1  0  0  0  0  0999 V2000
    6.0140  -18.0712   24.9990 N   0  0  0  0  0  0  0  0  0  0  0  0
    6.4183  -16.6951   25.1283 C   0  0  1  0  0  0  0  0  0  0  0  0
    6.6542  -16.3068   26.5728 C   0  0  0  0  0  0  0  0  0  0  0  0
    6.5527  -14.8093   26.6354 C   0  0  0  0  0  0  0  0  0  0  0  0
    7.6151  -14.0579   27.1180 C   0  0  0  0  0  0  0  0  0  0  0  0
    7.5367  -12.6811   27.1812 C   0  0  0  0  0  0  0  0  0  0  0  0
    6.3624  -12.0961   26.7456 C   0  0  0  0  0  0  0  0  0  0  0  0
    5.3030  -12.8389   26.2649 C   0  0  0  0  0  0  0  0  0  0  0  0
    5.3846  -14.2146   26.2031 C   0  0  0  0  0  0  0  0  0  0  0  0
    7.6502  -16.4952   24.3234 C   0  0  0  0  0  0  0  0  0  0  0  0
    8.5633  -17.3565   24.2955 O   0  0  0  0  0  0  0  0  0  0  0  0
    8.8555  -13.8818   21.8165 C   0  0  0  0  0  0  0  0  0  0  0  0
    8.9083  -15.1860   22.5795 C   0  0  2  0  0  0  0  0  0  0  0  0
    7.8622  -15.3183   23.5412 N   0  0  0  0  0  0  0  0  0  0  0  0
   10.2424  -15.2630   23.2440 C   0  0  0  0  0  0  0  0  0  0  0  0
   11.3138  -15.1345   22.6008 O   0  0  0  0  0  0  0  0  0  0  0  0
   11.1370  -14.0503   27.1870 C   0  0  0  0  0  0  0  0  0  0  0  0
   11.6051  -15.4412   26.7872 C   0  0  1  0  0  0  0  0  0  0  0  0
   10.6544  -16.3285   27.2978 O   0  0  0  0  0  0  0  0  0  0  0  0
   11.6454  -15.6142   25.2969 C   0  0  2  0  0  0  0  0  0  0  0  0
   10.3882  -15.4864   24.6469 N   0  0  0  0  0  0  0  0  0  0  0  0
   12.3107  -16.9284   24.9895 C   0  0  0  0  0  0  0  0  0  0  0  0
   13.6108  -17.1873   25.3991 O   0  0  0  0  0  0  0  0  0  0  0  0
   11.7238  -17.8416   24.3538 O   0  0  0  0  0  0  0  0  0  0  0  0
  2  1  1  1
  3  2  1  0
  4  3  1  0
  5  4  2  0
  6  5  1  0
  7  6  2  0
  7  8  1  0
  8  9  2  0
  9  4  1  0
 10  2  1  0
 10 11  2  0
 13 12  1  1
 13 14  1  0
 13 15  1  0
 14 10  1  0
 15 16  2  0
 15 21  1  0
 18 17  1  6
 18 19  1  0
 18 20  1  0
 20 22  1  0
 20 21  1  1
 22 24  2  0
 22 23  1  0
M  END
$$$$
