FAT.pdb
     RDKit          3D

 24 24  0  0  1  0  0  0  0  0999 V2000
    6.4608  -17.3089   21.6516 N   0  0  0  0  0  0  0  0  0  0  0  0
    7.3851  -16.2959   22.0913 C   0  0  1  0  0  0  0  0  0  0  0  0
    6.6946  -14.9740   22.3541 C   0  0  0  0  0  0  0  0  0  0  0  0
    7.1344  -14.0375   21.2649 C   0  0  0  0  0  0  0  0  0  0  0  0
    6.6003  -14.1519   19.9891 C   0  0  0  0  0  0  0  0  0  0  0  0
    6.9945  -13.2984   18.9781 C   0  0  0  0  0  0  0  0  0  0  0  0
    7.9353  -12.3368   19.2962 C   0  0  0  0  0  0  0  0  0  0  0  0
    8.4694  -12.2190   20.5635 C   0  0  0  0  0  0  0  0  0  0  0  0
    8.0734  -13.0734   21.5714 C   0  0  0  0  0  0  0  0  0  0  0  0
    8.0632  -16.7865   23.3180 C   0  0  0  0  0  0  0  0  0  0  0  0
    7.4195  -17.0511   24.3630 O   0  0  0  0  0  0  0  0  0  0  0  0
   11.3993  -18.2821   24.1776 C   0  0  0  0  0  0  0  0  0  0  0  0
   10.1592  -17.4890   24.5225 C   0  0  2  0  0  0  0  0  0  0  0  0
    9.4774  -16.9832   23.3754 N   0  0  0  0  0  0  0  0  0  0  0  0
   10.5772  -16.3705   25.4180 C   0  0  0  0  0  0  0  0  0  0  0  0
   11.3325  -15.4483   25.0214 O   0  0  0  0  0  0  0  0  0  0  0  0
    9.3285  -13.3588   26.6534 C   0  0  0  0  0  0  0  0  0  0  0  0
    9.6076  -14.1603   27.9157 C   0  0  1  0  0  0  0  0  0  0  0  0
    8.3900  -14.7406   28.2799 O   0  0  0  0  0  0  0  0  0  0  0  0
   10.5927  -15.2663   27.6733 C   0  0  2  0  0  0  0  0  0  0  0  0
   10.1485  -16.2755   26.7768 N   0  0  0  0  0  0  0  0  0  0  0  0
   11.0064  -15.8335   29.0041 C   0  0  0  0  0  0  0  0  0  0  0  0
   11.6107  -15.0374   29.9665 O   0  0  0  0  0  0  0  0  0  0  0  0
   10.8248  -17.0425   29.3006 O   0  0  0  0  0  0  0  0  0  0  0  0
  2  1  1  1
  3  2  1  0
  4  3  1  0
  5  4  2  0
  6  5  1  0
  7  6  2  0
  7  8  1  0
  8  9  2  0
  9  4  1  0
 10  2  1  0
 10 11  2  0
 13 12  1  6
 13 14  1  0
 13 15  1  0
 14 10  1  0
 15 16  2  0
 15 21  1  0
 18 17  1  6
 18 19  1  0
 18 20  1  0
 20 22  1  0
 20 21  1  6
 22 24  2  0
 22 23  1  0
M  END
$$$$
