FAT.pdb
     RDKit          3D

 24 24  0  0  1  0  0  0  0  0999 V2000
    6.0224  -17.4765   23.8824 N   0  0  0  0  0  0  0  0  0  0  0  0
    6.9057  -16.4157   24.2923 C   0  0  1  0  0  0  0  0  0  0  0  0
    6.5836  -15.9159   25.6850 C   0  0  0  0  0  0  0  0  0  0  0  0
    6.6014  -14.4154   25.6160 C   0  0  0  0  0  0  0  0  0  0  0  0
    7.6550  -13.7583   24.9961 C   0  0  0  0  0  0  0  0  0  0  0  0
    7.6851  -12.3800   24.9247 C   0  0  0  0  0  0  0  0  0  0  0  0
    6.6271  -11.6962   25.4940 C   0  0  0  0  0  0  0  0  0  0  0  0
    5.5770  -12.3451   26.1116 C   0  0  0  0  0  0  0  0  0  0  0  0
    5.5500  -13.7225   26.1813 C   0  0  0  0  0  0  0  0  0  0  0  0
    8.3007  -16.9209   24.2258 C   0  0  0  0  0  0  0  0  0  0  0  0
    8.6160  -18.0422   24.6945 O   0  0  0  0  0  0  0  0  0  0  0  0
   11.5811  -15.7642   22.6763 C   0  0  0  0  0  0  0  0  0  0  0  0
   10.7181  -16.5815   23.6108 C   0  0  2  0  0  0  0  0  0  0  0  0
    9.3540  -16.1625   23.6282 N   0  0  0  0  0  0  0  0  0  0  0  0
   11.3139  -16.4795   24.9754 C   0  0  0  0  0  0  0  0  0  0  0  0
   12.4970  -16.8296   25.2120 O   0  0  0  0  0  0  0  0  0  0  0  0
   10.6666  -13.3915   27.6119 C   0  0  0  0  0  0  0  0  0  0  0  0
   10.5089  -14.7687   28.2383 C   0  0  1  0  0  0  0  0  0  0  0  0
    9.1341  -15.0109   28.2934 O   0  0  0  0  0  0  0  0  0  0  0  0
   11.1344  -15.8435   27.3981 C   0  0  2  0  0  0  0  0  0  0  0  0
   10.5826  -15.9800   26.0956 N   0  0  0  0  0  0  0  0  0  0  0  0
   11.0908  -17.1346   28.1696 C   0  0  0  0  0  0  0  0  0  0  0  0
   11.6749  -17.2409   29.4235 O   0  0  0  0  0  0  0  0  0  0  0  0
   10.5284  -18.1647   27.7166 O   0  0  0  0  0  0  0  0  0  0  0  0
  2  1  1  1
  3  2  1  0
  4  3  1  0
  5  4  2  0
  6  5  1  0
  7  6  2  0
  7  8  1  0
  8  9  2  0
  9  4  1  0
 10  2  1  0
 10 11  2  0
 13 12  1  6
 13 14  1  0
 13 15  1  0
 14 10  1  0
 15 16  2  0
 15 21  1  0
 18 17  1  6
 18 19  1  0
 18 20  1  0
 20 22  1  0
 20 21  1  6
 22 24  2  0
 22 23  1  0
M  END
$$$$
