FAT.pdb
     RDKit          3D

 24 24  0  0  1  0  0  0  0  0999 V2000
    6.3954  -17.8402   26.0918 N   0  0  0  0  0  0  0  0  0  0  0  0
    6.7946  -16.5683   25.5473 C   0  0  1  0  0  0  0  0  0  0  0  0
    8.0443  -16.0330   26.2145 C   0  0  0  0  0  0  0  0  0  0  0  0
    7.7944  -14.5767   26.4854 C   0  0  0  0  0  0  0  0  0  0  0  0
    8.8565  -13.7259   26.7581 C   0  0  0  0  0  0  0  0  0  0  0  0
    8.6425  -12.3853   27.0087 C   0  0  0  0  0  0  0  0  0  0  0  0
    7.3347  -11.9388   26.9748 C   0  0  0  0  0  0  0  0  0  0  0  0
    6.2751  -12.7808   26.7040 C   0  0  0  0  0  0  0  0  0  0  0  0
    6.4923  -14.1199   26.4541 C   0  0  0  0  0  0  0  0  0  0  0  0
    7.0096  -16.7348   24.0873 C   0  0  0  0  0  0  0  0  0  0  0  0
    7.1248  -17.8711   23.5659 O   0  0  0  0  0  0  0  0  0  0  0  0
    7.1913  -14.4366   21.0515 C   0  0  0  0  0  0  0  0  0  0  0  0
    7.3749  -15.7335   21.8066 C   0  0  2  0  0  0  0  0  0  0  0  0
    7.0967  -15.6169   23.2015 N   0  0  0  0  0  0  0  0  0  0  0  0
    8.7814  -16.1832   21.5897 C   0  0  0  0  0  0  0  0  0  0  0  0
    9.2545  -16.3541   20.4385 O   0  0  0  0  0  0  0  0  0  0  0  0
   12.0718  -14.6535   22.2710 C   0  0  0  0  0  0  0  0  0  0  0  0
   12.0719  -15.9850   23.0066 C   0  0  1  0  0  0  0  0  0  0  0  0
   11.7771  -15.6879   24.3395 O   0  0  0  0  0  0  0  0  0  0  0  0
   11.0085  -16.9112   22.4932 C   0  0  2  0  0  0  0  0  0  0  0  0
    9.6768  -16.4475   22.6702 N   0  0  0  0  0  0  0  0  0  0  0  0
   11.2223  -18.2672   23.1091 C   0  0  0  0  0  0  0  0  0  0  0  0
   12.3725  -18.9990   22.8508 O   0  0  0  0  0  0  0  0  0  0  0  0
   10.3765  -18.7926   23.8779 O   0  0  0  0  0  0  0  0  0  0  0  0
  2  1  1  1
  3  2  1  0
  4  3  1  0
  5  4  2  0
  6  5  1  0
  7  6  2  0
  7  8  1  0
  8  9  2  0
  9  4  1  0
 10  2  1  0
 10 11  2  0
 13 12  1  6
 13 14  1  0
 13 15  1  0
 14 10  1  0
 15 16  2  0
 15 21  1  0
 18 17  1  6
 18 19  1  0
 18 20  1  0
 20 22  1  0
 20 21  1  1
 22 24  2  0
 22 23  1  0
M  END
$$$$
