LEE.pdb
     RDKit          3D

 27 26  0  0  1  0  0  0  0  0999 V2000
   29.1660  -13.1945  -18.4833 C   0  0  0  0  0  0  0  0  0  0  0  0
   28.2752  -12.9696  -17.2906 C   0  0  1  0  0  0  0  0  0  0  0  0
   29.1229  -12.5965  -16.0693 C   0  0  0  0  0  0  0  0  0  0  0  0
   27.2465  -11.9325  -17.5773 C   0  0  0  0  0  0  0  0  0  0  0  0
   26.3444  -11.6391  -16.4127 C   0  0  2  0  0  0  0  0  0  0  0  0
   25.7008  -12.8385  -15.9103 N   0  0  0  0  0  0  0  0  0  0  0  0
   25.3304  -10.6105  -16.7942 C   0  0  0  0  0  0  0  0  0  0  0  0
   25.7878   -9.5857  -17.3625 O   0  0  0  0  0  0  0  0  0  0  0  0
   23.9483  -10.7124  -16.5661 N   0  0  0  0  0  0  0  0  0  0  0  0
   23.0128   -9.7268  -17.0873 C   0  0  1  0  0  0  0  0  0  0  0  0
   21.6845  -10.3176  -17.3840 C   0  0  0  0  0  0  0  0  0  0  0  0
   21.6822  -11.1653  -18.6217 C   0  0  0  0  0  0  0  0  0  0  0  0
   20.3306  -11.8166  -18.8034 C   0  0  0  0  0  0  0  0  0  0  0  0
   19.4058  -11.6503  -17.9822 O   0  0  0  0  0  0  0  0  0  0  0  0
   22.8693   -8.6580  -16.0557 C   0  0  0  0  0  0  0  0  0  0  0  0
   23.0473   -8.8585  -14.8291 O   0  0  0  0  0  0  0  0  0  0  0  0
   20.1279  -12.6077  -19.9032 O   0  0  0  0  0  0  0  0  0  0  0  0
   22.5137   -7.3195  -16.4254 N   0  0  0  0  0  0  0  0  0  0  0  0
   22.4765   -6.2989  -15.3713 C   0  0  1  0  0  0  0  0  0  0  0  0
   22.5645   -4.9178  -15.9880 C   0  0  0  0  0  0  0  0  0  0  0  0
   22.6277   -3.8187  -14.9819 C   0  0  0  0  0  0  0  0  0  0  0  0
   22.6942   -2.5205  -15.7513 C   0  0  0  0  0  0  0  0  0  0  0  0
   22.7745   -2.4789  -16.9904 O   0  0  0  0  0  0  0  0  0  0  0  0
   21.2824   -6.5285  -14.5593 C   0  0  0  0  0  0  0  0  0  0  0  0
   20.2600   -7.0381  -15.0735 O   0  0  0  0  0  0  0  0  0  0  0  0
   22.6644   -1.3292  -15.0451 O   0  0  0  0  0  0  0  0  0  0  0  0
   21.2656   -6.1921  -13.2299 O   0  0  0  0  0  0  0  0  0  0  0  0
  2  1  1  6
  2  3  1  0
  4  2  1  0
  4  5  1  0
  5  7  1  0
  5  6  1  6
  7  8  2  0
  9 10  1  0
  9  7  1  0
 11 12  1  0
 10 11  1  1
 12 13  1  0
 13 17  1  0
 13 14  2  0
 15 16  2  0
 15 10  1  0
 18 15  1  0
 19 24  1  0
 19 18  1  0
 19 20  1  6
 21 22  1  0
 21 20  1  0
 22 23  2  0
 24 27  1  0
 25 24  2  0
 26 22  1  0
M  END
$$$$
