LEE.pdb
     RDKit          3D

 27 26  0  0  1  0  0  0  0  0999 V2000
   26.4700  -33.3417  -10.0777 C   0  0  0  0  0  0  0  0  0  0  0  0
   25.1126  -33.1256   -9.4634 C   0  0  1  0  0  0  0  0  0  0  0  0
   24.2491  -34.3777   -9.6527 C   0  0  0  0  0  0  0  0  0  0  0  0
   25.2271  -32.7548   -8.0262 C   0  0  0  0  0  0  0  0  0  0  0  0
   23.9050  -32.4912   -7.3638 C   0  0  2  0  0  0  0  0  0  0  0  0
   23.3068  -31.2514   -7.8227 N   0  0  0  0  0  0  0  0  0  0  0  0
   24.0658  -32.4873   -5.8786 C   0  0  0  0  0  0  0  0  0  0  0  0
   24.4474  -31.3976   -5.3793 O   0  0  0  0  0  0  0  0  0  0  0  0
   23.8262  -33.5846   -5.0354 N   0  0  0  0  0  0  0  0  0  0  0  0
   23.9486  -33.4784   -3.5891 C   0  0  1  0  0  0  0  0  0  0  0  0
   22.6534  -33.6986   -2.8997 C   0  0  0  0  0  0  0  0  0  0  0  0
   21.8731  -32.4332   -2.6981 C   0  0  0  0  0  0  0  0  0  0  0  0
   20.5571  -32.7364   -2.0195 C   0  0  0  0  0  0  0  0  0  0  0  0
   20.2751  -33.8832   -1.6162 O   0  0  0  0  0  0  0  0  0  0  0  0
   24.9352  -34.5075   -3.1476 C   0  0  0  0  0  0  0  0  0  0  0  0
   25.2368  -35.5113   -3.8388 O   0  0  0  0  0  0  0  0  0  0  0  0
   19.6589  -31.7163   -1.8483 O   0  0  0  0  0  0  0  0  0  0  0  0
   25.6018  -34.3954   -1.8836 N   0  0  0  0  0  0  0  0  0  0  0  0
   26.5468  -35.4528   -1.5052 C   0  0  1  0  0  0  0  0  0  0  0  0
   27.5142  -34.9303   -0.4628 C   0  0  0  0  0  0  0  0  0  0  0  0
   28.5495  -35.9250   -0.0589 C   0  0  0  0  0  0  0  0  0  0  0  0
   29.3752  -35.2833    1.0312 C   0  0  0  0  0  0  0  0  0  0  0  0
   29.1578  -34.1332    1.4479 O   0  0  0  0  0  0  0  0  0  0  0  0
   25.7753  -36.6228   -1.0883 C   0  0  0  0  0  0  0  0  0  0  0  0
   24.7558  -36.4827   -0.3740 O   0  0  0  0  0  0  0  0  0  0  0  0
   30.4164  -36.0079    1.5874 O   0  0  0  0  0  0  0  0  0  0  0  0
   26.1546  -37.8835   -1.4726 O   0  0  0  0  0  0  0  0  0  0  0  0
  2  1  1  1
  2  3  1  0
  4  2  1  0
  4  5  1  0
  5  7  1  0
  5  6  1  6
  7  8  2  0
  9 10  1  0
  9  7  1  0
 11 12  1  0
 10 11  1  1
 12 13  1  0
 13 17  1  0
 13 14  2  0
 15 16  2  0
 15 10  1  0
 18 15  1  0
 19 24  1  0
 19 18  1  0
 19 20  1  1
 21 22  1  0
 21 20  1  0
 22 23  2  0
 24 27  1  0
 25 24  2  0
 26 22  1  0
M  END
$$$$
