LEE.pdb
     RDKit          3D

 27 26  0  0  1  0  0  0  0  0999 V2000
   28.1814  -18.8845   -7.2683 C   0  0  0  0  0  0  0  0  0  0  0  0
   27.9925  -19.7879   -8.4578 C   0  0  1  0  0  0  0  0  0  0  0  0
   29.0012  -20.9406   -8.4027 C   0  0  0  0  0  0  0  0  0  0  0  0
   26.5935  -20.2911   -8.5324 C   0  0  0  0  0  0  0  0  0  0  0  0
   26.2842  -21.0279   -9.8043 C   0  0  2  0  0  0  0  0  0  0  0  0
   27.3294  -20.8587  -10.7964 N   0  0  0  0  0  0  0  0  0  0  0  0
   24.9618  -20.5899  -10.3437 C   0  0  0  0  0  0  0  0  0  0  0  0
   24.3334  -19.7661   -9.6303 O   0  0  0  0  0  0  0  0  0  0  0  0
   24.3966  -21.0246  -11.5538 N   0  0  0  0  0  0  0  0  0  0  0  0
   23.0930  -20.5566  -12.0004 C   0  0  1  0  0  0  0  0  0  0  0  0
   23.1181  -20.0885  -13.4081 C   0  0  0  0  0  0  0  0  0  0  0  0
   21.7834  -19.5996  -13.8880 C   0  0  0  0  0  0  0  0  0  0  0  0
   21.8564  -19.2454  -15.3554 C   0  0  0  0  0  0  0  0  0  0  0  0
   22.9144  -19.3609  -16.0070 O   0  0  0  0  0  0  0  0  0  0  0  0
   22.1391  -21.6964  -11.8658 C   0  0  0  0  0  0  0  0  0  0  0  0
   22.4169  -22.8698  -12.2154 O   0  0  0  0  0  0  0  0  0  0  0  0
   20.7240  -18.7869  -15.9751 O   0  0  0  0  0  0  0  0  0  0  0  0
   20.8293  -21.5008  -11.3171 N   0  0  0  0  0  0  0  0  0  0  0  0
   19.9392  -22.6641  -11.2237 C   0  0  1  0  0  0  0  0  0  0  0  0
   19.4665  -22.8377   -9.7948 C   0  0  0  0  0  0  0  0  0  0  0  0
   18.5983  -24.0338   -9.5954 C   0  0  0  0  0  0  0  0  0  0  0  0
   18.2338  -24.0742   -8.1300 C   0  0  0  0  0  0  0  0  0  0  0  0
   18.9221  -24.6693   -7.2840 O   0  0  0  0  0  0  0  0  0  0  0  0
   18.8672  -22.4950  -12.2037 C   0  0  0  0  0  0  0  0  0  0  0  0
   18.3923  -21.3575  -12.4272 O   0  0  0  0  0  0  0  0  0  0  0  0
   17.0853  -23.4207   -7.7145 O   0  0  0  0  0  0  0  0  0  0  0  0
   18.3701  -23.5737  -12.8893 O   0  0  0  0  0  0  0  0  0  0  0  0
  2  1  1  1
  2  3  1  0
  4  2  1  0
  4  5  1  0
  5  7  1  0
  5  6  1  6
  7  8  2  0
  9 10  1  0
  9  7  1  0
 11 12  1  0
 10 11  1  6
 12 13  1  0
 13 17  1  0
 13 14  2  0
 15 16  2  0
 15 10  1  0
 18 15  1  0
 19 24  1  0
 19 18  1  0
 19 20  1  1
 21 22  1  0
 21 20  1  0
 22 23  2  0
 24 27  1  0
 25 24  2  0
 26 22  1  0
M  END
$$$$
