LEE.pdb
     RDKit          3D

 27 26  0  0  1  0  0  0  0  0999 V2000
   12.2808   -6.8052  -10.3533 C   0  0  0  0  0  0  0  0  0  0  0  0
   12.5787   -7.5468   -9.0775 C   0  0  1  0  0  0  0  0  0  0  0  0
   11.4023   -8.4617   -8.7190 C   0  0  0  0  0  0  0  0  0  0  0  0
   13.8508   -8.3123   -9.1864 C   0  0  0  0  0  0  0  0  0  0  0  0
   13.7608   -9.5068  -10.0927 C   0  0  2  0  0  0  0  0  0  0  0  0
   13.4130  -10.7134   -9.3658 N   0  0  0  0  0  0  0  0  0  0  0  0
   15.0434   -9.6848  -10.8376 C   0  0  0  0  0  0  0  0  0  0  0  0
   16.0414   -9.9817  -10.1318 O   0  0  0  0  0  0  0  0  0  0  0  0
   15.1989   -9.5462  -12.2266 N   0  0  0  0  0  0  0  0  0  0  0  0
   16.4697   -9.8130  -12.8839 C   0  0  1  0  0  0  0  0  0  0  0  0
   16.3266  -10.7618  -14.0155 C   0  0  0  0  0  0  0  0  0  0  0  0
   16.1837  -12.1877  -13.5715 C   0  0  0  0  0  0  0  0  0  0  0  0
   16.0473  -13.0950  -14.7725 C   0  0  0  0  0  0  0  0  0  0  0  0
   14.9312  -13.4331  -15.2167 O   0  0  0  0  0  0  0  0  0  0  0  0
   16.9963   -8.5091  -13.3837 C   0  0  0  0  0  0  0  0  0  0  0  0
   16.2652   -7.6183  -13.8818 O   0  0  0  0  0  0  0  0  0  0  0  0
   17.1868  -13.5511  -15.3809 O   0  0  0  0  0  0  0  0  0  0  0  0
   18.3954   -8.2045  -13.3163 N   0  0  0  0  0  0  0  0  0  0  0  0
   18.8490   -6.9187  -13.8598 C   0  0  1  0  0  0  0  0  0  0  0  0
   20.1679   -6.5275  -13.2249 C   0  0  0  0  0  0  0  0  0  0  0  0
   20.6970   -5.2194  -13.7079 C   0  0  0  0  0  0  0  0  0  0  0  0
   22.0409   -5.0174  -13.0485 C   0  0  0  0  0  0  0  0  0  0  0  0
   22.5398   -5.8511  -12.2740 O   0  0  0  0  0  0  0  0  0  0  0  0
   18.8835   -7.0292  -15.3174 C   0  0  0  0  0  0  0  0  0  0  0  0
   19.0926   -8.1388  -15.8599 O   0  0  0  0  0  0  0  0  0  0  0  0
   22.7439   -3.8551  -13.3193 O   0  0  0  0  0  0  0  0  0  0  0  0
   18.6873   -5.9252  -16.1070 O   0  0  0  0  0  0  0  0  0  0  0  0
  2  1  1  6
  2  3  1  0
  4  2  1  0
  4  5  1  0
  5  7  1  0
  5  6  1  1
  7  8  2  0
  9 10  1  0
  9  7  1  0
 11 12  1  0
 10 11  1  6
 12 13  1  0
 13 17  1  0
 13 14  2  0
 15 16  2  0
 15 10  1  0
 18 15  1  0
 19 24  1  0
 19 18  1  0
 19 20  1  1
 21 22  1  0
 21 20  1  0
 22 23  2  0
 24 27  1  0
 25 24  2  0
 26 22  1  0
M  END
$$$$
