LEE.pdb
     RDKit          3D

 27 26  0  0  1  0  0  0  0  0999 V2000
   12.6763   -8.8780  -17.5305 C   0  0  0  0  0  0  0  0  0  0  0  0
   13.8265   -9.7360  -17.0752 C   0  0  1  0  0  0  0  0  0  0  0  0
   14.4126  -10.4988  -18.2684 C   0  0  0  0  0  0  0  0  0  0  0  0
   14.8643   -8.9206  -16.3866 C   0  0  0  0  0  0  0  0  0  0  0  0
   16.0380   -9.7225  -15.9012 C   0  0  2  0  0  0  0  0  0  0  0  0
   15.7208  -10.4759  -14.7024 N   0  0  0  0  0  0  0  0  0  0  0  0
   17.2127   -8.8282  -15.6730 C   0  0  0  0  0  0  0  0  0  0  0  0
   17.1597   -8.1213  -14.6338 O   0  0  0  0  0  0  0  0  0  0  0  0
   18.3319   -8.7306  -16.5158 N   0  0  0  0  0  0  0  0  0  0  0  0
   19.4878   -7.9206  -16.1610 C   0  0  1  0  0  0  0  0  0  0  0  0
   20.7293   -8.3982  -16.8182 C   0  0  0  0  0  0  0  0  0  0  0  0
   21.9460   -7.6213  -16.4097 C   0  0  0  0  0  0  0  0  0  0  0  0
   23.1624   -8.1361  -17.1441 C   0  0  0  0  0  0  0  0  0  0  0  0
   24.2929   -7.6359  -16.9737 O   0  0  0  0  0  0  0  0  0  0  0  0
   19.1994   -6.5199  -16.5874 C   0  0  0  0  0  0  0  0  0  0  0  0
   18.4787   -6.2371  -17.5759 O   0  0  0  0  0  0  0  0  0  0  0  0
   23.0065   -9.1803  -18.0170 O   0  0  0  0  0  0  0  0  0  0  0  0
   19.7439   -5.4042  -15.8709 N   0  0  0  0  0  0  0  0  0  0  0  0
   19.3312   -4.0553  -16.2764 C   0  0  1  0  0  0  0  0  0  0  0  0
   17.8582   -3.8570  -15.9824 C   0  0  0  0  0  0  0  0  0  0  0  0
   17.3876   -2.4603  -16.2108 C   0  0  0  0  0  0  0  0  0  0  0  0
   15.9335   -2.4135  -15.8045 C   0  0  0  0  0  0  0  0  0  0  0  0
   15.4627   -1.5037  -15.1015 O   0  0  0  0  0  0  0  0  0  0  0  0
   20.2178   -3.0938  -15.6226 C   0  0  0  0  0  0  0  0  0  0  0  0
   20.1893   -1.8857  -15.9528 O   0  0  0  0  0  0  0  0  0  0  0  0
   15.0924   -3.4268  -16.2340 O   0  0  0  0  0  0  0  0  0  0  0  0
   21.0876   -3.4990  -14.6427 O   0  0  0  0  0  0  0  0  0  0  0  0
  2  1  1  6
  2  3  1  0
  4  2  1  0
  4  5  1  0
  5  7  1  0
  5  6  1  1
  7  8  2  0
  9 10  1  0
  9  7  1  0
 11 12  1  0
 10 11  1  6
 12 13  1  0
 13 17  1  0
 13 14  2  0
 15 16  2  0
 15 10  1  0
 18 15  1  0
 19 24  1  0
 19 18  1  0
 19 20  1  1
 21 22  1  0
 21 20  1  0
 22 23  2  0
 24 27  1  0
 25 24  2  0
 26 22  1  0
M  END
$$$$
