LEE.pdb
     RDKit          3D

 27 26  0  0  1  0  0  0  0  0999 V2000
   28.1077  -11.3291  -16.5045 C   0  0  0  0  0  0  0  0  0  0  0  0
   26.7419  -11.9413  -16.6664 C   0  0  1  0  0  0  0  0  0  0  0  0
   26.4750  -12.9302  -15.5261 C   0  0  0  0  0  0  0  0  0  0  0  0
   25.6883  -10.8919  -16.7354 C   0  0  0  0  0  0  0  0  0  0  0  0
   24.3013  -11.4400  -16.9149 C   0  0  2  0  0  0  0  0  0  0  0  0
   24.1870  -12.2409  -18.1194 N   0  0  0  0  0  0  0  0  0  0  0  0
   23.3051  -10.3268  -16.9189 C   0  0  0  0  0  0  0  0  0  0  0  0
   23.2220   -9.6800  -17.9946 O   0  0  0  0  0  0  0  0  0  0  0  0
   22.4853   -9.9700  -15.8358 N   0  0  0  0  0  0  0  0  0  0  0  0
   21.5131   -8.8916  -15.9356 C   0  0  1  0  0  0  0  0  0  0  0  0
   20.2017   -9.2638  -15.3498 C   0  0  0  0  0  0  0  0  0  0  0  0
   19.2020   -8.1459  -15.3909 C   0  0  0  0  0  0  0  0  0  0  0  0
   17.8633   -8.6267  -14.8800 C   0  0  0  0  0  0  0  0  0  0  0  0
   17.0121   -9.1299  -15.6413 O   0  0  0  0  0  0  0  0  0  0  0  0
   22.0741   -7.7158  -15.2077 C   0  0  0  0  0  0  0  0  0  0  0  0
   22.5923   -7.7971  -14.0670 O   0  0  0  0  0  0  0  0  0  0  0  0
   17.5895   -8.5015  -13.5436 O   0  0  0  0  0  0  0  0  0  0  0  0
   22.0479   -6.4066  -15.7908 N   0  0  0  0  0  0  0  0  0  0  0  0
   22.6250   -5.2970  -15.0226 C   0  0  1  0  0  0  0  0  0  0  0  0
   23.0359   -4.1801  -15.9602 C   0  0  0  0  0  0  0  0  0  0  0  0
   21.8888   -3.3669  -16.4574 C   0  0  0  0  0  0  0  0  0  0  0  0
   22.4571   -2.3363  -17.4043 C   0  0  0  0  0  0  0  0  0  0  0  0
   22.4755   -1.1222  -17.1413 O   0  0  0  0  0  0  0  0  0  0  0  0
   21.6605   -4.9062  -13.9955 C   0  0  0  0  0  0  0  0  0  0  0  0
   20.4424   -5.1556  -14.1484 O   0  0  0  0  0  0  0  0  0  0  0  0
   22.9782   -2.7641  -18.6143 O   0  0  0  0  0  0  0  0  0  0  0  0
   22.0740   -4.2656  -12.8556 O   0  0  0  0  0  0  0  0  0  0  0  0
  2  1  1  1
  2  3  1  0
  4  2  1  0
  4  5  1  0
  5  7  1  0
  5  6  1  6
  7  8  2  0
  9 10  1  0
  9  7  1  0
 11 12  1  0
 10 11  1  1
 12 13  1  0
 13 17  1  0
 13 14  2  0
 15 16  2  0
 15 10  1  0
 18 15  1  0
 19 24  1  0
 19 18  1  0
 19 20  1  6
 21 22  1  0
 21 20  1  0
 22 23  2  0
 24 27  1  0
 25 24  2  0
 26 22  1  0
M  END
$$$$
