LEE.pdb
     RDKit          3D

 27 26  0  0  1  0  0  0  0  0999 V2000
   27.8342  -18.8574   -5.4012 C   0  0  0  0  0  0  0  0  0  0  0  0
   27.9056  -19.9558   -6.4282 C   0  0  1  0  0  0  0  0  0  0  0  0
   27.4983  -21.2904   -5.7940 C   0  0  0  0  0  0  0  0  0  0  0  0
   27.0644  -19.6368   -7.6142 C   0  0  0  0  0  0  0  0  0  0  0  0
   27.0994  -20.6938   -8.6809 C   0  0  2  0  0  0  0  0  0  0  0  0
   28.4485  -20.9420   -9.1537 N   0  0  0  0  0  0  0  0  0  0  0  0
   26.2004  -20.3132   -9.8116 C   0  0  0  0  0  0  0  0  0  0  0  0
   26.2679  -19.1105  -10.1743 O   0  0  0  0  0  0  0  0  0  0  0  0
   25.3163  -21.1827  -10.4712 N   0  0  0  0  0  0  0  0  0  0  0  0
   24.7608  -20.8618  -11.7775 C   0  0  1  0  0  0  0  0  0  0  0  0
   25.3274  -21.7141  -12.8517 C   0  0  0  0  0  0  0  0  0  0  0  0
   24.8710  -21.3112  -14.2229 C   0  0  0  0  0  0  0  0  0  0  0  0
   25.4817  -22.2224  -15.2627 C   0  0  0  0  0  0  0  0  0  0  0  0
   24.9132  -22.4524  -16.3495 O   0  0  0  0  0  0  0  0  0  0  0  0
   23.2848  -21.0670  -11.6979 C   0  0  0  0  0  0  0  0  0  0  0  0
   22.7563  -22.0218  -11.0770 O   0  0  0  0  0  0  0  0  0  0  0  0
   26.6920  -22.8046  -14.9928 O   0  0  0  0  0  0  0  0  0  0  0  0
   22.3787  -20.1616  -12.3413 N   0  0  0  0  0  0  0  0  0  0  0  0
   20.9391  -20.3699  -12.1453 C   0  0  1  0  0  0  0  0  0  0  0  0
   20.1744  -19.1440  -12.6011 C   0  0  0  0  0  0  0  0  0  0  0  0
   20.0157  -19.0568  -14.0815 C   0  0  0  0  0  0  0  0  0  0  0  0
   19.0489  -17.9289  -14.3552 C   0  0  0  0  0  0  0  0  0  0  0  0
   17.8514  -17.9781  -14.0279 O   0  0  0  0  0  0  0  0  0  0  0  0
   20.5636  -21.6094  -12.8240 C   0  0  0  0  0  0  0  0  0  0  0  0
   19.5513  -22.2480  -12.4540 O   0  0  0  0  0  0  0  0  0  0  0  0
   19.5183  -16.7948  -14.9971 O   0  0  0  0  0  0  0  0  0  0  0  0
   21.3100  -22.0871  -13.8707 O   0  0  0  0  0  0  0  0  0  0  0  0
  2  1  1  1
  2  3  1  0
  4  2  1  0
  4  5  1  0
  5  7  1  0
  5  6  1  6
  7  8  2  0
  9 10  1  0
  9  7  1  0
 11 12  1  0
 10 11  1  6
 12 13  1  0
 13 17  1  0
 13 14  2  0
 15 16  2  0
 15 10  1  0
 18 15  1  0
 19 24  1  0
 19 18  1  0
 19 20  1  6
 21 22  1  0
 21 20  1  0
 22 23  2  0
 24 27  1  0
 25 24  2  0
 26 22  1  0
M  END
$$$$
