QAV.pdb
     RDKit          3D

 22 21  0  0  1  0  0  0  0  0999 V2000
   17.2388  -16.7115  -18.9398 N   0  0  0  0  0  0  0  0  0  0  0  0
   17.2986  -17.5275  -17.7610 C   0  0  0  0  0  0  0  0  0  0  0  0
   16.5354  -18.5105  -17.7304 O   0  0  0  0  0  0  0  0  0  0  0  0
   18.2300  -17.1457  -16.7057 C   0  0  0  0  0  0  0  0  0  0  0  0
   19.0771  -15.9349  -16.9630 C   0  0  0  0  0  0  0  0  0  0  0  0
   18.4961  -14.7331  -16.3217 C   0  0  2  0  0  0  0  0  0  0  0  0
   17.1436  -14.4800  -16.7258 N   0  0  0  0  0  0  0  0  0  0  0  0
   19.2936  -13.5000  -16.5703 C   0  0  0  0  0  0  0  0  0  0  0  0
   20.4781  -13.4275  -16.1626 O   0  0  0  0  0  0  0  0  0  0  0  0
   18.7961  -10.2775  -18.4060 C   0  0  0  0  0  0  0  0  0  0  0  0
   19.6017  -11.1975  -17.4855 C   0  0  2  0  0  0  0  0  0  0  0  0
   18.7785  -12.3695  -17.2611 N   0  0  0  0  0  0  0  0  0  0  0  0
   19.9694  -10.5132  -16.2319 C   0  0  0  0  0  0  0  0  0  0  0  0
   19.1226  -10.5172  -15.3026 O   0  0  0  0  0  0  0  0  0  0  0  0
   24.0018   -9.3841  -15.4509 C   0  0  0  0  0  0  0  0  0  0  0  0
   22.9784   -9.7297  -14.3968 C   0  0  2  0  0  0  0  0  0  0  0  0
   22.9699  -11.2259  -14.1796 C   0  0  0  0  0  0  0  0  0  0  0  0
   21.5855   -9.2281  -14.7797 C   0  0  2  0  0  0  0  0  0  0  0  0
   21.2003   -9.8573  -16.0040 N   0  0  0  0  0  0  0  0  0  0  0  0
   21.5695   -7.7494  -14.8599 C   0  0  0  0  0  0  0  0  0  0  0  0
   21.6859   -7.1830  -15.9736 O   0  0  0  0  0  0  0  0  0  0  0  0
   21.4284   -6.9555  -13.7331 O   0  0  0  0  0  0  0  0  0  0  0  0
  1  2  1  0
  2  3  2  0
  2  4  1  0
  4  5  1  0
  5  6  1  0
  6  8  1  0
  6  7  1  6
  8  9  2  0
 11 10  1  6
 11 13  1  0
 12  8  1  0
 12 11  1  0
 13 14  2  0
 16 15  1  6
 16 18  1  0
 17 16  1  0
 18 20  1  0
 18 19  1  6
 19 13  1  0
 20 21  2  0
 20 22  1  0
M  END
$$$$
