QAV.pdb
     RDKit          3D

 22 21  0  0  1  0  0  0  0  0999 V2000
   19.8237  -15.2663  -14.7792 N   0  0  0  0  0  0  0  0  0  0  0  0
   19.7795  -16.2131  -15.8567 C   0  0  0  0  0  0  0  0  0  0  0  0
   19.7924  -17.4158  -15.5358 O   0  0  0  0  0  0  0  0  0  0  0  0
   19.7283  -15.7013  -17.2214 C   0  0  0  0  0  0  0  0  0  0  0  0
   19.6576  -14.2113  -17.3779 C   0  0  0  0  0  0  0  0  0  0  0  0
   18.2710  -13.7228  -17.2003 C   0  0  2  0  0  0  0  0  0  0  0  0
   17.3913  -14.1358  -18.2551 N   0  0  0  0  0  0  0  0  0  0  0  0
   18.1889  -12.2405  -17.0808 C   0  0  0  0  0  0  0  0  0  0  0  0
   18.7167  -11.5116  -17.9552 O   0  0  0  0  0  0  0  0  0  0  0  0
   16.4100   -9.7937  -14.8983 C   0  0  0  0  0  0  0  0  0  0  0  0
   17.4807  -10.1373  -15.9368 C   0  0  2  0  0  0  0  0  0  0  0  0
   17.5301  -11.5845  -16.0056 N   0  0  0  0  0  0  0  0  0  0  0  0
   18.7821   -9.5407  -15.5826 C   0  0  0  0  0  0  0  0  0  0  0  0
   19.5176  -10.1872  -14.7940 O   0  0  0  0  0  0  0  0  0  0  0  0
   20.1657   -5.9224  -17.4600 C   0  0  0  0  0  0  0  0  0  0  0  0
   21.0743   -7.0296  -16.9839 C   0  0  2  0  0  0  0  0  0  0  0  0
   21.2734   -8.0284  -18.1014 C   0  0  0  0  0  0  0  0  0  0  0  0
   20.5186   -7.7149  -15.7349 C   0  0  2  0  0  0  0  0  0  0  0  0
   19.2570   -8.3003  -16.0652 N   0  0  0  0  0  0  0  0  0  0  0  0
   20.4337   -6.7556  -14.6099 C   0  0  0  0  0  0  0  0  0  0  0  0
   21.4840   -6.3375  -14.0649 O   0  0  0  0  0  0  0  0  0  0  0  0
   19.2186   -6.2951  -14.1291 O   0  0  0  0  0  0  0  0  0  0  0  0
  1  2  1  0
  2  3  2  0
  2  4  1  0
  4  5  1  0
  5  6  1  0
  6  8  1  0
  6  7  1  6
  8  9  2  0
 11 10  1  1
 11 13  1  0
 12  8  1  0
 12 11  1  0
 13 14  2  0
 16 15  1  6
 16 18  1  0
 17 16  1  0
 18 20  1  0
 18 19  1  6
 19 13  1  0
 20 21  2  0
 20 22  1  0
M  END
$$$$
