QAV.pdb
     RDKit          3D

 22 21  0  0  1  0  0  0  0  0999 V2000
   19.2490  -14.7889  -15.9479 N   0  0  0  0  0  0  0  0  0  0  0  0
   19.4420  -13.6813  -16.8396 C   0  0  0  0  0  0  0  0  0  0  0  0
   20.6157  -13.4445  -17.1801 O   0  0  0  0  0  0  0  0  0  0  0  0
   18.2682  -12.9287  -17.2669 C   0  0  0  0  0  0  0  0  0  0  0  0
   18.3991  -11.4347  -17.2883 C   0  0  0  0  0  0  0  0  0  0  0  0
   18.1677  -10.8610  -15.9428 C   0  0  2  0  0  0  0  0  0  0  0  0
   16.8363  -11.0847  -15.4589 N   0  0  0  0  0  0  0  0  0  0  0  0
   18.4451   -9.3990  -15.8800 C   0  0  0  0  0  0  0  0  0  0  0  0
   19.5663   -8.9586  -16.2312 O   0  0  0  0  0  0  0  0  0  0  0  0
   16.4546   -6.3194  -15.1295 C   0  0  0  0  0  0  0  0  0  0  0  0
   17.7465   -7.0248  -15.5493 C   0  0  2  0  0  0  0  0  0  0  0  0
   17.4888   -8.4467  -15.4337 N   0  0  0  0  0  0  0  0  0  0  0  0
   18.8889   -6.5859  -14.7263 C   0  0  0  0  0  0  0  0  0  0  0  0
   18.9701   -7.0468  -13.5594 O   0  0  0  0  0  0  0  0  0  0  0  0
   23.5556   -5.2812  -14.4765 C   0  0  0  0  0  0  0  0  0  0  0  0
   22.2916   -5.6451  -15.2169 C   0  0  2  0  0  0  0  0  0  0  0  0
   22.2665   -4.9262  -16.5467 C   0  0  0  0  0  0  0  0  0  0  0  0
   21.0444   -5.3142  -14.3964 C   0  0  2  0  0  0  0  0  0  0  0  0
   19.8925   -5.6884  -15.1557 N   0  0  0  0  0  0  0  0  0  0  0  0
   21.0415   -3.8850  -14.0084 C   0  0  0  0  0  0  0  0  0  0  0  0
   21.8279   -3.4774  -13.1196 O   0  0  0  0  0  0  0  0  0  0  0  0
   20.1891   -2.9665  -14.5998 O   0  0  0  0  0  0  0  0  0  0  0  0
  1  2  1  0
  2  3  2  0
  2  4  1  0
  4  5  1  0
  5  6  1  0
  6  8  1  0
  6  7  1  6
  8  9  2  0
 11 10  1  1
 11 13  1  0
 12  8  1  0
 12 11  1  0
 13 14  2  0
 16 15  1  1
 16 18  1  0
 17 16  1  0
 18 20  1  0
 18 19  1  6
 19 13  1  0
 20 21  2  0
 20 22  1  0
M  END
$$$$
