QAV.pdb
     RDKit          3D

 22 21  0  0  1  0  0  0  0  0999 V2000
   17.1075  -15.0810  -14.8107 N   0  0  0  0  0  0  0  0  0  0  0  0
   17.9019  -16.1497  -15.3453 C   0  0  0  0  0  0  0  0  0  0  0  0
   17.4877  -17.3046  -15.1346 O   0  0  0  0  0  0  0  0  0  0  0  0
   19.1151  -15.8059  -16.0780 C   0  0  0  0  0  0  0  0  0  0  0  0
   19.4304  -14.3453  -16.2077 C   0  0  0  0  0  0  0  0  0  0  0  0
   18.6636  -13.7318  -17.3161 C   0  0  2  0  0  0  0  0  0  0  0  0
   19.0144  -14.2619  -18.6017 N   0  0  0  0  0  0  0  0  0  0  0  0
   18.8064  -12.2502  -17.3700 C   0  0  0  0  0  0  0  0  0  0  0  0
   19.8332  -11.7381  -17.8778 O   0  0  0  0  0  0  0  0  0  0  0  0
   16.6316   -9.2992  -16.6782 C   0  0  0  0  0  0  0  0  0  0  0  0
   17.9999   -9.9222  -16.9654 C   0  0  2  0  0  0  0  0  0  0  0  0
   17.8215  -11.3574  -16.8665 N   0  0  0  0  0  0  0  0  0  0  0  0
   19.0266   -9.4122  -16.0375 C   0  0  0  0  0  0  0  0  0  0  0  0
   19.1473   -9.9985  -14.9319 O   0  0  0  0  0  0  0  0  0  0  0  0
   22.0326   -6.6716  -17.3097 C   0  0  0  0  0  0  0  0  0  0  0  0
   22.1696   -7.6182  -16.1420 C   0  0  2  0  0  0  0  0  0  0  0  0
   22.6785   -8.9530  -16.6373 C   0  0  0  0  0  0  0  0  0  0  0  0
   20.8458   -7.7844  -15.3949 C   0  0  2  0  0  0  0  0  0  0  0  0
   19.8789   -8.3168  -16.3033 N   0  0  0  0  0  0  0  0  0  0  0  0
   20.4250   -6.4995  -14.7907 C   0  0  0  0  0  0  0  0  0  0  0  0
   19.5689   -5.7877  -15.3697 O   0  0  0  0  0  0  0  0  0  0  0  0
   20.9497   -6.0467  -13.5909 O   0  0  0  0  0  0  0  0  0  0  0  0
  1  2  1  0
  2  3  2  0
  2  4  1  0
  4  5  1  0
  5  6  1  0
  6  8  1  0
  6  7  1  6
  8  9  2  0
 11 10  1  1
 11 13  1  0
 12  8  1  0
 12 11  1  0
 13 14  2  0
 16 15  1  6
 16 18  1  0
 17 16  1  0
 18 20  1  0
 18 19  1  6
 19 13  1  0
 20 21  2  0
 20 22  1  0
M  END
$$$$
