QAV.pdb
     RDKit          3D

 22 21  0  0  1  0  0  0  0  0999 V2000
   18.4224  -10.2573  -21.1975 N   0  0  0  0  0  0  0  0  0  0  0  0
   19.5968  -11.0512  -21.4205 C   0  0  0  0  0  0  0  0  0  0  0  0
   19.6984  -11.5845  -22.5407 O   0  0  0  0  0  0  0  0  0  0  0  0
   20.5618  -11.1734  -20.3339 C   0  0  0  0  0  0  0  0  0  0  0  0
   20.2793  -10.3812  -19.0921 C   0  0  0  0  0  0  0  0  0  0  0  0
   20.3410  -11.2401  -17.8874 C   0  0  2  0  0  0  0  0  0  0  0  0
   19.1372  -11.9888  -17.6699 N   0  0  0  0  0  0  0  0  0  0  0  0
   20.6437  -10.4762  -16.6451 C   0  0  0  0  0  0  0  0  0  0  0  0
   19.7331   -9.8355  -16.0665 O   0  0  0  0  0  0  0  0  0  0  0  0
   23.5534  -10.0967  -14.3370 C   0  0  0  0  0  0  0  0  0  0  0  0
   22.1812   -9.6595  -14.8554 C   0  0  2  0  0  0  0  0  0  0  0  0
   21.9382  -10.4285  -16.0600 N   0  0  0  0  0  0  0  0  0  0  0  0
   22.1360   -8.2045  -15.0917 C   0  0  0  0  0  0  0  0  0  0  0  0
   22.5993   -7.7823  -16.1816 O   0  0  0  0  0  0  0  0  0  0  0  0
   19.2596   -6.0335  -15.3716 C   0  0  0  0  0  0  0  0  0  0  0  0
   20.1120   -5.3870  -14.3068 C   0  0  2  0  0  0  0  0  0  0  0  0
   20.0124   -3.8835  -14.4311 C   0  0  0  0  0  0  0  0  0  0  0  0
   21.5681   -5.8447  -14.3977 C   0  0  2  0  0  0  0  0  0  0  0  0
   21.6111   -7.2574  -14.1835 N   0  0  0  0  0  0  0  0  0  0  0  0
   22.4111   -5.0895  -13.4425 C   0  0  0  0  0  0  0  0  0  0  0  0
   22.8461   -3.9547  -13.7552 O   0  0  0  0  0  0  0  0  0  0  0  0
   22.7426   -5.5975  -12.1968 O   0  0  0  0  0  0  0  0  0  0  0  0
  1  2  1  0
  2  3  2  0
  2  4  1  0
  4  5  1  0
  5  6  1  0
  6  8  1  0
  6  7  1  1
  8  9  2  0
 11 10  1  6
 11 13  1  0
 12  8  1  0
 12 11  1  0
 13 14  2  0
 16 15  1  6
 16 18  1  0
 17 16  1  0
 18 20  1  0
 18 19  1  1
 19 13  1  0
 20 21  2  0
 20 22  1  0
M  END
$$$$
