QAV.pdb
     RDKit          3D

 22 21  0  0  1  0  0  0  0  0999 V2000
   16.7369  -15.2322  -14.7695 N   0  0  0  0  0  0  0  0  0  0  0  0
   16.7564  -16.3381  -15.6837 C   0  0  0  0  0  0  0  0  0  0  0  0
   15.8512  -17.1820  -15.5492 O   0  0  0  0  0  0  0  0  0  0  0  0
   17.8202  -16.3891  -16.6800 C   0  0  0  0  0  0  0  0  0  0  0  0
   18.7988  -15.2524  -16.6768 C   0  0  0  0  0  0  0  0  0  0  0  0
   18.7518  -14.5063  -17.9551 C   0  0  2  0  0  0  0  0  0  0  0  0
   19.3358  -15.2283  -19.0480 N   0  0  0  0  0  0  0  0  0  0  0  0
   19.4118  -13.1736  -17.8735 C   0  0  0  0  0  0  0  0  0  0  0  0
   20.6372  -13.0964  -17.6151 O   0  0  0  0  0  0  0  0  0  0  0  0
   18.4598   -9.6331  -18.5786 C   0  0  0  0  0  0  0  0  0  0  0  0
   19.4089  -10.6795  -17.9895 C   0  0  2  0  0  0  0  0  0  0  0  0
   18.7169  -11.9503  -18.0765 N   0  0  0  0  0  0  0  0  0  0  0  0
   19.7946  -10.3361  -16.6081 C   0  0  0  0  0  0  0  0  0  0  0  0
   19.0220  -10.7010  -15.6858 O   0  0  0  0  0  0  0  0  0  0  0  0
   23.6609   -8.7251  -15.7477 C   0  0  0  0  0  0  0  0  0  0  0  0
   22.8671   -9.5774  -14.7877 C   0  0  2  0  0  0  0  0  0  0  0  0
   23.1833  -11.0351  -15.0343 C   0  0  0  0  0  0  0  0  0  0  0  0
   21.3656   -9.3177  -14.9148 C   0  0  2  0  0  0  0  0  0  0  0  0
   20.9654   -9.6298  -16.2512 N   0  0  0  0  0  0  0  0  0  0  0  0
   21.0440   -7.9255  -14.5255 C   0  0  0  0  0  0  0  0  0  0  0  0
   20.8760   -7.0523  -15.4109 O   0  0  0  0  0  0  0  0  0  0  0  0
   20.9197   -7.5453  -13.1989 O   0  0  0  0  0  0  0  0  0  0  0  0
  1  2  1  0
  2  3  2  0
  2  4  1  0
  4  5  1  0
  5  6  1  0
  6  8  1  0
  6  7  1  6
  8  9  2  0
 11 10  1  1
 11 13  1  0
 12  8  1  0
 12 11  1  0
 13 14  2  0
 16 15  1  6
 16 18  1  0
 17 16  1  0
 18 20  1  0
 18 19  1  6
 19 13  1  0
 20 21  2  0
 20 22  1  0
M  END
$$$$
