QAV.pdb
     RDKit          3D

 22 21  0  0  1  0  0  0  0  0999 V2000
   18.0164  -13.7622  -21.5485 N   0  0  0  0  0  0  0  0  0  0  0  0
   17.8647  -14.2991  -20.2264 C   0  0  0  0  0  0  0  0  0  0  0  0
   16.7125  -14.6345  -19.8954 O   0  0  0  0  0  0  0  0  0  0  0  0
   19.0517  -14.4041  -19.3856 C   0  0  0  0  0  0  0  0  0  0  0  0
   19.0269  -13.6474  -18.0908 C   0  0  0  0  0  0  0  0  0  0  0  0
   20.2849  -13.8451  -17.3349 C   0  0  2  0  0  0  0  0  0  0  0  0
   20.3420  -15.1104  -16.6620 N   0  0  0  0  0  0  0  0  0  0  0  0
   20.5327  -12.7735  -16.3306 C   0  0  0  0  0  0  0  0  0  0  0  0
   19.6447  -12.4823  -15.4933 O   0  0  0  0  0  0  0  0  0  0  0  0
   23.3864  -11.0788  -14.8201 C   0  0  0  0  0  0  0  0  0  0  0  0
   21.9293  -10.9903  -15.2800 C   0  0  2  0  0  0  0  0  0  0  0  0
   21.7489  -12.0408  -16.2625 N   0  0  0  0  0  0  0  0  0  0  0  0
   21.6165   -9.6521  -15.8154 C   0  0  0  0  0  0  0  0  0  0  0  0
   22.0106   -9.3902  -16.9802 O   0  0  0  0  0  0  0  0  0  0  0  0
   18.3120   -7.5784  -14.5591 C   0  0  0  0  0  0  0  0  0  0  0  0
   19.0594   -7.3035  -15.8413 C   0  0  2  0  0  0  0  0  0  0  0  0
   18.6243   -8.2953  -16.8962 C   0  0  0  0  0  0  0  0  0  0  0  0
   20.5732   -7.3607  -15.6328 C   0  0  2  0  0  0  0  0  0  0  0  0
   20.9088   -8.6498  -15.1142 N   0  0  0  0  0  0  0  0  0  0  0  0
   21.0198   -6.2520  -14.7584 C   0  0  0  0  0  0  0  0  0  0  0  0
   21.2079   -6.4583  -13.5350 O   0  0  0  0  0  0  0  0  0  0  0  0
   21.2412   -4.9751  -15.2488 O   0  0  0  0  0  0  0  0  0  0  0  0
  1  2  1  0
  2  3  2  0
  2  4  1  0
  4  5  1  0
  5  6  1  0
  6  8  1  0
  6  7  1  1
  8  9  2  0
 11 10  1  6
 11 13  1  0
 12  8  1  0
 12 11  1  0
 13 14  2  0
 16 15  1  1
 16 18  1  0
 17 16  1  0
 18 20  1  0
 18 19  1  1
 19 13  1  0
 20 21  2  0
 20 22  1  0
M  END
$$$$
