QAV.pdb
     RDKit          3D

 22 21  0  0  1  0  0  0  0  0999 V2000
   11.3266  -11.5947  -14.2115 N   0  0  0  0  0  0  0  0  0  0  0  0
   12.2606  -11.8689  -15.2658 C   0  0  0  0  0  0  0  0  0  0  0  0
   11.7808  -12.3001  -16.3305 O   0  0  0  0  0  0  0  0  0  0  0  0
   13.6765  -11.6294  -15.0109 C   0  0  0  0  0  0  0  0  0  0  0  0
   14.0285  -11.0371  -13.6786 C   0  0  0  0  0  0  0  0  0  0  0  0
   15.4923  -10.8557  -13.5470 C   0  0  2  0  0  0  0  0  0  0  0  0
   16.1939  -12.0892  -13.3390 N   0  0  0  0  0  0  0  0  0  0  0  0
   15.8645   -9.9191  -12.4503 C   0  0  0  0  0  0  0  0  0  0  0  0
   15.3650  -10.0621  -11.3082 O   0  0  0  0  0  0  0  0  0  0  0  0
   18.3388   -7.1534  -11.9994 C   0  0  0  0  0  0  0  0  0  0  0  0
   17.1792   -8.0200  -11.5023 C   0  0  2  0  0  0  0  0  0  0  0  0
   16.7770   -8.8434  -12.6256 N   0  0  0  0  0  0  0  0  0  0  0  0
   16.0757   -7.1916  -10.9815 C   0  0  0  0  0  0  0  0  0  0  0  0
   15.1830   -6.8422  -11.7949 O   0  0  0  0  0  0  0  0  0  0  0  0
   13.5891   -5.4718   -7.0353 C   0  0  0  0  0  0  0  0  0  0  0  0
   14.7082   -6.2802   -7.6455 C   0  0  2  0  0  0  0  0  0  0  0  0
   15.9834   -6.0327   -6.8719 C   0  0  0  0  0  0  0  0  0  0  0  0
   14.8979   -5.9492   -9.1263 C   0  0  2  0  0  0  0  0  0  0  0  0
   15.9529   -6.7660   -9.6395 N   0  0  0  0  0  0  0  0  0  0  0  0
   15.1481   -4.5009   -9.3074 C   0  0  0  0  0  0  0  0  0  0  0  0
   14.1825   -3.7003   -9.3467 O   0  0  0  0  0  0  0  0  0  0  0  0
   16.4290   -3.9887   -9.4372 O   0  0  0  0  0  0  0  0  0  0  0  0
  1  2  1  0
  2  3  2  0
  2  4  1  0
  4  5  1  0
  5  6  1  0
  6  8  1  0
  6  7  1  1
  8  9  2  0
 11 10  1  6
 11 13  1  0
 12  8  1  0
 12 11  1  0
 13 14  2  0
 16 15  1  1
 16 18  1  0
 17 16  1  0
 18 20  1  0
 18 19  1  1
 19 13  1  0
 20 21  2  0
 20 22  1  0
M  END
$$$$
