QAV.pdb
     RDKit          3D

 22 21  0  0  1  0  0  0  0  0999 V2000
   20.4120  -13.0925  -16.4255 N   0  0  0  0  0  0  0  0  0  0  0  0
   19.9512  -14.1226  -17.3119 C   0  0  0  0  0  0  0  0  0  0  0  0
   20.5922  -15.1897  -17.2990 O   0  0  0  0  0  0  0  0  0  0  0  0
   18.7899  -13.8425  -18.1485 C   0  0  0  0  0  0  0  0  0  0  0  0
   18.1118  -12.5216  -17.9361 C   0  0  0  0  0  0  0  0  0  0  0  0
   17.2140  -12.5675  -16.7593 C   0  0  2  0  0  0  0  0  0  0  0  0
   16.0240  -13.3336  -16.9912 N   0  0  0  0  0  0  0  0  0  0  0  0
   16.8104  -11.2148  -16.2845 C   0  0  0  0  0  0  0  0  0  0  0  0
   15.9891  -10.5373  -16.9485 O   0  0  0  0  0  0  0  0  0  0  0  0
   17.2741   -9.1439  -13.2259 C   0  0  0  0  0  0  0  0  0  0  0  0
   16.9509   -9.2772  -14.7161 C   0  0  2  0  0  0  0  0  0  0  0  0
   17.3141  -10.6296  -15.0910 N   0  0  0  0  0  0  0  0  0  0  0  0
   17.6597   -8.2575  -15.5117 C   0  0  0  0  0  0  0  0  0  0  0  0
   18.8180   -8.5397  -15.9109 O   0  0  0  0  0  0  0  0  0  0  0  0
   16.1088   -6.3748  -18.4691 C   0  0  0  0  0  0  0  0  0  0  0  0
   16.7699   -5.3561  -17.5727 C   0  0  2  0  0  0  0  0  0  0  0  0
   17.4151   -4.2855  -18.4232 C   0  0  0  0  0  0  0  0  0  0  0  0
   17.7972   -6.0061  -16.6451 C   0  0  2  0  0  0  0  0  0  0  0  0
   17.1304   -6.9928  -15.8544 N   0  0  0  0  0  0  0  0  0  0  0  0
   18.4839   -4.9788  -15.8288 C   0  0  0  0  0  0  0  0  0  0  0  0
   17.9291   -4.5265  -14.7981 O   0  0  0  0  0  0  0  0  0  0  0  0
   19.7360   -4.4908  -16.1661 O   0  0  0  0  0  0  0  0  0  0  0  0
  1  2  1  0
  2  3  2  0
  2  4  1  0
  4  5  1  0
  5  6  1  0
  6  8  1  0
  6  7  1  6
  8  9  2  0
 11 10  1  1
 11 13  1  0
 12  8  1  0
 12 11  1  0
 13 14  2  0
 16 15  1  6
 16 18  1  0
 17 16  1  0
 18 20  1  0
 18 19  1  1
 19 13  1  0
 20 21  2  0
 20 22  1  0
M  END
$$$$
