QAV.pdb
     RDKit          3D

 22 21  0  0  1  0  0  0  0  0999 V2000
   16.3503  -10.6642  -18.9719 N   0  0  0  0  0  0  0  0  0  0  0  0
   15.0778  -10.8457  -18.3339 C   0  0  0  0  0  0  0  0  0  0  0  0
   14.1982  -11.4134  -19.0075 O   0  0  0  0  0  0  0  0  0  0  0  0
   14.9151  -10.3551  -16.9701 C   0  0  0  0  0  0  0  0  0  0  0  0
   16.1096   -9.6971  -16.3459 C   0  0  0  0  0  0  0  0  0  0  0  0
   17.0933  -10.7047  -15.8875 C   0  0  2  0  0  0  0  0  0  0  0  0
   16.6071  -11.5122  -14.8066 N   0  0  0  0  0  0  0  0  0  0  0  0
   18.3897  -10.1018  -15.4701 C   0  0  0  0  0  0  0  0  0  0  0  0
   18.4771   -9.5039  -14.3704 O   0  0  0  0  0  0  0  0  0  0  0  0
   21.9138  -10.1385  -16.6847 C   0  0  0  0  0  0  0  0  0  0  0  0
   20.7989   -9.5467  -15.8189 C   0  0  2  0  0  0  0  0  0  0  0  0
   19.5662  -10.1652  -16.2654 N   0  0  0  0  0  0  0  0  0  0  0  0
   20.7653   -8.0757  -15.9198 C   0  0  0  0  0  0  0  0  0  0  0  0
   20.0561   -7.5759  -16.8298 O   0  0  0  0  0  0  0  0  0  0  0  0
   22.1103   -5.6904  -12.6981 C   0  0  0  0  0  0  0  0  0  0  0  0
   21.0515   -5.2752  -13.6904 C   0  0  2  0  0  0  0  0  0  0  0  0
   19.7077   -5.7984  -13.2361 C   0  0  0  0  0  0  0  0  0  0  0  0
   21.3783   -5.7680  -15.1005 C   0  0  2  0  0  0  0  0  0  0  0  0
   21.4706   -7.1942  -15.0698 N   0  0  0  0  0  0  0  0  0  0  0  0
   22.6106   -5.1200  -15.6052 C   0  0  0  0  0  0  0  0  0  0  0  0
   23.7161   -5.7018  -15.4859 O   0  0  0  0  0  0  0  0  0  0  0  0
   22.5880   -3.8754  -16.2137 O   0  0  0  0  0  0  0  0  0  0  0  0
  1  2  1  0
  2  3  2  0
  2  4  1  0
  4  5  1  0
  5  6  1  0
  6  8  1  0
  6  7  1  1
  8  9  2  0
 11 10  1  6
 11 13  1  0
 12  8  1  0
 12 11  1  0
 13 14  2  0
 16 15  1  1
 16 18  1  0
 17 16  1  0
 18 20  1  0
 18 19  1  1
 19 13  1  0
 20 21  2  0
 20 22  1  0
M  END
$$$$
