TNP.pdb
     RDKit          3D

 23 23  0  0  1  0  0  0  0  0999 V2000
   11.1524  -15.4931   21.8104 C   0  0  0  0  0  0  0  0  0  0  0  0
   10.3865  -15.5829   20.5249 C   0  0  1  0  0  0  0  0  0  0  0  0
   11.1680  -16.0255   19.4553 O   0  0  0  0  0  0  0  0  0  0  0  0
    9.1051  -16.3518   20.6304 C   0  0  2  0  0  0  0  0  0  0  0  0
    8.4490  -16.4120   19.3652 N   0  0  0  0  0  0  0  0  0  0  0  0
    8.2267  -15.8954   21.7309 C   0  0  0  0  0  0  0  0  0  0  0  0
    7.5268  -14.8664   21.5506 O   0  0  0  0  0  0  0  0  0  0  0  0
    6.7654  -19.5356   23.9194 N   0  0  0  0  0  0  0  0  0  0  0  0
    6.1895  -18.2880   24.2409 C   0  0  0  0  0  0  0  0  0  0  0  0
    4.9948  -18.0874   23.9150 O   0  0  0  0  0  0  0  0  0  0  0  0
    7.0054  -17.2908   24.9350 C   0  0  0  0  0  0  0  0  0  0  0  0
    7.3543  -16.0761   24.1087 C   0  0  2  0  0  0  0  0  0  0  0  0
    8.1399  -16.5672   22.9785 N   0  0  0  0  0  0  0  0  0  0  0  0
    8.1743  -15.1798   24.9676 C   0  0  0  0  0  0  0  0  0  0  0  0
    9.4332  -15.2819   24.8475 O   0  0  0  0  0  0  0  0  0  0  0  0
    7.6643  -14.2566   25.8731 N   0  0  0  0  0  0  0  0  0  0  0  0
    6.2676  -13.9643   26.1175 C   0  0  0  0  0  0  0  0  0  0  0  0
    6.2288  -12.4656   26.4184 C   0  0  0  0  0  0  0  0  0  0  0  0
    7.6063  -12.1343   26.9189 C   0  0  0  0  0  0  0  0  0  0  0  0
    8.4193  -13.3961   26.7497 C   0  0  1  0  0  0  0  0  0  0  0  0
    8.6865  -14.0670   28.0388 C   0  0  0  0  0  0  0  0  0  0  0  0
    9.4084  -13.4830   28.8783 O   0  0  0  0  0  0  0  0  0  0  0  0
    8.1306  -15.3106   28.2677 O   0  0  0  0  0  0  0  0  0  0  0  0
  2  1  1  1
  2  3  1  0
  4  6  1  0
  4  2  1  0
  4  5  1  6
  6 13  1  0
  7  6  2  0
  8  9  1  0
  9 11  1  0
 10  9  2  0
 12 11  1  1
 12 13  1  0
 12 14  1  0
 14 16  1  0
 15 14  2  0
 16 20  1  0
 16 17  1  0
 17 18  1  0
 19 18  1  0
 20 21  1  1
 20 19  1  0
 21 23  1  0
 22 21  2  0
M  END
$$$$
