TNP.pdb
     RDKit          3D

 23 23  0  0  1  0  0  0  0  0999 V2000
    8.0578  -12.6746   20.2914 C   0  0  0  0  0  0  0  0  0  0  0  0
    7.9112  -13.8132   19.3274 C   0  0  1  0  0  0  0  0  0  0  0  0
    8.5835  -13.5965   18.1225 O   0  0  0  0  0  0  0  0  0  0  0  0
    8.2387  -15.1533   19.9114 C   0  0  2  0  0  0  0  0  0  0  0  0
    8.0170  -16.1872   18.9539 N   0  0  0  0  0  0  0  0  0  0  0  0
    7.5896  -15.4077   21.2172 C   0  0  0  0  0  0  0  0  0  0  0  0
    6.5075  -16.0479   21.2330 O   0  0  0  0  0  0  0  0  0  0  0  0
    5.3591  -16.9530   24.0631 N   0  0  0  0  0  0  0  0  0  0  0  0
    6.5879  -17.6448   24.0075 C   0  0  0  0  0  0  0  0  0  0  0  0
    6.5688  -18.8932   24.1287 O   0  0  0  0  0  0  0  0  0  0  0  0
    7.8209  -16.8808   23.8123 C   0  0  0  0  0  0  0  0  0  0  0  0
    7.6325  -15.3837   23.7559 C   0  0  2  0  0  0  0  0  0  0  0  0
    8.1341  -14.9613   22.4499 N   0  0  0  0  0  0  0  0  0  0  0  0
    8.4530  -14.7951   24.8484 C   0  0  0  0  0  0  0  0  0  0  0  0
    9.7053  -14.9857   24.7774 O   0  0  0  0  0  0  0  0  0  0  0  0
    7.9502  -14.0645   25.9189 N   0  0  0  0  0  0  0  0  0  0  0  0
    6.5570  -13.7919   26.2028 C   0  0  0  0  0  0  0  0  0  0  0  0
    6.5485  -12.3866   26.8052 C   0  0  0  0  0  0  0  0  0  0  0  0
    7.9251  -12.2016   27.3784 C   0  0  0  0  0  0  0  0  0  0  0  0
    8.7109  -13.4227   26.9621 C   0  0  1  0  0  0  0  0  0  0  0  0
    8.9413  -14.3509   28.0884 C   0  0  0  0  0  0  0  0  0  0  0  0
    9.6678  -13.9733   29.0353 O   0  0  0  0  0  0  0  0  0  0  0  0
    8.3474  -15.5975   28.0534 O   0  0  0  0  0  0  0  0  0  0  0  0
  2  1  1  1
  2  3  1  0
  4  6  1  0
  4  2  1  0
  4  5  1  6
  6 13  1  0
  7  6  2  0
  8  9  1  0
  9 11  1  0
 10  9  2  0
 12 11  1  6
 12 13  1  0
 12 14  1  0
 14 16  1  0
 15 14  2  0
 16 20  1  0
 16 17  1  0
 17 18  1  0
 19 18  1  0
 20 21  1  1
 20 19  1  0
 21 23  1  0
 22 21  2  0
M  END
$$$$
