TNP.pdb
     RDKit          3D

 23 23  0  0  1  0  0  0  0  0999 V2000
   10.6030  -14.0583   20.9646 C   0  0  0  0  0  0  0  0  0  0  0  0
    9.6726  -13.2682   20.0944 C   0  0  1  0  0  0  0  0  0  0  0  0
   10.1761  -13.0587   18.8085 O   0  0  0  0  0  0  0  0  0  0  0  0
    8.2712  -13.7966   20.0614 C   0  0  2  0  0  0  0  0  0  0  0  0
    7.4559  -13.0067   19.1976 N   0  0  0  0  0  0  0  0  0  0  0  0
    7.6823  -14.0044   21.4035 C   0  0  0  0  0  0  0  0  0  0  0  0
    7.2362  -13.0050   22.0226 O   0  0  0  0  0  0  0  0  0  0  0  0
    5.3625  -17.2810   25.4184 N   0  0  0  0  0  0  0  0  0  0  0  0
    6.6804  -17.4069   24.9297 C   0  0  0  0  0  0  0  0  0  0  0  0
    7.5506  -17.8879   25.6946 O   0  0  0  0  0  0  0  0  0  0  0  0
    6.9716  -16.9738   23.5623 C   0  0  0  0  0  0  0  0  0  0  0  0
    7.1585  -15.4844   23.3992 C   0  0  2  0  0  0  0  0  0  0  0  0
    7.5994  -15.2800   22.0210 N   0  0  0  0  0  0  0  0  0  0  0  0
    8.2179  -15.0660   24.3563 C   0  0  0  0  0  0  0  0  0  0  0  0
    9.4155  -15.2966   24.0069 O   0  0  0  0  0  0  0  0  0  0  0  0
    7.9884  -14.4513   25.5819 N   0  0  0  0  0  0  0  0  0  0  0  0
    6.7029  -14.2136   26.2040 C   0  0  0  0  0  0  0  0  0  0  0  0
    6.8615  -12.8779   26.9312 C   0  0  0  0  0  0  0  0  0  0  0  0
    8.3363  -12.7490   27.1888 C   0  0  0  0  0  0  0  0  0  0  0  0
    8.9805  -13.9182   26.4820 C   0  0  1  0  0  0  0  0  0  0  0  0
    9.4430  -14.9570   27.4256 C   0  0  0  0  0  0  0  0  0  0  0  0
   10.3323  -14.6586   28.2544 O   0  0  0  0  0  0  0  0  0  0  0  0
    8.8773  -16.2153   27.3572 O   0  0  0  0  0  0  0  0  0  0  0  0
  2  1  1  6
  2  3  1  0
  4  6  1  0
  4  2  1  0
  4  5  1  6
  6 13  1  0
  7  6  2  0
  8  9  1  0
  9 11  1  0
 10  9  2  0
 12 11  1  6
 12 13  1  0
 12 14  1  0
 14 16  1  0
 15 14  2  0
 16 20  1  0
 16 17  1  0
 17 18  1  0
 19 18  1  0
 20 21  1  1
 20 19  1  0
 21 23  1  0
 22 21  2  0
M  END
$$$$
