KKV.pdb
     RDKit          3D

 26 25  0  0  1  0  0  0  0  0999 V2000
   27.2429  -18.7576  -17.5361 N   0  0  0  0  0  0  0  0  0  0  0  0
   26.2932  -17.9791  -16.7932 C   0  0  1  0  0  0  0  0  0  0  0  0
   25.6552  -16.8730  -17.6159 C   0  0  0  0  0  0  0  0  0  0  0  0
   26.1530  -16.7806  -19.0112 C   0  0  0  0  0  0  0  0  0  0  0  0
   25.1359  -16.5532  -20.0716 C   0  0  0  0  0  0  0  0  0  0  0  0
   25.7196  -16.4893  -21.4644 C   0  0  0  0  0  0  0  0  0  0  0  0
   24.6674  -16.3981  -22.4734 N   0  0  0  0  0  0  0  0  0  0  0  0
   25.2398  -18.8857  -16.2762 C   0  0  0  0  0  0  0  0  0  0  0  0
   24.6343  -19.6403  -17.0726 O   0  0  0  0  0  0  0  0  0  0  0  0
   24.9019  -18.9172  -14.8965 N   0  0  0  0  0  0  0  0  0  0  0  0
   23.9590  -19.8910  -14.4421 C   0  0  1  0  0  0  0  0  0  0  0  0
   24.1113  -20.1864  -12.9658 C   0  0  0  0  0  0  0  0  0  0  0  0
   25.1287  -21.2996  -12.8296 C   0  0  0  0  0  0  0  0  0  0  0  0
   25.8909  -21.0424  -11.5432 C   0  0  0  0  0  0  0  0  0  0  0  0
   24.9691  -21.0018  -10.3403 C   0  0  0  0  0  0  0  0  0  0  0  0
   25.7240  -20.9049   -9.1033 N   0  0  0  0  0  0  0  0  0  0  0  0
   22.5880  -19.4550  -14.7638 C   0  0  0  0  0  0  0  0  0  0  0  0
   22.2698  -18.2550  -14.6302 O   0  0  0  0  0  0  0  0  0  0  0  0
   19.9973  -21.5908  -17.2204 C   0  0  0  0  0  0  0  0  0  0  0  0
   19.8350  -20.1249  -16.8790 C   0  0  2  0  0  0  0  0  0  0  0  0
   20.7109  -19.3218  -17.8160 C   0  0  0  0  0  0  0  0  0  0  0  0
   20.2342  -19.8744  -15.4330 C   0  0  2  0  0  0  0  0  0  0  0  0
   21.5840  -20.3551  -15.2305 N   0  0  0  0  0  0  0  0  0  0  0  0
   19.2843  -20.5265  -14.4954 C   0  0  0  0  0  0  0  0  0  0  0  0
   18.0531  -19.9726  -14.2575 O   0  0  0  0  0  0  0  0  0  0  0  0
   19.5708  -21.5944  -13.8948 O   0  0  0  0  0  0  0  0  0  0  0  0
  2  3  1  0
  2  1  1  6
  3  4  1  0
  4  5  1  0
  5  6  1  0
  6  7  1  0
  8  2  1  0
  8  9  2  0
 10  8  1  0
 11 10  1  0
 11 17  1  0
 11 12  1  1
 13 12  1  0
 13 14  1  0
 15 14  1  0
 16 15  1  0
 17 23  1  0
 18 17  2  0
 20 21  1  6
 20 19  1  0
 20 22  1  0
 22 24  1  0
 22 23  1  6
 24 26  2  0
 24 25  1  0
M  END
$$$$
