KKV.pdb
     RDKit          3D

 26 25  0  0  1  0  0  0  0  0999 V2000
   27.7267  -18.8497  -16.8640 N   0  0  0  0  0  0  0  0  0  0  0  0
   26.5510  -19.5386  -17.3146 C   0  0  1  0  0  0  0  0  0  0  0  0
   26.8440  -20.5903  -18.3707 C   0  0  0  0  0  0  0  0  0  0  0  0
   27.3058  -20.0427  -19.6708 C   0  0  0  0  0  0  0  0  0  0  0  0
   27.0354  -18.6031  -19.9254 C   0  0  0  0  0  0  0  0  0  0  0  0
   27.4023  -18.1576  -21.3224 C   0  0  0  0  0  0  0  0  0  0  0  0
   27.2014  -16.7203  -21.4872 N   0  0  0  0  0  0  0  0  0  0  0  0
   25.8989  -20.1757  -16.1451 C   0  0  0  0  0  0  0  0  0  0  0  0
   25.0508  -21.0792  -16.3320 O   0  0  0  0  0  0  0  0  0  0  0  0
   26.2149  -19.7838  -14.8165 N   0  0  0  0  0  0  0  0  0  0  0  0
   25.5237  -20.4095  -13.7327 C   0  0  1  0  0  0  0  0  0  0  0  0
   26.1970  -20.1512  -12.4023 C   0  0  0  0  0  0  0  0  0  0  0  0
   25.3772  -20.8488  -11.3373 C   0  0  0  0  0  0  0  0  0  0  0  0
   26.0230  -20.5237  -10.0035 C   0  0  0  0  0  0  0  0  0  0  0  0
   25.2702  -21.1487   -8.8455 C   0  0  0  0  0  0  0  0  0  0  0  0
   25.9282  -20.8715   -7.5807 N   0  0  0  0  0  0  0  0  0  0  0  0
   24.1149  -19.9756  -13.7147 C   0  0  0  0  0  0  0  0  0  0  0  0
   23.8396  -18.7601  -13.6395 O   0  0  0  0  0  0  0  0  0  0  0  0
   20.8798  -22.2759  -15.0871 C   0  0  0  0  0  0  0  0  0  0  0  0
   20.8896  -20.7739  -14.8989 C   0  0  2  0  0  0  0  0  0  0  0  0
   21.5253  -20.1486  -16.1217 C   0  0  0  0  0  0  0  0  0  0  0  0
   21.6706  -20.4058  -13.6469 C   0  0  2  0  0  0  0  0  0  0  0  0
   23.0258  -20.8952  -13.7804 N   0  0  0  0  0  0  0  0  0  0  0  0
   21.0183  -20.9527  -12.4296 C   0  0  0  0  0  0  0  0  0  0  0  0
   19.8671  -20.3874  -11.9453 O   0  0  0  0  0  0  0  0  0  0  0  0
   21.4912  -21.9394  -11.8085 O   0  0  0  0  0  0  0  0  0  0  0  0
  2  3  1  0
  2  1  1  1
  3  4  1  0
  4  5  1  0
  5  6  1  0
  6  7  1  0
  8  2  1  0
  8  9  2  0
 10  8  1  0
 11 10  1  0
 11 17  1  0
 11 12  1  1
 13 12  1  0
 13 14  1  0
 15 14  1  0
 16 15  1  0
 17 23  1  0
 18 17  2  0
 20 21  1  6
 20 19  1  0
 20 22  1  0
 22 24  1  0
 22 23  1  6
 24 26  2  0
 24 25  1  0
M  END
$$$$
