KKV.pdb
     RDKit          3D

 26 25  0  0  1  0  0  0  0  0999 V2000
   16.3845  -11.0082  -16.1584 N   0  0  0  0  0  0  0  0  0  0  0  0
   17.4094  -10.9340  -15.1564 C   0  0  1  0  0  0  0  0  0  0  0  0
   18.7896  -11.2793  -15.6884 C   0  0  0  0  0  0  0  0  0  0  0  0
   19.0643  -12.7349  -15.7837 C   0  0  0  0  0  0  0  0  0  0  0  0
   18.8169  -13.3785  -17.1010 C   0  0  0  0  0  0  0  0  0  0  0  0
   19.1327  -14.8565  -17.1197 C   0  0  0  0  0  0  0  0  0  0  0  0
   18.6708  -15.4786  -18.3579 N   0  0  0  0  0  0  0  0  0  0  0  0
   17.4218   -9.5623  -14.5933 C   0  0  0  0  0  0  0  0  0  0  0  0
   17.1350   -8.5923  -15.3333 O   0  0  0  0  0  0  0  0  0  0  0  0
   17.7519   -9.3236  -13.2322 N   0  0  0  0  0  0  0  0  0  0  0  0
   17.7802   -7.9752  -12.7582 C   0  0  1  0  0  0  0  0  0  0  0  0
   17.0193   -7.8110  -11.4605 C   0  0  0  0  0  0  0  0  0  0  0  0
   17.1249   -6.3559  -11.0550 C   0  0  0  0  0  0  0  0  0  0  0  0
   16.3537   -6.2050   -9.7572 C   0  0  0  0  0  0  0  0  0  0  0  0
   16.1843   -4.7497   -9.3680 C   0  0  0  0  0  0  0  0  0  0  0  0
   15.4143   -4.6197   -8.1435 N   0  0  0  0  0  0  0  0  0  0  0  0
   19.1748   -7.5161  -12.6247 C   0  0  0  0  0  0  0  0  0  0  0  0
   19.9307   -8.0582  -11.7917 O   0  0  0  0  0  0  0  0  0  0  0  0
   21.1944   -5.9281  -15.7808 C   0  0  0  0  0  0  0  0  0  0  0  0
   21.8353   -6.5700  -14.5689 C   0  0  2  0  0  0  0  0  0  0  0  0
   21.7502   -8.0724  -14.7294 C   0  0  0  0  0  0  0  0  0  0  0  0
   21.1204   -6.1298  -13.3008 C   0  0  2  0  0  0  0  0  0  0  0  0
   19.7163   -6.4600  -13.4168 N   0  0  0  0  0  0  0  0  0  0  0  0
   21.3132   -4.6776  -13.0549 C   0  0  0  0  0  0  0  0  0  0  0  0
   22.5306   -4.1984  -12.6456 O   0  0  0  0  0  0  0  0  0  0  0  0
   20.3806   -3.8475  -13.2110 O   0  0  0  0  0  0  0  0  0  0  0  0
  2  3  1  0
  2  1  1  6
  3  4  1  0
  4  5  1  0
  5  6  1  0
  6  7  1  0
  8  2  1  0
  8  9  2  0
 10  8  1  0
 11 10  1  0
 11 17  1  0
 11 12  1  1
 13 12  1  0
 13 14  1  0
 15 14  1  0
 16 15  1  0
 17 23  1  0
 18 17  2  0
 20 21  1  6
 20 19  1  0
 20 22  1  0
 22 24  1  0
 22 23  1  6
 24 26  2  0
 24 25  1  0
M  END
$$$$
