KKV.pdb
     RDKit          3D

 26 25  0  0  1  0  0  0  0  0999 V2000
   28.4428  -22.0790  -16.5872 N   0  0  0  0  0  0  0  0  0  0  0  0
   27.4446  -21.0553  -16.4630 C   0  0  1  0  0  0  0  0  0  0  0  0
   26.5440  -20.9495  -17.6815 C   0  0  0  0  0  0  0  0  0  0  0  0
   27.1696  -20.2837  -18.8514 C   0  0  0  0  0  0  0  0  0  0  0  0
   28.5119  -19.6803  -18.6401 C   0  0  0  0  0  0  0  0  0  0  0  0
   29.0216  -18.9077  -19.8351 C   0  0  0  0  0  0  0  0  0  0  0  0
   30.3110  -18.2841  -19.5489 N   0  0  0  0  0  0  0  0  0  0  0  0
   26.6241  -21.3382  -15.2607 C   0  0  0  0  0  0  0  0  0  0  0  0
   25.6294  -22.0939  -15.3602 O   0  0  0  0  0  0  0  0  0  0  0  0
   26.9416  -20.7707  -13.9973 N   0  0  0  0  0  0  0  0  0  0  0  0
   26.0834  -21.0426  -12.8868 C   0  0  1  0  0  0  0  0  0  0  0  0
   26.6746  -20.5632  -11.5788 C   0  0  0  0  0  0  0  0  0  0  0  0
   25.6568  -20.8423  -10.4930 C   0  0  0  0  0  0  0  0  0  0  0  0
   26.2818  -20.4027   -9.1823 C   0  0  0  0  0  0  0  0  0  0  0  0
   25.4359  -20.8066   -7.9909 C   0  0  0  0  0  0  0  0  0  0  0  0
   26.0330  -20.3559   -6.7460 N   0  0  0  0  0  0  0  0  0  0  0  0
   24.7520  -20.4546  -13.1217 C   0  0  0  0  0  0  0  0  0  0  0  0
   24.6483  -19.2419  -13.4004 O   0  0  0  0  0  0  0  0  0  0  0  0
   21.3790  -22.4955  -14.4401 C   0  0  0  0  0  0  0  0  0  0  0  0
   21.6053  -20.9989  -14.4599 C   0  0  2  0  0  0  0  0  0  0  0  0
   22.4814  -20.6692  -15.6490 C   0  0  0  0  0  0  0  0  0  0  0  0
   22.2715  -20.5505  -13.1684 C   0  0  2  0  0  0  0  0  0  0  0  0
   23.5493  -21.2185  -13.0450 N   0  0  0  0  0  0  0  0  0  0  0  0
   21.4039  -20.8275  -11.9950 C   0  0  0  0  0  0  0  0  0  0  0  0
   20.2634  -20.0959  -11.7867 O   0  0  0  0  0  0  0  0  0  0  0  0
   21.6800  -21.7295  -11.1624 O   0  0  0  0  0  0  0  0  0  0  0  0
  2  3  1  0
  2  1  1  6
  3  4  1  0
  4  5  1  0
  5  6  1  0
  6  7  1  0
  8  2  1  0
  8  9  2  0
 10  8  1  0
 11 10  1  0
 11 17  1  0
 11 12  1  1
 13 12  1  0
 13 14  1  0
 15 14  1  0
 16 15  1  0
 17 23  1  0
 18 17  2  0
 20 21  1  6
 20 19  1  0
 20 22  1  0
 22 24  1  0
 22 23  1  1
 24 26  2  0
 24 25  1  0
M  END
$$$$
