KKV.pdb
     RDKit          3D

 26 25  0  0  1  0  0  0  0  0999 V2000
   25.7636  -22.2697  -12.0395 N   0  0  0  0  0  0  0  0  0  0  0  0
   25.0102  -21.1178  -11.6330 C   0  0  1  0  0  0  0  0  0  0  0  0
   25.7459  -20.2483  -10.6280 C   0  0  0  0  0  0  0  0  0  0  0  0
   24.9896  -19.9791   -9.3794 C   0  0  0  0  0  0  0  0  0  0  0  0
   24.5577  -21.1624   -8.5895 C   0  0  0  0  0  0  0  0  0  0  0  0
   23.7850  -20.8053   -7.3405 C   0  0  0  0  0  0  0  0  0  0  0  0
   23.3765  -22.0038   -6.6125 N   0  0  0  0  0  0  0  0  0  0  0  0
   24.6827  -20.3176  -12.8377 C   0  0  0  0  0  0  0  0  0  0  0  0
   23.9995  -19.2743  -12.7146 O   0  0  0  0  0  0  0  0  0  0  0  0
   25.1269  -20.7085  -14.1295 N   0  0  0  0  0  0  0  0  0  0  0  0
   24.8092  -19.8750  -15.2467 C   0  0  1  0  0  0  0  0  0  0  0  0
   25.7471  -20.1023  -16.4123 C   0  0  0  0  0  0  0  0  0  0  0  0
   25.4520  -19.0352  -17.4453 C   0  0  0  0  0  0  0  0  0  0  0  0
   26.3780  -19.2928  -18.6192 C   0  0  0  0  0  0  0  0  0  0  0  0
   26.2194  -18.2447  -19.7029 C   0  0  0  0  0  0  0  0  0  0  0  0
   27.1319  -18.4881  -20.8063 N   0  0  0  0  0  0  0  0  0  0  0  0
   23.4031  -20.0749  -15.6420 C   0  0  0  0  0  0  0  0  0  0  0  0
   22.8804  -21.2034  -15.5307 O   0  0  0  0  0  0  0  0  0  0  0  0
   20.4428  -17.6288  -14.7859 C   0  0  0  0  0  0  0  0  0  0  0  0
   20.3984  -18.0146  -16.2490 C   0  0  2  0  0  0  0  0  0  0  0  0
   18.9517  -18.2303  -16.6371 C   0  0  0  0  0  0  0  0  0  0  0  0
   21.2061  -19.2817  -16.4835 C   0  0  2  0  0  0  0  0  0  0  0  0
   22.5914  -19.0204  -16.1570 N   0  0  0  0  0  0  0  0  0  0  0  0
   21.0634  -19.7553  -17.8842 C   0  0  0  0  0  0  0  0  0  0  0  0
   20.1629  -20.7409  -18.1955 O   0  0  0  0  0  0  0  0  0  0  0  0
   21.7531  -19.2764  -18.8213 O   0  0  0  0  0  0  0  0  0  0  0  0
  2  3  1  0
  2  1  1  6
  3  4  1  0
  4  5  1  0
  5  6  1  0
  6  7  1  0
  8  2  1  0
  8  9  2  0
 10  8  1  0
 11 10  1  0
 11 17  1  0
 11 12  1  6
 13 12  1  0
 13 14  1  0
 15 14  1  0
 16 15  1  0
 17 23  1  0
 18 17  2  0
 20 21  1  1
 20 19  1  0
 20 22  1  0
 22 24  1  0
 22 23  1  6
 24 26  2  0
 24 25  1  0
M  END
$$$$
