KKV.pdb
     RDKit          3D

 26 25  0  0  1  0  0  0  0  0999 V2000
   27.0298  -32.3111  -17.5570 N   0  0  0  0  0  0  0  0  0  0  0  0
   27.4184  -32.7027  -16.2321 C   0  0  1  0  0  0  0  0  0  0  0  0
   28.6897  -32.0204  -15.7574 C   0  0  0  0  0  0  0  0  0  0  0  0
   29.9152  -32.4281  -16.4890 C   0  0  0  0  0  0  0  0  0  0  0  0
   30.6173  -33.6422  -15.9954 C   0  0  0  0  0  0  0  0  0  0  0  0
   32.1160  -33.4737  -15.8937 C   0  0  0  0  0  0  0  0  0  0  0  0
   32.7978  -34.1412  -16.9996 N   0  0  0  0  0  0  0  0  0  0  0  0
   26.3076  -32.3888  -15.3013 C   0  0  0  0  0  0  0  0  0  0  0  0
   25.4185  -31.5805  -15.6570 O   0  0  0  0  0  0  0  0  0  0  0  0
   26.2294  -32.9851  -14.0140 N   0  0  0  0  0  0  0  0  0  0  0  0
   25.0460  -32.7885  -13.2364 C   0  0  1  0  0  0  0  0  0  0  0  0
   23.7905  -33.1092  -14.0181 C   0  0  0  0  0  0  0  0  0  0  0  0
   22.6236  -33.0177  -13.0576 C   0  0  0  0  0  0  0  0  0  0  0  0
   21.3700  -33.3085  -13.8612 C   0  0  0  0  0  0  0  0  0  0  0  0
   20.1236  -33.2566  -12.9998 C   0  0  0  0  0  0  0  0  0  0  0  0
   18.9472  -33.6524  -13.7540 N   0  0  0  0  0  0  0  0  0  0  0  0
   25.1213  -33.5782  -11.9938 C   0  0  0  0  0  0  0  0  0  0  0  0
   25.4086  -34.7923  -12.0453 O   0  0  0  0  0  0  0  0  0  0  0  0
   26.6187  -31.6310   -8.8847 C   0  0  0  0  0  0  0  0  0  0  0  0
   25.6023  -32.6572   -8.4316 C   0  0  2  0  0  0  0  0  0  0  0  0
   26.1302  -33.3245   -7.1801 C   0  0  0  0  0  0  0  0  0  0  0  0
   25.3713  -33.6875   -9.5261 C   0  0  2  0  0  0  0  0  0  0  0  0
   24.8768  -33.0127  -10.7069 N   0  0  0  0  0  0  0  0  0  0  0  0
   24.4292  -34.7440   -9.0758 C   0  0  0  0  0  0  0  0  0  0  0  0
   24.8921  -35.8488   -8.4092 O   0  0  0  0  0  0  0  0  0  0  0  0
   23.1913  -34.6645   -9.2866 O   0  0  0  0  0  0  0  0  0  0  0  0
  2  3  1  0
  2  1  1  6
  3  4  1  0
  4  5  1  0
  5  6  1  0
  6  7  1  0
  8  2  1  0
  8  9  2  0
 10  8  1  0
 11 10  1  0
 11 17  1  0
 11 12  1  6
 13 12  1  0
 13 14  1  0
 15 14  1  0
 16 15  1  0
 17 23  1  0
 18 17  2  0
 20 21  1  1
 20 19  1  0
 20 22  1  0
 22 24  1  0
 22 23  1  6
 24 26  2  0
 24 25  1  0
M  END
$$$$
