KKV.pdb
     RDKit          3D

 26 25  0  0  1  0  0  0  0  0999 V2000
   20.8048  -18.7952  -16.5996 N   0  0  0  0  0  0  0  0  0  0  0  0
   20.0441  -19.3497  -15.5162 C   0  0  1  0  0  0  0  0  0  0  0  0
   18.7650  -20.0302  -15.9726 C   0  0  0  0  0  0  0  0  0  0  0  0
   18.7644  -20.4432  -17.3984 C   0  0  0  0  0  0  0  0  0  0  0  0
   18.3639  -19.4139  -18.3938 C   0  0  0  0  0  0  0  0  0  0  0  0
   18.3388  -19.9265  -19.8155 C   0  0  0  0  0  0  0  0  0  0  0  0
   18.7680  -21.3211  -19.8808 N   0  0  0  0  0  0  0  0  0  0  0  0
   20.8948  -20.3240  -14.7910 C   0  0  0  0  0  0  0  0  0  0  0  0
   20.3991  -20.9949  -13.8558 O   0  0  0  0  0  0  0  0  0  0  0  0
   22.2605  -20.5135  -15.1338 N   0  0  0  0  0  0  0  0  0  0  0  0
   23.0381  -21.4398  -14.3715 C   0  0  1  0  0  0  0  0  0  0  0  0
   23.6636  -22.5094  -15.2403 C   0  0  0  0  0  0  0  0  0  0  0  0
   22.9039  -23.7955  -14.9921 C   0  0  0  0  0  0  0  0  0  0  0  0
   23.6078  -24.8809  -15.7848 C   0  0  0  0  0  0  0  0  0  0  0  0
   22.9141  -26.2215  -15.6443 C   0  0  0  0  0  0  0  0  0  0  0  0
   23.6168  -27.2563  -16.3823 N   0  0  0  0  0  0  0  0  0  0  0  0
   24.0587  -20.7187  -13.5893 C   0  0  0  0  0  0  0  0  0  0  0  0
   24.6814  -19.7680  -14.1065 O   0  0  0  0  0  0  0  0  0  0  0  0
   26.4516  -19.9125   -9.3341 C   0  0  0  0  0  0  0  0  0  0  0  0
   25.4297  -20.7322  -10.0928 C   0  0  2  0  0  0  0  0  0  0  0  0
   25.7549  -22.1964   -9.8916 C   0  0  0  0  0  0  0  0  0  0  0  0
   25.4646  -20.3784  -11.5715 C   0  0  2  0  0  0  0  0  0  0  0  0
   24.3778  -21.0600  -12.2411 N   0  0  0  0  0  0  0  0  0  0  0  0
   26.7749  -20.7321  -12.1751 C   0  0  0  0  0  0  0  0  0  0  0  0
   26.9998  -21.9965  -12.6547 O   0  0  0  0  0  0  0  0  0  0  0  0
   27.7115  -19.8969  -12.2668 O   0  0  0  0  0  0  0  0  0  0  0  0
  2  3  1  0
  2  1  1  6
  3  4  1  0
  4  5  1  0
  5  6  1  0
  6  7  1  0
  8  2  1  0
  8  9  2  0
 10  8  1  0
 11 10  1  0
 11 17  1  0
 11 12  1  6
 13 12  1  0
 13 14  1  0
 15 14  1  0
 16 15  1  0
 17 23  1  0
 18 17  2  0
 20 21  1  6
 20 19  1  0
 20 22  1  0
 22 24  1  0
 22 23  1  6
 24 26  2  0
 24 25  1  0
M  END
$$$$
