KKV.pdb
     RDKit          3D

 26 25  0  0  1  0  0  0  0  0999 V2000
   26.2452  -25.8056  -16.9930 N   0  0  0  0  0  0  0  0  0  0  0  0
   25.9025  -25.0290  -15.8358 C   0  0  1  0  0  0  0  0  0  0  0  0
   26.2502  -23.5574  -15.9808 C   0  0  0  0  0  0  0  0  0  0  0  0
   27.5746  -23.2975  -16.5985 C   0  0  0  0  0  0  0  0  0  0  0  0
   27.5923  -22.4280  -17.8044 C   0  0  0  0  0  0  0  0  0  0  0  0
   28.9846  -22.0560  -18.2603 C   0  0  0  0  0  0  0  0  0  0  0  0
   29.7649  -21.4898  -17.1630 N   0  0  0  0  0  0  0  0  0  0  0  0
   24.4488  -25.1744  -15.5821 C   0  0  0  0  0  0  0  0  0  0  0  0
   23.6545  -25.1836  -16.5513 O   0  0  0  0  0  0  0  0  0  0  0  0
   23.9366  -25.3036  -14.2631 N   0  0  0  0  0  0  0  0  0  0  0  0
   22.5347  -25.5228  -14.0888 C   0  0  1  0  0  0  0  0  0  0  0  0
   22.2221  -26.1899  -12.7670 C   0  0  0  0  0  0  0  0  0  0  0  0
   20.7162  -26.3115  -12.6664 C   0  0  0  0  0  0  0  0  0  0  0  0
   20.4199  -27.0268  -11.3617 C   0  0  0  0  0  0  0  0  0  0  0  0
   18.9298  -27.1806  -11.1289 C   0  0  0  0  0  0  0  0  0  0  0  0
   18.6571  -27.7091   -9.8038 N   0  0  0  0  0  0  0  0  0  0  0  0
   21.8028  -24.2514  -14.2349 C   0  0  0  0  0  0  0  0  0  0  0  0
   22.1250  -23.2652  -13.5402 O   0  0  0  0  0  0  0  0  0  0  0  0
   21.1523  -22.3663  -17.4653 C   0  0  0  0  0  0  0  0  0  0  0  0
   19.8324  -22.4976  -16.7357 C   0  0  2  0  0  0  0  0  0  0  0  0
   19.0745  -21.1972  -16.8924 C   0  0  0  0  0  0  0  0  0  0  0  0
   20.0725  -22.7988  -15.2644 C   0  0  2  0  0  0  0  0  0  0  0  0
   20.7208  -24.0875  -15.1505 N   0  0  0  0  0  0  0  0  0  0  0  0
   18.8007  -22.7666  -14.4976 C   0  0  0  0  0  0  0  0  0  0  0  0
   18.0903  -23.9192  -14.2825 O   0  0  0  0  0  0  0  0  0  0  0  0
   18.3364  -21.6970  -14.0248 O   0  0  0  0  0  0  0  0  0  0  0  0
  2  3  1  0
  2  1  1  6
  3  4  1  0
  4  5  1  0
  5  6  1  0
  6  7  1  0
  8  2  1  0
  8  9  2  0
 10  8  1  0
 11 10  1  0
 11 17  1  0
 11 12  1  1
 13 12  1  0
 13 14  1  0
 15 14  1  0
 16 15  1  0
 17 23  1  0
 18 17  2  0
 20 21  1  1
 20 19  1  0
 20 22  1  0
 22 24  1  0
 22 23  1  6
 24 26  2  0
 24 25  1  0
M  END
$$$$
