KKV.pdb
     RDKit          3D

 26 25  0  0  1  0  0  0  0  0999 V2000
   20.4983  -20.0713  -15.9541 N   0  0  0  0  0  0  0  0  0  0  0  0
   20.9207  -19.2269  -14.8732 C   0  0  1  0  0  0  0  0  0  0  0  0
   20.4291  -19.7032  -13.5172 C   0  0  0  0  0  0  0  0  0  0  0  0
   18.9593  -19.6130  -13.3307 C   0  0  0  0  0  0  0  0  0  0  0  0
   18.2287  -20.8936  -13.1381 C   0  0  0  0  0  0  0  0  0  0  0  0
   16.7481  -20.7131  -12.8936 C   0  0  0  0  0  0  0  0  0  0  0  0
   16.1092  -21.9848  -12.5649 N   0  0  0  0  0  0  0  0  0  0  0  0
   22.4023  -19.1657  -14.8722 C   0  0  0  0  0  0  0  0  0  0  0  0
   22.9878  -18.4809  -14.0011 O   0  0  0  0  0  0  0  0  0  0  0  0
   23.1730  -19.8672  -15.8380 N   0  0  0  0  0  0  0  0  0  0  0  0
   24.5970  -19.7468  -15.7999 C   0  0  1  0  0  0  0  0  0  0  0  0
   25.2880  -20.9825  -16.3343 C   0  0  0  0  0  0  0  0  0  0  0  0
   26.7768  -20.7895  -16.1369 C   0  0  0  0  0  0  0  0  0  0  0  0
   27.4560  -22.0342  -16.6766 C   0  0  0  0  0  0  0  0  0  0  0  0
   28.9665  -21.9304  -16.6000 C   0  0  0  0  0  0  0  0  0  0  0  0
   29.6032  -23.1039  -17.1718 N   0  0  0  0  0  0  0  0  0  0  0  0
   25.0212  -18.5371  -16.5280 C   0  0  0  0  0  0  0  0  0  0  0  0
   24.4318  -18.2044  -17.5773 O   0  0  0  0  0  0  0  0  0  0  0  0
   25.5711  -15.1237  -14.8906 C   0  0  0  0  0  0  0  0  0  0  0  0
   26.7514  -15.4035  -15.7964 C   0  0  2  0  0  0  0  0  0  0  0  0
   27.1136  -14.1194  -16.5107 C   0  0  0  0  0  0  0  0  0  0  0  0
   26.3975  -16.4889  -16.8011 C   0  0  2  0  0  0  0  0  0  0  0  0
   26.0952  -17.7091  -16.0843 N   0  0  0  0  0  0  0  0  0  0  0  0
   27.4999  -16.6960  -17.7750 C   0  0  0  0  0  0  0  0  0  0  0  0
   27.4492  -16.1135  -19.0150 O   0  0  0  0  0  0  0  0  0  0  0  0
   28.5044  -17.4025  -17.5016 O   0  0  0  0  0  0  0  0  0  0  0  0
  2  3  1  0
  2  1  1  6
  3  4  1  0
  4  5  1  0
  5  6  1  0
  6  7  1  0
  8  2  1  0
  8  9  2  0
 10  8  1  0
 11 10  1  0
 11 17  1  0
 11 12  1  6
 13 12  1  0
 13 14  1  0
 15 14  1  0
 16 15  1  0
 17 23  1  0
 18 17  2  0
 20 21  1  6
 20 19  1  0
 20 22  1  0
 22 24  1  0
 22 23  1  1
 24 26  2  0
 24 25  1  0
M  END
$$$$
