KKV.pdb
     RDKit          3D

 26 25  0  0  1  0  0  0  0  0999 V2000
   13.5992  -10.0751  -19.2720 N   0  0  0  0  0  0  0  0  0  0  0  0
   14.3352   -8.8669  -19.5138 C   0  0  1  0  0  0  0  0  0  0  0  0
   13.4623   -7.7249  -20.0045 C   0  0  0  0  0  0  0  0  0  0  0  0
   12.0389   -8.0878  -20.2176 C   0  0  0  0  0  0  0  0  0  0  0  0
   11.4988   -7.9034  -21.5905 C   0  0  0  0  0  0  0  0  0  0  0  0
   10.0009   -8.0857  -21.6796 C   0  0  0  0  0  0  0  0  0  0  0  0
    9.5329   -7.9387  -23.0554 N   0  0  0  0  0  0  0  0  0  0  0  0
   15.0164   -8.4689  -18.2582 C   0  0  0  0  0  0  0  0  0  0  0  0
   14.3806   -8.4995  -17.1787 O   0  0  0  0  0  0  0  0  0  0  0  0
   16.3750   -8.0533  -18.2526 N   0  0  0  0  0  0  0  0  0  0  0  0
   16.9821   -7.7059  -17.0058 C   0  0  1  0  0  0  0  0  0  0  0  0
   18.2714   -8.4622  -16.7693 C   0  0  0  0  0  0  0  0  0  0  0  0
   17.9074   -9.9113  -16.5235 C   0  0  0  0  0  0  0  0  0  0  0  0
   18.9100  -10.7519  -17.2916 C   0  0  0  0  0  0  0  0  0  0  0  0
   18.6573  -12.2357  -17.1112 C   0  0  0  0  0  0  0  0  0  0  0  0
   19.4892  -13.0226  -18.0046 N   0  0  0  0  0  0  0  0  0  0  0  0
   17.1939   -6.2486  -16.9360 C   0  0  0  0  0  0  0  0  0  0  0  0
   17.4377   -5.6052  -17.9779 O   0  0  0  0  0  0  0  0  0  0  0  0
   14.8564   -3.6885  -15.9686 C   0  0  0  0  0  0  0  0  0  0  0  0
   16.0739   -3.4367  -15.1049 C   0  0  2  0  0  0  0  0  0  0  0  0
   16.2671   -1.9406  -14.9853 C   0  0  0  0  0  0  0  0  0  0  0  0
   17.3022   -4.0832  -15.7263 C   0  0  2  0  0  0  0  0  0  0  0  0
   17.1330   -5.5203  -15.7105 N   0  0  0  0  0  0  0  0  0  0  0  0
   18.5393   -3.6791  -15.0101 C   0  0  0  0  0  0  0  0  0  0  0  0
   19.2139   -2.5433  -15.3763 O   0  0  0  0  0  0  0  0  0  0  0  0
   19.0056   -4.3541  -14.0562 O   0  0  0  0  0  0  0  0  0  0  0  0
  2  3  1  0
  2  1  1  1
  3  4  1  0
  4  5  1  0
  5  6  1  0
  6  7  1  0
  8  2  1  0
  8  9  2  0
 10  8  1  0
 11 10  1  0
 11 17  1  0
 11 12  1  6
 13 12  1  0
 13 14  1  0
 15 14  1  0
 16 15  1  0
 17 23  1  0
 18 17  2  0
 20 21  1  6
 20 19  1  0
 20 22  1  0
 22 24  1  0
 22 23  1  1
 24 26  2  0
 24 25  1  0
M  END
$$$$
