IIY.pdb
     RDKit          3D

 29 29  0  0  1  0  0  0  0  0999 V2000
   25.1161  -16.3431  -17.8626 C   0  0  0  0  0  0  0  0  0  0  0  0
   26.1880  -16.6436  -16.7995 C   0  0  0  0  0  0  0  0  0  0  0  0
   25.9281  -17.9764  -16.1936 C   0  0  2  0  0  0  0  0  0  0  0  0
   24.4702  -18.0912  -15.8079 C   0  0  0  0  0  0  0  0  0  0  0  0
   26.8556  -18.3685  -15.0969 C   0  0  2  0  0  0  0  0  0  0  0  0
   28.2121  -18.4376  -15.6803 N   0  0  0  0  0  0  0  0  0  0  0  0
   26.5888  -19.6719  -14.4697 C   0  0  0  0  0  0  0  0  0  0  0  0
   26.9420  -20.7251  -15.0703 O   0  0  0  0  0  0  0  0  0  0  0  0
   26.7523  -20.3127   -9.1647 C   0  0  0  0  0  0  0  0  0  0  0  0
   27.0237  -20.5459  -10.6664 C   0  0  0  0  0  0  0  0  0  0  0  0
   25.7732  -21.1089  -11.2269 C   0  0  2  0  0  0  0  0  0  0  0  0
   25.4899  -22.4133  -10.5069 C   0  0  0  0  0  0  0  0  0  0  0  0
   25.6787  -21.2415  -12.7085 C   0  0  2  0  0  0  0  0  0  0  0  0
   25.9552  -19.8684  -13.2153 N   0  0  0  0  0  0  0  0  0  0  0  0
   24.3477  -21.6757  -13.1864 C   0  0  0  0  0  0  0  0  0  0  0  0
   23.3091  -21.2031  -12.6206 O   0  0  0  0  0  0  0  0  0  0  0  0
   18.1815  -20.2108  -11.3353 O   0  0  0  0  0  0  0  0  0  0  0  0
   19.1182  -20.6109  -12.2796 C   0  0  0  0  0  0  0  0  0  0  0  0
   18.9521  -21.7649  -13.0344 C   0  0  0  0  0  0  0  0  0  0  0  0
   19.8945  -22.1246  -13.9522 C   0  0  0  0  0  0  0  0  0  0  0  0
   21.0270  -21.3816  -14.1703 C   0  0  0  0  0  0  0  0  0  0  0  0
   22.0498  -21.7732  -15.1634 C   0  0  0  0  0  0  0  0  0  0  0  0
   22.8262  -22.9767  -14.7096 C   0  0  2  0  0  0  0  0  0  0  0  0
   24.1539  -22.5878  -14.2447 N   0  0  0  0  0  0  0  0  0  0  0  0
   22.8763  -24.0029  -15.7443 C   0  0  0  0  0  0  0  0  0  0  0  0
   21.8854  -24.5708  -16.2444 O   0  0  0  0  0  0  0  0  0  0  0  0
   21.2039  -20.2284  -13.4235 C   0  0  0  0  0  0  0  0  0  0  0  0
   20.2585  -19.8606  -12.4974 C   0  0  0  0  0  0  0  0  0  0  0  0
   24.1246  -24.4184  -16.2514 O   0  0  0  0  0  0  0  0  0  0  0  0
  2  1  1  0
  3  5  1  0
  3  2  1  0
  3  4  1  1
  5  6  1  6
  7  5  1  0
  7  8  2  0
  9 10  1  0
 11 10  1  0
 11 13  1  0
 11 12  1  1
 13 14  1  6
 14  7  1  0
 15 24  1  0
 15 13  1  0
 16 15  2  0
 17 18  1  0
 18 28  2  0
 19 20  2  0
 19 18  1  0
 20 21  1  0
 21 22  1  0
 21 27  2  0
 23 22  1  6
 23 24  1  0
 23 25  1  0
 25 29  1  0
 26 25  2  0
 28 27  1  0
M  END
$$$$
