IIY.pdb
     RDKit          3D

 29 29  0  0  1  0  0  0  0  0999 V2000
   27.0248  -23.5997  -17.3244 C   0  0  0  0  0  0  0  0  0  0  0  0
   27.8813  -24.6381  -16.5777 C   0  0  0  0  0  0  0  0  0  0  0  0
   27.6305  -25.9899  -17.1441 C   0  0  2  0  0  0  0  0  0  0  0  0
   26.1518  -26.3036  -17.0924 C   0  0  0  0  0  0  0  0  0  0  0  0
   28.4792  -27.0799  -16.5888 C   0  0  2  0  0  0  0  0  0  0  0  0
   29.8848  -26.7244  -16.8770 N   0  0  0  0  0  0  0  0  0  0  0  0
   28.2486  -28.4190  -17.1517 C   0  0  0  0  0  0  0  0  0  0  0  0
   28.7129  -28.6923  -18.2938 O   0  0  0  0  0  0  0  0  0  0  0  0
   28.7719  -33.0931  -14.6019 C   0  0  0  0  0  0  0  0  0  0  0  0
   28.8722  -32.0455  -15.7313 C   0  0  0  0  0  0  0  0  0  0  0  0
   27.4836  -31.7945  -16.1827 C   0  0  2  0  0  0  0  0  0  0  0  0
   26.8726  -33.1293  -16.5636 C   0  0  0  0  0  0  0  0  0  0  0  0
   27.2747  -30.7514  -17.2268 C   0  0  2  0  0  0  0  0  0  0  0  0
   27.5347  -29.4682  -16.5165 N   0  0  0  0  0  0  0  0  0  0  0  0
   25.9042  -30.7283  -17.7834 C   0  0  0  0  0  0  0  0  0  0  0  0
   24.9724  -30.1977  -17.0961 O   0  0  0  0  0  0  0  0  0  0  0  0
   18.3102  -29.4959  -21.2778 O   0  0  0  0  0  0  0  0  0  0  0  0
   19.6377  -29.5587  -20.8739 C   0  0  0  0  0  0  0  0  0  0  0  0
   20.6834  -29.2818  -21.7451 C   0  0  0  0  0  0  0  0  0  0  0  0
   21.9742  -29.3543  -21.3108 C   0  0  0  0  0  0  0  0  0  0  0  0
   22.2961  -29.6964  -20.0218 C   0  0  0  0  0  0  0  0  0  0  0  0
   23.6955  -29.7775  -19.5519 C   0  0  0  0  0  0  0  0  0  0  0  0
   24.2052  -31.1905  -19.5799 C   0  0  2  0  0  0  0  0  0  0  0  0
   25.5611  -31.2596  -19.0441 N   0  0  0  0  0  0  0  0  0  0  0  0
   24.1027  -31.7705  -20.9138 C   0  0  0  0  0  0  0  0  0  0  0  0
   23.0476  -31.8943  -21.5664 O   0  0  0  0  0  0  0  0  0  0  0  0
   21.2617  -29.9749  -19.1435 C   0  0  0  0  0  0  0  0  0  0  0  0
   19.9595  -29.9037  -19.5747 C   0  0  0  0  0  0  0  0  0  0  0  0
   25.2648  -32.2427  -21.5577 O   0  0  0  0  0  0  0  0  0  0  0  0
  2  1  1  0
  3  5  1  0
  3  2  1  0
  3  4  1  1
  5  6  1  6
  7  5  1  0
  7  8  2  0
  9 10  1  0
 11 10  1  0
 11 13  1  0
 11 12  1  6
 13 14  1  1
 14  7  1  0
 15 24  1  0
 15 13  1  0
 16 15  2  0
 17 18  1  0
 18 28  2  0
 19 20  2  0
 19 18  1  0
 20 21  1  0
 21 22  1  0
 21 27  2  0
 23 22  1  6
 23 24  1  0
 23 25  1  0
 25 29  1  0
 26 25  2  0
 28 27  1  0
M  END
$$$$
