IIY.pdb
     RDKit          3D

 29 29  0  0  1  0  0  0  0  0999 V2000
   24.4521  -32.5751  -10.7034 C   0  0  0  0  0  0  0  0  0  0  0  0
   25.6533  -33.3688  -10.1589 C   0  0  0  0  0  0  0  0  0  0  0  0
   25.4466  -33.6561   -8.7147 C   0  0  2  0  0  0  0  0  0  0  0  0
   25.0931  -32.3812   -7.9816 C   0  0  0  0  0  0  0  0  0  0  0  0
   26.5379  -34.4257   -8.0564 C   0  0  2  0  0  0  0  0  0  0  0  0
   26.6461  -35.7179   -8.7661 N   0  0  0  0  0  0  0  0  0  0  0  0
   26.3350  -34.7313   -6.6321 C   0  0  0  0  0  0  0  0  0  0  0  0
   25.3545  -35.4513   -6.2931 O   0  0  0  0  0  0  0  0  0  0  0  0
   30.2509  -35.8874   -3.1357 C   0  0  0  0  0  0  0  0  0  0  0  0
   28.8828  -36.0167   -3.8390 C   0  0  0  0  0  0  0  0  0  0  0  0
   28.1222  -34.7957   -3.4848 C   0  0  2  0  0  0  0  0  0  0  0  0
   28.0241  -34.7343   -1.9727 C   0  0  0  0  0  0  0  0  0  0  0  0
   26.8063  -34.5838   -4.1521 C   0  0  2  0  0  0  0  0  0  0  0  0
   27.1601  -34.2840   -5.5677 N   0  0  0  0  0  0  0  0  0  0  0  0
   26.0293  -33.4539   -3.5970 C   0  0  0  0  0  0  0  0  0  0  0  0
   26.5482  -32.2908   -3.6047 O   0  0  0  0  0  0  0  0  0  0  0  0
   20.1787  -27.5883   -1.0516 O   0  0  0  0  0  0  0  0  0  0  0  0
   20.8731  -28.6434   -1.6294 C   0  0  0  0  0  0  0  0  0  0  0  0
   20.3445  -29.9265   -1.6851 C   0  0  0  0  0  0  0  0  0  0  0  0
   21.0573  -30.9366   -2.2609 C   0  0  0  0  0  0  0  0  0  0  0  0
   22.3029  -30.7398   -2.8010 C   0  0  0  0  0  0  0  0  0  0  0  0
   23.0766  -31.8355   -3.4226 C   0  0  0  0  0  0  0  0  0  0  0  0
   24.0247  -32.4659   -2.4424 C   0  0  2  0  0  0  0  0  0  0  0  0
   24.7328  -33.5844   -3.0571 N   0  0  0  0  0  0  0  0  0  0  0  0
   23.3456  -32.8462   -1.2094 C   0  0  0  0  0  0  0  0  0  0  0  0
   22.8369  -32.0530   -0.3929 O   0  0  0  0  0  0  0  0  0  0  0  0
   22.8409  -29.4643   -2.7514 C   0  0  0  0  0  0  0  0  0  0  0  0
   22.1281  -28.4426   -2.1728 C   0  0  0  0  0  0  0  0  0  0  0  0
   23.2299  -34.2102   -0.8716 O   0  0  0  0  0  0  0  0  0  0  0  0
  2  1  1  0
  3  5  1  0
  3  2  1  0
  3  4  1  1
  5  6  1  6
  7  5  1  0
  7  8  2  0
  9 10  1  0
 11 10  1  0
 11 13  1  0
 11 12  1  1
 13 14  1  6
 14  7  1  0
 15 24  1  0
 15 13  1  0
 16 15  2  0
 17 18  1  0
 18 28  2  0
 19 20  2  0
 19 18  1  0
 20 21  1  0
 21 22  1  0
 21 27  2  0
 23 22  1  6
 23 24  1  0
 23 25  1  0
 25 29  1  0
 26 25  2  0
 28 27  1  0
M  END
$$$$
