IIY.pdb
     RDKit          3D

 29 29  0  0  1  0  0  0  0  0999 V2000
   27.9358  -18.0030  -17.8995 C   0  0  0  0  0  0  0  0  0  0  0  0
   28.5301  -19.0751  -16.9685 C   0  0  0  0  0  0  0  0  0  0  0  0
   27.4755  -19.5732  -16.0462 C   0  0  2  0  0  0  0  0  0  0  0  0
   26.7778  -18.4063  -15.3837 C   0  0  0  0  0  0  0  0  0  0  0  0
   27.9165  -20.6162  -15.0795 C   0  0  2  0  0  0  0  0  0  0  0  0
   28.3270  -21.7951  -15.8711 N   0  0  0  0  0  0  0  0  0  0  0  0
   26.8969  -21.0727  -14.1227 C   0  0  0  0  0  0  0  0  0  0  0  0
   26.0509  -21.9342  -14.4927 O   0  0  0  0  0  0  0  0  0  0  0  0
   25.8668  -20.7593   -8.1337 C   0  0  0  0  0  0  0  0  0  0  0  0
   25.1680  -21.1970   -9.4388 C   0  0  0  0  0  0  0  0  0  0  0  0
   26.0766  -20.8061  -10.5418 C   0  0  2  0  0  0  0  0  0  0  0  0
   26.4662  -19.3561  -10.3280 C   0  0  0  0  0  0  0  0  0  0  0  0
   25.6263  -21.0775  -11.9365 C   0  0  2  0  0  0  0  0  0  0  0  0
   26.7675  -20.6275  -12.7815 N   0  0  0  0  0  0  0  0  0  0  0  0
   24.4099  -20.3320  -12.3280 C   0  0  0  0  0  0  0  0  0  0  0  0
   24.5392  -19.1702  -12.8338 O   0  0  0  0  0  0  0  0  0  0  0  0
   18.2930  -18.1911  -17.7285 O   0  0  0  0  0  0  0  0  0  0  0  0
   19.2632  -18.7511  -16.9073 C   0  0  0  0  0  0  0  0  0  0  0  0
   19.2074  -18.6388  -15.5241 C   0  0  0  0  0  0  0  0  0  0  0  0
   20.1794  -19.2027  -14.7514 C   0  0  0  0  0  0  0  0  0  0  0  0
   21.2360  -19.8927  -15.2896 C   0  0  0  0  0  0  0  0  0  0  0  0
   22.2910  -20.5016  -14.4519 C   0  0  0  0  0  0  0  0  0  0  0  0
   21.9828  -20.3600  -12.9883 C   0  0  2  0  0  0  0  0  0  0  0  0
   23.1005  -20.8344  -12.1784 N   0  0  0  0  0  0  0  0  0  0  0  0
   20.7259  -21.0120  -12.6402 C   0  0  0  0  0  0  0  0  0  0  0  0
   20.5141  -22.2398  -12.6871 O   0  0  0  0  0  0  0  0  0  0  0  0
   21.3026  -20.0114  -16.6681 C   0  0  0  0  0  0  0  0  0  0  0  0
   20.3267  -19.4458  -17.4521 C   0  0  0  0  0  0  0  0  0  0  0  0
   19.6335  -20.2313  -12.2098 O   0  0  0  0  0  0  0  0  0  0  0  0
  2  1  1  0
  3  5  1  0
  3  2  1  0
  3  4  1  1
  5  6  1  6
  7  5  1  0
  7  8  2  0
  9 10  1  0
 11 10  1  0
 11 13  1  0
 11 12  1  6
 13 14  1  6
 14  7  1  0
 15 24  1  0
 15 13  1  0
 16 15  2  0
 17 18  1  0
 18 28  2  0
 19 20  2  0
 19 18  1  0
 20 21  1  0
 21 22  1  0
 21 27  2  0
 23 22  1  6
 23 24  1  0
 23 25  1  0
 25 29  1  0
 26 25  2  0
 28 27  1  0
M  END
$$$$
