NHR.pdb
     RDKit          3D

 30 30  0  0  1  0  0  0  0  0999 V2000
   29.1512  -21.5234  -18.2490 N   0  0  0  0  0  0  0  0  0  0  0  0
   28.6075  -22.4667  -17.3338 C   0  0  0  0  0  0  0  0  0  0  0  0
   29.3657  -23.0613  -16.5253 O   0  0  0  0  0  0  0  0  0  0  0  0
   27.1607  -22.7841  -17.2971 C   0  0  0  0  0  0  0  0  0  0  0  0
   26.5548  -21.9524  -16.1644 C   0  0  2  0  0  0  0  0  0  0  0  0
   27.0236  -22.4611  -14.8872 N   0  0  0  0  0  0  0  0  0  0  0  0
   25.0809  -22.0074  -16.2682 C   0  0  0  0  0  0  0  0  0  0  0  0
   24.5400  -21.6954  -17.3606 O   0  0  0  0  0  0  0  0  0  0  0  0
   24.3053  -22.4068  -15.1525 N   0  0  0  0  0  0  0  0  0  0  0  0
   22.8723  -22.5387  -15.1763 C   0  0  1  0  0  0  0  0  0  0  0  0
   22.3945  -23.6340  -14.2972 C   0  0  0  0  0  0  0  0  0  0  0  0
   22.5218  -25.0014  -14.8246 C   0  0  0  0  0  0  0  0  0  0  0  0
   22.9363  -25.4987  -16.0304 C   0  0  0  0  0  0  0  0  0  0  0  0
   22.8404  -26.8498  -15.9797 N   0  0  0  0  0  0  0  0  0  0  0  0
   22.3782  -27.1823  -14.7745 C   0  0  0  0  0  0  0  0  0  0  0  0
   22.1854  -26.0744  -14.0771 N   0  0  0  0  0  0  0  0  0  0  0  0
   22.3277  -21.2573  -14.5760 C   0  0  0  0  0  0  0  0  0  0  0  0
   22.9993  -20.5550  -13.7827 O   0  0  0  0  0  0  0  0  0  0  0  0
   21.0957  -13.6436  -17.6745 N   0  0  0  0  0  0  0  0  0  0  0  0
   20.3707  -13.6400  -16.4554 C   0  0  0  0  0  0  0  0  0  0  0  0
   19.8646  -12.5596  -15.9547 N   0  0  0  0  0  0  0  0  0  0  0  0
   20.1874  -14.8593  -15.7539 N   0  0  0  0  0  0  0  0  0  0  0  0
   20.8361  -16.1117  -16.1231 C   0  0  0  0  0  0  0  0  0  0  0  0
   20.3755  -17.1639  -15.1496 C   0  0  0  0  0  0  0  0  0  0  0  0
   20.8943  -18.5084  -15.5297 C   0  0  0  0  0  0  0  0  0  0  0  0
   20.4781  -19.5694  -14.5801 C   0  0  2  0  0  0  0  0  0  0  0  0
   21.0187  -20.8766  -14.9481 N   0  0  0  0  0  0  0  0  0  0  0  0
   19.0420  -19.7048  -14.3308 C   0  0  0  0  0  0  0  0  0  0  0  0
   18.3694  -19.0605  -13.3058 O   0  0  0  0  0  0  0  0  0  0  0  0
   18.3081  -20.4461  -15.0633 O   0  0  0  0  0  0  0  0  0  0  0  0
  1  2  1  0
  2  3  2  0
  4  2  1  0
  5  6  1  1
  5  4  1  0
  7  5  1  0
  8  7  2  0
  9  7  1  0
 10  9  1  0
 11 12  1  0
 10 11  1  1
 12 13  2  0
 14 13  1  0
 15 14  1  0
 16 15  2  0
 16 12  1  0
 17 10  1  0
 17 18  2  0
 19 20  1  0
 20 21  2  0
 22 23  1  0
 22 20  1  0
 23 24  1  0
 26 25  1  6
 25 24  1  0
 26 27  1  0
 27 17  1  0
 28 26  1  0
 29 28  1  0
 30 28  2  0
M  END
$$$$
