NHR.pdb
     RDKit          3D

 30 30  0  0  1  0  0  0  0  0999 V2000
   19.0316  -22.6485  -12.7244 N   0  0  0  0  0  0  0  0  0  0  0  0
   19.9462  -22.3360  -11.6809 C   0  0  0  0  0  0  0  0  0  0  0  0
   19.7173  -22.7333  -10.5097 O   0  0  0  0  0  0  0  0  0  0  0  0
   21.1758  -21.5454  -11.9226 C   0  0  0  0  0  0  0  0  0  0  0  0
   21.2105  -21.2293  -13.4194 C   0  0  2  0  0  0  0  0  0  0  0  0
   21.3939  -22.4598  -14.1692 N   0  0  0  0  0  0  0  0  0  0  0  0
   22.2994  -20.2631  -13.6777 C   0  0  0  0  0  0  0  0  0  0  0  0
   22.3018  -19.1731  -13.0492 O   0  0  0  0  0  0  0  0  0  0  0  0
   23.3148  -20.5721  -14.6156 N   0  0  0  0  0  0  0  0  0  0  0  0
   24.4606  -19.7372  -14.8631 C   0  0  1  0  0  0  0  0  0  0  0  0
   25.7358  -20.4882  -14.7587 C   0  0  0  0  0  0  0  0  0  0  0  0
   26.0412  -21.0834  -13.4485 C   0  0  0  0  0  0  0  0  0  0  0  0
   25.9513  -22.3598  -12.9627 C   0  0  0  0  0  0  0  0  0  0  0  0
   26.3551  -22.3432  -11.6689 N   0  0  0  0  0  0  0  0  0  0  0  0
   26.6865  -21.0896  -11.3597 C   0  0  0  0  0  0  0  0  0  0  0  0
   26.4993  -20.3293  -12.4263 N   0  0  0  0  0  0  0  0  0  0  0  0
   24.3523  -19.3029  -16.3118 C   0  0  0  0  0  0  0  0  0  0  0  0
   23.9133  -20.0661  -17.2052 O   0  0  0  0  0  0  0  0  0  0  0  0
   21.7055  -11.5074  -19.2340 N   0  0  0  0  0  0  0  0  0  0  0  0
   22.4961  -12.0785  -20.2639 C   0  0  0  0  0  0  0  0  0  0  0  0
   22.7928  -11.4343  -21.3461 N   0  0  0  0  0  0  0  0  0  0  0  0
   22.9845  -13.4014  -20.1106 N   0  0  0  0  0  0  0  0  0  0  0  0
   22.6065  -14.2823  -19.0120 C   0  0  0  0  0  0  0  0  0  0  0  0
   23.3974  -15.5550  -19.1599 C   0  0  0  0  0  0  0  0  0  0  0  0
   23.7234  -16.1401  -17.8285 C   0  0  0  0  0  0  0  0  0  0  0  0
   24.4976  -17.4011  -17.9342 C   0  0  2  0  0  0  0  0  0  0  0  0
   24.7685  -17.9889  -16.6236 N   0  0  0  0  0  0  0  0  0  0  0  0
   25.7470  -17.3460  -18.6950 C   0  0  0  0  0  0  0  0  0  0  0  0
   26.9714  -16.9968  -18.1500 O   0  0  0  0  0  0  0  0  0  0  0  0
   25.7795  -17.6230  -19.9387 O   0  0  0  0  0  0  0  0  0  0  0  0
  1  2  1  0
  2  3  2  0
  4  2  1  0
  5  6  1  6
  5  4  1  0
  7  5  1  0
  8  7  2  0
  9  7  1  0
 10  9  1  0
 11 12  1  0
 10 11  1  6
 12 13  2  0
 14 13  1  0
 15 14  1  0
 16 15  2  0
 16 12  1  0
 17 10  1  0
 17 18  2  0
 19 20  1  0
 20 21  2  0
 22 23  1  0
 22 20  1  0
 23 24  1  0
 26 25  1  1
 25 24  1  0
 26 27  1  0
 27 17  1  0
 28 26  1  0
 29 28  1  0
 30 28  2  0
M  END
$$$$
