NHR.pdb
     RDKit          3D

 30 30  0  0  1  0  0  0  0  0999 V2000
   25.2832  -13.6241  -15.7859 N   0  0  0  0  0  0  0  0  0  0  0  0
   24.0499  -12.9162  -15.7569 C   0  0  0  0  0  0  0  0  0  0  0  0
   23.0624  -13.3549  -16.4008 O   0  0  0  0  0  0  0  0  0  0  0  0
   23.8808  -11.6607  -14.9885 C   0  0  0  0  0  0  0  0  0  0  0  0
   22.6784  -10.9318  -15.5924 C   0  0  2  0  0  0  0  0  0  0  0  0
   22.8980  -10.7331  -17.0145 N   0  0  0  0  0  0  0  0  0  0  0  0
   22.4928   -9.6484  -14.8822 C   0  0  0  0  0  0  0  0  0  0  0  0
   22.9250   -9.5408  -13.7055 O   0  0  0  0  0  0  0  0  0  0  0  0
   21.8410   -8.5685  -15.5266 N   0  0  0  0  0  0  0  0  0  0  0  0
   21.4883   -7.3368  -14.8710 C   0  0  1  0  0  0  0  0  0  0  0  0
   21.6120   -6.1653  -15.7727 C   0  0  0  0  0  0  0  0  0  0  0  0
   21.2323   -4.8606  -15.2090 C   0  0  0  0  0  0  0  0  0  0  0  0
   21.9066   -3.9437  -14.4490 C   0  0  0  0  0  0  0  0  0  0  0  0
   21.0652   -2.9115  -14.1963 N   0  0  0  0  0  0  0  0  0  0  0  0
   19.8993   -3.1809  -14.7836 C   0  0  0  0  0  0  0  0  0  0  0  0
   19.9954   -4.3513  -15.3933 N   0  0  0  0  0  0  0  0  0  0  0  0
   20.0132   -7.4511  -14.5393 C   0  0  0  0  0  0  0  0  0  0  0  0
   19.2159   -8.0964  -15.2613 O   0  0  0  0  0  0  0  0  0  0  0  0
   15.1739   -7.1482   -8.3157 N   0  0  0  0  0  0  0  0  0  0  0  0
   14.2426   -7.9142   -9.0627 C   0  0  0  0  0  0  0  0  0  0  0  0
   12.9793   -7.9316   -8.7836 N   0  0  0  0  0  0  0  0  0  0  0  0
   14.7028   -8.6906  -10.1571 N   0  0  0  0  0  0  0  0  0  0  0  0
   16.1071   -8.8139  -10.5291 C   0  0  0  0  0  0  0  0  0  0  0  0
   16.3959   -7.7574  -11.5623 C   0  0  0  0  0  0  0  0  0  0  0  0
   17.8070   -7.8424  -12.0345 C   0  0  0  0  0  0  0  0  0  0  0  0
   18.1458   -6.7794  -13.0123 C   0  0  2  0  0  0  0  0  0  0  0  0
   19.5627   -6.7965  -13.3708 N   0  0  0  0  0  0  0  0  0  0  0  0
   17.7642   -5.4114  -12.6577 C   0  0  0  0  0  0  0  0  0  0  0  0
   18.6604   -4.4390  -12.2461 O   0  0  0  0  0  0  0  0  0  0  0  0
   16.5501   -5.0267  -12.7078 O   0  0  0  0  0  0  0  0  0  0  0  0
  1  2  1  0
  2  3  2  0
  4  2  1  0
  5  6  1  6
  5  4  1  0
  7  5  1  0
  8  7  2  0
  9  7  1  0
 10  9  1  0
 11 12  1  0
 10 11  1  6
 12 13  2  0
 14 13  1  0
 15 14  1  0
 16 15  2  0
 16 12  1  0
 17 10  1  0
 17 18  2  0
 19 20  1  0
 20 21  2  0
 22 23  1  0
 22 20  1  0
 23 24  1  0
 26 25  1  1
 25 24  1  0
 26 27  1  0
 27 17  1  0
 28 26  1  0
 29 28  1  0
 30 28  2  0
M  END
$$$$
