NHR.pdb
     RDKit          3D

 30 30  0  0  1  0  0  0  0  0999 V2000
   18.3589  -25.0845   -8.2261 N   0  0  0  0  0  0  0  0  0  0  0  0
   18.2428  -23.9966   -9.1349 C   0  0  0  0  0  0  0  0  0  0  0  0
   17.1111  -23.6675   -9.5741 O   0  0  0  0  0  0  0  0  0  0  0  0
   19.4217  -23.2255   -9.5943 C   0  0  0  0  0  0  0  0  0  0  0  0
   19.2150  -22.9493  -11.0852 C   0  0  2  0  0  0  0  0  0  0  0  0
   18.9096  -24.1936  -11.7695 N   0  0  0  0  0  0  0  0  0  0  0  0
   20.4347  -22.3121  -11.6257 C   0  0  0  0  0  0  0  0  0  0  0  0
   20.9113  -21.3136  -11.0263 O   0  0  0  0  0  0  0  0  0  0  0  0
   21.0457  -22.8269  -12.7952 N   0  0  0  0  0  0  0  0  0  0  0  0
   22.1986  -22.2386  -13.4245 C   0  0  1  0  0  0  0  0  0  0  0  0
   22.9298  -23.2087  -14.2762 C   0  0  0  0  0  0  0  0  0  0  0  0
   24.1556  -22.7184  -14.9250 C   0  0  0  0  0  0  0  0  0  0  0  0
   24.7342  -21.4807  -15.0060 C   0  0  0  0  0  0  0  0  0  0  0  0
   25.8637  -21.5958  -15.7466 N   0  0  0  0  0  0  0  0  0  0  0  0
   25.9827  -22.8711  -16.1157 C   0  0  0  0  0  0  0  0  0  0  0  0
   24.9583  -23.5492  -15.6242 N   0  0  0  0  0  0  0  0  0  0  0  0
   21.6614  -21.1804  -14.3682 C   0  0  0  0  0  0  0  0  0  0  0  0
   20.4785  -20.7682  -14.3033 O   0  0  0  0  0  0  0  0  0  0  0  0
   21.4260  -13.6717  -17.1311 N   0  0  0  0  0  0  0  0  0  0  0  0
   20.1372  -14.1249  -16.7494 C   0  0  0  0  0  0  0  0  0  0  0  0
   19.0532  -13.5357  -17.1388 N   0  0  0  0  0  0  0  0  0  0  0  0
   20.0226  -15.2646  -15.9126 N   0  0  0  0  0  0  0  0  0  0  0  0
   21.1638  -15.9574  -15.3265 C   0  0  0  0  0  0  0  0  0  0  0  0
   21.4539  -17.1590  -16.1862 C   0  0  0  0  0  0  0  0  0  0  0  0
   21.8217  -18.3378  -15.3516 C   0  0  0  0  0  0  0  0  0  0  0  0
   22.1904  -19.5209  -16.1672 C   0  0  2  0  0  0  0  0  0  0  0  0
   22.5539  -20.6671  -15.3362 N   0  0  0  0  0  0  0  0  0  0  0  0
   23.2269  -19.3250  -17.1821 C   0  0  0  0  0  0  0  0  0  0  0  0
   24.5573  -19.0718  -16.8921 O   0  0  0  0  0  0  0  0  0  0  0  0
   22.9556  -19.3765  -18.4265 O   0  0  0  0  0  0  0  0  0  0  0  0
  1  2  1  0
  2  3  2  0
  4  2  1  0
  5  6  1  6
  5  4  1  0
  7  5  1  0
  8  7  2  0
  9  7  1  0
 10  9  1  0
 11 12  1  0
 10 11  1  6
 12 13  2  0
 14 13  1  0
 15 14  1  0
 16 15  2  0
 16 12  1  0
 17 10  1  0
 17 18  2  0
 19 20  1  0
 20 21  2  0
 22 23  1  0
 22 20  1  0
 23 24  1  0
 26 25  1  1
 25 24  1  0
 26 27  1  0
 27 17  1  0
 28 26  1  0
 29 28  1  0
 30 28  2  0
M  END
$$$$
