NHR.pdb
     RDKit          3D

 30 30  0  0  1  0  0  0  0  0999 V2000
   24.9893  -20.2825   -8.8593 N   0  0  0  0  0  0  0  0  0  0  0  0
   24.9041  -20.5150  -10.2599 C   0  0  0  0  0  0  0  0  0  0  0  0
   24.2161  -19.7469  -10.9801 O   0  0  0  0  0  0  0  0  0  0  0  0
   25.6024  -21.6464  -10.9138 C   0  0  0  0  0  0  0  0  0  0  0  0
   26.7107  -21.0411  -11.7782 C   0  0  2  0  0  0  0  0  0  0  0  0
   26.5570  -19.5973  -11.8200 N   0  0  0  0  0  0  0  0  0  0  0  0
   26.6422  -21.6386  -13.1289 C   0  0  0  0  0  0  0  0  0  0  0  0
   26.9166  -22.8590  -13.2645 O   0  0  0  0  0  0  0  0  0  0  0  0
   26.2716  -20.8415  -14.2395 N   0  0  0  0  0  0  0  0  0  0  0  0
   26.2443  -21.3187  -15.5970 C   0  0  1  0  0  0  0  0  0  0  0  0
   25.4811  -20.4167  -16.4941 C   0  0  0  0  0  0  0  0  0  0  0  0
   24.0230  -20.3805  -16.3022 C   0  0  0  0  0  0  0  0  0  0  0  0
   23.1639  -21.1396  -15.5546 C   0  0  0  0  0  0  0  0  0  0  0  0
   21.9080  -20.6731  -15.7604 N   0  0  0  0  0  0  0  0  0  0  0  0
   21.9856  -19.6517  -16.6133 C   0  0  0  0  0  0  0  0  0  0  0  0
   23.2548  -19.4725  -16.9415 N   0  0  0  0  0  0  0  0  0  0  0  0
   27.6798  -21.2697  -16.0829 C   0  0  0  0  0  0  0  0  0  0  0  0
   28.5629  -20.6080  -15.4865 O   0  0  0  0  0  0  0  0  0  0  0  0
   34.1320  -24.7821  -13.4931 N   0  0  0  0  0  0  0  0  0  0  0  0
   34.3876  -24.9071  -14.8827 C   0  0  0  0  0  0  0  0  0  0  0  0
   35.4901  -25.4053  -15.3412 N   0  0  0  0  0  0  0  0  0  0  0  0
   33.4052  -24.4748  -15.8101 N   0  0  0  0  0  0  0  0  0  0  0  0
   32.0426  -24.1138  -15.4375 C   0  0  0  0  0  0  0  0  0  0  0  0
   31.3433  -23.6397  -16.6839 C   0  0  0  0  0  0  0  0  0  0  0  0
   30.0040  -23.0701  -16.3622 C   0  0  0  0  0  0  0  0  0  0  0  0
   29.3633  -22.4235  -17.5335 C   0  0  2  0  0  0  0  0  0  0  0  0
   27.9917  -22.0074  -17.2471 N   0  0  0  0  0  0  0  0  0  0  0  0
   29.3770  -23.1739  -18.7903 C   0  0  0  0  0  0  0  0  0  0  0  0
   30.5262  -23.4647  -19.5067 O   0  0  0  0  0  0  0  0  0  0  0  0
   28.3008  -23.6138  -19.3126 O   0  0  0  0  0  0  0  0  0  0  0  0
  1  2  1  0
  2  3  2  0
  4  2  1  0
  5  6  1  6
  5  4  1  0
  7  5  1  0
  8  7  2  0
  9  7  1  0
 10  9  1  0
 11 12  1  0
 10 11  1  6
 12 13  2  0
 14 13  1  0
 15 14  1  0
 16 15  2  0
 16 12  1  0
 17 10  1  0
 17 18  2  0
 19 20  1  0
 20 21  2  0
 22 23  1  0
 22 20  1  0
 23 24  1  0
 26 25  1  1
 25 24  1  0
 26 27  1  0
 27 17  1  0
 28 26  1  0
 29 28  1  0
 30 28  2  0
M  END
$$$$
