NHR.pdb
     RDKit          3D

 30 30  0  0  1  0  0  0  0  0999 V2000
   30.8689  -19.8807  -19.4029 N   0  0  0  0  0  0  0  0  0  0  0  0
   29.4600  -19.9547  -19.2224 C   0  0  0  0  0  0  0  0  0  0  0  0
   28.6973  -19.3128  -19.9894 O   0  0  0  0  0  0  0  0  0  0  0  0
   28.8459  -20.7686  -18.1473 C   0  0  0  0  0  0  0  0  0  0  0  0
   27.7011  -19.9376  -17.5636 C   0  0  2  0  0  0  0  0  0  0  0  0
   28.2294  -18.6936  -17.0312 N   0  0  0  0  0  0  0  0  0  0  0  0
   27.0176  -20.7330  -16.5214 C   0  0  0  0  0  0  0  0  0  0  0  0
   26.9307  -21.9791  -16.6721 O   0  0  0  0  0  0  0  0  0  0  0  0
   26.4774  -20.0920  -15.3797 N   0  0  0  0  0  0  0  0  0  0  0  0
   25.8849  -20.7922  -14.2707 C   0  0  1  0  0  0  0  0  0  0  0  0
   26.3838  -20.2984  -12.9637 C   0  0  0  0  0  0  0  0  0  0  0  0
   27.7490  -20.6984  -12.5891 C   0  0  0  0  0  0  0  0  0  0  0  0
   28.7010  -21.4571  -13.2147 C   0  0  0  0  0  0  0  0  0  0  0  0
   29.7867  -21.5147  -12.4054 N   0  0  0  0  0  0  0  0  0  0  0  0
   29.5158  -20.8107  -11.3064 C   0  0  0  0  0  0  0  0  0  0  0  0
   28.2922  -20.3185  -11.4126 N   0  0  0  0  0  0  0  0  0  0  0  0
   24.4078  -20.4516  -14.3065 C   0  0  0  0  0  0  0  0  0  0  0  0
   23.9869  -19.3573  -14.7521 O   0  0  0  0  0  0  0  0  0  0  0  0
   17.0722  -24.7134  -11.2282 N   0  0  0  0  0  0  0  0  0  0  0  0
   16.6800  -23.7305  -12.1726 C   0  0  0  0  0  0  0  0  0  0  0  0
   15.4391  -23.5031  -12.4597 N   0  0  0  0  0  0  0  0  0  0  0  0
   17.6762  -22.9636  -12.8296 N   0  0  0  0  0  0  0  0  0  0  0  0
   19.1074  -23.2035  -12.6886 C   0  0  0  0  0  0  0  0  0  0  0  0
   19.8231  -22.1713  -13.5191 C   0  0  0  0  0  0  0  0  0  0  0  0
   21.2946  -22.4079  -13.5151 C   0  0  0  0  0  0  0  0  0  0  0  0
   22.0719  -21.1681  -13.7584 C   0  0  2  0  0  0  0  0  0  0  0  0
   23.5098  -21.4252  -13.8139 N   0  0  0  0  0  0  0  0  0  0  0  0
   21.8268  -20.0471  -12.8494 C   0  0  0  0  0  0  0  0  0  0  0  0
   20.9728  -18.9938  -13.1309 O   0  0  0  0  0  0  0  0  0  0  0  0
   22.4033  -19.9741  -11.7149 O   0  0  0  0  0  0  0  0  0  0  0  0
  1  2  1  0
  2  3  2  0
  4  2  1  0
  5  6  1  1
  5  4  1  0
  7  5  1  0
  8  7  2  0
  9  7  1  0
 10  9  1  0
 11 12  1  0
 10 11  1  1
 12 13  2  0
 14 13  1  0
 15 14  1  0
 16 15  2  0
 16 12  1  0
 17 10  1  0
 17 18  2  0
 19 20  1  0
 20 21  2  0
 22 23  1  0
 22 20  1  0
 23 24  1  0
 26 25  1  1
 25 24  1  0
 26 27  1  0
 27 17  1  0
 28 26  1  0
 29 28  1  0
 30 28  2  0
M  END
$$$$
