NHR.pdb
     RDKit          3D

 30 30  0  0  1  0  0  0  0  0999 V2000
   23.8614  -23.3590  -21.6683 N   0  0  0  0  0  0  0  0  0  0  0  0
   23.5406  -22.5237  -20.5626 C   0  0  0  0  0  0  0  0  0  0  0  0
   23.2420  -21.3174  -20.7568 O   0  0  0  0  0  0  0  0  0  0  0  0
   23.5476  -23.0259  -19.1687 C   0  0  0  0  0  0  0  0  0  0  0  0
   24.2960  -21.9882  -18.3292 C   0  0  2  0  0  0  0  0  0  0  0  0
   25.7144  -22.0502  -18.6360 N   0  0  0  0  0  0  0  0  0  0  0  0
   24.0330  -22.2526  -16.8985 C   0  0  0  0  0  0  0  0  0  0  0  0
   24.1380  -23.4319  -16.4726 O   0  0  0  0  0  0  0  0  0  0  0  0
   23.6724  -21.1895  -16.0349 N   0  0  0  0  0  0  0  0  0  0  0  0
   23.5337  -21.3250  -14.6088 C   0  0  1  0  0  0  0  0  0  0  0  0
   24.3854  -20.3626  -13.8677 C   0  0  0  0  0  0  0  0  0  0  0  0
   25.8345  -20.4507  -14.1055 C   0  0  0  0  0  0  0  0  0  0  0  0
   26.5959  -21.2315  -14.9324 C   0  0  0  0  0  0  0  0  0  0  0  0
   27.8960  -20.9020  -14.7369 N   0  0  0  0  0  0  0  0  0  0  0  0
   27.9405  -19.9423  -13.8129 C   0  0  0  0  0  0  0  0  0  0  0  0
   26.7037  -19.6681  -13.4307 N   0  0  0  0  0  0  0  0  0  0  0  0
   22.1014  -20.9403  -14.2929 C   0  0  0  0  0  0  0  0  0  0  0  0
   21.4756  -20.0888  -14.9687 O   0  0  0  0  0  0  0  0  0  0  0  0
   19.4513  -24.9194   -8.2656 N   0  0  0  0  0  0  0  0  0  0  0  0
   18.2368  -24.1888   -8.2091 C   0  0  0  0  0  0  0  0  0  0  0  0
   17.6546  -23.9002   -7.0902 N   0  0  0  0  0  0  0  0  0  0  0  0
   17.6325  -23.7535   -9.4163 N   0  0  0  0  0  0  0  0  0  0  0  0
   18.2378  -23.9222  -10.7320 C   0  0  0  0  0  0  0  0  0  0  0  0
   18.8336  -22.5977  -11.1291 C   0  0  0  0  0  0  0  0  0  0  0  0
   19.4074  -22.6595  -12.5032 C   0  0  0  0  0  0  0  0  0  0  0  0
   20.0690  -21.3931  -12.9022 C   0  0  2  0  0  0  0  0  0  0  0  0
   21.4880  -21.5852  -13.1953 N   0  0  0  0  0  0  0  0  0  0  0  0
   19.9242  -20.2576  -11.9897 C   0  0  0  0  0  0  0  0  0  0  0  0
   18.7881  -19.4698  -11.9071 O   0  0  0  0  0  0  0  0  0  0  0  0
   20.8634  -19.9188  -11.1973 O   0  0  0  0  0  0  0  0  0  0  0  0
  1  2  1  0
  2  3  2  0
  4  2  1  0
  5  6  1  1
  5  4  1  0
  7  5  1  0
  8  7  2  0
  9  7  1  0
 10  9  1  0
 11 12  1  0
 10 11  1  1
 12 13  2  0
 14 13  1  0
 15 14  1  0
 16 15  2  0
 16 12  1  0
 17 10  1  0
 17 18  2  0
 19 20  1  0
 20 21  2  0
 22 23  1  0
 22 20  1  0
 23 24  1  0
 26 25  1  1
 25 24  1  0
 26 27  1  0
 27 17  1  0
 28 26  1  0
 29 28  1  0
 30 28  2  0
M  END
$$$$
