NHR.pdb
     RDKit          3D

 30 30  0  0  1  0  0  0  0  0999 V2000
   18.0825  -15.8113    1.4304 N   0  0  0  0  0  0  0  0  0  0  0  0
   18.8550  -14.9433    2.2507 C   0  0  0  0  0  0  0  0  0  0  0  0
   19.9478  -14.4893    1.8245 O   0  0  0  0  0  0  0  0  0  0  0  0
   18.4176  -14.5492    3.6104 C   0  0  0  0  0  0  0  0  0  0  0  0
   17.0594  -15.2131    3.8471 C   0  0  2  0  0  0  0  0  0  0  0  0
   15.9995  -14.2692    3.5378 N   0  0  0  0  0  0  0  0  0  0  0  0
   16.9912  -15.6725    5.2508 C   0  0  0  0  0  0  0  0  0  0  0  0
   16.5753  -14.8729    6.1288 O   0  0  0  0  0  0  0  0  0  0  0  0
   17.3879  -16.9901    5.5864 N   0  0  0  0  0  0  0  0  0  0  0  0
   17.1616  -17.5937    6.8732 C   0  0  1  0  0  0  0  0  0  0  0  0
   16.2865  -18.7886    6.7869 C   0  0  0  0  0  0  0  0  0  0  0  0
   14.8370  -18.5393    6.7556 C   0  0  0  0  0  0  0  0  0  0  0  0
   14.0838  -17.4081    6.9177 C   0  0  0  0  0  0  0  0  0  0  0  0
   12.7788  -17.7555    6.8012 N   0  0  0  0  0  0  0  0  0  0  0  0
   12.7235  -19.0677    6.5732 C   0  0  0  0  0  0  0  0  0  0  0  0
   13.9582  -19.5427    6.5451 N   0  0  0  0  0  0  0  0  0  0  0  0
   18.5130  -18.1018    7.3364 C   0  0  0  0  0  0  0  0  0  0  0  0
   19.3452  -18.6013    6.5419 O   0  0  0  0  0  0  0  0  0  0  0  0
   23.2431  -20.2615   12.8310 N   0  0  0  0  0  0  0  0  0  0  0  0
   23.9788  -19.0536   12.9387 C   0  0  0  0  0  0  0  0  0  0  0  0
   25.2547  -19.0374   13.1523 N   0  0  0  0  0  0  0  0  0  0  0  0
   23.3007  -17.8146   12.8073 N   0  0  0  0  0  0  0  0  0  0  0  0
   21.8825  -17.6969   12.4903 C   0  0  0  0  0  0  0  0  0  0  0  0
   21.6936  -18.1780   11.0761 C   0  0  0  0  0  0  0  0  0  0  0  0
   20.2610  -18.1021   10.6719 C   0  0  0  0  0  0  0  0  0  0  0  0
   20.0397  -18.5405    9.2721 C   0  0  2  0  0  0  0  0  0  0  0  0
   18.8059  -17.9899    8.7144 N   0  0  0  0  0  0  0  0  0  0  0  0
   20.0703  -19.9822    9.0200 C   0  0  0  0  0  0  0  0  0  0  0  0
   21.2160  -20.6868    8.6897 O   0  0  0  0  0  0  0  0  0  0  0  0
   19.0134  -20.6911    9.0908 O   0  0  0  0  0  0  0  0  0  0  0  0
  1  2  1  0
  2  3  2  0
  4  2  1  0
  5  6  1  1
  5  4  1  0
  7  5  1  0
  8  7  2  0
  9  7  1  0
 10  9  1  0
 11 12  1  0
 10 11  1  6
 12 13  2  0
 14 13  1  0
 15 14  1  0
 16 15  2  0
 16 12  1  0
 17 10  1  0
 17 18  2  0
 19 20  1  0
 20 21  2  0
 22 23  1  0
 22 20  1  0
 23 24  1  0
 26 25  1  1
 25 24  1  0
 26 27  1  0
 27 17  1  0
 28 26  1  0
 29 28  1  0
 30 28  2  0
M  END
$$$$
