NHR.pdb
     RDKit          3D

 30 30  0  0  1  0  0  0  0  0999 V2000
   17.6057   -8.3974  -16.5831 N   0  0  0  0  0  0  0  0  0  0  0  0
   17.7402   -9.5972  -15.8310 C   0  0  0  0  0  0  0  0  0  0  0  0
   17.2825  -10.6758  -16.2883 O   0  0  0  0  0  0  0  0  0  0  0  0
   18.4058   -9.6261  -14.5076 C   0  0  0  0  0  0  0  0  0  0  0  0
   18.7244   -8.1747  -14.1417 C   0  0  2  0  0  0  0  0  0  0  0  0
   20.1266   -7.9055  -14.4090 N   0  0  0  0  0  0  0  0  0  0  0  0
   18.3863   -7.9563  -12.7191 C   0  0  0  0  0  0  0  0  0  0  0  0
   18.3002   -8.9548  -11.9582 O   0  0  0  0  0  0  0  0  0  0  0  0
   18.1677   -6.6433  -12.2350 N   0  0  0  0  0  0  0  0  0  0  0  0
   17.8550   -6.3342  -10.8646 C   0  0  1  0  0  0  0  0  0  0  0  0
   18.9276   -5.5479  -10.2074 C   0  0  0  0  0  0  0  0  0  0  0  0
   20.1891   -6.2554   -9.9386 C   0  0  0  0  0  0  0  0  0  0  0  0
   20.6226   -7.5231  -10.2185 C   0  0  0  0  0  0  0  0  0  0  0  0
   21.8790   -7.6524   -9.7266 N   0  0  0  0  0  0  0  0  0  0  0  0
   22.2162   -6.4958   -9.1561 C   0  0  0  0  0  0  0  0  0  0  0  0
   21.2034   -5.6535   -9.2813 N   0  0  0  0  0  0  0  0  0  0  0  0
   16.6426   -5.4247  -10.9108 C   0  0  0  0  0  0  0  0  0  0  0  0
   16.2669   -4.8684  -11.9703 O   0  0  0  0  0  0  0  0  0  0  0  0
    9.8101   -8.7497  -10.6939 N   0  0  0  0  0  0  0  0  0  0  0  0
   10.4817   -8.8550   -9.4489 C   0  0  0  0  0  0  0  0  0  0  0  0
   10.1917   -9.7705   -8.5818 N   0  0  0  0  0  0  0  0  0  0  0  0
   11.5099   -7.9296   -9.1351 N   0  0  0  0  0  0  0  0  0  0  0  0
   11.8881   -6.8159   -9.9967 C   0  0  0  0  0  0  0  0  0  0  0  0
   13.0536   -6.1175   -9.3479 C   0  0  0  0  0  0  0  0  0  0  0  0
   13.5620   -5.0124  -10.2091 C   0  0  0  0  0  0  0  0  0  0  0  0
   14.7661   -4.3564   -9.6429 C   0  0  2  0  0  0  0  0  0  0  0  0
   15.9408   -5.2243   -9.7007 N   0  0  0  0  0  0  0  0  0  0  0  0
   14.6459   -3.8131   -8.2890 C   0  0  0  0  0  0  0  0  0  0  0  0
   13.6497   -2.9370   -7.8913 O   0  0  0  0  0  0  0  0  0  0  0  0
   15.4762   -4.1233   -7.3730 O   0  0  0  0  0  0  0  0  0  0  0  0
  1  2  1  0
  2  3  2  0
  4  2  1  0
  5  6  1  1
  5  4  1  0
  7  5  1  0
  8  7  2  0
  9  7  1  0
 10  9  1  0
 11 12  1  0
 10 11  1  6
 12 13  2  0
 14 13  1  0
 15 14  1  0
 16 15  2  0
 16 12  1  0
 17 10  1  0
 17 18  2  0
 19 20  1  0
 20 21  2  0
 22 23  1  0
 22 20  1  0
 23 24  1  0
 26 25  1  1
 25 24  1  0
 26 27  1  0
 27 17  1  0
 28 26  1  0
 29 28  1  0
 30 28  2  0
M  END
$$$$
