QVT.pdb
     RDKit          3D

 24 23  0  0  1  0  0  0  0  0999 V2000
   17.7418  -11.4098  -19.8076 N   0  0  0  0  0  0  0  0  0  0  0  0
   18.1018  -12.7917  -19.9698 C   0  0  0  0  0  0  0  0  0  0  0  0
   17.6570  -13.3590  -20.9943 O   0  0  0  0  0  0  0  0  0  0  0  0
   18.9484  -13.4508  -18.9579 C   0  0  0  0  0  0  0  0  0  0  0  0
   19.3164  -12.6009  -17.7923 C   0  0  0  0  0  0  0  0  0  0  0  0
   20.3302  -11.5446  -18.0826 C   0  0  2  0  0  0  0  0  0  0  0  0
   21.5716  -12.1010  -18.6086 N   0  0  0  0  0  0  0  0  0  0  0  0
   20.6208  -10.7132  -16.8820 C   0  0  0  0  0  0  0  0  0  0  0  0
   19.6837  -10.3137  -16.1434 O   0  0  0  0  0  0  0  0  0  0  0  0
   23.3011  -11.5099  -14.5721 C   0  0  0  0  0  0  0  0  0  0  0  0
   23.3349   -9.9847  -14.5014 C   0  0  1  0  0  0  0  0  0  0  0  0
   24.6711   -9.5645  -15.0791 C   0  0  0  0  0  0  0  0  0  0  0  0
   22.1785   -9.4977  -15.3525 C   0  0  2  0  0  0  0  0  0  0  0  0
   21.9359  -10.3238  -16.4967 N   0  0  0  0  0  0  0  0  0  0  0  0
   22.3765   -8.0602  -15.7397 C   0  0  0  0  0  0  0  0  0  0  0  0
   23.2770   -7.7187  -16.5477 O   0  0  0  0  0  0  0  0  0  0  0  0
   19.8440   -5.6675  -17.1324 C   0  0  0  0  0  0  0  0  0  0  0  0
   20.3729   -5.0442  -15.8583 C   0  0  1  0  0  0  0  0  0  0  0  0
   19.4552   -5.3441  -14.8524 O   0  0  0  0  0  0  0  0  0  0  0  0
   21.6990   -5.6834  -15.5103 C   0  0  2  0  0  0  0  0  0  0  0  0
   21.5029   -7.0834  -15.1571 N   0  0  0  0  0  0  0  0  0  0  0  0
   22.2937   -4.9241  -14.3884 C   0  0  0  0  0  0  0  0  0  0  0  0
   22.3846   -5.4790  -13.2666 O   0  0  0  0  0  0  0  0  0  0  0  0
   22.7547   -3.6276  -14.5215 O   0  0  0  0  0  0  0  0  0  0  0  0
  2  1  1  0
  3  2  2  0
  4  2  1  0
  5  4  1  0
  6  5  1  0
  6  7  1  1
  8 14  1  0
  8  6  1  0
  9  8  2  0
 11 10  1  6
 11 13  1  0
 12 11  1  0
 13 14  1  6
 15 21  1  0
 15 13  1  0
 16 15  2  0
 18 20  1  0
 18 17  1  6
 19 18  1  0
 20 22  1  0
 20 21  1  1
 22 24  1  0
 23 22  2  0
M  END
$$$$
