QVT.pdb
     RDKit          3D

 24 23  0  0  1  0  0  0  0  0999 V2000
   19.6703  -13.0853  -16.8591 N   0  0  0  0  0  0  0  0  0  0  0  0
   18.5723  -14.0026  -16.9956 C   0  0  0  0  0  0  0  0  0  0  0  0
   18.8726  -15.1758  -17.3156 O   0  0  0  0  0  0  0  0  0  0  0  0
   17.1939  -13.5340  -16.7597 C   0  0  0  0  0  0  0  0  0  0  0  0
   17.0708  -12.0985  -16.3844 C   0  0  0  0  0  0  0  0  0  0  0  0
   16.4883  -11.8524  -15.0323 C   0  0  2  0  0  0  0  0  0  0  0  0
   15.0737  -12.2020  -14.9690 N   0  0  0  0  0  0  0  0  0  0  0  0
   16.6772  -10.4407  -14.5983 C   0  0  0  0  0  0  0  0  0  0  0  0
   15.9442   -9.5293  -15.0625 O   0  0  0  0  0  0  0  0  0  0  0  0
   15.7863   -8.6675  -12.0123 C   0  0  0  0  0  0  0  0  0  0  0  0
   17.2718   -8.3212  -11.9374 C   0  0  1  0  0  0  0  0  0  0  0  0
   17.8546   -9.1941  -10.8447 C   0  0  0  0  0  0  0  0  0  0  0  0
   17.8527   -8.6616  -13.2960 C   0  0  2  0  0  0  0  0  0  0  0  0
   17.6677  -10.0345  -13.6583 N   0  0  0  0  0  0  0  0  0  0  0  0
   19.2981   -8.2601  -13.3678 C   0  0  0  0  0  0  0  0  0  0  0  0
   20.1980   -8.9588  -12.8362 O   0  0  0  0  0  0  0  0  0  0  0  0
   21.3949   -8.0608  -16.2496 C   0  0  0  0  0  0  0  0  0  0  0  0
   21.3860   -6.6519  -15.6958 C   0  0  1  0  0  0  0  0  0  0  0  0
   20.3851   -5.9586  -16.3752 O   0  0  0  0  0  0  0  0  0  0  0  0
   21.0288   -6.7019  -14.2267 C   0  0  2  0  0  0  0  0  0  0  0  0
   19.6230   -7.0495  -14.0646 N   0  0  0  0  0  0  0  0  0  0  0  0
   21.3268   -5.3783  -13.6369 C   0  0  0  0  0  0  0  0  0  0  0  0
   20.3699   -4.6375  -13.3046 O   0  0  0  0  0  0  0  0  0  0  0  0
   22.6154   -4.9203  -13.4353 O   0  0  0  0  0  0  0  0  0  0  0  0
  2  1  1  0
  3  2  2  0
  4  2  1  0
  5  4  1  0
  6  5  1  0
  6  7  1  6
  8 14  1  0
  8  6  1  0
  9  8  2  0
 11 10  1  6
 11 13  1  0
 12 11  1  0
 13 14  1  1
 15 21  1  0
 15 13  1  0
 16 15  2  0
 18 20  1  0
 18 17  1  6
 19 18  1  0
 20 22  1  0
 20 21  1  6
 22 24  1  0
 23 22  2  0
M  END
$$$$
