QVT.pdb
     RDKit          3D

 24 23  0  0  1  0  0  0  0  0999 V2000
   25.0521  -21.4682  -17.5871 N   0  0  0  0  0  0  0  0  0  0  0  0
   25.7388  -20.3540  -18.1810 C   0  0  0  0  0  0  0  0  0  0  0  0
   25.3569  -19.2170  -17.8200 O   0  0  0  0  0  0  0  0  0  0  0  0
   26.8223  -20.5958  -19.1520 C   0  0  0  0  0  0  0  0  0  0  0  0
   27.0780  -22.0278  -19.4689 C   0  0  0  0  0  0  0  0  0  0  0  0
   28.0433  -22.7085  -18.5564 C   0  0  2  0  0  0  0  0  0  0  0  0
   29.4006  -22.1963  -18.7076 N   0  0  0  0  0  0  0  0  0  0  0  0
   28.0387  -24.1849  -18.7495 C   0  0  0  0  0  0  0  0  0  0  0  0
   28.3797  -24.6827  -19.8537 O   0  0  0  0  0  0  0  0  0  0  0  0
   30.1073  -26.5967  -17.9137 C   0  0  0  0  0  0  0  0  0  0  0  0
   28.8560  -27.2132  -17.2921 C   0  0  1  0  0  0  0  0  0  0  0  0
   28.9276  -26.9101  -15.8093 C   0  0  0  0  0  0  0  0  0  0  0  0
   27.6760  -26.5237  -17.9486 C   0  0  2  0  0  0  0  0  0  0  0  0
   27.6608  -25.1082  -17.7326 N   0  0  0  0  0  0  0  0  0  0  0  0
   26.3860  -27.1627  -17.5206 C   0  0  0  0  0  0  0  0  0  0  0  0
   25.6335  -26.6148  -16.6756 O   0  0  0  0  0  0  0  0  0  0  0  0
   23.1342  -30.8104  -18.1613 C   0  0  0  0  0  0  0  0  0  0  0  0
   24.4157  -30.1611  -18.6386 C   0  0  1  0  0  0  0  0  0  0  0  0
   24.1328  -29.5686  -19.8686 O   0  0  0  0  0  0  0  0  0  0  0  0
   24.8142  -29.0787  -17.6598 C   0  0  2  0  0  0  0  0  0  0  0  0
   26.0363  -28.4236  -18.1077 N   0  0  0  0  0  0  0  0  0  0  0  0
   24.9958  -29.7053  -16.3320 C   0  0  0  0  0  0  0  0  0  0  0  0
   26.0606  -30.3274  -16.0998 O   0  0  0  0  0  0  0  0  0  0  0  0
   24.0422  -29.6358  -15.3335 O   0  0  0  0  0  0  0  0  0  0  0  0
  2  1  1  0
  3  2  2  0
  4  2  1  0
  5  4  1  0
  6  5  1  0
  6  7  1  6
  8 14  1  0
  8  6  1  0
  9  8  2  0
 11 10  1  6
 11 13  1  0
 12 11  1  0
 13 14  1  1
 15 21  1  0
 15 13  1  0
 16 15  2  0
 18 20  1  0
 18 17  1  1
 19 18  1  0
 20 22  1  0
 20 21  1  6
 22 24  1  0
 23 22  2  0
M  END
$$$$
