QVT.pdb
     RDKit          3D

 24 23  0  0  1  0  0  0  0  0999 V2000
   26.0482  -22.0751  -11.2240 N   0  0  0  0  0  0  0  0  0  0  0  0
   25.8741  -20.7578  -10.6761 C   0  0  0  0  0  0  0  0  0  0  0  0
   25.2461  -20.6909   -9.5944 O   0  0  0  0  0  0  0  0  0  0  0  0
   26.4250  -19.5903  -11.3893 C   0  0  0  0  0  0  0  0  0  0  0  0
   26.9545  -19.8747  -12.7514 C   0  0  0  0  0  0  0  0  0  0  0  0
   26.3223  -21.0393  -13.4385 C   0  0  2  0  0  0  0  0  0  0  0  0
   27.3073  -21.9023  -14.0807 N   0  0  0  0  0  0  0  0  0  0  0  0
   25.3062  -20.6063  -14.4369 C   0  0  0  0  0  0  0  0  0  0  0  0
   25.6400  -19.8836  -15.4114 O   0  0  0  0  0  0  0  0  0  0  0  0
   23.7492  -22.4617  -16.7752 C   0  0  0  0  0  0  0  0  0  0  0  0
   22.5040  -21.8030  -16.1855 C   0  0  1  0  0  0  0  0  0  0  0  0
   21.8569  -22.8439  -15.2948 C   0  0  0  0  0  0  0  0  0  0  0  0
   22.9957  -20.6108  -15.3880 C   0  0  2  0  0  0  0  0  0  0  0  0
   23.9299  -20.9671  -14.3631 N   0  0  0  0  0  0  0  0  0  0  0  0
   21.8371  -19.8317  -14.8345 C   0  0  0  0  0  0  0  0  0  0  0  0
   21.5316  -19.8909  -13.6164 O   0  0  0  0  0  0  0  0  0  0  0  0
   18.2365  -16.5679  -15.6792 C   0  0  0  0  0  0  0  0  0  0  0  0
   19.3758  -17.3656  -16.2771 C   0  0  1  0  0  0  0  0  0  0  0  0
   20.3821  -16.4542  -16.5947 O   0  0  0  0  0  0  0  0  0  0  0  0
   19.9043  -18.3271  -15.2357 C   0  0  2  0  0  0  0  0  0  0  0  0
   21.0856  -19.0139  -15.7417 N   0  0  0  0  0  0  0  0  0  0  0  0
   18.8257  -19.2845  -14.9062 C   0  0  0  0  0  0  0  0  0  0  0  0
   18.6446  -20.2711  -15.6602 O   0  0  0  0  0  0  0  0  0  0  0  0
   18.0066  -19.1400  -13.8019 O   0  0  0  0  0  0  0  0  0  0  0  0
  2  1  1  0
  3  2  2  0
  4  2  1  0
  5  4  1  0
  6  5  1  0
  6  7  1  6
  8 14  1  0
  8  6  1  0
  9  8  2  0
 11 10  1  1
 11 13  1  0
 12 11  1  0
 13 14  1  1
 15 21  1  0
 15 13  1  0
 16 15  2  0
 18 20  1  0
 18 17  1  1
 19 18  1  0
 20 22  1  0
 20 21  1  6
 22 24  1  0
 23 22  2  0
M  END
$$$$
