QVT.pdb
     RDKit          3D

 24 23  0  0  1  0  0  0  0  0999 V2000
   22.9370  -18.4134  -14.4363 N   0  0  0  0  0  0  0  0  0  0  0  0
   21.8078  -19.2814  -14.6291 C   0  0  0  0  0  0  0  0  0  0  0  0
   21.9833  -20.4857  -14.3326 O   0  0  0  0  0  0  0  0  0  0  0  0
   20.5418  -18.7305  -15.1476 C   0  0  0  0  0  0  0  0  0  0  0  0
   20.5345  -17.2570  -15.3597 C   0  0  0  0  0  0  0  0  0  0  0  0
   19.2459  -16.7042  -15.8714 C   0  0  2  0  0  0  0  0  0  0  0  0
   18.5693  -17.6278  -16.7750 N   0  0  0  0  0  0  0  0  0  0  0  0
   19.4376  -15.3907  -16.5460 C   0  0  0  0  0  0  0  0  0  0  0  0
   20.0923  -15.3162  -17.6180 O   0  0  0  0  0  0  0  0  0  0  0  0
   17.2420  -13.4279  -18.2541 C   0  0  0  0  0  0  0  0  0  0  0  0
   17.7777  -12.3725  -17.2889 C   0  0  1  0  0  0  0  0  0  0  0  0
   16.7305  -12.2215  -16.2043 C   0  0  0  0  0  0  0  0  0  0  0  0
   19.0779  -12.9257  -16.7391 C   0  0  2  0  0  0  0  0  0  0  0  0
   18.9113  -14.1660  -16.0433 N   0  0  0  0  0  0  0  0  0  0  0  0
   19.7689  -11.9009  -15.8859 C   0  0  0  0  0  0  0  0  0  0  0  0
   19.7571  -11.9792  -14.6312 O   0  0  0  0  0  0  0  0  0  0  0  0
   22.8654   -8.1090  -15.6056 C   0  0  0  0  0  0  0  0  0  0  0  0
   22.1795   -9.1155  -16.5047 C   0  0  1  0  0  0  0  0  0  0  0  0
   23.1368  -10.0710  -16.8431 O   0  0  0  0  0  0  0  0  0  0  0  0
   21.0711   -9.7936  -15.7301 C   0  0  2  0  0  0  0  0  0  0  0  0
   20.4461  -10.8244  -16.5486 N   0  0  0  0  0  0  0  0  0  0  0  0
   20.0927   -8.7590  -15.3289 C   0  0  0  0  0  0  0  0  0  0  0  0
   19.1847   -8.4433  -16.1355 O   0  0  0  0  0  0  0  0  0  0  0  0
   20.1345   -8.1232  -14.1020 O   0  0  0  0  0  0  0  0  0  0  0  0
  2  1  1  0
  3  2  2  0
  4  2  1  0
  5  4  1  0
  6  5  1  0
  6  7  1  6
  8 14  1  0
  8  6  1  0
  9  8  2  0
 11 10  1  6
 11 13  1  0
 12 11  1  0
 13 14  1  1
 15 21  1  0
 15 13  1  0
 16 15  2  0
 18 20  1  0
 18 17  1  1
 19 18  1  0
 20 22  1  0
 20 21  1  6
 22 24  1  0
 23 22  2  0
M  END
$$$$
