QVT.pdb
     RDKit          3D

 24 23  0  0  1  0  0  0  0  0999 V2000
   18.4951  -10.0225  -21.3611 N   0  0  0  0  0  0  0  0  0  0  0  0
   17.4223  -10.7071  -20.6931 C   0  0  0  0  0  0  0  0  0  0  0  0
   16.2670  -10.4525  -21.1048 O   0  0  0  0  0  0  0  0  0  0  0  0
   17.7240  -11.6438  -19.5947 C   0  0  0  0  0  0  0  0  0  0  0  0
   18.2028  -11.0080  -18.3365 C   0  0  0  0  0  0  0  0  0  0  0  0
   19.1585  -11.8341  -17.5416 C   0  0  2  0  0  0  0  0  0  0  0  0
   18.5740  -13.1025  -17.1209 N   0  0  0  0  0  0  0  0  0  0  0  0
   19.6694  -11.0972  -16.3529 C   0  0  0  0  0  0  0  0  0  0  0  0
   18.9729  -11.0151  -15.3081 O   0  0  0  0  0  0  0  0  0  0  0  0
   23.6259  -10.6636  -15.4545 C   0  0  0  0  0  0  0  0  0  0  0  0
   22.5175  -10.4473  -14.4264 C   0  0  1  0  0  0  0  0  0  0  0  0
   23.1132   -9.5755  -13.3399 C   0  0  0  0  0  0  0  0  0  0  0  0
   21.3948   -9.7398  -15.1599 C   0  0  2  0  0  0  0  0  0  0  0  0
   20.9400  -10.4541  -16.3145 N   0  0  0  0  0  0  0  0  0  0  0  0
   21.7917   -8.3320  -15.5007 C   0  0  0  0  0  0  0  0  0  0  0  0
   22.6452   -8.0907  -16.3917 O   0  0  0  0  0  0  0  0  0  0  0  0
   19.8440   -5.5664  -16.8233 C   0  0  0  0  0  0  0  0  0  0  0  0
   20.3449   -5.0834  -15.4788 C   0  0  1  0  0  0  0  0  0  0  0  0
   19.3257   -5.3259  -14.5587 O   0  0  0  0  0  0  0  0  0  0  0  0
   21.5577   -5.8964  -15.0835 C   0  0  2  0  0  0  0  0  0  0  0  0
   21.1646   -7.2653  -14.7757 N   0  0  0  0  0  0  0  0  0  0  0  0
   22.1874   -5.2423  -13.9153 C   0  0  0  0  0  0  0  0  0  0  0  0
   22.0866   -5.7905  -12.7910 O   0  0  0  0  0  0  0  0  0  0  0  0
   22.8834   -4.0515  -14.0077 O   0  0  0  0  0  0  0  0  0  0  0  0
  2  1  1  0
  3  2  2  0
  4  2  1  0
  5  4  1  0
  6  5  1  0
  6  7  1  1
  8 14  1  0
  8  6  1  0
  9  8  2  0
 11 10  1  6
 11 13  1  0
 12 11  1  0
 13 14  1  6
 15 21  1  0
 15 13  1  0
 16 15  2  0
 18 20  1  0
 18 17  1  6
 19 18  1  0
 20 22  1  0
 20 21  1  1
 22 24  1  0
 23 22  2  0
M  END
$$$$
