QVT.pdb
     RDKit          3D

 24 23  0  0  1  0  0  0  0  0999 V2000
   16.0771  -10.7493  -20.6487 N   0  0  0  0  0  0  0  0  0  0  0  0
   15.7780   -9.8718  -19.5504 C   0  0  0  0  0  0  0  0  0  0  0  0
   14.5659   -9.6142  -19.3670 O   0  0  0  0  0  0  0  0  0  0  0  0
   16.8745   -9.3370  -18.7217 C   0  0  0  0  0  0  0  0  0  0  0  0
   16.7649   -9.6277  -17.2657 C   0  0  0  0  0  0  0  0  0  0  0  0
   17.6774  -10.7001  -16.7706 C   0  0  2  0  0  0  0  0  0  0  0  0
   16.9476  -11.8164  -16.1802 N   0  0  0  0  0  0  0  0  0  0  0  0
   18.6685  -10.1736  -15.7921 C   0  0  0  0  0  0  0  0  0  0  0  0
   18.3186   -9.9087  -14.6128 O   0  0  0  0  0  0  0  0  0  0  0  0
   22.7748  -10.5376  -16.3810 C   0  0  0  0  0  0  0  0  0  0  0  0
   22.1777  -10.3904  -14.9831 C   0  0  1  0  0  0  0  0  0  0  0  0
   23.2568   -9.7593  -14.1270 C   0  0  0  0  0  0  0  0  0  0  0  0
   20.9759   -9.4780  -15.1323 C   0  0  2  0  0  0  0  0  0  0  0  0
   20.0374   -9.9402  -16.1101 N   0  0  0  0  0  0  0  0  0  0  0  0
   21.4142   -8.0684  -15.4087 C   0  0  0  0  0  0  0  0  0  0  0  0
   21.9235   -7.7463  -16.5120 O   0  0  0  0  0  0  0  0  0  0  0  0
   19.4401   -5.0313  -13.6765 C   0  0  0  0  0  0  0  0  0  0  0  0
   20.3560   -4.8805  -14.8723 C   0  0  1  0  0  0  0  0  0  0  0  0
   20.7229   -3.5366  -14.9314 O   0  0  0  0  0  0  0  0  0  0  0  0
   21.5994   -5.7126  -14.6491 C   0  0  2  0  0  0  0  0  0  0  0  0
   21.2335   -7.0953  -14.3708 N   0  0  0  0  0  0  0  0  0  0  0  0
   22.3526   -5.1187  -13.5227 C   0  0  0  0  0  0  0  0  0  0  0  0
   22.3299   -5.6988  -12.4103 O   0  0  0  0  0  0  0  0  0  0  0  0
   23.0819   -3.9503  -13.6418 O   0  0  0  0  0  0  0  0  0  0  0  0
  2  1  1  0
  3  2  2  0
  4  2  1  0
  5  4  1  0
  6  5  1  0
  6  7  1  1
  8 14  1  0
  8  6  1  0
  9  8  2  0
 11 10  1  6
 11 13  1  0
 12 11  1  0
 13 14  1  6
 15 21  1  0
 15 13  1  0
 16 15  2  0
 18 20  1  0
 18 17  1  1
 19 18  1  0
 20 22  1  0
 20 21  1  1
 22 24  1  0
 23 22  2  0
M  END
$$$$
