QVT.pdb
     RDKit          3D

 24 23  0  0  1  0  0  0  0  0999 V2000
   22.5276  -22.7329  -17.6886 N   0  0  0  0  0  0  0  0  0  0  0  0
   23.4777  -22.9148  -18.7517 C   0  0  0  0  0  0  0  0  0  0  0  0
   23.6100  -24.0858  -19.1762 O   0  0  0  0  0  0  0  0  0  0  0  0
   24.2235  -21.7540  -19.2728 C   0  0  0  0  0  0  0  0  0  0  0  0
   23.9328  -20.4609  -18.5948 C   0  0  0  0  0  0  0  0  0  0  0  0
   22.6276  -20.4120  -17.8723 C   0  0  2  0  0  0  0  0  0  0  0  0
   21.6524  -19.5662  -18.5512 N   0  0  0  0  0  0  0  0  0  0  0  0
   22.7928  -19.9581  -16.4638 C   0  0  0  0  0  0  0  0  0  0  0  0
   23.1814  -18.7876  -16.2145 O   0  0  0  0  0  0  0  0  0  0  0  0
   20.4696  -19.4159  -13.9890 C   0  0  0  0  0  0  0  0  0  0  0  0
   21.4400  -20.2830  -13.1897 C   0  0  1  0  0  0  0  0  0  0  0  0
   20.7965  -21.6506  -13.0848 C   0  0  0  0  0  0  0  0  0  0  0  0
   22.7247  -20.3284  -13.9938 C   0  0  2  0  0  0  0  0  0  0  0  0
   22.5315  -20.7884  -15.3360 N   0  0  0  0  0  0  0  0  0  0  0  0
   23.7681  -21.1363  -13.2766 C   0  0  0  0  0  0  0  0  0  0  0  0
   23.7514  -22.3931  -13.2987 O   0  0  0  0  0  0  0  0  0  0  0  0
   28.0533  -21.5330  -11.0631 C   0  0  0  0  0  0  0  0  0  0  0  0
   27.1291  -20.7488  -11.9702 C   0  0  1  0  0  0  0  0  0  0  0  0
   27.4783  -21.0752  -13.2799 O   0  0  0  0  0  0  0  0  0  0  0  0
   25.7039  -21.1922  -11.7241 C   0  0  2  0  0  0  0  0  0  0  0  0
   24.7896  -20.4273  -12.5620 N   0  0  0  0  0  0  0  0  0  0  0  0
   25.4053  -21.0000  -10.2879 C   0  0  0  0  0  0  0  0  0  0  0  0
   24.8835  -19.9196   -9.9203 O   0  0  0  0  0  0  0  0  0  0  0  0
   25.6762  -21.9601   -9.3308 O   0  0  0  0  0  0  0  0  0  0  0  0
  2  1  1  0
  3  2  2  0
  4  2  1  0
  5  4  1  0
  6  5  1  0
  6  7  1  6
  8 14  1  0
  8  6  1  0
  9  8  2  0
 11 10  1  6
 11 13  1  0
 12 11  1  0
 13 14  1  6
 15 21  1  0
 15 13  1  0
 16 15  2  0
 18 20  1  0
 18 17  1  1
 19 18  1  0
 20 22  1  0
 20 21  1  6
 22 24  1  0
 23 22  2  0
M  END
$$$$
