QVT.pdb
     RDKit          3D

 24 23  0  0  1  0  0  0  0  0999 V2000
   15.7949  -11.1599  -20.0993 N   0  0  0  0  0  0  0  0  0  0  0  0
   16.3176  -12.4733  -20.3590 C   0  0  0  0  0  0  0  0  0  0  0  0
   15.8000  -13.0913  -21.3178 O   0  0  0  0  0  0  0  0  0  0  0  0
   17.4006  -13.0099  -19.5137 C   0  0  0  0  0  0  0  0  0  0  0  0
   17.8454  -12.1123  -18.4124 C   0  0  0  0  0  0  0  0  0  0  0  0
   18.9301  -12.6682  -17.5508 C   0  0  2  0  0  0  0  0  0  0  0  0
   18.5361  -13.9139  -16.9026 N   0  0  0  0  0  0  0  0  0  0  0  0
   19.3774  -11.6868  -16.5242 C   0  0  0  0  0  0  0  0  0  0  0  0
   18.7324  -11.5491  -15.4526 O   0  0  0  0  0  0  0  0  0  0  0  0
   22.6564   -8.9899  -14.2322 C   0  0  0  0  0  0  0  0  0  0  0  0
   22.3691  -10.1146  -15.2245 C   0  0  1  0  0  0  0  0  0  0  0  0
   22.5546  -11.4098  -14.4605 C   0  0  0  0  0  0  0  0  0  0  0  0
   20.9316   -9.9273  -15.6691 C   0  0  2  0  0  0  0  0  0  0  0  0
   20.5287  -10.8616  -16.6765 N   0  0  0  0  0  0  0  0  0  0  0  0
   20.6935   -8.5091  -16.1023 C   0  0  0  0  0  0  0  0  0  0  0  0
   21.2557   -8.0335  -17.1213 O   0  0  0  0  0  0  0  0  0  0  0  0
   17.9568   -4.4522  -15.6495 C   0  0  0  0  0  0  0  0  0  0  0  0
   18.2248   -5.8601  -15.1619 C   0  0  1  0  0  0  0  0  0  0  0  0
   17.1933   -6.6593  -15.6530 O   0  0  0  0  0  0  0  0  0  0  0  0
   19.5330   -6.3439  -15.7475 C   0  0  2  0  0  0  0  0  0  0  0  0
   19.8009   -7.7093  -15.3148 N   0  0  0  0  0  0  0  0  0  0  0  0
   20.6019   -5.4208  -15.3069 C   0  0  0  0  0  0  0  0  0  0  0  0
   21.0363   -5.5182  -14.1337 O   0  0  0  0  0  0  0  0  0  0  0  0
   21.1445   -4.4536  -16.1323 O   0  0  0  0  0  0  0  0  0  0  0  0
  2  1  1  0
  3  2  2  0
  4  2  1  0
  5  4  1  0
  6  5  1  0
  6  7  1  1
  8 14  1  0
  8  6  1  0
  9  8  2  0
 11 10  1  1
 11 13  1  0
 12 11  1  0
 13 14  1  6
 15 21  1  0
 15 13  1  0
 16 15  2  0
 18 20  1  0
 18 17  1  6
 19 18  1  0
 20 22  1  0
 20 21  1  1
 22 24  1  0
 23 22  2  0
M  END
$$$$
