QVT.pdb
     RDKit          3D

 24 23  0  0  1  0  0  0  0  0999 V2000
   17.3766  -21.9815  -15.0343 N   0  0  0  0  0  0  0  0  0  0  0  0
   17.9646  -20.7547  -14.5704 C   0  0  0  0  0  0  0  0  0  0  0  0
   18.1395  -19.8670  -15.4367 O   0  0  0  0  0  0  0  0  0  0  0  0
   18.3199  -20.6063  -13.1468 C   0  0  0  0  0  0  0  0  0  0  0  0
   19.7452  -20.2657  -12.8841 C   0  0  0  0  0  0  0  0  0  0  0  0
   20.7356  -21.1003  -13.6260 C   0  0  2  0  0  0  0  0  0  0  0  0
   20.7755  -22.4740  -13.1374 N   0  0  0  0  0  0  0  0  0  0  0  0
   22.1015  -20.5097  -13.5780 C   0  0  0  0  0  0  0  0  0  0  0  0
   22.2761  -19.2900  -13.8333 O   0  0  0  0  0  0  0  0  0  0  0  0
   24.4857  -20.6665  -10.7815 C   0  0  0  0  0  0  0  0  0  0  0  0
   25.3620  -21.0351  -11.9766 C   0  0  1  0  0  0  0  0  0  0  0  0
   25.5870  -22.5309  -11.8902 C   0  0  0  0  0  0  0  0  0  0  0  0
   24.5688  -20.6584  -13.2128 C   0  0  2  0  0  0  0  0  0  0  0  0
   23.2689  -21.2577  -13.2506 N   0  0  0  0  0  0  0  0  0  0  0  0
   25.3542  -20.9609  -14.4566 C   0  0  0  0  0  0  0  0  0  0  0  0
   25.3088  -22.0939  -14.9993 O   0  0  0  0  0  0  0  0  0  0  0  0
   28.3021  -18.1904  -15.8680 C   0  0  0  0  0  0  0  0  0  0  0  0
   27.3861  -18.8905  -16.8491 C   0  0  1  0  0  0  0  0  0  0  0  0
   28.1541  -19.1893  -17.9739 O   0  0  0  0  0  0  0  0  0  0  0  0
   26.9029  -20.1855  -16.2346 C   0  0  2  0  0  0  0  0  0  0  0  0
   26.1621  -19.9130  -15.0098 N   0  0  0  0  0  0  0  0  0  0  0  0
   28.0839  -21.0365  -15.9705 C   0  0  0  0  0  0  0  0  0  0  0  0
   28.5279  -21.1041  -14.7988 O   0  0  0  0  0  0  0  0  0  0  0  0
   28.7213  -21.7622  -16.9595 O   0  0  0  0  0  0  0  0  0  0  0  0
  2  1  1  0
  3  2  2  0
  4  2  1  0
  5  4  1  0
  6  5  1  0
  6  7  1  1
  8 14  1  0
  8  6  1  0
  9  8  2  0
 11 10  1  1
 11 13  1  0
 12 11  1  0
 13 14  1  6
 15 21  1  0
 15 13  1  0
 16 15  2  0
 18 20  1  0
 18 17  1  1
 19 18  1  0
 20 22  1  0
 20 21  1  1
 22 24  1  0
 23 22  2  0
M  END
$$$$
