SAA.pdb
     RDKit          3D

 17 16  0  0  1  0  0  0  0  0999 V2000
    8.1035  -17.4608   17.5476 O   0  0  0  0  0  0  0  0  0  0  0  0
    8.7993  -17.1628   16.4004 C   0  0  0  0  0  0  0  0  0  0  0  0
    8.8739  -15.6930   16.1043 C   0  0  2  0  0  0  0  0  0  0  0  0
    9.7380  -15.4195   14.9757 N   0  0  0  0  0  0  0  0  0  0  0  0
    9.2060  -14.8664   17.2707 C   0  0  0  0  0  0  0  0  0  0  0  0
   10.3751  -14.6756   17.6910 O   0  0  0  0  0  0  0  0  0  0  0  0
    7.0540  -12.7010   19.4393 C   0  0  0  0  0  0  0  0  0  0  0  0
    8.3226  -13.4763   19.1774 C   0  0  2  0  0  0  0  0  0  0  0  0
    8.1543  -14.2357   17.9805 N   0  0  0  0  0  0  0  0  0  0  0  0
    8.7330  -14.3036   20.3380 C   0  0  0  0  0  0  0  0  0  0  0  0
    9.0460  -13.7487   21.4224 O   0  0  0  0  0  0  0  0  0  0  0  0
    8.6559  -17.8866   21.4763 C   0  0  0  0  0  0  0  0  0  0  0  0
    9.2387  -16.5161   21.4302 C   0  0  2  0  0  0  0  0  0  0  0  0
    8.7999  -15.7242   20.3109 N   0  0  0  0  0  0  0  0  0  0  0  0
   10.7189  -16.5845   21.5229 C   0  0  0  0  0  0  0  0  0  0  0  0
   11.4305  -16.0362   20.6443 O   0  0  0  0  0  0  0  0  0  0  0  0
   11.3476  -17.2403   22.5577 O   0  0  0  0  0  0  0  0  0  0  0  0
  1  2  1  0
  3  2  1  0
  3  4  1  6
  5  3  1  0
  6  5  2  0
  8  7  1  1
  8  9  1  0
  9  5  1  0
 10  8  1  0
 10 14  1  0
 11 10  2  0
 13 12  1  6
 13 14  1  0
 13 15  1  0
 15 17  1  0
 16 15  2  0
M  END
$$$$
