SAA.pdb
     RDKit          3D

 17 16  0  0  1  0  0  0  0  0999 V2000
    9.0624  -17.6327   18.1224 O   0  0  0  0  0  0  0  0  0  0  0  0
    8.3353  -16.9524   17.1750 C   0  0  0  0  0  0  0  0  0  0  0  0
    8.9721  -15.6665   16.7338 C   0  0  2  0  0  0  0  0  0  0  0  0
   10.0730  -15.9014   15.8238 N   0  0  0  0  0  0  0  0  0  0  0  0
    9.3462  -14.7770   17.8396 C   0  0  0  0  0  0  0  0  0  0  0  0
   10.5185  -14.6439   18.2731 O   0  0  0  0  0  0  0  0  0  0  0  0
    7.2713  -12.3896   19.8609 C   0  0  0  0  0  0  0  0  0  0  0  0
    8.5433  -13.1582   19.5955 C   0  0  2  0  0  0  0  0  0  0  0  0
    8.3343  -14.0117   18.4706 N   0  0  0  0  0  0  0  0  0  0  0  0
    9.0293  -13.8843   20.7939 C   0  0  0  0  0  0  0  0  0  0  0  0
    9.3704  -13.2413   21.8195 O   0  0  0  0  0  0  0  0  0  0  0  0
    9.0640  -17.4201   22.1157 C   0  0  0  0  0  0  0  0  0  0  0  0
    9.5179  -16.0018   22.0674 C   0  0  2  0  0  0  0  0  0  0  0  0
    9.1403  -15.3005   20.8681 N   0  0  0  0  0  0  0  0  0  0  0  0
   10.9771  -15.9207   22.3288 C   0  0  0  0  0  0  0  0  0  0  0  0
   11.7348  -15.3589   21.4986 O   0  0  0  0  0  0  0  0  0  0  0  0
   11.5363  -16.4499   23.4704 O   0  0  0  0  0  0  0  0  0  0  0  0
  1  2  1  0
  3  2  1  0
  3  4  1  1
  5  3  1  0
  6  5  2  0
  8  7  1  1
  8  9  1  0
  9  5  1  0
 10  8  1  0
 10 14  1  0
 11 10  2  0
 13 12  1  6
 13 14  1  0
 13 15  1  0
 15 17  1  0
 16 15  2  0
M  END
$$$$
