SAA.pdb
     RDKit          3D

 17 16  0  0  1  0  0  0  0  0999 V2000
    7.9483  -20.0342   16.5863 O   0  0  0  0  0  0  0  0  0  0  0  0
    8.6502  -19.2614   17.4803 C   0  0  0  0  0  0  0  0  0  0  0  0
    8.3375  -17.7961   17.3871 C   0  0  2  0  0  0  0  0  0  0  0  0
    8.6073  -17.2763   16.0634 N   0  0  0  0  0  0  0  0  0  0  0  0
    8.9617  -16.9857   18.4395 C   0  0  0  0  0  0  0  0  0  0  0  0
   10.1776  -16.6678   18.4581 O   0  0  0  0  0  0  0  0  0  0  0  0
    7.4586  -15.2811   21.4244 C   0  0  0  0  0  0  0  0  0  0  0  0
    8.6408  -15.7726   20.6244 C   0  0  2  0  0  0  0  0  0  0  0  0
    8.1576  -16.5235   19.5108 N   0  0  0  0  0  0  0  0  0  0  0  0
    9.6152  -16.5234   21.4531 C   0  0  0  0  0  0  0  0  0  0  0  0
    9.4415  -17.7509   21.6649 O   0  0  0  0  0  0  0  0  0  0  0  0
   13.1179  -16.1007   22.7547 C   0  0  0  0  0  0  0  0  0  0  0  0
   11.7488  -16.6880   22.7814 C   0  0  2  0  0  0  0  0  0  0  0  0
   10.7680  -15.9355   22.0436 N   0  0  0  0  0  0  0  0  0  0  0  0
   11.3256  -16.9397   24.1820 C   0  0  0  0  0  0  0  0  0  0  0  0
   10.3026  -16.3731   24.6417 O   0  0  0  0  0  0  0  0  0  0  0  0
   12.0294  -17.7881   25.0072 O   0  0  0  0  0  0  0  0  0  0  0  0
  1  2  1  0
  3  2  1  0
  3  4  1  6
  5  3  1  0
  6  5  2  0
  8  7  1  1
  8  9  1  0
  9  5  1  0
 10  8  1  0
 10 14  1  0
 11 10  2  0
 13 12  1  1
 13 14  1  0
 13 15  1  0
 15 17  1  0
 16 15  2  0
M  END
$$$$
