SAA.pdb
     RDKit          3D

 17 16  0  0  1  0  0  0  0  0999 V2000
   14.9361  -20.6781   27.0198 O   0  0  0  0  0  0  0  0  0  0  0  0
   14.3732  -21.9292   27.1034 C   0  0  0  0  0  0  0  0  0  0  0  0
   12.8744  -21.9236   27.0180 C   0  0  2  0  0  0  0  0  0  0  0  0
   12.3882  -20.7961   26.2516 N   0  0  0  0  0  0  0  0  0  0  0  0
   12.2033  -22.0421   28.3178 C   0  0  0  0  0  0  0  0  0  0  0  0
   11.4863  -21.1439   28.8266 O   0  0  0  0  0  0  0  0  0  0  0  0
   11.3691  -24.9909   30.3393 C   0  0  0  0  0  0  0  0  0  0  0  0
   11.7081  -23.5204   30.2972 C   0  0  2  0  0  0  0  0  0  0  0  0
   12.3626  -23.2383   29.0604 N   0  0  0  0  0  0  0  0  0  0  0  0
   12.4877  -23.0826   31.4805 C   0  0  0  0  0  0  0  0  0  0  0  0
   11.9757  -23.1511   32.6273 O   0  0  0  0  0  0  0  0  0  0  0  0
   15.9684  -22.6364   32.5967 C   0  0  0  0  0  0  0  0  0  0  0  0
   14.5611  -22.1482   32.5629 C   0  0  2  0  0  0  0  0  0  0  0  0
   13.8145  -22.5751   31.4084 N   0  0  0  0  0  0  0  0  0  0  0  0
   14.5246  -20.6747   32.7411 C   0  0  0  0  0  0  0  0  0  0  0  0
   13.9725  -19.9497   31.8759 O   0  0  0  0  0  0  0  0  0  0  0  0
   15.0856  -20.0667   33.8419 O   0  0  0  0  0  0  0  0  0  0  0  0
  1  2  1  0
  3  2  1  0
  3  4  1  1
  5  3  1  0
  6  5  2  0
  8  7  1  1
  8  9  1  0
  9  5  1  0
 10  8  1  0
 10 14  1  0
 11 10  2  0
 13 12  1  6
 13 14  1  0
 13 15  1  0
 15 17  1  0
 16 15  2  0
M  END
$$$$
