SAA.pdb
     RDKit          3D

 17 16  0  0  1  0  0  0  0  0999 V2000
    8.3434  -17.9338   18.3021 O   0  0  0  0  0  0  0  0  0  0  0  0
    7.5809  -17.1690   17.4519 C   0  0  0  0  0  0  0  0  0  0  0  0
    8.3230  -16.0089   16.8542 C   0  0  2  0  0  0  0  0  0  0  0  0
    9.3141  -16.4472   15.8947 N   0  0  0  0  0  0  0  0  0  0  0  0
    8.8827  -15.0844   17.8473 C   0  0  0  0  0  0  0  0  0  0  0  0
   10.0939  -15.0561   18.1817 O   0  0  0  0  0  0  0  0  0  0  0  0
    7.2459  -12.3380   19.8166 C   0  0  0  0  0  0  0  0  0  0  0  0
    8.4123  -13.2432   19.5017 C   0  0  2  0  0  0  0  0  0  0  0  0
    8.0170  -14.1578   18.4796 N   0  0  0  0  0  0  0  0  0  0  0  0
    8.9509  -13.9169   20.7082 C   0  0  0  0  0  0  0  0  0  0  0  0
    9.4880  -13.2350   21.6183 O   0  0  0  0  0  0  0  0  0  0  0  0
    8.6581  -17.2545   22.4210 C   0  0  0  0  0  0  0  0  0  0  0  0
    9.3338  -15.9581   22.1333 C   0  0  2  0  0  0  0  0  0  0  0  0
    8.9016  -15.3233   20.9156 N   0  0  0  0  0  0  0  0  0  0  0  0
   10.8081  -16.1250   22.1862 C   0  0  0  0  0  0  0  0  0  0  0  0
   11.3528  -16.5830   23.2219 O   0  0  0  0  0  0  0  0  0  0  0  0
   11.6113  -15.7886   21.1196 O   0  0  0  0  0  0  0  0  0  0  0  0
  1  2  1  0
  3  2  1  0
  3  4  1  1
  5  3  1  0
  6  5  2  0
  8  7  1  1
  8  9  1  0
  9  5  1  0
 10  8  1  0
 10 14  1  0
 11 10  2  0
 13 12  1  6
 13 14  1  0
 13 15  1  0
 15 17  1  0
 16 15  2  0
M  END
$$$$
