SAA.pdb
     RDKit          3D

 17 16  0  0  1  0  0  0  0  0999 V2000
   -2.8590  -27.6296   32.1176 O   0  0  0  0  0  0  0  0  0  0  0  0
   -3.5900  -26.6524   31.4853 C   0  0  0  0  0  0  0  0  0  0  0  0
   -5.0140  -27.0435   31.2151 C   0  0  2  0  0  0  0  0  0  0  0  0
   -5.0996  -28.3447   30.5868 N   0  0  0  0  0  0  0  0  0  0  0  0
   -5.7840  -26.0256   30.4905 C   0  0  0  0  0  0  0  0  0  0  0  0
   -5.8955  -24.8293   30.8595 O   0  0  0  0  0  0  0  0  0  0  0  0
   -6.9809  -25.9010   27.0238 C   0  0  0  0  0  0  0  0  0  0  0  0
   -7.1879  -25.5016   28.4649 C   0  0  2  0  0  0  0  0  0  0  0  0
   -6.4509  -26.3974   29.2968 N   0  0  0  0  0  0  0  0  0  0  0  0
   -8.6227  -25.4160   28.8306 C   0  0  0  0  0  0  0  0  0  0  0  0
   -9.3713  -24.5966   28.2391 O   0  0  0  0  0  0  0  0  0  0  0  0
  -11.2232  -27.4427   30.6034 C   0  0  0  0  0  0  0  0  0  0  0  0
  -10.6311  -26.1485   30.1624 C   0  0  2  0  0  0  0  0  0  0  0  0
   -9.2312  -26.2200   29.8339 N   0  0  0  0  0  0  0  0  0  0  0  0
  -10.9199  -25.0861   31.1585 C   0  0  0  0  0  0  0  0  0  0  0  0
  -12.1088  -24.8100   31.4571 O   0  0  0  0  0  0  0  0  0  0  0  0
   -9.9105  -24.3819   31.7758 O   0  0  0  0  0  0  0  0  0  0  0  0
  1  2  1  0
  3  2  1  0
  3  4  1  6
  5  3  1  0
  6  5  2  0
  8  7  1  6
  8  9  1  0
  9  5  1  0
 10  8  1  0
 10 14  1  0
 11 10  2  0
 13 12  1  1
 13 14  1  0
 13 15  1  0
 15 17  1  0
 16 15  2  0
M  END
$$$$
