SAA.pdb
     RDKit          3D

 17 16  0  0  1  0  0  0  0  0999 V2000
    9.1844  -15.2732   20.0015 O   0  0  0  0  0  0  0  0  0  0  0  0
    9.2825  -16.6386   20.1240 C   0  0  0  0  0  0  0  0  0  0  0  0
    7.9600  -17.3248   20.3074 C   0  0  2  0  0  0  0  0  0  0  0  0
    7.1221  -17.1900   19.1348 N   0  0  0  0  0  0  0  0  0  0  0  0
    7.2572  -16.9444   21.5384 C   0  0  0  0  0  0  0  0  0  0  0  0
    6.2061  -16.2560   21.5673 O   0  0  0  0  0  0  0  0  0  0  0  0
    7.5069  -18.1644   25.0167 C   0  0  0  0  0  0  0  0  0  0  0  0
    7.2352  -17.0316   24.0564 C   0  0  2  0  0  0  0  0  0  0  0  0
    7.7829  -17.3718   22.7829 N   0  0  0  0  0  0  0  0  0  0  0  0
    7.7181  -15.7255   24.5669 C   0  0  0  0  0  0  0  0  0  0  0  0
    8.9023  -15.3656   24.3434 O   0  0  0  0  0  0  0  0  0  0  0  0
    6.2773  -12.5867   26.1215 C   0  0  0  0  0  0  0  0  0  0  0  0
    7.3698  -13.5291   25.7494 C   0  0  2  0  0  0  0  0  0  0  0  0
    6.9121  -14.8230   25.3146 N   0  0  0  0  0  0  0  0  0  0  0  0
    8.3614  -13.6256   26.8501 C   0  0  0  0  0  0  0  0  0  0  0  0
    8.5396  -14.7194   27.4425 O   0  0  0  0  0  0  0  0  0  0  0  0
    9.1045  -12.5374   27.2495 O   0  0  0  0  0  0  0  0  0  0  0  0
  1  2  1  0
  3  2  1  0
  3  4  1  6
  5  3  1  0
  6  5  2  0
  8  7  1  1
  8  9  1  0
  9  5  1  0
 10  8  1  0
 10 14  1  0
 11 10  2  0
 13 12  1  1
 13 14  1  0
 13 15  1  0
 15 17  1  0
 16 15  2  0
M  END
$$$$
