YRN.pdb
     RDKit          3D

 32 32  0  0  1  0  0  0  0  0999 V2000
    5.0004  -10.7565   27.8377 O   0  0  0  0  0  0  0  0  0  0  0  0
    5.7197  -11.7217   27.1398 C   0  0  0  0  0  0  0  0  0  0  0  0
    5.5498  -11.9057   25.7830 C   0  0  0  0  0  0  0  0  0  0  0  0
    6.2884  -12.8761   25.1431 C   0  0  0  0  0  0  0  0  0  0  0  0
    7.1812  -13.6583   25.8119 C   0  0  0  0  0  0  0  0  0  0  0  0
    7.9922  -14.7163   25.1423 C   0  0  0  0  0  0  0  0  0  0  0  0
    7.1130  -15.9108   24.7972 C   0  0  2  0  0  0  0  0  0  0  0  0
    6.4946  -16.4502   25.9937 N   0  0  0  0  0  0  0  0  0  0  0  0
    7.9987  -16.9690   24.2021 C   0  0  0  0  0  0  0  0  0  0  0  0
    7.7002  -18.1944   24.2664 O   0  0  0  0  0  0  0  0  0  0  0  0
    7.3629  -13.4859   27.1726 C   0  0  0  0  0  0  0  0  0  0  0  0
    6.6278  -12.5183   27.8163 C   0  0  0  0  0  0  0  0  0  0  0  0
   10.5334  -13.2976   19.3023 N   0  0  0  0  0  0  0  0  0  0  0  0
    9.1469  -12.9953   19.2952 C   0  0  0  0  0  0  0  0  0  0  0  0
    8.7337  -11.7777   19.2393 N   0  0  0  0  0  0  0  0  0  0  0  0
    8.1743  -14.0277   19.3498 N   0  0  0  0  0  0  0  0  0  0  0  0
    8.6061  -15.3668   19.6757 C   0  0  0  0  0  0  0  0  0  0  0  0
    8.0778  -15.8420   21.0215 C   0  0  0  0  0  0  0  0  0  0  0  0
    8.5871  -17.2142   21.2785 C   0  0  0  0  0  0  0  0  0  0  0  0
    9.6689  -17.2999   22.3353 C   0  0  2  0  0  0  0  0  0  0  0  0
    9.2068  -16.6142   23.5453 N   0  0  0  0  0  0  0  0  0  0  0  0
   10.9639  -16.7579   21.8850 C   0  0  0  0  0  0  0  0  0  0  0  0
   11.4709  -16.9990   20.7629 O   0  0  0  0  0  0  0  0  0  0  0  0
    7.7309  -11.5029   19.2035 N   0  0  0  0  0  0  0  0  0  0  0  0
   13.9580  -19.3828   24.9545 C   0  0  0  0  0  0  0  0  0  0  0  0
   13.3860  -18.1298   25.3059 O   0  0  0  0  0  0  0  0  0  0  0  0
   13.7638  -17.5271   26.3238 C   0  0  0  0  0  0  0  0  0  0  0  0
   12.3432  -17.5689   24.4408 C   0  0  2  0  0  0  0  0  0  0  0  0
   12.7805  -16.4213   23.5937 N   0  0  0  0  0  0  0  0  0  0  0  0
   11.7556  -15.8910   22.7274 C   0  0  0  0  0  0  0  0  0  0  0  0
   13.8922  -16.9155   22.7091 O   0  0  0  0  0  0  0  0  0  0  0  0
   15.1575  -17.1989   23.2050 O   0  0  0  0  0  0  0  0  0  0  0  0
  2  1  1  0
  3  2  2  0
  4  3  1  0
  5 11  1  0
  5  4  2  0
  6  5  1  0
  7  6  1  0
  7  8  1  1
  9  7  1  0
  9 21  1  0
 10  9  2  0
 11 12  2  0
 12  2  1  0
 14 13  1  0
 15 14  2  0
 16 14  1  0
 17 16  1  0
 18 17  1  0
 18 19  1  0
 20 19  1  6
 20 21  1  0
 20 22  1  0
 22 23  2  0
 24 25  1  0
 25 26  2  0
 25 27  1  0
 28 30  1  0
 28 27  1  1
 29 22  1  0
 29 28  1  0
 30 32  2  0
 30 31  1  0
M  END
$$$$
