YRN.pdb
     RDKit          3D

 32 32  0  0  1  0  0  0  0  0999 V2000
    8.5218  -13.2830   23.4310 O   0  0  0  0  0  0  0  0  0  0  0  0
    8.2127  -13.3915   22.0787 C   0  0  0  0  0  0  0  0  0  0  0  0
    8.4893  -12.3709   21.1924 C   0  0  0  0  0  0  0  0  0  0  0  0
    8.1616  -12.5325   19.8646 C   0  0  0  0  0  0  0  0  0  0  0  0
    7.5725  -13.6708   19.4025 C   0  0  0  0  0  0  0  0  0  0  0  0
    7.2070  -13.8698   17.9700 C   0  0  0  0  0  0  0  0  0  0  0  0
    8.4460  -14.2194   17.1567 C   0  0  2  0  0  0  0  0  0  0  0  0
    8.0829  -14.5436   15.7899 N   0  0  0  0  0  0  0  0  0  0  0  0
    9.0717  -15.4340   17.7826 C   0  0  0  0  0  0  0  0  0  0  0  0
    8.5181  -16.5676   17.7243 O   0  0  0  0  0  0  0  0  0  0  0  0
    7.2887  -14.7032   20.2788 C   0  0  0  0  0  0  0  0  0  0  0  0
    7.6140  -14.5469   21.6057 C   0  0  0  0  0  0  0  0  0  0  0  0
   13.3566  -18.4011   12.9845 N   0  0  0  0  0  0  0  0  0  0  0  0
   13.2947  -17.7584   14.2481 C   0  0  0  0  0  0  0  0  0  0  0  0
   12.8657  -16.5499   14.3573 N   0  0  0  0  0  0  0  0  0  0  0  0
   13.7045  -18.4299   15.4296 N   0  0  0  0  0  0  0  0  0  0  0  0
   13.6603  -17.7125   16.6823 C   0  0  0  0  0  0  0  0  0  0  0  0
   12.2389  -17.4623   17.1650 C   0  0  0  0  0  0  0  0  0  0  0  0
   12.2937  -16.7386   18.4617 C   0  0  0  0  0  0  0  0  0  0  0  0
   10.9453  -16.4926   19.1065 C   0  0  2  0  0  0  0  0  0  0  0  0
   10.3144  -15.3369   18.4629 N   0  0  0  0  0  0  0  0  0  0  0  0
   11.0264  -16.3031   20.5664 C   0  0  0  0  0  0  0  0  0  0  0  0
   11.3914  -15.2347   21.1137 O   0  0  0  0  0  0  0  0  0  0  0  0
   12.7256  -16.0603   15.2645 N   0  0  0  0  0  0  0  0  0  0  0  0
   11.0525  -16.9933   25.6713 C   0  0  0  0  0  0  0  0  0  0  0  0
   10.2018  -18.0218   25.1821 O   0  0  0  0  0  0  0  0  0  0  0  0
    9.6111  -18.7794   25.9689 C   0  0  0  0  0  0  0  0  0  0  0  0
   10.0395  -18.1655   23.7318 C   0  0  1  0  0  0  0  0  0  0  0  0
   10.8102  -17.1845   22.9135 N   0  0  0  0  0  0  0  0  0  0  0  0
   10.6823  -17.3621   21.4873 C   0  0  0  0  0  0  0  0  0  0  0  0
   12.2650  -17.3649   23.2510 O   0  0  0  0  0  0  0  0  0  0  0  0
   12.7924  -16.9694   24.4726 O   0  0  0  0  0  0  0  0  0  0  0  0
  2  1  1  0
  3  2  2  0
  4  3  1  0
  5 11  1  0
  5  4  2  0
  6  5  1  0
  7  6  1  0
  7  8  1  6
  9  7  1  0
  9 21  1  0
 10  9  2  0
 11 12  2  0
 12  2  1  0
 14 13  1  0
 15 14  2  0
 16 14  1  0
 17 16  1  0
 18 17  1  0
 18 19  1  0
 20 19  1  6
 20 21  1  0
 20 22  1  0
 22 23  2  0
 24 25  1  0
 25 26  2  0
 25 27  1  0
 28 30  1  0
 28 27  1  6
 29 22  1  0
 29 28  1  0
 30 32  2  0
 30 31  1  0
M  END
$$$$
