YRN.pdb
     RDKit          3D

 32 32  0  0  1  0  0  0  0  0999 V2000
    8.6494  -11.3249   27.1935 O   0  0  0  0  0  0  0  0  0  0  0  0
    7.9010  -12.4745   26.9603 C   0  0  0  0  0  0  0  0  0  0  0  0
    7.3856  -13.2216   27.9995 C   0  0  0  0  0  0  0  0  0  0  0  0
    6.6521  -14.3507   27.7105 C   0  0  0  0  0  0  0  0  0  0  0  0
    6.4214  -14.7500   26.4284 C   0  0  0  0  0  0  0  0  0  0  0  0
    5.6313  -15.9689   26.0892 C   0  0  0  0  0  0  0  0  0  0  0  0
    6.5645  -17.1038   25.6888 C   0  0  2  0  0  0  0  0  0  0  0  0
    7.6996  -17.1713   26.5899 N   0  0  0  0  0  0  0  0  0  0  0  0
    7.0727  -16.8067   24.3062 C   0  0  0  0  0  0  0  0  0  0  0  0
    6.2954  -16.7580   23.3120 O   0  0  0  0  0  0  0  0  0  0  0  0
    6.9314  -14.0114   25.3755 C   0  0  0  0  0  0  0  0  0  0  0  0
    7.6646  -12.8830   25.6587 C   0  0  0  0  0  0  0  0  0  0  0  0
    8.8497  -12.3594   18.5957 N   0  0  0  0  0  0  0  0  0  0  0  0
    8.1625  -13.5798   18.3677 C   0  0  0  0  0  0  0  0  0  0  0  0
    7.3646  -13.7148   17.3669 N   0  0  0  0  0  0  0  0  0  0  0  0
    8.3348  -14.6883   19.2374 N   0  0  0  0  0  0  0  0  0  0  0  0
    9.4020  -14.6441   20.2094 C   0  0  0  0  0  0  0  0  0  0  0  0
    8.9883  -13.9590   21.5038 C   0  0  0  0  0  0  0  0  0  0  0  0
    8.2020  -14.9176   22.3231 C   0  0  0  0  0  0  0  0  0  0  0  0
    8.9709  -16.1412   22.7772 C   0  0  2  0  0  0  0  0  0  0  0  0
    8.4546  -16.5706   24.0798 N   0  0  0  0  0  0  0  0  0  0  0  0
   10.4278  -15.9224   22.8343 C   0  0  0  0  0  0  0  0  0  0  0  0
   10.9947  -15.2102   23.6977 O   0  0  0  0  0  0  0  0  0  0  0  0
    6.8965  -14.6078   17.1102 N   0  0  0  0  0  0  0  0  0  0  0  0
   12.2756  -19.9262   21.0625 C   0  0  0  0  0  0  0  0  0  0  0  0
   12.8081  -19.0507   22.0478 O   0  0  0  0  0  0  0  0  0  0  0  0
   12.7497  -19.3465   23.2524 C   0  0  0  0  0  0  0  0  0  0  0  0
   13.4253  -17.7951   21.6086 C   0  0  2  0  0  0  0  0  0  0  0  0
   12.7480  -16.5584   22.0961 N   0  0  0  0  0  0  0  0  0  0  0  0
   11.3223  -16.5291   21.8754 C   0  0  0  0  0  0  0  0  0  0  0  0
   13.3347  -15.3985   21.3391 O   0  0  0  0  0  0  0  0  0  0  0  0
   14.0859  -14.4138   21.9662 O   0  0  0  0  0  0  0  0  0  0  0  0
  2  1  1  0
  3  2  2  0
  4  3  1  0
  5 11  1  0
  5  4  2  0
  6  5  1  0
  7  6  1  0
  7  8  1  1
  9  7  1  0
  9 21  1  0
 10  9  2  0
 11 12  2  0
 12  2  1  0
 14 13  1  0
 15 14  2  0
 16 14  1  0
 17 16  1  0
 18 17  1  0
 18 19  1  0
 20 19  1  1
 20 21  1  0
 20 22  1  0
 22 23  2  0
 24 25  1  0
 25 26  2  0
 25 27  1  0
 28 30  1  0
 28 27  1  1
 29 22  1  0
 29 28  1  0
 30 32  2  0
 30 31  1  0
M  END
$$$$
