YRN.pdb
     RDKit          3D

 32 32  0  0  1  0  0  0  0  0999 V2000
    5.4319  -10.7354   28.5537 O   0  0  0  0  0  0  0  0  0  0  0  0
    6.0372  -11.6059   27.6528 C   0  0  0  0  0  0  0  0  0  0  0  0
    5.5142  -11.8177   26.3937 C   0  0  0  0  0  0  0  0  0  0  0  0
    6.1548  -12.6906   25.5427 C   0  0  0  0  0  0  0  0  0  0  0  0
    7.2893  -13.3501   25.9093 C   0  0  0  0  0  0  0  0  0  0  0  0
    8.0011  -14.3010   25.0068 C   0  0  0  0  0  0  0  0  0  0  0  0
    7.0437  -15.3829   24.5252 C   0  0  2  0  0  0  0  0  0  0  0  0
    6.7241  -16.2972   25.6054 N   0  0  0  0  0  0  0  0  0  0  0  0
    7.7404  -16.1548   23.4402 C   0  0  0  0  0  0  0  0  0  0  0  0
    8.3471  -17.2356   23.6826 O   0  0  0  0  0  0  0  0  0  0  0  0
    7.8260  -13.1484   27.1685 C   0  0  0  0  0  0  0  0  0  0  0  0
    7.1901  -12.2777   28.0220 C   0  0  0  0  0  0  0  0  0  0  0  0
    8.1061  -12.8749   15.9387 N   0  0  0  0  0  0  0  0  0  0  0  0
    7.9616  -14.1582   16.5270 C   0  0  0  0  0  0  0  0  0  0  0  0
    8.6581  -15.1590   16.1151 N   0  0  0  0  0  0  0  0  0  0  0  0
    7.0438  -14.3759   17.5877 N   0  0  0  0  0  0  0  0  0  0  0  0
    7.2048  -13.6184   18.8067 C   0  0  0  0  0  0  0  0  0  0  0  0
    8.2351  -14.2296   19.7452 C   0  0  0  0  0  0  0  0  0  0  0  0
    8.1029  -15.7092   19.7036 C   0  0  0  0  0  0  0  0  0  0  0  0
    8.3998  -16.4080   21.0144 C   0  0  2  0  0  0  0  0  0  0  0  0
    7.7341  -15.6836   22.1007 N   0  0  0  0  0  0  0  0  0  0  0  0
    9.8426  -16.5495   21.2824 C   0  0  0  0  0  0  0  0  0  0  0  0
   10.5863  -15.5996   21.6272 O   0  0  0  0  0  0  0  0  0  0  0  0
    8.5350  -16.1347   16.4546 N   0  0  0  0  0  0  0  0  0  0  0  0
   14.3229  -20.0992   22.8986 C   0  0  0  0  0  0  0  0  0  0  0  0
   13.8535  -19.5176   21.6894 O   0  0  0  0  0  0  0  0  0  0  0  0
   14.6542  -19.1423   20.8175 C   0  0  0  0  0  0  0  0  0  0  0  0
   12.4070  -19.3723   21.4976 C   0  0  1  0  0  0  0  0  0  0  0  0
   11.9151  -17.9640   21.4745 N   0  0  0  0  0  0  0  0  0  0  0  0
   10.5132  -17.8238   21.1627 C   0  0  0  0  0  0  0  0  0  0  0  0
   12.6796  -17.2402   20.4002 O   0  0  0  0  0  0  0  0  0  0  0  0
   13.8038  -16.4766   20.6833 O   0  0  0  0  0  0  0  0  0  0  0  0
  2  1  1  0
  3  2  2  0
  4  3  1  0
  5 11  1  0
  5  4  2  0
  6  5  1  0
  7  6  1  0
  7  8  1  1
  9  7  1  0
  9 21  1  0
 10  9  2  0
 11 12  2  0
 12  2  1  0
 14 13  1  0
 15 14  2  0
 16 14  1  0
 17 16  1  0
 18 17  1  0
 18 19  1  0
 20 19  1  6
 20 21  1  0
 20 22  1  0
 22 23  2  0
 24 25  1  0
 25 26  2  0
 25 27  1  0
 28 30  1  0
 28 27  1  1
 29 22  1  0
 29 28  1  0
 30 32  2  0
 30 31  1  0
M  END
$$$$
