KSM.pdb
     RDKit          3D

 24 23  0  0  1  0  0  0  0  0999 V2000
   11.6277  -18.9950   20.0453 N   0  0  0  0  0  0  0  0  0  0  0  0
   11.1942  -17.6892   19.5996 C   0  0  1  0  0  0  0  0  0  0  0  0
   10.7043  -17.7872   18.1937 C   0  0  0  0  0  0  0  0  0  0  0  0
   10.7538  -19.1358   17.5761 C   0  0  0  0  0  0  0  0  0  0  0  0
   10.2671  -19.2514   16.1753 C   0  0  0  0  0  0  0  0  0  0  0  0
   10.4627  -20.6354   15.6037 C   0  0  0  0  0  0  0  0  0  0  0  0
    9.9922  -20.6447   14.2323 N   0  0  0  0  0  0  0  0  0  0  0  0
   10.0855  -17.2547   20.4839 C   0  0  0  0  0  0  0  0  0  0  0  0
    9.6088  -16.0924   20.2622 O   0  0  0  0  0  0  0  0  0  0  0  0
    8.4026  -19.3820   23.8253 O   0  0  0  0  0  0  0  0  0  0  0  0
    7.6737  -18.5229   23.0404 C   0  0  0  0  0  0  0  0  0  0  0  0
    8.4952  -17.4440   22.4156 C   0  0  2  0  0  0  0  0  0  0  0  0
    9.5225  -18.0070   21.5341 N   0  0  0  0  0  0  0  0  0  0  0  0
    9.1104  -16.5908   23.4636 C   0  0  0  0  0  0  0  0  0  0  0  0
   10.3417  -16.6993   23.6908 O   0  0  0  0  0  0  0  0  0  0  0  0
    5.5150  -12.1221   27.0269 C   0  0  0  0  0  0  0  0  0  0  0  0
    7.2534  -11.6657   27.0993 S   0  0  0  0  0  0  0  0  0  0  0  0
    8.3360  -13.1435   27.0091 C   0  0  0  0  0  0  0  0  0  0  0  0
    7.9014  -13.9299   25.8169 C   0  0  0  0  0  0  0  0  0  0  0  0
    8.9165  -14.9059   25.3251 C   0  0  2  0  0  0  0  0  0  0  0  0
    8.3422  -15.6562   24.2147 N   0  0  0  0  0  0  0  0  0  0  0  0
    9.3069  -15.8095   26.4375 C   0  0  0  0  0  0  0  0  0  0  0  0
    8.7961  -17.0824   26.5381 O   0  0  0  0  0  0  0  0  0  0  0  0
   10.1148  -15.4117   27.3023 O   0  0  0  0  0  0  0  0  0  0  0  0
  2  1  1  1
  2  8  1  0
  3  2  1  0
  4  5  1  0
  4  3  1  0
  5  6  1  0
  7  6  1  0
  8  9  2  0
  8 13  1  0
 10 11  1  0
 12 11  1  1
 13 12  1  0
 14 12  1  0
 14 15  2  0
 16 17  1  0
 17 18  1  0
 18 19  1  0
 20 19  1  1
 20 21  1  0
 21 14  1  0
 22 20  1  0
 23 22  1  0
 24 22  2  0
M  END
$$$$
