KSM.pdb
     RDKit          3D

 24 23  0  0  1  0  0  0  0  0999 V2000
   10.9435  -14.2006   18.6009 N   0  0  0  0  0  0  0  0  0  0  0  0
   11.5687  -15.3441   19.2281 C   0  0  1  0  0  0  0  0  0  0  0  0
   12.9887  -15.0149   19.5465 C   0  0  0  0  0  0  0  0  0  0  0  0
   13.9116  -14.9108   18.3888 C   0  0  0  0  0  0  0  0  0  0  0  0
   15.3341  -14.5972   18.6899 C   0  0  0  0  0  0  0  0  0  0  0  0
   16.1667  -14.4177   17.4430 C   0  0  0  0  0  0  0  0  0  0  0  0
   17.4989  -13.9943   17.8283 N   0  0  0  0  0  0  0  0  0  0  0  0
   10.8311  -15.6312   20.4825 C   0  0  0  0  0  0  0  0  0  0  0  0
   10.3910  -14.6195   21.1229 O   0  0  0  0  0  0  0  0  0  0  0  0
   10.1125  -19.4637   22.3260 O   0  0  0  0  0  0  0  0  0  0  0  0
    9.2000  -18.4377   22.3291 C   0  0  0  0  0  0  0  0  0  0  0  0
    9.8255  -17.0835   22.2646 C   0  0  2  0  0  0  0  0  0  0  0  0
   10.5794  -16.9096   21.0193 N   0  0  0  0  0  0  0  0  0  0  0  0
   10.6991  -16.8615   23.4445 C   0  0  0  0  0  0  0  0  0  0  0  0
   11.9463  -16.8925   23.2923 O   0  0  0  0  0  0  0  0  0  0  0  0
    9.7235  -13.9481   30.6115 C   0  0  0  0  0  0  0  0  0  0  0  0
    9.9166  -13.8569   28.8255 S   0  0  0  0  0  0  0  0  0  0  0  0
   10.4442  -15.4690   28.1277 C   0  0  0  0  0  0  0  0  0  0  0  0
   10.6386  -15.2666   26.6615 C   0  0  0  0  0  0  0  0  0  0  0  0
   11.0120  -16.5044   25.9177 C   0  0  2  0  0  0  0  0  0  0  0  0
   10.1604  -16.6152   24.7395 N   0  0  0  0  0  0  0  0  0  0  0  0
   10.8484  -17.6806   26.8099 C   0  0  0  0  0  0  0  0  0  0  0  0
   11.7884  -17.9907   27.7647 O   0  0  0  0  0  0  0  0  0  0  0  0
    9.8392  -18.4069   26.6963 O   0  0  0  0  0  0  0  0  0  0  0  0
  2  1  1  1
  2  8  1  0
  3  2  1  0
  4  5  1  0
  4  3  1  0
  5  6  1  0
  7  6  1  0
  8  9  2  0
  8 13  1  0
 10 11  1  0
 12 11  1  1
 13 12  1  0
 14 12  1  0
 14 15  2  0
 16 17  1  0
 17 18  1  0
 18 19  1  0
 20 19  1  1
 20 21  1  0
 21 14  1  0
 22 20  1  0
 23 22  1  0
 24 22  2  0
M  END
$$$$
