KSM.pdb
     RDKit          3D

 24 23  0  0  1  0  0  0  0  0999 V2000
    6.1829  -16.4021   20.2408 N   0  0  0  0  0  0  0  0  0  0  0  0
    7.5270  -15.8856   20.3762 C   0  0  1  0  0  0  0  0  0  0  0  0
    7.4809  -14.3944   20.3965 C   0  0  0  0  0  0  0  0  0  0  0  0
    7.1419  -13.7327   19.1121 C   0  0  0  0  0  0  0  0  0  0  0  0
    8.1628  -13.7992   18.0323 C   0  0  0  0  0  0  0  0  0  0  0  0
    7.8001  -12.9522   16.8358 C   0  0  0  0  0  0  0  0  0  0  0  0
    8.8233  -13.1150   15.8215 N   0  0  0  0  0  0  0  0  0  0  0  0
    8.0757  -16.3842   21.6609 C   0  0  0  0  0  0  0  0  0  0  0  0
    7.2493  -16.4821   22.6276 O   0  0  0  0  0  0  0  0  0  0  0  0
   12.1892  -17.1660   22.6771 O   0  0  0  0  0  0  0  0  0  0  0  0
   11.1565  -17.9619   23.1075 C   0  0  0  0  0  0  0  0  0  0  0  0
    9.8524  -17.2422   23.2111 C   0  0  2  0  0  0  0  0  0  0  0  0
    9.4145  -16.7530   21.9002 N   0  0  0  0  0  0  0  0  0  0  0  0
    9.9553  -16.1243   24.1829 C   0  0  0  0  0  0  0  0  0  0  0  0
   10.1338  -14.9576   23.7512 O   0  0  0  0  0  0  0  0  0  0  0  0
    6.5359  -10.9342   27.5928 C   0  0  0  0  0  0  0  0  0  0  0  0
    6.8853  -12.3664   26.5622 S   0  0  0  0  0  0  0  0  0  0  0  0
    8.3467  -13.2897   27.1756 C   0  0  0  0  0  0  0  0  0  0  0  0
    8.5946  -14.4029   26.2123 C   0  0  0  0  0  0  0  0  0  0  0  0
    9.7914  -15.2335   26.5327 C   0  0  2  0  0  0  0  0  0  0  0  0
    9.8570  -16.3411   25.5869 N   0  0  0  0  0  0  0  0  0  0  0  0
    9.6858  -15.7270   27.9297 C   0  0  0  0  0  0  0  0  0  0  0  0
    9.5890  -17.0702   28.2085 O   0  0  0  0  0  0  0  0  0  0  0  0
    9.6842  -14.9113   28.8749 O   0  0  0  0  0  0  0  0  0  0  0  0
  2  1  1  1
  2  8  1  0
  3  2  1  0
  4  5  1  0
  4  3  1  0
  5  6  1  0
  7  6  1  0
  8  9  2  0
  8 13  1  0
 10 11  1  0
 12 11  1  6
 13 12  1  0
 14 12  1  0
 14 15  2  0
 16 17  1  0
 17 18  1  0
 18 19  1  0
 20 19  1  6
 20 21  1  0
 21 14  1  0
 22 20  1  0
 23 22  1  0
 24 22  2  0
M  END
$$$$
