KSM.pdb
     RDKit          3D

 24 23  0  0  1  0  0  0  0  0999 V2000
    5.2398  -16.6515   21.3014 N   0  0  0  0  0  0  0  0  0  0  0  0
    6.6408  -16.3879   21.0578 C   0  0  1  0  0  0  0  0  0  0  0  0
    6.8388  -14.9218   20.8639 C   0  0  0  0  0  0  0  0  0  0  0  0
    8.0635  -14.5185   20.1291 C   0  0  0  0  0  0  0  0  0  0  0  0
    8.2461  -13.0643   19.8750 C   0  0  0  0  0  0  0  0  0  0  0  0
    9.5374  -12.7572   19.1548 C   0  0  0  0  0  0  0  0  0  0  0  0
    9.6031  -11.3309   18.9023 N   0  0  0  0  0  0  0  0  0  0  0  0
    7.3997  -16.8393   22.2496 C   0  0  0  0  0  0  0  0  0  0  0  0
    6.8106  -16.7157   23.3742 O   0  0  0  0  0  0  0  0  0  0  0  0
   11.4397  -18.3198   22.4309 O   0  0  0  0  0  0  0  0  0  0  0  0
   10.4082  -18.8727   23.1489 C   0  0  0  0  0  0  0  0  0  0  0  0
    9.3176  -17.9043   23.4678 C   0  0  2  0  0  0  0  0  0  0  0  0
    8.6990  -17.3850   22.2443 N   0  0  0  0  0  0  0  0  0  0  0  0
    9.8403  -16.7951   24.3052 C   0  0  0  0  0  0  0  0  0  0  0  0
   10.4327  -15.8381   23.7462 O   0  0  0  0  0  0  0  0  0  0  0  0
    6.8257  -13.1815   27.5761 C   0  0  0  0  0  0  0  0  0  0  0  0
    8.1955  -13.0064   28.7286 S   0  0  0  0  0  0  0  0  0  0  0  0
    9.6746  -13.9251   28.1521 C   0  0  0  0  0  0  0  0  0  0  0  0
    9.1979  -14.9524   27.1796 C   0  0  0  0  0  0  0  0  0  0  0  0
   10.2886  -15.7554   26.5546 C   0  0  2  0  0  0  0  0  0  0  0  0
    9.6873  -16.7894   25.7210 N   0  0  0  0  0  0  0  0  0  0  0  0
   11.1322  -16.3509   27.6223 C   0  0  0  0  0  0  0  0  0  0  0  0
   11.9702  -15.5748   28.3884 O   0  0  0  0  0  0  0  0  0  0  0  0
   11.0845  -17.5804   27.8340 O   0  0  0  0  0  0  0  0  0  0  0  0
  2  1  1  1
  2  8  1  0
  3  2  1  0
  4  5  1  0
  4  3  1  0
  5  6  1  0
  7  6  1  0
  8  9  2  0
  8 13  1  0
 10 11  1  0
 12 11  1  6
 13 12  1  0
 14 12  1  0
 14 15  2  0
 16 17  1  0
 17 18  1  0
 18 19  1  0
 20 19  1  1
 20 21  1  0
 21 14  1  0
 22 20  1  0
 23 22  1  0
 24 22  2  0
M  END
$$$$
