KSM.pdb
     RDKit          3D

 24 23  0  0  1  0  0  0  0  0999 V2000
    9.5759  -15.1629   19.5140 N   0  0  0  0  0  0  0  0  0  0  0  0
    8.8891  -14.2645   20.4157 C   0  0  1  0  0  0  0  0  0  0  0  0
    7.5566  -13.9160   19.8419 C   0  0  0  0  0  0  0  0  0  0  0  0
    7.5695  -13.2426   18.5195 C   0  0  0  0  0  0  0  0  0  0  0  0
    7.9137  -14.0826   17.3413 C   0  0  0  0  0  0  0  0  0  0  0  0
    7.9682  -13.2896   16.0573 C   0  0  0  0  0  0  0  0  0  0  0  0
    8.3211  -14.1833   14.9714 N   0  0  0  0  0  0  0  0  0  0  0  0
    8.7057  -14.9722   21.7062 C   0  0  0  0  0  0  0  0  0  0  0  0
    8.0241  -14.3601   22.5939 O   0  0  0  0  0  0  0  0  0  0  0  0
   10.9583  -18.3125   23.1714 O   0  0  0  0  0  0  0  0  0  0  0  0
    9.6181  -18.1923   23.4448 C   0  0  0  0  0  0  0  0  0  0  0  0
    9.1225  -16.7850   23.3903 C   0  0  2  0  0  0  0  0  0  0  0  0
    9.2145  -16.2458   22.0302 N   0  0  0  0  0  0  0  0  0  0  0  0
    9.8763  -15.9347   24.3461 C   0  0  0  0  0  0  0  0  0  0  0  0
   10.5060  -14.9390   23.9084 O   0  0  0  0  0  0  0  0  0  0  0  0
    7.2054  -11.2133   25.8252 C   0  0  0  0  0  0  0  0  0  0  0  0
    6.9341  -12.3809   27.1662 S   0  0  0  0  0  0  0  0  0  0  0  0
    8.4767  -13.2761   27.5943 C   0  0  0  0  0  0  0  0  0  0  0  0
    8.6280  -14.3822   26.6033 C   0  0  0  0  0  0  0  0  0  0  0  0
    9.8944  -15.1581   26.7416 C   0  0  2  0  0  0  0  0  0  0  0  0
    9.9030  -16.2187   25.7413 N   0  0  0  0  0  0  0  0  0  0  0  0
    9.9795  -15.7164   28.1154 C   0  0  0  0  0  0  0  0  0  0  0  0
    9.2907  -16.8527   28.4699 O   0  0  0  0  0  0  0  0  0  0  0  0
   10.6891  -15.1475   28.9708 O   0  0  0  0  0  0  0  0  0  0  0  0
  2  1  1  6
  2  8  1  0
  3  2  1  0
  4  5  1  0
  4  3  1  0
  5  6  1  0
  7  6  1  0
  8  9  2  0
  8 13  1  0
 10 11  1  0
 12 11  1  6
 13 12  1  0
 14 12  1  0
 14 15  2  0
 16 17  1  0
 17 18  1  0
 18 19  1  0
 20 19  1  1
 20 21  1  0
 21 14  1  0
 22 20  1  0
 23 22  1  0
 24 22  2  0
M  END
$$$$
