KSM.pdb
     RDKit          3D

 24 23  0  0  1  0  0  0  0  0999 V2000
    8.6106  -17.9621   18.1223 N   0  0  0  0  0  0  0  0  0  0  0  0
    8.5810  -18.8414   19.2703 C   0  0  1  0  0  0  0  0  0  0  0  0
    9.9535  -19.3712   19.5191 C   0  0  0  0  0  0  0  0  0  0  0  0
   11.0778  -18.5052   19.0849 C   0  0  0  0  0  0  0  0  0  0  0  0
   12.4411  -19.0980   19.1369 C   0  0  0  0  0  0  0  0  0  0  0  0
   13.5225  -18.1004   18.7969 C   0  0  0  0  0  0  0  0  0  0  0  0
   14.8116  -18.7559   18.9012 N   0  0  0  0  0  0  0  0  0  0  0  0
    8.1357  -18.0442   20.4390 C   0  0  0  0  0  0  0  0  0  0  0  0
    8.1269  -16.7775   20.2882 O   0  0  0  0  0  0  0  0  0  0  0  0
    6.9160  -19.5057   24.2791 O   0  0  0  0  0  0  0  0  0  0  0  0
    6.2533  -18.4947   23.6279 C   0  0  0  0  0  0  0  0  0  0  0  0
    7.1264  -17.7035   22.7109 C   0  0  2  0  0  0  0  0  0  0  0  0
    7.7277  -18.5609   21.6850 N   0  0  0  0  0  0  0  0  0  0  0  0
    8.1756  -16.9914   23.4835 C   0  0  0  0  0  0  0  0  0  0  0  0
    9.3476  -17.4451   23.4788 O   0  0  0  0  0  0  0  0  0  0  0  0
    5.5222  -11.6066   27.5059 C   0  0  0  0  0  0  0  0  0  0  0  0
    6.9630  -11.8446   26.4557 S   0  0  0  0  0  0  0  0  0  0  0  0
    7.2414  -13.6217   26.0967 C   0  0  0  0  0  0  0  0  0  0  0  0
    8.4489  -13.7058   25.2230 C   0  0  0  0  0  0  0  0  0  0  0  0
    8.9215  -15.0969   24.9655 C   0  0  2  0  0  0  0  0  0  0  0  0
    7.8874  -15.8114   24.2266 N   0  0  0  0  0  0  0  0  0  0  0  0
    9.2122  -15.7635   26.2607 C   0  0  0  0  0  0  0  0  0  0  0  0
   10.3652  -15.4949   26.9606 O   0  0  0  0  0  0  0  0  0  0  0  0
    8.3976  -16.5853   26.7294 O   0  0  0  0  0  0  0  0  0  0  0  0
  2  1  1  6
  2  8  1  0
  3  2  1  0
  4  5  1  0
  4  3  1  0
  5  6  1  0
  7  6  1  0
  8  9  2  0
  8 13  1  0
 10 11  1  0
 12 11  1  1
 13 12  1  0
 14 12  1  0
 14 15  2  0
 16 17  1  0
 17 18  1  0
 18 19  1  0
 20 19  1  1
 20 21  1  0
 21 14  1  0
 22 20  1  0
 23 22  1  0
 24 22  2  0
M  END
$$$$
