KSM.pdb
     RDKit          3D

 24 23  0  0  1  0  0  0  0  0999 V2000
    7.1090  -17.8518   18.8880 N   0  0  0  0  0  0  0  0  0  0  0  0
    8.1738  -17.2273   19.6417 C   0  0  1  0  0  0  0  0  0  0  0  0
    8.0234  -15.7446   19.5689 C   0  0  0  0  0  0  0  0  0  0  0  0
    8.2709  -15.1262   18.2426 C   0  0  0  0  0  0  0  0  0  0  0  0
    8.0891  -13.6532   18.1439 C   0  0  0  0  0  0  0  0  0  0  0  0
    8.1431  -13.1546   16.7195 C   0  0  0  0  0  0  0  0  0  0  0  0
    7.7688  -11.7540   16.7009 N   0  0  0  0  0  0  0  0  0  0  0  0
    8.0505  -17.6714   21.0515 C   0  0  0  0  0  0  0  0  0  0  0  0
    6.8638  -17.8009   21.5009 O   0  0  0  0  0  0  0  0  0  0  0  0
   10.9320  -19.5464   23.3910 O   0  0  0  0  0  0  0  0  0  0  0  0
    9.5966  -19.5501   23.7103 C   0  0  0  0  0  0  0  0  0  0  0  0
    8.8901  -18.2899   23.3338 C   0  0  2  0  0  0  0  0  0  0  0  0
    9.1192  -17.9578   21.9243 N   0  0  0  0  0  0  0  0  0  0  0  0
    9.3198  -17.1741   24.2143 C   0  0  0  0  0  0  0  0  0  0  0  0
   10.3607  -16.5340   23.9208 O   0  0  0  0  0  0  0  0  0  0  0  0
    6.7158  -10.9063   25.7745 C   0  0  0  0  0  0  0  0  0  0  0  0
    6.5808  -12.6166   26.3149 S   0  0  0  0  0  0  0  0  0  0  0  0
    8.1959  -13.4794   26.2100 C   0  0  0  0  0  0  0  0  0  0  0  0
    7.9695  -14.8843   26.6609 C   0  0  0  0  0  0  0  0  0  0  0  0
    9.0806  -15.8209   26.3246 C   0  0  2  0  0  0  0  0  0  0  0  0
    8.5839  -16.8131   25.3788 N   0  0  0  0  0  0  0  0  0  0  0  0
    9.5718  -16.4657   27.5693 C   0  0  0  0  0  0  0  0  0  0  0  0
   10.3469  -15.7780   28.4735 O   0  0  0  0  0  0  0  0  0  0  0  0
    9.2788  -17.6561   27.8057 O   0  0  0  0  0  0  0  0  0  0  0  0
  2  1  1  6
  2  8  1  0
  3  2  1  0
  4  5  1  0
  4  3  1  0
  5  6  1  0
  7  6  1  0
  8  9  2  0
  8 13  1  0
 10 11  1  0
 12 11  1  1
 13 12  1  0
 14 12  1  0
 14 15  2  0
 16 17  1  0
 17 18  1  0
 18 19  1  0
 20 19  1  1
 20 21  1  0
 21 14  1  0
 22 20  1  0
 23 22  1  0
 24 22  2  0
M  END
$$$$
