KSM.pdb
     RDKit          3D

 24 23  0  0  1  0  0  0  0  0999 V2000
    6.1641  -16.8704   20.9442 N   0  0  0  0  0  0  0  0  0  0  0  0
    7.3242  -16.0592   21.2404 C   0  0  1  0  0  0  0  0  0  0  0  0
    6.8899  -14.6546   21.4947 C   0  0  0  0  0  0  0  0  0  0  0  0
    6.9719  -13.7252   20.3405 C   0  0  0  0  0  0  0  0  0  0  0  0
    8.3063  -13.5601   19.7045 C   0  0  0  0  0  0  0  0  0  0  0  0
    8.3331  -12.4414   18.6906 C   0  0  0  0  0  0  0  0  0  0  0  0
    9.6619  -12.3646   18.1154 N   0  0  0  0  0  0  0  0  0  0  0  0
    7.9625  -16.6113   22.4601 C   0  0  0  0  0  0  0  0  0  0  0  0
    7.1975  -16.7942   23.4643 O   0  0  0  0  0  0  0  0  0  0  0  0
   12.1818  -17.0236   23.2849 O   0  0  0  0  0  0  0  0  0  0  0  0
   11.2504  -17.9283   23.7314 C   0  0  0  0  0  0  0  0  0  0  0  0
    9.8851  -17.3466   23.8951 C   0  0  2  0  0  0  0  0  0  0  0  0
    9.3242  -16.9457   22.6013 N   0  0  0  0  0  0  0  0  0  0  0  0
    9.9231  -16.1955   24.8322 C   0  0  0  0  0  0  0  0  0  0  0  0
    9.8525  -15.0301   24.3671 O   0  0  0  0  0  0  0  0  0  0  0  0
    7.4718  -11.3870   25.9625 C   0  0  0  0  0  0  0  0  0  0  0  0
    7.2294  -12.3539   27.4597 S   0  0  0  0  0  0  0  0  0  0  0  0
    8.7511  -13.2707   27.9161 C   0  0  0  0  0  0  0  0  0  0  0  0
    8.8435  -14.4453   26.9995 C   0  0  0  0  0  0  0  0  0  0  0  0
   10.0894  -15.2496   27.1602 C   0  0  2  0  0  0  0  0  0  0  0  0
   10.0372  -16.3791   26.2397 N   0  0  0  0  0  0  0  0  0  0  0  0
   10.1974  -15.7101   28.5682 C   0  0  0  0  0  0  0  0  0  0  0  0
   10.6212  -14.8650   29.5669 O   0  0  0  0  0  0  0  0  0  0  0  0
    9.8988  -16.8873   28.8580 O   0  0  0  0  0  0  0  0  0  0  0  0
  2  1  1  1
  2  8  1  0
  3  2  1  0
  4  5  1  0
  4  3  1  0
  5  6  1  0
  7  6  1  0
  8  9  2  0
  8 13  1  0
 10 11  1  0
 12 11  1  6
 13 12  1  0
 14 12  1  0
 14 15  2  0
 16 17  1  0
 17 18  1  0
 18 19  1  0
 20 19  1  1
 20 21  1  0
 21 14  1  0
 22 20  1  0
 23 22  1  0
 24 22  2  0
M  END
$$$$
