KSM.pdb
     RDKit          3D

 24 23  0  0  1  0  0  0  0  0999 V2000
    8.5963  -18.0884   19.6857 N   0  0  0  0  0  0  0  0  0  0  0  0
    9.5007  -17.2026   20.3853 C   0  0  1  0  0  0  0  0  0  0  0  0
    9.0347  -15.7947   20.2215 C   0  0  0  0  0  0  0  0  0  0  0  0
    8.8783  -15.3155   18.8256 C   0  0  0  0  0  0  0  0  0  0  0  0
    8.4872  -13.8919   18.6440 C   0  0  0  0  0  0  0  0  0  0  0  0
    8.2490  -13.5342   17.1963 C   0  0  0  0  0  0  0  0  0  0  0  0
    7.9001  -12.1293   17.1141 N   0  0  0  0  0  0  0  0  0  0  0  0
    9.4743  -17.5717   21.8216 C   0  0  0  0  0  0  0  0  0  0  0  0
    8.3809  -18.0627   22.2584 O   0  0  0  0  0  0  0  0  0  0  0  0
   11.5140  -19.1972   25.8006 O   0  0  0  0  0  0  0  0  0  0  0  0
   11.5757  -18.7440   24.5059 C   0  0  0  0  0  0  0  0  0  0  0  0
   10.4254  -17.8722   24.1241 C   0  0  2  0  0  0  0  0  0  0  0  0
   10.5402  -17.4272   22.7319 N   0  0  0  0  0  0  0  0  0  0  0  0
   10.3314  -16.7094   25.0427 C   0  0  0  0  0  0  0  0  0  0  0  0
   11.1293  -15.7500   24.8928 O   0  0  0  0  0  0  0  0  0  0  0  0
    7.0872  -11.1282   26.9122 C   0  0  0  0  0  0  0  0  0  0  0  0
    7.3940  -12.8375   26.4438 S   0  0  0  0  0  0  0  0  0  0  0  0
    7.6941  -13.8896   27.9160 C   0  0  0  0  0  0  0  0  0  0  0  0
    7.9255  -15.2782   27.4194 C   0  0  0  0  0  0  0  0  0  0  0  0
    9.3433  -15.5706   27.0597 C   0  0  2  0  0  0  0  0  0  0  0  0
    9.3631  -16.6550   26.0853 N   0  0  0  0  0  0  0  0  0  0  0  0
   10.0943  -15.9391   28.2871 C   0  0  0  0  0  0  0  0  0  0  0  0
   10.6050  -14.9789   29.1288 O   0  0  0  0  0  0  0  0  0  0  0  0
   10.2692  -17.1434   28.5664 O   0  0  0  0  0  0  0  0  0  0  0  0
  2  1  1  6
  2  8  1  0
  3  2  1  0
  4  5  1  0
  4  3  1  0
  5  6  1  0
  7  6  1  0
  8  9  2  0
  8 13  1  0
 10 11  1  0
 12 11  1  1
 13 12  1  0
 14 12  1  0
 14 15  2  0
 16 17  1  0
 17 18  1  0
 18 19  1  0
 20 19  1  1
 20 21  1  0
 21 14  1  0
 22 20  1  0
 23 22  1  0
 24 22  2  0
M  END
$$$$
