KSM.pdb
     RDKit          3D

 24 23  0  0  1  0  0  0  0  0999 V2000
    8.4446  -17.9977   18.1648 N   0  0  0  0  0  0  0  0  0  0  0  0
    9.0937  -16.9698   18.9484 C   0  0  1  0  0  0  0  0  0  0  0  0
    8.5232  -15.6402   18.5842 C   0  0  0  0  0  0  0  0  0  0  0  0
    8.6835  -15.2250   17.1684 C   0  0  0  0  0  0  0  0  0  0  0  0
    8.0597  -13.9341   16.7722 C   0  0  0  0  0  0  0  0  0  0  0  0
    8.0835  -13.7105   15.2789 C   0  0  0  0  0  0  0  0  0  0  0  0
    7.3305  -12.5093   14.9748 N   0  0  0  0  0  0  0  0  0  0  0  0
    8.8225  -17.2529   20.3789 C   0  0  0  0  0  0  0  0  0  0  0  0
    7.6564  -17.6887   20.6570 O   0  0  0  0  0  0  0  0  0  0  0  0
   11.4909  -18.5357   23.1171 O   0  0  0  0  0  0  0  0  0  0  0  0
   10.1311  -18.6494   23.2694 C   0  0  0  0  0  0  0  0  0  0  0  0
    9.3778  -17.4417   22.8186 C   0  0  2  0  0  0  0  0  0  0  0  0
    9.7318  -17.0827   21.4420 N   0  0  0  0  0  0  0  0  0  0  0  0
    9.6266  -16.3042   23.7400 C   0  0  0  0  0  0  0  0  0  0  0  0
   10.6418  -15.5859   23.5592 O   0  0  0  0  0  0  0  0  0  0  0  0
    6.6950  -11.1908   27.1335 C   0  0  0  0  0  0  0  0  0  0  0  0
    6.1424  -12.2750   25.8089 S   0  0  0  0  0  0  0  0  0  0  0  0
    7.5281  -13.2755   25.1431 C   0  0  0  0  0  0  0  0  0  0  0  0
    7.9208  -14.2414   26.2115 C   0  0  0  0  0  0  0  0  0  0  0  0
    9.1128  -15.0729   25.8758 C   0  0  2  0  0  0  0  0  0  0  0  0
    8.7461  -16.0085   24.8195 N   0  0  0  0  0  0  0  0  0  0  0  0
    9.5681  -15.7911   27.0937 C   0  0  0  0  0  0  0  0  0  0  0  0
   10.2635  -15.1438   28.0881 O   0  0  0  0  0  0  0  0  0  0  0  0
    9.3177  -17.0073   27.2239 O   0  0  0  0  0  0  0  0  0  0  0  0
  2  1  1  6
  2  8  1  0
  3  2  1  0
  4  5  1  0
  4  3  1  0
  5  6  1  0
  7  6  1  0
  8  9  2  0
  8 13  1  0
 10 11  1  0
 12 11  1  1
 13 12  1  0
 14 12  1  0
 14 15  2  0
 16 17  1  0
 17 18  1  0
 18 19  1  0
 20 19  1  1
 20 21  1  0
 21 14  1  0
 22 20  1  0
 23 22  1  0
 24 22  2  0
M  END
$$$$
