KSM.pdb
     RDKit          3D

 24 23  0  0  1  0  0  0  0  0999 V2000
    7.7161  -16.3906   18.5350 N   0  0  0  0  0  0  0  0  0  0  0  0
    8.5271  -15.5430   19.3810 C   0  0  1  0  0  0  0  0  0  0  0  0
    7.9826  -14.1542   19.3519 C   0  0  0  0  0  0  0  0  0  0  0  0
    7.4577  -13.6844   18.0456 C   0  0  0  0  0  0  0  0  0  0  0  0
    8.3939  -13.7278   16.8906 C   0  0  0  0  0  0  0  0  0  0  0  0
    7.7504  -13.2723   15.6026 C   0  0  0  0  0  0  0  0  0  0  0  0
    8.7302  -13.3545   14.5369 N   0  0  0  0  0  0  0  0  0  0  0  0
    8.4520  -16.0783   20.7622 C   0  0  0  0  0  0  0  0  0  0  0  0
    7.3519  -15.8925   21.3807 O   0  0  0  0  0  0  0  0  0  0  0  0
   11.5175  -18.1582   22.9602 O   0  0  0  0  0  0  0  0  0  0  0  0
   10.1747  -18.4044   23.1074 C   0  0  0  0  0  0  0  0  0  0  0  0
    9.3164  -17.2158   22.8250 C   0  0  2  0  0  0  0  0  0  0  0  0
    9.4795  -16.7647   21.4397 N   0  0  0  0  0  0  0  0  0  0  0  0
    9.6250  -16.1182   23.7762 C   0  0  0  0  0  0  0  0  0  0  0  0
   10.4833  -15.2583   23.4547 O   0  0  0  0  0  0  0  0  0  0  0  0
    5.7023  -12.2285   26.2024 C   0  0  0  0  0  0  0  0  0  0  0  0
    7.2930  -11.5694   26.7226 S   0  0  0  0  0  0  0  0  0  0  0  0
    8.4808  -12.9143   27.1029 C   0  0  0  0  0  0  0  0  0  0  0  0
    8.2413  -14.0013   26.1081 C   0  0  0  0  0  0  0  0  0  0  0  0
    9.3463  -14.9990   26.0148 C   0  0  2  0  0  0  0  0  0  0  0  0
    8.9746  -16.0165   25.0389 N   0  0  0  0  0  0  0  0  0  0  0  0
    9.5785  -15.5996   27.3533 C   0  0  0  0  0  0  0  0  0  0  0  0
   10.1436  -14.8732   28.3752 O   0  0  0  0  0  0  0  0  0  0  0  0
    9.2566  -16.7878   27.5619 O   0  0  0  0  0  0  0  0  0  0  0  0
  2  1  1  6
  2  8  1  0
  3  2  1  0
  4  5  1  0
  4  3  1  0
  5  6  1  0
  7  6  1  0
  8  9  2  0
  8 13  1  0
 10 11  1  0
 12 11  1  1
 13 12  1  0
 14 12  1  0
 14 15  2  0
 16 17  1  0
 17 18  1  0
 18 19  1  0
 20 19  1  1
 20 21  1  0
 21 14  1  0
 22 20  1  0
 23 22  1  0
 24 22  2  0
M  END
$$$$
