KSM.pdb
     RDKit          3D

 24 23  0  0  1  0  0  0  0  0999 V2000
    6.4117  -16.2027   20.0520 N   0  0  0  0  0  0  0  0  0  0  0  0
    7.7329  -15.6809   20.3240 C   0  0  1  0  0  0  0  0  0  0  0  0
    7.6150  -14.2795   20.8223 C   0  0  0  0  0  0  0  0  0  0  0  0
    7.8932  -13.2080   19.8337 C   0  0  0  0  0  0  0  0  0  0  0  0
    7.7681  -13.5709   18.3967 C   0  0  0  0  0  0  0  0  0  0  0  0
    8.2603  -12.4798   17.4761 C   0  0  0  0  0  0  0  0  0  0  0  0
    8.0046  -12.8754   16.1049 N   0  0  0  0  0  0  0  0  0  0  0  0
    8.3481  -16.5316   21.3718 C   0  0  0  0  0  0  0  0  0  0  0  0
    7.6247  -16.7823   22.3922 O   0  0  0  0  0  0  0  0  0  0  0  0
   10.8120  -19.5884   20.8381 O   0  0  0  0  0  0  0  0  0  0  0  0
   11.2032  -18.8592   21.9338 C   0  0  0  0  0  0  0  0  0  0  0  0
   10.1566  -17.9150   22.4261 C   0  0  2  0  0  0  0  0  0  0  0  0
    9.6465  -17.0781   21.3359 N   0  0  0  0  0  0  0  0  0  0  0  0
   10.6945  -17.0760   23.5268 C   0  0  0  0  0  0  0  0  0  0  0  0
   11.4152  -16.0869   23.2410 O   0  0  0  0  0  0  0  0  0  0  0  0
    9.5030  -12.5356   29.3799 C   0  0  0  0  0  0  0  0  0  0  0  0
    9.0434  -13.6644   28.0570 S   0  0  0  0  0  0  0  0  0  0  0  0
   10.4182  -14.8072   27.6467 C   0  0  0  0  0  0  0  0  0  0  0  0
    9.9812  -15.6079   26.4650 C   0  0  0  0  0  0  0  0  0  0  0  0
   10.9987  -16.5837   25.9777 C   0  0  2  0  0  0  0  0  0  0  0  0
   10.4147  -17.3637   24.8931 N   0  0  0  0  0  0  0  0  0  0  0  0
   11.4166  -17.4590   27.1027 C   0  0  0  0  0  0  0  0  0  0  0  0
   12.2724  -17.0081   28.0802 O   0  0  0  0  0  0  0  0  0  0  0  0
   10.9858  -18.6290   27.1684 O   0  0  0  0  0  0  0  0  0  0  0  0
  2  1  1  1
  2  8  1  0
  3  2  1  0
  4  5  1  0
  4  3  1  0
  5  6  1  0
  7  6  1  0
  8  9  2  0
  8 13  1  0
 10 11  1  0
 12 11  1  6
 13 12  1  0
 14 12  1  0
 14 15  2  0
 16 17  1  0
 17 18  1  0
 18 19  1  0
 20 19  1  1
 20 21  1  0
 21 14  1  0
 22 20  1  0
 23 22  1  0
 24 22  2  0
M  END
$$$$
