KSM.pdb
     RDKit          3D

 24 23  0  0  1  0  0  0  0  0999 V2000
    9.6558  -19.7591   18.4255 N   0  0  0  0  0  0  0  0  0  0  0  0
   10.2863  -19.8002   19.7266 C   0  0  1  0  0  0  0  0  0  0  0  0
   11.5600  -19.0245   19.6803 C   0  0  0  0  0  0  0  0  0  0  0  0
   12.5423  -19.4405   18.6486 C   0  0  0  0  0  0  0  0  0  0  0  0
   13.8781  -18.7874   18.6909 C   0  0  0  0  0  0  0  0  0  0  0  0
   14.8062  -19.2908   17.6113 C   0  0  0  0  0  0  0  0  0  0  0  0
   16.0003  -18.4684   17.6017 N   0  0  0  0  0  0  0  0  0  0  0  0
    9.3574  -19.1745   20.6990 C   0  0  0  0  0  0  0  0  0  0  0  0
    8.5492  -18.3063   20.2296 O   0  0  0  0  0  0  0  0  0  0  0  0
    8.7827  -20.2824   24.7759 O   0  0  0  0  0  0  0  0  0  0  0  0
    7.7962  -19.7518   23.9818 C   0  0  0  0  0  0  0  0  0  0  0  0
    8.3083  -18.8040   22.9481 C   0  0  2  0  0  0  0  0  0  0  0  0
    9.2938  -19.4539   22.0788 N   0  0  0  0  0  0  0  0  0  0  0  0
    8.8889  -17.5997   23.5941 C   0  0  0  0  0  0  0  0  0  0  0  0
   10.1374  -17.5141   23.7103 O   0  0  0  0  0  0  0  0  0  0  0  0
    6.9383  -10.5144   26.6579 C   0  0  0  0  0  0  0  0  0  0  0  0
    6.5057  -12.1135   25.9572 S   0  0  0  0  0  0  0  0  0  0  0  0
    7.9887  -13.1709   25.7408 C   0  0  0  0  0  0  0  0  0  0  0  0
    7.5403  -14.4133   25.0452 C   0  0  0  0  0  0  0  0  0  0  0  0
    8.6307  -15.3986   24.7901 C   0  0  2  0  0  0  0  0  0  0  0  0
    8.0687  -16.5434   24.0833 N   0  0  0  0  0  0  0  0  0  0  0  0
    9.2319  -15.8103   26.0845 C   0  0  0  0  0  0  0  0  0  0  0  0
   10.2945  -15.1279   26.6290 O   0  0  0  0  0  0  0  0  0  0  0  0
    8.7680  -16.7950   26.6960 O   0  0  0  0  0  0  0  0  0  0  0  0
  2  1  1  6
  2  8  1  0
  3  2  1  0
  4  5  1  0
  4  3  1  0
  5  6  1  0
  7  6  1  0
  8  9  2  0
  8 13  1  0
 10 11  1  0
 12 11  1  1
 13 12  1  0
 14 12  1  0
 14 15  2  0
 16 17  1  0
 17 18  1  0
 18 19  1  0
 20 19  1  1
 20 21  1  0
 21 14  1  0
 22 20  1  0
 23 22  1  0
 24 22  2  0
M  END
$$$$
