ASG.pdb
     RDKit          3D

 16 15  0  0  1  0  0  0  0  0999 V2000
   18.3951  -12.4355  -17.3886 C   0  0  0  0  0  0  0  0  0  0  0  0
   19.6826  -11.7939  -16.9206 C   0  0  2  0  0  0  0  0  0  0  0  0
   20.1980  -12.3895  -15.7296 N   0  0  0  0  0  0  0  0  0  0  0  0
   19.4130  -10.3357  -16.7471 C   0  0  0  0  0  0  0  0  0  0  0  0
   19.0948   -9.6180  -17.7303 O   0  0  0  0  0  0  0  0  0  0  0  0
   17.9720   -6.5619  -14.4391 O   0  0  0  0  0  0  0  0  0  0  0  0
   18.1161   -7.9288  -14.6315 C   0  0  0  0  0  0  0  0  0  0  0  0
   19.4082   -8.2467  -15.3594 C   0  0  2  0  0  0  0  0  0  0  0  0
   19.5001   -9.6879  -15.4788 N   0  0  0  0  0  0  0  0  0  0  0  0
   20.5233   -7.7073  -14.5251 C   0  0  0  0  0  0  0  0  0  0  0  0
   21.2111   -8.4606  -13.7918 O   0  0  0  0  0  0  0  0  0  0  0  0
   20.7935   -6.3159  -14.5770 N   0  0  0  0  0  0  0  0  0  0  0  0
   21.8938   -5.7817  -13.7941 C   0  0  0  0  0  0  0  0  0  0  0  0
   21.9263   -4.3017  -13.9480 C   0  0  0  0  0  0  0  0  0  0  0  0
   22.7336   -3.5883  -13.3204 O   0  0  0  0  0  0  0  0  0  0  0  0
   21.0440   -3.6564  -14.8096 O   0  0  0  0  0  0  0  0  0  0  0  0
  2  1  1  1
  2  3  1  0
  4  2  1  0
  4  5  2  0
  6  7  1  0
  8  7  1  1
  8  9  1  0
  9  4  1  0
 10  8  1  0
 11 10  2  0
 12 10  1  0
 13 12  1  0
 14 13  1  0
 14 16  1  0
 15 14  2  0
M  END
$$$$
