ASG.pdb
     RDKit          3D

 16 15  0  0  1  0  0  0  0  0999 V2000
   19.1470   -9.8634  -17.3313 C   0  0  0  0  0  0  0  0  0  0  0  0
   19.9475   -9.9598  -16.0514 C   0  0  2  0  0  0  0  0  0  0  0  0
   19.4981  -11.0094  -15.1940 N   0  0  0  0  0  0  0  0  0  0  0  0
   19.8809   -8.6248  -15.3862 C   0  0  0  0  0  0  0  0  0  0  0  0
   18.8205   -8.2323  -14.8341 O   0  0  0  0  0  0  0  0  0  0  0  0
   22.3186   -5.2850  -13.0106 O   0  0  0  0  0  0  0  0  0  0  0  0
   22.2787   -6.4209  -13.8071 C   0  0  0  0  0  0  0  0  0  0  0  0
   20.9624   -6.5207  -14.5539 C   0  0  2  0  0  0  0  0  0  0  0  0
   20.9968   -7.7369  -15.3410 N   0  0  0  0  0  0  0  0  0  0  0  0
   20.8672   -5.3173  -15.4335 C   0  0  0  0  0  0  0  0  0  0  0  0
   21.5808   -5.2040  -16.4611 O   0  0  0  0  0  0  0  0  0  0  0  0
   19.9475   -4.2960  -15.0833 N   0  0  0  0  0  0  0  0  0  0  0  0
   19.8297   -3.1294  -15.9400 C   0  0  0  0  0  0  0  0  0  0  0  0
   18.7438   -2.2533  -15.4216 C   0  0  0  0  0  0  0  0  0  0  0  0
   18.0063   -2.6007  -14.4783 O   0  0  0  0  0  0  0  0  0  0  0  0
   18.5131   -0.9998  -15.9808 O   0  0  0  0  0  0  0  0  0  0  0  0
  2  1  1  6
  2  3  1  0
  4  2  1  0
  4  5  2  0
  6  7  1  0
  8  7  1  6
  8  9  1  0
  9  4  1  0
 10  8  1  0
 11 10  2  0
 12 10  1  0
 13 12  1  0
 14 13  1  0
 14 16  1  0
 15 14  2  0
M  END
$$$$
