ASG.pdb
     RDKit          3D

 16 15  0  0  1  0  0  0  0  0999 V2000
   19.8604  -12.9605  -16.3298 C   0  0  0  0  0  0  0  0  0  0  0  0
   18.6422  -12.0925  -16.5546 C   0  0  2  0  0  0  0  0  0  0  0  0
   17.8728  -12.4991  -17.6866 N   0  0  0  0  0  0  0  0  0  0  0  0
   19.1196  -10.6832  -16.6779 C   0  0  0  0  0  0  0  0  0  0  0  0
   19.7987  -10.3176  -17.6719 O   0  0  0  0  0  0  0  0  0  0  0  0
   17.4528   -7.7810  -14.3259 O   0  0  0  0  0  0  0  0  0  0  0  0
   17.9603   -7.4671  -15.5790 C   0  0  0  0  0  0  0  0  0  0  0  0
   19.1867   -8.3005  -15.8982 C   0  0  2  0  0  0  0  0  0  0  0  0
   18.8364   -9.6914  -15.6919 N   0  0  0  0  0  0  0  0  0  0  0  0
   20.2621   -7.8744  -14.9533 C   0  0  0  0  0  0  0  0  0  0  0  0
   20.4581   -8.4838  -13.8725 O   0  0  0  0  0  0  0  0  0  0  0  0
   21.0649   -6.7586  -15.3029 N   0  0  0  0  0  0  0  0  0  0  0  0
   22.2142   -6.4310  -14.4780 C   0  0  0  0  0  0  0  0  0  0  0  0
   21.8169   -5.4043  -13.4763 C   0  0  0  0  0  0  0  0  0  0  0  0
   20.6464   -4.9840  -13.3876 O   0  0  0  0  0  0  0  0  0  0  0  0
   22.7522   -4.8722  -12.5936 O   0  0  0  0  0  0  0  0  0  0  0  0
  2  1  1  6
  2  3  1  0
  4  2  1  0
  4  5  2  0
  6  7  1  0
  8  7  1  1
  8  9  1  0
  9  4  1  0
 10  8  1  0
 11 10  2  0
 12 10  1  0
 13 12  1  0
 14 13  1  0
 14 16  1  0
 15 14  2  0
M  END
$$$$
