ASG.pdb
     RDKit          3D

 16 15  0  0  1  0  0  0  0  0999 V2000
   15.0718  -11.2202  -10.1379 C   0  0  0  0  0  0  0  0  0  0  0  0
   14.4704   -9.9502   -9.5779 C   0  0  2  0  0  0  0  0  0  0  0  0
   13.0444   -9.9340   -9.6481 N   0  0  0  0  0  0  0  0  0  0  0  0
   15.0814   -8.8070  -10.3189 C   0  0  0  0  0  0  0  0  0  0  0  0
   14.6957   -8.5117  -11.4795 O   0  0  0  0  0  0  0  0  0  0  0  0
   16.7181   -5.7392   -8.4300 O   0  0  0  0  0  0  0  0  0  0  0  0
   16.4281   -5.6282   -9.7827 C   0  0  0  0  0  0  0  0  0  0  0  0
   16.7249   -6.9228  -10.5149 C   0  0  2  0  0  0  0  0  0  0  0  0
   16.1182   -8.0012   -9.7607 N   0  0  0  0  0  0  0  0  0  0  0  0
   18.2106   -7.0698  -10.5569 C   0  0  0  0  0  0  0  0  0  0  0  0
   18.8370   -7.6223   -9.6186 O   0  0  0  0  0  0  0  0  0  0  0  0
   18.9070   -6.5692  -11.6866 N   0  0  0  0  0  0  0  0  0  0  0  0
   20.3383   -6.7924  -11.7882 C   0  0  0  0  0  0  0  0  0  0  0  0
   20.8316   -6.2098  -13.0660 C   0  0  0  0  0  0  0  0  0  0  0  0
   20.0547   -5.8325  -13.9652 O   0  0  0  0  0  0  0  0  0  0  0  0
   22.1956   -6.0651  -13.3021 O   0  0  0  0  0  0  0  0  0  0  0  0
  2  1  1  6
  2  3  1  0
  4  2  1  0
  4  5  2  0
  6  7  1  0
  8  7  1  1
  8  9  1  0
  9  4  1  0
 10  8  1  0
 11 10  2  0
 12 10  1  0
 13 12  1  0
 14 13  1  0
 14 16  1  0
 15 14  2  0
M  END
$$$$
