ASG.pdb
     RDKit          3D

 16 15  0  0  1  0  0  0  0  0999 V2000
   19.3284  -12.3120  -18.4701 C   0  0  0  0  0  0  0  0  0  0  0  0
   20.1365  -11.1656  -17.9037 C   0  0  2  0  0  0  0  0  0  0  0  0
   21.2874  -11.6024  -17.1803 N   0  0  0  0  0  0  0  0  0  0  0  0
   19.2160  -10.3520  -17.0551 C   0  0  0  0  0  0  0  0  0  0  0  0
   18.0267  -10.7152  -16.8634 O   0  0  0  0  0  0  0  0  0  0  0  0
   19.7584   -9.4006  -13.5388 O   0  0  0  0  0  0  0  0  0  0  0  0
   18.5869   -9.3261  -14.2793 C   0  0  0  0  0  0  0  0  0  0  0  0
   18.7637   -8.4395  -15.4971 C   0  0  2  0  0  0  0  0  0  0  0  0
   19.6279   -9.1394  -16.4261 N   0  0  0  0  0  0  0  0  0  0  0  0
   19.3995   -7.1727  -15.0263 C   0  0  0  0  0  0  0  0  0  0  0  0
   18.8255   -6.4260  -14.1950 O   0  0  0  0  0  0  0  0  0  0  0  0
   20.6751   -6.8258  -15.5403 N   0  0  0  0  0  0  0  0  0  0  0  0
   21.2470   -5.5362  -15.1959 C   0  0  0  0  0  0  0  0  0  0  0  0
   22.0282   -5.6716  -13.9363 C   0  0  0  0  0  0  0  0  0  0  0  0
   22.0119   -6.7165  -13.2562 O   0  0  0  0  0  0  0  0  0  0  0  0
   22.8137   -4.6215  -13.4698 O   0  0  0  0  0  0  0  0  0  0  0  0
  2  1  1  1
  2  3  1  0
  4  2  1  0
  4  5  2  0
  6  7  1  0
  8  7  1  1
  8  9  1  0
  9  4  1  0
 10  8  1  0
 11 10  2  0
 12 10  1  0
 13 12  1  0
 14 13  1  0
 14 16  1  0
 15 14  2  0
M  END
$$$$
