ASG.pdb
     RDKit          3D

 16 15  0  0  1  0  0  0  0  0999 V2000
   18.9125  -11.1348  -16.3634 C   0  0  0  0  0  0  0  0  0  0  0  0
   19.4076   -9.9397  -17.1475 C   0  0  2  0  0  0  0  0  0  0  0  0
   20.6506  -10.1846  -17.8059 N   0  0  0  0  0  0  0  0  0  0  0  0
   19.4929   -8.7913  -16.1971 C   0  0  0  0  0  0  0  0  0  0  0  0
   18.4674   -8.3692  -15.6029 O   0  0  0  0  0  0  0  0  0  0  0  0
   22.1366   -6.2334  -13.1559 O   0  0  0  0  0  0  0  0  0  0  0  0
   22.0307   -7.2184  -14.1280 C   0  0  0  0  0  0  0  0  0  0  0  0
   20.7839   -7.0258  -14.9699 C   0  0  2  0  0  0  0  0  0  0  0  0
   20.7211   -8.1216  -15.9160 N   0  0  0  0  0  0  0  0  0  0  0  0
   20.9317   -5.7180  -15.6759 C   0  0  0  0  0  0  0  0  0  0  0  0
   21.6561   -5.6071  -16.6962 O   0  0  0  0  0  0  0  0  0  0  0  0
   20.2322   -4.5936  -15.1679 N   0  0  0  0  0  0  0  0  0  0  0  0
   20.4389   -3.2962  -15.7866 C   0  0  0  0  0  0  0  0  0  0  0  0
   19.5745   -2.2914  -15.1095 C   0  0  0  0  0  0  0  0  0  0  0  0
   18.7419   -2.6135  -14.2391 O   0  0  0  0  0  0  0  0  0  0  0  0
   19.6685   -0.9403  -15.4305 O   0  0  0  0  0  0  0  0  0  0  0  0
  2  1  1  1
  2  3  1  0
  4  2  1  0
  4  5  2  0
  6  7  1  0
  8  7  1  1
  8  9  1  0
  9  4  1  0
 10  8  1  0
 11 10  2  0
 12 10  1  0
 13 12  1  0
 14 13  1  0
 14 16  1  0
 15 14  2  0
M  END
$$$$
