ASG.pdb
     RDKit          3D

 16 15  0  0  1  0  0  0  0  0999 V2000
   20.5443  -10.6459  -19.8056 C   0  0  0  0  0  0  0  0  0  0  0  0
   21.7535  -11.2640  -19.1392 C   0  0  2  0  0  0  0  0  0  0  0  0
   21.5385  -12.6203  -18.7481 N   0  0  0  0  0  0  0  0  0  0  0  0
   22.1115  -10.3956  -17.9787 C   0  0  0  0  0  0  0  0  0  0  0  0
   21.4093  -10.3937  -16.9346 O   0  0  0  0  0  0  0  0  0  0  0  0
   25.3889   -7.7029  -18.0617 O   0  0  0  0  0  0  0  0  0  0  0  0
   25.0704   -8.4152  -16.9139 C   0  0  0  0  0  0  0  0  0  0  0  0
   23.5843   -8.7105  -16.8467 C   0  0  2  0  0  0  0  0  0  0  0  0
   23.2498   -9.5354  -17.9902 N   0  0  0  0  0  0  0  0  0  0  0  0
   22.8750   -7.3976  -16.9091 C   0  0  0  0  0  0  0  0  0  0  0  0
   22.5155   -6.9033  -18.0066 O   0  0  0  0  0  0  0  0  0  0  0  0
   22.6129   -6.7134  -15.6947 N   0  0  0  0  0  0  0  0  0  0  0  0
   21.9352   -5.4299  -15.7408 C   0  0  0  0  0  0  0  0  0  0  0  0
   21.7717   -4.9163  -14.3534 C   0  0  0  0  0  0  0  0  0  0  0  0
   22.1032   -5.5868  -13.3559 O   0  0  0  0  0  0  0  0  0  0  0  0
   21.2359   -3.6530  -14.1209 O   0  0  0  0  0  0  0  0  0  0  0  0
  2  1  1  1
  2  3  1  0
  4  2  1  0
  4  5  2  0
  6  7  1  0
  8  7  1  6
  8  9  1  0
  9  4  1  0
 10  8  1  0
 11 10  2  0
 12 10  1  0
 13 12  1  0
 14 13  1  0
 14 16  1  0
 15 14  2  0
M  END
$$$$
