CPT.pdb
     RDKit          3D

 21 21  0  0  1  0  0  0  0  0999 V2000
    5.6097  -14.4333   26.4557 N   0  0  0  0  0  0  0  0  0  0  0  0
    6.5766  -13.7834   25.6151 C   0  0  1  0  0  0  0  0  0  0  0  0
    7.6696  -13.1083   26.4361 C   0  0  0  0  0  0  0  0  0  0  0  0
    7.0475  -11.4710   26.9577 S   0  0  0  0  0  0  0  0  0  0  0  0
    7.1883  -14.7866   24.7153 C   0  0  0  0  0  0  0  0  0  0  0  0
    7.3611  -15.9714   25.1358 O   0  0  0  0  0  0  0  0  0  0  0  0
    7.5999  -14.4928   23.3838 N   0  0  0  0  0  0  0  0  0  0  0  0
    7.5269  -13.2361   22.6905 C   0  0  0  0  0  0  0  0  0  0  0  0
    8.1022  -13.4561   21.3389 C   0  0  0  0  0  0  0  0  0  0  0  0
    7.9832  -14.9394   21.1089 C   0  0  0  0  0  0  0  0  0  0  0  0
    8.1676  -15.4807   22.5049 C   0  0  1  0  0  0  0  0  0  0  0  0
    9.5597  -15.8220   22.8416 C   0  0  0  0  0  0  0  0  0  0  0  0
   10.3134  -14.9212   23.3005 O   0  0  0  0  0  0  0  0  0  0  0  0
   11.0921  -17.9402   25.4680 C   0  0  0  0  0  0  0  0  0  0  0  0
   11.5694  -18.4373   24.1288 C   0  0  1  0  0  0  0  0  0  0  0  0
   10.8424  -19.5626   23.7619 O   0  0  0  0  0  0  0  0  0  0  0  0
   11.4831  -17.3626   23.0644 C   0  0  2  0  0  0  0  0  0  0  0  0
   10.1158  -17.1136   22.6814 N   0  0  0  0  0  0  0  0  0  0  0  0
   12.3405  -17.6840   21.8918 C   0  0  0  0  0  0  0  0  0  0  0  0
   11.8156  -18.1481   20.8496 O   0  0  0  0  0  0  0  0  0  0  0  0
   13.6996  -17.4876   21.9122 O   0  0  0  0  0  0  0  0  0  0  0  0
  2  1  1  1
  3  2  1  0
  4  3  1  0
  5  7  1  0
  5  2  1  0
  6  5  2  0
  7  8  1  0
  9  8  1  0
 10  9  1  0
 11 10  1  0
 11 12  1  1
 11  7  1  0
 12 18  1  0
 13 12  2  0
 15 14  1  1
 15 16  1  0
 17 15  1  0
 17 18  1  6
 19 17  1  0
 19 21  1  0
 20 19  2  0
M  END
$$$$
