CPT.pdb
     RDKit          3D

 21 21  0  0  1  0  0  0  0  0999 V2000
    5.7855  -16.1047   26.3955 N   0  0  0  0  0  0  0  0  0  0  0  0
    6.2949  -15.0838   25.5225 C   0  0  1  0  0  0  0  0  0  0  0  0
    6.9570  -13.9555   26.3058 C   0  0  0  0  0  0  0  0  0  0  0  0
    5.7981  -12.5428   26.3401 S   0  0  0  0  0  0  0  0  0  0  0  0
    7.2829  -15.6849   24.5991 C   0  0  0  0  0  0  0  0  0  0  0  0
    7.8311  -16.7862   24.9106 O   0  0  0  0  0  0  0  0  0  0  0  0
    7.6587  -15.0880   23.3616 N   0  0  0  0  0  0  0  0  0  0  0  0
    7.2116  -13.8394   22.8081 C   0  0  0  0  0  0  0  0  0  0  0  0
    7.9159  -13.6665   21.5118 C   0  0  0  0  0  0  0  0  0  0  0  0
    8.3206  -15.0592   21.1072 C   0  0  0  0  0  0  0  0  0  0  0  0
    8.5838  -15.7020   22.4464 C   0  0  1  0  0  0  0  0  0  0  0  0
    9.9838  -15.6141   22.8940 C   0  0  0  0  0  0  0  0  0  0  0  0
   10.2546  -14.9243   23.9142 O   0  0  0  0  0  0  0  0  0  0  0  0
   11.0088  -16.9245   25.1159 C   0  0  0  0  0  0  0  0  0  0  0  0
   11.9759  -17.5202   24.1268 C   0  0  1  0  0  0  0  0  0  0  0  0
   11.4826  -18.7332   23.6634 O   0  0  0  0  0  0  0  0  0  0  0  0
   12.2626  -16.5747   22.9783 C   0  0  2  0  0  0  0  0  0  0  0  0
   11.0614  -16.2625   22.2448 N   0  0  0  0  0  0  0  0  0  0  0  0
   13.3359  -17.1000   22.0920 C   0  0  0  0  0  0  0  0  0  0  0  0
   14.5359  -17.0056   22.4499 O   0  0  0  0  0  0  0  0  0  0  0  0
   13.0544  -17.6902   20.8843 O   0  0  0  0  0  0  0  0  0  0  0  0
  2  1  1  1
  3  2  1  0
  4  3  1  0
  5  7  1  0
  5  2  1  0
  6  5  2  0
  7  8  1  0
  9  8  1  0
 10  9  1  0
 11 10  1  0
 11 12  1  1
 11  7  1  0
 12 18  1  0
 13 12  2  0
 15 14  1  1
 15 16  1  0
 17 15  1  0
 17 18  1  6
 19 17  1  0
 19 21  1  0
 20 19  2  0
M  END
$$$$
