CPT.pdb
     RDKit          3D

 21 21  0  0  1  0  0  0  0  0999 V2000
    6.8425  -17.5686   17.3646 N   0  0  0  0  0  0  0  0  0  0  0  0
    6.4718  -17.0708   18.6602 C   0  0  1  0  0  0  0  0  0  0  0  0
    5.8788  -18.1701   19.5345 C   0  0  0  0  0  0  0  0  0  0  0  0
    5.3903  -17.4169   21.1264 S   0  0  0  0  0  0  0  0  0  0  0  0
    7.6693  -16.5091   19.3240 C   0  0  0  0  0  0  0  0  0  0  0  0
    8.7468  -17.1795   19.3272 O   0  0  0  0  0  0  0  0  0  0  0  0
    7.6808  -15.2392   19.9690 N   0  0  0  0  0  0  0  0  0  0  0  0
    6.6032  -14.2958   20.0878 C   0  0  0  0  0  0  0  0  0  0  0  0
    7.1241  -13.1432   20.8666 C   0  0  0  0  0  0  0  0  0  0  0  0
    8.6189  -13.2124   20.6995 C   0  0  0  0  0  0  0  0  0  0  0  0
    8.8482  -14.7012   20.6156 C   0  0  1  0  0  0  0  0  0  0  0  0
    9.1391  -15.3415   21.9092 C   0  0  0  0  0  0  0  0  0  0  0  0
    8.2051  -15.4760   22.7456 O   0  0  0  0  0  0  0  0  0  0  0  0
    9.5814  -18.6412   22.6435 C   0  0  0  0  0  0  0  0  0  0  0  0
   10.7830  -18.0119   23.2982 C   0  0  1  0  0  0  0  0  0  0  0  0
   11.9143  -18.2538   22.5295 O   0  0  0  0  0  0  0  0  0  0  0  0
   10.5879  -16.5270   23.5273 C   0  0  2  0  0  0  0  0  0  0  0  0
   10.4171  -15.8229   22.2811 N   0  0  0  0  0  0  0  0  0  0  0  0
   11.6878  -15.9507   24.3467 C   0  0  0  0  0  0  0  0  0  0  0  0
   11.8021  -16.2841   25.5521 O   0  0  0  0  0  0  0  0  0  0  0  0
   12.5905  -15.0580   23.8230 O   0  0  0  0  0  0  0  0  0  0  0  0
  2  1  1  6
  3  2  1  0
  4  3  1  0
  5  7  1  0
  5  2  1  0
  6  5  2  0
  7  8  1  0
  9  8  1  0
 10  9  1  0
 11 10  1  0
 11 12  1  1
 11  7  1  0
 12 18  1  0
 13 12  2  0
 15 14  1  6
 15 16  1  0
 17 15  1  0
 17 18  1  6
 19 17  1  0
 19 21  1  0
 20 19  2  0
M  END
$$$$
