CPT.pdb
     RDKit          3D

 21 21  0  0  1  0  0  0  0  0999 V2000
    8.2235  -14.1977   21.3086 N   0  0  0  0  0  0  0  0  0  0  0  0
    7.4433  -14.5138   22.4727 C   0  0  1  0  0  0  0  0  0  0  0  0
    6.9252  -15.9471   22.4280 C   0  0  0  0  0  0  0  0  0  0  0  0
    5.5288  -16.0010   21.2502 S   0  0  0  0  0  0  0  0  0  0  0  0
    8.2795  -14.3324   23.6802 C   0  0  0  0  0  0  0  0  0  0  0  0
    9.5066  -14.6532   23.6371 O   0  0  0  0  0  0  0  0  0  0  0  0
    7.7771  -13.8099   24.9063 N   0  0  0  0  0  0  0  0  0  0  0  0
    6.4521  -13.3303   25.1885 C   0  0  0  0  0  0  0  0  0  0  0  0
    6.4395  -12.9147   26.6144 C   0  0  0  0  0  0  0  0  0  0  0  0
    7.8842  -12.6572   26.9512 C   0  0  0  0  0  0  0  0  0  0  0  0
    8.5852  -13.6782   26.0895 C   0  0  1  0  0  0  0  0  0  0  0  0
    8.8397  -14.9633   26.7615 C   0  0  0  0  0  0  0  0  0  0  0  0
    7.9313  -15.8378   26.7671 O   0  0  0  0  0  0  0  0  0  0  0  0
   11.7774  -18.6374   27.6836 C   0  0  0  0  0  0  0  0  0  0  0  0
   11.5214  -17.2284   27.2170 C   0  0  1  0  0  0  0  0  0  0  0  0
   11.4106  -17.2075   25.8326 O   0  0  0  0  0  0  0  0  0  0  0  0
   10.2915  -16.6322   27.8705 C   0  0  2  0  0  0  0  0  0  0  0  0
   10.0549  -15.2863   27.4114 N   0  0  0  0  0  0  0  0  0  0  0  0
   10.3687  -16.7091   29.3543 C   0  0  0  0  0  0  0  0  0  0  0  0
   10.6172  -15.6711   30.0161 O   0  0  0  0  0  0  0  0  0  0  0  0
   10.1754  -17.8891   30.0299 O   0  0  0  0  0  0  0  0  0  0  0  0
  2  1  1  6
  3  2  1  0
  4  3  1  0
  5  7  1  0
  5  2  1  0
  6  5  2  0
  7  8  1  0
  9  8  1  0
 10  9  1  0
 11 10  1  0
 11 12  1  1
 11  7  1  0
 12 18  1  0
 13 12  2  0
 15 14  1  1
 15 16  1  0
 17 15  1  0
 17 18  1  1
 19 17  1  0
 19 21  1  0
 20 19  2  0
M  END
$$$$
