CPT.pdb
     RDKit          3D

 21 21  0  0  1  0  0  0  0  0999 V2000
    7.4307  -19.4713   22.2333 N   0  0  0  0  0  0  0  0  0  0  0  0
    6.7562  -18.2248   22.4681 C   0  0  1  0  0  0  0  0  0  0  0  0
    5.9437  -18.2612   23.7577 C   0  0  0  0  0  0  0  0  0  0  0  0
    7.0925  -18.6194   25.1332 S   0  0  0  0  0  0  0  0  0  0  0  0
    7.7590  -17.1396   22.5510 C   0  0  0  0  0  0  0  0  0  0  0  0
    8.9622  -17.4289   22.8321 O   0  0  0  0  0  0  0  0  0  0  0  0
    7.4450  -15.7680   22.3297 N   0  0  0  0  0  0  0  0  0  0  0  0
    6.1707  -15.1933   21.9962 C   0  0  0  0  0  0  0  0  0  0  0  0
    6.3741  -13.7254   21.8941 C   0  0  0  0  0  0  0  0  0  0  0  0
    7.8477  -13.5603   21.6331 C   0  0  0  0  0  0  0  0  0  0  0  0
    8.4267  -14.7188   22.4069 C   0  0  1  0  0  0  0  0  0  0  0  0
    8.8130  -14.3894   23.7890 C   0  0  0  0  0  0  0  0  0  0  0  0
    9.2910  -13.2481   24.0319 O   0  0  0  0  0  0  0  0  0  0  0  0
    7.8388  -12.5579   25.5519 C   0  0  0  0  0  0  0  0  0  0  0  0
    7.6962  -13.7312   26.4855 C   0  0  1  0  0  0  0  0  0  0  0  0
    6.4191  -14.2656   26.3727 O   0  0  0  0  0  0  0  0  0  0  0  0
    8.7525  -14.7869   26.2305 C   0  0  2  0  0  0  0  0  0  0  0  0
    8.6815  -15.2829   24.8788 N   0  0  0  0  0  0  0  0  0  0  0  0
    8.6810  -15.8853   27.2314 C   0  0  0  0  0  0  0  0  0  0  0  0
    8.8688  -15.6290   28.4464 O   0  0  0  0  0  0  0  0  0  0  0  0
    8.4138  -17.1820   26.8667 O   0  0  0  0  0  0  0  0  0  0  0  0
  2  1  1  1
  3  2  1  0
  4  3  1  0
  5  7  1  0
  5  2  1  0
  6  5  2  0
  7  8  1  0
  9  8  1  0
 10  9  1  0
 11 10  1  0
 11 12  1  1
 11  7  1  0
 12 18  1  0
 13 12  2  0
 15 14  1  6
 15 16  1  0
 17 15  1  0
 17 18  1  6
 19 17  1  0
 19 21  1  0
 20 19  2  0
M  END
$$$$
