CPT.pdb
     RDKit          3D

 21 21  0  0  1  0  0  0  0  0999 V2000
    8.3804  -14.4017   21.3332 N   0  0  0  0  0  0  0  0  0  0  0  0
    7.5303  -14.5256   22.4846 C   0  0  1  0  0  0  0  0  0  0  0  0
    6.8611  -15.8944   22.5426 C   0  0  0  0  0  0  0  0  0  0  0  0
    5.3527  -15.8241   21.5131 S   0  0  0  0  0  0  0  0  0  0  0  0
    8.3386  -14.3230   23.7076 C   0  0  0  0  0  0  0  0  0  0  0  0
    9.5475  -14.7089   23.7214 O   0  0  0  0  0  0  0  0  0  0  0  0
    7.8286  -13.7098   24.8876 N   0  0  0  0  0  0  0  0  0  0  0  0
    6.5371  -13.1124   25.0887 C   0  0  0  0  0  0  0  0  0  0  0  0
    6.4970  -12.6371   26.4954 C   0  0  0  0  0  0  0  0  0  0  0  0
    7.9421  -12.4841   26.8892 C   0  0  0  0  0  0  0  0  0  0  0  0
    8.5926  -13.5943   26.1015 C   0  0  1  0  0  0  0  0  0  0  0  0
    8.7097  -14.8663   26.8339 C   0  0  0  0  0  0  0  0  0  0  0  0
    7.6712  -15.5543   27.0290 O   0  0  0  0  0  0  0  0  0  0  0  0
   10.1979  -17.8938   25.8411 C   0  0  0  0  0  0  0  0  0  0  0  0
   10.7690  -17.6638   27.2157 C   0  0  1  0  0  0  0  0  0  0  0  0
   12.0950  -17.2637   27.1099 O   0  0  0  0  0  0  0  0  0  0  0  0
    9.9572  -16.6553   28.0025 C   0  0  2  0  0  0  0  0  0  0  0  0
    9.9294  -15.3749   27.3409 N   0  0  0  0  0  0  0  0  0  0  0  0
   10.4339  -16.5461   29.4076 C   0  0  0  0  0  0  0  0  0  0  0  0
   10.9070  -15.4576   29.8182 O   0  0  0  0  0  0  0  0  0  0  0  0
   10.3729  -17.6066   30.2781 O   0  0  0  0  0  0  0  0  0  0  0  0
  2  1  1  6
  3  2  1  0
  4  3  1  0
  5  7  1  0
  5  2  1  0
  6  5  2  0
  7  8  1  0
  9  8  1  0
 10  9  1  0
 11 10  1  0
 11 12  1  1
 11  7  1  0
 12 18  1  0
 13 12  2  0
 15 14  1  6
 15 16  1  0
 17 15  1  0
 17 18  1  6
 19 17  1  0
 19 21  1  0
 20 19  2  0
M  END
$$$$
