DCL.pdb
     RDKit          3D

 23 22  0  0  1  0  0  0  0  0999 V2000
   10.1886  -18.5636   20.4086 N   0  0  0  0  0  0  0  0  0  0  0  0
    9.4373  -17.4539   19.7592 C   0  0  1  0  0  0  0  0  0  0  0  0
    8.8171  -18.0477   18.5392 C   0  0  0  0  0  0  0  0  0  0  0  0
    8.6914  -17.0796   17.4636 C   0  0  0  0  0  0  0  0  0  0  0  0
    9.2808  -15.9860   17.4890 O   0  0  0  0  0  0  0  0  0  0  0  0
    8.3797  -17.0734   20.7626 C   0  0  0  0  0  0  0  0  0  0  0  0
    7.2832  -16.6427   20.3764 O   0  0  0  0  0  0  0  0  0  0  0  0
    7.8976  -17.3258   16.3369 O   0  0  0  0  0  0  0  0  0  0  0  0
    8.5989  -17.1930   22.1658 N   0  0  0  0  0  0  0  0  0  0  0  0
    7.6352  -16.7659   23.1585 C   0  0  1  0  0  0  0  0  0  0  0  0
    7.0118  -17.9428   23.8807 C   0  0  0  0  0  0  0  0  0  0  0  0
    8.3549  -19.0088   24.4404 S   0  0  0  0  0  0  0  0  0  0  0  0
    8.4193  -16.0142   24.2060 C   0  0  0  0  0  0  0  0  0  0  0  0
    9.6808  -16.1164   24.1702 O   0  0  0  0  0  0  0  0  0  0  0  0
    5.8421  -11.9155   26.6622 C   0  0  0  0  0  0  0  0  0  0  0  0
    6.8991  -12.6823   25.9677 C   0  0  1  0  0  0  0  0  0  0  0  0
    7.5684  -11.8282   24.8694 C   0  0  0  0  0  0  0  0  0  0  0  0
    7.9166  -13.3958   26.7354 C   0  0  0  0  0  0  0  0  0  0  0  0
    8.6728  -14.5404   26.1859 C   0  0  2  0  0  0  0  0  0  0  0  0
    7.8250  -15.2349   25.1824 N   0  0  0  0  0  0  0  0  0  0  0  0
    9.0504  -15.5938   27.1380 C   0  0  0  0  0  0  0  0  0  0  0  0
    8.6343  -16.9182   27.0693 O   0  0  0  0  0  0  0  0  0  0  0  0
    9.8192  -15.2860   28.1205 O   0  0  0  0  0  0  0  0  0  0  0  0
  2  1  1  1
  2  3  1  0
  3  4  1  0
  4  8  1  0
  5  4  2  0
  6  2  1  0
  7  6  2  0
  9  6  1  0
 10 13  1  0
 10  9  1  0
 10 11  1  1
 12 11  1  0
 13 20  1  0
 14 13  2  0
 16 15  1  1
 16 17  1  0
 18 16  1  0
 19 18  1  1
 20 19  1  0
 21 19  1  0
 21 22  1  0
 23 21  2  0
M  END
$$$$
