DCL.pdb
     RDKit          3D

 23 22  0  0  1  0  0  0  0  0999 V2000
    8.0983  -18.7099   19.3393 N   0  0  0  0  0  0  0  0  0  0  0  0
    8.7680  -17.5254   19.9443 C   0  0  1  0  0  0  0  0  0  0  0  0
    8.5733  -16.4120   18.9706 C   0  0  0  0  0  0  0  0  0  0  0  0
    9.5579  -16.4411   17.9031 C   0  0  0  0  0  0  0  0  0  0  0  0
    9.2580  -16.1936   16.7229 O   0  0  0  0  0  0  0  0  0  0  0  0
    8.0001  -17.2627   21.2138 C   0  0  0  0  0  0  0  0  0  0  0  0
    6.8028  -16.9451   21.1613 O   0  0  0  0  0  0  0  0  0  0  0  0
   10.9017  -16.7505   18.1456 O   0  0  0  0  0  0  0  0  0  0  0  0
    8.6123  -17.3679   22.4965 N   0  0  0  0  0  0  0  0  0  0  0  0
    7.8717  -17.2869   23.7380 C   0  0  1  0  0  0  0  0  0  0  0  0
    7.8667  -18.6090   24.4779 C   0  0  0  0  0  0  0  0  0  0  0  0
    7.0142  -18.3494   26.0462 S   0  0  0  0  0  0  0  0  0  0  0  0
    8.6365  -16.3300   24.6193 C   0  0  0  0  0  0  0  0  0  0  0  0
    9.8994  -16.4193   24.6130 O   0  0  0  0  0  0  0  0  0  0  0  0
    6.1147  -11.8014   26.4012 C   0  0  0  0  0  0  0  0  0  0  0  0
    7.1803  -12.6804   25.8725 C   0  0  1  0  0  0  0  0  0  0  0  0
    8.0142  -11.9503   24.7976 C   0  0  0  0  0  0  0  0  0  0  0  0
    8.0635  -13.3995   26.7871 C   0  0  0  0  0  0  0  0  0  0  0  0
    8.8367  -14.5903   26.3771 C   0  0  2  0  0  0  0  0  0  0  0  0
    8.0233  -15.3799   25.4164 N   0  0  0  0  0  0  0  0  0  0  0  0
    9.1793  -15.5463   27.4389 C   0  0  0  0  0  0  0  0  0  0  0  0
    8.7450  -16.8654   27.4958 O   0  0  0  0  0  0  0  0  0  0  0  0
    9.9328  -15.1502   28.4015 O   0  0  0  0  0  0  0  0  0  0  0  0
  2  1  1  6
  2  3  1  0
  3  4  1  0
  4  8  1  0
  5  4  2  0
  6  2  1  0
  7  6  2  0
  9  6  1  0
 10 13  1  0
 10  9  1  0
 10 11  1  1
 12 11  1  0
 13 20  1  0
 14 13  2  0
 16 15  1  1
 16 17  1  0
 18 16  1  0
 19 18  1  1
 20 19  1  0
 21 19  1  0
 21 22  1  0
 23 21  2  0
M  END
$$$$
