DCL.pdb
     RDKit          3D

 23 22  0  0  1  0  0  0  0  0999 V2000
    8.4281  -18.9916   19.4874 N   0  0  0  0  0  0  0  0  0  0  0  0
    8.3176  -17.5079   19.5496 C   0  0  1  0  0  0  0  0  0  0  0  0
    7.5198  -17.1132   18.3523 C   0  0  0  0  0  0  0  0  0  0  0  0
    8.3190  -17.1114   17.1394 C   0  0  0  0  0  0  0  0  0  0  0  0
    9.5285  -17.3961   17.1466 O   0  0  0  0  0  0  0  0  0  0  0  0
    7.5467  -17.2375   20.8156 C   0  0  0  0  0  0  0  0  0  0  0  0
    6.3336  -16.9876   20.7630 O   0  0  0  0  0  0  0  0  0  0  0  0
    7.7695  -16.7881   15.8929 O   0  0  0  0  0  0  0  0  0  0  0  0
    8.1740  -17.2591   22.0952 N   0  0  0  0  0  0  0  0  0  0  0  0
    7.4426  -17.1411   23.3393 C   0  0  1  0  0  0  0  0  0  0  0  0
    7.2009  -18.4922   23.9806 C   0  0  0  0  0  0  0  0  0  0  0  0
    6.3351  -18.2065   25.5371 S   0  0  0  0  0  0  0  0  0  0  0  0
    8.3494  -16.3963   24.2881 C   0  0  0  0  0  0  0  0  0  0  0  0
    9.5962  -16.5728   24.1572 O   0  0  0  0  0  0  0  0  0  0  0  0
    6.2043  -12.0179   26.8847 C   0  0  0  0  0  0  0  0  0  0  0  0
    7.1516  -12.8457   26.1068 C   0  0  1  0  0  0  0  0  0  0  0  0
    7.8560  -12.0039   25.0209 C   0  0  0  0  0  0  0  0  0  0  0  0
    8.1247  -13.6925   26.7921 C   0  0  0  0  0  0  0  0  0  0  0  0
    8.8451  -14.7895   26.1127 C   0  0  2  0  0  0  0  0  0  0  0  0
    7.8800  -15.5466   25.2739 N   0  0  0  0  0  0  0  0  0  0  0  0
    9.4551  -15.8077   26.9785 C   0  0  0  0  0  0  0  0  0  0  0  0
   10.5655  -15.6047   27.7894 O   0  0  0  0  0  0  0  0  0  0  0  0
    8.9407  -16.9852   26.9973 O   0  0  0  0  0  0  0  0  0  0  0  0
  2  1  1  6
  2  3  1  0
  3  4  1  0
  4  8  1  0
  5  4  2  0
  6  2  1  0
  7  6  2  0
  9  6  1  0
 10 13  1  0
 10  9  1  0
 10 11  1  1
 12 11  1  0
 13 20  1  0
 14 13  2  0
 16 15  1  1
 16 17  1  0
 18 16  1  0
 19 18  1  1
 20 19  1  0
 21 19  1  0
 21 22  1  0
 23 21  2  0
M  END
$$$$
