DCL.pdb
     RDKit          3D

 23 22  0  0  1  0  0  0  0  0999 V2000
    7.8217  -14.5614   19.4939 N   0  0  0  0  0  0  0  0  0  0  0  0
    7.5771  -15.5271   20.6008 C   0  0  1  0  0  0  0  0  0  0  0  0
    8.3714  -16.7423   20.2575 C   0  0  0  0  0  0  0  0  0  0  0  0
    7.7891  -17.4812   19.1507 C   0  0  0  0  0  0  0  0  0  0  0  0
    6.5651  -17.4926   18.9373 O   0  0  0  0  0  0  0  0  0  0  0  0
    8.1395  -14.8518   21.8247 C   0  0  0  0  0  0  0  0  0  0  0  0
    9.1917  -14.2007   21.7468 O   0  0  0  0  0  0  0  0  0  0  0  0
    8.5765  -18.2227   18.2617 O   0  0  0  0  0  0  0  0  0  0  0  0
    7.4933  -14.9364   23.0921 N   0  0  0  0  0  0  0  0  0  0  0  0
    7.9997  -14.2913   24.2854 C   0  0  1  0  0  0  0  0  0  0  0  0
    6.8869  -13.6714   25.1057 C   0  0  0  0  0  0  0  0  0  0  0  0
    5.7767  -15.0020   25.6065 S   0  0  0  0  0  0  0  0  0  0  0  0
    8.5739  -15.3915   25.1438 C   0  0  0  0  0  0  0  0  0  0  0  0
    8.7286  -16.5266   24.6046 O   0  0  0  0  0  0  0  0  0  0  0  0
   10.3749  -13.7314   30.0417 C   0  0  0  0  0  0  0  0  0  0  0  0
   10.5934  -14.3892   28.7351 C   0  0  1  0  0  0  0  0  0  0  0  0
   12.0717  -14.2791   28.3032 C   0  0  0  0  0  0  0  0  0  0  0  0
   10.1045  -15.7458   28.5023 C   0  0  0  0  0  0  0  0  0  0  0  0
    9.7455  -16.2439   27.1581 C   0  0  2  0  0  0  0  0  0  0  0  0
    8.9299  -15.2108   26.4684 N   0  0  0  0  0  0  0  0  0  0  0  0
    8.9179  -17.4569   27.1084 C   0  0  0  0  0  0  0  0  0  0  0  0
    9.3816  -18.7489   27.3265 O   0  0  0  0  0  0  0  0  0  0  0  0
    7.6676  -17.3359   26.8379 O   0  0  0  0  0  0  0  0  0  0  0  0
  2  1  1  6
  2  3  1  0
  3  4  1  0
  4  8  1  0
  5  4  2  0
  6  2  1  0
  7  6  2  0
  9  6  1  0
 10 13  1  0
 10  9  1  0
 10 11  1  1
 12 11  1  0
 13 20  1  0
 14 13  2  0
 16 15  1  1
 16 17  1  0
 18 16  1  0
 19 18  1  1
 20 19  1  0
 21 19  1  0
 21 22  1  0
 23 21  2  0
M  END
$$$$
