DCL.pdb
     RDKit          3D

 23 22  0  0  1  0  0  0  0  0999 V2000
    8.0889  -18.7360   19.3263 N   0  0  0  0  0  0  0  0  0  0  0  0
    8.2831  -17.2635   19.4347 C   0  0  1  0  0  0  0  0  0  0  0  0
    7.6735  -16.6854   18.2019 C   0  0  0  0  0  0  0  0  0  0  0  0
    8.4355  -17.0140   17.0097 C   0  0  0  0  0  0  0  0  0  0  0  0
    9.6329  -16.7054   16.8869 O   0  0  0  0  0  0  0  0  0  0  0  0
    7.4945  -16.8656   20.6553 C   0  0  0  0  0  0  0  0  0  0  0  0
    6.3649  -16.3700   20.5309 O   0  0  0  0  0  0  0  0  0  0  0  0
    7.8616  -17.6977   15.9310 O   0  0  0  0  0  0  0  0  0  0  0  0
    8.0102  -17.0419   21.9722 N   0  0  0  0  0  0  0  0  0  0  0  0
    7.2686  -16.6976   23.1672 C   0  0  1  0  0  0  0  0  0  0  0  0
    6.7932  -17.9300   23.9094 C   0  0  0  0  0  0  0  0  0  0  0  0
    8.2100  -19.0308   24.0957 S   0  0  0  0  0  0  0  0  0  0  0  0
    8.2528  -16.0212   24.0897 C   0  0  0  0  0  0  0  0  0  0  0  0
    9.4833  -16.2358   23.8826 O   0  0  0  0  0  0  0  0  0  0  0  0
    6.7147  -11.9423   27.5862 C   0  0  0  0  0  0  0  0  0  0  0  0
    7.1073  -12.7438   26.4068 C   0  0  1  0  0  0  0  0  0  0  0  0
    6.5492  -12.1230   25.1079 C   0  0  0  0  0  0  0  0  0  0  0  0
    8.5008  -13.1371   26.2141 C   0  0  0  0  0  0  0  0  0  0  0  0
    8.9073  -14.5362   25.9667 C   0  0  2  0  0  0  0  0  0  0  0  0
    7.8699  -15.1937   25.1301 N   0  0  0  0  0  0  0  0  0  0  0  0
    9.0280  -15.4019   27.1476 C   0  0  0  0  0  0  0  0  0  0  0  0
    8.2829  -16.5535   27.3727 O   0  0  0  0  0  0  0  0  0  0  0  0
    9.8783  -15.0840   28.0571 O   0  0  0  0  0  0  0  0  0  0  0  0
  2  1  1  6
  2  3  1  0
  3  4  1  0
  4  8  1  0
  5  4  2  0
  6  2  1  0
  7  6  2  0
  9  6  1  0
 10 13  1  0
 10  9  1  0
 10 11  1  1
 12 11  1  0
 13 20  1  0
 14 13  2  0
 16 15  1  1
 16 17  1  0
 18 16  1  0
 19 18  1  1
 20 19  1  0
 21 19  1  0
 21 22  1  0
 23 21  2  0
M  END
$$$$
