DCL.pdb
     RDKit          3D

 23 22  0  0  1  0  0  0  0  0999 V2000
    9.5475  -18.8983   20.7978 N   0  0  0  0  0  0  0  0  0  0  0  0
   10.5767  -17.8432   20.5855 C   0  0  1  0  0  0  0  0  0  0  0  0
   11.1649  -18.1191   19.2426 C   0  0  0  0  0  0  0  0  0  0  0  0
   12.2800  -19.0471   19.3146 C   0  0  0  0  0  0  0  0  0  0  0  0
   13.0703  -19.0547   20.2734 O   0  0  0  0  0  0  0  0  0  0  0  0
    9.7995  -16.5525   20.5713 C   0  0  0  0  0  0  0  0  0  0  0  0
    9.7025  -15.8972   19.5233 O   0  0  0  0  0  0  0  0  0  0  0  0
   12.5264  -19.9859   18.3055 O   0  0  0  0  0  0  0  0  0  0  0  0
    9.1602  -16.0485   21.7412 N   0  0  0  0  0  0  0  0  0  0  0  0
    8.2788  -14.8998   21.7311 C   0  0  1  0  0  0  0  0  0  0  0  0
    6.9497  -15.2157   21.0759 C   0  0  0  0  0  0  0  0  0  0  0  0
    6.1490  -16.4953   22.0634 S   0  0  0  0  0  0  0  0  0  0  0  0
    7.9603  -14.6046   23.1763 C   0  0  0  0  0  0  0  0  0  0  0  0
    7.2481  -13.5857   23.4166 O   0  0  0  0  0  0  0  0  0  0  0  0
    8.1949  -11.6118   26.2090 C   0  0  0  0  0  0  0  0  0  0  0  0
    7.4428  -12.7831   26.7090 C   0  0  1  0  0  0  0  0  0  0  0  0
    6.0175  -12.3782   27.1436 C   0  0  0  0  0  0  0  0  0  0  0  0
    7.3956  -14.0165   25.9279 C   0  0  0  0  0  0  0  0  0  0  0  0
    8.6096  -14.7770   25.5649 C   0  0  2  0  0  0  0  0  0  0  0  0
    8.4073  -15.3878   24.2254 N   0  0  0  0  0  0  0  0  0  0  0  0
    8.9583  -15.9087   26.4345 C   0  0  0  0  0  0  0  0  0  0  0  0
    9.8615  -15.8559   27.4896 O   0  0  0  0  0  0  0  0  0  0  0  0
    8.4005  -17.0454   26.2154 O   0  0  0  0  0  0  0  0  0  0  0  0
  2  1  1  6
  2  3  1  0
  3  4  1  0
  4  8  1  0
  5  4  2  0
  6  2  1  0
  7  6  2  0
  9  6  1  0
 10 13  1  0
 10  9  1  0
 10 11  1  6
 12 11  1  0
 13 20  1  0
 14 13  2  0
 16 15  1  6
 16 17  1  0
 18 16  1  0
 19 18  1  1
 20 19  1  0
 21 19  1  0
 21 22  1  0
 23 21  2  0
M  END
$$$$
