DCL.pdb
     RDKit          3D

 23 22  0  0  1  0  0  0  0  0999 V2000
    9.8558  -18.4997   20.5322 N   0  0  0  0  0  0  0  0  0  0  0  0
    9.0679  -17.3137   20.0962 C   0  0  1  0  0  0  0  0  0  0  0  0
    8.3416  -17.7431   18.8659 C   0  0  0  0  0  0  0  0  0  0  0  0
    9.2309  -17.8779   17.7253 C   0  0  0  0  0  0  0  0  0  0  0  0
    9.6693  -16.8907   17.1111 O   0  0  0  0  0  0  0  0  0  0  0  0
    8.1016  -17.0642   21.2250 C   0  0  0  0  0  0  0  0  0  0  0  0
    6.9973  -16.5498   20.9952 O   0  0  0  0  0  0  0  0  0  0  0  0
    9.6438  -19.1300   17.2542 O   0  0  0  0  0  0  0  0  0  0  0  0
    8.4177  -17.4046   22.5724 N   0  0  0  0  0  0  0  0  0  0  0  0
    7.5299  -17.1427   23.6859 C   0  0  1  0  0  0  0  0  0  0  0  0
    7.2953  -18.3837   24.5228 C   0  0  0  0  0  0  0  0  0  0  0  0
    8.9084  -19.1017   24.8918 S   0  0  0  0  0  0  0  0  0  0  0  0
    8.2613  -16.1771   24.5857 C   0  0  0  0  0  0  0  0  0  0  0  0
    9.5185  -16.1019   24.4553 O   0  0  0  0  0  0  0  0  0  0  0  0
    7.6205  -12.0952   24.7274 C   0  0  0  0  0  0  0  0  0  0  0  0
    7.4030  -12.1541   26.1892 C   0  0  1  0  0  0  0  0  0  0  0  0
    6.0605  -11.4956   26.5737 C   0  0  0  0  0  0  0  0  0  0  0  0
    7.5648  -13.4155   26.9079 C   0  0  0  0  0  0  0  0  0  0  0  0
    8.4282  -14.5087   26.4147 C   0  0  2  0  0  0  0  0  0  0  0  0
    7.6243  -15.3883   25.5269 N   0  0  0  0  0  0  0  0  0  0  0  0
    8.9785  -15.4176   27.4295 C   0  0  0  0  0  0  0  0  0  0  0  0
    8.6066  -16.7463   27.5968 O   0  0  0  0  0  0  0  0  0  0  0  0
    9.8692  -14.9667   28.2386 O   0  0  0  0  0  0  0  0  0  0  0  0
  2  1  1  1
  2  3  1  0
  3  4  1  0
  4  8  1  0
  5  4  2  0
  6  2  1  0
  7  6  2  0
  9  6  1  0
 10 13  1  0
 10  9  1  0
 10 11  1  1
 12 11  1  0
 13 20  1  0
 14 13  2  0
 16 15  1  6
 16 17  1  0
 18 16  1  0
 19 18  1  1
 20 19  1  0
 21 19  1  0
 21 22  1  0
 23 21  2  0
M  END
$$$$
