NWG.pdb
     RDKit          3D

 27 28  0  0  1  0  0  0  0  0999 V2000
    7.6777  -15.8090   17.9153 N   0  0  0  0  0  0  0  0  0  0  0  0
    7.1914  -16.3050   19.1481 C   0  0  0  0  0  0  0  0  0  0  0  0
    6.3550  -17.2321   19.1782 O   0  0  0  0  0  0  0  0  0  0  0  0
    7.6802  -15.7192   20.4094 C   0  0  0  0  0  0  0  0  0  0  0  0
    8.8356  -16.5580   20.9317 C   0  0  2  0  0  0  0  0  0  0  0  0
    8.2261  -17.8344   21.3280 N   0  0  0  0  0  0  0  0  0  0  0  0
    9.3207  -15.8938   22.1569 C   0  0  0  0  0  0  0  0  0  0  0  0
    9.7400  -14.7015   22.1389 O   0  0  0  0  0  0  0  0  0  0  0  0
    9.3313  -16.5920   23.4226 N   0  0  0  0  0  0  0  0  0  0  0  0
    9.9869  -16.0292   24.5596 C   0  0  1  0  0  0  0  0  0  0  0  0
    9.1875  -15.8850   25.7917 C   0  0  0  0  0  0  0  0  0  0  0  0
    7.8500  -15.3299   25.7000 C   0  0  0  0  0  0  0  0  0  0  0  0
    6.6410  -15.9319   25.4485 C   0  0  0  0  0  0  0  0  0  0  0  0
    5.6531  -14.9923   25.4655 N   0  0  0  0  0  0  0  0  0  0  0  0
    6.2270  -13.8118   25.7241 C   0  0  0  0  0  0  0  0  0  0  0  0
    5.7133  -12.5201   25.8604 C   0  0  0  0  0  0  0  0  0  0  0  0
    6.5112  -11.4300   26.1369 C   0  0  0  0  0  0  0  0  0  0  0  0
    7.8701  -11.6134   26.2860 C   0  0  0  0  0  0  0  0  0  0  0  0
    8.3838  -12.8817   26.1533 C   0  0  0  0  0  0  0  0  0  0  0  0
    7.5665  -13.9879   25.8719 C   0  0  0  0  0  0  0  0  0  0  0  0
   11.3314  -16.6538   24.7982 C   0  0  0  0  0  0  0  0  0  0  0  0
   11.4882  -17.3047   25.8542 O   0  0  0  0  0  0  0  0  0  0  0  0
   12.4197  -16.5471   23.9025 N   0  0  0  0  0  0  0  0  0  0  0  0
   13.7424  -17.0568   24.1531 C   0  0  0  0  0  0  0  0  0  0  0  0
   14.6932  -16.7799   23.0745 C   0  0  0  0  0  0  0  0  0  0  0  0
   15.1881  -15.5126   22.8888 O   0  0  0  0  0  0  0  0  0  0  0  0
   15.0556  -17.7002   22.3195 O   0  0  0  0  0  0  0  0  0  0  0  0
  2  1  1  0
  3  2  2  0
  4  2  1  0
  5  4  1  0
  5  7  1  0
  5  6  1  1
  7  8  2  0
  9  7  1  0
  9 10  1  0
 10 11  1  1
 12 11  1  0
 12 20  1  0
 13 14  1  0
 13 12  2  0
 14 15  1  0
 15 16  1  0
 15 20  2  0
 16 17  2  0
 17 18  1  0
 19 18  2  0
 20 19  1  0
 21 10  1  0
 21 22  2  0
 23 21  1  0
 24 23  1  0
 25 24  1  0
 26 25  1  0
 27 25  2  0
M  END
$$$$
