NWG.pdb
     RDKit          3D

 27 28  0  0  1  0  0  0  0  0999 V2000
    6.2183  -17.2319   19.2871 N   0  0  0  0  0  0  0  0  0  0  0  0
    7.3340  -16.3635   19.2279 C   0  0  0  0  0  0  0  0  0  0  0  0
    7.9298  -16.1619   18.1489 O   0  0  0  0  0  0  0  0  0  0  0  0
    7.7953  -15.6902   20.4555 C   0  0  0  0  0  0  0  0  0  0  0  0
    9.0768  -16.3533   20.9342 C   0  0  2  0  0  0  0  0  0  0  0  0
    8.7041  -17.7500   21.1949 N   0  0  0  0  0  0  0  0  0  0  0  0
    9.4171  -15.7314   22.2283 C   0  0  0  0  0  0  0  0  0  0  0  0
    9.6938  -14.5012   22.3165 O   0  0  0  0  0  0  0  0  0  0  0  0
    9.4449  -16.5162   23.4421 N   0  0  0  0  0  0  0  0  0  0  0  0
    9.9110  -15.9482   24.6665 C   0  0  1  0  0  0  0  0  0  0  0  0
    9.0161  -16.0474   25.8356 C   0  0  0  0  0  0  0  0  0  0  0  0
    7.6977  -15.4456   25.7637 C   0  0  0  0  0  0  0  0  0  0  0  0
    6.4688  -15.9995   25.4987 C   0  0  0  0  0  0  0  0  0  0  0  0
    5.5128  -15.0285   25.5455 N   0  0  0  0  0  0  0  0  0  0  0  0
    6.1263  -13.8756   25.8361 C   0  0  0  0  0  0  0  0  0  0  0  0
    5.6562  -12.5719   26.0107 C   0  0  0  0  0  0  0  0  0  0  0  0
    6.4906  -11.5174   26.3159 C   0  0  0  0  0  0  0  0  0  0  0  0
    7.8429  -11.7502   26.4557 C   0  0  0  0  0  0  0  0  0  0  0  0
    8.3137  -13.0305   26.2853 C   0  0  0  0  0  0  0  0  0  0  0  0
    7.4594  -14.1003   25.9748 C   0  0  0  0  0  0  0  0  0  0  0  0
   11.3252  -16.3521   24.9698 C   0  0  0  0  0  0  0  0  0  0  0  0
   11.7120  -16.2600   26.1553 O   0  0  0  0  0  0  0  0  0  0  0  0
   12.2348  -16.8263   23.9973 N   0  0  0  0  0  0  0  0  0  0  0  0
   13.5672  -17.2933   24.2779 C   0  0  0  0  0  0  0  0  0  0  0  0
   14.3103  -17.7026   23.0843 C   0  0  0  0  0  0  0  0  0  0  0  0
   15.5144  -17.1182   22.7776 O   0  0  0  0  0  0  0  0  0  0  0  0
   13.8469  -18.5867   22.3415 O   0  0  0  0  0  0  0  0  0  0  0  0
  2  1  1  0
  3  2  2  0
  4  2  1  0
  5  4  1  0
  5  7  1  0
  5  6  1  1
  7  8  2  0
  9  7  1  0
  9 10  1  0
 10 11  1  1
 12 11  1  0
 12 20  1  0
 13 14  1  0
 13 12  2  0
 14 15  1  0
 15 16  1  0
 15 20  2  0
 16 17  2  0
 17 18  1  0
 19 18  2  0
 20 19  1  0
 21 10  1  0
 21 22  2  0
 23 21  1  0
 24 23  1  0
 25 24  1  0
 26 25  1  0
 27 25  2  0
M  END
$$$$
