NWG.pdb
     RDKit          3D

 27 28  0  0  1  0  0  0  0  0999 V2000
    8.6824  -17.2705   18.7508 N   0  0  0  0  0  0  0  0  0  0  0  0
    8.1973  -15.9932   19.1192 C   0  0  0  0  0  0  0  0  0  0  0  0
    7.5135  -15.3158   18.3232 O   0  0  0  0  0  0  0  0  0  0  0  0
    8.5037  -15.4595   20.4586 C   0  0  0  0  0  0  0  0  0  0  0  0
    9.3987  -16.4447   21.1932 C   0  0  2  0  0  0  0  0  0  0  0  0
    8.5237  -17.5785   21.5192 N   0  0  0  0  0  0  0  0  0  0  0  0
    9.7868  -15.7990   22.4620 C   0  0  0  0  0  0  0  0  0  0  0  0
   10.4141  -14.7017   22.4789 O   0  0  0  0  0  0  0  0  0  0  0  0
    9.4593  -16.4066   23.7321 N   0  0  0  0  0  0  0  0  0  0  0  0
   10.1175  -15.9917   24.9296 C   0  0  1  0  0  0  0  0  0  0  0  0
    9.2650  -15.7120   26.1012 C   0  0  0  0  0  0  0  0  0  0  0  0
    7.9092  -15.2416   25.8868 C   0  0  0  0  0  0  0  0  0  0  0  0
    6.7573  -15.9249   25.5809 C   0  0  0  0  0  0  0  0  0  0  0  0
    5.7202  -15.0456   25.4802 N   0  0  0  0  0  0  0  0  0  0  0  0
    6.2071  -13.8225   25.7189 C   0  0  0  0  0  0  0  0  0  0  0  0
    5.6138  -12.5584   25.7528 C   0  0  0  0  0  0  0  0  0  0  0  0
    6.3274  -11.4114   26.0297 C   0  0  0  0  0  0  0  0  0  0  0  0
    7.6797  -11.5073   26.2840 C   0  0  0  0  0  0  0  0  0  0  0  0
    8.2713  -12.7478   26.2525 C   0  0  0  0  0  0  0  0  0  0  0  0
    7.5397  -13.9121   25.9701 C   0  0  0  0  0  0  0  0  0  0  0  0
   11.2968  -16.8634   25.2525 C   0  0  0  0  0  0  0  0  0  0  0  0
   11.3464  -17.3706   26.3942 O   0  0  0  0  0  0  0  0  0  0  0  0
   12.3446  -17.1392   24.3446 N   0  0  0  0  0  0  0  0  0  0  0  0
   13.4676  -17.9958   24.6224 C   0  0  0  0  0  0  0  0  0  0  0  0
   14.3081  -18.2611   23.4530 C   0  0  0  0  0  0  0  0  0  0  0  0
   13.9852  -17.7329   22.2274 O   0  0  0  0  0  0  0  0  0  0  0  0
   15.3229  -18.9713   23.5705 O   0  0  0  0  0  0  0  0  0  0  0  0
  2  1  1  0
  3  2  2  0
  4  2  1  0
  5  4  1  0
  5  7  1  0
  5  6  1  1
  7  8  2  0
  9  7  1  0
  9 10  1  0
 10 11  1  1
 12 11  1  0
 12 20  1  0
 13 14  1  0
 13 12  2  0
 14 15  1  0
 15 16  1  0
 15 20  2  0
 16 17  2  0
 17 18  1  0
 19 18  2  0
 20 19  1  0
 21 10  1  0
 21 22  2  0
 23 21  1  0
 24 23  1  0
 25 24  1  0
 26 25  1  0
 27 25  2  0
M  END
$$$$
