NWG.pdb
     RDKit          3D

 27 28  0  0  1  0  0  0  0  0999 V2000
    8.0078  -15.7582   17.9204 N   0  0  0  0  0  0  0  0  0  0  0  0
    7.5679  -16.1706   19.2006 C   0  0  0  0  0  0  0  0  0  0  0  0
    6.7141  -17.0741   19.3220 O   0  0  0  0  0  0  0  0  0  0  0  0
    8.1262  -15.5249   20.4024 C   0  0  0  0  0  0  0  0  0  0  0  0
    9.1756  -16.4385   21.0150 C   0  0  2  0  0  0  0  0  0  0  0  0
    8.4484  -17.6653   21.3669 N   0  0  0  0  0  0  0  0  0  0  0  0
    9.6109  -15.7997   22.2719 C   0  0  0  0  0  0  0  0  0  0  0  0
   10.1093  -14.6381   22.2833 O   0  0  0  0  0  0  0  0  0  0  0  0
    9.4800  -16.4883   23.5362 N   0  0  0  0  0  0  0  0  0  0  0  0
   10.1697  -16.0202   24.6957 C   0  0  1  0  0  0  0  0  0  0  0  0
    9.3765  -15.8626   25.9301 C   0  0  0  0  0  0  0  0  0  0  0  0
    8.0098  -15.3857   25.8304 C   0  0  0  0  0  0  0  0  0  0  0  0
    6.8342  -16.0620   25.6116 C   0  0  0  0  0  0  0  0  0  0  0  0
    5.7959  -15.1783   25.6037 N   0  0  0  0  0  0  0  0  0  0  0  0
    6.3055  -13.9593   25.8144 C   0  0  0  0  0  0  0  0  0  0  0  0
    5.7220  -12.6937   25.9087 C   0  0  0  0  0  0  0  0  0  0  0  0
    6.4603  -11.5520   26.1385 C   0  0  0  0  0  0  0  0  0  0  0  0
    7.8283  -11.6548   26.2820 C   0  0  0  0  0  0  0  0  0  0  0  0
    8.4104  -12.8969   26.1905 C   0  0  0  0  0  0  0  0  0  0  0  0
    7.6536  -14.0559   25.9564 C   0  0  0  0  0  0  0  0  0  0  0  0
   11.4618  -16.7533   24.9140 C   0  0  0  0  0  0  0  0  0  0  0  0
   11.4487  -17.7298   25.6950 O   0  0  0  0  0  0  0  0  0  0  0  0
   12.6813  -16.4032   24.2908 N   0  0  0  0  0  0  0  0  0  0  0  0
   13.9335  -17.0826   24.4969 C   0  0  0  0  0  0  0  0  0  0  0  0
   15.0704  -16.4309   23.8435 C   0  0  0  0  0  0  0  0  0  0  0  0
   14.8789  -15.3330   23.0415 O   0  0  0  0  0  0  0  0  0  0  0  0
   16.2196  -16.8757   24.0160 O   0  0  0  0  0  0  0  0  0  0  0  0
  2  1  1  0
  3  2  2  0
  4  2  1  0
  5  4  1  0
  5  7  1  0
  5  6  1  1
  7  8  2  0
  9  7  1  0
  9 10  1  0
 10 11  1  1
 12 11  1  0
 12 20  1  0
 13 14  1  0
 13 12  2  0
 14 15  1  0
 15 16  1  0
 15 20  2  0
 16 17  2  0
 17 18  1  0
 19 18  2  0
 20 19  1  0
 21 10  1  0
 21 22  2  0
 23 21  1  0
 24 23  1  0
 25 24  1  0
 26 25  1  0
 27 25  2  0
M  END
$$$$
