NWG.pdb
     RDKit          3D

 27 28  0  0  1  0  0  0  0  0999 V2000
    9.8322  -16.2212   18.4241 N   0  0  0  0  0  0  0  0  0  0  0  0
    8.9959  -16.5824   19.5069 C   0  0  0  0  0  0  0  0  0  0  0  0
    8.0269  -17.3517   19.3364 O   0  0  0  0  0  0  0  0  0  0  0  0
    9.2748  -16.0434   20.8502 C   0  0  0  0  0  0  0  0  0  0  0  0
    9.7069  -17.1807   21.7619 C   0  0  2  0  0  0  0  0  0  0  0  0
    8.4668  -17.9006   22.0806 N   0  0  0  0  0  0  0  0  0  0  0  0
   10.1979  -16.5610   23.0078 C   0  0  0  0  0  0  0  0  0  0  0  0
   11.0971  -15.6727   22.9929 O   0  0  0  0  0  0  0  0  0  0  0  0
    9.6619  -16.9546   24.2914 N   0  0  0  0  0  0  0  0  0  0  0  0
   10.3198  -16.5789   25.5019 C   0  0  1  0  0  0  0  0  0  0  0  0
    9.6138  -15.6274   26.3817 C   0  0  0  0  0  0  0  0  0  0  0  0
    8.2439  -15.2655   26.0688 C   0  0  0  0  0  0  0  0  0  0  0  0
    7.1685  -16.0403   25.7074 C   0  0  0  0  0  0  0  0  0  0  0  0
    6.0779  -15.2442   25.5180 N   0  0  0  0  0  0  0  0  0  0  0  0
    6.4560  -13.9831   25.7558 C   0  0  0  0  0  0  0  0  0  0  0  0
    5.7696  -12.7671   25.7192 C   0  0  0  0  0  0  0  0  0  0  0  0
    6.3764  -11.5639   26.0117 C   0  0  0  0  0  0  0  0  0  0  0  0
    7.7125  -11.5518   26.3544 C   0  0  0  0  0  0  0  0  0  0  0  0
    8.3953  -12.7444   26.3928 C   0  0  0  0  0  0  0  0  0  0  0  0
    7.7721  -13.9664   26.0941 C   0  0  0  0  0  0  0  0  0  0  0  0
   10.8649  -17.7694   26.2370 C   0  0  0  0  0  0  0  0  0  0  0  0
   11.6559  -17.5545   27.1812 O   0  0  0  0  0  0  0  0  0  0  0  0
   10.5358  -19.1077   25.9228 N   0  0  0  0  0  0  0  0  0  0  0  0
   11.4812  -20.1909   25.8520 C   0  0  0  0  0  0  0  0  0  0  0  0
   12.6825  -19.9765   26.6614 C   0  0  0  0  0  0  0  0  0  0  0  0
   12.7480  -20.4449   27.9505 O   0  0  0  0  0  0  0  0  0  0  0  0
   13.6519  -19.3647   26.1776 O   0  0  0  0  0  0  0  0  0  0  0  0
  2  1  1  0
  3  2  2  0
  4  2  1  0
  5  4  1  0
  5  7  1  0
  5  6  1  1
  7  8  2  0
  9  7  1  0
  9 10  1  0
 10 11  1  1
 12 11  1  0
 12 20  1  0
 13 14  1  0
 13 12  2  0
 14 15  1  0
 15 16  1  0
 15 20  2  0
 16 17  2  0
 17 18  1  0
 19 18  2  0
 20 19  1  0
 21 10  1  0
 21 22  2  0
 23 21  1  0
 24 23  1  0
 25 24  1  0
 26 25  1  0
 27 25  2  0
M  END
$$$$
