NWG.pdb
     RDKit          3D

 27 28  0  0  1  0  0  0  0  0999 V2000
    8.0027  -17.1248   18.8588 N   0  0  0  0  0  0  0  0  0  0  0  0
    7.7448  -15.7650   19.1538 C   0  0  0  0  0  0  0  0  0  0  0  0
    7.1181  -15.0446   18.3487 O   0  0  0  0  0  0  0  0  0  0  0  0
    8.2218  -15.1958   20.4271 C   0  0  0  0  0  0  0  0  0  0  0  0
    9.1209  -16.2085   21.1181 C   0  0  2  0  0  0  0  0  0  0  0  0
    8.2244  -17.3052   21.5069 N   0  0  0  0  0  0  0  0  0  0  0  0
    9.6074  -15.5677   22.3550 C   0  0  0  0  0  0  0  0  0  0  0  0
   10.1876  -14.4449   22.3321 O   0  0  0  0  0  0  0  0  0  0  0  0
    9.4343  -16.2097   23.6386 N   0  0  0  0  0  0  0  0  0  0  0  0
   10.1446  -15.7455   24.7872 C   0  0  1  0  0  0  0  0  0  0  0  0
    9.3807  -15.6219   26.0437 C   0  0  0  0  0  0  0  0  0  0  0  0
    7.9927  -15.2031   25.9833 C   0  0  0  0  0  0  0  0  0  0  0  0
    6.8482  -15.9158   25.7194 C   0  0  0  0  0  0  0  0  0  0  0  0
    5.7702  -15.0831   25.7792 N   0  0  0  0  0  0  0  0  0  0  0  0
    6.2242  -13.8603   26.0768 C   0  0  0  0  0  0  0  0  0  0  0  0
    5.5835  -12.6335   26.2650 C   0  0  0  0  0  0  0  0  0  0  0  0
    6.2697  -11.4783   26.5753 C   0  0  0  0  0  0  0  0  0  0  0  0
    7.6419  -11.5275   26.7066 C   0  0  0  0  0  0  0  0  0  0  0  0
    8.2802  -12.7312   26.5229 C   0  0  0  0  0  0  0  0  0  0  0  0
    7.5762  -13.9040   26.2072 C   0  0  0  0  0  0  0  0  0  0  0  0
   11.4558  -16.4563   24.9612 C   0  0  0  0  0  0  0  0  0  0  0  0
   11.4998  -17.3968   25.7840 O   0  0  0  0  0  0  0  0  0  0  0  0
   12.6325  -16.1234   24.2523 N   0  0  0  0  0  0  0  0  0  0  0  0
   13.8891  -16.8146   24.3761 C   0  0  0  0  0  0  0  0  0  0  0  0
   14.8760  -16.4257   23.3667 C   0  0  0  0  0  0  0  0  0  0  0  0
   14.4783  -16.0809   22.0985 O   0  0  0  0  0  0  0  0  0  0  0  0
   16.0851  -16.4079   23.6600 O   0  0  0  0  0  0  0  0  0  0  0  0
  2  1  1  0
  3  2  2  0
  4  2  1  0
  5  4  1  0
  5  7  1  0
  5  6  1  1
  7  8  2  0
  9  7  1  0
  9 10  1  0
 10 11  1  1
 12 11  1  0
 12 20  1  0
 13 14  1  0
 13 12  2  0
 14 15  1  0
 15 16  1  0
 15 20  2  0
 16 17  2  0
 17 18  1  0
 19 18  2  0
 20 19  1  0
 21 10  1  0
 21 22  2  0
 23 21  1  0
 24 23  1  0
 25 24  1  0
 26 25  1  0
 27 25  2  0
M  END
$$$$
