NWG.pdb
     RDKit          3D

 27 28  0  0  1  0  0  0  0  0999 V2000
    7.8960  -17.9233   19.0093 N   0  0  0  0  0  0  0  0  0  0  0  0
    7.4619  -16.6023   19.2718 C   0  0  0  0  0  0  0  0  0  0  0  0
    6.6274  -16.0446   18.5283 O   0  0  0  0  0  0  0  0  0  0  0  0
    8.0020  -15.8793   20.4373 C   0  0  0  0  0  0  0  0  0  0  0  0
    9.1254  -16.6981   21.0529 C   0  0  2  0  0  0  0  0  0  0  0  0
    8.4743  -17.9168   21.5513 N   0  0  0  0  0  0  0  0  0  0  0  0
    9.6106  -15.9392   22.2217 C   0  0  0  0  0  0  0  0  0  0  0  0
   10.1476  -14.8022   22.0934 O   0  0  0  0  0  0  0  0  0  0  0  0
    9.4857  -16.4777   23.5575 N   0  0  0  0  0  0  0  0  0  0  0  0
   10.1446  -15.8528   24.6595 C   0  0  1  0  0  0  0  0  0  0  0  0
    9.3642  -15.6857   25.9007 C   0  0  0  0  0  0  0  0  0  0  0  0
    7.9818  -15.2545   25.8083 C   0  0  0  0  0  0  0  0  0  0  0  0
    6.8296  -15.9680   25.5830 C   0  0  0  0  0  0  0  0  0  0  0  0
    5.7618  -15.1201   25.5866 N   0  0  0  0  0  0  0  0  0  0  0  0
    6.2298  -13.8870   25.8110 C   0  0  0  0  0  0  0  0  0  0  0  0
    5.6037  -12.6432   25.9207 C   0  0  0  0  0  0  0  0  0  0  0  0
    6.3030  -11.4797   26.1629 C   0  0  0  0  0  0  0  0  0  0  0  0
    7.6740  -11.5375   26.3035 C   0  0  0  0  0  0  0  0  0  0  0  0
    8.2979  -12.7579   26.1969 C   0  0  0  0  0  0  0  0  0  0  0  0
    7.5807  -13.9392   25.9502 C   0  0  0  0  0  0  0  0  0  0  0  0
   11.5118  -16.4274   24.8949 C   0  0  0  0  0  0  0  0  0  0  0  0
   11.6467  -17.2308   25.8434 O   0  0  0  0  0  0  0  0  0  0  0  0
   12.6446  -16.1124   24.1101 N   0  0  0  0  0  0  0  0  0  0  0  0
   13.9550  -16.6785   24.2954 C   0  0  0  0  0  0  0  0  0  0  0  0
   14.9140  -16.2928   23.2582 C   0  0  0  0  0  0  0  0  0  0  0  0
   16.1912  -15.9165   23.5939 O   0  0  0  0  0  0  0  0  0  0  0  0
   14.5691  -16.3058   22.0628 O   0  0  0  0  0  0  0  0  0  0  0  0
  2  1  1  0
  3  2  2  0
  4  2  1  0
  5  4  1  0
  5  7  1  0
  5  6  1  1
  7  8  2  0
  9  7  1  0
  9 10  1  0
 10 11  1  1
 12 11  1  0
 12 20  1  0
 13 14  1  0
 13 12  2  0
 14 15  1  0
 15 16  1  0
 15 20  2  0
 16 17  2  0
 17 18  1  0
 19 18  2  0
 20 19  1  0
 21 10  1  0
 21 22  2  0
 23 21  1  0
 24 23  1  0
 25 24  1  0
 26 25  1  0
 27 25  2  0
M  END
$$$$
