NWG.pdb
     RDKit          3D

 27 28  0  0  1  0  0  0  0  0999 V2000
    6.8602  -15.1875   17.9484 N   0  0  0  0  0  0  0  0  0  0  0  0
    7.9402  -15.7734   18.6504 C   0  0  0  0  0  0  0  0  0  0  0  0
    8.5112  -16.7925   18.2086 O   0  0  0  0  0  0  0  0  0  0  0  0
    8.3946  -15.1709   19.9166 C   0  0  0  0  0  0  0  0  0  0  0  0
    8.1757  -16.1646   21.0462 C   0  0  2  0  0  0  0  0  0  0  0  0
    6.7206  -16.1963   21.2440 N   0  0  0  0  0  0  0  0  0  0  0  0
    8.7793  -15.5710   22.2548 C   0  0  0  0  0  0  0  0  0  0  0  0
    9.0407  -14.3362   22.3232 O   0  0  0  0  0  0  0  0  0  0  0  0
    9.0924  -16.3899   23.4043 N   0  0  0  0  0  0  0  0  0  0  0  0
    9.9375  -15.8946   24.4433 C   0  0  1  0  0  0  0  0  0  0  0  0
    9.3068  -15.6259   25.7502 C   0  0  0  0  0  0  0  0  0  0  0  0
    7.9428  -15.1319   25.7832 C   0  0  0  0  0  0  0  0  0  0  0  0
    6.7441  -15.7889   25.6467 C   0  0  0  0  0  0  0  0  0  0  0  0
    5.7206  -14.8946   25.7549 N   0  0  0  0  0  0  0  0  0  0  0  0
    6.2622  -13.6881   25.9572 C   0  0  0  0  0  0  0  0  0  0  0  0
    5.7056  -12.4200   26.1393 C   0  0  0  0  0  0  0  0  0  0  0  0
    6.4757  -11.2937   26.3385 C   0  0  0  0  0  0  0  0  0  0  0  0
    7.8496  -11.4151   26.3601 C   0  0  0  0  0  0  0  0  0  0  0  0
    8.4054  -12.6597   26.1816 C   0  0  0  0  0  0  0  0  0  0  0  0
    7.6162  -13.8030   25.9792 C   0  0  0  0  0  0  0  0  0  0  0  0
   11.2114  -16.6818   24.5536 C   0  0  0  0  0  0  0  0  0  0  0  0
   11.4644  -17.2230   25.6520 O   0  0  0  0  0  0  0  0  0  0  0  0
   12.1322  -16.8429   23.4932 N   0  0  0  0  0  0  0  0  0  0  0  0
   13.3153  -16.0449   23.3046 C   0  0  0  0  0  0  0  0  0  0  0  0
   14.4005  -16.3743   24.2309 C   0  0  0  0  0  0  0  0  0  0  0  0
   15.6141  -16.8085   23.7576 O   0  0  0  0  0  0  0  0  0  0  0  0
   14.2216  -16.2605   25.4569 O   0  0  0  0  0  0  0  0  0  0  0  0
  2  1  1  0
  3  2  2  0
  4  2  1  0
  5  4  1  0
  5  7  1  0
  5  6  1  1
  7  8  2  0
  9  7  1  0
  9 10  1  0
 10 11  1  1
 12 11  1  0
 12 20  1  0
 13 14  1  0
 13 12  2  0
 14 15  1  0
 15 16  1  0
 15 20  2  0
 16 17  2  0
 17 18  1  0
 19 18  2  0
 20 19  1  0
 21 10  1  0
 21 22  2  0
 23 21  1  0
 24 23  1  0
 25 24  1  0
 26 25  1  0
 27 25  2  0
M  END
$$$$
