TTG.pdb
     RDKit          3D

 19 18  0  0  1  0  0  0  0  0999 V2000
    7.8840  -18.9311   16.6025 C   0  0  0  0  0  0  0  0  0  0  0  0
    8.6001  -17.8228   17.3561 C   0  0  1  0  0  0  0  0  0  0  0  0
    9.8162  -18.2317   17.8490 O   0  0  0  0  0  0  0  0  0  0  0  0
    8.6705  -16.5569   16.5339 C   0  0  2  0  0  0  0  0  0  0  0  0
    9.4112  -16.8570   15.3181 N   0  0  0  0  0  0  0  0  0  0  0  0
    9.3542  -15.4516   17.2146 C   0  0  0  0  0  0  0  0  0  0  0  0
   10.5648  -15.1572   17.0533 O   0  0  0  0  0  0  0  0  0  0  0  0
    7.0361  -13.3499   19.9577 C   0  0  0  0  0  0  0  0  0  0  0  0
    7.9981  -12.5741   19.0783 C   0  0  1  0  0  0  0  0  0  0  0  0
    8.3551  -11.3778   19.6563 O   0  0  0  0  0  0  0  0  0  0  0  0
    9.1792  -13.4538   18.7214 C   0  0  2  0  0  0  0  0  0  0  0  0
    8.6160  -14.6465   18.1220 N   0  0  0  0  0  0  0  0  0  0  0  0
    9.9132  -13.7601   19.9717 C   0  0  0  0  0  0  0  0  0  0  0  0
   10.5709  -12.8500   20.5594 O   0  0  0  0  0  0  0  0  0  0  0  0
    9.9299  -15.0446   20.5752 N   0  0  0  0  0  0  0  0  0  0  0  0
   10.7022  -15.3482   21.7613 C   0  0  0  0  0  0  0  0  0  0  0  0
   10.4882  -16.7010   22.2663 C   0  0  0  0  0  0  0  0  0  0  0  0
    9.7400  -17.4804   21.6406 O   0  0  0  0  0  0  0  0  0  0  0  0
   11.0931  -17.1456   23.4225 O   0  0  0  0  0  0  0  0  0  0  0  0
  2  4  1  0
  2  3  1  0
  2  1  1  6
  4  5  1  6
  6  4  1  0
  6 12  1  0
  7  6  2  0
  9  8  1  1
 10  9  1  0
 11 12  1  1
 11  9  1  0
 13 14  2  0
 13 11  1  0
 15 13  1  0
 16 15  1  0
 16 17  1  0
 17 19  1  0
 18 17  2  0
M  END
$$$$
