TTG.pdb
     RDKit          3D

 19 18  0  0  1  0  0  0  0  0999 V2000
    7.4254  -17.5268   20.7290 C   0  0  0  0  0  0  0  0  0  0  0  0
    8.0926  -17.2204   22.0594 C   0  0  1  0  0  0  0  0  0  0  0  0
    8.9783  -18.2023   22.4345 O   0  0  0  0  0  0  0  0  0  0  0  0
    8.6847  -15.8301   22.0691 C   0  0  2  0  0  0  0  0  0  0  0  0
    9.7553  -15.7958   21.0845 N   0  0  0  0  0  0  0  0  0  0  0  0
    9.2539  -15.4430   23.3646 C   0  0  0  0  0  0  0  0  0  0  0  0
   10.4760  -15.4999   23.6500 O   0  0  0  0  0  0  0  0  0  0  0  0
    8.3003  -13.0979   27.5900 C   0  0  0  0  0  0  0  0  0  0  0  0
    7.8949  -13.5330   26.1947 C   0  0  1  0  0  0  0  0  0  0  0  0
    7.7531  -12.4544   25.3526 O   0  0  0  0  0  0  0  0  0  0  0  0
    8.8688  -14.5772   25.6872 C   0  0  2  0  0  0  0  0  0  0  0  0
    8.3818  -14.9686   24.3800 N   0  0  0  0  0  0  0  0  0  0  0  0
    8.8583  -15.7114   26.6409 C   0  0  0  0  0  0  0  0  0  0  0  0
    7.8083  -16.4056   26.7880 O   0  0  0  0  0  0  0  0  0  0  0  0
    9.9805  -16.0850   27.4254 N   0  0  0  0  0  0  0  0  0  0  0  0
    9.9666  -17.2116   28.3344 C   0  0  0  0  0  0  0  0  0  0  0  0
   11.1703  -17.3146   29.1539 C   0  0  0  0  0  0  0  0  0  0  0  0
   12.1201  -16.5293   28.9541 O   0  0  0  0  0  0  0  0  0  0  0  0
   11.2889  -18.2610   30.1492 O   0  0  0  0  0  0  0  0  0  0  0  0
  2  4  1  0
  2  3  1  0
  2  1  1  6
  4  5  1  6
  6  4  1  0
  6 12  1  0
  7  6  2  0
  9  8  1  1
 10  9  1  0
 11 12  1  6
 11  9  1  0
 13 14  2  0
 13 11  1  0
 15 13  1  0
 16 15  1  0
 16 17  1  0
 17 19  1  0
 18 17  2  0
M  END
$$$$
