TTG.pdb
     RDKit          3D

 19 18  0  0  1  0  0  0  0  0999 V2000
    8.3441  -11.6119   19.6301 C   0  0  0  0  0  0  0  0  0  0  0  0
    8.6965  -12.9695   20.2145 C   0  0  1  0  0  0  0  0  0  0  0  0
    7.7520  -13.4103   21.1104 O   0  0  0  0  0  0  0  0  0  0  0  0
    9.0176  -13.9685   19.1270 C   0  0  2  0  0  0  0  0  0  0  0  0
    7.8171  -14.1557   18.3267 N   0  0  0  0  0  0  0  0  0  0  0  0
    9.4259  -15.2818   19.6377 C   0  0  0  0  0  0  0  0  0  0  0  0
    8.6878  -16.2983   19.6567 O   0  0  0  0  0  0  0  0  0  0  0  0
   13.1716  -18.2060   20.6390 C   0  0  0  0  0  0  0  0  0  0  0  0
   12.5893  -16.9114   20.1046 C   0  0  1  0  0  0  0  0  0  0  0  0
   12.6163  -16.8774   18.7295 O   0  0  0  0  0  0  0  0  0  0  0  0
   11.2088  -16.6972   20.6914 C   0  0  2  0  0  0  0  0  0  0  0  0
   10.7411  -15.4373   20.1501 N   0  0  0  0  0  0  0  0  0  0  0  0
   11.3437  -16.6463   22.1663 C   0  0  0  0  0  0  0  0  0  0  0  0
   11.9866  -15.6999   22.7114 O   0  0  0  0  0  0  0  0  0  0  0  0
   10.7837  -17.6167   23.0376 N   0  0  0  0  0  0  0  0  0  0  0  0
   10.7120  -17.4395   24.4726 C   0  0  0  0  0  0  0  0  0  0  0  0
   11.9571  -17.7618   25.1630 C   0  0  0  0  0  0  0  0  0  0  0  0
   12.9472  -18.1394   24.5027 O   0  0  0  0  0  0  0  0  0  0  0  0
   12.0717  -17.6605   26.5330 O   0  0  0  0  0  0  0  0  0  0  0  0
  2  4  1  0
  2  3  1  0
  2  1  1  6
  4  5  1  6
  6  4  1  0
  6 12  1  0
  7  6  2  0
  9  8  1  6
 10  9  1  0
 11 12  1  6
 11  9  1  0
 13 14  2  0
 13 11  1  0
 15 13  1  0
 16 15  1  0
 16 17  1  0
 17 19  1  0
 18 17  2  0
M  END
$$$$
