TTG.pdb
     RDKit          3D

 19 18  0  0  1  0  0  0  0  0999 V2000
    5.4688  -19.0577   18.4737 C   0  0  0  0  0  0  0  0  0  0  0  0
    6.7533  -18.2986   18.7618 C   0  0  1  0  0  0  0  0  0  0  0  0
    7.7660  -19.1300   19.1768 O   0  0  0  0  0  0  0  0  0  0  0  0
    7.1343  -17.4055   17.6038 C   0  0  2  0  0  0  0  0  0  0  0  0
    7.3834  -18.2558   16.4497 N   0  0  0  0  0  0  0  0  0  0  0  0
    8.3447  -16.6129   17.8468 C   0  0  0  0  0  0  0  0  0  0  0  0
    9.5062  -16.9738   17.5321 O   0  0  0  0  0  0  0  0  0  0  0  0
    7.6589  -12.9389   19.6218 C   0  0  0  0  0  0  0  0  0  0  0  0
    8.8392  -13.0753   18.6790 C   0  0  1  0  0  0  0  0  0  0  0  0
    9.7993  -12.1235   18.9338 O   0  0  0  0  0  0  0  0  0  0  0  0
    9.3635  -14.4962   18.7267 C   0  0  2  0  0  0  0  0  0  0  0  0
    8.2178  -15.3481   18.4797 N   0  0  0  0  0  0  0  0  0  0  0  0
    9.9390  -14.7244   20.0731 C   0  0  0  0  0  0  0  0  0  0  0  0
    9.1736  -14.8715   21.0725 O   0  0  0  0  0  0  0  0  0  0  0  0
   11.3337  -14.7918   20.3273 N   0  0  0  0  0  0  0  0  0  0  0  0
   11.8833  -15.0938   21.6320 C   0  0  0  0  0  0  0  0  0  0  0  0
   13.3428  -15.1035   21.6621 C   0  0  0  0  0  0  0  0  0  0  0  0
   13.9816  -14.8670   20.6157 O   0  0  0  0  0  0  0  0  0  0  0  0
   14.0406  -15.3684   22.8210 O   0  0  0  0  0  0  0  0  0  0  0  0
  2  4  1  0
  2  3  1  0
  2  1  1  6
  4  5  1  6
  6  4  1  0
  6 12  1  0
  7  6  2  0
  9  8  1  1
 10  9  1  0
 11 12  1  1
 11  9  1  0
 13 14  2  0
 13 11  1  0
 15 13  1  0
 16 15  1  0
 16 17  1  0
 17 19  1  0
 18 17  2  0
M  END
$$$$
