TTG.pdb
     RDKit          3D

 19 18  0  0  1  0  0  0  0  0999 V2000
    7.8621  -17.2773   14.0550 C   0  0  0  0  0  0  0  0  0  0  0  0
    8.6805  -16.7631   15.2275 C   0  0  1  0  0  0  0  0  0  0  0  0
   10.0323  -16.8406   14.9911 O   0  0  0  0  0  0  0  0  0  0  0  0
    8.2158  -15.3923   15.6618 C   0  0  2  0  0  0  0  0  0  0  0  0
    8.4561  -14.4718   14.5610 N   0  0  0  0  0  0  0  0  0  0  0  0
    8.9234  -14.8779   16.8395 C   0  0  0  0  0  0  0  0  0  0  0  0
    9.9562  -14.1641   16.7931 O   0  0  0  0  0  0  0  0  0  0  0  0
    7.4756  -12.8407   19.4574 C   0  0  0  0  0  0  0  0  0  0  0  0
    7.9817  -14.0815   20.1679 C   0  0  1  0  0  0  0  0  0  0  0  0
    6.9504  -14.9340   20.4880 O   0  0  0  0  0  0  0  0  0  0  0  0
    9.0721  -14.7300   19.3392 C   0  0  2  0  0  0  0  0  0  0  0  0
    8.4242  -15.1965   18.1302 N   0  0  0  0  0  0  0  0  0  0  0  0
    9.6381  -15.8499   20.1276 C   0  0  0  0  0  0  0  0  0  0  0  0
    9.2527  -17.0372   19.9084 O   0  0  0  0  0  0  0  0  0  0  0  0
   10.6139  -15.6775   21.1436 N   0  0  0  0  0  0  0  0  0  0  0  0
   11.1210  -16.7724   21.9434 C   0  0  0  0  0  0  0  0  0  0  0  0
   12.1514  -16.3705   22.8961 C   0  0  0  0  0  0  0  0  0  0  0  0
   12.6052  -15.2080   22.8580 O   0  0  0  0  0  0  0  0  0  0  0  0
   12.6411  -17.2441   23.8433 O   0  0  0  0  0  0  0  0  0  0  0  0
  2  4  1  0
  2  3  1  0
  2  1  1  6
  4  5  1  6
  6  4  1  0
  6 12  1  0
  7  6  2  0
  9  8  1  6
 10  9  1  0
 11 12  1  6
 11  9  1  0
 13 14  2  0
 13 11  1  0
 15 13  1  0
 16 15  1  0
 16 17  1  0
 17 19  1  0
 18 17  2  0
M  END
$$$$
