TTG.pdb
     RDKit          3D

 19 18  0  0  1  0  0  0  0  0999 V2000
    7.2092  -12.3611   19.0641 C   0  0  0  0  0  0  0  0  0  0  0  0
    8.1424  -13.5277   19.3422 C   0  0  1  0  0  0  0  0  0  0  0  0
    7.4651  -14.6434   19.7728 O   0  0  0  0  0  0  0  0  0  0  0  0
    9.0608  -13.7870   18.1705 C   0  0  2  0  0  0  0  0  0  0  0  0
    8.2315  -14.0882   17.0136 N   0  0  0  0  0  0  0  0  0  0  0  0
    9.9711  -14.9189   18.3769 C   0  0  0  0  0  0  0  0  0  0  0  0
    9.8593  -16.0341   17.8093 O   0  0  0  0  0  0  0  0  0  0  0  0
   13.7187  -14.1802   19.8127 C   0  0  0  0  0  0  0  0  0  0  0  0
   13.3088  -15.4871   19.1611 C   0  0  1  0  0  0  0  0  0  0  0  0
   14.2535  -16.4670   19.3611 O   0  0  0  0  0  0  0  0  0  0  0  0
   11.9215  -15.8742   19.6321 C   0  0  2  0  0  0  0  0  0  0  0  0
   11.0599  -14.7653   19.2754 N   0  0  0  0  0  0  0  0  0  0  0  0
   11.9787  -16.0770   21.0990 C   0  0  0  0  0  0  0  0  0  0  0  0
   11.9667  -15.0772   21.8777 O   0  0  0  0  0  0  0  0  0  0  0  0
   12.0479  -17.3560   21.7104 N   0  0  0  0  0  0  0  0  0  0  0  0
   11.8948  -17.5575   23.1357 C   0  0  0  0  0  0  0  0  0  0  0  0
   13.1638  -17.6472   23.8517 C   0  0  0  0  0  0  0  0  0  0  0  0
   14.2354  -17.5230   23.2231 O   0  0  0  0  0  0  0  0  0  0  0  0
   13.2130  -17.8666   25.2118 O   0  0  0  0  0  0  0  0  0  0  0  0
  2  4  1  0
  2  3  1  0
  2  1  1  6
  4  5  1  6
  6  4  1  0
  6 12  1  0
  7  6  2  0
  9  8  1  1
 10  9  1  0
 11 12  1  1
 11  9  1  0
 13 14  2  0
 13 11  1  0
 15 13  1  0
 16 15  1  0
 16 17  1  0
 17 19  1  0
 18 17  2  0
M  END
$$$$
