TTG.pdb
     RDKit          3D

 19 18  0  0  1  0  0  0  0  0999 V2000
    6.0647  -19.5383   17.7526 C   0  0  0  0  0  0  0  0  0  0  0  0
    7.1141  -18.7403   18.5082 C   0  0  1  0  0  0  0  0  0  0  0  0
    8.2791  -19.4483   18.6825 O   0  0  0  0  0  0  0  0  0  0  0  0
    7.3169  -17.3766   17.8895 C   0  0  2  0  0  0  0  0  0  0  0  0
    7.7920  -17.5720   16.5283 N   0  0  0  0  0  0  0  0  0  0  0  0
    8.3041  -16.5522   18.5954 C   0  0  0  0  0  0  0  0  0  0  0  0
    9.5278  -16.5111   18.3140 O   0  0  0  0  0  0  0  0  0  0  0  0
    7.7605  -12.8814   19.3619 C   0  0  0  0  0  0  0  0  0  0  0  0
    8.0195  -13.5994   20.6726 C   0  0  1  0  0  0  0  0  0  0  0  0
    6.8560  -13.7855   21.3828 O   0  0  0  0  0  0  0  0  0  0  0  0
    8.7808  -14.8820   20.4052 C   0  0  2  0  0  0  0  0  0  0  0  0
    7.8685  -15.7372   19.6736 N   0  0  0  0  0  0  0  0  0  0  0  0
    9.1570  -15.4694   21.7127 C   0  0  0  0  0  0  0  0  0  0  0  0
    8.2561  -15.8426   22.5222 O   0  0  0  0  0  0  0  0  0  0  0  0
   10.5007  -15.6481   22.1332 N   0  0  0  0  0  0  0  0  0  0  0  0
   10.8567  -16.2634   23.3943 C   0  0  0  0  0  0  0  0  0  0  0  0
   12.2751  -16.1487   23.7194 C   0  0  0  0  0  0  0  0  0  0  0  0
   13.0626  -15.6681   22.8781 O   0  0  0  0  0  0  0  0  0  0  0  0
   12.7734  -16.5587   24.9375 O   0  0  0  0  0  0  0  0  0  0  0  0
  2  4  1  0
  2  3  1  0
  2  1  1  6
  4  5  1  6
  6  4  1  0
  6 12  1  0
  7  6  2  0
  9  8  1  6
 10  9  1  0
 11 12  1  1
 11  9  1  0
 13 14  2  0
 13 11  1  0
 15 13  1  0
 16 15  1  0
 16 17  1  0
 17 19  1  0
 18 17  2  0
M  END
$$$$
