TTG.pdb
     RDKit          3D

 19 18  0  0  1  0  0  0  0  0999 V2000
    7.6990  -17.1254   14.3564 C   0  0  0  0  0  0  0  0  0  0  0  0
    8.5666  -16.5920   15.4842 C   0  0  1  0  0  0  0  0  0  0  0  0
    9.9059  -16.6497   15.1810 O   0  0  0  0  0  0  0  0  0  0  0  0
    8.1023  -15.2263   15.9346 C   0  0  2  0  0  0  0  0  0  0  0  0
    8.2715  -14.3085   14.8184 N   0  0  0  0  0  0  0  0  0  0  0  0
    8.8604  -14.6937   17.0722 C   0  0  0  0  0  0  0  0  0  0  0  0
    9.8413  -13.9152   16.9713 O   0  0  0  0  0  0  0  0  0  0  0  0
    7.5695  -12.6860   19.7437 C   0  0  0  0  0  0  0  0  0  0  0  0
    8.0960  -13.9348   20.4247 C   0  0  1  0  0  0  0  0  0  0  0  0
    7.0746  -14.7928   20.7615 O   0  0  0  0  0  0  0  0  0  0  0  0
    9.1646  -14.5711   19.5591 C   0  0  2  0  0  0  0  0  0  0  0  0
    8.4764  -15.0710   18.3862 N   0  0  0  0  0  0  0  0  0  0  0  0
    9.7900  -15.6654   20.3384 C   0  0  0  0  0  0  0  0  0  0  0  0
    9.2776  -16.8245   20.3268 O   0  0  0  0  0  0  0  0  0  0  0  0
   10.9617  -15.4982   21.1218 N   0  0  0  0  0  0  0  0  0  0  0  0
   11.5572  -16.5721   21.8884 C   0  0  0  0  0  0  0  0  0  0  0  0
   12.6721  -16.1417   22.7267 C   0  0  0  0  0  0  0  0  0  0  0  0
   13.0881  -14.9676   22.6425 O   0  0  0  0  0  0  0  0  0  0  0  0
   13.2829  -17.0009   23.6150 O   0  0  0  0  0  0  0  0  0  0  0  0
  2  4  1  0
  2  3  1  0
  2  1  1  6
  4  5  1  6
  6  4  1  0
  6 12  1  0
  7  6  2  0
  9  8  1  6
 10  9  1  0
 11 12  1  6
 11  9  1  0
 13 14  2  0
 13 11  1  0
 15 13  1  0
 16 15  1  0
 16 17  1  0
 17 19  1  0
 18 17  2  0
M  END
$$$$
