TTG.pdb
     RDKit          3D

 19 18  0  0  1  0  0  0  0  0999 V2000
    7.2169  -12.7622   19.0462 C   0  0  0  0  0  0  0  0  0  0  0  0
    8.1113  -13.6402   19.9054 C   0  0  1  0  0  0  0  0  0  0  0  0
    8.6532  -12.9512   20.9640 O   0  0  0  0  0  0  0  0  0  0  0  0
    7.4068  -14.9159   20.3055 C   0  0  2  0  0  0  0  0  0  0  0  0
    6.2028  -14.5489   21.0352 N   0  0  0  0  0  0  0  0  0  0  0  0
    8.2107  -15.7834   21.1736 C   0  0  0  0  0  0  0  0  0  0  0  0
    8.0291  -15.9177   22.4094 O   0  0  0  0  0  0  0  0  0  0  0  0
   11.4802  -19.4537   21.2287 C   0  0  0  0  0  0  0  0  0  0  0  0
   10.5860  -18.4931   20.4683 C   0  0  1  0  0  0  0  0  0  0  0  0
    9.5535  -19.1540   19.8440 O   0  0  0  0  0  0  0  0  0  0  0  0
   10.1272  -17.3865   21.3963 C   0  0  2  0  0  0  0  0  0  0  0  0
    9.2716  -16.5317   20.5984 N   0  0  0  0  0  0  0  0  0  0  0  0
   11.3302  -16.6669   21.8767 C   0  0  0  0  0  0  0  0  0  0  0  0
   12.0063  -15.9566   21.0738 O   0  0  0  0  0  0  0  0  0  0  0  0
   11.7912  -16.7206   23.2180 N   0  0  0  0  0  0  0  0  0  0  0  0
   12.9083  -15.9358   23.6995 C   0  0  0  0  0  0  0  0  0  0  0  0
   14.2019  -16.5851   23.5100 C   0  0  0  0  0  0  0  0  0  0  0  0
   14.2488  -17.7329   23.0210 O   0  0  0  0  0  0  0  0  0  0  0  0
   15.3816  -15.9625   23.8581 O   0  0  0  0  0  0  0  0  0  0  0  0
  2  4  1  0
  2  3  1  0
  2  1  1  1
  4  5  1  1
  6  4  1  0
  6 12  1  0
  7  6  2  0
  9  8  1  1
 10  9  1  0
 11 12  1  6
 11  9  1  0
 13 14  2  0
 13 11  1  0
 15 13  1  0
 16 15  1  0
 16 17  1  0
 17 19  1  0
 18 17  2  0
M  END
$$$$
