RCA.pdb
     RDKit          3D

 23 22  0  0  1  0  0  0  0  0999 V2000
    7.6219  -12.7881   16.0010 N   0  0  0  0  0  0  0  0  0  0  0  0
    8.1509  -14.0692   15.7086 C   0  0  0  0  0  0  0  0  0  0  0  0
    7.9014  -14.5911   14.5518 N   0  0  0  0  0  0  0  0  0  0  0  0
    8.9297  -14.7314   16.6846 N   0  0  0  0  0  0  0  0  0  0  0  0
    8.9415  -14.2287   18.0623 C   0  0  0  0  0  0  0  0  0  0  0  0
    7.6084  -14.5491   18.6381 C   0  0  0  0  0  0  0  0  0  0  0  0
    7.4598  -13.9880   20.0165 C   0  0  0  0  0  0  0  0  0  0  0  0
    8.2077  -14.8143   20.9915 C   0  0  2  0  0  0  0  0  0  0  0  0
    8.1498  -16.1946   20.5651 N   0  0  0  0  0  0  0  0  0  0  0  0
    7.6714  -14.7325   22.3753 C   0  0  0  0  0  0  0  0  0  0  0  0
    6.4795  -14.4644   22.6510 O   0  0  0  0  0  0  0  0  0  0  0  0
    8.1911  -15.5378   14.2573 N   0  0  0  0  0  0  0  0  0  0  0  0
    8.5357  -14.9667   23.4641 C   0  0  1  0  0  0  0  0  0  0  0  0
    8.1297  -15.1555   24.8250 C   0  0  0  0  0  0  0  0  0  0  0  0
    7.0161  -16.1429   25.0050 S   0  0  0  0  0  0  0  0  0  0  0  0
    6.4828  -16.2885   26.7285 C   0  0  0  0  0  0  0  0  0  0  0  0
    9.3048  -15.4724   25.6411 O   0  0  0  0  0  0  0  0  0  0  0  0
   10.3218  -15.9973   25.1327 C   0  0  0  0  0  0  0  0  0  0  0  0
   10.4945  -13.4991   28.3286 C   0  0  2  0  0  0  0  0  0  0  0  0
   10.5315  -14.8875   27.7181 N   0  0  0  0  0  0  0  0  0  0  0  0
    9.3144  -15.1903   27.0270 C   0  0  0  0  0  0  0  0  0  0  0  0
   10.7321  -15.8733   28.8043 O   0  0  0  0  0  0  0  0  0  0  0  0
   11.9149  -15.9439   29.5210 O   0  0  0  0  0  0  0  0  0  0  0  0
  2  1  1  0
  2  4  1  0
  3  2  2  0
  5  4  1  0
  6  5  1  0
  7  6  1  0
  7  8  1  0
  8 10  1  0
  8  9  1  6
 10 12  1  0
 11 10  2  0
 12 13  1  0
 13 16  1  0
 13 14  1  6
 15 14  1  0
 16 17  2  0
 16 20  1  0
 19 18  1  6
 19 21  1  0
 20 19  1  0
 21 23  2  0
 21 22  1  0
M  END
$$$$
