RCA.pdb
     RDKit          3D

 23 22  0  0  1  0  0  0  0  0999 V2000
    5.5481  -19.9145   15.0536 N   0  0  0  0  0  0  0  0  0  0  0  0
    6.1715  -18.8935   14.2951 C   0  0  0  0  0  0  0  0  0  0  0  0
    6.2721  -19.0490   13.0150 N   0  0  0  0  0  0  0  0  0  0  0  0
    6.6604  -17.7447   14.9578 N   0  0  0  0  0  0  0  0  0  0  0  0
    6.6341  -17.6901   16.4231 C   0  0  0  0  0  0  0  0  0  0  0  0
    7.6757  -18.6392   16.8980 C   0  0  0  0  0  0  0  0  0  0  0  0
    8.2792  -18.1863   18.1892 C   0  0  0  0  0  0  0  0  0  0  0  0
    9.0858  -16.9624   17.9787 C   0  0  2  0  0  0  0  0  0  0  0  0
   10.1904  -17.2843   17.1030 N   0  0  0  0  0  0  0  0  0  0  0  0
    9.6394  -16.3918   19.2344 C   0  0  0  0  0  0  0  0  0  0  0  0
   10.8583  -16.3790   19.5216 O   0  0  0  0  0  0  0  0  0  0  0  0
    6.8313  -18.4461   12.3900 N   0  0  0  0  0  0  0  0  0  0  0  0
    8.7607  -15.8231   20.1789 C   0  0  1  0  0  0  0  0  0  0  0  0
    9.1357  -15.3090   21.4625 C   0  0  0  0  0  0  0  0  0  0  0  0
    8.1215  -14.3942   22.0806 S   0  0  0  0  0  0  0  0  0  0  0  0
    6.6169  -15.2613   22.5905 C   0  0  0  0  0  0  0  0  0  0  0  0
    9.5037  -16.4225   22.3411 O   0  0  0  0  0  0  0  0  0  0  0  0
    8.9625  -17.5455   22.2218 C   0  0  0  0  0  0  0  0  0  0  0  0
   12.4292  -17.5445   24.0433 C   0  0  2  0  0  0  0  0  0  0  0  0
   10.9285  -17.3497   24.1497 N   0  0  0  0  0  0  0  0  0  0  0  0
   10.4828  -16.2507   23.3471 C   0  0  0  0  0  0  0  0  0  0  0  0
   10.5880  -17.0869   25.5663 O   0  0  0  0  0  0  0  0  0  0  0  0
   10.8611  -18.0030   26.5682 O   0  0  0  0  0  0  0  0  0  0  0  0
  2  1  1  0
  2  4  1  0
  3  2  2  0
  5  4  1  0
  6  5  1  0
  7  6  1  0
  7  8  1  0
  8 10  1  0
  8  9  1  6
 10 12  1  0
 11 10  2  0
 12 13  1  0
 13 16  1  0
 13 14  1  6
 15 14  1  0
 16 17  2  0
 16 20  1  0
 19 18  1  6
 19 21  1  0
 20 19  1  0
 21 23  2  0
 21 22  1  0
M  END
$$$$
