RCA.pdb
     RDKit          3D

 23 22  0  0  1  0  0  0  0  0999 V2000
    9.0479  -14.2329   15.5501 N   0  0  0  0  0  0  0  0  0  0  0  0
    7.9567  -13.6424   16.2335 C   0  0  0  0  0  0  0  0  0  0  0  0
    6.8787  -13.3824   15.5678 N   0  0  0  0  0  0  0  0  0  0  0  0
    8.0806  -13.3582   17.6125 N   0  0  0  0  0  0  0  0  0  0  0  0
    9.1509  -13.9942   18.3877 C   0  0  0  0  0  0  0  0  0  0  0  0
    8.4825  -14.8393   19.4126 C   0  0  0  0  0  0  0  0  0  0  0  0
    9.4802  -15.5802   20.2446 C   0  0  0  0  0  0  0  0  0  0  0  0
    8.8175  -16.1916   21.4193 C   0  0  2  0  0  0  0  0  0  0  0  0
    7.6113  -16.8531   20.9746 N   0  0  0  0  0  0  0  0  0  0  0  0
    8.4478  -15.2091   22.4715 C   0  0  0  0  0  0  0  0  0  0  0  0
    8.0236  -14.0547   22.2355 O   0  0  0  0  0  0  0  0  0  0  0  0
    6.0034  -13.0213   15.9806 N   0  0  0  0  0  0  0  0  0  0  0  0
    8.5724  -15.5727   23.8279 C   0  0  1  0  0  0  0  0  0  0  0  0
    8.2289  -14.7469   24.9472 C   0  0  0  0  0  0  0  0  0  0  0  0
    6.7569  -14.6533   25.2156 S   0  0  0  0  0  0  0  0  0  0  0  0
    6.3798  -13.7424   26.7335 C   0  0  0  0  0  0  0  0  0  0  0  0
    8.9919  -15.1805   26.1207 O   0  0  0  0  0  0  0  0  0  0  0  0
    9.1814  -16.3960   26.3550 C   0  0  0  0  0  0  0  0  0  0  0  0
   10.7516  -13.4520   28.9812 C   0  0  1  0  0  0  0  0  0  0  0  0
   10.4239  -14.6188   28.0687 N   0  0  0  0  0  0  0  0  0  0  0  0
    9.5330  -14.2298   27.0173 C   0  0  0  0  0  0  0  0  0  0  0  0
    9.7869  -15.6831   28.8769 O   0  0  0  0  0  0  0  0  0  0  0  0
   10.5279  -16.5488   29.6640 O   0  0  0  0  0  0  0  0  0  0  0  0
  2  1  1  0
  2  4  1  0
  3  2  2  0
  5  4  1  0
  6  5  1  0
  7  6  1  0
  7  8  1  0
  8 10  1  0
  8  9  1  6
 10 12  1  0
 11 10  2  0
 12 13  1  0
 13 16  1  0
 13 14  1  1
 15 14  1  0
 16 17  2  0
 16 20  1  0
 19 18  1  6
 19 21  1  0
 20 19  1  0
 21 23  2  0
 21 22  1  0
M  END
$$$$
