RCA.pdb
     RDKit          3D

 23 22  0  0  1  0  0  0  0  0999 V2000
   11.5042  -24.6105   17.9512 N   0  0  0  0  0  0  0  0  0  0  0  0
   11.9580  -23.6213   17.0446 C   0  0  0  0  0  0  0  0  0  0  0  0
   12.0083  -23.9137   15.7857 N   0  0  0  0  0  0  0  0  0  0  0  0
   12.3387  -22.3543   17.5422 N   0  0  0  0  0  0  0  0  0  0  0  0
   12.3834  -22.1310   18.9910 C   0  0  0  0  0  0  0  0  0  0  0  0
   11.0191  -21.6952   19.3914 C   0  0  0  0  0  0  0  0  0  0  0  0
   10.9425  -21.4211   20.8596 C   0  0  0  0  0  0  0  0  0  0  0  0
    9.5400  -21.1706   21.2635 C   0  0  2  0  0  0  0  0  0  0  0  0
    8.8376  -20.5809   20.1458 N   0  0  0  0  0  0  0  0  0  0  0  0
    9.4109  -20.2563   22.4281 C   0  0  0  0  0  0  0  0  0  0  0  0
    9.7511  -19.0511   22.4149 O   0  0  0  0  0  0  0  0  0  0  0  0
   12.3262  -23.2700   15.0431 N   0  0  0  0  0  0  0  0  0  0  0  0
    8.8754  -20.7496   23.6354 C   0  0  1  0  0  0  0  0  0  0  0  0
    8.8054  -20.0295   24.8720 C   0  0  0  0  0  0  0  0  0  0  0  0
    7.4115  -19.7999   25.3739 S   0  0  0  0  0  0  0  0  0  0  0  0
    7.3762  -19.0235   27.0084 C   0  0  0  0  0  0  0  0  0  0  0  0
    9.6631  -20.6850   25.8629 O   0  0  0  0  0  0  0  0  0  0  0  0
    9.4650  -21.8738   26.2032 C   0  0  0  0  0  0  0  0  0  0  0  0
   12.9619  -19.8678   27.4521 C   0  0  2  0  0  0  0  0  0  0  0  0
   11.6619  -20.6407   27.3340 N   0  0  0  0  0  0  0  0  0  0  0  0
   10.7381  -19.9847   26.4583 C   0  0  0  0  0  0  0  0  0  0  0  0
   11.0583  -20.7540   28.6810 O   0  0  0  0  0  0  0  0  0  0  0  0
   11.6054  -21.5615   29.6640 O   0  0  0  0  0  0  0  0  0  0  0  0
  2  1  1  0
  2  4  1  0
  3  2  2  0
  5  4  1  0
  6  5  1  0
  7  6  1  0
  7  8  1  0
  8 10  1  0
  8  9  1  6
 10 12  1  0
 11 10  2  0
 12 13  1  0
 13 16  1  0
 13 14  1  1
 15 14  1  0
 16 17  2  0
 16 20  1  0
 19 18  1  6
 19 21  1  0
 20 19  1  0
 21 23  2  0
 21 22  1  0
M  END
$$$$
