RCA.pdb
     RDKit          3D

 23 22  0  0  1  0  0  0  0  0999 V2000
   11.5916  -19.0400   11.8994 N   0  0  0  0  0  0  0  0  0  0  0  0
   12.5623  -19.8866   12.4888 C   0  0  0  0  0  0  0  0  0  0  0  0
   13.5727  -20.2598   11.7728 N   0  0  0  0  0  0  0  0  0  0  0  0
   12.3963  -20.2934   13.8322 N   0  0  0  0  0  0  0  0  0  0  0  0
   11.6394  -21.5140   14.1289 C   0  0  0  0  0  0  0  0  0  0  0  0
   10.2983  -21.0738   14.5968 C   0  0  0  0  0  0  0  0  0  0  0  0
    9.8549  -21.8527   15.7941 C   0  0  0  0  0  0  0  0  0  0  0  0
    9.3899  -23.1988   15.3886 C   0  0  2  0  0  0  0  0  0  0  0  0
    8.2412  -23.0476   14.5236 N   0  0  0  0  0  0  0  0  0  0  0  0
    8.9991  -24.0627   16.5332 C   0  0  0  0  0  0  0  0  0  0  0  0
    7.8501  -24.0910   17.0305 O   0  0  0  0  0  0  0  0  0  0  0  0
   14.3635  -20.8269   12.1193 N   0  0  0  0  0  0  0  0  0  0  0  0
    9.9617  -24.9129   17.1147 C   0  0  2  0  0  0  0  0  0  0  0  0
    9.7313  -25.8059   18.2111 C   0  0  0  0  0  0  0  0  0  0  0  0
   10.4255  -27.1287   18.0853 S   0  0  0  0  0  0  0  0  0  0  0  0
   10.3526  -28.1039   19.6083 C   0  0  0  0  0  0  0  0  0  0  0  0
   10.0435  -25.1199   19.4677 O   0  0  0  0  0  0  0  0  0  0  0  0
   11.1003  -24.4608   19.5986 C   0  0  0  0  0  0  0  0  0  0  0  0
    8.2069  -24.4138   22.6743 C   0  0  2  0  0  0  0  0  0  0  0  0
    9.4435  -24.5322   21.8034 N   0  0  0  0  0  0  0  0  0  0  0  0
    9.1529  -25.1886   20.5643 C   0  0  0  0  0  0  0  0  0  0  0  0
   10.4638  -25.3126   22.5395 O   0  0  0  0  0  0  0  0  0  0  0  0
   11.1810  -24.7718   23.5934 O   0  0  0  0  0  0  0  0  0  0  0  0
  2  1  1  0
  2  4  1  0
  3  2  2  0
  5  4  1  0
  6  5  1  0
  7  6  1  0
  7  8  1  0
  8 10  1  0
  8  9  1  6
 10 12  1  0
 11 10  2  0
 12 13  1  0
 13 16  1  0
 13 14  1  6
 15 14  1  0
 16 17  2  0
 16 20  1  0
 19 18  1  6
 19 21  1  0
 20 19  1  0
 21 23  2  0
 21 22  1  0
M  END
$$$$
