LRN.pdb
     RDKit          3D

 28 27  0  0  1  0  0  0  0  0999 V2000
   25.3842  -26.0635  -19.8043 C   0  0  0  0  0  0  0  0  0  0  0  0
   24.0292  -26.6468  -19.6375 C   0  0  2  0  0  0  0  0  0  0  0  0
   23.1907  -26.5315  -20.9040 C   0  0  0  0  0  0  0  0  0  0  0  0
   23.3136  -26.1822  -18.4404 C   0  0  0  0  0  0  0  0  0  0  0  0
   23.9981  -26.1259  -17.1354 C   0  0  2  0  0  0  0  0  0  0  0  0
   24.0702  -27.5232  -16.5895 N   0  0  0  0  0  0  0  0  0  0  0  0
   23.5231  -25.2196  -16.1031 C   0  0  0  0  0  0  0  0  0  0  0  0
   22.3768  -25.3930  -15.5593 O   0  0  0  0  0  0  0  0  0  0  0  0
   24.6027  -20.8082   -9.8253 N   0  0  0  0  0  0  0  0  0  0  0  0
   25.8781  -21.2053  -10.2869 C   0  0  0  0  0  0  0  0  0  0  0  0
   26.7683  -21.6807   -9.4778 N   0  0  0  0  0  0  0  0  0  0  0  0
   26.2395  -21.0993  -11.6722 N   0  0  0  0  0  0  0  0  0  0  0  0
   25.3649  -20.4442  -12.6361 C   0  0  0  0  0  0  0  0  0  0  0  0
   24.2542  -21.3434  -13.0778 C   0  0  0  0  0  0  0  0  0  0  0  0
   24.7557  -22.3262  -14.0784 C   0  0  0  0  0  0  0  0  0  0  0  0
   23.6627  -23.2155  -14.5975 C   0  0  2  0  0  0  0  0  0  0  0  0
   24.2677  -24.1027  -15.6277 N   0  0  0  0  0  0  0  0  0  0  0  0
   22.6583  -22.4289  -15.3331 C   0  0  0  0  0  0  0  0  0  0  0  0
   22.9683  -21.9803  -16.4950 O   0  0  0  0  0  0  0  0  0  0  0  0
   27.6992  -22.0069   -9.8360 N   0  0  0  0  0  0  0  0  0  0  0  0
   18.1141  -21.7320  -18.2612 C   0  0  0  0  0  0  0  0  0  0  0  0
   18.3726  -21.5096  -16.8612 O   0  0  0  0  0  0  0  0  0  0  0  0
   17.6714  -20.6582  -16.2775 C   0  0  0  0  0  0  0  0  0  0  0  0
   19.4216  -22.2722  -16.1947 C   0  0  1  0  0  0  0  0  0  0  0  0
   20.4613  -21.3344  -15.6041 N   0  0  0  0  0  0  0  0  0  0  0  0
   21.3868  -22.1693  -14.8078 C   0  0  0  0  0  0  0  0  0  0  0  0
   19.8826  -20.3405  -14.6839 O   0  0  0  0  0  0  0  0  0  0  0  0
   19.8625  -20.6054  -13.4411 O   0  0  0  0  0  0  0  0  0  0  0  0
  2  1  1  6
  2  3  1  0
  4  2  1  0
  5  4  1  0
  5  6  1  1
  7  5  1  0
  8  7  2  0
  9 10  1  0
 10 11  2  0
 12 13  1  0
 12 10  1  0
 13 14  1  0
 15 14  1  0
 16 15  1  6
 16 17  1  0
 17  7  1  0
 18 16  1  0
 18 19  2  0
 20 21  1  0
 21 22  2  0
 24 23  1  6
 23 21  1  0
 24 25  1  0
 25 18  1  0
 26 24  1  0
 27 26  2  0
 28 26  1  0
M  END
$$$$
