LRN.pdb
     RDKit          3D

 28 27  0  0  1  0  0  0  0  0999 V2000
   15.3118  -26.8916   -0.5419 C   0  0  0  0  0  0  0  0  0  0  0  0
   16.1350  -27.3583   -1.6858 C   0  0  2  0  0  0  0  0  0  0  0  0
   15.6847  -28.7178   -2.2050 C   0  0  0  0  0  0  0  0  0  0  0  0
   17.5852  -27.2926   -1.4542 C   0  0  0  0  0  0  0  0  0  0  0  0
   18.5303  -27.5472   -2.5572 C   0  0  2  0  0  0  0  0  0  0  0  0
   19.9235  -27.4556   -2.0039 N   0  0  0  0  0  0  0  0  0  0  0  0
   18.4388  -26.7766   -3.7863 C   0  0  0  0  0  0  0  0  0  0  0  0
   18.9464  -25.6033   -3.8605 O   0  0  0  0  0  0  0  0  0  0  0  0
   20.0682  -26.4706  -11.6192 N   0  0  0  0  0  0  0  0  0  0  0  0
   20.2484  -27.5553  -10.7314 C   0  0  0  0  0  0  0  0  0  0  0  0
   21.3716  -28.1936  -10.6683 N   0  0  0  0  0  0  0  0  0  0  0  0
   19.1940  -27.9942   -9.8616 N   0  0  0  0  0  0  0  0  0  0  0  0
   17.9102  -27.3062   -9.8192 C   0  0  0  0  0  0  0  0  0  0  0  0
   17.8033  -26.4044   -8.6306 C   0  0  0  0  0  0  0  0  0  0  0  0
   17.8937  -27.1982   -7.3734 C   0  0  0  0  0  0  0  0  0  0  0  0
   17.7109  -26.3466   -6.1502 C   0  0  2  0  0  0  0  0  0  0  0  0
   17.7992  -27.2468   -4.9686 N   0  0  0  0  0  0  0  0  0  0  0  0
   16.3439  -25.8014   -6.0962 C   0  0  0  0  0  0  0  0  0  0  0  0
   15.3975  -26.5704   -5.6960 O   0  0  0  0  0  0  0  0  0  0  0  0
   21.5179  -28.9535   -9.9596 N   0  0  0  0  0  0  0  0  0  0  0  0
   12.9932  -21.0923   -5.5083 C   0  0  0  0  0  0  0  0  0  0  0  0
   13.1922  -22.4857   -5.2001 O   0  0  0  0  0  0  0  0  0  0  0  0
   12.1840  -23.1541   -4.8933 C   0  0  0  0  0  0  0  0  0  0  0  0
   14.5359  -23.0490   -5.2572 C   0  0  2  0  0  0  0  0  0  0  0  0
   14.6457  -24.0358   -6.4076 N   0  0  0  0  0  0  0  0  0  0  0  0
   16.0557  -24.4797   -6.4569 C   0  0  0  0  0  0  0  0  0  0  0  0
   14.3419  -23.4305   -7.7155 O   0  0  0  0  0  0  0  0  0  0  0  0
   15.3091  -23.0405   -8.4417 O   0  0  0  0  0  0  0  0  0  0  0  0
  2  1  1  1
  2  3  1  0
  4  2  1  0
  5  4  1  0
  5  6  1  1
  7  5  1  0
  8  7  2  0
  9 10  1  0
 10 11  2  0
 12 13  1  0
 12 10  1  0
 13 14  1  0
 15 14  1  0
 16 15  1  6
 16 17  1  0
 17  7  1  0
 18 16  1  0
 18 19  2  0
 20 21  1  0
 21 22  2  0
 24 23  1  1
 23 21  1  0
 24 25  1  0
 25 18  1  0
 26 24  1  0
 27 26  2  0
 28 26  1  0
M  END
$$$$
