LRN.pdb
     RDKit          3D

 28 27  0  0  1  0  0  0  0  0999 V2000
   18.8220  -23.2474  -20.0630 C   0  0  0  0  0  0  0  0  0  0  0  0
   17.8000  -22.6461  -19.1696 C   0  0  2  0  0  0  0  0  0  0  0  0
   16.5300  -22.2644  -19.9193 C   0  0  0  0  0  0  0  0  0  0  0  0
   18.3044  -21.5579  -18.3196 C   0  0  0  0  0  0  0  0  0  0  0  0
   19.4966  -21.7603  -17.4756 C   0  0  2  0  0  0  0  0  0  0  0  0
   19.4685  -23.1725  -16.9651 N   0  0  0  0  0  0  0  0  0  0  0  0
   19.7755  -20.8476  -16.3793 C   0  0  0  0  0  0  0  0  0  0  0  0
   19.8204  -19.5833  -16.5779 O   0  0  0  0  0  0  0  0  0  0  0  0
   18.9709  -23.9805   -9.2456 N   0  0  0  0  0  0  0  0  0  0  0  0
   17.8395  -23.7952  -10.0720 C   0  0  0  0  0  0  0  0  0  0  0  0
   16.7107  -24.3678   -9.8054 N   0  0  0  0  0  0  0  0  0  0  0  0
   17.8940  -22.9634  -11.2408 N   0  0  0  0  0  0  0  0  0  0  0  0
   19.1285  -22.7982  -11.9970 C   0  0  0  0  0  0  0  0  0  0  0  0
   19.6904  -21.4201  -11.8472 C   0  0  0  0  0  0  0  0  0  0  0  0
   19.1581  -20.5291  -12.9155 C   0  0  0  0  0  0  0  0  0  0  0  0
   20.1808  -20.2419  -13.9769 C   0  0  2  0  0  0  0  0  0  0  0  0
   20.0137  -21.2694  -15.0402 N   0  0  0  0  0  0  0  0  0  0  0  0
   21.5420  -20.4646  -13.4606 C   0  0  0  0  0  0  0  0  0  0  0  0
   21.8026  -21.5874  -12.8962 O   0  0  0  0  0  0  0  0  0  0  0  0
   15.8969  -24.2813  -10.4622 N   0  0  0  0  0  0  0  0  0  0  0  0
   25.7942  -22.7254  -11.8037 C   0  0  0  0  0  0  0  0  0  0  0  0
   25.4556  -21.6084  -12.6486 O   0  0  0  0  0  0  0  0  0  0  0  0
   26.3593  -21.1433  -13.3727 C   0  0  0  0  0  0  0  0  0  0  0  0
   24.0984  -21.0758  -12.6253 C   0  0  2  0  0  0  0  0  0  0  0  0
   23.9521  -19.9596  -13.6460 N   0  0  0  0  0  0  0  0  0  0  0  0
   22.5485  -19.4984  -13.5768 C   0  0  0  0  0  0  0  0  0  0  0  0
   24.1866  -20.4102  -15.0286 O   0  0  0  0  0  0  0  0  0  0  0  0
   25.1178  -19.8594  -15.6953 O   0  0  0  0  0  0  0  0  0  0  0  0
  2  1  1  6
  2  3  1  0
  4  2  1  0
  5  4  1  0
  5  6  1  1
  7  5  1  0
  8  7  2  0
  9 10  1  0
 10 11  2  0
 12 13  1  0
 12 10  1  0
 13 14  1  0
 15 14  1  0
 16 15  1  1
 16 17  1  0
 17  7  1  0
 18 16  1  0
 18 19  2  0
 20 21  1  0
 21 22  2  0
 24 23  1  1
 23 21  1  0
 24 25  1  0
 25 18  1  0
 26 24  1  0
 27 26  2  0
 28 26  1  0
M  END
$$$$
