LRN.pdb
     RDKit          3D

 28 27  0  0  1  0  0  0  0  0999 V2000
   22.6963  -15.5415  -21.7259 C   0  0  0  0  0  0  0  0  0  0  0  0
   23.9687  -16.3046  -21.6748 C   0  0  2  0  0  0  0  0  0  0  0  0
   24.3267  -16.9218  -23.0207 C   0  0  0  0  0  0  0  0  0  0  0  0
   24.0511  -17.2701  -20.5694 C   0  0  0  0  0  0  0  0  0  0  0  0
   23.6039  -16.8954  -19.2150 C   0  0  2  0  0  0  0  0  0  0  0  0
   24.4685  -15.7636  -18.7383 N   0  0  0  0  0  0  0  0  0  0  0  0
   23.5029  -17.9071  -18.1762 C   0  0  0  0  0  0  0  0  0  0  0  0
   22.8376  -18.9830  -18.3753 O   0  0  0  0  0  0  0  0  0  0  0  0
   25.5524  -21.4068  -10.5926 N   0  0  0  0  0  0  0  0  0  0  0  0
   26.0712  -21.8746  -11.8211 C   0  0  0  0  0  0  0  0  0  0  0  0
   25.8344  -23.0761  -12.2375 N   0  0  0  0  0  0  0  0  0  0  0  0
   26.8815  -21.0369  -12.6594 N   0  0  0  0  0  0  0  0  0  0  0  0
   26.3789  -19.7723  -13.1802 C   0  0  0  0  0  0  0  0  0  0  0  0
   25.2892  -19.9797  -14.1836 C   0  0  0  0  0  0  0  0  0  0  0  0
   24.9091  -18.6806  -14.8054 C   0  0  0  0  0  0  0  0  0  0  0  0
   23.8708  -18.8469  -15.8774 C   0  0  2  0  0  0  0  0  0  0  0  0
   24.1144  -17.7893  -16.8955 N   0  0  0  0  0  0  0  0  0  0  0  0
   22.5280  -18.5486  -15.3510 C   0  0  0  0  0  0  0  0  0  0  0  0
   22.1732  -17.3194  -15.2502 O   0  0  0  0  0  0  0  0  0  0  0  0
   26.2841  -23.4389  -13.1135 N   0  0  0  0  0  0  0  0  0  0  0  0
   17.7105  -18.4846  -14.0624 C   0  0  0  0  0  0  0  0  0  0  0  0
   18.2366  -18.1380  -15.3584 O   0  0  0  0  0  0  0  0  0  0  0  0
   17.4521  -17.6093  -16.1722 C   0  0  0  0  0  0  0  0  0  0  0  0
   19.6360  -18.4127  -15.6622 C   0  0  1  0  0  0  0  0  0  0  0  0
   20.2880  -19.1626  -14.5125 N   0  0  0  0  0  0  0  0  0  0  0  0
   21.6369  -19.5595  -14.9714 C   0  0  0  0  0  0  0  0  0  0  0  0
   19.5756  -20.4017  -14.1566 O   0  0  0  0  0  0  0  0  0  0  0  0
   19.9549  -21.4922  -14.6875 O   0  0  0  0  0  0  0  0  0  0  0  0
  2  1  1  6
  2  3  1  0
  4  2  1  0
  5  4  1  0
  5  6  1  1
  7  5  1  0
  8  7  2  0
  9 10  1  0
 10 11  2  0
 12 13  1  0
 12 10  1  0
 13 14  1  0
 15 14  1  0
 16 15  1  1
 16 17  1  0
 17  7  1  0
 18 16  1  0
 18 19  2  0
 20 21  1  0
 21 22  2  0
 24 23  1  1
 23 21  1  0
 24 25  1  0
 25 18  1  0
 26 24  1  0
 27 26  2  0
 28 26  1  0
M  END
$$$$
