LRN.pdb
     RDKit          3D

 28 27  0  0  1  0  0  0  0  0999 V2000
   23.5177  -20.0995   -9.5215 C   0  0  0  0  0  0  0  0  0  0  0  0
   24.7992  -20.8481   -9.4832 C   0  0  2  0  0  0  0  0  0  0  0  0
   25.5442  -20.6513   -8.1691 C   0  0  0  0  0  0  0  0  0  0  0  0
   25.6578  -20.6383  -10.6577 C   0  0  0  0  0  0  0  0  0  0  0  0
   25.0675  -20.5254  -12.0044 C   0  0  2  0  0  0  0  0  0  0  0  0
   24.1808  -21.7177  -12.2229 N   0  0  0  0  0  0  0  0  0  0  0  0
   25.9260  -20.3335  -13.1615 C   0  0  0  0  0  0  0  0  0  0  0  0
   26.6879  -19.3077  -13.2461 O   0  0  0  0  0  0  0  0  0  0  0  0
   31.6567  -24.4467  -18.2865 N   0  0  0  0  0  0  0  0  0  0  0  0
   31.3479  -24.5265  -16.9097 C   0  0  0  0  0  0  0  0  0  0  0  0
   32.1611  -25.0785  -16.0687 N   0  0  0  0  0  0  0  0  0  0  0  0
   30.1202  -23.9980  -16.3857 N   0  0  0  0  0  0  0  0  0  0  0  0
   29.0991  -23.4404  -17.2630 C   0  0  0  0  0  0  0  0  0  0  0  0
   28.6252  -22.1051  -16.7837 C   0  0  0  0  0  0  0  0  0  0  0  0
   27.5148  -22.2747  -15.8054 C   0  0  0  0  0  0  0  0  0  0  0  0
   26.9320  -20.9595  -15.3748 C   0  0  2  0  0  0  0  0  0  0  0  0
   25.9885  -21.2392  -14.2586 N   0  0  0  0  0  0  0  0  0  0  0  0
   26.0859  -20.3928  -16.4387 C   0  0  0  0  0  0  0  0  0  0  0  0
   26.6591  -19.9190  -17.4847 O   0  0  0  0  0  0  0  0  0  0  0  0
   31.9184  -25.1409  -15.0497 N   0  0  0  0  0  0  0  0  0  0  0  0
   23.4212  -23.1782  -18.5651 C   0  0  0  0  0  0  0  0  0  0  0  0
   23.5580  -21.7659  -18.8161 O   0  0  0  0  0  0  0  0  0  0  0  0
   24.2278  -21.4234  -19.8118 C   0  0  0  0  0  0  0  0  0  0  0  0
   22.9216  -20.8116  -17.9158 C   0  0  2  0  0  0  0  0  0  0  0  0
   23.9260  -19.7668  -17.4590 N   0  0  0  0  0  0  0  0  0  0  0  0
   24.6893  -20.3668  -16.3432 C   0  0  0  0  0  0  0  0  0  0  0  0
   23.2886  -18.5471  -16.9341 O   0  0  0  0  0  0  0  0  0  0  0  0
   23.3148  -18.3418  -15.6802 O   0  0  0  0  0  0  0  0  0  0  0  0
  2  1  1  6
  2  3  1  0
  4  2  1  0
  5  4  1  0
  5  6  1  6
  7  5  1  0
  8  7  2  0
  9 10  1  0
 10 11  2  0
 12 13  1  0
 12 10  1  0
 13 14  1  0
 15 14  1  0
 16 15  1  6
 16 17  1  0
 17  7  1  0
 18 16  1  0
 18 19  2  0
 20 21  1  0
 21 22  2  0
 24 23  1  6
 23 21  1  0
 24 25  1  0
 25 18  1  0
 26 24  1  0
 27 26  2  0
 28 26  1  0
M  END
$$$$
