LRN.pdb
     RDKit          3D

 28 27  0  0  1  0  0  0  0  0999 V2000
   25.2412  -13.2613  -16.7845 C   0  0  0  0  0  0  0  0  0  0  0  0
   26.2866  -14.0877  -17.4390 C   0  0  2  0  0  0  0  0  0  0  0  0
   26.5525  -13.6523  -18.8744 C   0  0  0  0  0  0  0  0  0  0  0  0
   26.0765  -15.5374  -17.3168 C   0  0  0  0  0  0  0  0  0  0  0  0
   25.6573  -16.1260  -16.0312 C   0  0  2  0  0  0  0  0  0  0  0  0
   26.7889  -15.9647  -15.0569 N   0  0  0  0  0  0  0  0  0  0  0  0
   25.1595  -17.4908  -15.9837 C   0  0  0  0  0  0  0  0  0  0  0  0
   25.8115  -18.4431  -16.5384 O   0  0  0  0  0  0  0  0  0  0  0  0
   27.3406  -21.4328  -10.2341 N   0  0  0  0  0  0  0  0  0  0  0  0
   25.9942  -21.0466  -10.0466 C   0  0  0  0  0  0  0  0  0  0  0  0
   25.5121  -20.8393   -8.8644 N   0  0  0  0  0  0  0  0  0  0  0  0
   25.1048  -20.8667  -11.1592 N   0  0  0  0  0  0  0  0  0  0  0  0
   25.3628  -21.4995  -12.4462 C   0  0  0  0  0  0  0  0  0  0  0  0
   24.3490  -21.1034  -13.4720 C   0  0  0  0  0  0  0  0  0  0  0  0
   24.5848  -19.7003  -13.9127 C   0  0  0  0  0  0  0  0  0  0  0  0
   23.6956  -19.3079  -15.0573 C   0  0  2  0  0  0  0  0  0  0  0  0
   23.9475  -17.8684  -15.3384 N   0  0  0  0  0  0  0  0  0  0  0  0
   22.2792  -19.3623  -14.6574 C   0  0  0  0  0  0  0  0  0  0  0  0
   21.8446  -18.4779  -13.8352 O   0  0  0  0  0  0  0  0  0  0  0  0
   24.5169  -20.5317   -8.7370 N   0  0  0  0  0  0  0  0  0  0  0  0
   18.8580  -18.9087  -16.7497 C   0  0  0  0  0  0  0  0  0  0  0  0
   18.7044  -20.3407  -16.7941 O   0  0  0  0  0  0  0  0  0  0  0  0
   18.1408  -20.8254  -17.7964 C   0  0  0  0  0  0  0  0  0  0  0  0
   19.2030  -21.1510  -15.6891 C   0  0  2  0  0  0  0  0  0  0  0  0
   19.9912  -20.2894  -14.7168 N   0  0  0  0  0  0  0  0  0  0  0  0
   21.4039  -20.3365  -15.1523 C   0  0  0  0  0  0  0  0  0  0  0  0
   19.9524  -20.7985  -13.3352 O   0  0  0  0  0  0  0  0  0  0  0  0
   20.7296  -21.7531  -13.0196 O   0  0  0  0  0  0  0  0  0  0  0  0
  2  1  1  6
  2  3  1  0
  4  2  1  0
  5  4  1  0
  5  6  1  1
  7  5  1  0
  8  7  2  0
  9 10  1  0
 10 11  2  0
 12 13  1  0
 12 10  1  0
 13 14  1  0
 15 14  1  0
 16 15  1  1
 16 17  1  0
 17  7  1  0
 18 16  1  0
 18 19  2  0
 20 21  1  0
 21 22  2  0
 24 23  1  6
 23 21  1  0
 24 25  1  0
 25 18  1  0
 26 24  1  0
 27 26  2  0
 28 26  1  0
M  END
$$$$
