LRN.pdb
     RDKit          3D

 28 27  0  0  1  0  0  0  0  0999 V2000
   27.5696  -19.8649  -20.3270 C   0  0  0  0  0  0  0  0  0  0  0  0
   27.8018  -21.3035  -20.6105 C   0  0  2  0  0  0  0  0  0  0  0  0
   27.1747  -21.7412  -21.9280 C   0  0  0  0  0  0  0  0  0  0  0  0
   27.4646  -22.2019  -19.4969 C   0  0  0  0  0  0  0  0  0  0  0  0
   27.9086  -21.8911  -18.1254 C   0  0  2  0  0  0  0  0  0  0  0  0
   29.2550  -22.5241  -17.9198 N   0  0  0  0  0  0  0  0  0  0  0  0
   27.0462  -22.1939  -16.9952 C   0  0  0  0  0  0  0  0  0  0  0  0
   26.6157  -23.3846  -16.8032 O   0  0  0  0  0  0  0  0  0  0  0  0
   26.2862  -20.0401   -8.5090 N   0  0  0  0  0  0  0  0  0  0  0  0
   25.2077  -20.7674   -9.0615 C   0  0  0  0  0  0  0  0  0  0  0  0
   24.0097  -20.6596   -8.5858 N   0  0  0  0  0  0  0  0  0  0  0  0
   25.3952  -21.6554  -10.1738 N   0  0  0  0  0  0  0  0  0  0  0  0
   26.1703  -21.2555  -11.3411 C   0  0  0  0  0  0  0  0  0  0  0  0
   25.2973  -21.0211  -12.5328 C   0  0  0  0  0  0  0  0  0  0  0  0
   26.1320  -20.7426  -13.7346 C   0  0  0  0  0  0  0  0  0  0  0  0
   25.8099  -21.6645  -14.8753 C   0  0  2  0  0  0  0  0  0  0  0  0
   26.6236  -21.2249  -16.0411 N   0  0  0  0  0  0  0  0  0  0  0  0
   24.4148  -21.4842  -15.3111 C   0  0  0  0  0  0  0  0  0  0  0  0
   24.1110  -20.4148  -15.9524 O   0  0  0  0  0  0  0  0  0  0  0  0
   23.2075  -21.1682   -9.0319 N   0  0  0  0  0  0  0  0  0  0  0  0
   19.6471  -19.7154  -13.5985 C   0  0  0  0  0  0  0  0  0  0  0  0
   20.1510  -20.9025  -14.2413 O   0  0  0  0  0  0  0  0  0  0  0  0
   19.3376  -21.5919  -14.8896 C   0  0  0  0  0  0  0  0  0  0  0  0
   21.5624  -21.2450  -14.1119 C   0  0  2  0  0  0  0  0  0  0  0  0
   22.0162  -22.0711  -15.3039 N   0  0  0  0  0  0  0  0  0  0  0  0
   23.4262  -22.4419  -15.0550 C   0  0  0  0  0  0  0  0  0  0  0  0
   21.9890  -21.3179  -16.5694 O   0  0  0  0  0  0  0  0  0  0  0  0
   21.6128  -21.9191  -17.6239 O   0  0  0  0  0  0  0  0  0  0  0  0
  2  1  1  1
  2  3  1  0
  4  2  1  0
  5  4  1  0
  5  6  1  1
  7  5  1  0
  8  7  2  0
  9 10  1  0
 10 11  2  0
 12 13  1  0
 12 10  1  0
 13 14  1  0
 15 14  1  0
 16 15  1  1
 16 17  1  0
 17  7  1  0
 18 16  1  0
 18 19  2  0
 20 21  1  0
 21 22  2  0
 24 23  1  1
 23 21  1  0
 24 25  1  0
 25 18  1  0
 26 24  1  0
 27 26  2  0
 28 26  1  0
M  END
$$$$
