LRN.pdb
     RDKit          3D

 28 27  0  0  1  0  0  0  0  0999 V2000
   25.4152  -12.9680  -17.3445 C   0  0  0  0  0  0  0  0  0  0  0  0
   26.6169  -13.7134  -16.8927 C   0  0  2  0  0  0  0  0  0  0  0  0
   27.8530  -13.3689  -17.7137 C   0  0  0  0  0  0  0  0  0  0  0  0
   26.4140  -15.1629  -16.7561 C   0  0  0  0  0  0  0  0  0  0  0  0
   25.2112  -15.6890  -16.0844 C   0  0  2  0  0  0  0  0  0  0  0  0
   25.1774  -15.1307  -14.6905 N   0  0  0  0  0  0  0  0  0  0  0  0
   24.9674  -17.1215  -16.0453 C   0  0  0  0  0  0  0  0  0  0  0  0
   24.9476  -17.8099  -17.1249 O   0  0  0  0  0  0  0  0  0  0  0  0
   29.7641  -22.1348  -12.2398 N   0  0  0  0  0  0  0  0  0  0  0  0
   28.7042  -21.3857  -11.6805 C   0  0  0  0  0  0  0  0  0  0  0  0
   28.7972  -20.8667  -10.4994 N   0  0  0  0  0  0  0  0  0  0  0  0
   27.4805  -21.1679  -12.3990 N   0  0  0  0  0  0  0  0  0  0  0  0
   27.2059  -21.8545  -13.6545 C   0  0  0  0  0  0  0  0  0  0  0  0
   25.9417  -21.3670  -14.2882 C   0  0  0  0  0  0  0  0  0  0  0  0
   25.8676  -19.8814  -14.2106 C   0  0  0  0  0  0  0  0  0  0  0  0
   24.6535  -19.3366  -14.9063 C   0  0  2  0  0  0  0  0  0  0  0  0
   24.7385  -17.8522  -14.8447 N   0  0  0  0  0  0  0  0  0  0  0  0
   23.4314  -19.6668  -14.1536 C   0  0  0  0  0  0  0  0  0  0  0  0
   23.3480  -19.2854  -12.9311 O   0  0  0  0  0  0  0  0  0  0  0  0
   28.0068  -20.3068  -10.0956 N   0  0  0  0  0  0  0  0  0  0  0  0
   18.5082  -18.4909  -15.6646 C   0  0  0  0  0  0  0  0  0  0  0  0
   19.5138  -18.9712  -14.7511 O   0  0  0  0  0  0  0  0  0  0  0  0
   19.9585  -18.1618  -13.9118 C   0  0  0  0  0  0  0  0  0  0  0  0
   19.9632  -20.3554  -14.8410 C   0  0  2  0  0  0  0  0  0  0  0  0
   21.1510  -20.5851  -13.9215 N   0  0  0  0  0  0  0  0  0  0  0  0
   22.3681  -20.3691  -14.7335 C   0  0  0  0  0  0  0  0  0  0  0  0
   21.2204  -21.9628  -13.4049 O   0  0  0  0  0  0  0  0  0  0  0  0
   20.6974  -22.2124  -12.2739 O   0  0  0  0  0  0  0  0  0  0  0  0
  2  1  1  6
  2  3  1  0
  4  2  1  0
  5  4  1  0
  5  6  1  1
  7  5  1  0
  8  7  2  0
  9 10  1  0
 10 11  2  0
 12 13  1  0
 12 10  1  0
 13 14  1  0
 15 14  1  0
 16 15  1  1
 16 17  1  0
 17  7  1  0
 18 16  1  0
 18 19  2  0
 20 21  1  0
 21 22  2  0
 24 23  1  1
 23 21  1  0
 24 25  1  0
 25 18  1  0
 26 24  1  0
 27 26  2  0
 28 26  1  0
M  END
$$$$
