LRN.pdb
     RDKit          3D

 28 27  0  0  1  0  0  0  0  0999 V2000
   28.9771  -18.7045  -15.9740 C   0  0  0  0  0  0  0  0  0  0  0  0
   27.8467  -19.0013  -16.8895 C   0  0  2  0  0  0  0  0  0  0  0  0
   27.5080  -17.8209  -17.7908 C   0  0  0  0  0  0  0  0  0  0  0  0
   26.6624  -19.5649  -16.2257 C   0  0  0  0  0  0  0  0  0  0  0  0
   26.8047  -20.6535  -15.2411 C   0  0  2  0  0  0  0  0  0  0  0  0
   27.3302  -21.8628  -15.9602 N   0  0  0  0  0  0  0  0  0  0  0  0
   25.6769  -21.0310  -14.4055 C   0  0  0  0  0  0  0  0  0  0  0  0
   24.6741  -21.6522  -14.9041 O   0  0  0  0  0  0  0  0  0  0  0  0
   20.7363  -21.0627   -8.3096 N   0  0  0  0  0  0  0  0  0  0  0  0
   21.7120  -21.8442   -7.6505 C   0  0  0  0  0  0  0  0  0  0  0  0
   21.3805  -22.8612   -6.9232 N   0  0  0  0  0  0  0  0  0  0  0  0
   23.1116  -21.5440   -7.7606 N   0  0  0  0  0  0  0  0  0  0  0  0
   23.5900  -20.4589   -8.6073 C   0  0  0  0  0  0  0  0  0  0  0  0
   23.2970  -20.7123  -10.0520 C   0  0  0  0  0  0  0  0  0  0  0  0
   24.5621  -20.7262  -10.8382 C   0  0  0  0  0  0  0  0  0  0  0  0
   24.3246  -21.0264  -12.2902 C   0  0  2  0  0  0  0  0  0  0  0  0
   25.5967  -20.7509  -13.0116 N   0  0  0  0  0  0  0  0  0  0  0  0
   23.3608  -20.0738  -12.8669 C   0  0  0  0  0  0  0  0  0  0  0  0
   23.7483  -18.8685  -13.0777 O   0  0  0  0  0  0  0  0  0  0  0  0
   22.1136  -23.4440   -6.4497 N   0  0  0  0  0  0  0  0  0  0  0  0
   21.6961  -17.8036  -17.2021 C   0  0  0  0  0  0  0  0  0  0  0  0
   21.4341  -18.0480  -15.8064 O   0  0  0  0  0  0  0  0  0  0  0  0
   21.1701  -17.0597  -15.0917 C   0  0  0  0  0  0  0  0  0  0  0  0
   21.4867  -19.4122  -15.2940 C   0  0  2  0  0  0  0  0  0  0  0  0
   21.1704  -19.4300  -13.8079 N   0  0  0  0  0  0  0  0  0  0  0  0
   22.0521  -20.4473  -13.1954 C   0  0  0  0  0  0  0  0  0  0  0  0
   19.7842  -19.8362  -13.5198 O   0  0  0  0  0  0  0  0  0  0  0  0
   18.8591  -18.9766  -13.6628 O   0  0  0  0  0  0  0  0  0  0  0  0
  2  1  1  1
  2  3  1  0
  4  2  1  0
  5  4  1  0
  5  6  1  6
  7  5  1  0
  8  7  2  0
  9 10  1  0
 10 11  2  0
 12 13  1  0
 12 10  1  0
 13 14  1  0
 15 14  1  0
 16 15  1  1
 16 17  1  0
 17  7  1  0
 18 16  1  0
 18 19  2  0
 20 21  1  0
 21 22  2  0
 24 23  1  1
 23 21  1  0
 24 25  1  0
 25 18  1  0
 26 24  1  0
 27 26  2  0
 28 26  1  0
M  END
$$$$
