LRN.pdb
     RDKit          3D

 28 27  0  0  1  0  0  0  0  0999 V2000
   32.7619  -21.1612   -9.7196 C   0  0  0  0  0  0  0  0  0  0  0  0
   31.7931  -22.0484   -9.0280 C   0  0  2  0  0  0  0  0  0  0  0  0
   32.4519  -23.3085   -8.4813 C   0  0  0  0  0  0  0  0  0  0  0  0
   30.5766  -22.3357   -9.8018 C   0  0  0  0  0  0  0  0  0  0  0  0
   29.7391  -21.2351  -10.3134 C   0  0  2  0  0  0  0  0  0  0  0  0
   28.8604  -20.7613   -9.1913 N   0  0  0  0  0  0  0  0  0  0  0  0
   28.9422  -21.4247  -11.5142 C   0  0  0  0  0  0  0  0  0  0  0  0
   29.4596  -21.9398  -12.5664 O   0  0  0  0  0  0  0  0  0  0  0  0
   20.7553  -19.8212  -11.4510 N   0  0  0  0  0  0  0  0  0  0  0  0
   21.2094  -20.4430  -12.6361 C   0  0  0  0  0  0  0  0  0  0  0  0
   20.5926  -20.2785  -13.7610 N   0  0  0  0  0  0  0  0  0  0  0  0
   22.3742  -21.2822  -12.6424 N   0  0  0  0  0  0  0  0  0  0  0  0
   23.2923  -21.3136  -11.5114 C   0  0  0  0  0  0  0  0  0  0  0  0
   24.6399  -20.7767  -11.8759 C   0  0  0  0  0  0  0  0  0  0  0  0
   25.4686  -21.8469  -12.4977 C   0  0  0  0  0  0  0  0  0  0  0  0
   26.8359  -21.3567  -12.8786 C   0  0  2  0  0  0  0  0  0  0  0  0
   27.5679  -21.0659  -11.6161 N   0  0  0  0  0  0  0  0  0  0  0  0
   26.7495  -20.0551  -13.5622 C   0  0  0  0  0  0  0  0  0  0  0  0
   26.6354  -18.9973  -12.8445 O   0  0  0  0  0  0  0  0  0  0  0  0
   20.9444  -20.7354  -14.6377 N   0  0  0  0  0  0  0  0  0  0  0  0
   29.1779  -16.8723  -17.8533 C   0  0  0  0  0  0  0  0  0  0  0  0
   28.1983  -17.0573  -16.8128 O   0  0  0  0  0  0  0  0  0  0  0  0
   27.4030  -16.1191  -16.6016 C   0  0  0  0  0  0  0  0  0  0  0  0
   28.1748  -18.3075  -16.0628 C   0  0  2  0  0  0  0  0  0  0  0  0
   26.7728  -18.5877  -15.5481 N   0  0  0  0  0  0  0  0  0  0  0  0
   26.7974  -19.9432  -14.9569 C   0  0  0  0  0  0  0  0  0  0  0  0
   25.7605  -18.6060  -16.6179 O   0  0  0  0  0  0  0  0  0  0  0  0
   25.4316  -19.7255  -17.1214 O   0  0  0  0  0  0  0  0  0  0  0  0
  2  1  1  6
  2  3  1  0
  4  2  1  0
  5  4  1  0
  5  6  1  1
  7  5  1  0
  8  7  2  0
  9 10  1  0
 10 11  2  0
 12 13  1  0
 12 10  1  0
 13 14  1  0
 15 14  1  0
 16 15  1  1
 16 17  1  0
 17  7  1  0
 18 16  1  0
 18 19  2  0
 20 21  1  0
 21 22  2  0
 24 23  1  1
 23 21  1  0
 24 25  1  0
 25 18  1  0
 26 24  1  0
 27 26  2  0
 28 26  1  0
M  END
$$$$
