IYT.pdb
     RDKit          3D

 28 28  0  0  1  0  0  0  0  0999 V2000
   20.3237  -14.2781  -19.7838 C   0  0  0  0  0  0  0  0  0  0  0  0
   21.5736  -13.8385  -19.0703 C   0  0  0  0  0  0  0  0  0  0  0  0
   21.2842  -12.7690  -18.0351 C   0  0  2  0  0  0  0  0  0  0  0  0
   20.5279  -11.6071  -18.6031 C   0  0  0  0  0  0  0  0  0  0  0  0
   22.5798  -12.3911  -17.3938 C   0  0  2  0  0  0  0  0  0  0  0  0
   23.1974  -13.5944  -16.8701 N   0  0  0  0  0  0  0  0  0  0  0  0
   22.4229  -11.3536  -16.3433 C   0  0  0  0  0  0  0  0  0  0  0  0
   21.8075  -11.6357  -15.2826 O   0  0  0  0  0  0  0  0  0  0  0  0
   28.7503  -10.7356  -17.1147 O   0  0  0  0  0  0  0  0  0  0  0  0
   27.5858  -10.2989  -16.4912 C   0  0  0  0  0  0  0  0  0  0  0  0
   27.1049  -10.8984  -15.3458 C   0  0  0  0  0  0  0  0  0  0  0  0
   25.9462  -10.4322  -14.7616 C   0  0  0  0  0  0  0  0  0  0  0  0
   25.2170   -9.3766  -15.2616 C   0  0  0  0  0  0  0  0  0  0  0  0
   23.9836   -8.8827  -14.6363 C   0  0  0  0  0  0  0  0  0  0  0  0
   22.7281   -9.0098  -15.4138 C   0  0  2  0  0  0  0  0  0  0  0  0
   22.9314  -10.0446  -16.4637 N   0  0  0  0  0  0  0  0  0  0  0  0
   22.1798   -7.8569  -16.0838 C   0  0  0  0  0  0  0  0  0  0  0  0
   22.8317   -7.3310  -17.0628 O   0  0  0  0  0  0  0  0  0  0  0  0
   25.7217   -8.7874  -16.4182 C   0  0  0  0  0  0  0  0  0  0  0  0
   26.8814   -9.2354  -17.0241 C   0  0  0  0  0  0  0  0  0  0  0  0
   19.6659   -7.5069  -18.4875 C   0  0  0  0  0  0  0  0  0  0  0  0
   19.2863   -6.4642  -17.4595 C   0  0  1  0  0  0  0  0  0  0  0  0
   18.3410   -7.0602  -16.6144 O   0  0  0  0  0  0  0  0  0  0  0  0
   20.4945   -6.0747  -16.6234 C   0  0  2  0  0  0  0  0  0  0  0  0
   20.9527   -7.1769  -15.8139 N   0  0  0  0  0  0  0  0  0  0  0  0
   20.2247   -4.9052  -15.7813 C   0  0  0  0  0  0  0  0  0  0  0  0
   19.9995   -3.6575  -16.3012 O   0  0  0  0  0  0  0  0  0  0  0  0
   20.1956   -5.0338  -14.5299 O   0  0  0  0  0  0  0  0  0  0  0  0
  2  3  1  0
  2  1  1  0
  3  4  1  6
  5  3  1  0
  5  6  1  1
  7  5  1  0
  8  7  2  0
  9 10  1  0
 10 11  2  0
 10 20  1  0
 11 12  1  0
 12 13  2  0
 13 14  1  0
 15 14  1  6
 15 16  1  0
 16  7  1  0
 17 15  1  0
 17 18  2  0
 19 13  1  0
 20 19  2  0
 22 24  1  0
 22 21  1  6
 23 22  1  0
 24 25  1  1
 25 17  1  0
 26 24  1  0
 27 26  1  0
 28 26  2  0
M  END
$$$$
