IYT.pdb
     RDKit          3D

 28 28  0  0  1  0  0  0  0  0999 V2000
   24.8273   -8.1336  -22.1806 C   0  0  0  0  0  0  0  0  0  0  0  0
   25.0166   -9.1408  -21.0784 C   0  0  0  0  0  0  0  0  0  0  0  0
   23.9055   -9.0646  -20.0495 C   0  0  2  0  0  0  0  0  0  0  0  0
   23.7714   -7.6998  -19.4462 C   0  0  0  0  0  0  0  0  0  0  0  0
   24.1360  -10.1483  -19.0468 C   0  0  2  0  0  0  0  0  0  0  0  0
   24.2474  -11.4089  -19.7554 N   0  0  0  0  0  0  0  0  0  0  0  0
   23.0846  -10.1989  -17.9997 C   0  0  0  0  0  0  0  0  0  0  0  0
   22.0243  -10.8402  -18.2185 O   0  0  0  0  0  0  0  0  0  0  0  0
   23.5428  -15.9406  -15.1533 O   0  0  0  0  0  0  0  0  0  0  0  0
   23.3004  -14.5780  -15.0117 C   0  0  0  0  0  0  0  0  0  0  0  0
   22.0554  -14.0322  -15.2460 C   0  0  0  0  0  0  0  0  0  0  0  0
   21.8608  -12.6757  -15.0931 C   0  0  0  0  0  0  0  0  0  0  0  0
   22.8570  -11.8054  -14.7108 C   0  0  0  0  0  0  0  0  0  0  0  0
   22.6457  -10.3614  -14.5488 C   0  0  0  0  0  0  0  0  0  0  0  0
   22.1302   -9.6133  -15.7200 C   0  0  2  0  0  0  0  0  0  0  0  0
   23.2036   -9.5594  -16.7493 N   0  0  0  0  0  0  0  0  0  0  0  0
   21.6594   -8.2605  -15.5562 C   0  0  0  0  0  0  0  0  0  0  0  0
   22.4724   -7.3617  -15.1192 O   0  0  0  0  0  0  0  0  0  0  0  0
   24.1049  -12.3791  -14.4800 C   0  0  0  0  0  0  0  0  0  0  0  0
   24.3271  -13.7363  -14.6260 C   0  0  0  0  0  0  0  0  0  0  0  0
   20.1397   -5.9637  -18.1682 C   0  0  0  0  0  0  0  0  0  0  0  0
   19.2995   -5.8196  -16.9186 C   0  0  1  0  0  0  0  0  0  0  0  0
   18.1672   -6.6240  -17.1021 O   0  0  0  0  0  0  0  0  0  0  0  0
   20.0568   -6.3324  -15.7045 C   0  0  2  0  0  0  0  0  0  0  0  0
   20.3574   -7.7378  -15.8259 N   0  0  0  0  0  0  0  0  0  0  0  0
   19.3312   -6.0753  -14.4567 C   0  0  0  0  0  0  0  0  0  0  0  0
   19.0688   -4.8092  -14.0031 O   0  0  0  0  0  0  0  0  0  0  0  0
   18.9266   -7.0434  -13.7621 O   0  0  0  0  0  0  0  0  0  0  0  0
  2  3  1  0
  2  1  1  0
  3  4  1  1
  5  3  1  0
  5  6  1  6
  7  5  1  0
  8  7  2  0
  9 10  1  0
 10 11  2  0
 10 20  1  0
 11 12  1  0
 12 13  2  0
 13 14  1  0
 15 14  1  1
 15 16  1  0
 16  7  1  0
 17 15  1  0
 17 18  2  0
 19 13  1  0
 20 19  2  0
 22 24  1  0
 22 21  1  6
 23 22  1  0
 24 25  1  6
 25 17  1  0
 26 24  1  0
 27 26  1  0
 28 26  2  0
M  END
$$$$
