IYT.pdb
     RDKit          3D

 28 28  0  0  1  0  0  0  0  0999 V2000
   29.5623  -18.1852  -17.7867 C   0  0  0  0  0  0  0  0  0  0  0  0
   28.3170  -19.0204  -17.6592 C   0  0  0  0  0  0  0  0  0  0  0  0
   27.6780  -18.8730  -16.2920 C   0  0  2  0  0  0  0  0  0  0  0  0
   28.6069  -19.2493  -15.1783 C   0  0  0  0  0  0  0  0  0  0  0  0
   26.3993  -19.6461  -16.2994 C   0  0  2  0  0  0  0  0  0  0  0  0
   25.5911  -19.1799  -17.4098 N   0  0  0  0  0  0  0  0  0  0  0  0
   25.6648  -19.5590  -15.0119 C   0  0  0  0  0  0  0  0  0  0  0  0
   25.1465  -18.4650  -14.6685 O   0  0  0  0  0  0  0  0  0  0  0  0
   19.1055  -19.7141   -9.7127 O   0  0  0  0  0  0  0  0  0  0  0  0
   20.1725  -20.1003  -10.5174 C   0  0  0  0  0  0  0  0  0  0  0  0
   21.1456  -20.9687  -10.0683 C   0  0  0  0  0  0  0  0  0  0  0  0
   22.1856  -21.3243  -10.9008 C   0  0  0  0  0  0  0  0  0  0  0  0
   22.3199  -20.8554  -12.1885 C   0  0  0  0  0  0  0  0  0  0  0  0
   23.4288  -21.2367  -13.0723 C   0  0  0  0  0  0  0  0  0  0  0  0
   24.7272  -20.5508  -12.8700 C   0  0  2  0  0  0  0  0  0  0  0  0
   25.5092  -20.6492  -14.1322 N   0  0  0  0  0  0  0  0  0  0  0  0
   25.6090  -20.9817  -11.8139 C   0  0  0  0  0  0  0  0  0  0  0  0
   26.4302  -21.9489  -12.0376 O   0  0  0  0  0  0  0  0  0  0  0  0
   21.3259  -19.9804  -12.6198 C   0  0  0  0  0  0  0  0  0  0  0  0
   20.2723  -19.6076  -11.8052 C   0  0  0  0  0  0  0  0  0  0  0  0
   28.2046  -21.5355  -11.4834 C   0  0  0  0  0  0  0  0  0  0  0  0
   28.1229  -20.7957  -10.1665 C   0  0  1  0  0  0  0  0  0  0  0  0
   28.3560  -19.4438  -10.4513 O   0  0  0  0  0  0  0  0  0  0  0  0
   26.7316  -20.9237   -9.5680 C   0  0  2  0  0  0  0  0  0  0  0  0
   25.7186  -20.4651  -10.4864 N   0  0  0  0  0  0  0  0  0  0  0  0
   26.6166  -20.2133   -8.2906 C   0  0  0  0  0  0  0  0  0  0  0  0
   27.4264  -20.4855   -7.2192 O   0  0  0  0  0  0  0  0  0  0  0  0
   25.7452  -19.3158   -8.1548 O   0  0  0  0  0  0  0  0  0  0  0  0
  2  3  1  0
  2  1  1  0
  3  4  1  1
  5  3  1  0
  5  6  1  6
  7  5  1  0
  8  7  2  0
  9 10  1  0
 10 11  2  0
 10 20  1  0
 11 12  1  0
 12 13  2  0
 13 14  1  0
 15 14  1  6
 15 16  1  0
 16  7  1  0
 17 15  1  0
 17 18  2  0
 19 13  1  0
 20 19  2  0
 22 24  1  0
 22 21  1  6
 23 22  1  0
 24 25  1  6
 25 17  1  0
 26 24  1  0
 27 26  1  0
 28 26  2  0
M  END
$$$$
