IYT.pdb
     RDKit          3D

 28 28  0  0  1  0  0  0  0  0999 V2000
   28.9230  -19.6182  -18.9955 C   0  0  0  0  0  0  0  0  0  0  0  0
   28.2714  -18.2759  -18.8001 C   0  0  0  0  0  0  0  0  0  0  0  0
   27.5309  -18.1967  -17.4793 C   0  0  2  0  0  0  0  0  0  0  0  0
   28.4423  -18.3361  -16.2985 C   0  0  0  0  0  0  0  0  0  0  0  0
   26.4273  -19.2035  -17.5130 C   0  0  2  0  0  0  0  0  0  0  0  0
   25.6508  -18.9889  -18.7190 N   0  0  0  0  0  0  0  0  0  0  0  0
   25.5747  -19.1661  -16.2979 C   0  0  0  0  0  0  0  0  0  0  0  0
   25.2575  -18.0553  -15.7991 O   0  0  0  0  0  0  0  0  0  0  0  0
   18.9726  -20.9550  -10.6792 O   0  0  0  0  0  0  0  0  0  0  0  0
   19.9273  -20.8913  -11.6891 C   0  0  0  0  0  0  0  0  0  0  0  0
   20.2201  -19.7110  -12.3402 C   0  0  0  0  0  0  0  0  0  0  0  0
   21.1743  -19.6945  -13.3355 C   0  0  0  0  0  0  0  0  0  0  0  0
   21.8740  -20.8118  -13.7332 C   0  0  0  0  0  0  0  0  0  0  0  0
   22.8897  -20.7901  -14.7934 C   0  0  0  0  0  0  0  0  0  0  0  0
   24.2287  -20.2598  -14.4425 C   0  0  2  0  0  0  0  0  0  0  0  0
   25.0885  -20.3225  -15.6554 N   0  0  0  0  0  0  0  0  0  0  0  0
   24.9857  -20.8709  -13.3786 C   0  0  0  0  0  0  0  0  0  0  0  0
   25.4340  -22.0686  -13.5352 O   0  0  0  0  0  0  0  0  0  0  0  0
   21.5615  -21.9913  -13.0619 C   0  0  0  0  0  0  0  0  0  0  0  0
   20.6089  -22.0354  -12.0602 C   0  0  0  0  0  0  0  0  0  0  0  0
   27.9589  -20.5275  -12.0874 C   0  0  0  0  0  0  0  0  0  0  0  0
   27.2952  -21.0169  -10.8192 C   0  0  1  0  0  0  0  0  0  0  0  0
   27.5351  -20.0437   -9.8402 O   0  0  0  0  0  0  0  0  0  0  0  0
   25.7926  -21.1356  -11.0150 C   0  0  2  0  0  0  0  0  0  0  0  0
   25.3374  -20.3152  -12.1103 N   0  0  0  0  0  0  0  0  0  0  0  0
   25.0525  -20.8058   -9.7930 C   0  0  0  0  0  0  0  0  0  0  0  0
   25.2016  -21.5102   -8.6271 O   0  0  0  0  0  0  0  0  0  0  0  0
   24.2443  -19.8415   -9.7971 O   0  0  0  0  0  0  0  0  0  0  0  0
  2  3  1  0
  2  1  1  0
  3  4  1  1
  5  3  1  0
  5  6  1  6
  7  5  1  0
  8  7  2  0
  9 10  1  0
 10 11  2  0
 10 20  1  0
 11 12  1  0
 12 13  2  0
 13 14  1  0
 15 14  1  6
 15 16  1  0
 16  7  1  0
 17 15  1  0
 17 18  2  0
 19 13  1  0
 20 19  2  0
 22 24  1  0
 22 21  1  6
 23 22  1  0
 24 25  1  6
 25 17  1  0
 26 24  1  0
 27 26  1  0
 28 26  2  0
M  END
$$$$
