IYT.pdb
     RDKit          3D

 28 28  0  0  1  0  0  0  0  0999 V2000
   28.5845  -19.9340  -19.1700 C   0  0  0  0  0  0  0  0  0  0  0  0
   27.9494  -21.2958  -19.2535 C   0  0  0  0  0  0  0  0  0  0  0  0
   26.9446  -21.5175  -18.1399 C   0  0  2  0  0  0  0  0  0  0  0  0
   25.9433  -20.4077  -18.0380 C   0  0  0  0  0  0  0  0  0  0  0  0
   27.7071  -21.7610  -16.8781 C   0  0  2  0  0  0  0  0  0  0  0  0
   28.5622  -22.9153  -17.0775 N   0  0  0  0  0  0  0  0  0  0  0  0
   26.8261  -21.9290  -15.6947 C   0  0  0  0  0  0  0  0  0  0  0  0
   26.0860  -22.9435  -15.6139 O   0  0  0  0  0  0  0  0  0  0  0  0
   23.7270  -20.6813   -7.3351 O   0  0  0  0  0  0  0  0  0  0  0  0
   24.3931  -20.6380   -8.5557 C   0  0  0  0  0  0  0  0  0  0  0  0
   23.8445  -20.0245   -9.6627 C   0  0  0  0  0  0  0  0  0  0  0  0
   24.5408  -20.0057  -10.8527 C   0  0  0  0  0  0  0  0  0  0  0  0
   25.7840  -20.5758  -11.0125 C   0  0  0  0  0  0  0  0  0  0  0  0
   26.5225  -20.5533  -12.2814 C   0  0  0  0  0  0  0  0  0  0  0  0
   25.8827  -21.1977  -13.4529 C   0  0  2  0  0  0  0  0  0  0  0  0
   26.7666  -21.0027  -14.6340 N   0  0  0  0  0  0  0  0  0  0  0  0
   24.5628  -20.7888  -13.8642 C   0  0  0  0  0  0  0  0  0  0  0  0
   24.4248  -19.6990  -14.5376 O   0  0  0  0  0  0  0  0  0  0  0  0
   26.3175  -21.1891   -9.8816 C   0  0  0  0  0  0  0  0  0  0  0  0
   25.6402  -21.2222   -8.6762 C   0  0  0  0  0  0  0  0  0  0  0  0
   21.5592  -23.0123  -15.4027 C   0  0  0  0  0  0  0  0  0  0  0  0
   21.7331  -21.5124  -15.4939 C   0  0  1  0  0  0  0  0  0  0  0  0
   20.4988  -20.9900  -15.9021 O   0  0  0  0  0  0  0  0  0  0  0  0
   22.0694  -20.9305  -14.1306 C   0  0  2  0  0  0  0  0  0  0  0  0
   23.3182  -21.4497  -13.6294 N   0  0  0  0  0  0  0  0  0  0  0  0
   20.9977  -21.1600  -13.1567 C   0  0  0  0  0  0  0  0  0  0  0  0
   19.7084  -20.7465  -13.3671 O   0  0  0  0  0  0  0  0  0  0  0  0
   21.2542  -21.7582  -12.0798 O   0  0  0  0  0  0  0  0  0  0  0  0
  2  3  1  0
  2  1  1  0
  3  4  1  1
  5  3  1  0
  5  6  1  6
  7  5  1  0
  8  7  2  0
  9 10  1  0
 10 11  2  0
 10 20  1  0
 11 12  1  0
 12 13  2  0
 13 14  1  0
 15 14  1  1
 15 16  1  0
 16  7  1  0
 17 15  1  0
 17 18  2  0
 19 13  1  0
 20 19  2  0
 22 24  1  0
 22 21  1  1
 23 22  1  0
 24 25  1  1
 25 17  1  0
 26 24  1  0
 27 26  1  0
 28 26  2  0
M  END
$$$$
