IYT.pdb
     RDKit          3D

 28 28  0  0  1  0  0  0  0  0999 V2000
   20.0658  -13.4075  -18.8795 C   0  0  0  0  0  0  0  0  0  0  0  0
   21.2993  -13.8791  -18.1578 C   0  0  0  0  0  0  0  0  0  0  0  0
   21.3393  -15.3903  -18.0400 C   0  0  2  0  0  0  0  0  0  0  0  0
   20.1190  -15.9488  -17.3740 C   0  0  0  0  0  0  0  0  0  0  0  0
   22.6196  -15.7624  -17.3655 C   0  0  2  0  0  0  0  0  0  0  0  0
   23.7180  -15.2133  -18.1372 N   0  0  0  0  0  0  0  0  0  0  0  0
   22.7647  -17.2272  -17.1705 C   0  0  0  0  0  0  0  0  0  0  0  0
   22.8680  -17.9775  -18.1754 O   0  0  0  0  0  0  0  0  0  0  0  0
   24.8985  -25.1824  -13.8425 O   0  0  0  0  0  0  0  0  0  0  0  0
   24.7018  -23.8397  -14.1488 C   0  0  0  0  0  0  0  0  0  0  0  0
   25.0226  -23.3210  -15.3861 C   0  0  0  0  0  0  0  0  0  0  0  0
   24.8105  -21.9836  -15.6457 C   0  0  0  0  0  0  0  0  0  0  0  0
   24.2841  -21.1067  -14.7237 C   0  0  0  0  0  0  0  0  0  0  0  0
   24.0594  -19.6830  -15.0042 C   0  0  0  0  0  0  0  0  0  0  0  0
   22.8205  -19.3200  -15.7327 C   0  0  2  0  0  0  0  0  0  0  0  0
   22.7945  -17.8419  -15.9026 N   0  0  0  0  0  0  0  0  0  0  0  0
   21.5361  -19.6870  -15.1903 C   0  0  0  0  0  0  0  0  0  0  0  0
   21.0834  -19.0519  -14.1648 O   0  0  0  0  0  0  0  0  0  0  0  0
   23.9680  -21.6529  -13.4822 C   0  0  0  0  0  0  0  0  0  0  0  0
   24.1707  -22.9907  -13.1958 C   0  0  0  0  0  0  0  0  0  0  0  0
   17.9319  -19.6097  -16.3681 C   0  0  0  0  0  0  0  0  0  0  0  0
   18.2224  -21.0128  -15.8830 C   0  0  1  0  0  0  0  0  0  0  0  0
   18.5494  -21.7689  -17.0163 O   0  0  0  0  0  0  0  0  0  0  0  0
   19.4193  -21.0163  -14.9461 C   0  0  2  0  0  0  0  0  0  0  0  0
   20.6389  -20.7002  -15.6480 N   0  0  0  0  0  0  0  0  0  0  0  0
   19.5581  -22.2929  -14.2385 C   0  0  0  0  0  0  0  0  0  0  0  0
   18.7243  -22.6647  -13.2165 O   0  0  0  0  0  0  0  0  0  0  0  0
   20.4735  -23.0904  -14.5690 O   0  0  0  0  0  0  0  0  0  0  0  0
  2  3  1  0
  2  1  1  0
  3  4  1  1
  5  3  1  0
  5  6  1  6
  7  5  1  0
  8  7  2  0
  9 10  1  0
 10 11  2  0
 10 20  1  0
 11 12  1  0
 12 13  2  0
 13 14  1  0
 15 14  1  1
 15 16  1  0
 16  7  1  0
 17 15  1  0
 17 18  2  0
 19 13  1  0
 20 19  2  0
 22 24  1  0
 22 21  1  6
 23 22  1  0
 24 25  1  6
 25 17  1  0
 26 24  1  0
 27 26  1  0
 28 26  2  0
M  END
$$$$
