IYT.pdb
     RDKit          3D

 28 28  0  0  1  0  0  0  0  0999 V2000
   22.7635  -33.1188  -12.4868 C   0  0  0  0  0  0  0  0  0  0  0  0
   23.6543  -33.8881  -11.5490 C   0  0  0  0  0  0  0  0  0  0  0  0
   25.1217  -33.6151  -11.8157 C   0  0  2  0  0  0  0  0  0  0  0  0
   25.5386  -34.0079  -13.2000 C   0  0  0  0  0  0  0  0  0  0  0  0
   25.9135  -34.2776  -10.7354 C   0  0  2  0  0  0  0  0  0  0  0  0
   25.7408  -35.7124  -10.8580 N   0  0  0  0  0  0  0  0  0  0  0  0
   25.5535  -33.7960   -9.3778 C   0  0  0  0  0  0  0  0  0  0  0  0
   25.6079  -32.5648   -9.1239 O   0  0  0  0  0  0  0  0  0  0  0  0
   21.3482  -33.5597   -1.5066 O   0  0  0  0  0  0  0  0  0  0  0  0
   21.8384  -33.7063   -2.8004 C   0  0  0  0  0  0  0  0  0  0  0  0
   22.0994  -32.6183   -3.6072 C   0  0  0  0  0  0  0  0  0  0  0  0
   22.5848  -32.8109   -4.8834 C   0  0  0  0  0  0  0  0  0  0  0  0
   22.8331  -34.0544   -5.4202 C   0  0  0  0  0  0  0  0  0  0  0  0
   23.3504  -34.2553   -6.7796 C   0  0  0  0  0  0  0  0  0  0  0  0
   24.8161  -34.1479   -6.9730 C   0  0  2  0  0  0  0  0  0  0  0  0
   25.1458  -34.6510   -8.3341 N   0  0  0  0  0  0  0  0  0  0  0  0
   25.7104  -34.8222   -6.0654 C   0  0  0  0  0  0  0  0  0  0  0  0
   26.0203  -36.0528   -6.2883 O   0  0  0  0  0  0  0  0  0  0  0  0
   22.5621  -35.1373   -4.5873 C   0  0  0  0  0  0  0  0  0  0  0  0
   22.0749  -34.9720   -3.3036 C   0  0  0  0  0  0  0  0  0  0  0  0
   29.3155  -35.2412   -2.7671 C   0  0  0  0  0  0  0  0  0  0  0  0
   28.4921  -34.4124   -3.7279 C   0  0  1  0  0  0  0  0  0  0  0  0
   29.2392  -34.3077   -4.9086 O   0  0  0  0  0  0  0  0  0  0  0  0
   27.1838  -35.1147   -4.0525 C   0  0  2  0  0  0  0  0  0  0  0  0
   26.3435  -34.3005   -4.8958 N   0  0  0  0  0  0  0  0  0  0  0  0
   26.4571  -35.5079   -2.8413 C   0  0  0  0  0  0  0  0  0  0  0  0
   26.6212  -36.7315   -2.2467 O   0  0  0  0  0  0  0  0  0  0  0  0
   25.6467  -34.7028   -2.3138 O   0  0  0  0  0  0  0  0  0  0  0  0
  2  3  1  0
  2  1  1  0
  3  4  1  6
  5  3  1  0
  5  6  1  1
  7  5  1  0
  8  7  2  0
  9 10  1  0
 10 11  2  0
 10 20  1  0
 11 12  1  0
 12 13  2  0
 13 14  1  0
 15 14  1  1
 15 16  1  0
 16  7  1  0
 17 15  1  0
 17 18  2  0
 19 13  1  0
 20 19  2  0
 22 24  1  0
 22 21  1  1
 23 22  1  0
 24 25  1  1
 25 17  1  0
 26 24  1  0
 27 26  1  0
 28 26  2  0
M  END
$$$$
