AWV.pdb
     RDKit          3D

 27 28  0  0  1  0  0  0  0  0999 V2000
   12.0823  -17.7485   21.1105 C   0  0  0  0  0  0  0  0  0  0  0  0
   10.6671  -17.2776   20.8531 C   0  0  2  0  0  0  0  0  0  0  0  0
   10.5523  -16.5869   19.5917 N   0  0  0  0  0  0  0  0  0  0  0  0
   10.1913  -16.3839   21.9356 C   0  0  0  0  0  0  0  0  0  0  0  0
   10.2974  -15.1343   21.8946 O   0  0  0  0  0  0  0  0  0  0  0  0
    9.5824  -16.9469   23.0824 N   0  0  0  0  0  0  0  0  0  0  0  0
    8.9829  -16.0247   24.1028 C   0  0  1  0  0  0  0  0  0  0  0  0
    7.6345  -16.5011   24.4171 C   0  0  0  0  0  0  0  0  0  0  0  0
    6.6719  -15.4909   24.9135 C   0  0  0  0  0  0  0  0  0  0  0  0
    5.3703  -15.5331   25.2371 C   0  0  0  0  0  0  0  0  0  0  0  0
    4.9717  -14.3393   25.7223 N   0  0  0  0  0  0  0  0  0  0  0  0
    5.9940  -13.4765   25.7345 C   0  0  0  0  0  0  0  0  0  0  0  0
    6.1058  -12.1398   26.1326 C   0  0  0  0  0  0  0  0  0  0  0  0
    7.3264  -11.5138   26.0160 C   0  0  0  0  0  0  0  0  0  0  0  0
    8.4097  -12.1972   25.5172 C   0  0  0  0  0  0  0  0  0  0  0  0
    8.2810  -13.5355   25.1232 C   0  0  0  0  0  0  0  0  0  0  0  0
    7.0597  -14.1611   25.2397 C   0  0  0  0  0  0  0  0  0  0  0  0
   10.0062  -16.1574   25.1866 C   0  0  0  0  0  0  0  0  0  0  0  0
   10.9148  -17.0305   24.9054 O   0  0  0  0  0  0  0  0  0  0  0  0
   11.2497  -13.4376   28.0330 C   0  0  0  0  0  0  0  0  0  0  0  0
   11.2374  -14.8928   28.5044 C   0  0  1  0  0  0  0  0  0  0  0  0
   10.0976  -15.0056   29.4840 C   0  0  0  0  0  0  0  0  0  0  0  0
   11.1495  -15.8279   27.3410 C   0  0  2  0  0  0  0  0  0  0  0  0
   10.0927  -15.5036   26.3980 N   0  0  0  0  0  0  0  0  0  0  0  0
   10.9125  -17.2254   27.8132 C   0  0  0  0  0  0  0  0  0  0  0  0
   11.9308  -17.9797   28.3432 O   0  0  0  0  0  0  0  0  0  0  0  0
    9.7822  -17.7144   27.7284 O   0  0  0  0  0  0  0  0  0  0  0  0
  2  1  1  1
  3  2  1  0
  4  2  1  0
  4  5  2  0
  6  4  1  0
  7  6  1  0
  7  8  1  1
  9  8  1  0
  9 17  1  0
 10 11  1  0
 10  9  2  0
 11 12  1  0
 12 13  1  0
 12 17  2  0
 13 14  2  0
 14 15  1  0
 16 15  2  0
 17 16  1  0
 18  7  1  0
 19 18  2  0
 21 20  1  6
 21 23  1  0
 22 21  1  0
 23 25  1  0
 23 24  1  6
 24 18  1  0
 25 26  1  0
 27 25  2  0
M  END
$$$$
