AWV.pdb
     RDKit          3D

 27 28  0  0  1  0  0  0  0  0999 V2000
   12.6119  -18.1153   21.4396 C   0  0  0  0  0  0  0  0  0  0  0  0
   11.6414  -17.0789   20.9156 C   0  0  2  0  0  0  0  0  0  0  0  0
   12.2465  -16.2344   19.9146 N   0  0  0  0  0  0  0  0  0  0  0  0
   11.1189  -16.2276   22.0107 C   0  0  0  0  0  0  0  0  0  0  0  0
   11.5748  -15.0891   22.2764 O   0  0  0  0  0  0  0  0  0  0  0  0
   10.0513  -16.7025   22.8092 N   0  0  0  0  0  0  0  0  0  0  0  0
    9.3505  -15.7369   23.7189 C   0  0  1  0  0  0  0  0  0  0  0  0
    7.9069  -15.9344   23.5744 C   0  0  0  0  0  0  0  0  0  0  0  0
    7.0390  -15.2231   24.5411 C   0  0  0  0  0  0  0  0  0  0  0  0
    6.2284  -15.6292   25.5304 C   0  0  0  0  0  0  0  0  0  0  0  0
    5.7149  -14.5639   26.1791 N   0  0  0  0  0  0  0  0  0  0  0  0
    6.1694  -13.4269   25.6406 C   0  0  0  0  0  0  0  0  0  0  0  0
    5.9455  -12.0779   25.9370 C   0  0  0  0  0  0  0  0  0  0  0  0
    6.5763  -11.1191   25.1766 C   0  0  0  0  0  0  0  0  0  0  0  0
    7.4092  -11.4894   24.1477 C   0  0  0  0  0  0  0  0  0  0  0  0
    7.6228  -12.8446   23.8640 C   0  0  0  0  0  0  0  0  0  0  0  0
    6.9914  -13.8033   24.6247 C   0  0  0  0  0  0  0  0  0  0  0  0
    9.9519  -16.1483   25.0259 C   0  0  0  0  0  0  0  0  0  0  0  0
   10.7211  -17.1793   24.9144 O   0  0  0  0  0  0  0  0  0  0  0  0
   10.9870  -13.5958   28.0182 C   0  0  0  0  0  0  0  0  0  0  0  0
   10.6753  -15.0092   28.5132 C   0  0  1  0  0  0  0  0  0  0  0  0
    9.3731  -14.9113   29.2658 C   0  0  0  0  0  0  0  0  0  0  0  0
   10.6625  -15.9802   27.3762 C   0  0  2  0  0  0  0  0  0  0  0  0
    9.7883  -15.5983   26.2802 N   0  0  0  0  0  0  0  0  0  0  0  0
   10.2237  -17.3282   27.8478 C   0  0  0  0  0  0  0  0  0  0  0  0
    9.0603  -17.8980   27.3907 O   0  0  0  0  0  0  0  0  0  0  0  0
   10.9168  -17.9450   28.6620 O   0  0  0  0  0  0  0  0  0  0  0  0
  2  1  1  1
  3  2  1  0
  4  2  1  0
  4  5  2  0
  6  4  1  0
  7  6  1  0
  7  8  1  1
  9  8  1  0
  9 17  1  0
 10 11  1  0
 10  9  2  0
 11 12  1  0
 12 13  1  0
 12 17  2  0
 13 14  2  0
 14 15  1  0
 16 15  2  0
 17 16  1  0
 18  7  1  0
 19 18  2  0
 21 20  1  6
 21 23  1  0
 22 21  1  0
 23 25  1  0
 23 24  1  6
 24 18  1  0
 25 26  1  0
 27 25  2  0
M  END
$$$$
