AWV.pdb
     RDKit          3D

 27 28  0  0  1  0  0  0  0  0999 V2000
    7.9082  -17.6108   19.9742 C   0  0  0  0  0  0  0  0  0  0  0  0
    7.3156  -16.3598   20.5863 C   0  0  2  0  0  0  0  0  0  0  0  0
    7.1210  -15.3217   19.6035 N   0  0  0  0  0  0  0  0  0  0  0  0
    8.1721  -15.8354   21.6763 C   0  0  0  0  0  0  0  0  0  0  0  0
    8.9035  -14.8234   21.5522 O   0  0  0  0  0  0  0  0  0  0  0  0
    8.1803  -16.4933   22.9293 N   0  0  0  0  0  0  0  0  0  0  0  0
    9.0485  -15.9442   24.0228 C   0  0  1  0  0  0  0  0  0  0  0  0
    8.3685  -16.1593   25.3015 C   0  0  0  0  0  0  0  0  0  0  0  0
    7.2552  -15.2377   25.6253 C   0  0  0  0  0  0  0  0  0  0  0  0
    5.9356  -15.4062   25.8016 C   0  0  0  0  0  0  0  0  0  0  0  0
    5.3619  -14.2415   26.1672 N   0  0  0  0  0  0  0  0  0  0  0  0
    6.2815  -13.2729   26.2438 C   0  0  0  0  0  0  0  0  0  0  0  0
    6.2075  -11.9149   26.5723 C   0  0  0  0  0  0  0  0  0  0  0  0
    7.3626  -11.1659   26.5577 C   0  0  0  0  0  0  0  0  0  0  0  0
    8.5618  -11.7500   26.2258 C   0  0  0  0  0  0  0  0  0  0  0  0
    8.6188  -13.1113   25.8996 C   0  0  0  0  0  0  0  0  0  0  0  0
    7.4630  -13.8599   25.9141 C   0  0  0  0  0  0  0  0  0  0  0  0
   10.2868  -16.7494   23.7826 C   0  0  0  0  0  0  0  0  0  0  0  0
   10.0341  -18.0010   23.5915 O   0  0  0  0  0  0  0  0  0  0  0  0
   13.3449  -16.3996   21.3550 C   0  0  0  0  0  0  0  0  0  0  0  0
   13.8174  -16.8155   22.7491 C   0  0  1  0  0  0  0  0  0  0  0  0
   14.5255  -15.6166   23.3260 C   0  0  0  0  0  0  0  0  0  0  0  0
   12.6728  -17.3144   23.5717 C   0  0  2  0  0  0  0  0  0  0  0  0
   11.6052  -16.3453   23.7516 N   0  0  0  0  0  0  0  0  0  0  0  0
   13.1448  -17.7155   24.9313 C   0  0  0  0  0  0  0  0  0  0  0  0
   14.0983  -18.6907   25.0945 O   0  0  0  0  0  0  0  0  0  0  0  0
   12.6727  -17.1620   25.9287 O   0  0  0  0  0  0  0  0  0  0  0  0
  2  1  1  6
  3  2  1  0
  4  2  1  0
  4  5  2  0
  6  4  1  0
  7  6  1  0
  7  8  1  1
  9  8  1  0
  9 17  1  0
 10 11  1  0
 10  9  2  0
 11 12  1  0
 12 13  1  0
 12 17  2  0
 13 14  2  0
 14 15  1  0
 16 15  2  0
 17 16  1  0
 18  7  1  0
 19 18  2  0
 21 20  1  6
 21 23  1  0
 22 21  1  0
 23 25  1  0
 23 24  1  1
 24 18  1  0
 25 26  1  0
 27 25  2  0
M  END
$$$$
