AWV.pdb
     RDKit          3D

 27 28  0  0  1  0  0  0  0  0999 V2000
   12.7563  -17.9352   21.4378 C   0  0  0  0  0  0  0  0  0  0  0  0
   11.5044  -17.2781   20.8975 C   0  0  2  0  0  0  0  0  0  0  0  0
   11.7628  -16.5524   19.6777 N   0  0  0  0  0  0  0  0  0  0  0  0
   10.9100  -16.3525   21.8908 C   0  0  0  0  0  0  0  0  0  0  0  0
   11.1938  -15.1317   21.9518 O   0  0  0  0  0  0  0  0  0  0  0  0
    9.9718  -16.8490   22.8268 N   0  0  0  0  0  0  0  0  0  0  0  0
    9.2983  -15.8786   23.7520 C   0  0  1  0  0  0  0  0  0  0  0  0
    7.8512  -16.0785   23.6536 C   0  0  0  0  0  0  0  0  0  0  0  0
    7.0154  -15.3922   24.6657 C   0  0  0  0  0  0  0  0  0  0  0  0
    6.2009  -15.8243   25.6406 C   0  0  0  0  0  0  0  0  0  0  0  0
    5.7279  -14.7791   26.3501 N   0  0  0  0  0  0  0  0  0  0  0  0
    6.2144  -13.6302   25.8676 C   0  0  0  0  0  0  0  0  0  0  0  0
    6.0371  -12.2924   26.2372 C   0  0  0  0  0  0  0  0  0  0  0  0
    6.6919  -11.3151   25.5220 C   0  0  0  0  0  0  0  0  0  0  0  0
    7.5031  -11.6566   24.4662 C   0  0  0  0  0  0  0  0  0  0  0  0
    7.6702  -13.0010   24.1090 C   0  0  0  0  0  0  0  0  0  0  0  0
    7.0147  -13.9781   24.8247 C   0  0  0  0  0  0  0  0  0  0  0  0
    9.9407  -16.2813   25.0421 C   0  0  0  0  0  0  0  0  0  0  0  0
   10.5641  -17.4085   24.9541 O   0  0  0  0  0  0  0  0  0  0  0  0
   11.4911  -13.7926   27.8540 C   0  0  0  0  0  0  0  0  0  0  0  0
   10.9981  -15.1177   28.4378 C   0  0  1  0  0  0  0  0  0  0  0  0
    9.7753  -14.7861   29.2541 C   0  0  0  0  0  0  0  0  0  0  0  0
   10.7667  -16.1225   27.3550 C   0  0  2  0  0  0  0  0  0  0  0  0
    9.9425  -15.6366   26.2615 N   0  0  0  0  0  0  0  0  0  0  0  0
   10.1007  -17.3401   27.9085 C   0  0  0  0  0  0  0  0  0  0  0  0
   10.7693  -18.1970   28.7484 O   0  0  0  0  0  0  0  0  0  0  0  0
    8.9281  -17.5833   27.6090 O   0  0  0  0  0  0  0  0  0  0  0  0
  2  1  1  1
  3  2  1  0
  4  2  1  0
  4  5  2  0
  6  4  1  0
  7  6  1  0
  7  8  1  1
  9  8  1  0
  9 17  1  0
 10 11  1  0
 10  9  2  0
 11 12  1  0
 12 13  1  0
 12 17  2  0
 13 14  2  0
 14 15  1  0
 16 15  2  0
 17 16  1  0
 18  7  1  0
 19 18  2  0
 21 20  1  6
 21 23  1  0
 22 21  1  0
 23 25  1  0
 23 24  1  6
 24 18  1  0
 25 26  1  0
 27 25  2  0
M  END
$$$$
