AWV.pdb
     RDKit          3D

 27 28  0  0  1  0  0  0  0  0999 V2000
   10.6996  -16.4732   19.4404 C   0  0  0  0  0  0  0  0  0  0  0  0
   11.0803  -16.9710   20.8181 C   0  0  2  0  0  0  0  0  0  0  0  0
   10.6709  -18.3386   21.0268 N   0  0  0  0  0  0  0  0  0  0  0  0
   10.4869  -16.1243   21.8800 C   0  0  0  0  0  0  0  0  0  0  0  0
   10.6755  -14.8864   21.9607 O   0  0  0  0  0  0  0  0  0  0  0  0
    9.6615  -16.7211   22.8626 N   0  0  0  0  0  0  0  0  0  0  0  0
    8.9841  -15.8348   23.8660 C   0  0  1  0  0  0  0  0  0  0  0  0
    7.6479  -16.3735   24.1271 C   0  0  0  0  0  0  0  0  0  0  0  0
    6.6559  -15.4383   24.7059 C   0  0  0  0  0  0  0  0  0  0  0  0
    5.3646  -15.5559   25.0513 C   0  0  0  0  0  0  0  0  0  0  0  0
    4.9283  -14.4131   25.6198 N   0  0  0  0  0  0  0  0  0  0  0  0
    5.9145  -13.5104   25.6674 C   0  0  0  0  0  0  0  0  0  0  0  0
    5.9802  -12.1980   26.1481 C   0  0  0  0  0  0  0  0  0  0  0  0
    7.1714  -11.5149   26.0483 C   0  0  0  0  0  0  0  0  0  0  0  0
    8.2705  -12.1190   25.4857 C   0  0  0  0  0  0  0  0  0  0  0  0
    8.1879  -13.4339   25.0092 C   0  0  0  0  0  0  0  0  0  0  0  0
    6.9961  -14.1166   25.1091 C   0  0  0  0  0  0  0  0  0  0  0  0
    9.9718  -15.9302   24.9861 C   0  0  0  0  0  0  0  0  0  0  0  0
   10.9636  -16.7081   24.7066 O   0  0  0  0  0  0  0  0  0  0  0  0
    9.9090  -14.0632   28.8248 C   0  0  0  0  0  0  0  0  0  0  0  0
   11.2268  -14.4867   28.1738 C   0  0  1  0  0  0  0  0  0  0  0  0
   12.1609  -14.8310   29.3053 C   0  0  0  0  0  0  0  0  0  0  0  0
   11.0044  -15.5947   27.1947 C   0  0  2  0  0  0  0  0  0  0  0  0
    9.9533  -15.3290   26.2273 N   0  0  0  0  0  0  0  0  0  0  0  0
   10.6441  -16.8563   27.9094 C   0  0  0  0  0  0  0  0  0  0  0  0
   11.5859  -17.5724   28.6074 O   0  0  0  0  0  0  0  0  0  0  0  0
    9.4799  -17.2653   27.8756 O   0  0  0  0  0  0  0  0  0  0  0  0
  2  1  1  6
  3  2  1  0
  4  2  1  0
  4  5  2  0
  6  4  1  0
  7  6  1  0
  7  8  1  1
  9  8  1  0
  9 17  1  0
 10 11  1  0
 10  9  2  0
 11 12  1  0
 12 13  1  0
 12 17  2  0
 13 14  2  0
 14 15  1  0
 16 15  2  0
 17 16  1  0
 18  7  1  0
 19 18  2  0
 21 20  1  1
 21 23  1  0
 22 21  1  0
 23 25  1  0
 23 24  1  6
 24 18  1  0
 25 26  1  0
 27 25  2  0
M  END
$$$$
