AWV.pdb
     RDKit          3D

 27 28  0  0  1  0  0  0  0  0999 V2000
   12.7362  -17.2966   20.9127 C   0  0  0  0  0  0  0  0  0  0  0  0
   11.2477  -17.1591   20.6756 C   0  0  2  0  0  0  0  0  0  0  0  0
   10.9582  -16.6704   19.3494 N   0  0  0  0  0  0  0  0  0  0  0  0
   10.6253  -16.2519   21.6688 C   0  0  0  0  0  0  0  0  0  0  0  0
   10.6229  -15.0023   21.5547 O   0  0  0  0  0  0  0  0  0  0  0  0
    9.9952  -16.8012   22.8108 N   0  0  0  0  0  0  0  0  0  0  0  0
    9.2085  -15.8890   23.7052 C   0  0  1  0  0  0  0  0  0  0  0  0
    7.8540  -16.4295   23.8361 C   0  0  0  0  0  0  0  0  0  0  0  0
    6.8815  -15.6087   24.5938 C   0  0  0  0  0  0  0  0  0  0  0  0
    5.6774  -15.8602   25.1301 C   0  0  0  0  0  0  0  0  0  0  0  0
    5.2299  -14.7778   25.7991 N   0  0  0  0  0  0  0  0  0  0  0  0
    6.1216  -13.7833   25.7258 C   0  0  0  0  0  0  0  0  0  0  0  0
    6.1379  -12.4808   26.2367 C   0  0  0  0  0  0  0  0  0  0  0  0
    7.2287  -11.6815   25.9784 C   0  0  0  0  0  0  0  0  0  0  0  0
    8.2778  -12.1626   25.2319 C   0  0  0  0  0  0  0  0  0  0  0  0
    8.2460  -13.4694   24.7277 C   0  0  0  0  0  0  0  0  0  0  0  0
    7.1545  -14.2683   24.9862 C   0  0  0  0  0  0  0  0  0  0  0  0
   10.0682  -15.9416   24.9289 C   0  0  0  0  0  0  0  0  0  0  0  0
   11.0539  -16.7664   24.8064 O   0  0  0  0  0  0  0  0  0  0  0  0
   10.7297  -13.1065   27.8640 C   0  0  0  0  0  0  0  0  0  0  0  0
   10.7227  -14.5535   28.3599 C   0  0  1  0  0  0  0  0  0  0  0  0
    9.4544  -14.7162   29.1577 C   0  0  0  0  0  0  0  0  0  0  0  0
   10.8629  -15.5079   27.2174 C   0  0  2  0  0  0  0  0  0  0  0  0
    9.9417  -15.2602   26.1214 N   0  0  0  0  0  0  0  0  0  0  0  0
   10.6383  -16.9105   27.6804 C   0  0  0  0  0  0  0  0  0  0  0  0
   11.5865  -17.5767   28.4180 O   0  0  0  0  0  0  0  0  0  0  0  0
    9.5825  -17.4843   27.3981 O   0  0  0  0  0  0  0  0  0  0  0  0
  2  1  1  1
  3  2  1  0
  4  2  1  0
  4  5  2  0
  6  4  1  0
  7  6  1  0
  7  8  1  1
  9  8  1  0
  9 17  1  0
 10 11  1  0
 10  9  2  0
 11 12  1  0
 12 13  1  0
 12 17  2  0
 13 14  2  0
 14 15  1  0
 16 15  2  0
 17 16  1  0
 18  7  1  0
 19 18  2  0
 21 20  1  6
 21 23  1  0
 22 21  1  0
 23 25  1  0
 23 24  1  6
 24 18  1  0
 25 26  1  0
 27 25  2  0
M  END
$$$$
