AWV.pdb
     RDKit          3D

 27 28  0  0  1  0  0  0  0  0999 V2000
   10.2326  -16.4547   19.3032 C   0  0  0  0  0  0  0  0  0  0  0  0
   10.8665  -16.8003   20.6334 C   0  0  2  0  0  0  0  0  0  0  0  0
   10.7118  -18.1982   20.9547 N   0  0  0  0  0  0  0  0  0  0  0  0
   10.2911  -15.9881   21.7317 C   0  0  0  0  0  0  0  0  0  0  0  0
   10.2611  -14.7338   21.7189 O   0  0  0  0  0  0  0  0  0  0  0  0
    9.7413  -16.6396   22.8614 N   0  0  0  0  0  0  0  0  0  0  0  0
    9.0602  -15.8086   23.9086 C   0  0  1  0  0  0  0  0  0  0  0  0
    7.7323  -16.3751   24.1530 C   0  0  0  0  0  0  0  0  0  0  0  0
    6.7370  -15.4836   24.7919 C   0  0  0  0  0  0  0  0  0  0  0  0
    5.4779  -15.6593   25.2212 C   0  0  0  0  0  0  0  0  0  0  0  0
    5.0260  -14.5346   25.8129 N   0  0  0  0  0  0  0  0  0  0  0  0
    5.9694  -13.5863   25.7930 C   0  0  0  0  0  0  0  0  0  0  0  0
    6.0043  -12.2692   26.2639 C   0  0  0  0  0  0  0  0  0  0  0  0
    7.1528  -11.5317   26.0842 C   0  0  0  0  0  0  0  0  0  0  0  0
    8.2403  -12.0873   25.4533 C   0  0  0  0  0  0  0  0  0  0  0  0
    8.1892  -13.4077   24.9878 C   0  0  0  0  0  0  0  0  0  0  0  0
    7.0399  -14.1449   25.1675 C   0  0  0  0  0  0  0  0  0  0  0  0
   10.0565  -15.9432   25.0169 C   0  0  0  0  0  0  0  0  0  0  0  0
   11.0203  -16.7497   24.7211 O   0  0  0  0  0  0  0  0  0  0  0  0
   11.2023  -13.3083   27.9457 C   0  0  0  0  0  0  0  0  0  0  0  0
   11.1584  -14.7664   28.4060 C   0  0  1  0  0  0  0  0  0  0  0  0
    9.9877  -14.8724   29.3493 C   0  0  0  0  0  0  0  0  0  0  0  0
   11.0956  -15.6925   27.2338 C   0  0  2  0  0  0  0  0  0  0  0  0
   10.0704  -15.3507   26.2625 N   0  0  0  0  0  0  0  0  0  0  0  0
   10.8305  -17.0907   27.6887 C   0  0  0  0  0  0  0  0  0  0  0  0
    9.6129  -17.6897   27.4750 O   0  0  0  0  0  0  0  0  0  0  0  0
   11.7195  -17.7230   28.2664 O   0  0  0  0  0  0  0  0  0  0  0  0
  2  1  1  6
  3  2  1  0
  4  2  1  0
  4  5  2  0
  6  4  1  0
  7  6  1  0
  7  8  1  1
  9  8  1  0
  9 17  1  0
 10 11  1  0
 10  9  2  0
 11 12  1  0
 12 13  1  0
 12 17  2  0
 13 14  2  0
 14 15  1  0
 16 15  2  0
 17 16  1  0
 18  7  1  0
 19 18  2  0
 21 20  1  6
 21 23  1  0
 22 21  1  0
 23 25  1  0
 23 24  1  6
 24 18  1  0
 25 26  1  0
 27 25  2  0
M  END
$$$$
