HMP.pdb
     RDKit          3D

 26 27  0  0  1  0  0  0  0  0999 V2000
   10.7960  -15.9871   20.4959 N   0  0  0  0  0  0  0  0  0  0  0  0
   10.0274  -16.6871   21.5134 C   0  0  1  0  0  0  0  0  0  0  0  0
   10.5769  -18.0317   21.8331 C   0  0  0  0  0  0  0  0  0  0  0  0
    9.6033  -19.0603   21.3556 C   0  0  0  0  0  0  0  0  0  0  0  0
    8.9455  -19.1141   20.1453 C   0  0  0  0  0  0  0  0  0  0  0  0
    8.1573  -20.2198   20.1358 N   0  0  0  0  0  0  0  0  0  0  0  0
    8.3455  -20.8075   21.3164 C   0  0  0  0  0  0  0  0  0  0  0  0
    9.2174  -20.1197   22.0677 N   0  0  0  0  0  0  0  0  0  0  0  0
    9.9974  -15.8402   22.7090 C   0  0  0  0  0  0  0  0  0  0  0  0
   11.0346  -15.2472   23.1329 O   0  0  0  0  0  0  0  0  0  0  0  0
    5.9119  -11.2203   25.5947 C   0  0  0  0  0  0  0  0  0  0  0  0
    5.5541  -12.9145   26.1624 S   0  0  0  0  0  0  0  0  0  0  0  0
    7.1252  -13.8759   26.2345 C   0  0  0  0  0  0  0  0  0  0  0  0
    7.4303  -14.3731   24.8681 C   0  0  0  0  0  0  0  0  0  0  0  0
    8.7955  -14.9810   24.6764 C   0  0  2  0  0  0  0  0  0  0  0  0
    8.8027  -15.6559   23.4285 N   0  0  0  0  0  0  0  0  0  0  0  0
    9.3246  -15.7525   25.7724 C   0  0  0  0  0  0  0  0  0  0  0  0
    9.5603  -16.9974   25.4545 O   0  0  0  0  0  0  0  0  0  0  0  0
    9.6326  -15.4270   27.1113 N   0  0  0  0  0  0  0  0  0  0  0  0
    9.2391  -14.4000   28.0028 C   0  0  0  0  0  0  0  0  0  0  0  0
   10.4296  -14.1682   28.8937 C   0  0  0  0  0  0  0  0  0  0  0  0
   11.4481  -15.2182   28.5085 C   0  0  0  0  0  0  0  0  0  0  0  0
   10.5647  -16.2712   27.8865 C   0  0  1  0  0  0  0  0  0  0  0  0
    9.8642  -17.0028   28.9538 C   0  0  0  0  0  0  0  0  0  0  0  0
   10.4508  -17.8550   29.8730 O   0  0  0  0  0  0  0  0  0  0  0  0
    8.5990  -16.8716   29.0852 O   0  0  0  0  0  0  0  0  0  0  0  0
  2  1  1  6
  2  9  1  0
  3  2  1  0
  4  3  1  0
  5  4  2  0
  6  5  1  0
  7  6  1  0
  7  8  2  0
  8  4  1  0
  9 10  2  0
 12 11  1  0
 13 12  1  0
 14 13  1  0
 15 14  1  1
 16  9  1  0
 16 15  1  0
 17 15  1  0
 18 17  2  0
 19 17  1  0
 19 23  1  0
 20 21  1  0
 20 19  1  0
 21 22  1  0
 23 22  1  0
 24 25  1  0
 23 24  1  1
 26 24  2  0
M  END
$$$$
