HMP.pdb
     RDKit          3D

 26 27  0  0  1  0  0  0  0  0999 V2000
   10.3799  -15.7906   20.6249 N   0  0  0  0  0  0  0  0  0  0  0  0
    9.7993  -16.6422   21.6514 C   0  0  1  0  0  0  0  0  0  0  0  0
   10.6086  -17.8607   21.9207 C   0  0  0  0  0  0  0  0  0  0  0  0
   10.0973  -18.9633   21.0509 C   0  0  0  0  0  0  0  0  0  0  0  0
    9.0891  -18.9104   20.1122 C   0  0  0  0  0  0  0  0  0  0  0  0
    8.9568  -20.1424   19.5567 N   0  0  0  0  0  0  0  0  0  0  0  0
    9.8684  -20.9079   20.1550 C   0  0  0  0  0  0  0  0  0  0  0  0
   10.5678  -20.2110   21.0622 N   0  0  0  0  0  0  0  0  0  0  0  0
    9.6526  -15.8366   22.8668 C   0  0  0  0  0  0  0  0  0  0  0  0
   10.5120  -14.9654   23.1977 O   0  0  0  0  0  0  0  0  0  0  0  0
    5.7034  -11.1078   25.5835 C   0  0  0  0  0  0  0  0  0  0  0  0
    6.5207  -12.6405   26.1343 S   0  0  0  0  0  0  0  0  0  0  0  0
    6.3596  -13.9218   24.8191 C   0  0  0  0  0  0  0  0  0  0  0  0
    7.0022  -15.1706   25.3040 C   0  0  0  0  0  0  0  0  0  0  0  0
    8.4594  -15.3395   24.9602 C   0  0  2  0  0  0  0  0  0  0  0  0
    8.5398  -16.0062   23.7104 N   0  0  0  0  0  0  0  0  0  0  0  0
    9.3104  -15.8911   25.9840 C   0  0  0  0  0  0  0  0  0  0  0  0
    9.8813  -17.0101   25.6260 O   0  0  0  0  0  0  0  0  0  0  0  0
    9.6417  -15.4614   27.2874 N   0  0  0  0  0  0  0  0  0  0  0  0
    9.1761  -14.4377   28.1475 C   0  0  0  0  0  0  0  0  0  0  0  0
   10.3728  -14.0272   28.9623 C   0  0  0  0  0  0  0  0  0  0  0  0
   11.4850  -14.9768   28.5755 C   0  0  0  0  0  0  0  0  0  0  0  0
   10.6989  -16.1535   28.0526 C   0  0  1  0  0  0  0  0  0  0  0  0
   10.1369  -16.8996   29.1894 C   0  0  0  0  0  0  0  0  0  0  0  0
    8.7917  -17.0371   29.4842 O   0  0  0  0  0  0  0  0  0  0  0  0
   10.9216  -17.4926   30.0067 O   0  0  0  0  0  0  0  0  0  0  0  0
  2  1  1  6
  2  9  1  0
  3  2  1  0
  4  3  1  0
  5  4  2  0
  6  5  1  0
  7  6  1  0
  7  8  2  0
  8  4  1  0
  9 10  2  0
 12 11  1  0
 13 12  1  0
 14 13  1  0
 15 14  1  1
 16  9  1  0
 16 15  1  0
 17 15  1  0
 18 17  2  0
 19 17  1  0
 19 23  1  0
 20 21  1  0
 20 19  1  0
 21 22  1  0
 23 22  1  0
 24 25  1  0
 23 24  1  1
 26 24  2  0
M  END
$$$$
