HMP.pdb
     RDKit          3D

 26 27  0  0  1  0  0  0  0  0999 V2000
    7.9201  -16.5833   21.3957 N   0  0  0  0  0  0  0  0  0  0  0  0
    9.3495  -16.3718   21.5638 C   0  0  1  0  0  0  0  0  0  0  0  0
    9.9807  -15.7130   20.3891 C   0  0  0  0  0  0  0  0  0  0  0  0
    8.9934  -14.7559   19.8034 C   0  0  0  0  0  0  0  0  0  0  0  0
    7.9573  -14.1053   20.4386 C   0  0  0  0  0  0  0  0  0  0  0  0
    7.3147  -13.3316   19.5261 N   0  0  0  0  0  0  0  0  0  0  0  0
    7.9581  -13.5212   18.3751 C   0  0  0  0  0  0  0  0  0  0  0  0
    8.9768  -14.3801   18.5241 N   0  0  0  0  0  0  0  0  0  0  0  0
    9.5408  -15.5691   22.7748 C   0  0  0  0  0  0  0  0  0  0  0  0
   10.5894  -14.8815   22.9610 O   0  0  0  0  0  0  0  0  0  0  0  0
    6.1884  -11.3022   26.8510 C   0  0  0  0  0  0  0  0  0  0  0  0
    5.4947  -12.4890   25.6548 S   0  0  0  0  0  0  0  0  0  0  0  0
    6.8670  -13.2481   24.6862 C   0  0  0  0  0  0  0  0  0  0  0  0
    7.4693  -14.3331   25.5033 C   0  0  0  0  0  0  0  0  0  0  0  0
    8.7860  -14.8762   25.0117 C   0  0  2  0  0  0  0  0  0  0  0  0
    8.5540  -15.5351   23.7768 N   0  0  0  0  0  0  0  0  0  0  0  0
    9.5692  -15.6360   25.9528 C   0  0  0  0  0  0  0  0  0  0  0  0
   10.1020  -16.7068   25.4277 O   0  0  0  0  0  0  0  0  0  0  0  0
    9.8677  -15.4499   27.3202 N   0  0  0  0  0  0  0  0  0  0  0  0
    9.3439  -14.6347   28.3524 C   0  0  0  0  0  0  0  0  0  0  0  0
   10.5117  -14.3317   29.2519 C   0  0  0  0  0  0  0  0  0  0  0  0
   11.6735  -15.1345   28.7099 C   0  0  0  0  0  0  0  0  0  0  0  0
   10.9523  -16.2249   27.9569 C   0  0  1  0  0  0  0  0  0  0  0  0
   10.4195  -17.2021   28.9193 C   0  0  0  0  0  0  0  0  0  0  0  0
    9.0813  -17.4797   29.1368 O   0  0  0  0  0  0  0  0  0  0  0  0
   11.2259  -17.8818   29.6426 O   0  0  0  0  0  0  0  0  0  0  0  0
  2  1  1  6
  2  9  1  0
  3  2  1  0
  4  3  1  0
  5  4  2  0
  6  5  1  0
  7  6  1  0
  7  8  2  0
  8  4  1  0
  9 10  2  0
 12 11  1  0
 13 12  1  0
 14 13  1  0
 15 14  1  1
 16  9  1  0
 16 15  1  0
 17 15  1  0
 18 17  2  0
 19 17  1  0
 19 23  1  0
 20 21  1  0
 20 19  1  0
 21 22  1  0
 23 22  1  0
 24 25  1  0
 23 24  1  1
 26 24  2  0
M  END
$$$$
