HMP.pdb
     RDKit          3D

 26 27  0  0  1  0  0  0  0  0999 V2000
   10.1356  -16.1528   20.5278 N   0  0  0  0  0  0  0  0  0  0  0  0
    9.2513  -16.6373   21.5763 C   0  0  1  0  0  0  0  0  0  0  0  0
    9.4519  -18.0784   21.8847 C   0  0  0  0  0  0  0  0  0  0  0  0
    8.8860  -18.8808   20.7579 C   0  0  0  0  0  0  0  0  0  0  0  0
    7.5803  -19.2799   20.5675 C   0  0  0  0  0  0  0  0  0  0  0  0
    7.5144  -19.9903   19.4121 N   0  0  0  0  0  0  0  0  0  0  0  0
    8.7560  -20.0106   18.9296 C   0  0  0  0  0  0  0  0  0  0  0  0
    9.5994  -19.3442   19.7309 N   0  0  0  0  0  0  0  0  0  0  0  0
    9.4809  -15.8142   22.7669 C   0  0  0  0  0  0  0  0  0  0  0  0
   10.6210  -15.3275   23.0320 O   0  0  0  0  0  0  0  0  0  0  0  0
    5.6287  -12.0259   26.9050 C   0  0  0  0  0  0  0  0  0  0  0  0
    6.7935  -11.5109   25.6016 S   0  0  0  0  0  0  0  0  0  0  0  0
    7.0813  -12.9222   24.4515 C   0  0  0  0  0  0  0  0  0  0  0  0
    7.4066  -14.1245   25.2616 C   0  0  0  0  0  0  0  0  0  0  0  0
    8.6688  -14.8545   24.8819 C   0  0  2  0  0  0  0  0  0  0  0  0
    8.4303  -15.5343   23.6596 N   0  0  0  0  0  0  0  0  0  0  0  0
    9.2847  -15.6646   25.9021 C   0  0  0  0  0  0  0  0  0  0  0  0
    9.4310  -16.9125   25.5450 O   0  0  0  0  0  0  0  0  0  0  0  0
    9.7542  -15.3737   27.2015 N   0  0  0  0  0  0  0  0  0  0  0  0
    9.4575  -14.3845   28.1699 C   0  0  0  0  0  0  0  0  0  0  0  0
   10.7470  -14.1526   28.9103 C   0  0  0  0  0  0  0  0  0  0  0  0
   11.7283  -15.1660   28.3641 C   0  0  0  0  0  0  0  0  0  0  0  0
   10.7934  -16.2195   27.8235 C   0  0  1  0  0  0  0  0  0  0  0  0
   10.2487  -17.0002   28.9455 C   0  0  0  0  0  0  0  0  0  0  0  0
   10.9647  -17.8632   29.7566 O   0  0  0  0  0  0  0  0  0  0  0  0
    9.0072  -16.9064   29.2375 O   0  0  0  0  0  0  0  0  0  0  0  0
  2  1  1  6
  2  9  1  0
  3  2  1  0
  4  3  1  0
  5  4  2  0
  6  5  1  0
  7  6  1  0
  7  8  2  0
  8  4  1  0
  9 10  2  0
 12 11  1  0
 13 12  1  0
 14 13  1  0
 15 14  1  1
 16  9  1  0
 16 15  1  0
 17 15  1  0
 18 17  2  0
 19 17  1  0
 19 23  1  0
 20 21  1  0
 20 19  1  0
 21 22  1  0
 23 22  1  0
 24 25  1  0
 23 24  1  1
 26 24  2  0
M  END
$$$$
