HMP.pdb
     RDKit          3D

 26 27  0  0  1  0  0  0  0  0999 V2000
   10.6122  -16.4869   20.3145 N   0  0  0  0  0  0  0  0  0  0  0  0
    9.5735  -16.9655   21.2135 C   0  0  1  0  0  0  0  0  0  0  0  0
    9.7473  -18.3930   21.5935 C   0  0  0  0  0  0  0  0  0  0  0  0
   11.1022  -18.8350   21.1432 C   0  0  0  0  0  0  0  0  0  0  0  0
   12.2702  -18.8806   21.8740 C   0  0  0  0  0  0  0  0  0  0  0  0
   13.2601  -19.3464   21.0696 N   0  0  0  0  0  0  0  0  0  0  0  0
   12.6886  -19.5715   19.8874 C   0  0  0  0  0  0  0  0  0  0  0  0
   11.3830  -19.2676   19.9135 N   0  0  0  0  0  0  0  0  0  0  0  0
    9.5831  -16.1068   22.4010 C   0  0  0  0  0  0  0  0  0  0  0  0
   10.5538  -15.3327   22.6570 O   0  0  0  0  0  0  0  0  0  0  0  0
    6.6257  -11.1670   26.8078 C   0  0  0  0  0  0  0  0  0  0  0  0
    6.8064  -12.2619   25.3625 S   0  0  0  0  0  0  0  0  0  0  0  0
    6.8884  -14.0128   25.9328 C   0  0  0  0  0  0  0  0  0  0  0  0
    7.0877  -14.8812   24.7439 C   0  0  0  0  0  0  0  0  0  0  0  0
    8.5080  -15.2965   24.4605 C   0  0  2  0  0  0  0  0  0  0  0  0
    8.5019  -16.1140   23.3009 N   0  0  0  0  0  0  0  0  0  0  0  0
    9.2614  -15.8361   25.5640 C   0  0  0  0  0  0  0  0  0  0  0  0
    9.7930  -16.9996   25.2998 O   0  0  0  0  0  0  0  0  0  0  0  0
    9.5318  -15.3560   26.8640 N   0  0  0  0  0  0  0  0  0  0  0  0
    9.0159  -14.3106   27.6673 C   0  0  0  0  0  0  0  0  0  0  0  0
   10.1715  -13.8529   28.5156 C   0  0  0  0  0  0  0  0  0  0  0  0
   11.3125  -14.7974   28.2088 C   0  0  0  0  0  0  0  0  0  0  0  0
   10.5662  -16.0041   27.6960 C   0  0  1  0  0  0  0  0  0  0  0  0
    9.9682  -16.7191   28.8345 C   0  0  0  0  0  0  0  0  0  0  0  0
   10.6587  -17.4407   29.7924 O   0  0  0  0  0  0  0  0  0  0  0  0
    8.6999  -16.7011   28.9970 O   0  0  0  0  0  0  0  0  0  0  0  0
  2  1  1  6
  2  9  1  0
  3  2  1  0
  4  3  1  0
  5  4  2  0
  6  5  1  0
  7  6  1  0
  7  8  2  0
  8  4  1  0
  9 10  2  0
 12 11  1  0
 13 12  1  0
 14 13  1  0
 15 14  1  1
 16  9  1  0
 16 15  1  0
 17 15  1  0
 18 17  2  0
 19 17  1  0
 19 23  1  0
 20 21  1  0
 20 19  1  0
 21 22  1  0
 23 22  1  0
 24 25  1  0
 23 24  1  1
 26 24  2  0
M  END
$$$$
