HMP.pdb
     RDKit          3D

 26 27  0  0  1  0  0  0  0  0999 V2000
   10.1621  -16.4300   20.2995 N   0  0  0  0  0  0  0  0  0  0  0  0
    9.5558  -17.0934   21.4434 C   0  0  1  0  0  0  0  0  0  0  0  0
   10.1698  -18.4152   21.7403 C   0  0  0  0  0  0  0  0  0  0  0  0
    9.7717  -19.3687   20.6604 C   0  0  0  0  0  0  0  0  0  0  0  0
    8.6295  -20.1365   20.5800 C   0  0  0  0  0  0  0  0  0  0  0  0
    8.6781  -20.8560   19.4294 N   0  0  0  0  0  0  0  0  0  0  0  0
    9.8256  -20.5202   18.8419 C   0  0  0  0  0  0  0  0  0  0  0  0
   10.5005  -19.6213   19.5727 N   0  0  0  0  0  0  0  0  0  0  0  0
    9.6764  -16.1940   22.5942 C   0  0  0  0  0  0  0  0  0  0  0  0
   10.7759  -15.6395   22.8954 O   0  0  0  0  0  0  0  0  0  0  0  0
    6.3281  -11.1858   27.3507 C   0  0  0  0  0  0  0  0  0  0  0  0
    6.3818  -12.1705   25.8183 S   0  0  0  0  0  0  0  0  0  0  0  0
    7.2277  -13.7732   26.1551 C   0  0  0  0  0  0  0  0  0  0  0  0
    7.3376  -14.5199   24.8752 C   0  0  0  0  0  0  0  0  0  0  0  0
    8.6880  -15.1156   24.5725 C   0  0  2  0  0  0  0  0  0  0  0  0
    8.5625  -15.9141   23.4064 N   0  0  0  0  0  0  0  0  0  0  0  0
    9.3748  -15.7601   25.6631 C   0  0  0  0  0  0  0  0  0  0  0  0
    9.7731  -16.9698   25.3729 O   0  0  0  0  0  0  0  0  0  0  0  0
    9.6957  -15.3418   26.9728 N   0  0  0  0  0  0  0  0  0  0  0  0
    9.2609  -14.2929   27.8184 C   0  0  0  0  0  0  0  0  0  0  0  0
   10.4567  -13.9385   28.6605 C   0  0  0  0  0  0  0  0  0  0  0  0
   11.5294  -14.9435   28.3035 C   0  0  0  0  0  0  0  0  0  0  0  0
   10.6989  -16.0821   27.7653 C   0  0  1  0  0  0  0  0  0  0  0  0
   10.0736  -16.7948   28.8905 C   0  0  0  0  0  0  0  0  0  0  0  0
   10.7274  -17.6082   29.7994 O   0  0  0  0  0  0  0  0  0  0  0  0
    8.8151  -16.6837   29.0887 O   0  0  0  0  0  0  0  0  0  0  0  0
  2  1  1  6
  2  9  1  0
  3  2  1  0
  4  3  1  0
  5  4  2  0
  6  5  1  0
  7  6  1  0
  7  8  2  0
  8  4  1  0
  9 10  2  0
 12 11  1  0
 13 12  1  0
 14 13  1  0
 15 14  1  1
 16  9  1  0
 16 15  1  0
 17 15  1  0
 18 17  2  0
 19 17  1  0
 19 23  1  0
 20 21  1  0
 20 19  1  0
 21 22  1  0
 23 22  1  0
 24 25  1  0
 23 24  1  1
 26 24  2  0
M  END
$$$$
