HSY.pdb
     RDKit          3D

 29 30  0  0  1  0  0  0  0  0999 V2000
   18.9057  -14.1756  -15.7773 N   0  0  0  0  0  0  0  0  0  0  0  0
   19.5252  -13.1219  -16.5588 C   0  0  1  0  0  0  0  0  0  0  0  0
   18.5229  -12.7798  -17.6687 C   0  0  0  0  0  0  0  0  0  0  0  0
   18.4306  -13.9434  -18.5747 C   0  0  0  0  0  0  0  0  0  0  0  0
   17.2435  -14.5766  -18.9357 C   0  0  0  0  0  0  0  0  0  0  0  0
   17.5539  -15.5879  -19.7685 N   0  0  0  0  0  0  0  0  0  0  0  0
   18.8813  -15.6191  -19.9473 C   0  0  0  0  0  0  0  0  0  0  0  0
   19.4041  -14.6129  -19.2153 N   0  0  0  0  0  0  0  0  0  0  0  0
   19.7024  -11.8808  -15.7692 C   0  0  0  0  0  0  0  0  0  0  0  0
   18.7604  -11.5026  -15.0314 O   0  0  0  0  0  0  0  0  0  0  0  0
   23.2168  -10.5239  -14.9461 O   0  0  0  0  0  0  0  0  0  0  0  0
   22.2284   -9.8766  -14.2180 C   0  0  0  0  0  0  0  0  0  0  0  0
   20.9979   -9.8130  -15.1187 C   0  0  2  0  0  0  0  0  0  0  0  0
   20.8809  -11.0930  -15.8000 N   0  0  0  0  0  0  0  0  0  0  0  0
   21.2938   -8.7946  -16.1581 C   0  0  0  0  0  0  0  0  0  0  0  0
   21.6472   -9.0957  -17.3297 O   0  0  0  0  0  0  0  0  0  0  0  0
   15.2005   -4.8783  -16.3435 O   0  0  0  0  0  0  0  0  0  0  0  0
   16.4589   -5.3152  -16.7293 C   0  0  0  0  0  0  0  0  0  0  0  0
   17.4342   -4.3886  -17.0410 C   0  0  0  0  0  0  0  0  0  0  0  0
   18.6873   -4.8676  -17.4247 C   0  0  0  0  0  0  0  0  0  0  0  0
   18.9564   -6.2120  -17.4946 C   0  0  0  0  0  0  0  0  0  0  0  0
   20.2900   -6.6618  -17.9062 C   0  0  0  0  0  0  0  0  0  0  0  0
   21.3767   -6.4117  -16.8964 C   0  0  2  0  0  0  0  0  0  0  0  0
   21.1821   -7.4252  -15.8460 N   0  0  0  0  0  0  0  0  0  0  0  0
   21.2786   -5.1009  -16.2237 C   0  0  0  0  0  0  0  0  0  0  0  0
   20.9096   -5.0662  -15.0227 O   0  0  0  0  0  0  0  0  0  0  0  0
   17.9467   -7.0948  -17.1727 C   0  0  0  0  0  0  0  0  0  0  0  0
   16.6901   -6.6735  -16.7873 C   0  0  0  0  0  0  0  0  0  0  0  0
   21.5655   -3.8811  -16.8195 O   0  0  0  0  0  0  0  0  0  0  0  0
  2  1  1  1
  2  3  1  0
  4  3  1  0
  4  8  1  0
  5  6  1  0
  5  4  2  0
  6  7  1  0
  7  8  2  0
  9  2  1  0
 10  9  2  0
 11 12  1  0
 13 12  1  1
 13 14  1  0
 14  9  1  0
 15 13  1  0
 15 24  1  0
 16 15  2  0
 18 17  1  0
 19 18  2  0
 20 19  1  0
 21 27  1  0
 21 20  2  0
 22 21  1  0
 23 22  1  6
 23 24  1  0
 23 25  1  0
 25 29  1  0
 26 25  2  0
 27 28  2  0
 28 18  1  0
M  END
$$$$
