HSY.pdb
     RDKit          3D

 29 30  0  0  1  0  0  0  0  0999 V2000
   22.6784  -14.0939  -19.1188 N   0  0  0  0  0  0  0  0  0  0  0  0
   22.9096  -13.0658  -18.1216 C   0  0  1  0  0  0  0  0  0  0  0  0
   24.1716  -12.3203  -18.5743 C   0  0  0  0  0  0  0  0  0  0  0  0
   25.3347  -13.1955  -18.3197 C   0  0  0  0  0  0  0  0  0  0  0  0
   25.4437  -14.5162  -18.7491 C   0  0  0  0  0  0  0  0  0  0  0  0
   26.6345  -14.9868  -18.3328 N   0  0  0  0  0  0  0  0  0  0  0  0
   27.2785  -14.0224  -17.6617 C   0  0  0  0  0  0  0  0  0  0  0  0
   26.4769  -12.9366  -17.6606 N   0  0  0  0  0  0  0  0  0  0  0  0
   21.8225  -12.0594  -18.1045 C   0  0  0  0  0  0  0  0  0  0  0  0
   21.2918  -11.7347  -19.1943 O   0  0  0  0  0  0  0  0  0  0  0  0
   19.6596  -11.4327  -14.8511 O   0  0  0  0  0  0  0  0  0  0  0  0
   19.1124  -11.1083  -16.0846 C   0  0  0  0  0  0  0  0  0  0  0  0
   20.2395  -10.4951  -16.9110 C   0  0  2  0  0  0  0  0  0  0  0  0
   21.3456  -11.4398  -16.9216 N   0  0  0  0  0  0  0  0  0  0  0  0
   20.7003   -9.2972  -16.1643 C   0  0  0  0  0  0  0  0  0  0  0  0
   21.9008   -9.1244  -15.8219 O   0  0  0  0  0  0  0  0  0  0  0  0
   22.4622   -1.1332  -14.6572 O   0  0  0  0  0  0  0  0  0  0  0  0
   22.1721   -2.4527  -14.9707 C   0  0  0  0  0  0  0  0  0  0  0  0
   22.5177   -3.4537  -14.0844 C   0  0  0  0  0  0  0  0  0  0  0  0
   22.2090   -4.7683  -14.4356 C   0  0  0  0  0  0  0  0  0  0  0  0
   21.5828   -5.0717  -15.6191 C   0  0  0  0  0  0  0  0  0  0  0  0
   21.2835   -6.4708  -15.9405 C   0  0  0  0  0  0  0  0  0  0  0  0
   20.2252   -7.1012  -15.0768 C   0  0  2  0  0  0  0  0  0  0  0  0
   19.7746   -8.2954  -15.8112 N   0  0  0  0  0  0  0  0  0  0  0  0
   19.0265   -6.2597  -14.8887 C   0  0  0  0  0  0  0  0  0  0  0  0
   18.1145   -6.3088  -15.7521 O   0  0  0  0  0  0  0  0  0  0  0  0
   21.2595   -4.0341  -16.4684 C   0  0  0  0  0  0  0  0  0  0  0  0
   21.5425   -2.7168  -16.1688 C   0  0  0  0  0  0  0  0  0  0  0  0
   18.8201   -5.4030  -13.8170 O   0  0  0  0  0  0  0  0  0  0  0  0
  2  1  1  6
  2  3  1  0
  4  3  1  0
  4  8  1  0
  5  6  1  0
  5  4  2  0
  6  7  1  0
  7  8  2  0
  9  2  1  0
 10  9  2  0
 11 12  1  0
 13 12  1  1
 13 14  1  0
 14  9  1  0
 15 13  1  0
 15 24  1  0
 16 15  2  0
 18 17  1  0
 19 18  2  0
 20 19  1  0
 21 27  1  0
 21 20  2  0
 22 21  1  0
 23 22  1  6
 23 24  1  0
 23 25  1  0
 25 29  1  0
 26 25  2  0
 27 28  2  0
 28 18  1  0
M  END
$$$$
