HSY.pdb
     RDKit          3D

 29 30  0  0  1  0  0  0  0  0999 V2000
   22.7915  -19.8465  -18.3837 N   0  0  0  0  0  0  0  0  0  0  0  0
   23.9722  -19.2593  -17.7787 C   0  0  1  0  0  0  0  0  0  0  0  0
   23.4918  -17.9826  -17.0769 C   0  0  0  0  0  0  0  0  0  0  0  0
   23.2550  -16.9546  -18.1117 C   0  0  0  0  0  0  0  0  0  0  0  0
   24.2437  -16.4010  -18.9219 C   0  0  0  0  0  0  0  0  0  0  0  0
   23.6539  -15.5056  -19.7362 N   0  0  0  0  0  0  0  0  0  0  0  0
   22.3403  -15.4713  -19.4748 C   0  0  0  0  0  0  0  0  0  0  0  0
   22.1097  -16.3580  -18.4838 N   0  0  0  0  0  0  0  0  0  0  0  0
   24.5359  -20.1244  -16.7161 C   0  0  0  0  0  0  0  0  0  0  0  0
   23.8432  -20.3411  -15.6923 O   0  0  0  0  0  0  0  0  0  0  0  0
   28.4495  -21.3635  -16.7135 O   0  0  0  0  0  0  0  0  0  0  0  0
   27.5399  -22.3548  -16.3726 C   0  0  0  0  0  0  0  0  0  0  0  0
   26.3245  -21.6439  -15.7838 C   0  0  2  0  0  0  0  0  0  0  0  0
   25.8187  -20.7237  -16.7906 N   0  0  0  0  0  0  0  0  0  0  0  0
   26.8290  -20.8187  -14.6572 C   0  0  0  0  0  0  0  0  0  0  0  0
   27.2019  -19.6232  -14.7983 O   0  0  0  0  0  0  0  0  0  0  0  0
   21.2693  -21.0612  -10.4184 O   0  0  0  0  0  0  0  0  0  0  0  0
   22.5315  -20.6605  -10.8304 C   0  0  0  0  0  0  0  0  0  0  0  0
   23.5002  -20.3874   -9.8848 C   0  0  0  0  0  0  0  0  0  0  0  0
   24.7574  -19.9872  -10.3388 C   0  0  0  0  0  0  0  0  0  0  0  0
   25.0366  -19.8644  -11.6774 C   0  0  0  0  0  0  0  0  0  0  0  0
   26.3741  -19.4376  -12.1006 C   0  0  0  0  0  0  0  0  0  0  0  0
   27.3756  -20.5520  -12.2363 C   0  0  2  0  0  0  0  0  0  0  0  0
   26.9038  -21.3730  -13.3640 N   0  0  0  0  0  0  0  0  0  0  0  0
   27.4299  -21.4535  -11.0681 C   0  0  0  0  0  0  0  0  0  0  0  0
   26.8907  -22.5855  -11.1551 O   0  0  0  0  0  0  0  0  0  0  0  0
   24.0332  -20.1493  -12.5798 C   0  0  0  0  0  0  0  0  0  0  0  0
   22.7729  -20.5490  -12.1835 C   0  0  0  0  0  0  0  0  0  0  0  0
   28.0386  -21.1482   -9.8593 O   0  0  0  0  0  0  0  0  0  0  0  0
  2  1  1  1
  2  3  1  0
  4  3  1  0
  4  8  1  0
  5  6  1  0
  5  4  2  0
  6  7  1  0
  7  8  2  0
  9  2  1  0
 10  9  2  0
 11 12  1  0
 13 12  1  6
 13 14  1  0
 14  9  1  0
 15 13  1  0
 15 24  1  0
 16 15  2  0
 18 17  1  0
 19 18  2  0
 20 19  1  0
 21 27  1  0
 21 20  2  0
 22 21  1  0
 23 22  1  1
 23 24  1  0
 23 25  1  0
 25 29  1  0
 26 25  2  0
 27 28  2  0
 28 18  1  0
M  END
$$$$
