HSY.pdb
     RDKit          3D

 29 30  0  0  1  0  0  0  0  0999 V2000
   20.4320  -12.2466  -17.6947 N   0  0  0  0  0  0  0  0  0  0  0  0
   19.5252  -12.3144  -16.5643 C   0  0  1  0  0  0  0  0  0  0  0  0
   19.9663  -13.5352  -15.7468 C   0  0  0  0  0  0  0  0  0  0  0  0
   19.6100  -14.7489  -16.5106 C   0  0  0  0  0  0  0  0  0  0  0  0
   20.4837  -15.4523  -17.3366 C   0  0  0  0  0  0  0  0  0  0  0  0
   19.8072  -16.4924  -17.8595 N   0  0  0  0  0  0  0  0  0  0  0  0
   18.5488  -16.4746  -17.3999 C   0  0  0  0  0  0  0  0  0  0  0  0
   18.4410  -15.4084  -16.5796 N   0  0  0  0  0  0  0  0  0  0  0  0
   19.6733  -11.1446  -15.6673 C   0  0  0  0  0  0  0  0  0  0  0  0
   18.9537  -11.0839  -14.6410 O   0  0  0  0  0  0  0  0  0  0  0  0
   22.8316   -8.8594  -15.8349 O   0  0  0  0  0  0  0  0  0  0  0  0
   22.0601   -8.6022  -14.7102 C   0  0  0  0  0  0  0  0  0  0  0  0
   20.6110   -8.8672  -15.1088 C   0  0  2  0  0  0  0  0  0  0  0  0
   20.5858  -10.0853  -15.9036 N   0  0  0  0  0  0  0  0  0  0  0  0
   20.2156   -7.7545  -16.0090 C   0  0  0  0  0  0  0  0  0  0  0  0
   20.4160   -7.7767  -17.2530 O   0  0  0  0  0  0  0  0  0  0  0  0
   13.1902   -7.1129  -15.2050 O   0  0  0  0  0  0  0  0  0  0  0  0
   14.4431   -6.8398  -15.7334 C   0  0  0  0  0  0  0  0  0  0  0  0
   15.2266   -7.8783  -16.1965 C   0  0  0  0  0  0  0  0  0  0  0  0
   16.4806   -7.5631  -16.7207 C   0  0  0  0  0  0  0  0  0  0  0  0
   16.9338   -6.2685  -16.7807 C   0  0  0  0  0  0  0  0  0  0  0  0
   18.2613   -5.9925  -17.3393 C   0  0  0  0  0  0  0  0  0  0  0  0
   19.2645   -5.4714  -16.3467 C   0  0  2  0  0  0  0  0  0  0  0  0
   19.5872   -6.6126  -15.4737 N   0  0  0  0  0  0  0  0  0  0  0  0
   18.7367   -4.4147  -15.4607 C   0  0  0  0  0  0  0  0  0  0  0  0
   18.5146   -4.6942  -14.2556 O   0  0  0  0  0  0  0  0  0  0  0  0
   16.1114   -5.2689  -16.3045 C   0  0  0  0  0  0  0  0  0  0  0  0
   14.8626   -5.5268  -15.7763 C   0  0  0  0  0  0  0  0  0  0  0  0
   18.4604   -3.1138  -15.8564 O   0  0  0  0  0  0  0  0  0  0  0  0
  2  1  1  6
  2  3  1  0
  4  3  1  0
  4  8  1  0
  5  6  1  0
  5  4  2  0
  6  7  1  0
  7  8  2  0
  9  2  1  0
 10  9  2  0
 11 12  1  0
 13 12  1  6
 13 14  1  0
 14  9  1  0
 15 13  1  0
 15 24  1  0
 16 15  2  0
 18 17  1  0
 19 18  2  0
 20 19  1  0
 21 27  1  0
 21 20  2  0
 22 21  1  0
 23 22  1  6
 23 24  1  0
 23 25  1  0
 25 29  1  0
 26 25  2  0
 27 28  2  0
 28 18  1  0
M  END
$$$$
