HYF.pdb
     RDKit          3D

 34 36  0  0  1  0  0  0  0  0999 V2000
    8.6594  -16.6910   19.4816 N   0  0  0  0  0  0  0  0  0  0  0  0
    8.7210  -15.6612   20.4845 C   0  0  1  0  0  0  0  0  0  0  0  0
    7.6592  -14.6081   20.2535 C   0  0  0  0  0  0  0  0  0  0  0  0
    7.9451  -13.9584   18.9482 C   0  0  0  0  0  0  0  0  0  0  0  0
    8.5757  -12.7443   18.7397 C   0  0  0  0  0  0  0  0  0  0  0  0
    8.6586  -12.4785   17.4039 N   0  0  0  0  0  0  0  0  0  0  0  0
    8.0825  -13.5224   16.7928 C   0  0  0  0  0  0  0  0  0  0  0  0
    7.6524  -14.4125   17.6976 N   0  0  0  0  0  0  0  0  0  0  0  0
    8.5896  -16.2705   21.8435 C   0  0  0  0  0  0  0  0  0  0  0  0
    7.4583  -16.3171   22.3575 O   0  0  0  0  0  0  0  0  0  0  0  0
    7.0011  -22.3855   20.6251 O   0  0  0  0  0  0  0  0  0  0  0  0
    7.7691  -21.4974   21.3834 C   0  0  0  0  0  0  0  0  0  0  0  0
    8.8265  -20.8084   20.8265 C   0  0  0  0  0  0  0  0  0  0  0  0
    9.6011  -19.9252   21.5536 C   0  0  0  0  0  0  0  0  0  0  0  0
    9.3409  -19.6982   22.8797 C   0  0  0  0  0  0  0  0  0  0  0  0
   10.1378  -18.7901   23.7347 C   0  0  0  0  0  0  0  0  0  0  0  0
    9.6386  -17.3842   23.8084 C   0  0  2  0  0  0  0  0  0  0  0  0
    9.7108  -16.7732   22.5152 N   0  0  0  0  0  0  0  0  0  0  0  0
   10.3556  -16.5983   24.8394 C   0  0  0  0  0  0  0  0  0  0  0  0
   11.5836  -16.3049   24.6217 O   0  0  0  0  0  0  0  0  0  0  0  0
    8.2875  -20.3806   23.4467 C   0  0  0  0  0  0  0  0  0  0  0  0
    7.5056  -21.2692   22.7213 C   0  0  0  0  0  0  0  0  0  0  0  0
    9.7773  -16.1471   26.0606 N   0  0  0  0  0  0  0  0  0  0  0  0
   10.5488  -15.3288   26.9375 C   0  0  1  0  0  0  0  0  0  0  0  0
   10.3269  -13.8602   26.8340 C   0  0  0  0  0  0  0  0  0  0  0  0
    8.9362  -13.4411   26.5868 C   0  0  0  0  0  0  0  0  0  0  0  0
    8.3217  -12.5909   27.5080 C   0  0  0  0  0  0  0  0  0  0  0  0
    7.0184  -12.1556   27.3423 C   0  0  0  0  0  0  0  0  0  0  0  0
    6.2695  -12.5435   26.2588 C   0  0  0  0  0  0  0  0  0  0  0  0
    6.8517  -13.3818   25.3358 C   0  0  0  0  0  0  0  0  0  0  0  0
    8.1702  -13.8196   25.5074 C   0  0  0  0  0  0  0  0  0  0  0  0
   10.2769  -15.7354   28.3617 C   0  0  0  0  0  0  0  0  0  0  0  0
   10.8682  -15.1361   29.2663 O   0  0  0  0  0  0  0  0  0  0  0  0
    9.3969  -16.7432   28.6714 O   0  0  0  0  0  0  0  0  0  0  0  0
  2  1  1  6
  2  9  1  0
  2  3  1  0
  3  4  1  0
  4  5  2  0
  5  6  1  0
  7  6  1  0
  8  4  1  0
  8  7  2  0
  9 10  2  0
 11 12  1  0
 12 13  2  0
 12 22  1  0
 13 14  1  0
 14 15  2  0
 15 16  1  0
 17 16  1  6
 18 17  1  0
 18  9  1  0
 19 20  2  0
 19 17  1  0
 21 15  1  0
 22 21  2  0
 23 19  1  0
 24 25  1  1
 24 23  1  0
 25 26  1  0
 26 31  2  0
 27 28  2  0
 27 26  1  0
 28 29  1  0
 29 30  2  0
 31 30  1  0
 32 24  1  0
 32 34  1  0
 33 32  2  0
M  END
$$$$
