HYF.pdb
     RDKit          3D

 34 36  0  0  1  0  0  0  0  0999 V2000
   10.9061  -16.8416   14.7364 N   0  0  0  0  0  0  0  0  0  0  0  0
   10.4768  -15.8870   15.7236 C   0  0  1  0  0  0  0  0  0  0  0  0
    8.9972  -16.0232   16.0097 C   0  0  0  0  0  0  0  0  0  0  0  0
    8.2626  -15.3053   14.9360 C   0  0  0  0  0  0  0  0  0  0  0  0
    8.8023  -14.7049   13.8120 C   0  0  0  0  0  0  0  0  0  0  0  0
    7.8146  -14.1450   13.0553 N   0  0  0  0  0  0  0  0  0  0  0  0
    6.6728  -14.3987   13.7090 C   0  0  0  0  0  0  0  0  0  0  0  0
    6.9218  -15.0886   14.8306 N   0  0  0  0  0  0  0  0  0  0  0  0
   11.2846  -16.0517   16.9709 C   0  0  0  0  0  0  0  0  0  0  0  0
   11.5194  -17.2063   17.3684 O   0  0  0  0  0  0  0  0  0  0  0  0
   18.3009  -15.0874   21.6682 O   0  0  0  0  0  0  0  0  0  0  0  0
   17.0918  -14.7815   21.0371 C   0  0  0  0  0  0  0  0  0  0  0  0
   15.9537  -14.5036   21.7650 C   0  0  0  0  0  0  0  0  0  0  0  0
   14.7466  -14.1984   21.1661 C   0  0  0  0  0  0  0  0  0  0  0  0
   14.6357  -14.1604   19.8008 C   0  0  0  0  0  0  0  0  0  0  0  0
   13.3753  -13.8690   19.0817 C   0  0  0  0  0  0  0  0  0  0  0  0
   12.4514  -15.0315   18.9202 C   0  0  2  0  0  0  0  0  0  0  0  0
   11.7614  -14.9352   17.6689 N   0  0  0  0  0  0  0  0  0  0  0  0
   11.5194  -15.1577   20.0648 C   0  0  0  0  0  0  0  0  0  0  0  0
   10.6395  -14.2401   20.2241 O   0  0  0  0  0  0  0  0  0  0  0  0
   15.7658  -14.4364   19.0634 C   0  0  0  0  0  0  0  0  0  0  0  0
   16.9812  -14.7436   19.6594 C   0  0  0  0  0  0  0  0  0  0  0  0
   11.5335  -16.2271   21.0059 N   0  0  0  0  0  0  0  0  0  0  0  0
   10.6539  -16.1810   22.1275 C   0  0  1  0  0  0  0  0  0  0  0  0
    9.1971  -16.2349   21.8253 C   0  0  0  0  0  0  0  0  0  0  0  0
    8.5982  -14.9771   21.3457 C   0  0  0  0  0  0  0  0  0  0  0  0
    8.2445  -14.8773   19.9989 C   0  0  0  0  0  0  0  0  0  0  0  0
    7.6775  -13.7276   19.4769 C   0  0  0  0  0  0  0  0  0  0  0  0
    7.4374  -12.6296   20.2656 C   0  0  0  0  0  0  0  0  0  0  0  0
    7.7772  -12.7018   21.5971 C   0  0  0  0  0  0  0  0  0  0  0  0
    8.3504  -13.8667   22.1208 C   0  0  0  0  0  0  0  0  0  0  0  0
   10.9736  -17.3236   23.0548 C   0  0  0  0  0  0  0  0  0  0  0  0
   10.3659  -17.3959   24.1284 O   0  0  0  0  0  0  0  0  0  0  0  0
   11.9122  -18.2740   22.7358 O   0  0  0  0  0  0  0  0  0  0  0  0
  2  1  1  6
  2  9  1  0
  2  3  1  0
  3  4  1  0
  4  5  2  0
  5  6  1  0
  7  6  1  0
  8  4  1  0
  8  7  2  0
  9 10  2  0
 11 12  1  0
 12 13  2  0
 12 22  1  0
 13 14  1  0
 14 15  2  0
 15 16  1  0
 17 16  1  1
 18 17  1  0
 18  9  1  0
 19 20  2  0
 19 17  1  0
 21 15  1  0
 22 21  2  0
 23 19  1  0
 24 25  1  6
 24 23  1  0
 25 26  1  0
 26 31  2  0
 27 28  2  0
 27 26  1  0
 28 29  1  0
 29 30  2  0
 31 30  1  0
 32 24  1  0
 32 34  1  0
 33 32  2  0
M  END
$$$$
