HYF.pdb
     RDKit          3D

 34 36  0  0  1  0  0  0  0  0999 V2000
   10.7832  -17.3806   18.5281 N   0  0  0  0  0  0  0  0  0  0  0  0
   11.2790  -18.0213   19.7171 C   0  0  1  0  0  0  0  0  0  0  0  0
   12.7189  -18.4539   19.5459 C   0  0  0  0  0  0  0  0  0  0  0  0
   12.7311  -19.6309   18.6390 C   0  0  0  0  0  0  0  0  0  0  0  0
   11.7057  -20.5370   18.4323 C   0  0  0  0  0  0  0  0  0  0  0  0
   12.0871  -21.4832   17.5262 N   0  0  0  0  0  0  0  0  0  0  0  0
   13.3400  -21.1622   17.1764 C   0  0  0  0  0  0  0  0  0  0  0  0
   13.7385  -20.0620   17.8297 N   0  0  0  0  0  0  0  0  0  0  0  0
   11.1274  -17.1028   20.8871 C   0  0  0  0  0  0  0  0  0  0  0  0
   11.9315  -16.1612   21.0004 O   0  0  0  0  0  0  0  0  0  0  0  0
    6.9157  -12.7496   18.5602 O   0  0  0  0  0  0  0  0  0  0  0  0
    7.3071  -13.5430   19.6423 C   0  0  0  0  0  0  0  0  0  0  0  0
    6.8814  -14.8493   19.7642 C   0  0  0  0  0  0  0  0  0  0  0  0
    7.2535  -15.6546   20.8234 C   0  0  0  0  0  0  0  0  0  0  0  0
    8.0748  -15.1742   21.8095 C   0  0  0  0  0  0  0  0  0  0  0  0
    8.4978  -15.9614   22.9893 C   0  0  0  0  0  0  0  0  0  0  0  0
    9.9106  -16.4454   22.9581 C   0  0  2  0  0  0  0  0  0  0  0  0
   10.1077  -17.3006   21.8264 N   0  0  0  0  0  0  0  0  0  0  0  0
   10.2964  -17.1015   24.2291 C   0  0  0  0  0  0  0  0  0  0  0  0
   10.2503  -18.3809   24.2802 O   0  0  0  0  0  0  0  0  0  0  0  0
    8.5063  -13.8709   21.6985 C   0  0  0  0  0  0  0  0  0  0  0  0
    8.1359  -13.0570   20.6366 C   0  0  0  0  0  0  0  0  0  0  0  0
   10.7126  -16.4101   25.4031 N   0  0  0  0  0  0  0  0  0  0  0  0
   11.1479  -17.1587   26.5362 C   0  0  1  0  0  0  0  0  0  0  0  0
   11.8449  -16.3912   27.6048 C   0  0  0  0  0  0  0  0  0  0  0  0
   11.1263  -15.2101   28.1139 C   0  0  0  0  0  0  0  0  0  0  0  0
   10.6531  -14.2701   27.1966 C   0  0  0  0  0  0  0  0  0  0  0  0
    9.9696  -13.1364   27.6007 C   0  0  0  0  0  0  0  0  0  0  0  0
    9.7265  -12.8859   28.9286 C   0  0  0  0  0  0  0  0  0  0  0  0
   10.1827  -13.7968   29.8536 C   0  0  0  0  0  0  0  0  0  0  0  0
   10.8735  -14.9421   29.4404 C   0  0  0  0  0  0  0  0  0  0  0  0
    9.9623  -17.8447   27.1618 C   0  0  0  0  0  0  0  0  0  0  0  0
    8.8335  -17.5610   26.7463 O   0  0  0  0  0  0  0  0  0  0  0  0
   10.1078  -18.7667   28.1690 O   0  0  0  0  0  0  0  0  0  0  0  0
  2  1  1  6
  2  9  1  0
  2  3  1  0
  3  4  1  0
  4  5  2  0
  5  6  1  0
  7  6  1  0
  8  4  1  0
  8  7  2  0
  9 10  2  0
 11 12  1  0
 12 13  2  0
 12 22  1  0
 13 14  1  0
 14 15  2  0
 15 16  1  0
 17 16  1  1
 18 17  1  0
 18  9  1  0
 19 20  2  0
 19 17  1  0
 21 15  1  0
 22 21  2  0
 23 19  1  0
 24 25  1  1
 24 23  1  0
 25 26  1  0
 26 31  2  0
 27 28  2  0
 27 26  1  0
 28 29  1  0
 29 30  2  0
 31 30  1  0
 32 24  1  0
 32 34  1  0
 33 32  2  0
M  END
$$$$
