HYF.pdb
     RDKit          3D

 34 36  0  0  1  0  0  0  0  0999 V2000
    8.1200  -19.2965   19.9876 N   0  0  0  0  0  0  0  0  0  0  0  0
    7.4399  -18.4586   20.9391 C   0  0  1  0  0  0  0  0  0  0  0  0
    6.6818  -19.2864   21.9539 C   0  0  0  0  0  0  0  0  0  0  0  0
    5.5921  -19.9949   21.2340 C   0  0  0  0  0  0  0  0  0  0  0  0
    5.2728  -19.8916   19.8914 C   0  0  0  0  0  0  0  0  0  0  0  0
    4.2101  -20.6948   19.5955 N   0  0  0  0  0  0  0  0  0  0  0  0
    3.8764  -21.2895   20.7488 C   0  0  0  0  0  0  0  0  0  0  0  0
    4.6892  -20.8839   21.7342 N   0  0  0  0  0  0  0  0  0  0  0  0
    8.4231  -17.5527   21.6085 C   0  0  0  0  0  0  0  0  0  0  0  0
    9.6122  -17.9129   21.6576 O   0  0  0  0  0  0  0  0  0  0  0  0
    7.5891  -13.2812   16.7606 O   0  0  0  0  0  0  0  0  0  0  0  0
    7.8214  -13.4505   18.1285 C   0  0  0  0  0  0  0  0  0  0  0  0
    9.0944  -13.3745   18.6540 C   0  0  0  0  0  0  0  0  0  0  0  0
    9.3511  -13.5379   20.0017 C   0  0  0  0  0  0  0  0  0  0  0  0
    8.3298  -13.7861   20.8809 C   0  0  0  0  0  0  0  0  0  0  0  0
    8.5224  -13.9997   22.3327 C   0  0  0  0  0  0  0  0  0  0  0  0
    8.9254  -15.3837   22.7244 C   0  0  2  0  0  0  0  0  0  0  0  0
    8.0127  -16.3340   22.1632 N   0  0  0  0  0  0  0  0  0  0  0  0
    9.0486  -15.5266   24.1937 C   0  0  0  0  0  0  0  0  0  0  0  0
   10.0081  -14.9093   24.7767 O   0  0  0  0  0  0  0  0  0  0  0  0
    7.0541  -13.8643   20.3675 C   0  0  0  0  0  0  0  0  0  0  0  0
    6.7899  -13.7010   19.0145 C   0  0  0  0  0  0  0  0  0  0  0  0
    8.1767  -16.3063   25.0070 N   0  0  0  0  0  0  0  0  0  0  0  0
    8.4440  -16.4241   26.4029 C   0  0  1  0  0  0  0  0  0  0  0  0
    7.5440  -15.6634   27.3128 C   0  0  0  0  0  0  0  0  0  0  0  0
    7.5812  -14.1976   27.1678 C   0  0  0  0  0  0  0  0  0  0  0  0
    8.7731  -13.5288   27.4527 C   0  0  0  0  0  0  0  0  0  0  0  0
    8.8830  -12.1538   27.3391 C   0  0  0  0  0  0  0  0  0  0  0  0
    7.8187  -11.3840   26.9394 C   0  0  0  0  0  0  0  0  0  0  0  0
    6.6318  -12.0187   26.6528 C   0  0  0  0  0  0  0  0  0  0  0  0
    6.5251  -13.4097   26.7690 C   0  0  0  0  0  0  0  0  0  0  0  0
    8.3782  -17.8754   26.7990 C   0  0  0  0  0  0  0  0  0  0  0  0
    8.6787  -18.1817   27.9579 O   0  0  0  0  0  0  0  0  0  0  0  0
    7.9953  -18.8513   25.9119 O   0  0  0  0  0  0  0  0  0  0  0  0
  2  1  1  6
  2  9  1  0
  2  3  1  0
  3  4  1  0
  4  5  2  0
  5  6  1  0
  7  6  1  0
  8  4  1  0
  8  7  2  0
  9 10  2  0
 11 12  1  0
 12 13  2  0
 12 22  1  0
 13 14  1  0
 14 15  2  0
 15 16  1  0
 17 16  1  1
 18 17  1  0
 18  9  1  0
 19 20  2  0
 19 17  1  0
 21 15  1  0
 22 21  2  0
 23 19  1  0
 24 25  1  1
 24 23  1  0
 25 26  1  0
 26 31  2  0
 27 28  2  0
 27 26  1  0
 28 29  1  0
 29 30  2  0
 31 30  1  0
 32 24  1  0
 32 34  1  0
 33 32  2  0
M  END
$$$$
