HYF.pdb
     RDKit          3D

 34 36  0  0  1  0  0  0  0  0999 V2000
    6.0746  -19.2072   20.5587 N   0  0  0  0  0  0  0  0  0  0  0  0
    5.8297  -17.9914   21.2881 C   0  0  1  0  0  0  0  0  0  0  0  0
    4.9032  -18.2332   22.4598 C   0  0  0  0  0  0  0  0  0  0  0  0
    3.6099  -18.7248   21.9178 C   0  0  0  0  0  0  0  0  0  0  0  0
    3.2670  -18.8796   20.5861 C   0  0  0  0  0  0  0  0  0  0  0  0
    1.9927  -19.3556   20.4788 N   0  0  0  0  0  0  0  0  0  0  0  0
    1.5529  -19.4932   21.7369 C   0  0  0  0  0  0  0  0  0  0  0  0
    2.5033  -19.1220   22.6058 N   0  0  0  0  0  0  0  0  0  0  0  0
    7.1277  -17.4025   21.7395 C   0  0  0  0  0  0  0  0  0  0  0  0
    8.1294  -18.1389   21.7595 O   0  0  0  0  0  0  0  0  0  0  0  0
    8.2651  -12.9384   16.6146 O   0  0  0  0  0  0  0  0  0  0  0  0
    8.3081  -13.1917   17.9885 C   0  0  0  0  0  0  0  0  0  0  0  0
    9.5040  -13.4129   18.6394 C   0  0  0  0  0  0  0  0  0  0  0  0
    9.5741  -13.6653   19.9960 C   0  0  0  0  0  0  0  0  0  0  0  0
    8.4355  -13.7055   20.7574 C   0  0  0  0  0  0  0  0  0  0  0  0
    8.4216  -13.9954   22.2087 C   0  0  0  0  0  0  0  0  0  0  0  0
    8.4255  -15.4452   22.5680 C   0  0  2  0  0  0  0  0  0  0  0  0
    7.2090  -16.0595   22.1280 N   0  0  0  0  0  0  0  0  0  0  0  0
    8.6660  -15.6536   24.0149 C   0  0  0  0  0  0  0  0  0  0  0  0
    9.7429  -15.1749   24.5176 O   0  0  0  0  0  0  0  0  0  0  0  0
    7.2354  -13.4861   20.1183 C   0  0  0  0  0  0  0  0  0  0  0  0
    7.1585  -13.2320   18.7557 C   0  0  0  0  0  0  0  0  0  0  0  0
    7.7853  -16.3531   24.8893 N   0  0  0  0  0  0  0  0  0  0  0  0
    8.1823  -16.5870   26.2389 C   0  0  1  0  0  0  0  0  0  0  0  0
    7.3594  -15.9297   27.2912 C   0  0  0  0  0  0  0  0  0  0  0  0
    7.3362  -14.4570   27.2557 C   0  0  0  0  0  0  0  0  0  0  0  0
    6.1543  -13.8170   26.8782 C   0  0  0  0  0  0  0  0  0  0  0  0
    6.0578  -12.4374   26.8218 C   0  0  0  0  0  0  0  0  0  0  0  0
    7.1262  -11.6345   27.1362 C   0  0  0  0  0  0  0  0  0  0  0  0
    8.3035  -12.2404   27.5113 C   0  0  0  0  0  0  0  0  0  0  0  0
    8.3967  -13.6360   27.5670 C   0  0  0  0  0  0  0  0  0  0  0  0
    8.1745  -18.0686   26.5078 C   0  0  0  0  0  0  0  0  0  0  0  0
    8.5442  -18.4655   27.6181 O   0  0  0  0  0  0  0  0  0  0  0  0
    7.7695  -18.9745   25.5585 O   0  0  0  0  0  0  0  0  0  0  0  0
  2  1  1  1
  2  9  1  0
  2  3  1  0
  3  4  1  0
  4  5  2  0
  5  6  1  0
  7  6  1  0
  8  4  1  0
  8  7  2  0
  9 10  2  0
 11 12  1  0
 12 13  2  0
 12 22  1  0
 13 14  1  0
 14 15  2  0
 15 16  1  0
 17 16  1  1
 18 17  1  0
 18  9  1  0
 19 20  2  0
 19 17  1  0
 21 15  1  0
 22 21  2  0
 23 19  1  0
 24 25  1  1
 24 23  1  0
 25 26  1  0
 26 31  2  0
 27 28  2  0
 27 26  1  0
 28 29  1  0
 29 30  2  0
 31 30  1  0
 32 24  1  0
 32 34  1  0
 33 32  2  0
M  END
$$$$
