HYF.pdb
     RDKit          3D

 34 36  0  0  1  0  0  0  0  0999 V2000
   11.6172  -17.2368   15.3796 N   0  0  0  0  0  0  0  0  0  0  0  0
   11.3642  -16.1759   16.3181 C   0  0  1  0  0  0  0  0  0  0  0  0
    9.9048  -16.1331   16.7155 C   0  0  0  0  0  0  0  0  0  0  0  0
    9.1596  -15.4563   15.6226 C   0  0  0  0  0  0  0  0  0  0  0  0
    9.6819  -14.9445   14.4477 C   0  0  0  0  0  0  0  0  0  0  0  0
    8.6890  -14.3972   13.6884 N   0  0  0  0  0  0  0  0  0  0  0  0
    7.5615  -14.5706   14.3912 C   0  0  0  0  0  0  0  0  0  0  0  0
    7.8240  -15.1995   15.5452 N   0  0  0  0  0  0  0  0  0  0  0  0
   12.2446  -16.3395   17.5154 C   0  0  0  0  0  0  0  0  0  0  0  0
   12.6454  -17.4827   17.7958 O   0  0  0  0  0  0  0  0  0  0  0  0
   19.0012  -14.1741   16.3449 O   0  0  0  0  0  0  0  0  0  0  0  0
   17.8429  -14.1556   17.1271 C   0  0  0  0  0  0  0  0  0  0  0  0
   17.0170  -13.0513   17.1589 C   0  0  0  0  0  0  0  0  0  0  0  0
   15.8669  -13.0074   17.9232 C   0  0  0  0  0  0  0  0  0  0  0  0
   15.4991  -14.0806   18.6917 C   0  0  0  0  0  0  0  0  0  0  0  0
   14.2992  -14.1045   19.5579 C   0  0  0  0  0  0  0  0  0  0  0  0
   13.4565  -15.3325   19.4439 C   0  0  2  0  0  0  0  0  0  0  0  0
   12.6053  -15.2345   18.2964 N   0  0  0  0  0  0  0  0  0  0  0  0
   12.6928  -15.5939   20.6862 C   0  0  0  0  0  0  0  0  0  0  0  0
   13.3518  -15.7284   21.7767 O   0  0  0  0  0  0  0  0  0  0  0  0
   16.3162  -15.1891   18.6680 C   0  0  0  0  0  0  0  0  0  0  0  0
   17.4729  -15.2392   17.9021 C   0  0  0  0  0  0  0  0  0  0  0  0
   11.2747  -15.7103   20.7551 N   0  0  0  0  0  0  0  0  0  0  0  0
   10.6466  -15.8437   22.0285 C   0  0  1  0  0  0  0  0  0  0  0  0
    9.6529  -14.7944   22.3864 C   0  0  0  0  0  0  0  0  0  0  0  0
    8.8605  -14.2578   21.2662 C   0  0  0  0  0  0  0  0  0  0  0  0
    9.4786  -13.3842   20.3696 C   0  0  0  0  0  0  0  0  0  0  0  0
    8.7977  -12.8406   19.2941 C   0  0  0  0  0  0  0  0  0  0  0  0
    7.4778  -13.1387   19.0615 C   0  0  0  0  0  0  0  0  0  0  0  0
    6.8448  -13.9973   19.9308 C   0  0  0  0  0  0  0  0  0  0  0  0
    7.5372  -14.5447   21.0173 C   0  0  0  0  0  0  0  0  0  0  0  0
    9.9524  -17.1780   22.1010 C   0  0  0  0  0  0  0  0  0  0  0  0
    9.4288  -17.5099   23.1700 O   0  0  0  0  0  0  0  0  0  0  0  0
    9.8890  -18.0208   21.0186 O   0  0  0  0  0  0  0  0  0  0  0  0
  2  1  1  6
  2  9  1  0
  2  3  1  0
  3  4  1  0
  4  5  2  0
  5  6  1  0
  7  6  1  0
  8  4  1  0
  8  7  2  0
  9 10  2  0
 11 12  1  0
 12 13  2  0
 12 22  1  0
 13 14  1  0
 14 15  2  0
 15 16  1  0
 17 16  1  1
 18 17  1  0
 18  9  1  0
 19 20  2  0
 19 17  1  0
 21 15  1  0
 22 21  2  0
 23 19  1  0
 24 25  1  6
 24 23  1  0
 25 26  1  0
 26 31  2  0
 27 28  2  0
 27 26  1  0
 28 29  1  0
 29 30  2  0
 31 30  1  0
 32 24  1  0
 32 34  1  0
 33 32  2  0
M  END
$$$$
