HYF.pdb
     RDKit          3D

 34 36  0  0  1  0  0  0  0  0999 V2000
   10.3158  -16.4578   19.8487 N   0  0  0  0  0  0  0  0  0  0  0  0
    9.9347  -15.4872   20.8400 C   0  0  1  0  0  0  0  0  0  0  0  0
    8.5227  -14.9945   20.6091 C   0  0  0  0  0  0  0  0  0  0  0  0
    8.4954  -14.3052   19.2931 C   0  0  0  0  0  0  0  0  0  0  0  0
    9.0434  -13.0726   18.9840 C   0  0  0  0  0  0  0  0  0  0  0  0
    8.8174  -12.7707   17.6727 N   0  0  0  0  0  0  0  0  0  0  0  0
    8.1342  -13.8109   17.1765 C   0  0  0  0  0  0  0  0  0  0  0  0
    7.9341  -14.7332   18.1279 N   0  0  0  0  0  0  0  0  0  0  0  0
   10.0840  -16.0749   22.2066 C   0  0  0  0  0  0  0  0  0  0  0  0
    9.7231  -17.2520   22.3806 O   0  0  0  0  0  0  0  0  0  0  0  0
   11.3857  -15.7922   31.0862 O   0  0  0  0  0  0  0  0  0  0  0  0
   11.3452  -15.5366   29.7126 C   0  0  0  0  0  0  0  0  0  0  0  0
   11.8286  -16.4501   28.7991 C   0  0  0  0  0  0  0  0  0  0  0  0
   11.8003  -16.2221   27.4367 C   0  0  0  0  0  0  0  0  0  0  0  0
   11.2809  -15.0573   26.9354 C   0  0  0  0  0  0  0  0  0  0  0  0
   11.2379  -14.7245   25.4939 C   0  0  0  0  0  0  0  0  0  0  0  0
   10.5642  -15.7372   24.6268 C   0  0  2  0  0  0  0  0  0  0  0  0
   10.6155  -15.3182   23.2583 N   0  0  0  0  0  0  0  0  0  0  0  0
    9.1797  -16.0132   25.0759 C   0  0  0  0  0  0  0  0  0  0  0  0
    8.4955  -15.0354   25.5420 O   0  0  0  0  0  0  0  0  0  0  0  0
   10.7953  -14.1375   27.8383 C   0  0  0  0  0  0  0  0  0  0  0  0
   10.8209  -14.3609   29.2081 C   0  0  0  0  0  0  0  0  0  0  0  0
    8.5538  -17.2922   25.0300 N   0  0  0  0  0  0  0  0  0  0  0  0
    7.2526  -17.4527   25.5911 C   0  0  1  0  0  0  0  0  0  0  0  0
    6.1900  -16.5562   25.0584 C   0  0  0  0  0  0  0  0  0  0  0  0
    6.2474  -15.1569   25.5162 C   0  0  0  0  0  0  0  0  0  0  0  0
    6.0319  -14.8880   26.8691 C   0  0  0  0  0  0  0  0  0  0  0  0
    6.0703  -13.5989   27.3716 C   0  0  0  0  0  0  0  0  0  0  0  0
    6.3231  -12.5232   26.5567 C   0  0  0  0  0  0  0  0  0  0  0  0
    6.5387  -12.7610   25.2186 C   0  0  0  0  0  0  0  0  0  0  0  0
    6.4990  -14.0664   24.7146 C   0  0  0  0  0  0  0  0  0  0  0  0
    6.7983  -18.8742   25.3898 C   0  0  0  0  0  0  0  0  0  0  0  0
    7.4522  -19.5974   24.6304 O   0  0  0  0  0  0  0  0  0  0  0  0
    5.6890  -19.3765   26.0246 O   0  0  0  0  0  0  0  0  0  0  0  0
  2  1  1  6
  2  9  1  0
  2  3  1  0
  3  4  1  0
  4  5  2  0
  5  6  1  0
  7  6  1  0
  8  4  1  0
  8  7  2  0
  9 10  2  0
 11 12  1  0
 12 13  2  0
 12 22  1  0
 13 14  1  0
 14 15  2  0
 15 16  1  0
 17 16  1  1
 18 17  1  0
 18  9  1  0
 19 20  2  0
 19 17  1  0
 21 15  1  0
 22 21  2  0
 23 19  1  0
 24 25  1  6
 24 23  1  0
 25 26  1  0
 26 31  2  0
 27 28  2  0
 27 26  1  0
 28 29  1  0
 29 30  2  0
 31 30  1  0
 32 24  1  0
 32 34  1  0
 33 32  2  0
M  END
$$$$
