HYF.pdb
     RDKit          3D

 34 36  0  0  1  0  0  0  0  0999 V2000
    8.5310  -16.1059   20.2565 N   0  0  0  0  0  0  0  0  0  0  0  0
    7.8111  -15.0526   20.9216 C   0  0  1  0  0  0  0  0  0  0  0  0
    6.7023  -14.5101   20.0464 C   0  0  0  0  0  0  0  0  0  0  0  0
    7.3270  -13.9657   18.8131 C   0  0  0  0  0  0  0  0  0  0  0  0
    7.8505  -12.6976   18.6315 C   0  0  0  0  0  0  0  0  0  0  0  0
    8.3379  -12.5649   17.3640 N   0  0  0  0  0  0  0  0  0  0  0  0
    8.1161  -13.7441   16.7678 C   0  0  0  0  0  0  0  0  0  0  0  0
    7.5150  -14.5893   17.6166 N   0  0  0  0  0  0  0  0  0  0  0  0
    7.2743  -15.5517   22.2247 C   0  0  0  0  0  0  0  0  0  0  0  0
    6.5874  -14.7751   22.9112 O   0  0  0  0  0  0  0  0  0  0  0  0
    2.4097  -18.9683   19.8636 O   0  0  0  0  0  0  0  0  0  0  0  0
    3.4129  -18.8864   20.8334 C   0  0  0  0  0  0  0  0  0  0  0  0
    4.7262  -19.1823   20.5328 C   0  0  0  0  0  0  0  0  0  0  0  0
    5.7365  -19.1092   21.4725 C   0  0  0  0  0  0  0  0  0  0  0  0
    5.4636  -18.7328   22.7616 C   0  0  0  0  0  0  0  0  0  0  0  0
    6.4817  -18.6555   23.8331 C   0  0  0  0  0  0  0  0  0  0  0  0
    7.1781  -17.3398   23.9555 C   0  0  2  0  0  0  0  0  0  0  0  0
    7.5397  -16.8572   22.6565 N   0  0  0  0  0  0  0  0  0  0  0  0
    8.3424  -17.4154   24.8683 C   0  0  0  0  0  0  0  0  0  0  0  0
    8.7830  -18.5771   25.1813 O   0  0  0  0  0  0  0  0  0  0  0  0
    4.1556  -18.4350   23.0735 C   0  0  0  0  0  0  0  0  0  0  0  0
    3.1363  -18.5066   22.1338 C   0  0  0  0  0  0  0  0  0  0  0  0
    9.0072  -16.2863   25.4275 N   0  0  0  0  0  0  0  0  0  0  0  0
    9.0754  -16.1484   26.8453 C   0  0  1  0  0  0  0  0  0  0  0  0
    7.9048  -15.5039   27.5018 C   0  0  0  0  0  0  0  0  0  0  0  0
    7.5898  -14.1386   27.0463 C   0  0  0  0  0  0  0  0  0  0  0  0
    8.5640  -13.4286   26.3420 C   0  0  0  0  0  0  0  0  0  0  0  0
    8.3400  -12.1422   25.8830 C   0  0  0  0  0  0  0  0  0  0  0  0
    7.1434  -11.5054   26.1019 C   0  0  0  0  0  0  0  0  0  0  0  0
    6.1661  -12.1832   26.7940 C   0  0  0  0  0  0  0  0  0  0  0  0
    6.3970  -13.4842   27.2564 C   0  0  0  0  0  0  0  0  0  0  0  0
    9.2603  -17.5075   27.4668 C   0  0  0  0  0  0  0  0  0  0  0  0
   10.2078  -17.6741   28.2425 O   0  0  0  0  0  0  0  0  0  0  0  0
    8.4091  -18.5500   27.1942 O   0  0  0  0  0  0  0  0  0  0  0  0
  2  1  1  6
  2  9  1  0
  2  3  1  0
  3  4  1  0
  4  5  2  0
  5  6  1  0
  7  6  1  0
  8  4  1  0
  8  7  2  0
  9 10  2  0
 11 12  1  0
 12 13  2  0
 12 22  1  0
 13 14  1  0
 14 15  2  0
 15 16  1  0
 17 16  1  6
 18 17  1  0
 18  9  1  0
 19 20  2  0
 19 17  1  0
 21 15  1  0
 22 21  2  0
 23 19  1  0
 24 25  1  1
 24 23  1  0
 25 26  1  0
 26 31  2  0
 27 28  2  0
 27 26  1  0
 28 29  1  0
 29 30  2  0
 31 30  1  0
 32 24  1  0
 32 34  1  0
 33 32  2  0
M  END
$$$$
