HYF.pdb
     RDKit          3D

 34 36  0  0  1  0  0  0  0  0999 V2000
    7.6660  -17.7131   15.8232 N   0  0  0  0  0  0  0  0  0  0  0  0
    8.4765  -18.2890   16.8632 C   0  0  1  0  0  0  0  0  0  0  0  0
    9.9274  -18.3747   16.4422 C   0  0  0  0  0  0  0  0  0  0  0  0
   10.0235  -19.3873   15.3591 C   0  0  0  0  0  0  0  0  0  0  0  0
   10.2159  -19.1509   14.0092 C   0  0  0  0  0  0  0  0  0  0  0  0
   10.2510  -20.3301   13.3235 N   0  0  0  0  0  0  0  0  0  0  0  0
   10.0812  -21.2875   14.2453 C   0  0  0  0  0  0  0  0  0  0  0  0
    9.9443  -20.7433   15.4623 N   0  0  0  0  0  0  0  0  0  0  0  0
    8.3258  -17.4939   18.1203 C   0  0  0  0  0  0  0  0  0  0  0  0
    8.4638  -16.2600   18.0529 O   0  0  0  0  0  0  0  0  0  0  0  0
    6.2488  -15.7358   26.5743 O   0  0  0  0  0  0  0  0  0  0  0  0
    6.4050  -16.3285   25.3181 C   0  0  0  0  0  0  0  0  0  0  0  0
    7.0256  -17.5520   25.1751 C   0  0  0  0  0  0  0  0  0  0  0  0
    7.1926  -18.1594   23.9454 C   0  0  0  0  0  0  0  0  0  0  0  0
    6.7387  -17.5555   22.8022 C   0  0  0  0  0  0  0  0  0  0  0  0
    6.9014  -18.1252   21.4459 C   0  0  0  0  0  0  0  0  0  0  0  0
    7.8767  -17.4110   20.5685 C   0  0  2  0  0  0  0  0  0  0  0  0
    8.0375  -18.1243   19.3371 N   0  0  0  0  0  0  0  0  0  0  0  0
    9.1693  -17.1808   21.2546 C   0  0  0  0  0  0  0  0  0  0  0  0
   10.2388  -17.5578   20.6584 O   0  0  0  0  0  0  0  0  0  0  0  0
    6.1174  -16.3332   22.9327 C   0  0  0  0  0  0  0  0  0  0  0  0
    5.9466  -15.7181   24.1653 C   0  0  0  0  0  0  0  0  0  0  0  0
    9.3088  -16.5720   22.5350 N   0  0  0  0  0  0  0  0  0  0  0  0
   10.3734  -15.6492   22.7565 C   0  0  1  0  0  0  0  0  0  0  0  0
    9.9938  -14.2118   22.8355 C   0  0  0  0  0  0  0  0  0  0  0  0
    9.3465  -13.6561   21.6342 C   0  0  0  0  0  0  0  0  0  0  0  0
   10.1110  -13.4984   20.4767 C   0  0  0  0  0  0  0  0  0  0  0  0
    9.5715  -12.9832   19.3108 C   0  0  0  0  0  0  0  0  0  0  0  0
    8.2541  -12.6028   19.2421 C   0  0  0  0  0  0  0  0  0  0  0  0
    7.4785  -12.7476   20.3696 C   0  0  0  0  0  0  0  0  0  0  0  0
    8.0282  -13.2691   21.5466 C   0  0  0  0  0  0  0  0  0  0  0  0
   11.0820  -16.0085   24.0357 C   0  0  0  0  0  0  0  0  0  0  0  0
   12.1111  -15.3908   24.3300 O   0  0  0  0  0  0  0  0  0  0  0  0
   10.6141  -16.9933   24.8706 O   0  0  0  0  0  0  0  0  0  0  0  0
  2  1  1  6
  2  9  1  0
  2  3  1  0
  3  4  1  0
  4  5  2  0
  5  6  1  0
  7  6  1  0
  8  4  1  0
  8  7  2  0
  9 10  2  0
 11 12  1  0
 12 13  2  0
 12 22  1  0
 13 14  1  0
 14 15  2  0
 15 16  1  0
 17 16  1  1
 18 17  1  0
 18  9  1  0
 19 20  2  0
 19 17  1  0
 21 15  1  0
 22 21  2  0
 23 19  1  0
 24 25  1  1
 24 23  1  0
 25 26  1  0
 26 31  2  0
 27 28  2  0
 27 26  1  0
 28 29  1  0
 29 30  2  0
 31 30  1  0
 32 24  1  0
 32 34  1  0
 33 32  2  0
M  END
$$$$
