HYF.pdb
     RDKit          3D

 34 36  0  0  1  0  0  0  0  0999 V2000
    9.9365  -16.7930   17.5720 N   0  0  0  0  0  0  0  0  0  0  0  0
    9.7575  -15.7780   18.5759 C   0  0  1  0  0  0  0  0  0  0  0  0
    8.3018  -15.3856   18.7041 C   0  0  0  0  0  0  0  0  0  0  0  0
    7.9135  -14.6799   17.4554 C   0  0  0  0  0  0  0  0  0  0  0  0
    8.7056  -14.4521   16.3437 C   0  0  0  0  0  0  0  0  0  0  0  0
    8.0014  -13.7716   15.3935 N   0  0  0  0  0  0  0  0  0  0  0  0
    6.7826  -13.5811   15.9164 C   0  0  0  0  0  0  0  0  0  0  0  0
    6.7135  -14.1156   17.1434 N   0  0  0  0  0  0  0  0  0  0  0  0
   10.3039  -16.2573   19.8825 C   0  0  0  0  0  0  0  0  0  0  0  0
   10.3614  -17.4838   20.0787 O   0  0  0  0  0  0  0  0  0  0  0  0
   16.6768  -14.9389   18.5036 O   0  0  0  0  0  0  0  0  0  0  0  0
   15.6507  -14.9296   19.4527 C   0  0  0  0  0  0  0  0  0  0  0  0
   14.6001  -14.0403   19.3635 C   0  0  0  0  0  0  0  0  0  0  0  0
   13.5736  -14.0103   20.2878 C   0  0  0  0  0  0  0  0  0  0  0  0
   13.5632  -14.8803   21.3465 C   0  0  0  0  0  0  0  0  0  0  0  0
   12.5170  -14.8957   22.3934 C   0  0  0  0  0  0  0  0  0  0  0  0
   11.3303  -15.7521   22.0945 C   0  0  2  0  0  0  0  0  0  0  0  0
   10.7375  -15.3478   20.8551 N   0  0  0  0  0  0  0  0  0  0  0  0
   10.3541  -15.7491   23.2088 C   0  0  0  0  0  0  0  0  0  0  0  0
    9.8345  -14.6277   23.5463 O   0  0  0  0  0  0  0  0  0  0  0  0
   14.6073  -15.7729   21.4460 C   0  0  0  0  0  0  0  0  0  0  0  0
   15.6414  -15.8079   20.5205 C   0  0  0  0  0  0  0  0  0  0  0  0
    9.9530  -16.9063   23.9366 N   0  0  0  0  0  0  0  0  0  0  0  0
    8.9278  -16.7907   24.9212 C   0  0  1  0  0  0  0  0  0  0  0  0
    7.6029  -16.3114   24.4400 C   0  0  0  0  0  0  0  0  0  0  0  0
    7.2844  -14.9053   24.7440 C   0  0  0  0  0  0  0  0  0  0  0  0
    7.5016  -13.9433   23.7559 C   0  0  0  0  0  0  0  0  0  0  0  0
    7.2260  -12.6037   23.9690 C   0  0  0  0  0  0  0  0  0  0  0  0
    6.7246  -12.1610   25.1681 C   0  0  0  0  0  0  0  0  0  0  0  0
    6.5017  -13.0892   26.1592 C   0  0  0  0  0  0  0  0  0  0  0  0
    6.7818  -14.4430   25.9393 C   0  0  0  0  0  0  0  0  0  0  0  0
    8.7210  -18.1288   25.5802 C   0  0  0  0  0  0  0  0  0  0  0  0
    7.9564  -18.1940   26.5489 O   0  0  0  0  0  0  0  0  0  0  0  0
    9.3544  -19.2620   25.1324 O   0  0  0  0  0  0  0  0  0  0  0  0
  2  1  1  6
  2  9  1  0
  2  3  1  0
  3  4  1  0
  4  5  2  0
  5  6  1  0
  7  6  1  0
  8  4  1  0
  8  7  2  0
  9 10  2  0
 11 12  1  0
 12 13  2  0
 12 22  1  0
 13 14  1  0
 14 15  2  0
 15 16  1  0
 17 16  1  1
 18 17  1  0
 18  9  1  0
 19 20  2  0
 19 17  1  0
 21 15  1  0
 22 21  2  0
 23 19  1  0
 24 25  1  6
 24 23  1  0
 25 26  1  0
 26 31  2  0
 27 28  2  0
 27 26  1  0
 28 29  1  0
 29 30  2  0
 31 30  1  0
 32 24  1  0
 32 34  1  0
 33 32  2  0
M  END
$$$$
