HYF.pdb
     RDKit          3D

 34 36  0  0  1  0  0  0  0  0999 V2000
    5.8787  -16.8626   19.3561 N   0  0  0  0  0  0  0  0  0  0  0  0
    7.0230  -16.6295   20.1965 C   0  0  1  0  0  0  0  0  0  0  0  0
    7.4418  -15.1759   20.1603 C   0  0  0  0  0  0  0  0  0  0  0  0
    7.7478  -14.8301   18.7480 C   0  0  0  0  0  0  0  0  0  0  0  0
    7.7437  -15.6841   17.6590 C   0  0  0  0  0  0  0  0  0  0  0  0
    8.0755  -15.0035   16.5238 N   0  0  0  0  0  0  0  0  0  0  0  0
    8.2828  -13.7376   16.9108 C   0  0  0  0  0  0  0  0  0  0  0  0
    8.0919  -13.6172   18.2318 N   0  0  0  0  0  0  0  0  0  0  0  0
    6.7223  -17.0694   21.5934 C   0  0  0  0  0  0  0  0  0  0  0  0
    5.5919  -16.8296   22.0524 O   0  0  0  0  0  0  0  0  0  0  0  0
    7.2997  -22.0502   28.8886 O   0  0  0  0  0  0  0  0  0  0  0  0
    7.4507  -21.4721   27.6250 C   0  0  0  0  0  0  0  0  0  0  0  0
    8.6366  -20.8788   27.2454 C   0  0  0  0  0  0  0  0  0  0  0  0
    8.8120  -20.3006   26.0029 C   0  0  0  0  0  0  0  0  0  0  0  0
    7.7937  -20.2963   25.0859 C   0  0  0  0  0  0  0  0  0  0  0  0
    7.8907  -19.6756   23.7458 C   0  0  0  0  0  0  0  0  0  0  0  0
    7.4251  -18.2586   23.6656 C   0  0  2  0  0  0  0  0  0  0  0  0
    7.6888  -17.7324   22.3600 N   0  0  0  0  0  0  0  0  0  0  0  0
    8.0172  -17.4227   24.7358 C   0  0  0  0  0  0  0  0  0  0  0  0
    7.7458  -17.7254   25.9508 O   0  0  0  0  0  0  0  0  0  0  0  0
    6.6046  -20.8859   25.4539 C   0  0  0  0  0  0  0  0  0  0  0  0
    6.4224  -21.4685   26.7007 C   0  0  0  0  0  0  0  0  0  0  0  0
    8.8661  -16.3010   24.5105 N   0  0  0  0  0  0  0  0  0  0  0  0
    9.4115  -15.6031   25.6281 C   0  0  1  0  0  0  0  0  0  0  0  0
    8.4538  -15.2369   26.7077 C   0  0  0  0  0  0  0  0  0  0  0  0
    7.7332  -13.9660   26.5170 C   0  0  0  0  0  0  0  0  0  0  0  0
    6.7746  -13.5941   27.4614 C   0  0  0  0  0  0  0  0  0  0  0  0
    6.0584  -12.4152   27.3484 C   0  0  0  0  0  0  0  0  0  0  0  0
    6.2608  -11.5560   26.2967 C   0  0  0  0  0  0  0  0  0  0  0  0
    7.2001  -11.8992   25.3515 C   0  0  0  0  0  0  0  0  0  0  0  0
    7.9222  -13.0926   25.4697 C   0  0  0  0  0  0  0  0  0  0  0  0
   10.5045  -16.4346   26.2459 C   0  0  0  0  0  0  0  0  0  0  0  0
   10.6603  -17.5923   25.8427 O   0  0  0  0  0  0  0  0  0  0  0  0
   11.3208  -15.9393   27.2329 O   0  0  0  0  0  0  0  0  0  0  0  0
  2  1  1  6
  2  9  1  0
  2  3  1  0
  3  4  1  0
  4  5  2  0
  5  6  1  0
  7  6  1  0
  8  4  1  0
  8  7  2  0
  9 10  2  0
 11 12  1  0
 12 13  2  0
 12 22  1  0
 13 14  1  0
 14 15  2  0
 15 16  1  0
 17 16  1  6
 18 17  1  0
 18  9  1  0
 19 20  2  0
 19 17  1  0
 21 15  1  0
 22 21  2  0
 23 19  1  0
 24 25  1  1
 24 23  1  0
 25 26  1  0
 26 31  2  0
 27 28  2  0
 27 26  1  0
 28 29  1  0
 29 30  2  0
 31 30  1  0
 32 24  1  0
 32 34  1  0
 33 32  2  0
M  END
$$$$
