TDL.pdb
     RDKit          3D

 24 23  0  0  1  0  0  0  0  0999 V2000
   22.9414  -10.5934  -15.3487 C   0  0  0  0  0  0  0  0  0  0  0  0
   22.7517  -10.8528  -16.8255 C   0  0  1  0  0  0  0  0  0  0  0  0
   23.7048  -11.7894  -17.2237 O   0  0  0  0  0  0  0  0  0  0  0  0
   21.3687  -11.4057  -17.0985 C   0  0  2  0  0  0  0  0  0  0  0  0
   21.2764  -11.7760  -18.4869 N   0  0  0  0  0  0  0  0  0  0  0  0
   20.3457  -10.3627  -16.8303 C   0  0  0  0  0  0  0  0  0  0  0  0
   20.6674   -9.1767  -17.0233 O   0  0  0  0  0  0  0  0  0  0  0  0
   19.0390  -10.6666  -16.3702 N   0  0  0  0  0  0  0  0  0  0  0  0
   18.0711   -9.6547  -16.0002 C   0  0  1  0  0  0  0  0  0  0  0  0
   16.7152  -10.2197  -15.7206 C   0  0  0  0  0  0  0  0  0  0  0  0
   16.1564  -11.0469  -16.7711 C   0  0  0  0  0  0  0  0  0  0  0  0
   16.4288  -10.8157  -17.9687 O   0  0  0  0  0  0  0  0  0  0  0  0
   18.5753   -8.7774  -14.9113 C   0  0  0  0  0  0  0  0  0  0  0  0
   19.1821   -9.2260  -13.9006 O   0  0  0  0  0  0  0  0  0  0  0  0
   15.3169  -12.1021  -16.4861 O   0  0  0  0  0  0  0  0  0  0  0  0
   22.2311   -4.7530  -14.1928 C   0  0  0  0  0  0  0  0  0  0  0  0
   21.1575   -5.4195  -13.3162 C   0  0  2  0  0  0  0  0  0  0  0  0
   21.8492   -5.9707  -12.1230 C   0  0  0  0  0  0  0  0  0  0  0  0
   20.4302   -6.3847  -14.1762 C   0  0  0  0  0  0  0  0  0  0  0  0
   18.9546   -6.4465  -14.0279 C   0  0  2  0  0  0  0  0  0  0  0  0
   18.3922   -7.3668  -14.9620 N   0  0  0  0  0  0  0  0  0  0  0  0
   18.4348   -5.0658  -14.3415 C   0  0  0  0  0  0  0  0  0  0  0  0
   18.3284   -4.1686  -13.4701 O   0  0  0  0  0  0  0  0  0  0  0  0
   18.0543   -4.7548  -15.6367 O   0  0  0  0  0  0  0  0  0  0  0  0
  2  1  1  1
  2  4  1  0
  3  2  1  0
  4  6  1  0
  4  5  1  6
  6  7  2  0
  8  6  1  0
  8  9  1  0
  9 13  1  0
  9 10  1  1
 10 11  1  0
 11 12  2  0
 11 15  1  0
 13 14  2  0
 17 16  1  6
 17 18  1  0
 19 17  1  0
 20 19  1  6
 20 22  1  0
 21 13  1  0
 21 20  1  0
 22 24  1  0
 23 22  2  0
M  END
$$$$
