TDL.pdb
     RDKit          3D

 24 23  0  0  1  0  0  0  0  0999 V2000
   24.4856  -19.0598  -14.1456 C   0  0  0  0  0  0  0  0  0  0  0  0
   23.7747  -20.3301  -14.5520 C   0  0  1  0  0  0  0  0  0  0  0  0
   24.1185  -21.3265  -13.6392 O   0  0  0  0  0  0  0  0  0  0  0  0
   22.2733  -20.1337  -14.5298 C   0  0  2  0  0  0  0  0  0  0  0  0
   21.6312  -21.3870  -14.8301 N   0  0  0  0  0  0  0  0  0  0  0  0
   21.8770  -19.1512  -15.5710 C   0  0  0  0  0  0  0  0  0  0  0  0
   22.1497  -19.4232  -16.7538 O   0  0  0  0  0  0  0  0  0  0  0  0
   21.2107  -17.9363  -15.2687 N   0  0  0  0  0  0  0  0  0  0  0  0
   20.8867  -16.9377  -16.2665 C   0  0  1  0  0  0  0  0  0  0  0  0
   19.4252  -16.6274  -16.3275 C   0  0  0  0  0  0  0  0  0  0  0  0
   18.5473  -17.7774  -16.4096 C   0  0  0  0  0  0  0  0  0  0  0  0
   18.5389  -18.4933  -17.4341 O   0  0  0  0  0  0  0  0  0  0  0  0
   21.7372  -15.7257  -16.1342 C   0  0  0  0  0  0  0  0  0  0  0  0
   21.5578  -14.8626  -15.2322 O   0  0  0  0  0  0  0  0  0  0  0  0
   17.7038  -18.1142  -15.3730 O   0  0  0  0  0  0  0  0  0  0  0  0
   25.6726  -14.4548  -14.7723 C   0  0  0  0  0  0  0  0  0  0  0  0
   25.7195  -15.4414  -15.9511 C   0  0  2  0  0  0  0  0  0  0  0  0
   27.1331  -15.8707  -16.1045 C   0  0  0  0  0  0  0  0  0  0  0  0
   25.0941  -14.7630  -17.1125 C   0  0  0  0  0  0  0  0  0  0  0  0
   23.6757  -14.3484  -16.9722 C   0  0  2  0  0  0  0  0  0  0  0  0
   22.8108  -15.4814  -17.0361 N   0  0  0  0  0  0  0  0  0  0  0  0
   23.3752  -13.4478  -18.1441 C   0  0  0  0  0  0  0  0  0  0  0  0
   22.9134  -13.8796  -19.2285 O   0  0  0  0  0  0  0  0  0  0  0  0
   23.6109  -12.0866  -18.0402 O   0  0  0  0  0  0  0  0  0  0  0  0
  2  1  1  1
  2  4  1  0
  3  2  1  0
  4  6  1  0
  4  5  1  6
  6  7  2  0
  8  6  1  0
  8  9  1  0
  9 13  1  0
  9 10  1  1
 10 11  1  0
 11 12  2  0
 11 15  1  0
 13 14  2  0
 17 16  1  1
 17 18  1  0
 19 17  1  0
 20 19  1  6
 20 22  1  0
 21 13  1  0
 21 20  1  0
 22 24  1  0
 23 22  2  0
M  END
$$$$
