TDL.pdb
     RDKit          3D

 24 23  0  0  1  0  0  0  0  0999 V2000
   19.9168  -14.4341  -16.0474 C   0  0  0  0  0  0  0  0  0  0  0  0
   19.8759  -14.8569  -17.4978 C   0  0  1  0  0  0  0  0  0  0  0  0
   19.3434  -16.1442  -17.5559 O   0  0  0  0  0  0  0  0  0  0  0  0
   19.0000  -13.9209  -18.3037 C   0  0  2  0  0  0  0  0  0  0  0  0
   18.9512  -14.3806  -19.6674 N   0  0  0  0  0  0  0  0  0  0  0  0
   19.5820  -12.5542  -18.2982 C   0  0  0  0  0  0  0  0  0  0  0  0
   20.6826  -12.3943  -18.8553 O   0  0  0  0  0  0  0  0  0  0  0  0
   18.9381  -11.4461  -17.6910 N   0  0  0  0  0  0  0  0  0  0  0  0
   19.5404  -10.1325  -17.5928 C   0  0  1  0  0  0  0  0  0  0  0  0
   18.5338   -9.0270  -17.6093 C   0  0  0  0  0  0  0  0  0  0  0  0
   17.6961   -8.9649  -18.7902 C   0  0  0  0  0  0  0  0  0  0  0  0
   18.1902   -9.1411  -19.9245 O   0  0  0  0  0  0  0  0  0  0  0  0
   20.4901  -10.0422  -16.4529 C   0  0  0  0  0  0  0  0  0  0  0  0
   20.1182  -10.1057  -15.2493 O   0  0  0  0  0  0  0  0  0  0  0  0
   16.3441   -8.7125  -18.7008 O   0  0  0  0  0  0  0  0  0  0  0  0
   26.6465   -9.8437  -15.9738 C   0  0  0  0  0  0  0  0  0  0  0  0
   25.3358   -9.6971  -15.1826 C   0  0  2  0  0  0  0  0  0  0  0  0
   25.4039  -10.6501  -14.0454 C   0  0  0  0  0  0  0  0  0  0  0  0
   24.2225   -9.8795  -16.1458 C   0  0  0  0  0  0  0  0  0  0  0  0
   22.8453   -9.6545  -15.6402 C   0  0  2  0  0  0  0  0  0  0  0  0
   21.8866   -9.8769  -16.6732 N   0  0  0  0  0  0  0  0  0  0  0  0
   22.7740   -8.2071  -15.2220 C   0  0  0  0  0  0  0  0  0  0  0  0
   22.8398   -7.2611  -16.0443 O   0  0  0  0  0  0  0  0  0  0  0  0
   22.6302   -7.8876  -13.8818 O   0  0  0  0  0  0  0  0  0  0  0  0
  2  1  1  1
  2  4  1  0
  3  2  1  0
  4  6  1  0
  4  5  1  6
  6  7  2  0
  8  6  1  0
  8  9  1  0
  9 13  1  0
  9 10  1  1
 10 11  1  0
 11 12  2  0
 11 15  1  0
 13 14  2  0
 17 16  1  6
 17 18  1  0
 19 17  1  0
 20 19  1  6
 20 22  1  0
 21 13  1  0
 21 20  1  0
 22 24  1  0
 23 22  2  0
M  END
$$$$
