TDL.pdb
     RDKit          3D

 24 23  0  0  1  0  0  0  0  0999 V2000
   15.5173   -6.5975  -16.5433 C   0  0  0  0  0  0  0  0  0  0  0  0
   14.8091   -7.9316  -16.4907 C   0  0  1  0  0  0  0  0  0  0  0  0
   13.7342   -7.8835  -17.3774 O   0  0  0  0  0  0  0  0  0  0  0  0
   15.7430   -9.0500  -16.9034 C   0  0  2  0  0  0  0  0  0  0  0  0
   15.0764  -10.3122  -16.7149 N   0  0  0  0  0  0  0  0  0  0  0  0
   16.9565   -9.0367  -16.0469 C   0  0  0  0  0  0  0  0  0  0  0  0
   17.0125   -9.8577  -15.1140 O   0  0  0  0  0  0  0  0  0  0  0  0
   18.0335   -8.1372  -16.2522 N   0  0  0  0  0  0  0  0  0  0  0  0
   19.2693   -8.1915  -15.4987 C   0  0  1  0  0  0  0  0  0  0  0  0
   20.0130   -9.4745  -15.6904 C   0  0  0  0  0  0  0  0  0  0  0  0
   21.3023   -9.5512  -15.0332 C   0  0  0  0  0  0  0  0  0  0  0  0
   21.4875   -8.9785  -13.9379 O   0  0  0  0  0  0  0  0  0  0  0  0
   20.1108   -6.9876  -15.7269 C   0  0  0  0  0  0  0  0  0  0  0  0
   20.6383   -6.7264  -16.8425 O   0  0  0  0  0  0  0  0  0  0  0  0
   22.3526  -10.2499  -15.5885 O   0  0  0  0  0  0  0  0  0  0  0  0
   20.0465   -2.9718  -16.7950 C   0  0  0  0  0  0  0  0  0  0  0  0
   19.3721   -3.2938  -15.4508 C   0  0  2  0  0  0  0  0  0  0  0  0
   18.5398   -2.1183  -15.0878 C   0  0  0  0  0  0  0  0  0  0  0  0
   20.4483   -3.6729  -14.5030 C   0  0  0  0  0  0  0  0  0  0  0  0
   21.2057   -4.9146  -14.7989 C   0  0  2  0  0  0  0  0  0  0  0  0
   20.3633   -6.0598  -14.6776 N   0  0  0  0  0  0  0  0  0  0  0  0
   22.2962   -5.0083  -13.7612 C   0  0  0  0  0  0  0  0  0  0  0  0
   22.3082   -5.8920  -12.8699 O   0  0  0  0  0  0  0  0  0  0  0  0
   23.3353   -4.0922  -13.7749 O   0  0  0  0  0  0  0  0  0  0  0  0
  2  1  1  6
  2  4  1  0
  3  2  1  0
  4  6  1  0
  4  5  1  1
  6  7  2  0
  8  6  1  0
  8  9  1  0
  9 13  1  0
  9 10  1  6
 10 11  1  0
 11 12  2  0
 11 15  1  0
 13 14  2  0
 17 16  1  6
 17 18  1  0
 19 17  1  0
 20 19  1  1
 20 22  1  0
 21 13  1  0
 21 20  1  0
 22 24  1  0
 23 22  2  0
M  END
$$$$
