TDL.pdb
     RDKit          3D

 24 23  0  0  1  0  0  0  0  0999 V2000
    9.3536  -17.4146    1.6966 C   0  0  0  0  0  0  0  0  0  0  0  0
   10.7858  -17.2628    2.1548 C   0  0  1  0  0  0  0  0  0  0  0  0
   11.5770  -17.0423    1.0280 O   0  0  0  0  0  0  0  0  0  0  0  0
   10.9245  -16.0851    3.0965 C   0  0  2  0  0  0  0  0  0  0  0  0
   10.5530  -14.8807    2.4003 N   0  0  0  0  0  0  0  0  0  0  0  0
   12.3385  -15.9493    3.5307 C   0  0  0  0  0  0  0  0  0  0  0  0
   13.0564  -15.1431    2.9127 O   0  0  0  0  0  0  0  0  0  0  0  0
   12.8881  -16.6934    4.6057 N   0  0  0  0  0  0  0  0  0  0  0  0
   14.2531  -16.5374    5.0646 C   0  0  1  0  0  0  0  0  0  0  0  0
   14.4085  -16.7947    6.5294 C   0  0  0  0  0  0  0  0  0  0  0  0
   15.7571  -16.6671    7.0444 C   0  0  0  0  0  0  0  0  0  0  0  0
   16.5337  -15.8081    6.5744 O   0  0  0  0  0  0  0  0  0  0  0  0
   15.2100  -17.3103    4.2300 C   0  0  0  0  0  0  0  0  0  0  0  0
   14.9518  -18.4628    3.7875 O   0  0  0  0  0  0  0  0  0  0  0  0
   16.2204  -17.4794    8.0569 O   0  0  0  0  0  0  0  0  0  0  0  0
   20.5983  -15.9061    1.5652 C   0  0  0  0  0  0  0  0  0  0  0  0
   19.5572  -17.0254    1.7340 C   0  0  2  0  0  0  0  0  0  0  0  0
   19.1967  -17.4948    0.3717 C   0  0  0  0  0  0  0  0  0  0  0  0
   18.4594  -16.4775    2.5677 C   0  0  0  0  0  0  0  0  0  0  0  0
   17.4432  -17.4375    3.0664 C   0  0  2  0  0  0  0  0  0  0  0  0
   16.4832  -16.7741    3.8873 N   0  0  0  0  0  0  0  0  0  0  0  0
   18.1836  -18.4443    3.9108 C   0  0  0  0  0  0  0  0  0  0  0  0
   18.4408  -18.2513    5.1242 O   0  0  0  0  0  0  0  0  0  0  0  0
   18.6054  -19.6358    3.3439 O   0  0  0  0  0  0  0  0  0  0  0  0
  2  1  1  6
  2  4  1  0
  3  2  1  0
  4  6  1  0
  4  5  1  6
  6  7  2  0
  8  6  1  0
  8  9  1  0
  9 13  1  0
  9 10  1  1
 10 11  1  0
 11 12  2  0
 11 15  1  0
 13 14  2  0
 17 16  1  6
 17 18  1  0
 19 17  1  0
 20 19  1  1
 20 22  1  0
 21 13  1  0
 21 20  1  0
 22 24  1  0
 23 22  2  0
M  END
$$$$
