TDL.pdb
     RDKit          3D

 24 23  0  0  1  0  0  0  0  0999 V2000
   28.7515  -19.3242  -17.3131 C   0  0  0  0  0  0  0  0  0  0  0  0
   27.8049  -19.0848  -16.1596 C   0  0  1  0  0  0  0  0  0  0  0  0
   26.5015  -19.1853  -16.6446 O   0  0  0  0  0  0  0  0  0  0  0  0
   28.0114  -20.1201  -15.0740 C   0  0  2  0  0  0  0  0  0  0  0  0
   27.7177  -21.4249  -15.6072 N   0  0  0  0  0  0  0  0  0  0  0  0
   27.0797  -19.8622  -13.9462 C   0  0  0  0  0  0  0  0  0  0  0  0
   27.2368  -18.8126  -13.2973 O   0  0  0  0  0  0  0  0  0  0  0  0
   26.0366  -20.7547  -13.5903 N   0  0  0  0  0  0  0  0  0  0  0  0
   25.1649  -20.5455  -12.4526 C   0  0  1  0  0  0  0  0  0  0  0  0
   23.7823  -21.0701  -12.6734 C   0  0  0  0  0  0  0  0  0  0  0  0
   22.9315  -20.2499  -13.5123 C   0  0  0  0  0  0  0  0  0  0  0  0
   22.2964  -20.7618  -14.4592 O   0  0  0  0  0  0  0  0  0  0  0  0
   25.7789  -21.0284  -11.1879 C   0  0  0  0  0  0  0  0  0  0  0  0
   26.3338  -22.1566  -11.0872 O   0  0  0  0  0  0  0  0  0  0  0  0
   22.7975  -18.8955  -13.2950 O   0  0  0  0  0  0  0  0  0  0  0  0
   27.7637  -18.5200   -5.9897 C   0  0  0  0  0  0  0  0  0  0  0  0
   27.4616  -19.8636   -6.6744 C   0  0  2  0  0  0  0  0  0  0  0  0
   28.7144  -20.6608   -6.6423 C   0  0  0  0  0  0  0  0  0  0  0  0
   26.8965  -19.5545   -8.0106 C   0  0  0  0  0  0  0  0  0  0  0  0
   26.2202  -20.6610   -8.7328 C   0  0  2  0  0  0  0  0  0  0  0  0
   25.7675  -20.2244  -10.0135 N   0  0  0  0  0  0  0  0  0  0  0  0
   25.0198  -21.0428   -7.9033 C   0  0  0  0  0  0  0  0  0  0  0  0
   23.8508  -20.7010   -8.2071 O   0  0  0  0  0  0  0  0  0  0  0  0
   25.1925  -21.8007   -6.7567 O   0  0  0  0  0  0  0  0  0  0  0  0
  2  1  1  6
  2  4  1  0
  3  2  1  0
  4  6  1  0
  4  5  1  6
  6  7  2  0
  8  6  1  0
  8  9  1  0
  9 13  1  0
  9 10  1  6
 10 11  1  0
 11 12  2  0
 11 15  1  0
 13 14  2  0
 17 16  1  6
 17 18  1  0
 19 17  1  0
 20 19  1  1
 20 22  1  0
 21 13  1  0
 21 20  1  0
 22 24  1  0
 23 22  2  0
M  END
$$$$
