TDL.pdb
     RDKit          3D

 24 23  0  0  1  0  0  0  0  0999 V2000
   12.9952   -9.5996  -10.9579 C   0  0  0  0  0  0  0  0  0  0  0  0
   14.0723  -10.6347  -10.7283 C   0  0  1  0  0  0  0  0  0  0  0  0
   13.5714  -11.8729  -11.1285 O   0  0  0  0  0  0  0  0  0  0  0  0
   15.3071  -10.3121  -11.5433 C   0  0  2  0  0  0  0  0  0  0  0  0
   16.3135  -11.3091  -11.2859 N   0  0  0  0  0  0  0  0  0  0  0  0
   15.8510   -8.9915  -11.1351 C   0  0  0  0  0  0  0  0  0  0  0  0
   16.3527   -8.9005  -10.0005 O   0  0  0  0  0  0  0  0  0  0  0  0
   15.8186   -7.8519  -11.9787 N   0  0  0  0  0  0  0  0  0  0  0  0
   16.2251   -6.5307  -11.5460 C   0  0  1  0  0  0  0  0  0  0  0  0
   16.8897   -5.7417  -12.6283 C   0  0  0  0  0  0  0  0  0  0  0  0
   18.0834   -6.3398  -13.1917 C   0  0  0  0  0  0  0  0  0  0  0  0
   18.0653   -6.8181  -14.3462 O   0  0  0  0  0  0  0  0  0  0  0  0
   15.1133   -5.7974  -10.8857 C   0  0  0  0  0  0  0  0  0  0  0  0
   13.9284   -5.8241  -11.3171 O   0  0  0  0  0  0  0  0  0  0  0  0
   19.2626   -6.3993  -12.4806 O   0  0  0  0  0  0  0  0  0  0  0  0
   13.5517   -4.0935   -5.3581 C   0  0  0  0  0  0  0  0  0  0  0  0
   13.2356   -3.8207   -6.8382 C   0  0  2  0  0  0  0  0  0  0  0  0
   11.8057   -4.1629   -7.0491 C   0  0  0  0  0  0  0  0  0  0  0  0
   14.2311   -4.5711   -7.6421 C   0  0  0  0  0  0  0  0  0  0  0  0
   14.3508   -4.2140   -9.0778 C   0  0  2  0  0  0  0  0  0  0  0  0
   15.3410   -5.0186   -9.7164 N   0  0  0  0  0  0  0  0  0  0  0  0
   14.7979   -2.7743   -9.1249 C   0  0  0  0  0  0  0  0  0  0  0  0
   16.0068   -2.4392   -9.0793 O   0  0  0  0  0  0  0  0  0  0  0  0
   13.8527   -1.7662   -9.2221 O   0  0  0  0  0  0  0  0  0  0  0  0
  2  1  1  6
  2  4  1  0
  3  2  1  0
  4  6  1  0
  4  5  1  1
  6  7  2  0
  8  6  1  0
  8  9  1  0
  9 13  1  0
  9 10  1  6
 10 11  1  0
 11 12  2  0
 11 15  1  0
 13 14  2  0
 17 16  1  1
 17 18  1  0
 19 17  1  0
 20 19  1  1
 20 22  1  0
 21 13  1  0
 21 20  1  0
 22 24  1  0
 23 22  2  0
M  END
$$$$
