NDD.pdb
     RDKit          3D

 25 24  0  0  1  0  0  0  0  0999 V2000
    7.0488  -12.1480   16.4288 N   0  0  0  0  0  0  0  0  0  0  0  0
    7.4440  -13.4949   16.6402 C   0  0  0  0  0  0  0  0  0  0  0  0
    7.4548  -14.2625   15.6552 O   0  0  0  0  0  0  0  0  0  0  0  0
    7.8183  -13.9067   18.0131 C   0  0  0  0  0  0  0  0  0  0  0  0
    9.2072  -14.5035   18.0581 C   0  0  2  0  0  0  0  0  0  0  0  0
    9.2938  -15.5328   17.0572 N   0  0  0  0  0  0  0  0  0  0  0  0
    9.3820  -15.0530   19.4474 C   0  0  0  0  0  0  0  0  0  0  0  0
    9.4339  -14.1974   20.3659 O   0  0  0  0  0  0  0  0  0  0  0  0
    9.4822  -16.4131   19.7170 N   0  0  0  0  0  0  0  0  0  0  0  0
    9.7814  -16.8802   21.0739 C   0  0  1  0  0  0  0  0  0  0  0  0
    9.1529  -18.2197   21.3112 C   0  0  0  0  0  0  0  0  0  0  0  0
    7.7104  -18.3052   21.0420 C   0  0  0  0  0  0  0  0  0  0  0  0
    6.8845  -17.6445   21.7030 O   0  0  0  0  0  0  0  0  0  0  0  0
   11.2597  -17.0161   21.1982 C   0  0  0  0  0  0  0  0  0  0  0  0
   11.8261  -18.0531   20.8475 O   0  0  0  0  0  0  0  0  0  0  0  0
    7.1963  -19.1294   20.0351 O   0  0  0  0  0  0  0  0  0  0  0  0
   12.0705  -15.9627   21.7245 N   0  0  0  0  0  0  0  0  0  0  0  0
   13.5051  -16.0781   21.8510 C   0  0  1  0  0  0  0  0  0  0  0  0
   14.2562  -14.9212   21.2451 C   0  0  0  0  0  0  0  0  0  0  0  0
   14.0745  -14.8432   19.7800 C   0  0  0  0  0  0  0  0  0  0  0  0
   13.7976  -15.8525   19.0945 O   0  0  0  0  0  0  0  0  0  0  0  0
   13.9079  -16.2962   23.2732 C   0  0  0  0  0  0  0  0  0  0  0  0
   13.0739  -16.1720   24.2060 O   0  0  0  0  0  0  0  0  0  0  0  0
   14.2101  -13.6280   19.1305 O   0  0  0  0  0  0  0  0  0  0  0  0
   15.2069  -16.6406   23.6094 O   0  0  0  0  0  0  0  0  0  0  0  0
  1  2  1  0
  2  3  2  0
  4  2  1  0
  5  4  1  0
  5  6  1  6
  7  5  1  0
  7  8  2  0
  9  7  1  0
 10  9  1  0
 10 11  1  6
 12 11  1  0
 13 12  2  0
 14 10  1  0
 15 14  2  0
 16 12  1  0
 17 14  1  0
 18 17  1  0
 18 22  1  0
 18 19  1  1
 20 21  2  0
 20 19  1  0
 22 25  1  0
 23 22  2  0
 24 20  1  0
M  END
$$$$
