NDD.pdb
     RDKit          3D

 25 24  0  0  1  0  0  0  0  0999 V2000
    7.3062  -12.7007   15.6620 N   0  0  0  0  0  0  0  0  0  0  0  0
    7.6019  -13.9308   15.0183 C   0  0  0  0  0  0  0  0  0  0  0  0
    7.6550  -13.9399   13.7707 O   0  0  0  0  0  0  0  0  0  0  0  0
    7.8285  -15.1258   15.8641 C   0  0  0  0  0  0  0  0  0  0  0  0
    7.6633  -14.8092   17.3337 C   0  0  2  0  0  0  0  0  0  0  0  0
    8.5690  -13.7455   17.6757 N   0  0  0  0  0  0  0  0  0  0  0  0
    7.9814  -16.0795   18.0740 C   0  0  0  0  0  0  0  0  0  0  0  0
    7.3135  -17.0873   17.7327 O   0  0  0  0  0  0  0  0  0  0  0  0
    8.9458  -16.1530   19.0725 N   0  0  0  0  0  0  0  0  0  0  0  0
    9.7542  -17.3650   19.2352 C   0  0  1  0  0  0  0  0  0  0  0  0
   10.5106  -17.6564   17.9749 C   0  0  0  0  0  0  0  0  0  0  0  0
   11.0012  -19.0342   17.8284 C   0  0  0  0  0  0  0  0  0  0  0  0
   10.7156  -19.9189   18.6598 O   0  0  0  0  0  0  0  0  0  0  0  0
   10.7302  -17.1231   20.3344 C   0  0  0  0  0  0  0  0  0  0  0  0
   11.7208  -16.4136   20.1489 O   0  0  0  0  0  0  0  0  0  0  0  0
   11.8099  -19.4181   16.7530 O   0  0  0  0  0  0  0  0  0  0  0  0
   10.5598  -17.6987   21.6320 N   0  0  0  0  0  0  0  0  0  0  0  0
   11.5249  -17.5197   22.6922 C   0  0  1  0  0  0  0  0  0  0  0  0
   10.9140  -17.5354   24.0692 C   0  0  0  0  0  0  0  0  0  0  0  0
   11.6337  -16.6506   25.0098 C   0  0  0  0  0  0  0  0  0  0  0  0
   12.7597  -16.1767   24.7399 O   0  0  0  0  0  0  0  0  0  0  0  0
   12.6375  -18.5111   22.5851 C   0  0  0  0  0  0  0  0  0  0  0  0
   13.5908  -18.5019   23.4051 O   0  0  0  0  0  0  0  0  0  0  0  0
   11.0618  -16.3257   26.2280 O   0  0  0  0  0  0  0  0  0  0  0  0
   12.6558  -19.4683   21.5837 O   0  0  0  0  0  0  0  0  0  0  0  0
  1  2  1  0
  2  3  2  0
  4  2  1  0
  5  4  1  0
  5  6  1  1
  7  5  1  0
  7  8  2  0
  9  7  1  0
 10  9  1  0
 10 11  1  6
 12 11  1  0
 13 12  2  0
 14 10  1  0
 15 14  2  0
 16 12  1  0
 17 14  1  0
 18 17  1  0
 18 22  1  0
 18 19  1  1
 20 21  2  0
 20 19  1  0
 22 25  1  0
 23 22  2  0
 24 20  1  0
M  END
$$$$
