NDD.pdb
     RDKit          3D

 25 24  0  0  1  0  0  0  0  0999 V2000
    6.9294  -12.1043   18.4369 N   0  0  0  0  0  0  0  0  0  0  0  0
    6.9002  -13.3913   17.8387 C   0  0  0  0  0  0  0  0  0  0  0  0
    5.8971  -13.6985   17.1612 O   0  0  0  0  0  0  0  0  0  0  0  0
    8.0586  -14.2891   18.0543 C   0  0  0  0  0  0  0  0  0  0  0  0
    9.0634  -13.6846   19.0094 C   0  0  2  0  0  0  0  0  0  0  0  0
    9.5025  -12.4248   18.4721 N   0  0  0  0  0  0  0  0  0  0  0  0
   10.1903  -14.6756   19.1141 C   0  0  0  0  0  0  0  0  0  0  0  0
    9.8946  -15.7791   19.6368 O   0  0  0  0  0  0  0  0  0  0  0  0
   11.4794  -14.4065   18.6687 N   0  0  0  0  0  0  0  0  0  0  0  0
   12.5565  -15.3772   18.8845 C   0  0  1  0  0  0  0  0  0  0  0  0
   13.6132  -15.2210   17.8336 C   0  0  0  0  0  0  0  0  0  0  0  0
   13.2168  -15.5952   16.4685 C   0  0  0  0  0  0  0  0  0  0  0  0
   12.7622  -16.7275   16.2098 O   0  0  0  0  0  0  0  0  0  0  0  0
   13.1626  -15.1032   20.2175 C   0  0  0  0  0  0  0  0  0  0  0  0
   12.6602  -14.2718   20.9761 O   0  0  0  0  0  0  0  0  0  0  0  0
   13.3304  -14.7023   15.3973 O   0  0  0  0  0  0  0  0  0  0  0  0
   14.3379  -15.7840   20.6638 N   0  0  0  0  0  0  0  0  0  0  0  0
   14.7446  -15.8008   22.0502 C   0  0  1  0  0  0  0  0  0  0  0  0
   13.6857  -16.3336   22.9800 C   0  0  0  0  0  0  0  0  0  0  0  0
   14.1688  -16.4420   24.3731 C   0  0  0  0  0  0  0  0  0  0  0  0
   15.1396  -15.7713   24.7892 O   0  0  0  0  0  0  0  0  0  0  0  0
   16.0350  -16.5326   22.2275 C   0  0  0  0  0  0  0  0  0  0  0  0
   16.9883  -16.0145   22.8632 O   0  0  0  0  0  0  0  0  0  0  0  0
   13.5421  -17.3040   25.2568 O   0  0  0  0  0  0  0  0  0  0  0  0
   16.2232  -17.7996   21.6999 O   0  0  0  0  0  0  0  0  0  0  0  0
  1  2  1  0
  2  3  2  0
  4  2  1  0
  5  4  1  0
  5  6  1  6
  7  5  1  0
  7  8  2  0
  9  7  1  0
 10  9  1  0
 10 11  1  6
 12 11  1  0
 13 12  2  0
 14 10  1  0
 15 14  2  0
 16 12  1  0
 17 14  1  0
 18 17  1  0
 18 22  1  0
 18 19  1  1
 20 21  2  0
 20 19  1  0
 22 25  1  0
 23 22  2  0
 24 20  1  0
M  END
$$$$
