NDD.pdb
     RDKit          3D

 25 24  0  0  1  0  0  0  0  0999 V2000
    9.5362  -13.4314   17.2200 N   0  0  0  0  0  0  0  0  0  0  0  0
    8.2299  -13.6871   16.7270 C   0  0  0  0  0  0  0  0  0  0  0  0
    8.1116  -14.0183   15.5287 O   0  0  0  0  0  0  0  0  0  0  0  0
    7.0895  -13.5455   17.6619 C   0  0  0  0  0  0  0  0  0  0  0  0
    7.5531  -13.2045   19.0605 C   0  0  2  0  0  0  0  0  0  0  0  0
    8.8073  -12.5067   18.9678 N   0  0  0  0  0  0  0  0  0  0  0  0
    7.6899  -14.5145   19.7873 C   0  0  0  0  0  0  0  0  0  0  0  0
    6.6148  -15.1245   20.0117 O   0  0  0  0  0  0  0  0  0  0  0  0
    8.9151  -15.0317   20.1922 N   0  0  0  0  0  0  0  0  0  0  0  0
    8.9732  -16.2429   21.0157 C   0  0  1  0  0  0  0  0  0  0  0  0
    8.3495  -17.3948   20.2880 C   0  0  0  0  0  0  0  0  0  0  0  0
    8.4011  -18.6908   20.9797 C   0  0  0  0  0  0  0  0  0  0  0  0
    8.3028  -18.7710   22.2205 O   0  0  0  0  0  0  0  0  0  0  0  0
   10.4068  -16.5575   21.2710 C   0  0  0  0  0  0  0  0  0  0  0  0
   11.2380  -16.4757   20.3646 O   0  0  0  0  0  0  0  0  0  0  0  0
    8.5629  -19.8927   20.2818 O   0  0  0  0  0  0  0  0  0  0  0  0
   10.8698  -16.9635   22.5613 N   0  0  0  0  0  0  0  0  0  0  0  0
   12.2745  -17.0674   22.8834 C   0  0  1  0  0  0  0  0  0  0  0  0
   13.0901  -15.8979   22.3969 C   0  0  0  0  0  0  0  0  0  0  0  0
   14.5261  -16.0475   22.7147 C   0  0  0  0  0  0  0  0  0  0  0  0
   15.3039  -15.0677   22.7326 O   0  0  0  0  0  0  0  0  0  0  0  0
   12.4796  -17.2962   24.3455 C   0  0  0  0  0  0  0  0  0  0  0  0
   11.5230  -17.1922   25.1551 O   0  0  0  0  0  0  0  0  0  0  0  0
   15.0432  -17.2989   23.0036 O   0  0  0  0  0  0  0  0  0  0  0  0
   13.7242  -17.6286   24.8552 O   0  0  0  0  0  0  0  0  0  0  0  0
  1  2  1  0
  2  3  2  0
  4  2  1  0
  5  4  1  0
  5  6  1  6
  7  5  1  0
  7  8  2  0
  9  7  1  0
 10  9  1  0
 10 11  1  6
 12 11  1  0
 13 12  2  0
 14 10  1  0
 15 14  2  0
 16 12  1  0
 17 14  1  0
 18 17  1  0
 18 22  1  0
 18 19  1  1
 20 21  2  0
 20 19  1  0
 22 25  1  0
 23 22  2  0
 24 20  1  0
M  END
$$$$
