NDD.pdb
     RDKit          3D

 25 24  0  0  1  0  0  0  0  0999 V2000
    8.6243  -14.4570   17.3159 N   0  0  0  0  0  0  0  0  0  0  0  0
    7.6979  -13.3902   17.4523 C   0  0  0  0  0  0  0  0  0  0  0  0
    6.8667  -13.2170   16.5366 O   0  0  0  0  0  0  0  0  0  0  0  0
    7.7739  -12.5494   18.6697 C   0  0  0  0  0  0  0  0  0  0  0  0
    8.9078  -12.9777   19.5742 C   0  0  2  0  0  0  0  0  0  0  0  0
   10.0643  -13.2430   18.7613 N   0  0  0  0  0  0  0  0  0  0  0  0
    8.4288  -14.2104   20.2911 C   0  0  0  0  0  0  0  0  0  0  0  0
    7.5268  -14.0240   21.1456 O   0  0  0  0  0  0  0  0  0  0  0  0
    8.9381  -15.4791   20.0394 N   0  0  0  0  0  0  0  0  0  0  0  0
    8.4377  -16.6399   20.7816 C   0  0  1  0  0  0  0  0  0  0  0  0
    8.0023  -17.7140   19.8317 C   0  0  0  0  0  0  0  0  0  0  0  0
    7.5117  -18.9537   20.4506 C   0  0  0  0  0  0  0  0  0  0  0  0
    6.8158  -18.9336   21.4855 O   0  0  0  0  0  0  0  0  0  0  0  0
    9.5515  -17.1650   21.6201 C   0  0  0  0  0  0  0  0  0  0  0  0
    9.4394  -18.2418   22.2093 O   0  0  0  0  0  0  0  0  0  0  0  0
    7.8011  -20.2116   19.9105 O   0  0  0  0  0  0  0  0  0  0  0  0
   10.7793  -16.4490   21.7743 N   0  0  0  0  0  0  0  0  0  0  0  0
   11.9659  -17.0560   22.3321 C   0  0  1  0  0  0  0  0  0  0  0  0
   12.3067  -18.3869   21.7139 C   0  0  0  0  0  0  0  0  0  0  0  0
   13.2691  -19.1535   22.5336 C   0  0  0  0  0  0  0  0  0  0  0  0
   13.2067  -19.1689   23.7830 O   0  0  0  0  0  0  0  0  0  0  0  0
   13.1303  -16.1216   22.2754 C   0  0  0  0  0  0  0  0  0  0  0  0
   13.7936  -15.8540   23.3097 O   0  0  0  0  0  0  0  0  0  0  0  0
   14.2742  -19.8810   21.9195 O   0  0  0  0  0  0  0  0  0  0  0  0
   13.5159  -15.5221   21.0875 O   0  0  0  0  0  0  0  0  0  0  0  0
  1  2  1  0
  2  3  2  0
  4  2  1  0
  5  4  1  0
  5  6  1  6
  7  5  1  0
  7  8  2  0
  9  7  1  0
 10  9  1  0
 10 11  1  6
 12 11  1  0
 13 12  2  0
 14 10  1  0
 15 14  2  0
 16 12  1  0
 17 14  1  0
 18 17  1  0
 18 22  1  0
 18 19  1  6
 20 21  2  0
 20 19  1  0
 22 25  1  0
 23 22  2  0
 24 20  1  0
M  END
$$$$
