NDD.pdb
     RDKit          3D

 25 24  0  0  1  0  0  0  0  0999 V2000
    7.1991  -12.0906   18.6260 N   0  0  0  0  0  0  0  0  0  0  0  0
    7.4169  -13.3711   18.0534 C   0  0  0  0  0  0  0  0  0  0  0  0
    7.7097  -13.4271   16.8407 O   0  0  0  0  0  0  0  0  0  0  0  0
    7.2835  -14.5598   18.9274 C   0  0  0  0  0  0  0  0  0  0  0  0
    8.5205  -14.7744   19.7707 C   0  0  2  0  0  0  0  0  0  0  0  0
    9.6782  -14.5395   18.9503 N   0  0  0  0  0  0  0  0  0  0  0  0
    8.4541  -16.1963   20.2571 C   0  0  0  0  0  0  0  0  0  0  0  0
    7.4488  -16.4844   20.9534 O   0  0  0  0  0  0  0  0  0  0  0  0
    9.4303  -17.1425   19.9668 N   0  0  0  0  0  0  0  0  0  0  0  0
    9.3927  -18.4648   20.5985 C   0  0  1  0  0  0  0  0  0  0  0  0
    9.7616  -19.5243   19.6051 C   0  0  0  0  0  0  0  0  0  0  0  0
    9.7096  -20.9081   20.0981 C   0  0  0  0  0  0  0  0  0  0  0  0
   10.3896  -21.8123   19.5731 O   0  0  0  0  0  0  0  0  0  0  0  0
   10.3921  -18.4755   21.7033 C   0  0  0  0  0  0  0  0  0  0  0  0
   11.4298  -17.8161   21.6169 O   0  0  0  0  0  0  0  0  0  0  0  0
    8.8973  -21.2762   21.1762 O   0  0  0  0  0  0  0  0  0  0  0  0
   10.1907  -19.2429   22.8926 N   0  0  0  0  0  0  0  0  0  0  0  0
   11.1359  -19.2415   23.9854 C   0  0  1  0  0  0  0  0  0  0  0  0
   10.4985  -19.0065   25.3301 C   0  0  0  0  0  0  0  0  0  0  0  0
   11.4710  -19.1238   26.4374 C   0  0  0  0  0  0  0  0  0  0  0  0
   11.5040  -20.1276   27.1834 O   0  0  0  0  0  0  0  0  0  0  0  0
   11.9604  -20.4874   23.9903 C   0  0  0  0  0  0  0  0  0  0  0  0
   12.9770  -20.5853   24.7240 O   0  0  0  0  0  0  0  0  0  0  0  0
   12.3786  -18.1048   26.6708 O   0  0  0  0  0  0  0  0  0  0  0  0
   11.6340  -21.5706   23.1907 O   0  0  0  0  0  0  0  0  0  0  0  0
  1  2  1  0
  2  3  2  0
  4  2  1  0
  5  4  1  0
  5  6  1  6
  7  5  1  0
  7  8  2  0
  9  7  1  0
 10  9  1  0
 10 11  1  6
 12 11  1  0
 13 12  2  0
 14 10  1  0
 15 14  2  0
 16 12  1  0
 17 14  1  0
 18 17  1  0
 18 22  1  0
 18 19  1  1
 20 21  2  0
 20 19  1  0
 22 25  1  0
 23 22  2  0
 24 20  1  0
M  END
$$$$
