NDD.pdb
     RDKit          3D

 25 24  0  0  1  0  0  0  0  0999 V2000
    6.6803  -14.0452   15.6109 N   0  0  0  0  0  0  0  0  0  0  0  0
    8.0883  -14.2081   15.5346 C   0  0  0  0  0  0  0  0  0  0  0  0
    8.5937  -14.4070   14.4101 O   0  0  0  0  0  0  0  0  0  0  0  0
    8.8701  -14.1327   16.7906 C   0  0  0  0  0  0  0  0  0  0  0  0
    7.9763  -13.9268   17.9932 C   0  0  2  0  0  0  0  0  0  0  0  0
    7.6530  -12.5284   18.0870 N   0  0  0  0  0  0  0  0  0  0  0  0
    8.7607  -14.4045   19.1845 C   0  0  0  0  0  0  0  0  0  0  0  0
    9.4701  -13.5355   19.7500 O   0  0  0  0  0  0  0  0  0  0  0  0
    8.7170  -15.7159   19.6438 N   0  0  0  0  0  0  0  0  0  0  0  0
    9.4928  -16.1155   20.8216 C   0  0  1  0  0  0  0  0  0  0  0  0
    8.9899  -17.4227   21.3544 C   0  0  0  0  0  0  0  0  0  0  0  0
    9.7963  -18.0297   22.4229 C   0  0  0  0  0  0  0  0  0  0  0  0
   10.4674  -17.3314   23.2088 O   0  0  0  0  0  0  0  0  0  0  0  0
   10.9124  -16.2837   20.4022 C   0  0  0  0  0  0  0  0  0  0  0  0
   11.2038  -17.0139   19.4530 O   0  0  0  0  0  0  0  0  0  0  0  0
    9.8498  -19.4154   22.6089 O   0  0  0  0  0  0  0  0  0  0  0  0
   11.9805  -15.6143   21.0768 N   0  0  0  0  0  0  0  0  0  0  0  0
   13.3316  -15.5989   20.5650 C   0  0  1  0  0  0  0  0  0  0  0  0
   13.5822  -14.5002   19.5651 C   0  0  0  0  0  0  0  0  0  0  0  0
   14.9288  -14.5907   18.9616 C   0  0  0  0  0  0  0  0  0  0  0  0
   15.5679  -15.6659   18.9317 O   0  0  0  0  0  0  0  0  0  0  0  0
   14.3310  -15.5556   21.6748 C   0  0  0  0  0  0  0  0  0  0  0  0
   15.5641  -15.5207   21.4313 O   0  0  0  0  0  0  0  0  0  0  0  0
   15.5154  -13.4651   18.4086 O   0  0  0  0  0  0  0  0  0  0  0  0
   13.9341  -15.5527   23.0021 O   0  0  0  0  0  0  0  0  0  0  0  0
  1  2  1  0
  2  3  2  0
  4  2  1  0
  5  4  1  0
  5  6  1  1
  7  5  1  0
  7  8  2  0
  9  7  1  0
 10  9  1  0
 10 11  1  6
 12 11  1  0
 13 12  2  0
 14 10  1  0
 15 14  2  0
 16 12  1  0
 17 14  1  0
 18 17  1  0
 18 22  1  0
 18 19  1  6
 20 21  2  0
 20 19  1  0
 22 25  1  0
 23 22  2  0
 24 20  1  0
M  END
$$$$
