NDD.pdb
     RDKit          3D

 25 24  0  0  1  0  0  0  0  0999 V2000
   10.4582  -13.6208   18.2567 N   0  0  0  0  0  0  0  0  0  0  0  0
    9.4655  -14.3895   17.5944 C   0  0  0  0  0  0  0  0  0  0  0  0
    9.8448  -15.2585   16.7816 O   0  0  0  0  0  0  0  0  0  0  0  0
    8.0439  -14.1142   17.9068 C   0  0  0  0  0  0  0  0  0  0  0  0
    7.9023  -13.0549   18.9769 C   0  0  2  0  0  0  0  0  0  0  0  0
    8.6994  -11.9181   18.6015 N   0  0  0  0  0  0  0  0  0  0  0  0
    8.3854  -13.6839   20.2552 C   0  0  0  0  0  0  0  0  0  0  0  0
    9.3936  -13.1454   20.7767 O   0  0  0  0  0  0  0  0  0  0  0  0
    7.7712  -14.7877   20.8356 N   0  0  0  0  0  0  0  0  0  0  0  0
    8.1869  -15.2562   22.1609 C   0  0  1  0  0  0  0  0  0  0  0  0
    7.2576  -16.3264   22.6472 C   0  0  0  0  0  0  0  0  0  0  0  0
    7.4997  -16.8101   24.0140 C   0  0  0  0  0  0  0  0  0  0  0  0
    8.4900  -16.4334   24.6721 O   0  0  0  0  0  0  0  0  0  0  0  0
    9.5559  -15.8306   22.0375 C   0  0  0  0  0  0  0  0  0  0  0  0
    9.9946  -16.1759   20.9387 O   0  0  0  0  0  0  0  0  0  0  0  0
    6.6340  -17.7134   24.6402 O   0  0  0  0  0  0  0  0  0  0  0  0
   10.4045  -16.0037   23.1750 N   0  0  0  0  0  0  0  0  0  0  0  0
   11.7913  -16.3914   23.0557 C   0  0  1  0  0  0  0  0  0  0  0  0
   12.6448  -15.3620   22.3619 C   0  0  0  0  0  0  0  0  0  0  0  0
   12.8703  -15.6910   20.9383 C   0  0  0  0  0  0  0  0  0  0  0  0
   13.1755  -16.8465   20.5682 O   0  0  0  0  0  0  0  0  0  0  0  0
   12.3666  -16.7616   24.3840 C   0  0  0  0  0  0  0  0  0  0  0  0
   11.7308  -16.5413   25.4463 O   0  0  0  0  0  0  0  0  0  0  0  0
   12.7446  -14.7064   19.9731 O   0  0  0  0  0  0  0  0  0  0  0  0
   13.6133  -17.3566   24.4886 O   0  0  0  0  0  0  0  0  0  0  0  0
  1  2  1  0
  2  3  2  0
  4  2  1  0
  5  4  1  0
  5  6  1  6
  7  5  1  0
  7  8  2  0
  9  7  1  0
 10  9  1  0
 10 11  1  6
 12 11  1  0
 13 12  2  0
 14 10  1  0
 15 14  2  0
 16 12  1  0
 17 14  1  0
 18 17  1  0
 18 22  1  0
 18 19  1  1
 20 21  2  0
 20 19  1  0
 22 25  1  0
 23 22  2  0
 24 20  1  0
M  END
$$$$
