NDD.pdb
     RDKit          3D

 25 24  0  0  1  0  0  0  0  0999 V2000
    8.0034  -12.6357   16.6114 N   0  0  0  0  0  0  0  0  0  0  0  0
    7.4463  -13.8951   16.2671 C   0  0  0  0  0  0  0  0  0  0  0  0
    6.9530  -14.0243   15.1272 O   0  0  0  0  0  0  0  0  0  0  0  0
    7.4840  -14.9765   17.2789 C   0  0  0  0  0  0  0  0  0  0  0  0
    7.9156  -14.4594   18.6330 C   0  0  2  0  0  0  0  0  0  0  0  0
    9.2193  -13.8667   18.5005 N   0  0  0  0  0  0  0  0  0  0  0  0
    7.9294  -15.6509   19.5513 C   0  0  0  0  0  0  0  0  0  0  0  0
    6.8115  -16.1822   19.7663 O   0  0  0  0  0  0  0  0  0  0  0  0
    9.0911  -16.1453   20.1331 N   0  0  0  0  0  0  0  0  0  0  0  0
    9.0430  -17.3309   20.9938 C   0  0  1  0  0  0  0  0  0  0  0  0
    8.5808  -18.5217   20.2102 C   0  0  0  0  0  0  0  0  0  0  0  0
    7.1251  -18.6662   20.0667 C   0  0  0  0  0  0  0  0  0  0  0  0
    6.3558  -18.4995   21.0342 O   0  0  0  0  0  0  0  0  0  0  0  0
   10.4216  -17.5926   21.4941 C   0  0  0  0  0  0  0  0  0  0  0  0
   10.9112  -18.7214   21.4223 O   0  0  0  0  0  0  0  0  0  0  0  0
    6.5345  -18.9968   18.8422 O   0  0  0  0  0  0  0  0  0  0  0  0
   11.2213  -16.5580   22.0719 N   0  0  0  0  0  0  0  0  0  0  0  0
   12.6310  -16.7264   22.3403 C   0  0  1  0  0  0  0  0  0  0  0  0
   13.4981  -15.6966   21.6639 C   0  0  0  0  0  0  0  0  0  0  0  0
   14.9360  -15.9180   21.9261 C   0  0  0  0  0  0  0  0  0  0  0  0
   15.5017  -16.9957   21.6364 O   0  0  0  0  0  0  0  0  0  0  0  0
   12.9007  -16.7770   23.8089 C   0  0  0  0  0  0  0  0  0  0  0  0
   12.0352  -16.3948   24.6372 O   0  0  0  0  0  0  0  0  0  0  0  0
   15.6947  -14.9164   22.5075 O   0  0  0  0  0  0  0  0  0  0  0  0
   14.1072  -17.2442   24.3042 O   0  0  0  0  0  0  0  0  0  0  0  0
  1  2  1  0
  2  3  2  0
  4  2  1  0
  5  4  1  0
  5  6  1  6
  7  5  1  0
  7  8  2  0
  9  7  1  0
 10  9  1  0
 10 11  1  6
 12 11  1  0
 13 12  2  0
 14 10  1  0
 15 14  2  0
 16 12  1  0
 17 14  1  0
 18 17  1  0
 18 22  1  0
 18 19  1  1
 20 21  2  0
 20 19  1  0
 22 25  1  0
 23 22  2  0
 24 20  1  0
M  END
$$$$
