NDD.pdb
     RDKit          3D

 25 24  0  0  1  0  0  0  0  0999 V2000
    7.0444  -17.4023   16.7081 N   0  0  0  0  0  0  0  0  0  0  0  0
    8.3187  -17.3020   17.3254 C   0  0  0  0  0  0  0  0  0  0  0  0
    9.1735  -16.5686   16.7859 O   0  0  0  0  0  0  0  0  0  0  0  0
    8.5561  -18.0718   18.5685 C   0  0  0  0  0  0  0  0  0  0  0  0
    7.4273  -19.0379   18.8512 C   0  0  2  0  0  0  0  0  0  0  0  0
    6.1926  -18.3008   18.8793 N   0  0  0  0  0  0  0  0  0  0  0  0
    7.7380  -19.6670   20.1819 C   0  0  0  0  0  0  0  0  0  0  0  0
    6.9256  -19.4107   21.1052 O   0  0  0  0  0  0  0  0  0  0  0  0
    8.8453  -20.4799   20.3953 N   0  0  0  0  0  0  0  0  0  0  0  0
    9.0835  -21.0780   21.7123 C   0  0  1  0  0  0  0  0  0  0  0  0
    9.0069  -22.5719   21.6245 C   0  0  0  0  0  0  0  0  0  0  0  0
    9.2972  -23.3006   22.8676 C   0  0  0  0  0  0  0  0  0  0  0  0
    8.6232  -23.1190   23.9013 O   0  0  0  0  0  0  0  0  0  0  0  0
   10.4545  -20.6938   22.1509 C   0  0  0  0  0  0  0  0  0  0  0  0
   11.2925  -20.3150   21.3304 O   0  0  0  0  0  0  0  0  0  0  0  0
   10.3402  -24.2294   22.9510 O   0  0  0  0  0  0  0  0  0  0  0  0
   10.8485  -20.7501   23.5240 N   0  0  0  0  0  0  0  0  0  0  0  0
   11.4834  -19.6388   24.1945 C   0  0  1  0  0  0  0  0  0  0  0  0
   11.1665  -18.3030   23.5742 C   0  0  0  0  0  0  0  0  0  0  0  0
   12.3702  -17.6410   23.0280 C   0  0  0  0  0  0  0  0  0  0  0  0
   12.2968  -16.5903   22.3526 O   0  0  0  0  0  0  0  0  0  0  0  0
   11.1757  -19.6405   25.6565 C   0  0  0  0  0  0  0  0  0  0  0  0
   10.0049  -19.8413   26.0690 O   0  0  0  0  0  0  0  0  0  0  0  0
   13.6227  -18.1836   23.2599 O   0  0  0  0  0  0  0  0  0  0  0  0
   12.1651  -19.4219   26.6013 O   0  0  0  0  0  0  0  0  0  0  0  0
  1  2  1  0
  2  3  2  0
  4  2  1  0
  5  4  1  0
  5  6  1  1
  7  5  1  0
  7  8  2  0
  9  7  1  0
 10  9  1  0
 10 11  1  6
 12 11  1  0
 13 12  2  0
 14 10  1  0
 15 14  2  0
 16 12  1  0
 17 14  1  0
 18 17  1  0
 18 22  1  0
 18 19  1  6
 20 21  2  0
 20 19  1  0
 22 25  1  0
 23 22  2  0
 24 20  1  0
M  END
$$$$
