NDD.pdb
     RDKit          3D

 25 24  0  0  1  0  0  0  0  0999 V2000
    7.8051  -14.8860   15.9603 N   0  0  0  0  0  0  0  0  0  0  0  0
    7.7041  -13.7045   16.7407 C   0  0  0  0  0  0  0  0  0  0  0  0
    6.8516  -12.8549   16.4075 O   0  0  0  0  0  0  0  0  0  0  0  0
    8.6141  -13.5520   17.8996 C   0  0  0  0  0  0  0  0  0  0  0  0
    9.6351  -14.6662   17.9583 C   0  0  2  0  0  0  0  0  0  0  0  0
    8.9431  -15.9239   17.8689 N   0  0  0  0  0  0  0  0  0  0  0  0
   10.3508  -14.5095   19.2720 C   0  0  0  0  0  0  0  0  0  0  0  0
   10.9803  -13.4325   19.4210 O   0  0  0  0  0  0  0  0  0  0  0  0
   10.3296  -15.4804   20.2667 N   0  0  0  0  0  0  0  0  0  0  0  0
   11.1622  -15.3337   21.4643 C   0  0  1  0  0  0  0  0  0  0  0  0
   10.6714  -16.2413   22.5510 C   0  0  0  0  0  0  0  0  0  0  0  0
    9.2711  -16.0534   22.9563 C   0  0  0  0  0  0  0  0  0  0  0  0
    8.8773  -14.9829   23.4610 O   0  0  0  0  0  0  0  0  0  0  0  0
   12.5549  -15.7239   21.1071 C   0  0  0  0  0  0  0  0  0  0  0  0
   12.7813  -16.7985   20.5475 O   0  0  0  0  0  0  0  0  0  0  0  0
    8.3158  -17.0631   22.7962 O   0  0  0  0  0  0  0  0  0  0  0  0
   13.6709  -14.8787   21.3971 N   0  0  0  0  0  0  0  0  0  0  0  0
   15.0374  -15.3028   21.1959 C   0  0  1  0  0  0  0  0  0  0  0  0
   15.8427  -14.3517   20.3494 C   0  0  0  0  0  0  0  0  0  0  0  0
   15.3360  -14.2718   18.9629 C   0  0  0  0  0  0  0  0  0  0  0  0
   15.1369  -15.2962   18.2728 O   0  0  0  0  0  0  0  0  0  0  0  0
   15.7180  -15.5735   22.4981 C   0  0  0  0  0  0  0  0  0  0  0  0
   16.8782  -16.0572   22.5312 O   0  0  0  0  0  0  0  0  0  0  0  0
   15.0683  -13.0379   18.3950 O   0  0  0  0  0  0  0  0  0  0  0  0
   15.0964  -15.3021   23.7061 O   0  0  0  0  0  0  0  0  0  0  0  0
  1  2  1  0
  2  3  2  0
  4  2  1  0
  5  4  1  0
  5  6  1  1
  7  5  1  0
  7  8  2  0
  9  7  1  0
 10  9  1  0
 10 11  1  1
 12 11  1  0
 13 12  2  0
 14 10  1  0
 15 14  2  0
 16 12  1  0
 17 14  1  0
 18 17  1  0
 18 22  1  0
 18 19  1  1
 20 21  2  0
 20 19  1  0
 22 25  1  0
 23 22  2  0
 24 20  1  0
M  END
$$$$
