NDD.pdb
     RDKit          3D

 25 24  0  0  1  0  0  0  0  0999 V2000
    6.6379  -13.4192   16.1316 N   0  0  0  0  0  0  0  0  0  0  0  0
    7.7492  -13.6939   15.2921 C   0  0  0  0  0  0  0  0  0  0  0  0
    7.5838  -13.6101   14.0571 O   0  0  0  0  0  0  0  0  0  0  0  0
    9.0339  -14.0625   15.9310 C   0  0  0  0  0  0  0  0  0  0  0  0
    8.8985  -14.1753   17.4331 C   0  0  2  0  0  0  0  0  0  0  0  0
    8.7385  -12.8535   17.9770 N   0  0  0  0  0  0  0  0  0  0  0  0
   10.1600  -14.8352   17.9189 C   0  0  0  0  0  0  0  0  0  0  0  0
   10.2981  -16.0421   17.5985 O   0  0  0  0  0  0  0  0  0  0  0  0
   11.1201  -14.1709   18.6734 N   0  0  0  0  0  0  0  0  0  0  0  0
   12.2871  -14.8922   19.1900 C   0  0  1  0  0  0  0  0  0  0  0  0
   13.5435  -14.1395   18.8731 C   0  0  0  0  0  0  0  0  0  0  0  0
   14.7964  -14.7811   19.2962 C   0  0  0  0  0  0  0  0  0  0  0  0
   14.9755  -16.0087   19.1665 O   0  0  0  0  0  0  0  0  0  0  0  0
   12.1487  -14.9913   20.6700 C   0  0  0  0  0  0  0  0  0  0  0  0
   11.3133  -14.3113   21.2689 O   0  0  0  0  0  0  0  0  0  0  0  0
   15.8448  -14.0482   19.8631 O   0  0  0  0  0  0  0  0  0  0  0  0
   12.9705  -15.8673   21.4454 N   0  0  0  0  0  0  0  0  0  0  0  0
   12.5141  -16.4713   22.6760 C   0  0  1  0  0  0  0  0  0  0  0  0
   11.1965  -17.1891   22.5398 C   0  0  0  0  0  0  0  0  0  0  0  0
   10.7439  -17.7738   23.8200 C   0  0  0  0  0  0  0  0  0  0  0  0
   11.4516  -17.7334   24.8510 O   0  0  0  0  0  0  0  0  0  0  0  0
   13.5577  -17.3671   23.2597 C   0  0  0  0  0  0  0  0  0  0  0  0
   13.7906  -17.3664   24.4954 O   0  0  0  0  0  0  0  0  0  0  0  0
    9.5053  -18.3871   23.9001 O   0  0  0  0  0  0  0  0  0  0  0  0
   14.2998  -18.2235   22.4628 O   0  0  0  0  0  0  0  0  0  0  0  0
  1  2  1  0
  2  3  2  0
  4  2  1  0
  5  4  1  0
  5  6  1  1
  7  5  1  0
  7  8  2  0
  9  7  1  0
 10  9  1  0
 10 11  1  1
 12 11  1  0
 13 12  2  0
 14 10  1  0
 15 14  2  0
 16 12  1  0
 17 14  1  0
 18 17  1  0
 18 22  1  0
 18 19  1  6
 20 21  2  0
 20 19  1  0
 22 25  1  0
 23 22  2  0
 24 20  1  0
M  END
$$$$
