NDD.pdb
     RDKit          3D

 25 24  0  0  1  0  0  0  0  0999 V2000
    8.7162  -15.9235   17.5460 N   0  0  0  0  0  0  0  0  0  0  0  0
    9.4318  -14.7264   17.2813 C   0  0  0  0  0  0  0  0  0  0  0  0
   10.5728  -14.8253   16.7835 O   0  0  0  0  0  0  0  0  0  0  0  0
    8.7829  -13.4363   17.6114 C   0  0  0  0  0  0  0  0  0  0  0  0
    8.0141  -13.5144   18.9114 C   0  0  2  0  0  0  0  0  0  0  0  0
    7.3083  -12.2753   19.0989 N   0  0  0  0  0  0  0  0  0  0  0  0
    9.0369  -13.7485   19.9893 C   0  0  0  0  0  0  0  0  0  0  0  0
    9.8550  -12.8127   20.1724 O   0  0  0  0  0  0  0  0  0  0  0  0
    9.0899  -14.9156   20.7426 N   0  0  0  0  0  0  0  0  0  0  0  0
   10.1150  -15.0851   21.7767 C   0  0  1  0  0  0  0  0  0  0  0  0
    9.6828  -16.1204   22.7701 C   0  0  0  0  0  0  0  0  0  0  0  0
   10.6248  -16.3860   23.8668 C   0  0  0  0  0  0  0  0  0  0  0  0
   11.7159  -15.7870   23.9473 O   0  0  0  0  0  0  0  0  0  0  0  0
   11.3652  -15.5503   21.1135 C   0  0  0  0  0  0  0  0  0  0  0  0
   11.3165  -16.1884   20.0601 O   0  0  0  0  0  0  0  0  0  0  0  0
   10.3440  -17.3206   24.8694 O   0  0  0  0  0  0  0  0  0  0  0  0
   12.6556  -15.2800   21.6664 N   0  0  0  0  0  0  0  0  0  0  0  0
   13.8643  -15.3343   20.8766 C   0  0  1  0  0  0  0  0  0  0  0  0
   13.8156  -14.4688   19.6444 C   0  0  0  0  0  0  0  0  0  0  0  0
   15.0537  -14.5681   18.8427 C   0  0  0  0  0  0  0  0  0  0  0  0
   15.7153  -15.6280   18.7785 O   0  0  0  0  0  0  0  0  0  0  0  0
   15.0678  -15.0240   21.7056 C   0  0  0  0  0  0  0  0  0  0  0  0
   14.9479  -14.6033   22.8846 O   0  0  0  0  0  0  0  0  0  0  0  0
   15.5095  -13.4683   18.1359 O   0  0  0  0  0  0  0  0  0  0  0  0
   16.3492  -15.1885   21.2055 O   0  0  0  0  0  0  0  0  0  0  0  0
  1  2  1  0
  2  3  2  0
  4  2  1  0
  5  4  1  0
  5  6  1  1
  7  5  1  0
  7  8  2  0
  9  7  1  0
 10  9  1  0
 10 11  1  1
 12 11  1  0
 13 12  2  0
 14 10  1  0
 15 14  2  0
 16 12  1  0
 17 14  1  0
 18 17  1  0
 18 22  1  0
 18 19  1  6
 20 21  2  0
 20 19  1  0
 22 25  1  0
 23 22  2  0
 24 20  1  0
M  END
$$$$
