MHR.pdb
     RDKit          3D

 30 30  0  0  1  0  0  0  0  0999 V2000
   30.4794  -19.1500  -16.6026 C   0  0  0  0  0  0  0  0  0  0  0  0
   29.1282  -18.5103  -17.6464 S   0  0  0  0  0  0  0  0  0  0  0  0
   27.9539  -19.8256  -18.0461 C   0  0  0  0  0  0  0  0  0  0  0  0
   27.3464  -20.4824  -16.8554 C   0  0  0  0  0  0  0  0  0  0  0  0
   26.2206  -19.7502  -16.2087 C   0  0  2  0  0  0  0  0  0  0  0  0
   26.5088  -18.4296  -15.7583 N   0  0  0  0  0  0  0  0  0  0  0  0
   25.6134  -20.6150  -15.1447 C   0  0  0  0  0  0  0  0  0  0  0  0
   25.2955  -21.8000  -15.4644 O   0  0  0  0  0  0  0  0  0  0  0  0
   25.4121  -20.1068  -13.8433 N   0  0  0  0  0  0  0  0  0  0  0  0
   24.6542  -20.8441  -12.8553 C   0  0  1  0  0  0  0  0  0  0  0  0
   25.3949  -20.8254  -11.5470 C   0  0  0  0  0  0  0  0  0  0  0  0
   26.8333  -21.0495  -11.6381 C   0  0  0  0  0  0  0  0  0  0  0  0
   27.5460  -21.2913  -12.7910 C   0  0  0  0  0  0  0  0  0  0  0  0
   28.8263  -21.4569  -12.4255 N   0  0  0  0  0  0  0  0  0  0  0  0
   28.8956  -21.3211  -11.0924 C   0  0  0  0  0  0  0  0  0  0  0  0
   27.6866  -21.0715  -10.5928 N   0  0  0  0  0  0  0  0  0  0  0  0
   23.3038  -20.3049  -12.6673 C   0  0  0  0  0  0  0  0  0  0  0  0
   23.0641  -19.1197  -13.0029 O   0  0  0  0  0  0  0  0  0  0  0  0
   16.8374  -22.2928  -17.1357 N   0  0  0  0  0  0  0  0  0  0  0  0
   17.1157  -20.8937  -17.1995 C   0  0  0  0  0  0  0  0  0  0  0  0
   16.2646  -20.0873  -17.7004 N   0  0  0  0  0  0  0  0  0  0  0  0
   18.3487  -20.3639  -16.7042 N   0  0  0  0  0  0  0  0  0  0  0  0
   19.3704  -21.1704  -16.0844 C   0  0  0  0  0  0  0  0  0  0  0  0
   19.4431  -20.9397  -14.5901 C   0  0  0  0  0  0  0  0  0  0  0  0
   20.8255  -21.0462  -14.0510 C   0  0  0  0  0  0  0  0  0  0  0  0
   20.9088  -20.9046  -12.5509 C   0  0  2  0  0  0  0  0  0  0  0  0
   22.2490  -21.1069  -12.1059 N   0  0  0  0  0  0  0  0  0  0  0  0
   19.9701  -21.7638  -11.8231 C   0  0  0  0  0  0  0  0  0  0  0  0
   18.8892  -21.2532  -11.4025 O   0  0  0  0  0  0  0  0  0  0  0  0
   20.1566  -23.0987  -11.5490 O   0  0  0  0  0  0  0  0  0  0  0  0
  1  2  1  0
  2  3  1  0
  4  5  1  0
  4  3  1  0
  5  6  1  1
  7  8  2  0
  7  5  1  0
  9  7  1  0
 10 11  1  1
 10  9  1  0
 11 12  1  0
 12 16  1  0
 13 12  2  0
 13 14  1  0
 14 15  1  0
 16 15  2  0
 17 10  1  0
 18 17  2  0
 20 19  1  0
 20 22  1  0
 21 20  2  0
 23 22  1  0
 24 23  1  0
 25 24  1  0
 26 25  1  6
 26 27  1  0
 27 17  1  0
 28 30  1  0
 28 26  1  0
 29 28  2  0
M  END
$$$$
