MHR.pdb
     RDKit          3D

 30 30  0  0  1  0  0  0  0  0999 V2000
   14.8295  -15.5470  -20.1679 C   0  0  0  0  0  0  0  0  0  0  0  0
   15.2454  -14.6281  -18.6490 S   0  0  0  0  0  0  0  0  0  0  0  0
   15.4606  -12.8690  -19.0068 C   0  0  0  0  0  0  0  0  0  0  0  0
   16.5792  -12.5704  -19.9438 C   0  0  0  0  0  0  0  0  0  0  0  0
   17.8733  -13.2512  -19.6543 C   0  0  2  0  0  0  0  0  0  0  0  0
   18.4470  -12.9892  -18.3767 N   0  0  0  0  0  0  0  0  0  0  0  0
   18.8252  -13.0083  -20.7873 C   0  0  0  0  0  0  0  0  0  0  0  0
   18.3747  -13.1294  -21.9663 O   0  0  0  0  0  0  0  0  0  0  0  0
   20.1679  -12.6598  -20.5266 N   0  0  0  0  0  0  0  0  0  0  0  0
   21.1170  -12.4610  -21.6009 C   0  0  1  0  0  0  0  0  0  0  0  0
   22.0919  -11.3858  -21.2085 C   0  0  0  0  0  0  0  0  0  0  0  0
   23.0837  -11.0396  -22.2204 C   0  0  0  0  0  0  0  0  0  0  0  0
   23.2114  -11.6176  -23.4634 C   0  0  0  0  0  0  0  0  0  0  0  0
   24.2537  -11.0205  -24.0612 N   0  0  0  0  0  0  0  0  0  0  0  0
   24.7482  -10.1068  -23.2122 C   0  0  0  0  0  0  0  0  0  0  0  0
   24.0458  -10.1036  -22.0807 N   0  0  0  0  0  0  0  0  0  0  0  0
   21.8439  -13.6881  -21.9411 C   0  0  0  0  0  0  0  0  0  0  0  0
   21.8012  -14.6648  -21.1544 O   0  0  0  0  0  0  0  0  0  0  0  0
   23.6999  -20.4669  -20.8055 N   0  0  0  0  0  0  0  0  0  0  0  0
   22.5555  -20.4932  -21.6590 C   0  0  0  0  0  0  0  0  0  0  0  0
   21.7209  -21.4548  -21.5920 N   0  0  0  0  0  0  0  0  0  0  0  0
   22.3164  -19.4466  -22.6043 N   0  0  0  0  0  0  0  0  0  0  0  0
   23.2442  -18.3717  -22.8541 C   0  0  0  0  0  0  0  0  0  0  0  0
   22.7604  -17.4524  -23.9552 C   0  0  0  0  0  0  0  0  0  0  0  0
   22.2321  -16.1592  -23.4441 C   0  0  0  0  0  0  0  0  0  0  0  0
   23.2359  -15.0329  -23.4783 C   0  0  2  0  0  0  0  0  0  0  0  0
   22.6047  -13.7942  -23.1581 N   0  0  0  0  0  0  0  0  0  0  0  0
   23.9794  -14.9420  -24.7384 C   0  0  0  0  0  0  0  0  0  0  0  0
   25.2045  -15.2667  -24.7390 O   0  0  0  0  0  0  0  0  0  0  0  0
   23.4614  -14.5294  -25.9440 O   0  0  0  0  0  0  0  0  0  0  0  0
  1  2  1  0
  2  3  1  0
  4  5  1  0
  4  3  1  0
  5  6  1  1
  7  8  2  0
  7  5  1  0
  9  7  1  0
 10 11  1  1
 10  9  1  0
 11 12  1  0
 12 16  1  0
 13 12  2  0
 13 14  1  0
 14 15  1  0
 16 15  2  0
 17 10  1  0
 18 17  2  0
 20 19  1  0
 20 22  1  0
 21 20  2  0
 23 22  1  0
 24 23  1  0
 25 24  1  0
 26 25  1  6
 26 27  1  0
 27 17  1  0
 28 30  1  0
 28 26  1  0
 29 28  2  0
M  END
$$$$
