MHR.pdb
     RDKit          3D

 30 30  0  0  1  0  0  0  0  0999 V2000
   26.8694  -16.3616  -15.0488 C   0  0  0  0  0  0  0  0  0  0  0  0
   26.4617  -18.0818  -15.4953 S   0  0  0  0  0  0  0  0  0  0  0  0
   27.4777  -18.6380  -16.8836 C   0  0  0  0  0  0  0  0  0  0  0  0
   27.2243  -20.0457  -17.2984 C   0  0  0  0  0  0  0  0  0  0  0  0
   27.1344  -21.0454  -16.1964 C   0  0  2  0  0  0  0  0  0  0  0  0
   28.1936  -21.0246  -15.2436 N   0  0  0  0  0  0  0  0  0  0  0  0
   26.8952  -22.4060  -16.7800 C   0  0  0  0  0  0  0  0  0  0  0  0
   25.9849  -22.5153  -17.6557 O   0  0  0  0  0  0  0  0  0  0  0  0
   27.6665  -23.5088  -16.3542 N   0  0  0  0  0  0  0  0  0  0  0  0
   27.4281  -24.8394  -16.8708 C   0  0  1  0  0  0  0  0  0  0  0  0
   28.6863  -25.6529  -16.7447 C   0  0  0  0  0  0  0  0  0  0  0  0
   28.5971  -27.0245  -17.2326 C   0  0  0  0  0  0  0  0  0  0  0  0
   28.0038  -27.4319  -18.4063 C   0  0  0  0  0  0  0  0  0  0  0  0
   28.1285  -28.7667  -18.4586 N   0  0  0  0  0  0  0  0  0  0  0  0
   28.7768  -29.1641  -17.3531 C   0  0  0  0  0  0  0  0  0  0  0  0
   29.0718  -28.1127  -16.5908 N   0  0  0  0  0  0  0  0  0  0  0  0
   26.3275  -25.5198  -16.1814 C   0  0  0  0  0  0  0  0  0  0  0  0
   26.3015  -25.5290  -14.9268 O   0  0  0  0  0  0  0  0  0  0  0  0
   19.4146  -27.1627  -13.2875 N   0  0  0  0  0  0  0  0  0  0  0  0
   20.2625  -26.8897  -12.1716 C   0  0  0  0  0  0  0  0  0  0  0  0
   20.0154  -27.4032  -11.0309 N   0  0  0  0  0  0  0  0  0  0  0  0
   21.4052  -26.0396  -12.3043 N   0  0  0  0  0  0  0  0  0  0  0  0
   21.7899  -25.4097  -13.5428 C   0  0  0  0  0  0  0  0  0  0  0  0
   22.4084  -26.3963  -14.5100 C   0  0  0  0  0  0  0  0  0  0  0  0
   23.6104  -25.8581  -15.2017 C   0  0  0  0  0  0  0  0  0  0  0  0
   24.2216  -26.8138  -16.1969 C   0  0  2  0  0  0  0  0  0  0  0  0
   25.2775  -26.1768  -16.9142 N   0  0  0  0  0  0  0  0  0  0  0  0
   23.2474  -27.4199  -17.1093 C   0  0  0  0  0  0  0  0  0  0  0  0
   22.8223  -28.5849  -16.8483 O   0  0  0  0  0  0  0  0  0  0  0  0
   22.7415  -26.8306  -18.2446 O   0  0  0  0  0  0  0  0  0  0  0  0
  1  2  1  0
  2  3  1  0
  4  5  1  0
  4  3  1  0
  5  6  1  6
  7  8  2  0
  7  5  1  0
  9  7  1  0
 10 11  1  1
 10  9  1  0
 11 12  1  0
 12 16  1  0
 13 12  2  0
 13 14  1  0
 14 15  1  0
 16 15  2  0
 17 10  1  0
 18 17  2  0
 20 19  1  0
 20 22  1  0
 21 20  2  0
 23 22  1  0
 24 23  1  0
 25 24  1  0
 26 25  1  6
 26 27  1  0
 27 17  1  0
 28 30  1  0
 28 26  1  0
 29 28  2  0
M  END
$$$$
