GRT.pdb
     RDKit          3D

 23 22  0  0  1  0  0  0  0  0999 V2000
    8.6988  -19.8067   20.2664 N   0  0  0  0  0  0  0  0  0  0  0  0
    7.7634  -19.5200   21.3314 C   0  0  0  0  0  0  0  0  0  0  0  0
    8.2339  -18.3268   22.0714 C   0  0  0  0  0  0  0  0  0  0  0  0
    9.4312  -18.2169   22.3534 O   0  0  0  0  0  0  0  0  0  0  0  0
    8.4627  -11.9438   19.8183 N   0  0  0  0  0  0  0  0  0  0  0  0
    8.1621  -13.0635   19.0291 C   0  0  0  0  0  0  0  0  0  0  0  0
    8.2738  -12.9689   17.7260 N   0  0  0  0  0  0  0  0  0  0  0  0
    7.7414  -14.2897   19.6152 N   0  0  0  0  0  0  0  0  0  0  0  0
    8.2129  -14.5941   20.9365 C   0  0  0  0  0  0  0  0  0  0  0  0
    7.3954  -13.9561   22.0210 C   0  0  0  0  0  0  0  0  0  0  0  0
    6.8403  -14.9409   23.0055 C   0  0  0  0  0  0  0  0  0  0  0  0
    7.7535  -16.1253   23.2230 C   0  0  2  0  0  0  0  0  0  0  0  0
    7.3199  -17.2849   22.4720 N   0  0  0  0  0  0  0  0  0  0  0  0
    7.7050  -16.4380   24.6814 C   0  0  0  0  0  0  0  0  0  0  0  0
    6.7882  -15.8969   25.3442 O   0  0  0  0  0  0  0  0  0  0  0  0
    8.1060  -13.7955   17.1159 C   0  0  0  0  0  0  0  0  0  0  0  0
    6.4890  -18.7968   26.5940 C   0  0  2  0  0  0  0  0  0  0  0  0
    7.9462  -18.9561   27.0109 O   0  0  0  0  0  0  0  0  0  0  0  0
    8.5586  -19.9727   26.2542 C   0  0  2  0  0  0  0  0  0  0  0  0
    8.6512  -17.6864   26.6843 N   0  0  0  0  0  0  0  0  0  0  0  0
    8.6386  -17.3016   25.3098 C   0  0  0  0  0  0  0  0  0  0  0  0
   10.0311  -17.5992   27.2410 O   0  0  0  0  0  0  0  0  0  0  0  0
   10.9647  -17.2497   26.4969 O   0  0  0  0  0  0  0  0  0  0  0  0
  1  2  1  0
  3  4  2  0
  3  2  1  0
  5  6  1  0
  6  8  1  0
  7  6  2  0
  8  9  1  0
  9 10  1  0
 10 11  1  0
 12 11  1  1
 12 13  1  0
 13  3  1  0
 14 12  1  0
 15 14  2  0
 17 16  1  1
 17 19  1  0
 18 17  1  0
 19 21  1  0
 19 20  1  1
 20 14  1  0
 21 23  1  0
 22 21  2  0
M  END
$$$$
