GRT.pdb
     RDKit          3D

 23 22  0  0  1  0  0  0  0  0999 V2000
    4.6474  -20.9050   22.1637 N   0  0  0  0  0  0  0  0  0  0  0  0
    4.7164  -19.6404   22.8619 C   0  0  0  0  0  0  0  0  0  0  0  0
    5.9714  -18.9528   22.4810 C   0  0  0  0  0  0  0  0  0  0  0  0
    6.9768  -19.6201   22.2184 O   0  0  0  0  0  0  0  0  0  0  0  0
    8.8201  -14.7221   18.0609 N   0  0  0  0  0  0  0  0  0  0  0  0
    7.9742  -13.6135   18.2109 C   0  0  0  0  0  0  0  0  0  0  0  0
    7.8303  -12.7853   17.2044 N   0  0  0  0  0  0  0  0  0  0  0  0
    7.2759  -13.3755   19.4274 N   0  0  0  0  0  0  0  0  0  0  0  0
    8.0424  -13.3392   20.6406 C   0  0  0  0  0  0  0  0  0  0  0  0
    8.2851  -14.6971   21.2312 C   0  0  0  0  0  0  0  0  0  0  0  0
    7.0257  -15.4083   21.6257 C   0  0  0  0  0  0  0  0  0  0  0  0
    7.2788  -16.8192   22.1044 C   0  0  2  0  0  0  0  0  0  0  0  0
    6.0454  -17.5138   22.4096 N   0  0  0  0  0  0  0  0  0  0  0  0
    8.0996  -16.7068   23.3457 C   0  0  0  0  0  0  0  0  0  0  0  0
    7.6049  -16.0485   24.2914 O   0  0  0  0  0  0  0  0  0  0  0  0
    7.2613  -11.9194   17.3048 C   0  0  0  0  0  0  0  0  0  0  0  0
    9.6200  -19.4148   25.6074 C   0  0  2  0  0  0  0  0  0  0  0  0
   10.7759  -18.5844   25.0625 O   0  0  0  0  0  0  0  0  0  0  0  0
   11.3219  -19.2028   23.9221 C   0  0  2  0  0  0  0  0  0  0  0  0
   10.2233  -17.2736   24.6237 N   0  0  0  0  0  0  0  0  0  0  0  0
    9.3789  -17.3061   23.4734 C   0  0  0  0  0  0  0  0  0  0  0  0
   11.2468  -16.1980   24.4931 O   0  0  0  0  0  0  0  0  0  0  0  0
   11.3741  -15.6104   23.4040 O   0  0  0  0  0  0  0  0  0  0  0  0
  1  2  1  0
  3  4  2  0
  3  2  1  0
  5  6  1  0
  6  8  1  0
  7  6  2  0
  8  9  1  0
  9 10  1  0
 10 11  1  0
 12 11  1  1
 12 13  1  0
 13  3  1  0
 14 12  1  0
 15 14  2  0
 17 16  1  1
 17 19  1  0
 18 17  1  0
 19 21  1  0
 19 20  1  1
 20 14  1  0
 21 23  1  0
 22 21  2  0
M  END
$$$$
