GRT.pdb
     RDKit          3D

 23 22  0  0  1  0  0  0  0  0999 V2000
    7.7765  -15.7700   19.0267 N   0  0  0  0  0  0  0  0  0  0  0  0
    8.6807  -16.0692   20.1149 C   0  0  0  0  0  0  0  0  0  0  0  0
    7.9699  -15.8602   21.3971 C   0  0  0  0  0  0  0  0  0  0  0  0
    7.0173  -15.0758   21.4455 O   0  0  0  0  0  0  0  0  0  0  0  0
    8.8377  -19.8147   27.4020 N   0  0  0  0  0  0  0  0  0  0  0  0
    7.4614  -20.0687   27.3122 C   0  0  0  0  0  0  0  0  0  0  0  0
    6.7713  -20.2194   28.4170 N   0  0  0  0  0  0  0  0  0  0  0  0
    6.8079  -20.1645   26.0521 N   0  0  0  0  0  0  0  0  0  0  0  0
    7.6259  -20.1400   24.8727 C   0  0  0  0  0  0  0  0  0  0  0  0
    7.4174  -18.9161   24.0301 C   0  0  0  0  0  0  0  0  0  0  0  0
    7.8087  -17.6443   24.7206 C   0  0  0  0  0  0  0  0  0  0  0  0
    7.6386  -16.4274   23.8408 C   0  0  2  0  0  0  0  0  0  0  0  0
    8.3679  -16.5561   22.5965 N   0  0  0  0  0  0  0  0  0  0  0  0
    8.1787  -15.2677   24.6093 C   0  0  0  0  0  0  0  0  0  0  0  0
    9.4144  -15.0676   24.5344 O   0  0  0  0  0  0  0  0  0  0  0  0
    5.7522  -20.4293   28.3836 C   0  0  0  0  0  0  0  0  0  0  0  0
    6.6901  -11.4856   24.9908 C   0  0  2  0  0  0  0  0  0  0  0  0
    6.7956  -12.2020   26.3318 O   0  0  0  0  0  0  0  0  0  0  0  0
    5.5629  -12.7951   26.6629 C   0  0  2  0  0  0  0  0  0  0  0  0
    7.7820  -13.3062   26.1779 N   0  0  0  0  0  0  0  0  0  0  0  0
    7.3550  -14.4192   25.3929 C   0  0  0  0  0  0  0  0  0  0  0  0
    8.3789  -13.7687   27.4630 O   0  0  0  0  0  0  0  0  0  0  0  0
    8.3879  -14.9847   27.7251 O   0  0  0  0  0  0  0  0  0  0  0  0
  1  2  1  0
  3  4  2  0
  3  2  1  0
  5  6  1  0
  6  8  1  0
  7  6  2  0
  8  9  1  0
  9 10  1  0
 10 11  1  0
 12 11  1  1
 12 13  1  0
 13  3  1  0
 14 12  1  0
 15 14  2  0
 17 16  1  1
 17 19  1  0
 18 17  1  0
 19 21  1  0
 19 20  1  1
 20 14  1  0
 21 23  1  0
 22 21  2  0
M  END
$$$$
