GRT.pdb
     RDKit          3D

 23 22  0  0  1  0  0  0  0  0999 V2000
   14.2071  -16.2733   13.4552 N   0  0  0  0  0  0  0  0  0  0  0  0
   13.1645  -16.6750   14.3734 C   0  0  0  0  0  0  0  0  0  0  0  0
   13.3528  -15.9551   15.6536 C   0  0  0  0  0  0  0  0  0  0  0  0
   14.3221  -15.2028   15.7935 O   0  0  0  0  0  0  0  0  0  0  0  0
    8.0616  -12.8440   17.6621 N   0  0  0  0  0  0  0  0  0  0  0  0
    8.0812  -13.0531   19.0487 C   0  0  0  0  0  0  0  0  0  0  0  0
    7.8134  -12.0465   19.8453 N   0  0  0  0  0  0  0  0  0  0  0  0
    8.3845  -14.3292   19.5998 N   0  0  0  0  0  0  0  0  0  0  0  0
    8.7227  -15.3860   18.6890 C   0  0  0  0  0  0  0  0  0  0  0  0
    9.9992  -15.1392   17.9398 C   0  0  0  0  0  0  0  0  0  0  0  0
   11.2288  -15.3899   18.7600 C   0  0  0  0  0  0  0  0  0  0  0  0
   12.4993  -15.3067   17.9459 C   0  0  2  0  0  0  0  0  0  0  0  0
   12.4242  -16.1140   16.7462 N   0  0  0  0  0  0  0  0  0  0  0  0
   13.5971  -15.8209   18.8164 C   0  0  0  0  0  0  0  0  0  0  0  0
   13.6006  -17.0526   19.0514 O   0  0  0  0  0  0  0  0  0  0  0  0
    7.9032  -12.1461   20.8776 C   0  0  0  0  0  0  0  0  0  0  0  0
   17.1681  -14.9253   18.1317 C   0  0  2  0  0  0  0  0  0  0  0  0
   17.0444  -14.7519   19.6408 O   0  0  0  0  0  0  0  0  0  0  0  0
   16.9473  -13.3858   19.9655 C   0  0  2  0  0  0  0  0  0  0  0  0
   15.7693  -15.3916   20.0662 N   0  0  0  0  0  0  0  0  0  0  0  0
   14.5985  -14.9776   19.3626 C   0  0  0  0  0  0  0  0  0  0  0  0
   15.5364  -15.3580   21.5380 O   0  0  0  0  0  0  0  0  0  0  0  0
   14.4877  -14.8511   21.9751 O   0  0  0  0  0  0  0  0  0  0  0  0
  1  2  1  0
  3  4  2  0
  3  2  1  0
  5  6  1  0
  6  8  1  0
  7  6  2  0
  8  9  1  0
  9 10  1  0
 10 11  1  0
 12 11  1  1
 12 13  1  0
 13  3  1  0
 14 12  1  0
 15 14  2  0
 17 16  1  1
 17 19  1  0
 18 17  1  0
 19 21  1  0
 19 20  1  1
 20 14  1  0
 21 23  1  0
 22 21  2  0
M  END
$$$$
