GRT.pdb
     RDKit          3D

 23 22  0  0  1  0  0  0  0  0999 V2000
    9.1038  -12.7426   19.0427 N   0  0  0  0  0  0  0  0  0  0  0  0
    7.7645  -12.6580   19.5817 C   0  0  0  0  0  0  0  0  0  0  0  0
    7.6593  -13.5699   20.7436 C   0  0  0  0  0  0  0  0  0  0  0  0
    6.5448  -13.8966   21.1636 O   0  0  0  0  0  0  0  0  0  0  0  0
   13.0506  -14.3187   19.7841 N   0  0  0  0  0  0  0  0  0  0  0  0
   12.6494  -15.3188   18.8866 C   0  0  0  0  0  0  0  0  0  0  0  0
   13.3955  -15.5645   17.8366 N   0  0  0  0  0  0  0  0  0  0  0  0
   11.4559  -16.0643   19.0956 N   0  0  0  0  0  0  0  0  0  0  0  0
   11.3243  -16.7799   20.3331 C   0  0  0  0  0  0  0  0  0  0  0  0
    9.9370  -16.7320   20.9029 C   0  0  0  0  0  0  0  0  0  0  0  0
    9.8769  -16.1272   22.2732 C   0  0  0  0  0  0  0  0  0  0  0  0
    8.7628  -15.1159   22.4156 C   0  0  2  0  0  0  0  0  0  0  0  0
    8.8358  -14.0875   21.3989 N   0  0  0  0  0  0  0  0  0  0  0  0
    8.9255  -14.4899   23.7605 C   0  0  0  0  0  0  0  0  0  0  0  0
    9.9689  -13.8203   23.9486 O   0  0  0  0  0  0  0  0  0  0  0  0
   13.2064  -16.3895   17.2305 C   0  0  0  0  0  0  0  0  0  0  0  0
    6.8072  -12.0205   25.7387 C   0  0  2  0  0  0  0  0  0  0  0  0
    6.8528  -13.3045   26.5584 O   0  0  0  0  0  0  0  0  0  0  0  0
    5.7161  -14.0905   26.2919 C   0  0  2  0  0  0  0  0  0  0  0  0
    8.0371  -14.0861   26.1084 N   0  0  0  0  0  0  0  0  0  0  0  0
    7.9612  -14.6310   24.7913 C   0  0  0  0  0  0  0  0  0  0  0  0
    8.4828  -15.1241   27.0808 O   0  0  0  0  0  0  0  0  0  0  0  0
    8.5649  -16.3084   26.7091 O   0  0  0  0  0  0  0  0  0  0  0  0
  1  2  1  0
  3  4  2  0
  3  2  1  0
  5  6  1  0
  6  8  1  0
  7  6  2  0
  8  9  1  0
  9 10  1  0
 10 11  1  0
 12 11  1  6
 12 13  1  0
 13  3  1  0
 14 12  1  0
 15 14  2  0
 17 16  1  1
 17 19  1  0
 18 17  1  0
 19 21  1  0
 19 20  1  1
 20 14  1  0
 21 23  1  0
 22 21  2  0
M  END
$$$$
