GRT.pdb
     RDKit          3D

 23 22  0  0  1  0  0  0  0  0999 V2000
    4.2890  -20.2465   22.6043 N   0  0  0  0  0  0  0  0  0  0  0  0
    4.4289  -19.0424   23.3930 C   0  0  0  0  0  0  0  0  0  0  0  0
    5.6964  -18.3730   23.0212 C   0  0  0  0  0  0  0  0  0  0  0  0
    6.7602  -18.9955   23.0981 O   0  0  0  0  0  0  0  0  0  0  0  0
    8.8579  -14.3002   17.6957 N   0  0  0  0  0  0  0  0  0  0  0  0
    9.5424  -13.5264   18.6442 C   0  0  0  0  0  0  0  0  0  0  0  0
   10.8473  -13.6287   18.7229 N   0  0  0  0  0  0  0  0  0  0  0  0
    8.8491  -12.6401   19.5147 N   0  0  0  0  0  0  0  0  0  0  0  0
    7.6833  -13.1406   20.1864 C   0  0  0  0  0  0  0  0  0  0  0  0
    7.9302  -14.4188   20.9327 C   0  0  0  0  0  0  0  0  0  0  0  0
    6.6894  -15.0046   21.5365 C   0  0  0  0  0  0  0  0  0  0  0  0
    6.9475  -16.3167   22.2407 C   0  0  2  0  0  0  0  0  0  0  0  0
    5.7157  -17.0031   22.5691 N   0  0  0  0  0  0  0  0  0  0  0  0
    7.6775  -15.9875   23.5001 C   0  0  0  0  0  0  0  0  0  0  0  0
    7.1722  -15.1019   24.2300 O   0  0  0  0  0  0  0  0  0  0  0  0
   11.3881  -13.0406   19.3904 C   0  0  0  0  0  0  0  0  0  0  0  0
    8.1380  -17.0128   26.7373 C   0  0  2  0  0  0  0  0  0  0  0  0
    9.5433  -17.2170   26.1840 O   0  0  0  0  0  0  0  0  0  0  0  0
    9.6946  -18.5373   25.7202 C   0  0  2  0  0  0  0  0  0  0  0  0
    9.6994  -16.3215   25.0052 N   0  0  0  0  0  0  0  0  0  0  0  0
    8.8850  -16.6309   23.8745 C   0  0  0  0  0  0  0  0  0  0  0  0
   11.1149  -16.1083   24.5898 O   0  0  0  0  0  0  0  0  0  0  0  0
   11.4409  -16.3293   23.4098 O   0  0  0  0  0  0  0  0  0  0  0  0
  1  2  1  0
  3  4  2  0
  3  2  1  0
  5  6  1  0
  6  8  1  0
  7  6  2  0
  8  9  1  0
  9 10  1  0
 10 11  1  0
 12 11  1  1
 12 13  1  0
 13  3  1  0
 14 12  1  0
 15 14  2  0
 17 16  1  1
 17 19  1  0
 18 17  1  0
 19 21  1  0
 19 20  1  1
 20 14  1  0
 21 23  1  0
 22 21  2  0
M  END
$$$$
