GRT.pdb
     RDKit          3D

 23 22  0  0  1  0  0  0  0  0999 V2000
    7.6403  -13.4248   19.2234 N   0  0  0  0  0  0  0  0  0  0  0  0
    8.3090  -14.4285   20.0214 C   0  0  0  0  0  0  0  0  0  0  0  0
    7.5863  -14.5766   21.3054 C   0  0  0  0  0  0  0  0  0  0  0  0
    6.6510  -13.8149   21.5702 O   0  0  0  0  0  0  0  0  0  0  0  0
    7.0078  -22.2507   24.5449 N   0  0  0  0  0  0  0  0  0  0  0  0
    6.4377  -21.8958   23.3137 C   0  0  0  0  0  0  0  0  0  0  0  0
    5.9508  -22.8401   22.5450 N   0  0  0  0  0  0  0  0  0  0  0  0
    6.3798  -20.5392   22.8893 N   0  0  0  0  0  0  0  0  0  0  0  0
    6.9418  -19.5438   23.7578 C   0  0  0  0  0  0  0  0  0  0  0  0
    6.7953  -18.1458   23.2328 C   0  0  0  0  0  0  0  0  0  0  0  0
    7.4278  -17.1102   24.1130 C   0  0  0  0  0  0  0  0  0  0  0  0
    7.3070  -15.7133   23.5489 C   0  0  2  0  0  0  0  0  0  0  0  0
    7.9528  -15.5960   22.2582 N   0  0  0  0  0  0  0  0  0  0  0  0
    7.9805  -14.8022   24.5202 C   0  0  0  0  0  0  0  0  0  0  0  0
    9.2339  -14.7744   24.4915 O   0  0  0  0  0  0  0  0  0  0  0  0
    5.6024  -22.6213   21.5887 C   0  0  0  0  0  0  0  0  0  0  0  0
    6.8658  -11.0013   25.6193 C   0  0  2  0  0  0  0  0  0  0  0  0
    6.9461  -11.9590   26.8021 O   0  0  0  0  0  0  0  0  0  0  0  0
    5.6732  -12.4897   27.0835 C   0  0  2  0  0  0  0  0  0  0  0  0
    7.8141  -13.1001   26.4016 N   0  0  0  0  0  0  0  0  0  0  0  0
    7.2602  -13.9978   25.4400 C   0  0  0  0  0  0  0  0  0  0  0  0
    8.3928  -13.8532   27.5503 O   0  0  0  0  0  0  0  0  0  0  0  0
    8.2393  -15.0865   27.6065 O   0  0  0  0  0  0  0  0  0  0  0  0
  1  2  1  0
  3  4  2  0
  3  2  1  0
  5  6  1  0
  6  8  1  0
  7  6  2  0
  8  9  1  0
  9 10  1  0
 10 11  1  0
 12 11  1  1
 12 13  1  0
 13  3  1  0
 14 12  1  0
 15 14  2  0
 17 16  1  1
 17 19  1  0
 18 17  1  0
 19 21  1  0
 19 20  1  1
 20 14  1  0
 21 23  1  0
 22 21  2  0
M  END
$$$$
