GRT.pdb
     RDKit          3D

 23 22  0  0  1  0  0  0  0  0999 V2000
    7.9068  -12.7370   18.3476 N   0  0  0  0  0  0  0  0  0  0  0  0
    8.8643  -13.1476   19.3506 C   0  0  0  0  0  0  0  0  0  0  0  0
    8.1336  -13.7458   20.4912 C   0  0  0  0  0  0  0  0  0  0  0  0
    6.9022  -13.6645   20.5369 O   0  0  0  0  0  0  0  0  0  0  0  0
    9.5766  -18.8491   18.6901 N   0  0  0  0  0  0  0  0  0  0  0  0
    8.5523  -19.4444   19.4406 C   0  0  0  0  0  0  0  0  0  0  0  0
    7.6165  -20.1165   18.8145 N   0  0  0  0  0  0  0  0  0  0  0  0
    8.5130  -19.3315   20.8582 N   0  0  0  0  0  0  0  0  0  0  0  0
    9.5126  -18.5182   21.4907 C   0  0  0  0  0  0  0  0  0  0  0  0
    9.1931  -17.0525   21.4601 C   0  0  0  0  0  0  0  0  0  0  0  0
    8.5042  -16.5674   22.7001 C   0  0  0  0  0  0  0  0  0  0  0  0
    8.1335  -15.1041   22.6262 C   0  0  2  0  0  0  0  0  0  0  0  0
    8.8323  -14.4249   21.5553 N   0  0  0  0  0  0  0  0  0  0  0  0
    8.5279  -14.4987   23.9321 C   0  0  0  0  0  0  0  0  0  0  0  0
    9.7346  -14.1857   24.0672 O   0  0  0  0  0  0  0  0  0  0  0  0
    6.8355  -20.5590   19.3418 C   0  0  0  0  0  0  0  0  0  0  0  0
    6.5051  -11.6110   25.7280 C   0  0  2  0  0  0  0  0  0  0  0  0
    6.7271  -12.7487   26.7175 O   0  0  0  0  0  0  0  0  0  0  0  0
    5.5902  -13.5768   26.7672 C   0  0  2  0  0  0  0  0  0  0  0  0
    7.8493  -13.5813   26.2043 N   0  0  0  0  0  0  0  0  0  0  0  0
    7.6016  -14.2783   24.9835 C   0  0  0  0  0  0  0  0  0  0  0  0
    8.4379  -14.4979   27.2217 O   0  0  0  0  0  0  0  0  0  0  0  0
    8.5481  -15.7084   26.9565 O   0  0  0  0  0  0  0  0  0  0  0  0
  1  2  1  0
  3  4  2  0
  3  2  1  0
  5  6  1  0
  6  8  1  0
  7  6  2  0
  8  9  1  0
  9 10  1  0
 10 11  1  0
 12 11  1  1
 12 13  1  0
 13  3  1  0
 14 12  1  0
 15 14  2  0
 17 16  1  1
 17 19  1  0
 18 17  1  0
 19 21  1  0
 19 20  1  1
 20 14  1  0
 21 23  1  0
 22 21  2  0
M  END
$$$$
