GRT.pdb
     RDKit          3D

 23 22  0  0  1  0  0  0  0  0999 V2000
    5.1801  -20.2890   21.5606 N   0  0  0  0  0  0  0  0  0  0  0  0
    4.8434  -19.0887   22.2936 C   0  0  0  0  0  0  0  0  0  0  0  0
    6.0855  -18.3271   22.5583 C   0  0  0  0  0  0  0  0  0  0  0  0
    7.1506  -18.9324   22.7141 O   0  0  0  0  0  0  0  0  0  0  0  0
    8.0231  -15.1408   18.8128 N   0  0  0  0  0  0  0  0  0  0  0  0
    8.1484  -13.7760   18.5151 C   0  0  0  0  0  0  0  0  0  0  0  0
    8.5765  -13.4232   17.3269 N   0  0  0  0  0  0  0  0  0  0  0  0
    7.8212  -12.7771   19.4738 N   0  0  0  0  0  0  0  0  0  0  0  0
    7.1028  -13.1879   20.6468 C   0  0  0  0  0  0  0  0  0  0  0  0
    7.8533  -14.1794   21.4866 C   0  0  0  0  0  0  0  0  0  0  0  0
    7.0822  -14.6508   22.6826 C   0  0  0  0  0  0  0  0  0  0  0  0
    7.2698  -16.1259   22.9526 C   0  0  2  0  0  0  0  0  0  0  0  0
    6.0784  -16.8866   22.6387 N   0  0  0  0  0  0  0  0  0  0  0  0
    7.5674  -16.2576   24.4090 C   0  0  0  0  0  0  0  0  0  0  0  0
    6.7109  -15.8015   25.2033 O   0  0  0  0  0  0  0  0  0  0  0  0
    8.7160  -12.4197   17.0876 C   0  0  0  0  0  0  0  0  0  0  0  0
    7.0667  -18.4133   26.6144 C   0  0  2  0  0  0  0  0  0  0  0  0
    8.5732  -18.3774   26.8421 O   0  0  0  0  0  0  0  0  0  0  0  0
    9.1943  -19.4296   26.1435 C   0  0  2  0  0  0  0  0  0  0  0  0
    9.0878  -17.1068   26.2617 N   0  0  0  0  0  0  0  0  0  0  0  0
    8.7537  -16.8647   24.8953 C   0  0  0  0  0  0  0  0  0  0  0  0
   10.5424  -16.8801   26.4943 O   0  0  0  0  0  0  0  0  0  0  0  0
   11.2795  -16.6250   25.5251 O   0  0  0  0  0  0  0  0  0  0  0  0
  1  2  1  0
  3  4  2  0
  3  2  1  0
  5  6  1  0
  6  8  1  0
  7  6  2  0
  8  9  1  0
  9 10  1  0
 10 11  1  0
 12 11  1  1
 12 13  1  0
 13  3  1  0
 14 12  1  0
 15 14  2  0
 17 16  1  1
 17 19  1  0
 18 17  1  0
 19 21  1  0
 19 20  1  1
 20 14  1  0
 21 23  1  0
 22 21  2  0
M  END
$$$$
