GRT.pdb
     RDKit          3D

 23 22  0  0  1  0  0  0  0  0999 V2000
    8.0159  -10.8153   20.7249 N   0  0  0  0  0  0  0  0  0  0  0  0
    8.9665  -11.5398   19.9108 C   0  0  0  0  0  0  0  0  0  0  0  0
    8.8640  -12.9827   20.2275 C   0  0  0  0  0  0  0  0  0  0  0  0
    8.1545  -13.3516   21.1686 O   0  0  0  0  0  0  0  0  0  0  0  0
    9.7812  -18.4982   13.9974 N   0  0  0  0  0  0  0  0  0  0  0  0
    9.6551  -17.1015   13.9892 C   0  0  0  0  0  0  0  0  0  0  0  0
    9.7556  -16.4627   12.8484 N   0  0  0  0  0  0  0  0  0  0  0  0
    9.4219  -16.3730   15.1888 N   0  0  0  0  0  0  0  0  0  0  0  0
    9.2284  -17.1227   16.3977 C   0  0  0  0  0  0  0  0  0  0  0  0
    8.8798  -16.2658   17.5791 C   0  0  0  0  0  0  0  0  0  0  0  0
    9.9396  -16.2539   18.6393 C   0  0  0  0  0  0  0  0  0  0  0  0
    9.5785  -15.3748   19.8144 C   0  0  2  0  0  0  0  0  0  0  0  0
    9.5783  -13.9715   19.4572 N   0  0  0  0  0  0  0  0  0  0  0  0
   10.6153  -15.6155   20.8605 C   0  0  0  0  0  0  0  0  0  0  0  0
   11.7721  -15.1987   20.6146 O   0  0  0  0  0  0  0  0  0  0  0  0
    9.6445  -15.4285   12.8057 C   0  0  0  0  0  0  0  0  0  0  0  0
    9.8325  -18.0495   24.3937 C   0  0  2  0  0  0  0  0  0  0  0  0
   10.5924  -16.7324   24.4968 O   0  0  0  0  0  0  0  0  0  0  0  0
   11.6338  -16.8458   25.4369 C   0  0  1  0  0  0  0  0  0  0  0  0
   11.2262  -16.4717   23.1754 N   0  0  0  0  0  0  0  0  0  0  0  0
   10.3305  -16.2807   22.0806 C   0  0  0  0  0  0  0  0  0  0  0  0
   12.2961  -17.4447   22.8142 O   0  0  0  0  0  0  0  0  0  0  0  0
   12.0946  -18.2531   21.8904 O   0  0  0  0  0  0  0  0  0  0  0  0
  1  2  1  0
  3  4  2  0
  3  2  1  0
  5  6  1  0
  6  8  1  0
  7  6  2  0
  8  9  1  0
  9 10  1  0
 10 11  1  0
 12 11  1  6
 12 13  1  0
 13  3  1  0
 14 12  1  0
 15 14  2  0
 17 16  1  1
 17 19  1  0
 18 17  1  0
 19 21  1  0
 19 20  1  1
 20 14  1  0
 21 23  1  0
 22 21  2  0
M  END
$$$$
