NEV.pdb
     RDKit          3D

 25 24  0  0  1  0  0  0  0  0999 V2000
   25.9609  -19.8287  -19.7131 N   0  0  0  0  0  0  0  0  0  0  0  0
   26.9085  -20.3904  -18.8059 C   0  0  0  0  0  0  0  0  0  0  0  0
   27.2876  -21.5890  -18.9713 O   0  0  0  0  0  0  0  0  0  0  0  0
   27.4893  -19.6590  -17.6661 C   0  0  0  0  0  0  0  0  0  0  0  0
   27.3296  -20.5098  -16.4069 C   0  0  2  0  0  0  0  0  0  0  0  0
   27.0180  -21.8764  -16.7695 N   0  0  0  0  0  0  0  0  0  0  0  0
   26.2891  -19.9722  -15.5208 C   0  0  0  0  0  0  0  0  0  0  0  0
   26.4030  -18.7688  -15.1027 O   0  0  0  0  0  0  0  0  0  0  0  0
   25.1592  -20.6677  -15.0807 N   0  0  0  0  0  0  0  0  0  0  0  0
   24.1721  -20.1076  -14.1331 C   0  0  1  0  0  0  0  0  0  0  0  0
   22.7985  -20.2582  -14.7337 C   0  0  0  0  0  0  0  0  0  0  0  0
   21.6557  -19.8603  -13.8587 C   0  0  0  0  0  0  0  0  0  0  0  0
   20.3988  -20.2229  -14.6294 C   0  0  0  0  0  0  0  0  0  0  0  0
   19.2539  -20.0785  -14.1571 O   0  0  0  0  0  0  0  0  0  0  0  0
   24.2901  -20.8185  -12.8527 C   0  0  0  0  0  0  0  0  0  0  0  0
   24.3172  -22.1006  -12.8964 O   0  0  0  0  0  0  0  0  0  0  0  0
   20.5127  -20.7317  -15.9010 O   0  0  0  0  0  0  0  0  0  0  0  0
   25.4569  -19.3830   -9.0082 C   0  0  0  0  0  0  0  0  0  0  0  0
   25.5591  -20.8004   -9.4937 C   0  0  2  0  0  0  0  0  0  0  0  0
   26.8640  -21.0562  -10.2027 C   0  0  0  0  0  0  0  0  0  0  0  0
   24.3545  -21.0778  -10.3870 C   0  0  2  0  0  0  0  0  0  0  0  0
   24.3816  -20.2257  -11.5725 N   0  0  0  0  0  0  0  0  0  0  0  0
   23.0885  -20.9066   -9.6617 C   0  0  0  0  0  0  0  0  0  0  0  0
   22.2937  -19.9619   -9.9160 O   0  0  0  0  0  0  0  0  0  0  0  0
   22.6858  -21.7750   -8.6483 O   0  0  0  0  0  0  0  0  0  0  0  0
  1  2  1  0
  2  3  2  0
  4  5  1  0
  4  2  1  0
  5  6  1  6
  7  5  1  0
  8  7  2  0
  9  7  1  0
 10  9  1  0
 10 11  1  6
 11 12  1  0
 12 13  1  0
 13 17  1  0
 14 13  2  0
 15 22  1  0
 15 10  1  0
 16 15  2  0
 19 18  1  6
 19 21  1  0
 20 19  1  0
 21 23  1  0
 21 22  1  6
 23 25  1  0
 24 23  2  0
M  END
$$$$
