NEV.pdb
     RDKit          3D

 25 24  0  0  1  0  0  0  0  0999 V2000
   14.3363  -12.2444  -14.0489 N   0  0  0  0  0  0  0  0  0  0  0  0
   15.7381  -12.3745  -13.8154 C   0  0  0  0  0  0  0  0  0  0  0  0
   16.1555  -13.3016  -13.0579 O   0  0  0  0  0  0  0  0  0  0  0  0
   16.7560  -11.4874  -14.4058 C   0  0  0  0  0  0  0  0  0  0  0  0
   16.0471  -10.3863  -15.1933 C   0  0  2  0  0  0  0  0  0  0  0  0
   15.4944  -10.9300  -16.4160 N   0  0  0  0  0  0  0  0  0  0  0  0
   16.9543   -9.2728  -15.5001 C   0  0  0  0  0  0  0  0  0  0  0  0
   17.7740   -9.4017  -16.4735 O   0  0  0  0  0  0  0  0  0  0  0  0
   17.0080   -8.0568  -14.8128 N   0  0  0  0  0  0  0  0  0  0  0  0
   17.8937   -6.9377  -15.1992 C   0  0  1  0  0  0  0  0  0  0  0  0
   17.1385   -5.6476  -15.0115 C   0  0  0  0  0  0  0  0  0  0  0  0
   16.0732   -5.3618  -16.0182 C   0  0  0  0  0  0  0  0  0  0  0  0
   15.4154   -4.0693  -15.5688 C   0  0  0  0  0  0  0  0  0  0  0  0
   14.3487   -4.0454  -14.9235 O   0  0  0  0  0  0  0  0  0  0  0  0
   19.1063   -6.9871  -14.3710 C   0  0  0  0  0  0  0  0  0  0  0  0
   18.9444   -7.0042  -13.0982 O   0  0  0  0  0  0  0  0  0  0  0  0
   16.0090   -2.8692  -15.8786 O   0  0  0  0  0  0  0  0  0  0  0  0
   23.1895   -7.3131  -15.6650 C   0  0  0  0  0  0  0  0  0  0  0  0
   22.6762   -7.9385  -14.3999 C   0  0  2  0  0  0  0  0  0  0  0  0
   22.2512   -9.3683  -14.6149 C   0  0  0  0  0  0  0  0  0  0  0  0
   21.5354   -7.0713  -13.8778 C   0  0  2  0  0  0  0  0  0  0  0  0
   20.4391   -7.0224  -14.8410 N   0  0  0  0  0  0  0  0  0  0  0  0
   21.9905   -5.7135  -13.5500 C   0  0  0  0  0  0  0  0  0  0  0  0
   21.7665   -4.7311  -14.3074 O   0  0  0  0  0  0  0  0  0  0  0  0
   22.6975   -5.4247  -12.3838 O   0  0  0  0  0  0  0  0  0  0  0  0
  1  2  1  0
  2  3  2  0
  4  5  1  0
  4  2  1  0
  5  6  1  6
  7  5  1  0
  8  7  2  0
  9  7  1  0
 10  9  1  0
 10 11  1  1
 11 12  1  0
 12 13  1  0
 13 17  1  0
 14 13  2  0
 15 22  1  0
 15 10  1  0
 16 15  2  0
 19 18  1  6
 19 21  1  0
 20 19  1  0
 21 23  1  0
 21 22  1  6
 23 25  1  0
 24 23  2  0
M  END
$$$$
