NEV.pdb
     RDKit          3D

 25 24  0  0  1  0  0  0  0  0999 V2000
   17.8291  -13.0186  -15.2651 N   0  0  0  0  0  0  0  0  0  0  0  0
   16.8159  -12.0156  -15.3261 C   0  0  0  0  0  0  0  0  0  0  0  0
   15.8702  -12.0397  -14.4818 O   0  0  0  0  0  0  0  0  0  0  0  0
   16.7915  -10.9308  -16.3232 C   0  0  0  0  0  0  0  0  0  0  0  0
   17.9045  -11.1771  -17.3407 C   0  0  2  0  0  0  0  0  0  0  0  0
   18.2565  -12.5814  -17.3588 N   0  0  0  0  0  0  0  0  0  0  0  0
   19.0914  -10.3623  -17.0501 C   0  0  0  0  0  0  0  0  0  0  0  0
   19.9156  -10.7760  -16.1638 O   0  0  0  0  0  0  0  0  0  0  0  0
   19.4130   -9.1488  -17.6649 N   0  0  0  0  0  0  0  0  0  0  0  0
   20.6533   -8.3941  -17.3851 C   0  0  1  0  0  0  0  0  0  0  0  0
   21.1158   -7.7489  -18.6656 C   0  0  0  0  0  0  0  0  0  0  0  0
   22.3095   -6.8585  -18.5545 C   0  0  0  0  0  0  0  0  0  0  0  0
   22.5564   -6.3211  -19.9528 C   0  0  0  0  0  0  0  0  0  0  0  0
   21.9295   -5.3508  -20.4220 O   0  0  0  0  0  0  0  0  0  0  0  0
   20.3753   -7.3989  -16.3406 C   0  0  0  0  0  0  0  0  0  0  0  0
   19.2360   -6.8100  -16.3827 O   0  0  0  0  0  0  0  0  0  0  0  0
   23.5072   -6.9188  -20.7450 O   0  0  0  0  0  0  0  0  0  0  0  0
   22.3163   -6.8821  -12.5863 C   0  0  0  0  0  0  0  0  0  0  0  0
   20.8728   -6.6052  -12.8945 C   0  0  2  0  0  0  0  0  0  0  0  0
   20.0189   -7.8355  -12.7263 C   0  0  0  0  0  0  0  0  0  0  0  0
   20.7956   -6.0400  -14.3089 C   0  0  2  0  0  0  0  0  0  0  0  0
   21.2418   -7.0282  -15.2868 N   0  0  0  0  0  0  0  0  0  0  0  0
   21.5723   -4.8002  -14.4423 C   0  0  0  0  0  0  0  0  0  0  0  0
   22.6799   -4.7654  -15.0431 O   0  0  0  0  0  0  0  0  0  0  0  0
   21.1361   -3.5860  -13.9145 O   0  0  0  0  0  0  0  0  0  0  0  0
  1  2  1  0
  2  3  2  0
  4  5  1  0
  4  2  1  0
  5  6  1  1
  7  5  1  0
  8  7  2  0
  9  7  1  0
 10  9  1  0
 10 11  1  6
 11 12  1  0
 12 13  1  0
 13 17  1  0
 14 13  2  0
 15 22  1  0
 15 10  1  0
 16 15  2  0
 19 18  1  6
 19 21  1  0
 20 19  1  0
 21 23  1  0
 21 22  1  6
 23 25  1  0
 24 23  2  0
M  END
$$$$
