NEV.pdb
     RDKit          3D

 25 24  0  0  1  0  0  0  0  0999 V2000
   28.8591  -21.0083  -16.3251 N   0  0  0  0  0  0  0  0  0  0  0  0
   28.4530  -19.6628  -16.0780 C   0  0  0  0  0  0  0  0  0  0  0  0
   28.6483  -18.7840  -16.9709 O   0  0  0  0  0  0  0  0  0  0  0  0
   27.8091  -19.2140  -14.8309 C   0  0  0  0  0  0  0  0  0  0  0  0
   27.7738  -20.3851  -13.8500 C   0  0  2  0  0  0  0  0  0  0  0  0
   27.1159  -21.5215  -14.4598 N   0  0  0  0  0  0  0  0  0  0  0  0
   27.0969  -20.0208  -12.5986 C   0  0  0  0  0  0  0  0  0  0  0  0
   27.4498  -18.9456  -12.0025 O   0  0  0  0  0  0  0  0  0  0  0  0
   26.0794  -20.7554  -11.9829 N   0  0  0  0  0  0  0  0  0  0  0  0
   25.3055  -20.2659  -10.8220 C   0  0  1  0  0  0  0  0  0  0  0  0
   23.8664  -20.6729  -11.0047 C   0  0  0  0  0  0  0  0  0  0  0  0
   23.1622  -20.0746  -12.1778 C   0  0  0  0  0  0  0  0  0  0  0  0
   21.7372  -20.5948  -12.1143 C   0  0  0  0  0  0  0  0  0  0  0  0
   20.8668  -20.0868  -11.3801 O   0  0  0  0  0  0  0  0  0  0  0  0
   25.8830  -20.8336   -9.5960 C   0  0  0  0  0  0  0  0  0  0  0  0
   26.2369  -22.0664   -9.6330 O   0  0  0  0  0  0  0  0  0  0  0  0
   21.3779  -21.6689  -12.8927 O   0  0  0  0  0  0  0  0  0  0  0  0
   27.2011  -18.8417   -6.0313 C   0  0  0  0  0  0  0  0  0  0  0  0
   27.7342  -20.1470   -6.5482 C   0  0  2  0  0  0  0  0  0  0  0  0
   28.9002  -19.9450   -7.4813 C   0  0  0  0  0  0  0  0  0  0  0  0
   26.5834  -20.8911   -7.2175 C   0  0  2  0  0  0  0  0  0  0  0  0
   26.0918  -20.1505   -8.3760 N   0  0  0  0  0  0  0  0  0  0  0  0
   25.4872  -21.1570   -6.2764 C   0  0  0  0  0  0  0  0  0  0  0  0
   24.3334  -20.6764   -6.4394 O   0  0  0  0  0  0  0  0  0  0  0  0
   25.6517  -21.9555   -5.1456 O   0  0  0  0  0  0  0  0  0  0  0  0
  1  2  1  0
  2  3  2  0
  4  5  1  0
  4  2  1  0
  5  6  1  6
  7  5  1  0
  8  7  2  0
  9  7  1  0
 10  9  1  0
 10 11  1  6
 11 12  1  0
 12 13  1  0
 13 17  1  0
 14 13  2  0
 15 22  1  0
 15 10  1  0
 16 15  2  0
 19 18  1  6
 19 21  1  0
 20 19  1  0
 21 23  1  0
 21 22  1  6
 23 25  1  0
 24 23  2  0
M  END
$$$$
