NEV.pdb
     RDKit          3D

 25 24  0  0  1  0  0  0  0  0999 V2000
   15.0143  -12.6373  -15.2438 N   0  0  0  0  0  0  0  0  0  0  0  0
   16.2346  -13.0879  -14.6569 C   0  0  0  0  0  0  0  0  0  0  0  0
   16.4511  -14.3334  -14.5600 O   0  0  0  0  0  0  0  0  0  0  0  0
   17.2825  -12.1874  -14.1448 C   0  0  0  0  0  0  0  0  0  0  0  0
   16.7899  -10.7459  -14.2647 C   0  0  2  0  0  0  0  0  0  0  0  0
   17.2191  -10.1798  -15.5263 N   0  0  0  0  0  0  0  0  0  0  0  0
   17.2682   -9.9177  -13.1502 C   0  0  0  0  0  0  0  0  0  0  0  0
   17.0447  -10.3125  -11.9544 O   0  0  0  0  0  0  0  0  0  0  0  0
   17.9610   -8.7100  -13.2758 N   0  0  0  0  0  0  0  0  0  0  0  0
   18.4498   -7.9243  -12.1226 C   0  0  1  0  0  0  0  0  0  0  0  0
   19.5809   -7.0462  -12.5913 C   0  0  0  0  0  0  0  0  0  0  0  0
   20.1303   -6.0937  -11.5808 C   0  0  0  0  0  0  0  0  0  0  0  0
   21.2556   -5.3523  -12.2803 C   0  0  0  0  0  0  0  0  0  0  0  0
   21.0963   -4.2389  -12.8185 O   0  0  0  0  0  0  0  0  0  0  0  0
   17.3343   -7.1366  -11.5807 C   0  0  0  0  0  0  0  0  0  0  0  0
   16.5709   -6.5458  -12.4262 O   0  0  0  0  0  0  0  0  0  0  0  0
   22.5064   -5.9196  -12.3295 O   0  0  0  0  0  0  0  0  0  0  0  0
   13.7125   -5.9834   -8.7304 C   0  0  0  0  0  0  0  0  0  0  0  0
   14.8300   -6.9194   -9.0914 C   0  0  2  0  0  0  0  0  0  0  0  0
   15.3949   -7.6109   -7.8774 C   0  0  0  0  0  0  0  0  0  0  0  0
   15.8885   -6.1179   -9.8420 C   0  0  2  0  0  0  0  0  0  0  0  0
   17.0155   -6.9687  -10.2137 N   0  0  0  0  0  0  0  0  0  0  0  0
   16.3532   -4.9644   -9.0601 C   0  0  0  0  0  0  0  0  0  0  0  0
   15.6406   -3.9381   -8.8927 O   0  0  0  0  0  0  0  0  0  0  0  0
   17.6085   -4.9300   -8.4548 O   0  0  0  0  0  0  0  0  0  0  0  0
  1  2  1  0
  2  3  2  0
  4  5  1  0
  4  2  1  0
  5  6  1  6
  7  5  1  0
  8  7  2  0
  9  7  1  0
 10  9  1  0
 10 11  1  6
 11 12  1  0
 12 13  1  0
 13 17  1  0
 14 13  2  0
 15 22  1  0
 15 10  1  0
 16 15  2  0
 19 18  1  1
 19 21  1  0
 20 19  1  0
 21 23  1  0
 21 22  1  1
 23 25  1  0
 24 23  2  0
M  END
$$$$
