NEV.pdb
     RDKit          3D

 25 24  0  0  1  0  0  0  0  0999 V2000
   26.5965  -18.0594  -19.7632 N   0  0  0  0  0  0  0  0  0  0  0  0
   25.2158  -17.6986  -19.7760 C   0  0  0  0  0  0  0  0  0  0  0  0
   24.6717  -17.3744  -20.8744 O   0  0  0  0  0  0  0  0  0  0  0  0
   24.3605  -17.6759  -18.5764 C   0  0  0  0  0  0  0  0  0  0  0  0
   25.2313  -17.9460  -17.3500 C   0  0  2  0  0  0  0  0  0  0  0  0
   26.6069  -18.1468  -17.7546 N   0  0  0  0  0  0  0  0  0  0  0  0
   24.7519  -19.1100  -16.5936 C   0  0  0  0  0  0  0  0  0  0  0  0
   23.6071  -19.0426  -16.0272 O   0  0  0  0  0  0  0  0  0  0  0  0
   25.4449  -20.3130  -16.4301 N   0  0  0  0  0  0  0  0  0  0  0  0
   24.9088  -21.4700  -15.6817 C   0  0  1  0  0  0  0  0  0  0  0  0
   25.6543  -22.7045  -16.1178 C   0  0  0  0  0  0  0  0  0  0  0  0
   25.1947  -23.9918  -15.5163 C   0  0  0  0  0  0  0  0  0  0  0  0
   26.0874  -25.0674  -16.1092 C   0  0  0  0  0  0  0  0  0  0  0  0
   26.4976  -26.0420  -15.4484 O   0  0  0  0  0  0  0  0  0  0  0  0
   25.0658  -21.2159  -14.2431 C   0  0  0  0  0  0  0  0  0  0  0  0
   26.1451  -20.6328  -13.8669 O   0  0  0  0  0  0  0  0  0  0  0  0
   26.4663  -24.9761  -17.4271 O   0  0  0  0  0  0  0  0  0  0  0  0
   22.3286  -22.0606  -10.9427 C   0  0  0  0  0  0  0  0  0  0  0  0
   23.0554  -20.7657  -11.1668 C   0  0  2  0  0  0  0  0  0  0  0  0
   22.2204  -19.7832  -11.9470 C   0  0  0  0  0  0  0  0  0  0  0  0
   24.3736  -21.0830  -11.8652 C   0  0  2  0  0  0  0  0  0  0  0  0
   24.1384  -21.5482  -13.2292 N   0  0  0  0  0  0  0  0  0  0  0  0
   25.1623  -22.0702  -11.1159 C   0  0  0  0  0  0  0  0  0  0  0  0
   25.2878  -23.2623  -11.5059 O   0  0  0  0  0  0  0  0  0  0  0  0
   25.8206  -21.7535   -9.9287 O   0  0  0  0  0  0  0  0  0  0  0  0
  1  2  1  0
  2  3  2  0
  4  5  1  0
  4  2  1  0
  5  6  1  6
  7  5  1  0
  8  7  2  0
  9  7  1  0
 10  9  1  0
 10 11  1  6
 11 12  1  0
 12 13  1  0
 13 17  1  0
 14 13  2  0
 15 22  1  0
 15 10  1  0
 16 15  2  0
 19 18  1  6
 19 21  1  0
 20 19  1  0
 21 23  1  0
 21 22  1  6
 23 25  1  0
 24 23  2  0
M  END
$$$$
