NEV.pdb
     RDKit          3D

 25 24  0  0  1  0  0  0  0  0999 V2000
   20.0365  -20.5186  -12.0069 N   0  0  0  0  0  0  0  0  0  0  0  0
   19.9873  -21.3954  -13.1318 C   0  0  0  0  0  0  0  0  0  0  0  0
   19.0828  -22.2823  -13.1853 O   0  0  0  0  0  0  0  0  0  0  0  0
   20.9345  -21.3407  -14.2593 C   0  0  0  0  0  0  0  0  0  0  0  0
   22.0077  -20.2990  -13.9460 C   0  0  2  0  0  0  0  0  0  0  0  0
   21.3883  -19.0716  -13.4923 N   0  0  0  0  0  0  0  0  0  0  0  0
   22.8595  -20.0340  -15.1126 C   0  0  0  0  0  0  0  0  0  0  0  0
   23.3278  -21.0283  -15.7670 O   0  0  0  0  0  0  0  0  0  0  0  0
   23.2152  -18.7681  -15.5869 N   0  0  0  0  0  0  0  0  0  0  0  0
   24.0549  -18.5499  -16.7842 C   0  0  1  0  0  0  0  0  0  0  0  0
   23.8455  -17.1357  -17.2599 C   0  0  0  0  0  0  0  0  0  0  0  0
   22.7997  -16.9476  -18.3092 C   0  0  0  0  0  0  0  0  0  0  0  0
   22.7933  -15.4625  -18.6252 C   0  0  0  0  0  0  0  0  0  0  0  0
   23.6102  -14.6640  -18.1255 O   0  0  0  0  0  0  0  0  0  0  0  0
   25.4577  -18.8058  -16.4304 C   0  0  0  0  0  0  0  0  0  0  0  0
   25.8638  -18.3665  -15.2953 O   0  0  0  0  0  0  0  0  0  0  0  0
   21.8544  -14.9642  -19.4964 O   0  0  0  0  0  0  0  0  0  0  0  0
   26.7657  -19.9664  -14.3250 C   0  0  0  0  0  0  0  0  0  0  0  0
   27.3681  -20.8312  -15.3948 C   0  0  2  0  0  0  0  0  0  0  0  0
   28.6037  -21.5438  -14.9083 C   0  0  0  0  0  0  0  0  0  0  0  0
   27.6517  -19.9490  -16.6061 C   0  0  2  0  0  0  0  0  0  0  0  0
   26.4067  -19.4954  -17.2195 N   0  0  0  0  0  0  0  0  0  0  0  0
   28.4897  -20.6380  -17.5965 C   0  0  0  0  0  0  0  0  0  0  0  0
   29.6779  -20.9778  -17.3480 O   0  0  0  0  0  0  0  0  0  0  0  0
   28.0266  -20.9594  -18.8715 O   0  0  0  0  0  0  0  0  0  0  0  0
  1  2  1  0
  2  3  2  0
  4  5  1  0
  4  2  1  0
  5  6  1  6
  7  5  1  0
  8  7  2  0
  9  7  1  0
 10  9  1  0
 10 11  1  1
 11 12  1  0
 12 13  1  0
 13 17  1  0
 14 13  2  0
 15 22  1  0
 15 10  1  0
 16 15  2  0
 19 18  1  1
 19 21  1  0
 20 19  1  0
 21 23  1  0
 21 22  1  6
 23 25  1  0
 24 23  2  0
M  END
$$$$
