DPS.pdb
     RDKit          3D

 22 22  0  0  1  0  0  0  0  0999 V2000
   25.1022  -14.6370  -18.2938 N   0  0  0  0  0  0  0  0  0  0  0  0
   25.7161  -13.3100  -18.4554 C   0  0  1  0  0  0  0  0  0  0  0  0
   25.6260  -13.0796  -19.9713 C   0  0  0  0  0  0  0  0  0  0  0  0
   26.5544  -14.0520  -20.6025 C   0  0  0  0  0  0  0  0  0  0  0  0
   26.1945  -15.1968  -20.9887 O   0  0  0  0  0  0  0  0  0  0  0  0
   24.9555  -12.2708  -17.7054 C   0  0  0  0  0  0  0  0  0  0  0  0
   23.7583  -12.1468  -18.0285 O   0  0  0  0  0  0  0  0  0  0  0  0
   27.8825  -13.7021  -20.7837 O   0  0  0  0  0  0  0  0  0  0  0  0
   25.5198  -11.4749  -16.7028 N   0  0  0  0  0  0  0  0  0  0  0  0
   26.5926  -11.9646  -15.7781 C   0  0  0  0  0  0  0  0  0  0  0  0
   27.6033  -10.8689  -16.0015 C   0  0  0  0  0  0  0  0  0  0  0  0
   26.7903   -9.6293  -16.3976 C   0  0  0  0  0  0  0  0  0  0  0  0
   25.3558  -10.1573  -16.2108 C   0  0  1  0  0  0  0  0  0  0  0  0
   24.3719   -9.2684  -16.7661 C   0  0  0  0  0  0  0  0  0  0  0  0
   24.3345   -8.8741  -17.9290 O   0  0  0  0  0  0  0  0  0  0  0  0
   20.3413   -6.6918  -15.6960 O   0  0  0  0  0  0  0  0  0  0  0  0
   21.2539   -7.6804  -15.2932 C   0  0  0  0  0  0  0  0  0  0  0  0
   22.3781   -7.7861  -16.3329 C   0  0  2  0  0  0  0  0  0  0  0  0
   23.3196   -8.7814  -15.8913 N   0  0  0  0  0  0  0  0  0  0  0  0
   22.9730   -6.4707  -16.5509 C   0  0  0  0  0  0  0  0  0  0  0  0
   23.9376   -6.0897  -15.8533 O   0  0  0  0  0  0  0  0  0  0  0  0
   22.4875   -5.6233  -17.5254 O   0  0  0  0  0  0  0  0  0  0  0  0
  2  1  1  6
  2  6  1  0
  2  3  1  0
  3  4  1  0
  4  5  2  0
  4  8  1  0
  6  7  2  0
  9  6  1  0
  9 13  1  0
 10  9  1  0
 11 10  1  0
 11 12  1  0
 12 13  1  0
 13 14  1  6
 14 15  2  0
 14 19  1  0
 16 17  1  0
 18 17  1  1
 18 20  1  0
 19 18  1  0
 20 22  1  0
 21 20  2  0
M  END
$$$$
