DPS.pdb
     RDKit          3D

 22 22  0  0  1  0  0  0  0  0999 V2000
   17.6957  -11.7874  -15.4991 N   0  0  0  0  0  0  0  0  0  0  0  0
   17.2433  -10.3954  -15.6455 C   0  0  1  0  0  0  0  0  0  0  0  0
   16.2498  -10.2402  -14.4843 C   0  0  0  0  0  0  0  0  0  0  0  0
   15.0866  -11.1064  -14.8047 C   0  0  0  0  0  0  0  0  0  0  0  0
   14.3175  -10.8934  -15.7806 O   0  0  0  0  0  0  0  0  0  0  0  0
   18.3819   -9.4432  -15.5125 C   0  0  0  0  0  0  0  0  0  0  0  0
   18.9445   -9.4341  -14.4006 O   0  0  0  0  0  0  0  0  0  0  0  0
   14.8184  -12.2049  -14.0045 O   0  0  0  0  0  0  0  0  0  0  0  0
   18.8120   -8.6055  -16.5471 N   0  0  0  0  0  0  0  0  0  0  0  0
   18.8331   -9.0277  -17.9848 C   0  0  0  0  0  0  0  0  0  0  0  0
   18.0396   -7.8871  -18.5688 C   0  0  0  0  0  0  0  0  0  0  0  0
   18.2758   -6.6951  -17.6318 C   0  0  0  0  0  0  0  0  0  0  0  0
   19.3219   -7.2904  -16.6712 C   0  0  1  0  0  0  0  0  0  0  0  0
   19.5372   -6.4595  -15.5180 C   0  0  0  0  0  0  0  0  0  0  0  0
   18.6714   -6.0826  -14.7322 O   0  0  0  0  0  0  0  0  0  0  0  0
   22.2604   -6.8528  -12.9484 O   0  0  0  0  0  0  0  0  0  0  0  0
   22.4516   -5.5558  -13.4523 C   0  0  0  0  0  0  0  0  0  0  0  0
   21.1736   -5.0963  -14.1674 C   0  0  2  0  0  0  0  0  0  0  0  0
   20.8916   -6.0150  -15.2390 N   0  0  0  0  0  0  0  0  0  0  0  0
   21.3244   -3.7117  -14.6051 C   0  0  0  0  0  0  0  0  0  0  0  0
   21.6922   -3.4541  -15.7716 O   0  0  0  0  0  0  0  0  0  0  0  0
   21.0663   -2.6625  -13.7472 O   0  0  0  0  0  0  0  0  0  0  0  0
  2  1  1  1
  2  6  1  0
  2  3  1  0
  3  4  1  0
  4  5  2  0
  4  8  1  0
  6  7  2  0
  9  6  1  0
  9 13  1  0
 10  9  1  0
 11 10  1  0
 11 12  1  0
 12 13  1  0
 13 14  1  1
 14 15  2  0
 14 19  1  0
 16 17  1  0
 18 17  1  6
 18 20  1  0
 19 18  1  0
 20 22  1  0
 21 20  2  0
M  END
$$$$
