DPS.pdb
     RDKit          3D

 22 22  0  0  1  0  0  0  0  0999 V2000
   23.2337  -13.2398  -18.4983 N   0  0  0  0  0  0  0  0  0  0  0  0
   23.7760  -11.8788  -18.6300 C   0  0  1  0  0  0  0  0  0  0  0  0
   23.0665  -11.3537  -19.8870 C   0  0  0  0  0  0  0  0  0  0  0  0
   23.5547  -12.1768  -21.0228 C   0  0  0  0  0  0  0  0  0  0  0  0
   24.6903  -12.0218  -21.5477 O   0  0  0  0  0  0  0  0  0  0  0  0
   23.4439  -11.0499  -17.4368 C   0  0  0  0  0  0  0  0  0  0  0  0
   22.2280  -10.9263  -17.1931 O   0  0  0  0  0  0  0  0  0  0  0  0
   22.7373  -13.1667  -21.5435 O   0  0  0  0  0  0  0  0  0  0  0  0
   24.4089  -10.4408  -16.6276 N   0  0  0  0  0  0  0  0  0  0  0  0
   25.6228  -11.1596  -16.1221 C   0  0  0  0  0  0  0  0  0  0  0  0
   26.6756  -10.1925  -16.5998 C   0  0  0  0  0  0  0  0  0  0  0  0
   25.9875   -8.8218  -16.6495 C   0  0  0  0  0  0  0  0  0  0  0  0
   24.6161   -9.1689  -16.0410 C   0  0  1  0  0  0  0  0  0  0  0  0
   23.6630   -8.1053  -16.2048 C   0  0  0  0  0  0  0  0  0  0  0  0
   23.2621   -7.6583  -17.2765 O   0  0  0  0  0  0  0  0  0  0  0  0
   20.1246   -5.6118  -14.1061 O   0  0  0  0  0  0  0  0  0  0  0  0
   21.0886   -6.6287  -14.0106 C   0  0  0  0  0  0  0  0  0  0  0  0
   22.1588   -6.4156  -15.0900 C   0  0  2  0  0  0  0  0  0  0  0  0
   23.1127   -7.4906  -15.0093 N   0  0  0  0  0  0  0  0  0  0  0  0
   22.7530   -5.0905  -14.9399 C   0  0  0  0  0  0  0  0  0  0  0  0
   23.7064   -4.9109  -14.1518 O   0  0  0  0  0  0  0  0  0  0  0  0
   22.2793   -4.0129  -15.6595 O   0  0  0  0  0  0  0  0  0  0  0  0
  2  1  1  1
  2  6  1  0
  2  3  1  0
  3  4  1  0
  4  5  2  0
  4  8  1  0
  6  7  2  0
  9  6  1  0
  9 13  1  0
 10  9  1  0
 11 10  1  0
 11 12  1  0
 12 13  1  0
 13 14  1  6
 14 15  2  0
 14 19  1  0
 16 17  1  0
 18 17  1  1
 18 20  1  0
 19 18  1  0
 20 22  1  0
 21 20  2  0
M  END
$$$$
