DPS.pdb
     RDKit          3D

 22 22  0  0  1  0  0  0  0  0999 V2000
   21.5541  -12.5467  -18.9158 N   0  0  0  0  0  0  0  0  0  0  0  0
   22.4769  -11.4128  -19.0789 C   0  0  1  0  0  0  0  0  0  0  0  0
   22.0688  -10.8401  -20.4444 C   0  0  0  0  0  0  0  0  0  0  0  0
   22.5117  -11.8241  -21.4649 C   0  0  0  0  0  0  0  0  0  0  0  0
   21.8923  -12.8961  -21.7023 O   0  0  0  0  0  0  0  0  0  0  0  0
   22.2906  -10.4077  -17.9945 C   0  0  0  0  0  0  0  0  0  0  0  0
   21.3599   -9.5978  -18.1701 O   0  0  0  0  0  0  0  0  0  0  0  0
   23.6574  -11.5690  -22.2006 O   0  0  0  0  0  0  0  0  0  0  0  0
   23.0895  -10.3532  -16.8474 N   0  0  0  0  0  0  0  0  0  0  0  0
   23.5725  -11.5767  -16.1294 C   0  0  0  0  0  0  0  0  0  0  0  0
   25.0463  -11.2617  -16.1086 C   0  0  0  0  0  0  0  0  0  0  0  0
   25.1435   -9.7305  -16.1352 C   0  0  0  0  0  0  0  0  0  0  0  0
   23.6557   -9.3484  -16.0260 C   0  0  1  0  0  0  0  0  0  0  0  0
   23.4314   -7.9529  -16.2887 C   0  0  0  0  0  0  0  0  0  0  0  0
   23.9624   -7.2952  -17.1800 O   0  0  0  0  0  0  0  0  0  0  0  0
   20.2110   -6.3036  -16.8487 O   0  0  0  0  0  0  0  0  0  0  0  0
   20.7039   -5.6434  -15.7113 C   0  0  0  0  0  0  0  0  0  0  0  0
   22.2242   -5.8386  -15.6310 C   0  0  2  0  0  0  0  0  0  0  0  0
   22.4975   -7.2384  -15.4359 N   0  0  0  0  0  0  0  0  0  0  0  0
   22.7767   -4.9812  -14.5864 C   0  0  0  0  0  0  0  0  0  0  0  0
   23.0498   -5.4518  -13.4611 O   0  0  0  0  0  0  0  0  0  0  0  0
   23.0087   -3.6406  -14.8155 O   0  0  0  0  0  0  0  0  0  0  0  0
  2  1  1  1
  2  6  1  0
  2  3  1  0
  3  4  1  0
  4  5  2  0
  4  8  1  0
  6  7  2  0
  9  6  1  0
  9 13  1  0
 10  9  1  0
 11 10  1  0
 11 12  1  0
 12 13  1  0
 13 14  1  6
 14 15  2  0
 14 19  1  0
 16 17  1  0
 18 17  1  1
 18 20  1  0
 19 18  1  0
 20 22  1  0
 21 20  2  0
M  END
$$$$
