DPS.pdb
     RDKit          3D

 22 22  0  0  1  0  0  0  0  0999 V2000
   13.5063   -9.8691  -13.4143 N   0  0  0  0  0  0  0  0  0  0  0  0
   14.5155   -9.6204  -12.3735 C   0  0  1  0  0  0  0  0  0  0  0  0
   15.7588  -10.3268  -12.9342 C   0  0  0  0  0  0  0  0  0  0  0  0
   15.4551  -11.7806  -12.9338 C   0  0  0  0  0  0  0  0  0  0  0  0
   14.9005  -12.3681  -11.9660 O   0  0  0  0  0  0  0  0  0  0  0  0
   14.7577   -8.1605  -12.1972 C   0  0  0  0  0  0  0  0  0  0  0  0
   15.0560   -7.5387  -13.2351 O   0  0  0  0  0  0  0  0  0  0  0  0
   15.7899  -12.5436  -14.0405 O   0  0  0  0  0  0  0  0  0  0  0  0
   14.6635   -7.5061  -10.9643 N   0  0  0  0  0  0  0  0  0  0  0  0
   13.6889   -7.9071   -9.8990 C   0  0  0  0  0  0  0  0  0  0  0  0
   14.6557   -8.0645   -8.7533 C   0  0  0  0  0  0  0  0  0  0  0  0
   15.8219   -7.1161   -9.0617 C   0  0  0  0  0  0  0  0  0  0  0  0
   15.2897   -6.4102  -10.3226 C   0  0  1  0  0  0  0  0  0  0  0  0
   16.3057   -5.6371  -10.9835 C   0  0  0  0  0  0  0  0  0  0  0  0
   17.4915   -5.9427  -11.0811 O   0  0  0  0  0  0  0  0  0  0  0  0
   17.6876   -2.8464  -14.3881 O   0  0  0  0  0  0  0  0  0  0  0  0
   16.7460   -3.6730  -13.7535 C   0  0  0  0  0  0  0  0  0  0  0  0
   16.8844   -3.5238  -12.2321 C   0  0  2  0  0  0  0  0  0  0  0  0
   15.9166   -4.3793  -11.5971 N   0  0  0  0  0  0  0  0  0  0  0  0
   16.7581   -2.1173  -11.8614 C   0  0  0  0  0  0  0  0  0  0  0  0
   15.6834   -1.6804  -11.3961 O   0  0  0  0  0  0  0  0  0  0  0  0
   17.8147   -1.2436  -12.0151 O   0  0  0  0  0  0  0  0  0  0  0  0
  2  1  1  6
  2  6  1  0
  2  3  1  0
  3  4  1  0
  4  5  2  0
  4  8  1  0
  6  7  2  0
  9  6  1  0
  9 13  1  0
 10  9  1  0
 11 10  1  0
 11 12  1  0
 12 13  1  0
 13 14  1  6
 14 15  2  0
 14 19  1  0
 16 17  1  0
 18 17  1  6
 18 20  1  0
 19 18  1  0
 20 22  1  0
 21 20  2  0
M  END
$$$$
