DPS.pdb
     RDKit          3D

 22 22  0  0  1  0  0  0  0  0999 V2000
   27.4389  -21.0854  -12.5530 N   0  0  0  0  0  0  0  0  0  0  0  0
   26.0147  -20.7386  -12.6757 C   0  0  1  0  0  0  0  0  0  0  0  0
   25.7137  -20.0687  -11.3266 C   0  0  0  0  0  0  0  0  0  0  0  0
   25.2183  -21.1394  -10.4243 C   0  0  0  0  0  0  0  0  0  0  0  0
   24.6696  -20.9050   -9.3138 O   0  0  0  0  0  0  0  0  0  0  0  0
   25.7861  -19.7975  -13.8084 C   0  0  0  0  0  0  0  0  0  0  0  0
   24.5936  -19.5210  -14.0417 O   0  0  0  0  0  0  0  0  0  0  0  0
   25.3571  -22.4644  -10.8041 O   0  0  0  0  0  0  0  0  0  0  0  0
   26.8191  -19.2465  -14.5742 N   0  0  0  0  0  0  0  0  0  0  0  0
   28.1010  -18.7484  -13.9791 C   0  0  0  0  0  0  0  0  0  0  0  0
   29.0670  -19.5318  -14.8306 C   0  0  0  0  0  0  0  0  0  0  0  0
   28.3409  -19.7804  -16.1594 C   0  0  0  0  0  0  0  0  0  0  0  0
   27.0563  -18.9597  -15.9404 C   0  0  1  0  0  0  0  0  0  0  0  0
   26.0625  -19.2260  -16.9443 C   0  0  0  0  0  0  0  0  0  0  0  0
   26.1129  -20.1192  -17.7863 O   0  0  0  0  0  0  0  0  0  0  0  0
   21.8431  -20.3318  -17.4148 O   0  0  0  0  0  0  0  0  0  0  0  0
   23.0069  -19.8785  -16.7723 C   0  0  0  0  0  0  0  0  0  0  0  0
   23.6750  -18.7997  -17.6359 C   0  0  2  0  0  0  0  0  0  0  0  0
   24.8861  -18.3749  -16.9842 N   0  0  0  0  0  0  0  0  0  0  0  0
   22.7310  -17.7145  -17.8865 C   0  0  0  0  0  0  0  0  0  0  0  0
   22.5518  -16.8222  -17.0297 O   0  0  0  0  0  0  0  0  0  0  0  0
   22.0196  -17.6490  -19.0668 O   0  0  0  0  0  0  0  0  0  0  0  0
  2  1  1  1
  2  6  1  0
  2  3  1  0
  3  4  1  0
  4  5  2  0
  4  8  1  0
  6  7  2  0
  9  6  1  0
  9 13  1  0
 10  9  1  0
 11 10  1  0
 11 12  1  0
 12 13  1  0
 13 14  1  6
 14 15  2  0
 14 19  1  0
 16 17  1  0
 18 17  1  1
 18 20  1  0
 19 18  1  0
 20 22  1  0
 21 20  2  0
M  END
$$$$
