DPS.pdb
     RDKit          3D

 22 22  0  0  1  0  0  0  0  0999 V2000
   34.7207  -35.8470   -1.4798 N   0  0  0  0  0  0  0  0  0  0  0  0
   33.7693  -36.4598   -2.4195 C   0  0  1  0  0  0  0  0  0  0  0  0
   33.3745  -37.7583   -1.7002 C   0  0  0  0  0  0  0  0  0  0  0  0
   32.4543  -38.4838   -2.6127 C   0  0  0  0  0  0  0  0  0  0  0  0
   32.8057  -38.9180   -3.7429 O   0  0  0  0  0  0  0  0  0  0  0  0
   32.5852  -35.5810   -2.6354 C   0  0  0  0  0  0  0  0  0  0  0  0
   31.8172  -35.4692   -1.6604 O   0  0  0  0  0  0  0  0  0  0  0  0
   31.1439  -38.7033   -2.2205 O   0  0  0  0  0  0  0  0  0  0  0  0
   32.3282  -34.9145   -3.8383 N   0  0  0  0  0  0  0  0  0  0  0  0
   33.4127  -34.3934   -4.7315 C   0  0  0  0  0  0  0  0  0  0  0  0
   32.9846  -35.0521   -6.0178 C   0  0  0  0  0  0  0  0  0  0  0  0
   31.4654  -35.2363   -5.9037 C   0  0  0  0  0  0  0  0  0  0  0  0
   31.1890  -34.5088   -4.5749 C   0  0  1  0  0  0  0  0  0  0  0  0
   29.8581  -34.7510   -4.0883 C   0  0  0  0  0  0  0  0  0  0  0  0
   29.4220  -35.8301   -3.6954 O   0  0  0  0  0  0  0  0  0  0  0  0
   25.5767  -32.5707   -3.1080 O   0  0  0  0  0  0  0  0  0  0  0  0
   26.8795  -32.4336   -3.6142 C   0  0  0  0  0  0  0  0  0  0  0  0
   27.5662  -33.8063   -3.6248 C   0  0  2  0  0  0  0  0  0  0  0  0
   28.9307  -33.6337   -4.0496 N   0  0  0  0  0  0  0  0  0  0  0  0
   26.8043  -34.7320   -4.4579 C   0  0  0  0  0  0  0  0  0  0  0  0
   26.9896  -34.7694   -5.6935 O   0  0  0  0  0  0  0  0  0  0  0  0
   25.8683  -35.5813   -3.9046 O   0  0  0  0  0  0  0  0  0  0  0  0
  2  1  1  1
  2  6  1  0
  2  3  1  0
  3  4  1  0
  4  5  2  0
  4  8  1  0
  6  7  2  0
  9  6  1  0
  9 13  1  0
 10  9  1  0
 11 10  1  0
 11 12  1  0
 12 13  1  0
 13 14  1  1
 14 15  2  0
 14 19  1  0
 16 17  1  0
 18 17  1  6
 18 20  1  0
 19 18  1  0
 20 22  1  0
 21 20  2  0
M  END
$$$$
