DPS.pdb
     RDKit          3D

 22 22  0  0  1  0  0  0  0  0999 V2000
   19.7785  -12.6340  -17.6929 N   0  0  0  0  0  0  0  0  0  0  0  0
   20.7758  -11.5612  -17.8269 C   0  0  1  0  0  0  0  0  0  0  0  0
   20.4509  -10.9695  -19.2066 C   0  0  0  0  0  0  0  0  0  0  0  0
   20.8318  -11.9981  -20.2079 C   0  0  0  0  0  0  0  0  0  0  0  0
   22.0154  -12.1636  -20.6092 O   0  0  0  0  0  0  0  0  0  0  0  0
   20.6168  -10.5418  -16.7514 C   0  0  0  0  0  0  0  0  0  0  0  0
   19.5790   -9.8548  -16.8149 O   0  0  0  0  0  0  0  0  0  0  0  0
   19.8537  -12.8241  -20.7373 O   0  0  0  0  0  0  0  0  0  0  0  0
   21.5510  -10.3473  -15.7284 N   0  0  0  0  0  0  0  0  0  0  0  0
   22.2216  -11.4778  -15.0088 C   0  0  0  0  0  0  0  0  0  0  0  0
   23.6549  -11.0556  -15.2069 C   0  0  0  0  0  0  0  0  0  0  0  0
   23.6224   -9.5273  -15.3401 C   0  0  0  0  0  0  0  0  0  0  0  0
   22.1352   -9.2477  -15.0542 C   0  0  1  0  0  0  0  0  0  0  0  0
   21.7654   -7.8947  -15.3691 C   0  0  0  0  0  0  0  0  0  0  0  0
   21.8964   -7.3499  -16.4623 O   0  0  0  0  0  0  0  0  0  0  0  0
   19.3661   -3.9659  -13.8116 O   0  0  0  0  0  0  0  0  0  0  0  0
   19.7484   -5.2929  -13.5558 C   0  0  0  0  0  0  0  0  0  0  0  0
   20.8683   -5.6937  -14.5259 C   0  0  2  0  0  0  0  0  0  0  0  0
   21.1831   -7.0824  -14.3151 N   0  0  0  0  0  0  0  0  0  0  0  0
   22.0104   -4.8002  -14.3563 C   0  0  0  0  0  0  0  0  0  0  0  0
   22.8853   -5.0485  -13.4989 O   0  0  0  0  0  0  0  0  0  0  0  0
   22.1495   -3.6685  -15.1331 O   0  0  0  0  0  0  0  0  0  0  0  0
  2  1  1  1
  2  6  1  0
  2  3  1  0
  3  4  1  0
  4  5  2  0
  4  8  1  0
  6  7  2  0
  9  6  1  0
  9 13  1  0
 10  9  1  0
 11 10  1  0
 11 12  1  0
 12 13  1  0
 13 14  1  6
 14 15  2  0
 14 19  1  0
 16 17  1  0
 18 17  1  1
 18 20  1  0
 19 18  1  0
 20 22  1  0
 21 20  2  0
M  END
$$$$
