DPS.pdb
     RDKit          3D

 22 22  0  0  1  0  0  0  0  0999 V2000
   22.6503  -13.4744  -17.5184 N   0  0  0  0  0  0  0  0  0  0  0  0
   23.5048  -12.3336  -17.8822 C   0  0  1  0  0  0  0  0  0  0  0  0
   23.0101  -11.9783  -19.2922 C   0  0  0  0  0  0  0  0  0  0  0  0
   23.3971  -13.1094  -20.1735 C   0  0  0  0  0  0  0  0  0  0  0  0
   22.5929  -14.0137  -20.5266 O   0  0  0  0  0  0  0  0  0  0  0  0
   23.3121  -11.1954  -16.9398 C   0  0  0  0  0  0  0  0  0  0  0  0
   22.1357  -10.8075  -16.8031 O   0  0  0  0  0  0  0  0  0  0  0  0
   24.6992  -13.1915  -20.6393 O   0  0  0  0  0  0  0  0  0  0  0  0
   24.3601  -10.5849  -16.2426 N   0  0  0  0  0  0  0  0  0  0  0  0
   25.4779  -11.3559  -15.6087 C   0  0  0  0  0  0  0  0  0  0  0  0
   26.6400  -10.6333  -16.2406 C   0  0  0  0  0  0  0  0  0  0  0  0
   26.1350   -9.2148  -16.5362 C   0  0  0  0  0  0  0  0  0  0  0  0
   24.7395   -9.2678  -15.8872 C   0  0  1  0  0  0  0  0  0  0  0  0
   23.9301   -8.1344  -16.2433 C   0  0  0  0  0  0  0  0  0  0  0  0
   23.6511   -7.7813  -17.3863 O   0  0  0  0  0  0  0  0  0  0  0  0
   22.0654   -5.9105  -13.1202 O   0  0  0  0  0  0  0  0  0  0  0  0
   21.4872   -6.0423  -14.3933 C   0  0  0  0  0  0  0  0  0  0  0  0
   22.5988   -6.1461  -15.4466 C   0  0  2  0  0  0  0  0  0  0  0  0
   23.3839   -7.3207  -15.1711 N   0  0  0  0  0  0  0  0  0  0  0  0
   23.3768   -4.9108  -15.4654 C   0  0  0  0  0  0  0  0  0  0  0  0
   24.5535   -4.8984  -15.0442 O   0  0  0  0  0  0  0  0  0  0  0  0
   22.8348   -3.7363  -15.9453 O   0  0  0  0  0  0  0  0  0  0  0  0
  2  1  1  1
  2  6  1  0
  2  3  1  0
  3  4  1  0
  4  5  2  0
  4  8  1  0
  6  7  2  0
  9  6  1  0
  9 13  1  0
 10  9  1  0
 11 10  1  0
 11 12  1  0
 12 13  1  0
 13 14  1  6
 14 15  2  0
 14 19  1  0
 16 17  1  0
 18 17  1  1
 18 20  1  0
 19 18  1  0
 20 22  1  0
 21 20  2  0
M  END
$$$$
