RMF.pdb
     RDKit          3D

 31 31  0  0  1  0  0  0  0  0999 V2000
    9.0457  -12.8515   17.2003 N   0  0  0  0  0  0  0  0  0  0  0  0
    8.2974  -12.7339   18.4273 C   0  0  0  0  0  0  0  0  0  0  0  0
    8.6190  -11.7922   19.2379 N   0  0  0  0  0  0  0  0  0  0  0  0
    7.2407  -13.5960   18.7687 N   0  0  0  0  0  0  0  0  0  0  0  0
    6.8864  -14.7697   17.9929 C   0  0  0  0  0  0  0  0  0  0  0  0
    8.1703  -15.6202   17.9301 C   0  0  0  0  0  0  0  0  0  0  0  0
    7.8323  -16.9077   18.5889 C   0  0  0  0  0  0  0  0  0  0  0  0
    8.8943  -17.3472   19.5374 C   0  0  2  0  0  0  0  0  0  0  0  0
    8.5253  -18.6888   20.0389 N   0  0  0  0  0  0  0  0  0  0  0  0
    8.8687  -16.4598   20.7545 C   0  0  0  0  0  0  0  0  0  0  0  0
    8.4773  -15.2548   20.6982 O   0  0  0  0  0  0  0  0  0  0  0  0
    8.1784  -11.6443   20.1503 C   0  0  0  0  0  0  0  0  0  0  0  0
    6.6696  -12.7042   26.2632 S   0  0  0  0  0  0  0  0  0  0  0  0
    7.3222  -13.3184   24.6682 C   0  0  0  0  0  0  0  0  0  0  0  0
    7.1605  -15.0872   24.5721 C   0  0  0  0  0  0  0  0  0  0  0  0
    7.6485  -15.7615   23.3564 C   0  0  1  0  0  0  0  0  0  0  0  0
    9.0913  -16.0669   23.2089 N   0  0  0  0  0  0  0  0  0  0  0  0
    9.2851  -16.9442   22.0174 C   0  0  0  0  0  0  0  0  0  0  0  0
    9.7389  -16.8297   24.2931 O   0  0  0  0  0  0  0  0  0  0  0  0
    9.2414  -17.8978   24.7810 N   0  0  0  0  0  0  0  0  0  0  0  0
   10.9790  -16.4615   24.9085 C   0  0  2  0  0  0  0  0  0  0  0  0
   11.1318  -16.3796   26.3714 C   0  0  0  0  0  0  0  0  0  0  0  0
   10.6313  -14.9970   26.7289 C   0  0  0  0  0  0  0  0  0  0  0  0
   10.6283  -14.8026   28.1813 C   0  0  0  0  0  0  0  0  0  0  0  0
   11.2266  -15.6994   29.0358 C   0  0  0  0  0  0  0  0  0  0  0  0
   11.2138  -15.4850   30.4162 C   0  0  0  0  0  0  0  0  0  0  0  0
   10.5758  -14.3357   30.8871 C   0  0  0  0  0  0  0  0  0  0  0  0
    9.9749  -13.4308   30.0600 C   0  0  0  0  0  0  0  0  0  0  0  0
   10.0063  -13.6748   28.6956 C   0  0  0  0  0  0  0  0  0  0  0  0
   10.3176  -17.3785   27.0527 O   0  0  0  0  0  0  0  0  0  0  0  0
   10.9303  -18.3436   27.6296 O   0  0  0  0  0  0  0  0  0  0  0  0
  2  3  2  0
  2  1  1  0
  4  2  1  0
  5  6  1  0
  5  4  1  0
  7  8  1  0
  7  6  1  0
  8  9  1  1
 10  8  1  0
 10 17  1  0
 11 10  2  0
 13 12  1  0
 14 13  1  0
 15 14  1  0
 16 15  1  6
 16 17  1  0
 18 19  2  0
 18 16  1  0
 20 18  1  0
 21 20  1  0
 21 22  1  6
 23 22  1  0
 23 24  2  0
 24 25  1  0
 26 25  2  0
 27 26  1  0
 28 27  2  0
 28 23  1  0
 29 21  1  0
 30 29  2  0
 31 29  1  0
M  END
$$$$
