RMF.pdb
     RDKit          3D

 31 31  0  0  1  0  0  0  0  0999 V2000
   13.6763  -20.3253   17.3206 N   0  0  0  0  0  0  0  0  0  0  0  0
   12.7148  -20.0526   16.2810 C   0  0  0  0  0  0  0  0  0  0  0  0
   13.1583  -19.8315   15.0971 N   0  0  0  0  0  0  0  0  0  0  0  0
   11.3275  -20.0209   16.5064 N   0  0  0  0  0  0  0  0  0  0  0  0
   10.7202  -20.3282   17.7877 C   0  0  0  0  0  0  0  0  0  0  0  0
    9.2038  -20.1554   17.5724 C   0  0  0  0  0  0  0  0  0  0  0  0
    8.5684  -20.5460   18.8568 C   0  0  0  0  0  0  0  0  0  0  0  0
    7.5396  -19.5609   19.2949 C   0  0  2  0  0  0  0  0  0  0  0  0
    6.8252  -19.0873   18.0896 N   0  0  0  0  0  0  0  0  0  0  0  0
    8.2274  -18.3371   19.8416 C   0  0  0  0  0  0  0  0  0  0  0  0
    9.3479  -17.9427   19.3976 O   0  0  0  0  0  0  0  0  0  0  0  0
   12.5675  -19.5743   14.3012 C   0  0  0  0  0  0  0  0  0  0  0  0
    8.5386  -10.9418   20.5825 S   0  0  0  0  0  0  0  0  0  0  0  0
    7.4862  -12.4328   20.4534 C   0  0  0  0  0  0  0  0  0  0  0  0
    8.3489  -13.8565   21.0803 C   0  0  0  0  0  0  0  0  0  0  0  0
    7.6602  -15.1582   21.0348 C   0  0  2  0  0  0  0  0  0  0  0  0
    8.3913  -16.3947   21.3998 N   0  0  0  0  0  0  0  0  0  0  0  0
    7.6415  -17.5761   20.8811 C   0  0  0  0  0  0  0  0  0  0  0  0
    8.5388  -16.6982   22.8360 O   0  0  0  0  0  0  0  0  0  0  0  0
    7.5453  -16.9390   23.5985 N   0  0  0  0  0  0  0  0  0  0  0  0
    9.7945  -16.7555   23.5230 C   0  0  1  0  0  0  0  0  0  0  0  0
   10.1571  -15.7861   24.5714 C   0  0  0  0  0  0  0  0  0  0  0  0
    9.2152  -16.0932   25.7152 C   0  0  0  0  0  0  0  0  0  0  0  0
    9.4545  -15.1910   26.8448 C   0  0  0  0  0  0  0  0  0  0  0  0
    8.9090  -13.9292   26.8954 C   0  0  0  0  0  0  0  0  0  0  0  0
    9.1492  -13.0929   27.9884 C   0  0  0  0  0  0  0  0  0  0  0  0
    9.9566  -13.5854   29.0155 C   0  0  0  0  0  0  0  0  0  0  0  0
   10.5095  -14.8335   28.9890 C   0  0  0  0  0  0  0  0  0  0  0  0
   10.2507  -15.6369   27.8892 C   0  0  0  0  0  0  0  0  0  0  0  0
   11.5329  -15.9676   25.0175 O   0  0  0  0  0  0  0  0  0  0  0  0
   12.0880  -17.0948   24.7706 O   0  0  0  0  0  0  0  0  0  0  0  0
  2  3  2  0
  2  1  1  0
  4  2  1  0
  5  6  1  0
  5  4  1  0
  7  8  1  0
  7  6  1  0
  8  9  1  6
 10  8  1  0
 10 17  1  0
 11 10  2  0
 13 12  1  0
 14 13  1  0
 15 14  1  0
 16 15  1  6
 16 17  1  0
 18 19  2  0
 18 16  1  0
 20 18  1  0
 21 20  1  0
 21 22  1  6
 23 22  1  0
 23 24  2  0
 24 25  1  0
 26 25  2  0
 27 26  1  0
 28 27  2  0
 28 23  1  0
 29 21  1  0
 30 29  2  0
 31 29  1  0
M  END
$$$$
