RMF.pdb
     RDKit          3D

 31 31  0  0  1  0  0  0  0  0999 V2000
    9.0436  -21.4608   16.3259 N   0  0  0  0  0  0  0  0  0  0  0  0
    9.0370  -20.1546   15.7149 C   0  0  0  0  0  0  0  0  0  0  0  0
    8.3764  -20.0060   14.6245 N   0  0  0  0  0  0  0  0  0  0  0  0
    9.7141  -19.0487   16.2579 N   0  0  0  0  0  0  0  0  0  0  0  0
    9.7608  -18.7611   17.6792 C   0  0  0  0  0  0  0  0  0  0  0  0
    8.6050  -17.7735   17.9339 C   0  0  0  0  0  0  0  0  0  0  0  0
    9.1257  -16.7908   18.9183 C   0  0  0  0  0  0  0  0  0  0  0  0
    9.2313  -17.3713   20.2867 C   0  0  2  0  0  0  0  0  0  0  0  0
    7.8860  -17.8404   20.6836 N   0  0  0  0  0  0  0  0  0  0  0  0
    9.5618  -16.2747   21.2653 C   0  0  0  0  0  0  0  0  0  0  0  0
   10.5639  -15.5137   21.1069 O   0  0  0  0  0  0  0  0  0  0  0  0
    8.3496  -19.1374   14.0831 C   0  0  0  0  0  0  0  0  0  0  0  0
    7.1016  -11.8366   25.6695 S   0  0  0  0  0  0  0  0  0  0  0  0
    6.2412  -13.4488   25.7572 C   0  0  0  0  0  0  0  0  0  0  0  0
    7.0979  -14.6626   24.7792 C   0  0  0  0  0  0  0  0  0  0  0  0
    8.0985  -14.1874   23.8077 C   0  0  1  0  0  0  0  0  0  0  0  0
    9.2295  -15.0643   23.4223 N   0  0  0  0  0  0  0  0  0  0  0  0
    8.7575  -16.0524   22.4083 C   0  0  0  0  0  0  0  0  0  0  0  0
    9.8155  -15.9189   24.4724 O   0  0  0  0  0  0  0  0  0  0  0  0
    9.2217  -16.9456   24.9411 N   0  0  0  0  0  0  0  0  0  0  0  0
   11.0965  -15.6943   25.0731 C   0  0  2  0  0  0  0  0  0  0  0  0
   11.6229  -16.5631   26.1399 C   0  0  0  0  0  0  0  0  0  0  0  0
   10.4656  -16.7293   27.1005 C   0  0  0  0  0  0  0  0  0  0  0  0
   10.2515  -15.5047   27.8762 C   0  0  0  0  0  0  0  0  0  0  0  0
   11.0762  -15.1514   28.9191 C   0  0  0  0  0  0  0  0  0  0  0  0
   10.8517  -13.9743   29.6372 C   0  0  0  0  0  0  0  0  0  0  0  0
    9.7679  -13.1804   29.2567 C   0  0  0  0  0  0  0  0  0  0  0  0
    8.9352  -13.5088   28.2259 C   0  0  0  0  0  0  0  0  0  0  0  0
    9.1869  -14.6840   27.5348 C   0  0  0  0  0  0  0  0  0  0  0  0
   12.0132  -17.8695   25.6242 O   0  0  0  0  0  0  0  0  0  0  0  0
   11.6306  -18.1736   24.4407 O   0  0  0  0  0  0  0  0  0  0  0  0
  2  3  2  0
  2  1  1  0
  4  2  1  0
  5  6  1  0
  5  4  1  0
  7  8  1  0
  7  6  1  0
  8  9  1  1
 10  8  1  0
 10 17  1  0
 11 10  2  0
 13 12  1  0
 14 13  1  0
 15 14  1  0
 16 15  1  6
 16 17  1  0
 18 19  2  0
 18 16  1  0
 20 18  1  0
 21 20  1  0
 21 22  1  6
 23 22  1  0
 23 24  2  0
 24 25  1  0
 26 25  2  0
 27 26  1  0
 28 27  2  0
 28 23  1  0
 29 21  1  0
 30 29  2  0
 31 29  1  0
M  END
$$$$
