RMF.pdb
     RDKit          3D

 31 31  0  0  1  0  0  0  0  0999 V2000
    8.1717  -19.9510   14.2252 N   0  0  0  0  0  0  0  0  0  0  0  0
    7.9247  -18.5887   14.6287 C   0  0  0  0  0  0  0  0  0  0  0  0
    6.9441  -17.9691   14.0792 N   0  0  0  0  0  0  0  0  0  0  0  0
    8.7024  -17.9187   15.5892 N   0  0  0  0  0  0  0  0  0  0  0  0
    8.5177  -18.0803   17.0191 C   0  0  0  0  0  0  0  0  0  0  0  0
    7.1928  -17.3623   17.3431 C   0  0  0  0  0  0  0  0  0  0  0  0
    7.0391  -17.4486   18.8179 C   0  0  0  0  0  0  0  0  0  0  0  0
    8.3455  -17.6488   19.5062 C   0  0  2  0  0  0  0  0  0  0  0  0
    8.1831  -18.7589   20.4700 N   0  0  0  0  0  0  0  0  0  0  0  0
    8.6476  -16.4417   20.3554 C   0  0  0  0  0  0  0  0  0  0  0  0
    9.4303  -15.5243   19.9630 O   0  0  0  0  0  0  0  0  0  0  0  0
    6.6961  -16.9957   14.2781 C   0  0  0  0  0  0  0  0  0  0  0  0
    6.2885  -13.7162   25.9880 S   0  0  0  0  0  0  0  0  0  0  0  0
    6.2457  -12.4860   24.6345 C   0  0  0  0  0  0  0  0  0  0  0  0
    7.3631  -12.9571   23.3331 C   0  0  0  0  0  0  0  0  0  0  0  0
    7.2350  -14.3117   22.7679 C   0  0  2  0  0  0  0  0  0  0  0  0
    8.4503  -15.0978   22.4489 N   0  0  0  0  0  0  0  0  0  0  0  0
    8.0626  -16.2869   21.6347 C   0  0  0  0  0  0  0  0  0  0  0  0
    9.1899  -15.6939   23.5777 O   0  0  0  0  0  0  0  0  0  0  0  0
    9.3917  -16.9483   23.6881 N   0  0  0  0  0  0  0  0  0  0  0  0
    9.7548  -14.9420   24.6583 C   0  0  1  0  0  0  0  0  0  0  0  0
   10.3900  -15.5943   25.8165 C   0  0  0  0  0  0  0  0  0  0  0  0
   10.9178  -14.4503   26.6547 C   0  0  0  0  0  0  0  0  0  0  0  0
   11.2810  -14.9114   27.9973 C   0  0  0  0  0  0  0  0  0  0  0  0
   10.5626  -14.5432   29.1113 C   0  0  0  0  0  0  0  0  0  0  0  0
   10.9283  -15.0035   30.3786 C   0  0  0  0  0  0  0  0  0  0  0  0
   12.0403  -15.8433   30.4666 C   0  0  0  0  0  0  0  0  0  0  0  0
   12.7694  -16.2231   29.3766 C   0  0  0  0  0  0  0  0  0  0  0  0
   12.3788  -15.7477   28.1342 C   0  0  0  0  0  0  0  0  0  0  0  0
    9.4254  -16.3592   26.5971 O   0  0  0  0  0  0  0  0  0  0  0  0
    8.2197  -15.9293   26.6281 O   0  0  0  0  0  0  0  0  0  0  0  0
  2  3  2  0
  2  1  1  0
  4  2  1  0
  5  6  1  0
  5  4  1  0
  7  8  1  0
  7  6  1  0
  8  9  1  1
 10  8  1  0
 10 17  1  0
 11 10  2  0
 13 12  1  0
 14 13  1  0
 15 14  1  0
 16 15  1  6
 16 17  1  0
 18 19  2  0
 18 16  1  0
 20 18  1  0
 21 20  1  0
 21 22  1  1
 23 22  1  0
 23 24  2  0
 24 25  1  0
 26 25  2  0
 27 26  1  0
 28 27  2  0
 28 23  1  0
 29 21  1  0
 30 29  2  0
 31 29  1  0
M  END
$$$$
