RMF.pdb
     RDKit          3D

 31 31  0  0  1  0  0  0  0  0999 V2000
   11.4915  -19.7092   17.8459 N   0  0  0  0  0  0  0  0  0  0  0  0
   11.4193  -21.0604   18.3441 C   0  0  0  0  0  0  0  0  0  0  0  0
   11.6559  -22.0164   17.5211 N   0  0  0  0  0  0  0  0  0  0  0  0
   11.1063  -21.3717   19.6789 N   0  0  0  0  0  0  0  0  0  0  0  0
   10.7051  -20.3779   20.6568 C   0  0  0  0  0  0  0  0  0  0  0  0
    9.4174  -19.7465   20.0923 C   0  0  0  0  0  0  0  0  0  0  0  0
    8.8260  -18.9703   21.2120 C   0  0  0  0  0  0  0  0  0  0  0  0
    8.1460  -17.7322   20.7373 C   0  0  2  0  0  0  0  0  0  0  0  0
    8.5156  -17.5289   19.3197 N   0  0  0  0  0  0  0  0  0  0  0  0
    8.7220  -16.5429   21.4606 C   0  0  0  0  0  0  0  0  0  0  0  0
    9.7580  -15.9415   21.0440 O   0  0  0  0  0  0  0  0  0  0  0  0
   11.6233  -23.0093   17.7693 C   0  0  0  0  0  0  0  0  0  0  0  0
    6.0931  -12.4209   26.8912 S   0  0  0  0  0  0  0  0  0  0  0  0
    7.8292  -12.5715   26.3342 C   0  0  0  0  0  0  0  0  0  0  0  0
    7.8983  -12.7713   24.5680 C   0  0  0  0  0  0  0  0  0  0  0  0
    7.6353  -14.1103   24.0124 C   0  0  2  0  0  0  0  0  0  0  0  0
    8.7010  -14.8258   23.2715 N   0  0  0  0  0  0  0  0  0  0  0  0
    8.1215  -16.0492   22.6432 C   0  0  0  0  0  0  0  0  0  0  0  0
    9.8331  -15.3577   24.0538 O   0  0  0  0  0  0  0  0  0  0  0  0
   10.9379  -14.7342   24.1847 N   0  0  0  0  0  0  0  0  0  0  0  0
    9.8178  -16.6136   24.7426 C   0  0  1  0  0  0  0  0  0  0  0  0
   10.9275  -17.0424   25.6114 C   0  0  0  0  0  0  0  0  0  0  0  0
   10.2946  -17.2267   26.9735 C   0  0  0  0  0  0  0  0  0  0  0  0
   10.1362  -15.9386   27.6538 C   0  0  0  0  0  0  0  0  0  0  0  0
   11.1699  -15.3494   28.3441 C   0  0  0  0  0  0  0  0  0  0  0  0
   10.9919  -14.1172   28.9780 C   0  0  0  0  0  0  0  0  0  0  0  0
    9.7355  -13.5156   28.8828 C   0  0  0  0  0  0  0  0  0  0  0  0
    8.6939  -14.0797   28.2039 C   0  0  0  0  0  0  0  0  0  0  0  0
    8.9054  -15.3030   27.5868 C   0  0  0  0  0  0  0  0  0  0  0  0
   11.4969  -18.3092   25.1686 O   0  0  0  0  0  0  0  0  0  0  0  0
   12.5449  -18.7273   25.7741 O   0  0  0  0  0  0  0  0  0  0  0  0
  2  3  2  0
  2  1  1  0
  4  2  1  0
  5  6  1  0
  5  4  1  0
  7  8  1  0
  7  6  1  0
  8  9  1  6
 10  8  1  0
 10 17  1  0
 11 10  2  0
 13 12  1  0
 14 13  1  0
 15 14  1  0
 16 15  1  6
 16 17  1  0
 18 19  2  0
 18 16  1  0
 20 18  1  0
 21 20  1  0
 21 22  1  1
 23 22  1  0
 23 24  2  0
 24 25  1  0
 26 25  2  0
 27 26  1  0
 28 27  2  0
 28 23  1  0
 29 21  1  0
 30 29  2  0
 31 29  1  0
M  END
$$$$
