RMF.pdb
     RDKit          3D

 31 31  0  0  1  0  0  0  0  0999 V2000
    8.0521  -14.7647   15.1539 N   0  0  0  0  0  0  0  0  0  0  0  0
    7.5859  -16.1278   15.0915 C   0  0  0  0  0  0  0  0  0  0  0  0
    6.6324  -16.3987   14.2762 N   0  0  0  0  0  0  0  0  0  0  0  0
    8.1268  -17.1617   15.8757 N   0  0  0  0  0  0  0  0  0  0  0  0
    9.1645  -16.9511   16.8677 C   0  0  0  0  0  0  0  0  0  0  0  0
    8.4235  -16.8292   18.2137 C   0  0  0  0  0  0  0  0  0  0  0  0
    9.4037  -16.2377   19.1600 C   0  0  0  0  0  0  0  0  0  0  0  0
    9.7169  -17.1580   20.2895 C   0  0  2  0  0  0  0  0  0  0  0  0
    8.4963  -17.9378   20.5888 N   0  0  0  0  0  0  0  0  0  0  0  0
    9.9709  -16.3465   21.5331 C   0  0  0  0  0  0  0  0  0  0  0  0
   10.8829  -15.4668   21.5855 O   0  0  0  0  0  0  0  0  0  0  0  0
    6.2280  -17.3316   14.1551 C   0  0  0  0  0  0  0  0  0  0  0  0
    6.8516  -12.3720   26.0526 S   0  0  0  0  0  0  0  0  0  0  0  0
    6.1805  -13.3812   24.6821 C   0  0  0  0  0  0  0  0  0  0  0  0
    7.4997  -14.1857   23.8010 C   0  0  0  0  0  0  0  0  0  0  0  0
    8.2792  -15.2148   24.5111 C   0  0  2  0  0  0  0  0  0  0  0  0
    9.5300  -15.7387   23.9130 N   0  0  0  0  0  0  0  0  0  0  0  0
    9.1928  -16.5390   22.6994 C   0  0  0  0  0  0  0  0  0  0  0  0
   10.3278  -16.6800   24.7217 O   0  0  0  0  0  0  0  0  0  0  0  0
   10.9125  -17.6979   24.2233 N   0  0  0  0  0  0  0  0  0  0  0  0
   10.5314  -16.5574   26.1344 C   0  0  1  0  0  0  0  0  0  0  0  0
   11.2691  -17.5705   26.9088 C   0  0  0  0  0  0  0  0  0  0  0  0
   11.1530  -17.1096   28.3454 C   0  0  0  0  0  0  0  0  0  0  0  0
   10.7886  -15.6918   28.4106 C   0  0  0  0  0  0  0  0  0  0  0  0
    9.5181  -15.2825   28.7436 C   0  0  0  0  0  0  0  0  0  0  0  0
    9.2007  -13.9234   28.8043 C   0  0  0  0  0  0  0  0  0  0  0  0
   10.2151  -13.0081   28.5162 C   0  0  0  0  0  0  0  0  0  0  0  0
   11.4833  -13.3887   28.1833 C   0  0  0  0  0  0  0  0  0  0  0  0
   11.7635  -14.7455   28.1324 C   0  0  0  0  0  0  0  0  0  0  0  0
   10.6664  -18.8912   26.7758 O   0  0  0  0  0  0  0  0  0  0  0  0
   11.2793  -19.8755   27.3190 O   0  0  0  0  0  0  0  0  0  0  0  0
  2  3  2  0
  2  1  1  0
  4  2  1  0
  5  6  1  0
  5  4  1  0
  7  8  1  0
  7  6  1  0
  8  9  1  1
 10  8  1  0
 10 17  1  0
 11 10  2  0
 13 12  1  0
 14 13  1  0
 15 14  1  0
 16 15  1  6
 16 17  1  0
 18 19  2  0
 18 16  1  0
 20 18  1  0
 21 20  1  0
 21 22  1  1
 23 22  1  0
 23 24  2  0
 24 25  1  0
 26 25  2  0
 27 26  1  0
 28 27  2  0
 28 23  1  0
 29 21  1  0
 30 29  2  0
 31 29  1  0
M  END
$$$$
