RMF.pdb
     RDKit          3D

 31 31  0  0  1  0  0  0  0  0999 V2000
   10.2139  -14.2372   17.8809 N   0  0  0  0  0  0  0  0  0  0  0  0
    9.0261  -13.9714   17.1077 C   0  0  0  0  0  0  0  0  0  0  0  0
    8.7170  -12.7456   16.8857 N   0  0  0  0  0  0  0  0  0  0  0  0
    8.2025  -14.9866   16.5906 N   0  0  0  0  0  0  0  0  0  0  0  0
    8.5241  -16.3985   16.6816 C   0  0  0  0  0  0  0  0  0  0  0  0
    7.7586  -16.9126   17.9167 C   0  0  0  0  0  0  0  0  0  0  0  0
    8.3895  -16.2484   19.0858 C   0  0  0  0  0  0  0  0  0  0  0  0
    7.8872  -16.7942   20.3782 C   0  0  2  0  0  0  0  0  0  0  0  0
    6.4448  -16.4808   20.4710 N   0  0  0  0  0  0  0  0  0  0  0  0
    8.5208  -16.0358   21.5153 C   0  0  0  0  0  0  0  0  0  0  0  0
    9.2130  -14.9910   21.3216 O   0  0  0  0  0  0  0  0  0  0  0  0
    7.8909  -12.4480   16.3589 C   0  0  0  0  0  0  0  0  0  0  0  0
    7.0941  -11.9170   26.3128 S   0  0  0  0  0  0  0  0  0  0  0  0
    6.1516  -12.9646   25.1460 C   0  0  0  0  0  0  0  0  0  0  0  0
    7.2612  -13.8904   24.1089 C   0  0  0  0  0  0  0  0  0  0  0  0
    8.0539  -14.9656   24.7305 C   0  0  2  0  0  0  0  0  0  0  0  0
    9.0610  -15.7000   23.9285 N   0  0  0  0  0  0  0  0  0  0  0  0
    8.3646  -16.4668   22.8542 C   0  0  0  0  0  0  0  0  0  0  0  0
    9.8539  -16.7363   24.6169 O   0  0  0  0  0  0  0  0  0  0  0  0
    9.6080  -17.9829   24.5075 N   0  0  0  0  0  0  0  0  0  0  0  0
   10.9706  -16.4621   25.4712 C   0  0  2  0  0  0  0  0  0  0  0  0
   11.2854  -17.3017   26.6401 C   0  0  0  0  0  0  0  0  0  0  0  0
   10.0499  -17.2210   27.5099 C   0  0  0  0  0  0  0  0  0  0  0  0
    9.8502  -15.8573   28.0074 C   0  0  0  0  0  0  0  0  0  0  0  0
   10.8959  -15.0914   28.4682 C   0  0  0  0  0  0  0  0  0  0  0  0
   10.6768  -13.7915   28.9308 C   0  0  0  0  0  0  0  0  0  0  0  0
    9.3673  -13.3076   28.9061 C   0  0  0  0  0  0  0  0  0  0  0  0
    8.3128  -14.0475   28.4538 C   0  0  0  0  0  0  0  0  0  0  0  0
    8.5661  -15.3335   28.0022 C   0  0  0  0  0  0  0  0  0  0  0  0
   11.5162  -18.6893   26.2574 O   0  0  0  0  0  0  0  0  0  0  0  0
   12.1519  -19.4305   27.0856 O   0  0  0  0  0  0  0  0  0  0  0  0
  2  3  2  0
  2  1  1  0
  4  2  1  0
  5  6  1  0
  5  4  1  0
  7  8  1  0
  7  6  1  0
  8  9  1  6
 10  8  1  0
 10 17  1  0
 11 10  2  0
 13 12  1  0
 14 13  1  0
 15 14  1  0
 16 15  1  6
 16 17  1  0
 18 19  2  0
 18 16  1  0
 20 18  1  0
 21 20  1  0
 21 22  1  6
 23 22  1  0
 23 24  2  0
 24 25  1  0
 26 25  2  0
 27 26  1  0
 28 27  2  0
 28 23  1  0
 29 21  1  0
 30 29  2  0
 31 29  1  0
M  END
$$$$
