RMF.pdb
     RDKit          3D

 31 31  0  0  1  0  0  0  0  0999 V2000
    8.5439  -14.1077   16.8167 N   0  0  0  0  0  0  0  0  0  0  0  0
    7.6175  -14.9551   17.5259 C   0  0  0  0  0  0  0  0  0  0  0  0
    7.4309  -16.1443   17.0805 N   0  0  0  0  0  0  0  0  0  0  0  0
    6.9191  -14.5394   18.6730 N   0  0  0  0  0  0  0  0  0  0  0  0
    7.4638  -13.6108   19.6457 C   0  0  0  0  0  0  0  0  0  0  0  0
    8.9814  -13.8798   19.6614 C   0  0  0  0  0  0  0  0  0  0  0  0
    9.4155  -13.6518   21.0634 C   0  0  0  0  0  0  0  0  0  0  0  0
    9.6888  -14.9297   21.7797 C   0  0  2  0  0  0  0  0  0  0  0  0
    8.5724  -15.8564   21.4925 N   0  0  0  0  0  0  0  0  0  0  0  0
    9.6181  -14.6892   23.2652 C   0  0  0  0  0  0  0  0  0  0  0  0
   10.4274  -13.9137   23.8585 O   0  0  0  0  0  0  0  0  0  0  0  0
    6.7745  -16.8147   17.4904 C   0  0  0  0  0  0  0  0  0  0  0  0
    6.2794  -12.0091   28.0928 S   0  0  0  0  0  0  0  0  0  0  0  0
    7.3169  -11.6412   26.6315 C   0  0  0  0  0  0  0  0  0  0  0  0
    7.1453  -12.9236   25.4107 C   0  0  0  0  0  0  0  0  0  0  0  0
    7.3393  -14.3191   25.8414 C   0  0  2  0  0  0  0  0  0  0  0  0
    8.6035  -15.0230   25.5207 N   0  0  0  0  0  0  0  0  0  0  0  0
    8.6359  -15.3268   24.0599 C   0  0  0  0  0  0  0  0  0  0  0  0
    8.8222  -16.3439   26.1404 O   0  0  0  0  0  0  0  0  0  0  0  0
    9.0500  -16.4951   27.3861 N   0  0  0  0  0  0  0  0  0  0  0  0
    8.8033  -17.5839   25.4235 C   0  0  2  0  0  0  0  0  0  0  0  0
    9.0158  -18.8782   26.0943 C   0  0  0  0  0  0  0  0  0  0  0  0
    9.1146  -19.8801   24.9646 C   0  0  0  0  0  0  0  0  0  0  0  0
   10.2948  -19.6181   24.1366 C   0  0  0  0  0  0  0  0  0  0  0  0
   10.2695  -18.7131   23.1007 C   0  0  0  0  0  0  0  0  0  0  0  0
   11.4121  -18.4788   22.3318 C   0  0  0  0  0  0  0  0  0  0  0  0
   12.5676  -19.1930   22.6547 C   0  0  0  0  0  0  0  0  0  0  0  0
   12.6183  -20.0961   23.6773 C   0  0  0  0  0  0  0  0  0  0  0  0
   11.4662  -20.3043   24.4198 C   0  0  0  0  0  0  0  0  0  0  0  0
   10.2571  -18.8889   26.8586 O   0  0  0  0  0  0  0  0  0  0  0  0
   11.0305  -17.8753   26.7397 O   0  0  0  0  0  0  0  0  0  0  0  0
  2  3  2  0
  2  1  1  0
  4  2  1  0
  5  6  1  0
  5  4  1  0
  7  8  1  0
  7  6  1  0
  8  9  1  6
 10  8  1  0
 10 17  1  0
 11 10  2  0
 13 12  1  0
 14 13  1  0
 15 14  1  0
 16 15  1  6
 16 17  1  0
 18 19  2  0
 18 16  1  0
 20 18  1  0
 21 20  1  0
 21 22  1  6
 23 22  1  0
 23 24  2  0
 24 25  1  0
 26 25  2  0
 27 26  1  0
 28 27  2  0
 28 23  1  0
 29 21  1  0
 30 29  2  0
 31 29  1  0
M  END
$$$$
