RMF.pdb
     RDKit          3D

 31 31  0  0  1  0  0  0  0  0999 V2000
    8.1833  -12.9776   15.0628 N   0  0  0  0  0  0  0  0  0  0  0  0
    8.2439  -14.3991   15.2974 C   0  0  0  0  0  0  0  0  0  0  0  0
    8.7804  -15.1339   14.3922 N   0  0  0  0  0  0  0  0  0  0  0  0
    7.7474  -15.0074   16.4636 N   0  0  0  0  0  0  0  0  0  0  0  0
    7.2294  -14.2605   17.5944 C   0  0  0  0  0  0  0  0  0  0  0  0
    8.4415  -13.5057   18.1746 C   0  0  0  0  0  0  0  0  0  0  0  0
    8.3389  -13.6535   19.6489 C   0  0  0  0  0  0  0  0  0  0  0  0
    9.2266  -14.7326   20.1666 C   0  0  2  0  0  0  0  0  0  0  0  0
    8.5783  -16.0296   19.8755 N   0  0  0  0  0  0  0  0  0  0  0  0
    9.2754  -14.6545   21.6703 C   0  0  0  0  0  0  0  0  0  0  0  0
    9.7989  -13.6699   22.2743 O   0  0  0  0  0  0  0  0  0  0  0  0
    8.8652  -16.1524   14.4549 C   0  0  0  0  0  0  0  0  0  0  0  0
    6.7995  -12.8310   27.6806 S   0  0  0  0  0  0  0  0  0  0  0  0
    6.2231  -13.2188   25.9882 C   0  0  0  0  0  0  0  0  0  0  0  0
    6.6426  -14.8933   25.5589 C   0  0  0  0  0  0  0  0  0  0  0  0
    7.1050  -15.1604   24.1858 C   0  0  1  0  0  0  0  0  0  0  0  0
    8.5401  -15.4252   23.9271 N   0  0  0  0  0  0  0  0  0  0  0  0
    8.7332  -15.6879   22.4708 C   0  0  0  0  0  0  0  0  0  0  0  0
    9.1368  -16.6156   24.5623 O   0  0  0  0  0  0  0  0  0  0  0  0
    9.1755  -17.7571   23.9950 N   0  0  0  0  0  0  0  0  0  0  0  0
    9.7300  -16.6217   25.8663 C   0  0  2  0  0  0  0  0  0  0  0  0
   10.6977  -17.6525   26.2801 C   0  0  0  0  0  0  0  0  0  0  0  0
   11.0419  -17.2982   27.7104 C   0  0  0  0  0  0  0  0  0  0  0  0
   10.9617  -15.8506   27.9232 C   0  0  0  0  0  0  0  0  0  0  0  0
   11.7873  -14.9718   27.2609 C   0  0  0  0  0  0  0  0  0  0  0  0
   11.6839  -13.5957   27.4788 C   0  0  0  0  0  0  0  0  0  0  0  0
   10.7188  -13.1545   28.3862 C   0  0  0  0  0  0  0  0  0  0  0  0
    9.8877  -14.0061   29.0557 C   0  0  0  0  0  0  0  0  0  0  0  0
   10.0177  -15.3653   28.8158 C   0  0  0  0  0  0  0  0  0  0  0  0
   10.1105  -18.9861   26.2415 O   0  0  0  0  0  0  0  0  0  0  0  0
   10.8649  -19.9711   26.5581 O   0  0  0  0  0  0  0  0  0  0  0  0
  2  3  2  0
  2  1  1  0
  4  2  1  0
  5  6  1  0
  5  4  1  0
  7  8  1  0
  7  6  1  0
  8  9  1  1
 10  8  1  0
 10 17  1  0
 11 10  2  0
 13 12  1  0
 14 13  1  0
 15 14  1  0
 16 15  1  6
 16 17  1  0
 18 19  2  0
 18 16  1  0
 20 18  1  0
 21 20  1  0
 21 22  1  6
 23 22  1  0
 23 24  2  0
 24 25  1  0
 26 25  2  0
 27 26  1  0
 28 27  2  0
 28 23  1  0
 29 21  1  0
 30 29  2  0
 31 29  1  0
M  END
$$$$
