HQV.pdb
     RDKit          3D

 27 27  0  0  1  0  0  0  0  0999 V2000
    6.3377  -16.8287   19.9062 N   0  0  0  0  0  0  0  0  0  0  0  0
    7.4677  -16.1347   20.4712 C   0  0  1  0  0  0  0  0  0  0  0  0
    7.3342  -14.6450   20.1977 C   0  0  0  0  0  0  0  0  0  0  0  0
    7.7615  -14.3594   18.8077 C   0  0  0  0  0  0  0  0  0  0  0  0
    8.2102  -15.2880   17.9092 C   0  0  0  0  0  0  0  0  0  0  0  0
    8.4949  -14.6415   16.7745 N   0  0  0  0  0  0  0  0  0  0  0  0
    8.2375  -13.3313   16.9347 C   0  0  0  0  0  0  0  0  0  0  0  0
    7.7808  -13.1409   18.1941 N   0  0  0  0  0  0  0  0  0  0  0  0
    7.4869  -16.2941   21.9482 C   0  0  0  0  0  0  0  0  0  0  0  0
    6.3922  -16.1880   22.5657 O   0  0  0  0  0  0  0  0  0  0  0  0
   11.3053  -19.7767   25.3694 N   0  0  0  0  0  0  0  0  0  0  0  0
   10.4531  -19.2069   26.3515 C   0  0  0  0  0  0  0  0  0  0  0  0
   10.5762  -19.5944   27.5367 O   0  0  0  0  0  0  0  0  0  0  0  0
    9.4422  -18.1847   26.0116 C   0  0  0  0  0  0  0  0  0  0  0  0
    9.5037  -17.8869   24.5521 C   0  0  0  0  0  0  0  0  0  0  0  0
    8.5763  -16.7973   24.1168 C   0  0  2  0  0  0  0  0  0  0  0  0
    8.6613  -16.5564   22.6876 N   0  0  0  0  0  0  0  0  0  0  0  0
    8.8370  -15.5140   24.8306 C   0  0  0  0  0  0  0  0  0  0  0  0
    9.7432  -14.7276   24.4547 O   0  0  0  0  0  0  0  0  0  0  0  0
    6.6404  -12.6567   25.4176 C   0  0  0  0  0  0  0  0  0  0  0  0
    7.1210  -13.0601   26.7966 C   0  0  2  0  0  0  0  0  0  0  0  0
    7.4124  -11.8344   27.6203 C   0  0  0  0  0  0  0  0  0  0  0  0
    8.3697  -13.8999   26.6447 C   0  0  2  0  0  0  0  0  0  0  0  0
    8.0635  -15.1418   25.9631 N   0  0  0  0  0  0  0  0  0  0  0  0
    8.9334  -14.2335   27.9858 C   0  0  0  0  0  0  0  0  0  0  0  0
    9.6236  -13.2521   28.6672 O   0  0  0  0  0  0  0  0  0  0  0  0
    8.8023  -15.3667   28.5105 O   0  0  0  0  0  0  0  0  0  0  0  0
  2  1  1  1
  3  2  1  0
  4  3  1  0
  5  4  2  0
  6  5  1  0
  7  6  1  0
  7  8  2  0
  8  4  1  0
  9  2  1  0
 10  9  2  0
 11 12  1  0
 12 14  1  0
 13 12  2  0
 14 15  1  0
 16 15  1  1
 16 17  1  0
 17  9  1  0
 18 16  1  0
 18 19  2  0
 21 20  1  6
 21 23  1  0
 22 21  1  0
 23 24  1  1
 24 18  1  0
 25 23  1  0
 26 25  1  0
 27 25  2  0
M  END
$$$$
