HQV.pdb
     RDKit          3D

 27 27  0  0  1  0  0  0  0  0999 V2000
    6.6604  -16.9726   19.6637 N   0  0  0  0  0  0  0  0  0  0  0  0
    7.2797  -15.9958   20.5241 C   0  0  1  0  0  0  0  0  0  0  0  0
    6.7892  -14.6069   20.1471 C   0  0  0  0  0  0  0  0  0  0  0  0
    7.4613  -14.1688   18.9011 C   0  0  0  0  0  0  0  0  0  0  0  0
    8.5413  -13.3320   18.8345 C   0  0  0  0  0  0  0  0  0  0  0  0
    8.8502  -13.1799   17.5430 N   0  0  0  0  0  0  0  0  0  0  0  0
    7.9940  -13.8983   16.7952 C   0  0  0  0  0  0  0  0  0  0  0  0
    7.1246  -14.5186   17.6259 N   0  0  0  0  0  0  0  0  0  0  0  0
    6.8746  -16.2194   21.9360 C   0  0  0  0  0  0  0  0  0  0  0  0
    5.6823  -15.9585   22.2542 O   0  0  0  0  0  0  0  0  0  0  0  0
    8.0014  -20.6034   25.9842 N   0  0  0  0  0  0  0  0  0  0  0  0
    7.5625  -19.5713   26.8545 C   0  0  0  0  0  0  0  0  0  0  0  0
    7.4030  -19.8485   28.0661 O   0  0  0  0  0  0  0  0  0  0  0  0
    7.2945  -18.2016   26.3704 C   0  0  0  0  0  0  0  0  0  0  0  0
    7.5823  -18.1224   24.9097 C   0  0  0  0  0  0  0  0  0  0  0  0
    7.3098  -16.7795   24.3107 C   0  0  2  0  0  0  0  0  0  0  0  0
    7.7522  -16.7056   22.9299 N   0  0  0  0  0  0  0  0  0  0  0  0
    7.9586  -15.6764   25.0767 C   0  0  0  0  0  0  0  0  0  0  0  0
    9.1934  -15.4559   24.9888 O   0  0  0  0  0  0  0  0  0  0  0  0
    6.2397  -12.1407   25.9562 C   0  0  0  0  0  0  0  0  0  0  0  0
    6.8906  -12.7676   27.1722 C   0  0  2  0  0  0  0  0  0  0  0  0
    7.5969  -11.7125   27.9807 C   0  0  0  0  0  0  0  0  0  0  0  0
    7.8742  -13.8170   26.7045 C   0  0  2  0  0  0  0  0  0  0  0  0
    7.1945  -14.8384   25.9328 N   0  0  0  0  0  0  0  0  0  0  0  0
    8.5223  -14.4755   27.8766 C   0  0  0  0  0  0  0  0  0  0  0  0
    9.6116  -13.8562   28.4545 O   0  0  0  0  0  0  0  0  0  0  0  0
    8.1139  -15.5641   28.3506 O   0  0  0  0  0  0  0  0  0  0  0  0
  2  1  1  6
  3  2  1  0
  4  3  1  0
  5  4  2  0
  6  5  1  0
  7  6  1  0
  7  8  2  0
  8  4  1  0
  9  2  1  0
 10  9  2  0
 11 12  1  0
 12 14  1  0
 13 12  2  0
 14 15  1  0
 16 15  1  1
 16 17  1  0
 17  9  1  0
 18 16  1  0
 18 19  2  0
 21 20  1  6
 21 23  1  0
 22 21  1  0
 23 24  1  1
 24 18  1  0
 25 23  1  0
 26 25  1  0
 27 25  2  0
M  END
$$$$
