HQV.pdb
     RDKit          3D

 27 27  0  0  1  0  0  0  0  0999 V2000
    7.6387  -17.4627   19.7131 N   0  0  0  0  0  0  0  0  0  0  0  0
    8.0775  -16.2753   20.4027 C   0  0  1  0  0  0  0  0  0  0  0  0
    7.1050  -15.1404   20.1235 C   0  0  0  0  0  0  0  0  0  0  0  0
    7.5619  -14.3814   18.9354 C   0  0  0  0  0  0  0  0  0  0  0  0
    8.6767  -14.6634   18.1947 C   0  0  0  0  0  0  0  0  0  0  0  0
    8.7455  -13.7570   17.2148 N   0  0  0  0  0  0  0  0  0  0  0  0
    7.7042  -12.9124   17.3188 C   0  0  0  0  0  0  0  0  0  0  0  0
    6.9595  -13.2882   18.3842 N   0  0  0  0  0  0  0  0  0  0  0  0
    8.0618  -16.4948   21.8720 C   0  0  0  0  0  0  0  0  0  0  0  0
    6.9917  -16.9125   22.3930 O   0  0  0  0  0  0  0  0  0  0  0  0
   11.6525  -18.9807   27.6394 N   0  0  0  0  0  0  0  0  0  0  0  0
   11.0951  -18.8621   26.3391 C   0  0  0  0  0  0  0  0  0  0  0  0
   11.5020  -19.6443   25.4486 O   0  0  0  0  0  0  0  0  0  0  0  0
   10.0639  -17.8538   26.0194 C   0  0  0  0  0  0  0  0  0  0  0  0
   10.0617  -17.5890   24.5523 C   0  0  0  0  0  0  0  0  0  0  0  0
    9.0864  -16.5374   24.1283 C   0  0  2  0  0  0  0  0  0  0  0  0
    9.1772  -16.2605   22.7059 N   0  0  0  0  0  0  0  0  0  0  0  0
    9.2735  -15.2592   24.8735 C   0  0  0  0  0  0  0  0  0  0  0  0
   10.2028  -14.4627   24.5852 O   0  0  0  0  0  0  0  0  0  0  0  0
    6.2962  -13.6965   27.3564 C   0  0  0  0  0  0  0  0  0  0  0  0
    7.4035  -12.8462   26.7679 C   0  0  2  0  0  0  0  0  0  0  0  0
    7.0054  -12.3541   25.4021 C   0  0  0  0  0  0  0  0  0  0  0  0
    8.6589  -13.6850   26.6787 C   0  0  2  0  0  0  0  0  0  0  0  0
    8.4010  -14.9033   25.9371 N   0  0  0  0  0  0  0  0  0  0  0  0
    9.1246  -14.0635   28.0452 C   0  0  0  0  0  0  0  0  0  0  0  0
    9.6435  -13.0750   28.8561 O   0  0  0  0  0  0  0  0  0  0  0  0
    9.0610  -15.2403   28.4783 O   0  0  0  0  0  0  0  0  0  0  0  0
  2  1  1  6
  3  2  1  0
  4  3  1  0
  5  4  2  0
  6  5  1  0
  7  6  1  0
  7  8  2  0
  8  4  1  0
  9  2  1  0
 10  9  2  0
 11 12  1  0
 12 14  1  0
 13 12  2  0
 14 15  1  0
 16 15  1  1
 16 17  1  0
 17  9  1  0
 18 16  1  0
 18 19  2  0
 21 20  1  6
 21 23  1  0
 22 21  1  0
 23 24  1  6
 24 18  1  0
 25 23  1  0
 26 25  1  0
 27 25  2  0
M  END
$$$$
