HQV.pdb
     RDKit          3D

 27 27  0  0  1  0  0  0  0  0999 V2000
    9.7080  -18.9015   16.7285 N   0  0  0  0  0  0  0  0  0  0  0  0
    8.7496  -18.5821   17.7567 C   0  0  1  0  0  0  0  0  0  0  0  0
    8.2314  -19.8678   18.3815 C   0  0  0  0  0  0  0  0  0  0  0  0
    7.1955  -20.4599   17.5024 C   0  0  0  0  0  0  0  0  0  0  0  0
    6.7735  -19.9375   16.3108 C   0  0  0  0  0  0  0  0  0  0  0  0
    5.8360  -20.7568   15.8247 N   0  0  0  0  0  0  0  0  0  0  0  0
    5.6567  -21.7805   16.6781 C   0  0  0  0  0  0  0  0  0  0  0  0
    6.4953  -21.6093   17.7261 N   0  0  0  0  0  0  0  0  0  0  0  0
    9.3995  -17.8124   18.8486 C   0  0  0  0  0  0  0  0  0  0  0  0
   10.5947  -18.0943   19.1363 O   0  0  0  0  0  0  0  0  0  0  0  0
    7.4782  -12.4152   21.4798 N   0  0  0  0  0  0  0  0  0  0  0  0
    7.8339  -12.6495   20.1255 C   0  0  0  0  0  0  0  0  0  0  0  0
    7.4934  -11.7995   19.2700 O   0  0  0  0  0  0  0  0  0  0  0  0
    8.5837  -13.8529   19.7109 C   0  0  0  0  0  0  0  0  0  0  0  0
    8.8035  -14.7363   20.8916 C   0  0  0  0  0  0  0  0  0  0  0  0
    9.4864  -16.0258   20.5642 C   0  0  2  0  0  0  0  0  0  0  0  0
    8.7493  -16.7895   19.5736 N   0  0  0  0  0  0  0  0  0  0  0  0
    9.6876  -16.8811   21.7693 C   0  0  0  0  0  0  0  0  0  0  0  0
    8.8355  -17.7394   22.1133 O   0  0  0  0  0  0  0  0  0  0  0  0
   12.7305  -18.9273   22.5956 C   0  0  0  0  0  0  0  0  0  0  0  0
   12.4268  -18.1079   23.8332 C   0  0  2  0  0  0  0  0  0  0  0  0
   12.5922  -18.9553   25.0662 C   0  0  0  0  0  0  0  0  0  0  0  0
   11.0074  -17.5952   23.7348 C   0  0  2  0  0  0  0  0  0  0  0  0
   10.8555  -16.7490   22.5679 N   0  0  0  0  0  0  0  0  0  0  0  0
   10.6660  -16.7865   24.9419 C   0  0  0  0  0  0  0  0  0  0  0  0
   10.3233  -17.4537   26.1001 O   0  0  0  0  0  0  0  0  0  0  0  0
   10.6798  -15.5310   24.9395 O   0  0  0  0  0  0  0  0  0  0  0  0
  2  1  1  6
  3  2  1  0
  4  3  1  0
  5  4  2  0
  6  5  1  0
  7  6  1  0
  7  8  2  0
  8  4  1  0
  9  2  1  0
 10  9  2  0
 11 12  1  0
 12 14  1  0
 13 12  2  0
 14 15  1  0
 16 15  1  1
 16 17  1  0
 17  9  1  0
 18 16  1  0
 18 19  2  0
 21 20  1  6
 21 23  1  0
 22 21  1  0
 23 24  1  6
 24 18  1  0
 25 23  1  0
 26 25  1  0
 27 25  2  0
M  END
$$$$
