HQV.pdb
     RDKit          3D

 27 27  0  0  1  0  0  0  0  0999 V2000
    6.7643  -16.5483   19.6775 N   0  0  0  0  0  0  0  0  0  0  0  0
    7.7847  -15.8145   20.3832 C   0  0  1  0  0  0  0  0  0  0  0  0
    7.5829  -14.3244   20.1577 C   0  0  0  0  0  0  0  0  0  0  0  0
    7.9319  -13.9866   18.7575 C   0  0  0  0  0  0  0  0  0  0  0  0
    7.1274  -13.3128   17.8801 C   0  0  0  0  0  0  0  0  0  0  0  0
    7.7947  -13.2061   16.7270 N   0  0  0  0  0  0  0  0  0  0  0  0
    8.9972  -13.7944   16.8550 C   0  0  0  0  0  0  0  0  0  0  0  0
    9.0967  -14.2843   18.1124 N   0  0  0  0  0  0  0  0  0  0  0  0
    7.6665  -16.0413   21.8467 C   0  0  0  0  0  0  0  0  0  0  0  0
    6.5108  -16.0321   22.3520 O   0  0  0  0  0  0  0  0  0  0  0  0
   10.9677  -19.6978   25.5152 N   0  0  0  0  0  0  0  0  0  0  0  0
   10.1525  -19.0183   26.4582 C   0  0  0  0  0  0  0  0  0  0  0  0
   10.1976  -19.3901   27.6540 O   0  0  0  0  0  0  0  0  0  0  0  0
    9.2678  -17.9021   26.0663 C   0  0  0  0  0  0  0  0  0  0  0  0
    9.4425  -17.6118   24.6145 C   0  0  0  0  0  0  0  0  0  0  0  0
    8.5672  -16.5102   24.1075 C   0  0  2  0  0  0  0  0  0  0  0  0
    8.7757  -16.2646   22.6919 N   0  0  0  0  0  0  0  0  0  0  0  0
    8.7802  -15.2328   24.8472 C   0  0  0  0  0  0  0  0  0  0  0  0
    9.8014  -14.5256   24.6529 O   0  0  0  0  0  0  0  0  0  0  0  0
    5.8791  -12.6583   25.6199 C   0  0  0  0  0  0  0  0  0  0  0  0
    6.7167  -12.8915   26.8607 C   0  0  2  0  0  0  0  0  0  0  0  0
    6.9411  -11.5903   27.5835 C   0  0  0  0  0  0  0  0  0  0  0  0
    8.0389  -13.4949   26.4425 C   0  0  2  0  0  0  0  0  0  0  0  0
    7.8285  -14.7763   25.7987 N   0  0  0  0  0  0  0  0  0  0  0  0
    8.9074  -13.7127   27.6367 C   0  0  0  0  0  0  0  0  0  0  0  0
    9.8550  -12.7564   27.9389 O   0  0  0  0  0  0  0  0  0  0  0  0
    8.8060  -14.7275   28.3691 O   0  0  0  0  0  0  0  0  0  0  0  0
  2  1  1  6
  3  2  1  0
  4  3  1  0
  5  4  2  0
  6  5  1  0
  7  6  1  0
  7  8  2  0
  8  4  1  0
  9  2  1  0
 10  9  2  0
 11 12  1  0
 12 14  1  0
 13 12  2  0
 14 15  1  0
 16 15  1  1
 16 17  1  0
 17  9  1  0
 18 16  1  0
 18 19  2  0
 21 20  1  6
 21 23  1  0
 22 21  1  0
 23 24  1  1
 24 18  1  0
 25 23  1  0
 26 25  1  0
 27 25  2  0
M  END
$$$$
