HQV.pdb
     RDKit          3D

 27 27  0  0  1  0  0  0  0  0999 V2000
    7.0633  -17.2704   19.7873 N   0  0  0  0  0  0  0  0  0  0  0  0
    7.7865  -16.2121   20.4467 C   0  0  1  0  0  0  0  0  0  0  0  0
    7.0423  -14.8993   20.2609 C   0  0  0  0  0  0  0  0  0  0  0  0
    7.5896  -14.1855   19.0830 C   0  0  0  0  0  0  0  0  0  0  0  0
    8.6010  -14.6378   18.2809 C   0  0  0  0  0  0  0  0  0  0  0  0
    8.8036  -13.7159   17.3346 N   0  0  0  0  0  0  0  0  0  0  0  0
    7.9471  -12.6957   17.5195 C   0  0  0  0  0  0  0  0  0  0  0  0
    7.1858  -12.9737   18.6031 N   0  0  0  0  0  0  0  0  0  0  0  0
    7.8475  -16.4610   21.9101 C   0  0  0  0  0  0  0  0  0  0  0  0
    6.7848  -16.8117   22.4920 O   0  0  0  0  0  0  0  0  0  0  0  0
   11.8896  -20.2021   22.8139 N   0  0  0  0  0  0  0  0  0  0  0  0
   10.9365  -19.8887   23.8182 C   0  0  0  0  0  0  0  0  0  0  0  0
   11.0664  -20.4245   24.9435 O   0  0  0  0  0  0  0  0  0  0  0  0
    9.8145  -18.9606   23.5690 C   0  0  0  0  0  0  0  0  0  0  0  0
    9.9723  -17.7460   24.4191 C   0  0  0  0  0  0  0  0  0  0  0  0
    9.0122  -16.6476   24.0898 C   0  0  2  0  0  0  0  0  0  0  0  0
    9.0274  -16.3251   22.6743 N   0  0  0  0  0  0  0  0  0  0  0  0
    9.2901  -15.4029   24.8631 C   0  0  0  0  0  0  0  0  0  0  0  0
   10.2935  -14.6872   24.6141 O   0  0  0  0  0  0  0  0  0  0  0  0
    6.3914  -13.5124   27.1764 C   0  0  0  0  0  0  0  0  0  0  0  0
    7.6535  -12.8212   26.7021 C   0  0  2  0  0  0  0  0  0  0  0  0
    7.4478  -12.2644   25.3188 C   0  0  0  0  0  0  0  0  0  0  0  0
    8.7821  -13.8280   26.7006 C   0  0  2  0  0  0  0  0  0  0  0  0
    8.4230  -14.9884   25.9098 N   0  0  0  0  0  0  0  0  0  0  0  0
    9.0674  -14.2853   28.0924 C   0  0  0  0  0  0  0  0  0  0  0  0
    9.6778  -13.4015   28.9586 O   0  0  0  0  0  0  0  0  0  0  0  0
    8.7736  -15.4365   28.4984 O   0  0  0  0  0  0  0  0  0  0  0  0
  2  1  1  6
  3  2  1  0
  4  3  1  0
  5  4  2  0
  6  5  1  0
  7  6  1  0
  7  8  2  0
  8  4  1  0
  9  2  1  0
 10  9  2  0
 11 12  1  0
 12 14  1  0
 13 12  2  0
 14 15  1  0
 16 15  1  6
 16 17  1  0
 17  9  1  0
 18 16  1  0
 18 19  2  0
 21 20  1  6
 21 23  1  0
 22 21  1  0
 23 24  1  6
 24 18  1  0
 25 23  1  0
 26 25  1  0
 27 25  2  0
M  END
$$$$
