HQV.pdb
     RDKit          3D

 27 27  0  0  1  0  0  0  0  0999 V2000
    9.3111  -15.5173   19.5769 N   0  0  0  0  0  0  0  0  0  0  0  0
    8.3604  -14.6883   20.2747 C   0  0  1  0  0  0  0  0  0  0  0  0
    7.0521  -14.6585   19.5007 C   0  0  0  0  0  0  0  0  0  0  0  0
    7.3240  -14.3053   18.0873 C   0  0  0  0  0  0  0  0  0  0  0  0
    7.7532  -13.0848   17.6433 C   0  0  0  0  0  0  0  0  0  0  0  0
    7.8810  -13.1648   16.3152 N   0  0  0  0  0  0  0  0  0  0  0  0
    7.5439  -14.4025   15.9116 C   0  0  0  0  0  0  0  0  0  0  0  0
    7.1952  -15.1229   17.0026 N   0  0  0  0  0  0  0  0  0  0  0  0
    8.0509  -15.2662   21.6079 C   0  0  0  0  0  0  0  0  0  0  0  0
    6.9839  -14.9021   22.1735 O   0  0  0  0  0  0  0  0  0  0  0  0
   10.6406  -20.1218   24.7324 N   0  0  0  0  0  0  0  0  0  0  0  0
    9.9128  -19.4392   25.7422 C   0  0  0  0  0  0  0  0  0  0  0  0
    9.9256  -19.9134   26.9021 O   0  0  0  0  0  0  0  0  0  0  0  0
    9.1540  -18.2036   25.4595 C   0  0  0  0  0  0  0  0  0  0  0  0
    9.3396  -17.8190   24.0311 C   0  0  0  0  0  0  0  0  0  0  0  0
    8.5969  -16.5826   23.6356 C   0  0  2  0  0  0  0  0  0  0  0  0
    8.8862  -16.1951   22.2667 N   0  0  0  0  0  0  0  0  0  0  0  0
    8.9022  -15.4290   24.5301 C   0  0  0  0  0  0  0  0  0  0  0  0
   10.0278  -14.8687   24.5157 O   0  0  0  0  0  0  0  0  0  0  0  0
    6.5085  -12.4185   25.2033 C   0  0  0  0  0  0  0  0  0  0  0  0
    7.0206  -12.9523   26.5256 C   0  0  2  0  0  0  0  0  0  0  0  0
    7.3504  -11.8107   27.4496 C   0  0  0  0  0  0  0  0  0  0  0  0
    8.2534  -13.7880   26.2624 C   0  0  2  0  0  0  0  0  0  0  0  0
    7.9231  -14.9273   25.4295 N   0  0  0  0  0  0  0  0  0  0  0  0
    8.8139  -14.2997   27.5475 C   0  0  0  0  0  0  0  0  0  0  0  0
    9.5907  -13.4488   28.3067 O   0  0  0  0  0  0  0  0  0  0  0  0
    8.6044  -15.4678   27.9579 O   0  0  0  0  0  0  0  0  0  0  0  0
  2  1  1  6
  3  2  1  0
  4  3  1  0
  5  4  2  0
  6  5  1  0
  7  6  1  0
  7  8  2  0
  8  4  1  0
  9  2  1  0
 10  9  2  0
 11 12  1  0
 12 14  1  0
 13 12  2  0
 14 15  1  0
 16 15  1  1
 16 17  1  0
 17  9  1  0
 18 16  1  0
 18 19  2  0
 21 20  1  6
 21 23  1  0
 22 21  1  0
 23 24  1  6
 24 18  1  0
 25 23  1  0
 26 25  1  0
 27 25  2  0
M  END
$$$$
