GAN.pdb
     RDKit          3D

 18 17  0  0  1  0  0  0  0  0999 V2000
    6.6881  -18.1763   19.3599 N   0  0  0  0  0  0  0  0  0  0  0  0
    6.2879  -17.3065   20.4161 C   0  0  0  0  0  0  0  0  0  0  0  0
    7.2928  -16.2870   20.7684 C   0  0  0  0  0  0  0  0  0  0  0  0
    8.4227  -16.3715   20.2205 O   0  0  0  0  0  0  0  0  0  0  0  0
    7.4288  -13.1700   22.8443 C   0  0  0  0  0  0  0  0  0  0  0  0
    8.0503  -14.3590   22.0964 C   0  0  2  0  0  0  0  0  0  0  0  0
    6.9935  -15.2513   21.6905 N   0  0  0  0  0  0  0  0  0  0  0  0
    9.0093  -14.9729   23.0128 C   0  0  0  0  0  0  0  0  0  0  0  0
    9.9903  -14.3056   23.4195 O   0  0  0  0  0  0  0  0  0  0  0  0
   11.3909  -18.2638   26.1020 N   0  0  0  0  0  0  0  0  0  0  0  0
   10.1772  -17.7360   26.6474 C   0  0  0  0  0  0  0  0  0  0  0  0
    9.9829  -17.8788   27.8788 O   0  0  0  0  0  0  0  0  0  0  0  0
    9.2233  -17.0554   25.7381 C   0  0  0  0  0  0  0  0  0  0  0  0
    9.7309  -16.9929   24.3281 C   0  0  2  0  0  0  0  0  0  0  0  0
    8.8167  -16.3134   23.4284 N   0  0  0  0  0  0  0  0  0  0  0  0
   10.0252  -18.3468   23.7922 C   0  0  0  0  0  0  0  0  0  0  0  0
   11.3287  -18.7886   23.5711 O   0  0  0  0  0  0  0  0  0  0  0  0
    9.1059  -19.1584   23.5130 O   0  0  0  0  0  0  0  0  0  0  0  0
  2  1  1  0
  3  2  1  0
  4  3  2  0
  6  5  1  1
  6  7  1  0
  7  3  1  0
  8  9  2  0
  8  6  1  0
 11 10  1  0
 11 13  1  0
 12 11  2  0
 14 13  1  1
 14 15  1  0
 15  8  1  0
 16 14  1  0
 17 16  1  0
 18 16  2  0
M  END
$$$$
