GAN.pdb
     RDKit          3D

 18 17  0  0  1  0  0  0  0  0999 V2000
    4.3830  -20.3137   21.6019 N   0  0  0  0  0  0  0  0  0  0  0  0
    4.6606  -20.1619   22.9919 C   0  0  0  0  0  0  0  0  0  0  0  0
    6.0230  -19.6804   23.2836 C   0  0  0  0  0  0  0  0  0  0  0  0
    6.9861  -20.3668   22.8532 O   0  0  0  0  0  0  0  0  0  0  0  0
    7.5891  -16.6644   24.8566 C   0  0  0  0  0  0  0  0  0  0  0  0
    7.5859  -18.1214   24.3705 C   0  0  2  0  0  0  0  0  0  0  0  0
    6.2362  -18.4879   24.0219 N   0  0  0  0  0  0  0  0  0  0  0  0
    8.1442  -18.9246   25.4565 C   0  0  0  0  0  0  0  0  0  0  0  0
    7.4430  -19.1715   26.4667 O   0  0  0  0  0  0  0  0  0  0  0  0
   11.1145  -21.9343   23.2597 N   0  0  0  0  0  0  0  0  0  0  0  0
   10.5061  -22.0543   24.5498 C   0  0  0  0  0  0  0  0  0  0  0  0
    9.5270  -22.8314   24.6607 O   0  0  0  0  0  0  0  0  0  0  0  0
   11.0588  -21.2626   25.6757 C   0  0  0  0  0  0  0  0  0  0  0  0
   10.0302  -20.3637   26.2951 C   0  0  2  0  0  0  0  0  0  0  0  0
    9.4699  -19.4129   25.3522 N   0  0  0  0  0  0  0  0  0  0  0  0
   10.5796  -19.6264   27.4618 C   0  0  0  0  0  0  0  0  0  0  0  0
   10.5201  -20.1389   28.7567 O   0  0  0  0  0  0  0  0  0  0  0  0
   11.1257  -18.5009   27.3315 O   0  0  0  0  0  0  0  0  0  0  0  0
  2  1  1  0
  3  2  1  0
  4  3  2  0
  6  5  1  1
  6  7  1  0
  7  3  1  0
  8  9  2  0
  8  6  1  0
 11 10  1  0
 11 13  1  0
 12 11  2  0
 14 13  1  6
 14 15  1  0
 15  8  1  0
 16 14  1  0
 17 16  1  0
 18 16  2  0
M  END
$$$$
