GAN.pdb
     RDKit          3D

 18 17  0  0  1  0  0  0  0  0999 V2000
    5.6783  -18.1901   18.7831 N   0  0  0  0  0  0  0  0  0  0  0  0
    5.7272  -17.0982   19.6983 C   0  0  0  0  0  0  0  0  0  0  0  0
    6.7934  -16.1213   19.4117 C   0  0  0  0  0  0  0  0  0  0  0  0
    7.8258  -16.5428   18.8284 O   0  0  0  0  0  0  0  0  0  0  0  0
    7.3419  -12.4397   19.8629 C   0  0  0  0  0  0  0  0  0  0  0  0
    7.8027  -13.8916   19.6654 C   0  0  2  0  0  0  0  0  0  0  0  0
    6.6568  -14.7584   19.7813 N   0  0  0  0  0  0  0  0  0  0  0  0
    8.8277  -14.1450   20.6761 C   0  0  0  0  0  0  0  0  0  0  0  0
    9.9588  -13.6166   20.5558 O   0  0  0  0  0  0  0  0  0  0  0  0
    9.5766  -15.0216   26.4701 N   0  0  0  0  0  0  0  0  0  0  0  0
    9.7375  -15.7744   25.2632 C   0  0  0  0  0  0  0  0  0  0  0  0
   10.6954  -16.5829   25.2059 O   0  0  0  0  0  0  0  0  0  0  0  0
    8.7740  -15.5615   24.1559 C   0  0  0  0  0  0  0  0  0  0  0  0
    9.4583  -15.2025   22.8704 C   0  0  2  0  0  0  0  0  0  0  0  0
    8.5284  -14.9842   21.7775 N   0  0  0  0  0  0  0  0  0  0  0  0
   10.4466  -16.2367   22.4697 C   0  0  0  0  0  0  0  0  0  0  0  0
   11.8210  -16.0214   22.5584 O   0  0  0  0  0  0  0  0  0  0  0  0
   10.0845  -17.3581   22.0304 O   0  0  0  0  0  0  0  0  0  0  0  0
  2  1  1  0
  3  2  1  0
  4  3  2  0
  6  5  1  1
  6  7  1  0
  7  3  1  0
  8  9  2  0
  8  6  1  0
 11 10  1  0
 11 13  1  0
 12 11  2  0
 14 13  1  1
 14 15  1  0
 15  8  1  0
 16 14  1  0
 17 16  1  0
 18 16  2  0
M  END
$$$$
