GAN.pdb
     RDKit          3D

 18 17  0  0  1  0  0  0  0  0999 V2000
    2.1501  -19.9314   20.9522 N   0  0  0  0  0  0  0  0  0  0  0  0
    2.5959  -18.7783   21.6622 C   0  0  0  0  0  0  0  0  0  0  0  0
    3.9617  -18.3478   21.3121 C   0  0  0  0  0  0  0  0  0  0  0  0
    4.7030  -19.1829   20.7317 O   0  0  0  0  0  0  0  0  0  0  0  0
    5.9236  -15.1623   21.3728 C   0  0  0  0  0  0  0  0  0  0  0  0
    5.7796  -16.6897   21.2973 C   0  0  2  0  0  0  0  0  0  0  0  0
    4.4192  -17.0406   21.6196 N   0  0  0  0  0  0  0  0  0  0  0  0
    6.7596  -17.2474   22.2272 C   0  0  0  0  0  0  0  0  0  0  0  0
    7.9836  -17.1276   21.9811 O   0  0  0  0  0  0  0  0  0  0  0  0
    7.4882  -19.1934   27.8364 N   0  0  0  0  0  0  0  0  0  0  0  0
    7.9769  -18.4089   26.7433 C   0  0  0  0  0  0  0  0  0  0  0  0
    9.2137  -18.2065   26.6804 O   0  0  0  0  0  0  0  0  0  0  0  0
    7.0063  -17.8822   25.7532 C   0  0  0  0  0  0  0  0  0  0  0  0
    7.2252  -18.4556   24.3847 C   0  0  2  0  0  0  0  0  0  0  0  0
    6.3125  -17.9157   23.3936 N   0  0  0  0  0  0  0  0  0  0  0  0
    7.1183  -19.9373   24.3891 C   0  0  0  0  0  0  0  0  0  0  0  0
    8.2115  -20.7595   24.1202 O   0  0  0  0  0  0  0  0  0  0  0  0
    6.0307  -20.5181   24.6369 O   0  0  0  0  0  0  0  0  0  0  0  0
  2  1  1  0
  3  2  1  0
  4  3  2  0
  6  5  1  1
  6  7  1  0
  7  3  1  0
  8  9  2  0
  8  6  1  0
 11 10  1  0
 11 13  1  0
 12 11  2  0
 14 13  1  1
 14 15  1  0
 15  8  1  0
 16 14  1  0
 17 16  1  0
 18 16  2  0
M  END
$$$$
