GAN.pdb
     RDKit          3D

 18 17  0  0  1  0  0  0  0  0999 V2000
    8.4045  -17.0285   15.9149 N   0  0  0  0  0  0  0  0  0  0  0  0
    7.6174  -16.3107   16.8622 C   0  0  0  0  0  0  0  0  0  0  0  0
    8.3568  -15.2597   17.5846 C   0  0  0  0  0  0  0  0  0  0  0  0
    9.6068  -15.2264   17.4419 O   0  0  0  0  0  0  0  0  0  0  0  0
    7.5078  -12.3038   19.7293 C   0  0  0  0  0  0  0  0  0  0  0  0
    8.4601  -13.3530   19.1364 C   0  0  2  0  0  0  0  0  0  0  0  0
    7.6811  -14.3231   18.4086 N   0  0  0  0  0  0  0  0  0  0  0  0
    9.2003  -13.9260   20.2589 C   0  0  0  0  0  0  0  0  0  0  0  0
   10.0402  -13.2224   20.8694 O   0  0  0  0  0  0  0  0  0  0  0  0
    9.5886  -14.2458   24.0292 N   0  0  0  0  0  0  0  0  0  0  0  0
    8.5961  -15.2773   24.0202 C   0  0  0  0  0  0  0  0  0  0  0  0
    7.8051  -15.3313   24.9927 O   0  0  0  0  0  0  0  0  0  0  0  0
    8.5555  -16.2181   22.8742 C   0  0  0  0  0  0  0  0  0  0  0  0
    9.5609  -15.8680   21.8177 C   0  0  2  0  0  0  0  0  0  0  0  0
    8.9583  -15.2684   20.6412 N   0  0  0  0  0  0  0  0  0  0  0  0
   10.3575  -17.0526   21.4068 C   0  0  0  0  0  0  0  0  0  0  0  0
   11.5091  -17.4433   22.0883 O   0  0  0  0  0  0  0  0  0  0  0  0
   10.0259  -17.7589   20.4205 O   0  0  0  0  0  0  0  0  0  0  0  0
  2  1  1  0
  3  2  1  0
  4  3  2  0
  6  5  1  1
  6  7  1  0
  7  3  1  0
  8  9  2  0
  8  6  1  0
 11 10  1  0
 11 13  1  0
 12 11  2  0
 14 13  1  1
 14 15  1  0
 15  8  1  0
 16 14  1  0
 17 16  1  0
 18 16  2  0
M  END
$$$$
