GAN.pdb
     RDKit          3D

 18 17  0  0  1  0  0  0  0  0999 V2000
   -5.3148  -16.8977   16.4459 N   0  0  0  0  0  0  0  0  0  0  0  0
   -5.9646  -17.3748   17.6216 C   0  0  0  0  0  0  0  0  0  0  0  0
   -7.1380  -16.5788   18.0249 C   0  0  0  0  0  0  0  0  0  0  0  0
   -7.4142  -15.5618   17.3368 O   0  0  0  0  0  0  0  0  0  0  0  0
   -9.8819  -16.8799   20.5655 C   0  0  0  0  0  0  0  0  0  0  0  0
   -9.0833  -16.1562   19.4712 C   0  0  2  0  0  0  0  0  0  0  0  0
   -7.9236  -16.9484   19.1468 N   0  0  0  0  0  0  0  0  0  0  0  0
   -8.7544  -14.8340   20.0003 C   0  0  0  0  0  0  0  0  0  0  0  0
   -7.7409  -14.6926   20.7255 O   0  0  0  0  0  0  0  0  0  0  0  0
   -8.4398   -9.7946   20.5635 N   0  0  0  0  0  0  0  0  0  0  0  0
   -7.5882  -10.5297   19.6785 C   0  0  0  0  0  0  0  0  0  0  0  0
   -6.5726   -9.9449   19.2299 O   0  0  0  0  0  0  0  0  0  0  0  0
   -7.9469  -11.9290   19.3419 C   0  0  0  0  0  0  0  0  0  0  0  0
   -9.2221  -12.3617   20.0026 C   0  0  2  0  0  0  0  0  0  0  0  0
   -9.5857  -13.7308   19.6861 N   0  0  0  0  0  0  0  0  0  0  0  0
  -10.3522  -11.4639   19.6510 C   0  0  0  0  0  0  0  0  0  0  0  0
  -10.4398  -10.1594   20.1345 O   0  0  0  0  0  0  0  0  0  0  0  0
  -11.2847  -11.8437   18.8974 O   0  0  0  0  0  0  0  0  0  0  0  0
  2  1  1  0
  3  2  1  0
  4  3  2  0
  6  5  1  1
  6  7  1  0
  7  3  1  0
  8  9  2  0
  8  6  1  0
 11 10  1  0
 11 13  1  0
 12 11  2  0
 14 13  1  6
 14 15  1  0
 15  8  1  0
 16 14  1  0
 17 16  1  0
 18 16  2  0
M  END
$$$$
