GAN.pdb
     RDKit          3D

 18 17  0  0  1  0  0  0  0  0999 V2000
    8.2413  -17.6184   17.1263 N   0  0  0  0  0  0  0  0  0  0  0  0
    7.4253  -16.7435   17.9014 C   0  0  0  0  0  0  0  0  0  0  0  0
    8.1694  -15.6561   18.5626 C   0  0  0  0  0  0  0  0  0  0  0  0
    9.4165  -15.7873   18.6698 O   0  0  0  0  0  0  0  0  0  0  0  0
    7.3625  -12.3204   20.0838 C   0  0  0  0  0  0  0  0  0  0  0  0
    8.2551  -13.5419   19.8184 C   0  0  2  0  0  0  0  0  0  0  0  0
    7.5012  -14.5069   19.0581 N   0  0  0  0  0  0  0  0  0  0  0  0
    8.6830  -14.0375   21.1252 C   0  0  0  0  0  0  0  0  0  0  0  0
    9.4365  -13.3321   21.8377 O   0  0  0  0  0  0  0  0  0  0  0  0
    6.5386  -17.1421   25.8366 N   0  0  0  0  0  0  0  0  0  0  0  0
    7.5928  -16.5469   25.0728 C   0  0  0  0  0  0  0  0  0  0  0  0
    8.7326  -16.4977   25.5952 O   0  0  0  0  0  0  0  0  0  0  0  0
    7.2857  -16.0252   23.7188 C   0  0  0  0  0  0  0  0  0  0  0  0
    8.5236  -15.8159   22.8980 C   0  0  2  0  0  0  0  0  0  0  0  0
    8.2401  -15.3081   21.5681 N   0  0  0  0  0  0  0  0  0  0  0  0
    9.3211  -17.0639   22.7831 C   0  0  0  0  0  0  0  0  0  0  0  0
   10.2717  -17.4258   23.7363 O   0  0  0  0  0  0  0  0  0  0  0  0
    9.1726  -17.8532   21.8153 O   0  0  0  0  0  0  0  0  0  0  0  0
  2  1  1  0
  3  2  1  0
  4  3  2  0
  6  5  1  1
  6  7  1  0
  7  3  1  0
  8  9  2  0
  8  6  1  0
 11 10  1  0
 11 13  1  0
 12 11  2  0
 14 13  1  6
 14 15  1  0
 15  8  1  0
 16 14  1  0
 17 16  1  0
 18 16  2  0
M  END
$$$$
