EEA.pdb
     RDKit          3D

 24 23  0  0  1  0  0  0  0  0999 V2000
   15.4045  -10.4068  -13.4677 N   0  0  0  0  0  0  0  0  0  0  0  0
   15.8039   -9.4533  -14.4854 C   0  0  1  0  0  0  0  0  0  0  0  0
   15.0612   -8.1765  -14.2452 C   0  0  0  0  0  0  0  0  0  0  0  0
   13.6108   -8.2059  -14.5923 C   0  0  0  0  0  0  0  0  0  0  0  0
   12.9091   -6.9252  -14.4334 C   0  0  0  0  0  0  0  0  0  0  0  0
   12.7823   -6.1274  -15.3810 O   0  0  0  0  0  0  0  0  0  0  0  0
   17.2537   -9.1465  -14.4104 C   0  0  0  0  0  0  0  0  0  0  0  0
   17.8421   -9.3286  -13.3225 O   0  0  0  0  0  0  0  0  0  0  0  0
   12.3787   -6.6008  -13.2038 O   0  0  0  0  0  0  0  0  0  0  0  0
   17.9860   -8.6627  -15.5067 N   0  0  0  0  0  0  0  0  0  0  0  0
   19.4310   -8.4484  -15.3640 C   0  0  1  0  0  0  0  0  0  0  0  0
   20.1463   -8.9976  -16.5496 C   0  0  0  0  0  0  0  0  0  0  0  0
   20.2712  -10.4870  -16.6136 C   0  0  0  0  0  0  0  0  0  0  0  0
   21.0007  -10.9379  -17.8202 C   0  0  0  0  0  0  0  0  0  0  0  0
   21.5772  -10.2104  -18.6519 O   0  0  0  0  0  0  0  0  0  0  0  0
   19.7199   -7.0337  -15.0468 C   0  0  0  0  0  0  0  0  0  0  0  0
   19.0694   -6.1052  -15.5743 O   0  0  0  0  0  0  0  0  0  0  0  0
   21.0544  -12.3226  -18.0611 O   0  0  0  0  0  0  0  0  0  0  0  0
   21.9641   -5.2715  -12.5786 C   0  0  0  0  0  0  0  0  0  0  0  0
   21.0010   -5.2634  -13.7728 C   0  0  2  0  0  0  0  0  0  0  0  0
   20.7470   -6.6394  -14.1295 N   0  0  0  0  0  0  0  0  0  0  0  0
   21.5783   -4.4820  -14.8816 C   0  0  0  0  0  0  0  0  0  0  0  0
   21.4916   -3.0997  -14.9649 O   0  0  0  0  0  0  0  0  0  0  0  0
   22.1853   -5.0663  -15.8132 O   0  0  0  0  0  0  0  0  0  0  0  0
  2  1  1  1
  2  3  1  0
  3  4  1  0
  4  5  1  0
  5  9  1  0
  6  5  2  0
  7  2  1  0
  7  8  2  0
 10  7  1  0
 11 10  1  0
 11 16  1  0
 11 12  1  6
 13 12  1  0
 13 14  1  0
 14 15  2  0
 16 17  2  0
 16 21  1  0
 18 14  1  0
 20 19  1  1
 20 22  1  0
 21 20  1  0
 22 24  2  0
 22 23  1  0
M  END
$$$$
