EEA.pdb
     RDKit          3D

 24 23  0  0  1  0  0  0  0  0999 V2000
   20.5551  -12.7527  -16.6152 N   0  0  0  0  0  0  0  0  0  0  0  0
   20.0013  -11.4119  -16.6269 C   0  0  1  0  0  0  0  0  0  0  0  0
   18.9145  -11.3473  -15.6001 C   0  0  0  0  0  0  0  0  0  0  0  0
   17.7054  -12.1689  -15.8968 C   0  0  0  0  0  0  0  0  0  0  0  0
   16.6453  -12.1010  -14.8822 C   0  0  0  0  0  0  0  0  0  0  0  0
   15.6499  -12.8477  -14.9261 O   0  0  0  0  0  0  0  0  0  0  0  0
   21.0191  -10.3953  -16.2633 C   0  0  0  0  0  0  0  0  0  0  0  0
   22.2104  -10.7602  -16.1606 O   0  0  0  0  0  0  0  0  0  0  0  0
   16.7575  -11.1871  -13.8571 O   0  0  0  0  0  0  0  0  0  0  0  0
   20.6985   -9.0478  -16.0313 N   0  0  0  0  0  0  0  0  0  0  0  0
   21.7696   -8.0445  -16.0450 C   0  0  1  0  0  0  0  0  0  0  0  0
   22.5440   -8.1442  -17.3135 C   0  0  0  0  0  0  0  0  0  0  0  0
   23.6477   -7.1502  -17.4930 C   0  0  0  0  0  0  0  0  0  0  0  0
   24.3085   -7.2770  -18.8115 C   0  0  0  0  0  0  0  0  0  0  0  0
   24.0191   -6.6488  -19.8483 O   0  0  0  0  0  0  0  0  0  0  0  0
   21.2322   -6.7032  -15.7326 C   0  0  0  0  0  0  0  0  0  0  0  0
   20.3735   -6.1626  -16.4632 O   0  0  0  0  0  0  0  0  0  0  0  0
   25.3694   -8.1947  -18.9152 O   0  0  0  0  0  0  0  0  0  0  0  0
   21.6164   -4.2808  -12.8643 C   0  0  0  0  0  0  0  0  0  0  0  0
   21.1270   -4.6397  -14.2735 C   0  0  2  0  0  0  0  0  0  0  0  0
   21.6524   -5.9465  -14.5912 N   0  0  0  0  0  0  0  0  0  0  0  0
   21.5496   -3.6039  -15.2336 C   0  0  0  0  0  0  0  0  0  0  0  0
   20.9112   -2.3786  -15.3618 O   0  0  0  0  0  0  0  0  0  0  0  0
   22.5328   -3.8095  -15.9878 O   0  0  0  0  0  0  0  0  0  0  0  0
  2  1  1  1
  2  3  1  0
  3  4  1  0
  4  5  1  0
  5  9  1  0
  6  5  2  0
  7  2  1  0
  7  8  2  0
 10  7  1  0
 11 10  1  0
 11 16  1  0
 11 12  1  6
 13 12  1  0
 13 14  1  0
 14 15  2  0
 16 17  2  0
 16 21  1  0
 18 14  1  0
 20 19  1  1
 20 22  1  0
 21 20  1  0
 22 24  2  0
 22 23  1  0
M  END
$$$$
