EEA.pdb
     RDKit          3D

 24 23  0  0  1  0  0  0  0  0999 V2000
   29.4475  -36.6793   -4.9151 N   0  0  0  0  0  0  0  0  0  0  0  0
   29.4178  -35.5706   -3.9800 C   0  0  1  0  0  0  0  0  0  0  0  0
   28.1007  -34.8749   -4.1234 C   0  0  0  0  0  0  0  0  0  0  0  0
   27.8768  -34.1938   -5.4314 C   0  0  0  0  0  0  0  0  0  0  0  0
   26.5217  -33.6628   -5.6302 C   0  0  0  0  0  0  0  0  0  0  0  0
   25.6733  -33.6786   -4.7189 O   0  0  0  0  0  0  0  0  0  0  0  0
   29.5256  -36.0356   -2.5751 C   0  0  0  0  0  0  0  0  0  0  0  0
   28.9584  -37.1040   -2.2596 O   0  0  0  0  0  0  0  0  0  0  0  0
   26.1831  -33.1346   -6.8569 O   0  0  0  0  0  0  0  0  0  0  0  0
   30.2354  -35.3268   -1.5922 N   0  0  0  0  0  0  0  0  0  0  0  0
   30.1755  -35.7815   -0.1980 C   0  0  1  0  0  0  0  0  0  0  0  0
   31.4500  -35.4535    0.4995 C   0  0  0  0  0  0  0  0  0  0  0  0
   32.6506  -36.2457    0.0880 C   0  0  0  0  0  0  0  0  0  0  0  0
   33.8759  -35.8193    0.8007 C   0  0  0  0  0  0  0  0  0  0  0  0
   34.4051  -34.6918    0.7542 O   0  0  0  0  0  0  0  0  0  0  0  0
   28.9465  -35.2885    0.4593 C   0  0  0  0  0  0  0  0  0  0  0  0
   28.5217  -34.1304    0.2544 O   0  0  0  0  0  0  0  0  0  0  0  0
   34.5138  -36.7735    1.6137 O   0  0  0  0  0  0  0  0  0  0  0  0
   26.0015  -36.8705    2.0170 C   0  0  0  0  0  0  0  0  0  0  0  0
   26.9273  -35.6495    1.9394 C   0  0  2  0  0  0  0  0  0  0  0  0
   28.1737  -36.0913    1.3594 N   0  0  0  0  0  0  0  0  0  0  0  0
   27.0970  -35.0589    3.2793 C   0  0  0  0  0  0  0  0  0  0  0  0
   28.3222  -34.9762    3.9253 O   0  0  0  0  0  0  0  0  0  0  0  0
   26.1030  -34.5986    3.8940 O   0  0  0  0  0  0  0  0  0  0  0  0
  2  1  1  6
  2  3  1  0
  3  4  1  0
  4  5  1  0
  5  9  1  0
  6  5  2  0
  7  2  1  0
  7  8  2  0
 10  7  1  0
 11 10  1  0
 11 16  1  0
 11 12  1  1
 13 12  1  0
 13 14  1  0
 14 15  2  0
 16 17  2  0
 16 21  1  0
 18 14  1  0
 20 19  1  1
 20 22  1  0
 21 20  1  0
 22 24  2  0
 22 23  1  0
M  END
$$$$
