EEA.pdb
     RDKit          3D

 24 23  0  0  1  0  0  0  0  0999 V2000
   21.4975  -12.3246  -16.6396 N   0  0  0  0  0  0  0  0  0  0  0  0
   21.0426  -11.4767  -15.5539 C   0  0  1  0  0  0  0  0  0  0  0  0
   22.2329  -10.7733  -14.9814 C   0  0  0  0  0  0  0  0  0  0  0  0
   22.9853   -9.9094  -15.9366 C   0  0  0  0  0  0  0  0  0  0  0  0
   22.7596   -8.4666  -15.7779 C   0  0  0  0  0  0  0  0  0  0  0  0
   22.0446   -8.0135  -14.8646 O   0  0  0  0  0  0  0  0  0  0  0  0
   20.0968  -10.4371  -16.0298 C   0  0  0  0  0  0  0  0  0  0  0  0
   20.0971  -10.1482  -17.2462 O   0  0  0  0  0  0  0  0  0  0  0  0
   23.3550   -7.5946  -16.6631 O   0  0  0  0  0  0  0  0  0  0  0  0
   19.2071   -9.7692  -15.1728 N   0  0  0  0  0  0  0  0  0  0  0  0
   18.2543   -8.8068  -15.7387 C   0  0  1  0  0  0  0  0  0  0  0  0
   16.8837   -9.0870  -15.2272 C   0  0  0  0  0  0  0  0  0  0  0  0
   16.2268  -10.3276  -15.7444 C   0  0  0  0  0  0  0  0  0  0  0  0
   14.8530  -10.4960  -15.2197 C   0  0  0  0  0  0  0  0  0  0  0  0
   14.4788  -10.2991  -14.0473 O   0  0  0  0  0  0  0  0  0  0  0  0
   18.7340   -7.4220  -15.5448 C   0  0  0  0  0  0  0  0  0  0  0  0
   19.1884   -7.0416  -14.4436 O   0  0  0  0  0  0  0  0  0  0  0  0
   13.8643  -10.9200  -16.1259 O   0  0  0  0  0  0  0  0  0  0  0  0
   19.1484   -4.4033  -17.7777 C   0  0  0  0  0  0  0  0  0  0  0  0
   19.1514   -5.0784  -16.4000 C   0  0  2  0  0  0  0  0  0  0  0  0
   18.7107   -6.4406  -16.5878 N   0  0  0  0  0  0  0  0  0  0  0  0
   18.2960   -4.3237  -15.4662 C   0  0  0  0  0  0  0  0  0  0  0  0
   18.7222   -3.1891  -14.7908 O   0  0  0  0  0  0  0  0  0  0  0  0
   17.1175   -4.7002  -15.2489 O   0  0  0  0  0  0  0  0  0  0  0  0
  2  1  1  6
  2  3  1  0
  3  4  1  0
  4  5  1  0
  5  9  1  0
  6  5  2  0
  7  2  1  0
  7  8  2  0
 10  7  1  0
 11 10  1  0
 11 16  1  0
 11 12  1  1
 13 12  1  0
 13 14  1  0
 14 15  2  0
 16 17  2  0
 16 21  1  0
 18 14  1  0
 20 19  1  6
 20 22  1  0
 21 20  1  0
 22 24  2  0
 22 23  1  0
M  END
$$$$
