EEA.pdb
     RDKit          3D

 24 23  0  0  1  0  0  0  0  0999 V2000
   18.0798  -11.2992  -14.4803 N   0  0  0  0  0  0  0  0  0  0  0  0
   17.5262   -9.9704  -14.3008 C   0  0  1  0  0  0  0  0  0  0  0  0
   16.0340  -10.0779  -14.3382 C   0  0  0  0  0  0  0  0  0  0  0  0
   15.4669  -10.6683  -15.5851 C   0  0  0  0  0  0  0  0  0  0  0  0
   14.0005  -10.6493  -15.6690 C   0  0  0  0  0  0  0  0  0  0  0  0
   13.2976  -10.2290  -14.7310 O   0  0  0  0  0  0  0  0  0  0  0  0
   17.8987   -9.3946  -12.9850 C   0  0  0  0  0  0  0  0  0  0  0  0
   18.0997  -10.1775  -12.0313 O   0  0  0  0  0  0  0  0  0  0  0  0
   13.3897  -11.1087  -16.8154 O   0  0  0  0  0  0  0  0  0  0  0  0
   18.0335   -8.0132  -12.7705 N   0  0  0  0  0  0  0  0  0  0  0  0
   18.4535   -7.5315  -11.4492 C   0  0  1  0  0  0  0  0  0  0  0  0
   19.7797   -6.8611  -11.5499 C   0  0  0  0  0  0  0  0  0  0  0  0
   20.1173   -6.2619  -12.8785 C   0  0  0  0  0  0  0  0  0  0  0  0
   21.3997   -5.5229  -12.8516 C   0  0  0  0  0  0  0  0  0  0  0  0
   21.6190   -4.4413  -12.2726 O   0  0  0  0  0  0  0  0  0  0  0  0
   17.3821   -6.7292  -10.8215 C   0  0  0  0  0  0  0  0  0  0  0  0
   16.7924   -5.8267  -11.4550 O   0  0  0  0  0  0  0  0  0  0  0  0
   22.4845   -6.0890  -13.5452 O   0  0  0  0  0  0  0  0  0  0  0  0
   15.7171   -6.6990   -7.4264 C   0  0  0  0  0  0  0  0  0  0  0  0
   15.8721   -6.1895   -8.8653 C   0  0  2  0  0  0  0  0  0  0  0  0
   16.9554   -6.9292   -9.4689 N   0  0  0  0  0  0  0  0  0  0  0  0
   16.1044   -4.7338   -8.8631 C   0  0  0  0  0  0  0  0  0  0  0  0
   17.3202   -4.1562   -9.1997 O   0  0  0  0  0  0  0  0  0  0  0  0
   15.1760   -3.9496   -8.5454 O   0  0  0  0  0  0  0  0  0  0  0  0
  2  1  1  1
  2  3  1  0
  3  4  1  0
  4  5  1  0
  5  9  1  0
  6  5  2  0
  7  2  1  0
  7  8  2  0
 10  7  1  0
 11 10  1  0
 11 16  1  0
 11 12  1  6
 13 12  1  0
 13 14  1  0
 14 15  2  0
 16 17  2  0
 16 21  1  0
 18 14  1  0
 20 19  1  1
 20 22  1  0
 21 20  1  0
 22 24  2  0
 22 23  1  0
M  END
$$$$
