EEA.pdb
     RDKit          3D

 24 23  0  0  1  0  0  0  0  0999 V2000
   21.6347  -10.4886  -16.6013 N   0  0  0  0  0  0  0  0  0  0  0  0
   21.4827   -9.4199  -15.6323 C   0  0  1  0  0  0  0  0  0  0  0  0
   22.7893   -8.6983  -15.5251 C   0  0  0  0  0  0  0  0  0  0  0  0
   23.9884   -9.4827  -15.9399 C   0  0  0  0  0  0  0  0  0  0  0  0
   25.2503   -8.7308  -15.9438 C   0  0  0  0  0  0  0  0  0  0  0  0
   25.3479   -7.6206  -16.4993 O   0  0  0  0  0  0  0  0  0  0  0  0
   20.4619   -8.4321  -16.0612 C   0  0  0  0  0  0  0  0  0  0  0  0
   20.2997   -8.2419  -17.2861 O   0  0  0  0  0  0  0  0  0  0  0  0
   26.3523   -9.2696  -15.3164 O   0  0  0  0  0  0  0  0  0  0  0  0
   19.6758   -7.7072  -15.1508 N   0  0  0  0  0  0  0  0  0  0  0  0
   18.6762   -6.7620  -15.6621 C   0  0  1  0  0  0  0  0  0  0  0  0
   17.3295   -7.1067  -15.1271 C   0  0  0  0  0  0  0  0  0  0  0  0
   16.6871   -8.3323  -15.6957 C   0  0  0  0  0  0  0  0  0  0  0  0
   15.3436   -8.5782  -15.1251 C   0  0  0  0  0  0  0  0  0  0  0  0
   14.4779   -7.7181  -14.8718 O   0  0  0  0  0  0  0  0  0  0  0  0
   19.1122   -5.3678  -15.4351 C   0  0  0  0  0  0  0  0  0  0  0  0
   19.5361   -4.9947  -14.3195 O   0  0  0  0  0  0  0  0  0  0  0  0
   15.0000   -9.9113  -14.8364 O   0  0  0  0  0  0  0  0  0  0  0  0
   19.3910   -2.2592  -17.5614 C   0  0  0  0  0  0  0  0  0  0  0  0
   19.2933   -2.9643  -16.2022 C   0  0  2  0  0  0  0  0  0  0  0  0
   19.0787   -4.3686  -16.4609 N   0  0  0  0  0  0  0  0  0  0  0  0
   18.2171   -2.3598  -15.3962 C   0  0  0  0  0  0  0  0  0  0  0  0
   17.0501   -3.0302  -15.0590 O   0  0  0  0  0  0  0  0  0  0  0  0
   18.3312   -1.1807  -14.9784 O   0  0  0  0  0  0  0  0  0  0  0  0
  2  1  1  6
  2  3  1  0
  3  4  1  0
  4  5  1  0
  5  9  1  0
  6  5  2  0
  7  2  1  0
  7  8  2  0
 10  7  1  0
 11 10  1  0
 11 16  1  0
 11 12  1  1
 13 12  1  0
 13 14  1  0
 14 15  2  0
 16 17  2  0
 16 21  1  0
 18 14  1  0
 20 19  1  6
 20 22  1  0
 21 20  1  0
 22 24  2  0
 22 23  1  0
M  END
$$$$
