EEA.pdb
     RDKit          3D

 24 23  0  0  1  0  0  0  0  0999 V2000
   17.7854  -12.6294  -16.8737 N   0  0  0  0  0  0  0  0  0  0  0  0
   17.5206  -11.2477  -16.5196 C   0  0  1  0  0  0  0  0  0  0  0  0
   16.7690  -11.2338  -15.2257 C   0  0  0  0  0  0  0  0  0  0  0  0
   15.3967  -11.8162  -15.2775 C   0  0  0  0  0  0  0  0  0  0  0  0
   14.6697  -11.8049  -14.0011 C   0  0  0  0  0  0  0  0  0  0  0  0
   13.9839  -10.8273  -13.6482 O   0  0  0  0  0  0  0  0  0  0  0  0
   18.7762  -10.4843  -16.3140 C   0  0  0  0  0  0  0  0  0  0  0  0
   19.7974  -11.1095  -15.9544 O   0  0  0  0  0  0  0  0  0  0  0  0
   14.7503  -12.9048  -13.1752 O   0  0  0  0  0  0  0  0  0  0  0  0
   18.8618   -9.0958  -16.5062 N   0  0  0  0  0  0  0  0  0  0  0  0
   20.1606   -8.4302  -16.3506 C   0  0  1  0  0  0  0  0  0  0  0  0
   20.5893   -7.8409  -17.6496 C   0  0  0  0  0  0  0  0  0  0  0  0
   21.4191   -8.7196  -18.5313 C   0  0  0  0  0  0  0  0  0  0  0  0
   21.8256   -8.0378  -19.7808 C   0  0  0  0  0  0  0  0  0  0  0  0
   22.9512   -8.0792  -20.3143 O   0  0  0  0  0  0  0  0  0  0  0  0
   20.1336   -7.4943  -15.2065 C   0  0  0  0  0  0  0  0  0  0  0  0
   19.2255   -6.6430  -15.0867 O   0  0  0  0  0  0  0  0  0  0  0  0
   20.8526   -7.2642  -20.4389 O   0  0  0  0  0  0  0  0  0  0  0  0
   21.9799   -7.2513  -11.9467 C   0  0  0  0  0  0  0  0  0  0  0  0
   21.0757   -6.6348  -13.0220 C   0  0  2  0  0  0  0  0  0  0  0  0
   21.1290   -7.5005  -14.1765 N   0  0  0  0  0  0  0  0  0  0  0  0
   21.5106   -5.2579  -13.3185 C   0  0  0  0  0  0  0  0  0  0  0  0
   21.2755   -4.1857  -12.4697 O   0  0  0  0  0  0  0  0  0  0  0  0
   22.1270   -5.0090  -14.3843 O   0  0  0  0  0  0  0  0  0  0  0  0
  2  1  1  1
  2  3  1  0
  3  4  1  0
  4  5  1  0
  5  9  1  0
  6  5  2  0
  7  2  1  0
  7  8  2  0
 10  7  1  0
 11 10  1  0
 11 16  1  0
 11 12  1  6
 13 12  1  0
 13 14  1  0
 14 15  2  0
 16 17  2  0
 16 21  1  0
 18 14  1  0
 20 19  1  1
 20 22  1  0
 21 20  1  0
 22 24  2  0
 22 23  1  0
M  END
$$$$
