EEA.pdb
     RDKit          3D

 24 23  0  0  1  0  0  0  0  0999 V2000
   27.7703  -21.2009  -17.1137 N   0  0  0  0  0  0  0  0  0  0  0  0
   27.5167  -20.2684  -16.0317 C   0  0  1  0  0  0  0  0  0  0  0  0
   27.0329  -18.9836  -16.6271 C   0  0  0  0  0  0  0  0  0  0  0  0
   26.5928  -19.0644  -18.0500 C   0  0  0  0  0  0  0  0  0  0  0  0
   27.2715  -18.1348  -18.9628 C   0  0  0  0  0  0  0  0  0  0  0  0
   28.4493  -18.3164  -19.3238 O   0  0  0  0  0  0  0  0  0  0  0  0
   26.4571  -20.7634  -15.1185 C   0  0  0  0  0  0  0  0  0  0  0  0
   25.6785  -21.6468  -15.5385 O   0  0  0  0  0  0  0  0  0  0  0  0
   26.5854  -17.0350  -19.4299 O   0  0  0  0  0  0  0  0  0  0  0  0
   26.2957  -20.2814  -13.8094 N   0  0  0  0  0  0  0  0  0  0  0  0
   25.2688  -20.8794  -12.9478 C   0  0  1  0  0  0  0  0  0  0  0  0
   25.6835  -20.7837  -11.5204 C   0  0  0  0  0  0  0  0  0  0  0  0
   24.6905  -21.2662  -10.5108 C   0  0  0  0  0  0  0  0  0  0  0  0
   25.1723  -21.0928   -9.1219 C   0  0  0  0  0  0  0  0  0  0  0  0
   24.5087  -21.2642   -8.0811 O   0  0  0  0  0  0  0  0  0  0  0  0
   23.9358  -20.3221  -13.2609 C   0  0  0  0  0  0  0  0  0  0  0  0
   23.7564  -19.0888  -13.3625 O   0  0  0  0  0  0  0  0  0  0  0  0
   26.5104  -20.6953   -8.9489 O   0  0  0  0  0  0  0  0  0  0  0  0
   20.7133  -21.6686  -14.5646 C   0  0  0  0  0  0  0  0  0  0  0  0
   21.4718  -20.6081  -13.7560 C   0  0  2  0  0  0  0  0  0  0  0  0
   22.7807  -21.1441  -13.4652 N   0  0  0  0  0  0  0  0  0  0  0  0
   20.7125  -20.2612  -12.5410 C   0  0  0  0  0  0  0  0  0  0  0  0
   19.5918  -19.4432  -12.5512 O   0  0  0  0  0  0  0  0  0  0  0  0
   21.0719  -20.7120  -11.4250 O   0  0  0  0  0  0  0  0  0  0  0  0
  2  1  1  6
  2  3  1  0
  3  4  1  0
  4  5  1  0
  5  9  1  0
  6  5  2  0
  7  2  1  0
  7  8  2  0
 10  7  1  0
 11 10  1  0
 11 16  1  0
 11 12  1  1
 13 12  1  0
 13 14  1  0
 14 15  2  0
 16 17  2  0
 16 21  1  0
 18 14  1  0
 20 19  1  1
 20 22  1  0
 21 20  1  0
 22 24  2  0
 22 23  1  0
M  END
$$$$
