EEA.pdb
     RDKit          3D

 24 23  0  0  1  0  0  0  0  0999 V2000
   14.0805  -10.1610  -16.4778 N   0  0  0  0  0  0  0  0  0  0  0  0
   15.1046  -10.1415  -15.4505 C   0  0  1  0  0  0  0  0  0  0  0  0
   15.4087  -11.5560  -15.0683 C   0  0  0  0  0  0  0  0  0  0  0  0
   14.3482  -12.2466  -14.2788 C   0  0  0  0  0  0  0  0  0  0  0  0
   14.6978  -13.5972  -13.8190 C   0  0  0  0  0  0  0  0  0  0  0  0
   15.8211  -13.8572  -13.3489 O   0  0  0  0  0  0  0  0  0  0  0  0
   16.3645   -9.5325  -15.9442 C   0  0  0  0  0  0  0  0  0  0  0  0
   16.6907   -9.7294  -17.1348 O   0  0  0  0  0  0  0  0  0  0  0  0
   13.7574  -14.6001  -13.9115 O   0  0  0  0  0  0  0  0  0  0  0  0
   17.1994   -8.7487  -15.1313 N   0  0  0  0  0  0  0  0  0  0  0  0
   18.4142   -8.1612  -15.7086 C   0  0  1  0  0  0  0  0  0  0  0  0
   18.4384   -6.6932  -15.4575 C   0  0  0  0  0  0  0  0  0  0  0  0
   19.6610   -5.9647  -15.9186 C   0  0  0  0  0  0  0  0  0  0  0  0
   19.6347   -4.5321  -15.5468 C   0  0  0  0  0  0  0  0  0  0  0  0
   18.7370   -3.9493  -14.9083 O   0  0  0  0  0  0  0  0  0  0  0  0
   19.6140   -8.9016  -15.2640 C   0  0  0  0  0  0  0  0  0  0  0  0
   19.8720   -9.0484  -14.0493 O   0  0  0  0  0  0  0  0  0  0  0  0
   20.7263   -3.7416  -15.9491 O   0  0  0  0  0  0  0  0  0  0  0  0
   22.0479  -11.2427  -16.8339 C   0  0  0  0  0  0  0  0  0  0  0  0
   21.7287  -10.1997  -15.7550 C   0  0  2  0  0  0  0  0  0  0  0  0
   20.5450   -9.4902  -16.1797 N   0  0  0  0  0  0  0  0  0  0  0  0
   22.8874   -9.3109  -15.5537 C   0  0  0  0  0  0  0  0  0  0  0  0
   23.9872   -9.6566  -14.7815 O   0  0  0  0  0  0  0  0  0  0  0  0
   22.9115   -8.1773  -16.0942 O   0  0  0  0  0  0  0  0  0  0  0  0
  2  1  1  6
  2  3  1  0
  3  4  1  0
  4  5  1  0
  5  9  1  0
  6  5  2  0
  7  2  1  0
  7  8  2  0
 10  7  1  0
 11 10  1  0
 11 16  1  0
 11 12  1  1
 13 12  1  0
 13 14  1  0
 14 15  2  0
 16 17  2  0
 16 21  1  0
 18 14  1  0
 20 19  1  6
 20 22  1  0
 21 20  1  0
 22 24  2  0
 22 23  1  0
M  END
$$$$
