MVN.pdb
     RDKit          3D

 24 23  0  0  1  0  0  0  0  0999 V2000
    6.1521  -11.5928   25.7846 C   0  0  0  0  0  0  0  0  0  0  0  0
    6.6647  -12.1419   27.4004 S   0  0  0  0  0  0  0  0  0  0  0  0
    6.8220  -13.8681   27.6793 C   0  0  0  0  0  0  0  0  0  0  0  0
    7.3919  -14.6649   26.5877 C   0  0  0  0  0  0  0  0  0  0  0  0
    6.4839  -15.4331   25.7060 C   0  0  2  0  0  0  0  0  0  0  0  0
    5.8982  -16.5322   26.4395 N   0  0  0  0  0  0  0  0  0  0  0  0
    7.3243  -16.0265   24.6220 C   0  0  0  0  0  0  0  0  0  0  0  0
    7.7226  -17.1969   24.7359 O   0  0  0  0  0  0  0  0  0  0  0  0
    9.1797  -15.1521   20.0778 C   0  0  0  0  0  0  0  0  0  0  0  0
    8.2632  -14.8357   21.2382 C   0  0  1  0  0  0  0  0  0  0  0  0
    6.8351  -14.6599   20.8091 C   0  0  0  0  0  0  0  0  0  0  0  0
    8.4761  -15.7233   22.4099 C   0  0  2  0  0  0  0  0  0  0  0  0
    7.6365  -15.2257   23.4983 N   0  0  0  0  0  0  0  0  0  0  0  0
    9.8454  -15.8525   22.8851 C   0  0  0  0  0  0  0  0  0  0  0  0
   10.3345  -14.8993   23.5455 O   0  0  0  0  0  0  0  0  0  0  0  0
   11.9030  -17.7845   26.1555 N   0  0  0  0  0  0  0  0  0  0  0  0
   11.7433  -18.6239   25.0278 C   0  0  0  0  0  0  0  0  0  0  0  0
   10.9970  -19.6550   25.1889 O   0  0  0  0  0  0  0  0  0  0  0  0
   12.3822  -18.3559   23.7241 C   0  0  0  0  0  0  0  0  0  0  0  0
   12.0076  -16.9780   23.2519 C   0  0  2  0  0  0  0  0  0  0  0  0
   10.6758  -16.9718   22.6627 N   0  0  0  0  0  0  0  0  0  0  0  0
   12.9559  -16.6140   22.1666 C   0  0  0  0  0  0  0  0  0  0  0  0
   12.6567  -16.4909   20.9560 O   0  0  0  0  0  0  0  0  0  0  0  0
   14.2917  -16.3897   22.5212 O   0  0  0  0  0  0  0  0  0  0  0  0
  1  2  1  0
  3  2  1  0
  4  3  1  0
  5  4  1  0
  5  6  1  1
  7  8  2  0
  7  5  1  0
 10  9  1  6
 10 12  1  0
 11 10  1  0
 12 13  1  1
 13  7  1  0
 14 21  1  0
 14 12  1  0
 15 14  2  0
 17 16  1  0
 17 19  1  0
 18 17  2  0
 20 19  1  6
 20 21  1  0
 22 20  1  0
 23 22  2  0
 24 22  1  0
M  END
$$$$
