MVN.pdb
     RDKit          3D

 24 23  0  0  1  0  0  0  0  0999 V2000
    7.1649  -10.7747   27.4850 C   0  0  0  0  0  0  0  0  0  0  0  0
    6.9803  -11.9072   26.1217 S   0  0  0  0  0  0  0  0  0  0  0  0
    6.4483  -13.5440   26.4683 C   0  0  0  0  0  0  0  0  0  0  0  0
    6.3078  -14.4499   25.3233 C   0  0  0  0  0  0  0  0  0  0  0  0
    7.4698  -15.2651   24.9024 C   0  0  2  0  0  0  0  0  0  0  0  0
    8.6809  -14.4819   24.9961 N   0  0  0  0  0  0  0  0  0  0  0  0
    7.2719  -15.5975   23.4589 C   0  0  0  0  0  0  0  0  0  0  0  0
    6.2847  -16.2707   23.1217 O   0  0  0  0  0  0  0  0  0  0  0  0
    7.0131  -13.1348   20.8177 C   0  0  0  0  0  0  0  0  0  0  0  0
    8.1278  -14.0668   20.3988 C   0  0  1  0  0  0  0  0  0  0  0  0
    9.4669  -13.3877   20.3832 C   0  0  0  0  0  0  0  0  0  0  0  0
    8.0827  -15.3801   21.0909 C   0  0  2  0  0  0  0  0  0  0  0  0
    8.2244  -15.1284   22.5240 N   0  0  0  0  0  0  0  0  0  0  0  0
    9.0727  -16.3640   20.6796 C   0  0  0  0  0  0  0  0  0  0  0  0
    9.1579  -16.6409   19.4549 O   0  0  0  0  0  0  0  0  0  0  0  0
   12.1090  -19.4421   18.9735 N   0  0  0  0  0  0  0  0  0  0  0  0
   12.4682  -18.0782   19.0851 C   0  0  0  0  0  0  0  0  0  0  0  0
   13.3035  -17.6383   18.2162 O   0  0  0  0  0  0  0  0  0  0  0  0
   11.9286  -17.1832   20.1280 C   0  0  0  0  0  0  0  0  0  0  0  0
   10.9464  -17.9371   20.9816 C   0  0  2  0  0  0  0  0  0  0  0  0
    9.9530  -17.0384   21.5528 N   0  0  0  0  0  0  0  0  0  0  0  0
   11.7077  -18.5115   22.1220 C   0  0  0  0  0  0  0  0  0  0  0  0
   11.5741  -18.1770   23.3223 O   0  0  0  0  0  0  0  0  0  0  0  0
   12.6507  -19.5063   21.8365 O   0  0  0  0  0  0  0  0  0  0  0  0
  1  2  1  0
  3  2  1  0
  4  3  1  0
  5  4  1  0
  5  6  1  6
  7  8  2  0
  7  5  1  0
 10  9  1  1
 10 12  1  0
 11 10  1  0
 12 13  1  1
 13  7  1  0
 14 21  1  0
 14 12  1  0
 15 14  2  0
 17 16  1  0
 17 19  1  0
 18 17  2  0
 20 19  1  6
 20 21  1  0
 22 20  1  0
 23 22  2  0
 24 22  1  0
M  END
$$$$
