MVN.pdb
     RDKit          3D

 24 23  0  0  1  0  0  0  0  0999 V2000
    7.0456  -21.5433   28.2465 C   0  0  0  0  0  0  0  0  0  0  0  0
    7.6503  -20.0879   27.4151 S   0  0  0  0  0  0  0  0  0  0  0  0
    6.7245  -19.4597   26.0621 C   0  0  0  0  0  0  0  0  0  0  0  0
    7.1751  -18.1881   25.4864 C   0  0  0  0  0  0  0  0  0  0  0  0
    6.1932  -17.3213   24.7961 C   0  0  2  0  0  0  0  0  0  0  0  0
    5.7890  -17.9306   23.5493 N   0  0  0  0  0  0  0  0  0  0  0  0
    6.8968  -16.0477   24.4551 C   0  0  0  0  0  0  0  0  0  0  0  0
    7.4598  -15.9425   23.3535 O   0  0  0  0  0  0  0  0  0  0  0  0
    5.5165  -12.6894   25.4711 C   0  0  0  0  0  0  0  0  0  0  0  0
    6.9914  -12.6596   25.8036 C   0  0  1  0  0  0  0  0  0  0  0  0
    7.2463  -12.3537   27.2513 C   0  0  0  0  0  0  0  0  0  0  0  0
    7.7384  -13.8186   25.2518 C   0  0  2  0  0  0  0  0  0  0  0  0
    6.8943  -15.0020   25.4079 N   0  0  0  0  0  0  0  0  0  0  0  0
    9.0449  -14.0849   25.8347 C   0  0  0  0  0  0  0  0  0  0  0  0
    9.9077  -13.1695   25.7951 O   0  0  0  0  0  0  0  0  0  0  0  0
   10.5611  -13.6212   29.2177 N   0  0  0  0  0  0  0  0  0  0  0  0
   10.3198  -15.0043   29.3926 C   0  0  0  0  0  0  0  0  0  0  0  0
    9.7362  -15.3453   30.4831 O   0  0  0  0  0  0  0  0  0  0  0  0
   10.7020  -16.0236   28.3952 C   0  0  0  0  0  0  0  0  0  0  0  0
   10.7558  -15.3977   27.0287 C   0  0  2  0  0  0  0  0  0  0  0  0
    9.4246  -15.2987   26.4467 N   0  0  0  0  0  0  0  0  0  0  0  0
   11.5353  -16.3155   26.1569 C   0  0  0  0  0  0  0  0  0  0  0  0
   12.7437  -16.6085   26.3128 O   0  0  0  0  0  0  0  0  0  0  0  0
   10.8697  -16.9017   25.0736 O   0  0  0  0  0  0  0  0  0  0  0  0
  1  2  1  0
  3  2  1  0
  4  3  1  0
  5  4  1  0
  5  6  1  6
  7  8  2  0
  7  5  1  0
 10  9  1  1
 10 12  1  0
 11 10  1  0
 12 13  1  1
 13  7  1  0
 14 21  1  0
 14 12  1  0
 15 14  2  0
 17 16  1  0
 17 19  1  0
 18 17  2  0
 20 19  1  1
 20 21  1  0
 22 20  1  0
 23 22  2  0
 24 22  1  0
M  END
$$$$
