MVN.pdb
     RDKit          3D

 24 23  0  0  1  0  0  0  0  0999 V2000
    5.8624  -11.1788   26.4566 C   0  0  0  0  0  0  0  0  0  0  0  0
    6.9340  -12.1683   27.4801 S   0  0  0  0  0  0  0  0  0  0  0  0
    6.8069  -13.9159   27.3689 C   0  0  0  0  0  0  0  0  0  0  0  0
    7.3587  -14.5435   26.1636 C   0  0  0  0  0  0  0  0  0  0  0  0
    6.5219  -15.4963   25.3995 C   0  0  2  0  0  0  0  0  0  0  0  0
    6.2800  -16.6825   26.1891 N   0  0  0  0  0  0  0  0  0  0  0  0
    7.3163  -15.9175   24.2058 C   0  0  0  0  0  0  0  0  0  0  0  0
    7.9331  -16.9945   24.2374 O   0  0  0  0  0  0  0  0  0  0  0  0
    7.8453  -13.0541   21.0561 C   0  0  0  0  0  0  0  0  0  0  0  0
    7.6081  -14.5214   20.7779 C   0  0  1  0  0  0  0  0  0  0  0  0
    8.0267  -14.9166   19.3911 C   0  0  0  0  0  0  0  0  0  0  0  0
    8.0863  -15.4080   21.8692 C   0  0  2  0  0  0  0  0  0  0  0  0
    7.3353  -15.0662   23.0760 N   0  0  0  0  0  0  0  0  0  0  0  0
    9.5103  -15.3617   22.1651 C   0  0  0  0  0  0  0  0  0  0  0  0
    9.8926  -14.6365   23.1200 O   0  0  0  0  0  0  0  0  0  0  0  0
   12.5862  -19.7904   23.5013 N   0  0  0  0  0  0  0  0  0  0  0  0
   12.2555  -18.4375   23.7501 C   0  0  0  0  0  0  0  0  0  0  0  0
   13.0183  -17.8077   24.5672 O   0  0  0  0  0  0  0  0  0  0  0  0
   11.1068  -17.7573   23.1194 C   0  0  0  0  0  0  0  0  0  0  0  0
   11.6026  -16.6642   22.2132 C   0  0  2  0  0  0  0  0  0  0  0  0
   10.5057  -16.0720   21.4604 N   0  0  0  0  0  0  0  0  0  0  0  0
   12.5094  -17.2967   21.2195 C   0  0  0  0  0  0  0  0  0  0  0  0
   12.1640  -18.1398   20.3591 O   0  0  0  0  0  0  0  0  0  0  0  0
   13.8587  -16.9233   21.2433 O   0  0  0  0  0  0  0  0  0  0  0  0
  1  2  1  0
  3  2  1  0
  4  3  1  0
  5  4  1  0
  5  6  1  1
  7  8  2  0
  7  5  1  0
 10  9  1  1
 10 12  1  0
 11 10  1  0
 12 13  1  1
 13  7  1  0
 14 21  1  0
 14 12  1  0
 15 14  2  0
 17 16  1  0
 17 19  1  0
 18 17  2  0
 20 19  1  1
 20 21  1  0
 22 20  1  0
 23 22  2  0
 24 22  1  0
M  END
$$$$
