MVN.pdb
     RDKit          3D

 24 23  0  0  1  0  0  0  0  0999 V2000
    5.4543  -11.8015   26.4469 C   0  0  0  0  0  0  0  0  0  0  0  0
    6.9683  -12.1402   27.3234 S   0  0  0  0  0  0  0  0  0  0  0  0
    7.3839  -13.8152   27.6460 C   0  0  0  0  0  0  0  0  0  0  0  0
    7.8174  -14.6213   26.4999 C   0  0  0  0  0  0  0  0  0  0  0  0
    6.7951  -15.2433   25.6283 C   0  0  2  0  0  0  0  0  0  0  0  0
    6.1228  -16.3071   26.3392 N   0  0  0  0  0  0  0  0  0  0  0  0
    7.5200  -15.8707   24.4818 C   0  0  0  0  0  0  0  0  0  0  0  0
    7.9123  -17.0443   24.5820 O   0  0  0  0  0  0  0  0  0  0  0  0
    6.6260  -14.7776   20.6432 C   0  0  0  0  0  0  0  0  0  0  0  0
    8.0980  -14.7745   20.9894 C   0  0  1  0  0  0  0  0  0  0  0  0
    8.6740  -13.3885   21.0306 C   0  0  0  0  0  0  0  0  0  0  0  0
    8.4272  -15.6406   22.1502 C   0  0  2  0  0  0  0  0  0  0  0  0
    7.7331  -15.0972   23.3165 N   0  0  0  0  0  0  0  0  0  0  0  0
    9.8396  -15.7939   22.4649 C   0  0  0  0  0  0  0  0  0  0  0  0
   10.3935  -14.8957   23.1506 O   0  0  0  0  0  0  0  0  0  0  0  0
   10.6984  -19.5068   24.4054 N   0  0  0  0  0  0  0  0  0  0  0  0
   11.7386  -18.5582   24.2637 C   0  0  0  0  0  0  0  0  0  0  0  0
   12.0822  -17.9294   25.3279 O   0  0  0  0  0  0  0  0  0  0  0  0
   12.4140  -18.2855   22.9795 C   0  0  0  0  0  0  0  0  0  0  0  0
   12.0351  -16.9145   22.4909 C   0  0  2  0  0  0  0  0  0  0  0  0
   10.6448  -16.8796   22.0589 N   0  0  0  0  0  0  0  0  0  0  0  0
   12.8626  -16.6339   21.2883 C   0  0  0  0  0  0  0  0  0  0  0  0
   12.4228  -16.5042   20.1220 O   0  0  0  0  0  0  0  0  0  0  0  0
   14.2449  -16.5033   21.4687 O   0  0  0  0  0  0  0  0  0  0  0  0
  1  2  1  0
  3  2  1  0
  4  3  1  0
  5  4  1  0
  5  6  1  1
  7  8  2  0
  7  5  1  0
 10  9  1  1
 10 12  1  0
 11 10  1  0
 12 13  1  1
 13  7  1  0
 14 21  1  0
 14 12  1  0
 15 14  2  0
 17 16  1  0
 17 19  1  0
 18 17  2  0
 20 19  1  6
 20 21  1  0
 22 20  1  0
 23 22  2  0
 24 22  1  0
M  END
$$$$
