MVN.pdb
     RDKit          3D

 24 23  0  0  1  0  0  0  0  0999 V2000
    6.7336  -11.9263   25.8549 C   0  0  0  0  0  0  0  0  0  0  0  0
    6.3672  -13.4142   26.7642 S   0  0  0  0  0  0  0  0  0  0  0  0
    7.5296  -14.7287   26.7085 C   0  0  0  0  0  0  0  0  0  0  0  0
    6.9861  -16.0896   26.6443 C   0  0  0  0  0  0  0  0  0  0  0  0
    6.3339  -16.5471   25.3965 C   0  0  2  0  0  0  0  0  0  0  0  0
    5.8043  -17.8797   25.5775 N   0  0  0  0  0  0  0  0  0  0  0  0
    7.3994  -16.6358   24.3524 C   0  0  0  0  0  0  0  0  0  0  0  0
    8.1636  -17.6143   24.3478 O   0  0  0  0  0  0  0  0  0  0  0  0
    6.6337  -14.9789   20.7442 C   0  0  0  0  0  0  0  0  0  0  0  0
    8.0196  -14.6788   21.2695 C   0  0  1  0  0  0  0  0  0  0  0  0
    8.2042  -13.2262   21.6018 C   0  0  0  0  0  0  0  0  0  0  0  0
    8.4702  -15.6373   22.3107 C   0  0  2  0  0  0  0  0  0  0  0  0
    7.4974  -15.5933   23.4011 N   0  0  0  0  0  0  0  0  0  0  0  0
    9.8038  -15.4258   22.8531 C   0  0  0  0  0  0  0  0  0  0  0  0
    9.9074  -14.8038   23.9422 O   0  0  0  0  0  0  0  0  0  0  0  0
   13.2547  -17.7490   25.8482 N   0  0  0  0  0  0  0  0  0  0  0  0
   12.9599  -18.0929   24.5079 C   0  0  0  0  0  0  0  0  0  0  0  0
   13.7921  -18.8780   23.9272 O   0  0  0  0  0  0  0  0  0  0  0  0
   11.7693  -17.5968   23.7896 C   0  0  0  0  0  0  0  0  0  0  0  0
   12.0959  -16.2963   23.1085 C   0  0  2  0  0  0  0  0  0  0  0  0
   11.0010  -15.8669   22.2496 N   0  0  0  0  0  0  0  0  0  0  0  0
   13.2613  -16.5475   22.2204 C   0  0  0  0  0  0  0  0  0  0  0  0
   14.4434  -16.2121   22.4662 O   0  0  0  0  0  0  0  0  0  0  0  0
   13.0234  -17.2121   21.0112 O   0  0  0  0  0  0  0  0  0  0  0  0
  1  2  1  0
  3  2  1  0
  4  3  1  0
  5  4  1  0
  5  6  1  1
  7  8  2  0
  7  5  1  0
 10  9  1  1
 10 12  1  0
 11 10  1  0
 12 13  1  1
 13  7  1  0
 14 21  1  0
 14 12  1  0
 15 14  2  0
 17 16  1  0
 17 19  1  0
 18 17  2  0
 20 19  1  6
 20 21  1  0
 22 20  1  0
 23 22  2  0
 24 22  1  0
M  END
$$$$
