MVN.pdb
     RDKit          3D

 24 23  0  0  1  0  0  0  0  0999 V2000
    7.0476  -11.9467   27.0956 C   0  0  0  0  0  0  0  0  0  0  0  0
    5.7485  -13.1456   27.3194 S   0  0  0  0  0  0  0  0  0  0  0  0
    6.1995  -14.8300   27.5238 C   0  0  0  0  0  0  0  0  0  0  0  0
    6.9744  -15.4431   26.4399 C   0  0  0  0  0  0  0  0  0  0  0  0
    6.2892  -16.3405   25.4823 C   0  0  2  0  0  0  0  0  0  0  0  0
    6.1153  -17.6489   26.0712 N   0  0  0  0  0  0  0  0  0  0  0  0
    7.1987  -16.5045   24.3079 C   0  0  0  0  0  0  0  0  0  0  0  0
    7.6433  -17.6319   24.0384 O   0  0  0  0  0  0  0  0  0  0  0  0
    8.5134  -12.9646   22.3888 C   0  0  0  0  0  0  0  0  0  0  0  0
    8.1273  -14.1763   21.5707 C   0  0  1  0  0  0  0  0  0  0  0  0
    8.7088  -14.1423   20.1867 C   0  0  0  0  0  0  0  0  0  0  0  0
    8.2960  -15.4558   22.3058 C   0  0  2  0  0  0  0  0  0  0  0  0
    7.5209  -15.3597   23.5416 N   0  0  0  0  0  0  0  0  0  0  0  0
    9.6611  -15.8431   22.6285 C   0  0  0  0  0  0  0  0  0  0  0  0
   10.4911  -15.9244   21.6859 O   0  0  0  0  0  0  0  0  0  0  0  0
   11.5787  -14.1677   26.7822 N   0  0  0  0  0  0  0  0  0  0  0  0
   12.1635  -14.8600   25.6957 C   0  0  0  0  0  0  0  0  0  0  0  0
   12.8607  -14.1542   24.8822 O   0  0  0  0  0  0  0  0  0  0  0  0
   12.0033  -16.3121   25.4826 C   0  0  0  0  0  0  0  0  0  0  0  0
   11.5153  -16.5662   24.0829 C   0  0  2  0  0  0  0  0  0  0  0  0
   10.1325  -16.1371   23.9258 N   0  0  0  0  0  0  0  0  0  0  0  0
   11.5315  -18.0379   23.8738 C   0  0  0  0  0  0  0  0  0  0  0  0
   10.5347  -18.7373   23.5778 O   0  0  0  0  0  0  0  0  0  0  0  0
   12.7569  -18.6997   24.0181 O   0  0  0  0  0  0  0  0  0  0  0  0
  1  2  1  0
  3  2  1  0
  4  3  1  0
  5  4  1  0
  5  6  1  1
  7  8  2  0
  7  5  1  0
 10  9  1  1
 10 12  1  0
 11 10  1  0
 12 13  1  1
 13  7  1  0
 14 21  1  0
 14 12  1  0
 15 14  2  0
 17 16  1  0
 17 19  1  0
 18 17  2  0
 20 19  1  1
 20 21  1  0
 22 20  1  0
 23 22  2  0
 24 22  1  0
M  END
$$$$
