MVN.pdb
     RDKit          3D

 24 23  0  0  1  0  0  0  0  0999 V2000
    7.7224  -13.1099   16.4982 C   0  0  0  0  0  0  0  0  0  0  0  0
    7.9671  -12.7999   18.2358 S   0  0  0  0  0  0  0  0  0  0  0  0
    7.4578  -14.0316   19.3786 C   0  0  0  0  0  0  0  0  0  0  0  0
    7.7740  -13.7941   20.7910 C   0  0  0  0  0  0  0  0  0  0  0  0
    7.3457  -14.7869   21.8024 C   0  0  2  0  0  0  0  0  0  0  0  0
    5.9141  -14.9739   21.7336 N   0  0  0  0  0  0  0  0  0  0  0  0
    7.6487  -14.2037   23.1445 C   0  0  0  0  0  0  0  0  0  0  0  0
    7.3361  -13.0250   23.3778 O   0  0  0  0  0  0  0  0  0  0  0  0
    6.4469  -14.5314   26.1619 C   0  0  0  0  0  0  0  0  0  0  0  0
    7.7164  -13.7232   26.0136 C   0  0  1  0  0  0  0  0  0  0  0  0
    8.0906  -13.0067   27.2790 C   0  0  0  0  0  0  0  0  0  0  0  0
    8.8141  -14.4751   25.3537 C   0  0  2  0  0  0  0  0  0  0  0  0
    8.2850  -15.0234   24.1060 N   0  0  0  0  0  0  0  0  0  0  0  0
    9.4208  -15.5484   26.1265 C   0  0  0  0  0  0  0  0  0  0  0  0
    8.7603  -16.6075   26.2874 O   0  0  0  0  0  0  0  0  0  0  0  0
   13.6450  -15.2469   25.0709 N   0  0  0  0  0  0  0  0  0  0  0  0
   13.0723  -16.4577   25.5265 C   0  0  0  0  0  0  0  0  0  0  0  0
   12.8016  -17.3315   24.6269 O   0  0  0  0  0  0  0  0  0  0  0  0
   12.7921  -16.7339   26.9496 C   0  0  0  0  0  0  0  0  0  0  0  0
   11.3059  -16.7369   27.1802 C   0  0  2  0  0  0  0  0  0  0  0  0
   10.7025  -15.4958   26.7150 N   0  0  0  0  0  0  0  0  0  0  0  0
   11.0909  -16.7909   28.6502 C   0  0  0  0  0  0  0  0  0  0  0  0
   10.5699  -15.8827   29.3386 O   0  0  0  0  0  0  0  0  0  0  0  0
   11.5020  -17.9478   29.3233 O   0  0  0  0  0  0  0  0  0  0  0  0
  1  2  1  0
  3  2  1  0
  4  3  1  0
  5  4  1  0
  5  6  1  1
  7  8  2  0
  7  5  1  0
 10  9  1  1
 10 12  1  0
 11 10  1  0
 12 13  1  6
 13  7  1  0
 14 21  1  0
 14 12  1  0
 15 14  2  0
 17 16  1  0
 17 19  1  0
 18 17  2  0
 20 19  1  1
 20 21  1  0
 22 20  1  0
 23 22  2  0
 24 22  1  0
M  END
$$$$
