MVN.pdb
     RDKit          3D

 24 23  0  0  1  0  0  0  0  0999 V2000
    8.2745  -11.4128   26.3519 C   0  0  0  0  0  0  0  0  0  0  0  0
    7.8380  -12.9096   27.2145 S   0  0  0  0  0  0  0  0  0  0  0  0
    6.9450  -14.1420   26.3392 C   0  0  0  0  0  0  0  0  0  0  0  0
    7.4127  -14.4617   24.9862 C   0  0  0  0  0  0  0  0  0  0  0  0
    6.6279  -15.4034   24.1561 C   0  0  2  0  0  0  0  0  0  0  0  0
    6.4683  -16.6594   24.8532 N   0  0  0  0  0  0  0  0  0  0  0  0
    7.4336  -15.6815   22.9285 C   0  0  0  0  0  0  0  0  0  0  0  0
    7.8170  -16.8410   22.7049 O   0  0  0  0  0  0  0  0  0  0  0  0
    6.5280  -13.1382   19.9706 C   0  0  0  0  0  0  0  0  0  0  0  0
    7.9722  -13.5845   19.9268 C   0  0  1  0  0  0  0  0  0  0  0  0
    8.9287  -12.4554   20.1814 C   0  0  0  0  0  0  0  0  0  0  0  0
    8.2241  -14.8257   20.7026 C   0  0  2  0  0  0  0  0  0  0  0  0
    7.7312  -14.6043   22.0610 N   0  0  0  0  0  0  0  0  0  0  0  0
    9.6043  -15.2824   20.7649 C   0  0  0  0  0  0  0  0  0  0  0  0
   10.0985  -15.8131   19.7364 O   0  0  0  0  0  0  0  0  0  0  0  0
   13.1142  -13.4796   19.5670 N   0  0  0  0  0  0  0  0  0  0  0  0
   13.2030  -14.6975   20.2813 C   0  0  0  0  0  0  0  0  0  0  0  0
   13.6197  -15.7146   19.6195 O   0  0  0  0  0  0  0  0  0  0  0  0
   12.8476  -14.8249   21.7086 C   0  0  0  0  0  0  0  0  0  0  0  0
   11.7407  -15.8310   21.8655 C   0  0  2  0  0  0  0  0  0  0  0  0
   10.4403  -15.1763   21.8971 N   0  0  0  0  0  0  0  0  0  0  0  0
   11.9236  -16.4804   23.1902 C   0  0  0  0  0  0  0  0  0  0  0  0
   11.0816  -16.4797   24.1183 O   0  0  0  0  0  0  0  0  0  0  0  0
   13.1322  -17.1476   23.4237 O   0  0  0  0  0  0  0  0  0  0  0  0
  1  2  1  0
  3  2  1  0
  4  3  1  0
  5  4  1  0
  5  6  1  1
  7  8  2  0
  7  5  1  0
 10  9  1  1
 10 12  1  0
 11 10  1  0
 12 13  1  1
 13  7  1  0
 14 21  1  0
 14 12  1  0
 15 14  2  0
 17 16  1  0
 17 19  1  0
 18 17  2  0
 20 19  1  1
 20 21  1  0
 22 20  1  0
 23 22  2  0
 24 22  1  0
M  END
$$$$
