MVN.pdb
     RDKit          3D

 24 23  0  0  1  0  0  0  0  0999 V2000
    5.8196  -11.6452   25.7961 C   0  0  0  0  0  0  0  0  0  0  0  0
    6.4086  -12.1906   27.3870 S   0  0  0  0  0  0  0  0  0  0  0  0
    7.0510  -13.8191   27.5207 C   0  0  0  0  0  0  0  0  0  0  0  0
    6.6106  -14.7884   26.5119 C   0  0  0  0  0  0  0  0  0  0  0  0
    7.6265  -15.5742   25.7755 C   0  0  2  0  0  0  0  0  0  0  0  0
    8.9138  -14.9234   25.8664 N   0  0  0  0  0  0  0  0  0  0  0  0
    7.2293  -15.5631   24.3348 C   0  0  0  0  0  0  0  0  0  0  0  0
    6.1366  -16.0505   24.0036 O   0  0  0  0  0  0  0  0  0  0  0  0
    8.6962  -12.8429   21.8024 C   0  0  0  0  0  0  0  0  0  0  0  0
    7.7631  -13.9229   21.3028 C   0  0  1  0  0  0  0  0  0  0  0  0
    7.6746  -13.9554   19.8042 C   0  0  0  0  0  0  0  0  0  0  0  0
    7.9836  -15.2361   21.9607 C   0  0  2  0  0  0  0  0  0  0  0  0
    8.1206  -14.9928   23.3958 N   0  0  0  0  0  0  0  0  0  0  0  0
    9.1256  -16.0098   21.4975 C   0  0  0  0  0  0  0  0  0  0  0  0
   10.2194  -15.8705   22.1041 O   0  0  0  0  0  0  0  0  0  0  0  0
   10.9818  -21.1581   20.7815 N   0  0  0  0  0  0  0  0  0  0  0  0
   10.5023  -20.3037   19.7609 C   0  0  0  0  0  0  0  0  0  0  0  0
   11.0294  -20.4535   18.6009 O   0  0  0  0  0  0  0  0  0  0  0  0
    9.4534  -19.2887   19.9835 C   0  0  0  0  0  0  0  0  0  0  0  0
   10.0888  -17.9844   20.3795 C   0  0  2  0  0  0  0  0  0  0  0  0
    9.1038  -16.9122   20.4125 N   0  0  0  0  0  0  0  0  0  0  0  0
   11.0665  -17.6328   19.3164 C   0  0  0  0  0  0  0  0  0  0  0  0
   12.3015  -17.8380   19.3732 O   0  0  0  0  0  0  0  0  0  0  0  0
   10.5722  -17.0233   18.1569 O   0  0  0  0  0  0  0  0  0  0  0  0
  1  2  1  0
  3  2  1  0
  4  3  1  0
  5  4  1  0
  5  6  1  6
  7  8  2  0
  7  5  1  0
 10  9  1  6
 10 12  1  0
 11 10  1  0
 12 13  1  1
 13  7  1  0
 14 21  1  0
 14 12  1  0
 15 14  2  0
 17 16  1  0
 17 19  1  0
 18 17  2  0
 20 19  1  6
 20 21  1  0
 22 20  1  0
 23 22  2  0
 24 22  1  0
M  END
$$$$
