MVN.pdb
     RDKit          3D

 24 23  0  0  1  0  0  0  0  0999 V2000
    6.6038  -11.3719   26.6228 C   0  0  0  0  0  0  0  0  0  0  0  0
    6.9826  -12.6043   27.8527 S   0  0  0  0  0  0  0  0  0  0  0  0
    6.6455  -14.2853   27.4749 C   0  0  0  0  0  0  0  0  0  0  0  0
    7.1270  -14.7816   26.1814 C   0  0  0  0  0  0  0  0  0  0  0  0
    6.6619  -16.1012   25.6973 C   0  0  2  0  0  0  0  0  0  0  0  0
    6.9740  -17.1215   26.6723 N   0  0  0  0  0  0  0  0  0  0  0  0
    7.4459  -16.4168   24.4647 C   0  0  0  0  0  0  0  0  0  0  0  0
    7.8870  -17.5662   24.3047 O   0  0  0  0  0  0  0  0  0  0  0  0
    8.5985  -14.6182   19.9667 C   0  0  0  0  0  0  0  0  0  0  0  0
    7.9290  -14.5260   21.3195 C   0  0  1  0  0  0  0  0  0  0  0  0
    6.4625  -14.2219   21.2135 C   0  0  0  0  0  0  0  0  0  0  0  0
    8.2878  -15.6460   22.2266 C   0  0  2  0  0  0  0  0  0  0  0  0
    7.6571  -15.3856   23.5195 N   0  0  0  0  0  0  0  0  0  0  0  0
    9.7085  -15.8865   22.4293 C   0  0  0  0  0  0  0  0  0  0  0  0
   10.2798  -15.2896   23.3786 O   0  0  0  0  0  0  0  0  0  0  0  0
   14.4553  -15.6859   24.0840 N   0  0  0  0  0  0  0  0  0  0  0  0
   13.9160  -15.7522   22.7777 C   0  0  0  0  0  0  0  0  0  0  0  0
   14.7517  -15.9706   21.8291 O   0  0  0  0  0  0  0  0  0  0  0  0
   12.4777  -15.5874   22.4880 C   0  0  0  0  0  0  0  0  0  0  0  0
   11.9159  -16.8817   21.9672 C   0  0  2  0  0  0  0  0  0  0  0  0
   10.5038  -16.7439   21.6390 N   0  0  0  0  0  0  0  0  0  0  0  0
   12.0023  -17.8727   23.0719 C   0  0  0  0  0  0  0  0  0  0  0  0
   11.0227  -18.3854   23.6617 O   0  0  0  0  0  0  0  0  0  0  0  0
   13.2789  -18.2677   23.4901 O   0  0  0  0  0  0  0  0  0  0  0  0
  1  2  1  0
  3  2  1  0
  4  3  1  0
  5  4  1  0
  5  6  1  1
  7  8  2  0
  7  5  1  0
 10  9  1  6
 10 12  1  0
 11 10  1  0
 12 13  1  1
 13  7  1  0
 14 21  1  0
 14 12  1  0
 15 14  2  0
 17 16  1  0
 17 19  1  0
 18 17  2  0
 20 19  1  1
 20 21  1  0
 22 20  1  0
 23 22  2  0
 24 22  1  0
M  END
$$$$
