MVN.pdb
     RDKit          3D

 24 23  0  0  1  0  0  0  0  0999 V2000
    6.1321  -12.4582   27.5736 C   0  0  0  0  0  0  0  0  0  0  0  0
    7.4776  -12.6495   26.4212 S   0  0  0  0  0  0  0  0  0  0  0  0
    8.4178  -14.1310   26.4812 C   0  0  0  0  0  0  0  0  0  0  0  0
    7.6801  -15.3720   26.7400 C   0  0  0  0  0  0  0  0  0  0  0  0
    6.6392  -15.8054   25.7805 C   0  0  2  0  0  0  0  0  0  0  0  0
    5.9999  -17.0104   26.2582 N   0  0  0  0  0  0  0  0  0  0  0  0
    7.3365  -16.1537   24.5055 C   0  0  0  0  0  0  0  0  0  0  0  0
    7.7977  -17.2972   24.3597 O   0  0  0  0  0  0  0  0  0  0  0  0
    8.4040  -13.0999   21.8439 C   0  0  0  0  0  0  0  0  0  0  0  0
    7.5938  -14.2594   21.3093 C   0  0  1  0  0  0  0  0  0  0  0  0
    7.7457  -14.4285   19.8251 C   0  0  0  0  0  0  0  0  0  0  0  0
    7.7447  -15.4982   22.1147 C   0  0  2  0  0  0  0  0  0  0  0  0
    7.4453  -15.1595   23.5050 N   0  0  0  0  0  0  0  0  0  0  0  0
    9.0403  -16.1578   22.0532 C   0  0  0  0  0  0  0  0  0  0  0  0
    9.4923  -16.4687   20.9206 O   0  0  0  0  0  0  0  0  0  0  0  0
   13.9309  -16.1183   21.0720 N   0  0  0  0  0  0  0  0  0  0  0  0
   13.3606  -15.6395   22.2749 C   0  0  0  0  0  0  0  0  0  0  0  0
   14.1780  -15.3974   23.2337 O   0  0  0  0  0  0  0  0  0  0  0  0
   11.9116  -15.4165   22.4495 C   0  0  0  0  0  0  0  0  0  0  0  0
   11.2679  -16.6694   22.9766 C   0  0  2  0  0  0  0  0  0  0  0  0
    9.8374  -16.4791   23.1727 N   0  0  0  0  0  0  0  0  0  0  0  0
   11.8514  -16.9305   24.3187 C   0  0  0  0  0  0  0  0  0  0  0  0
   11.7067  -16.1979   25.3250 O   0  0  0  0  0  0  0  0  0  0  0  0
   12.6255  -18.0866   24.4753 O   0  0  0  0  0  0  0  0  0  0  0  0
  1  2  1  0
  3  2  1  0
  4  3  1  0
  5  4  1  0
  5  6  1  1
  7  8  2  0
  7  5  1  0
 10  9  1  1
 10 12  1  0
 11 10  1  0
 12 13  1  1
 13  7  1  0
 14 21  1  0
 14 12  1  0
 15 14  2  0
 17 16  1  0
 17 19  1  0
 18 17  2  0
 20 19  1  1
 20 21  1  0
 22 20  1  0
 23 22  2  0
 24 22  1  0
M  END
$$$$
