MVN.pdb
     RDKit          3D

 24 23  0  0  1  0  0  0  0  0999 V2000
    7.3990  -12.4632   28.2739 C   0  0  0  0  0  0  0  0  0  0  0  0
    8.5072  -13.0922   27.0283 S   0  0  0  0  0  0  0  0  0  0  0  0
    7.8154  -13.9211   25.6438 C   0  0  0  0  0  0  0  0  0  0  0  0
    7.1026  -15.1746   25.9121 C   0  0  0  0  0  0  0  0  0  0  0  0
    6.3263  -15.8096   24.8230 C   0  0  2  0  0  0  0  0  0  0  0  0
    5.8256  -17.0935   25.2590 N   0  0  0  0  0  0  0  0  0  0  0  0
    7.2776  -16.0674   23.6997 C   0  0  0  0  0  0  0  0  0  0  0  0
    7.8589  -17.1627   23.6369 O   0  0  0  0  0  0  0  0  0  0  0  0
    6.3400  -14.3459   20.1347 C   0  0  0  0  0  0  0  0  0  0  0  0
    7.7979  -14.2503   20.5246 C   0  0  1  0  0  0  0  0  0  0  0  0
    8.2103  -12.8462   20.8605 C   0  0  0  0  0  0  0  0  0  0  0  0
    8.2114  -15.2910   21.5003 C   0  0  2  0  0  0  0  0  0  0  0  0
    7.4811  -15.0455   22.7428 N   0  0  0  0  0  0  0  0  0  0  0  0
    9.6342  -15.3767   21.7928 C   0  0  0  0  0  0  0  0  0  0  0  0
   10.3269  -14.3330   21.6710 O   0  0  0  0  0  0  0  0  0  0  0  0
   14.5772  -14.8148   23.3307 N   0  0  0  0  0  0  0  0  0  0  0  0
   13.5572  -15.6796   23.7923 C   0  0  0  0  0  0  0  0  0  0  0  0
   13.9313  -16.6452   24.5498 O   0  0  0  0  0  0  0  0  0  0  0  0
   12.1328  -15.5074   23.4439 C   0  0  0  0  0  0  0  0  0  0  0  0
   11.7504  -16.4973   22.3782 C   0  0  2  0  0  0  0  0  0  0  0  0
   10.3052  -16.5476   22.2062 N   0  0  0  0  0  0  0  0  0  0  0  0
   12.1699  -17.8406   22.8573 C   0  0  0  0  0  0  0  0  0  0  0  0
   13.3434  -18.2799   22.8419 O   0  0  0  0  0  0  0  0  0  0  0  0
   11.1772  -18.6860   23.3675 O   0  0  0  0  0  0  0  0  0  0  0  0
  1  2  1  0
  3  2  1  0
  4  3  1  0
  5  4  1  0
  5  6  1  1
  7  8  2  0
  7  5  1  0
 10  9  1  1
 10 12  1  0
 11 10  1  0
 12 13  1  1
 13  7  1  0
 14 21  1  0
 14 12  1  0
 15 14  2  0
 17 16  1  0
 17 19  1  0
 18 17  2  0
 20 19  1  1
 20 21  1  0
 22 20  1  0
 23 22  2  0
 24 22  1  0
M  END
$$$$
