VRR.pdb
     RDKit          3D

 30 29  0  0  1  0  0  0  0  0999 V2000
    5.8094  -10.9152   26.7837 C   0  0  0  0  0  0  0  0  0  0  0  0
    6.6855  -11.8254   25.9328 C   0  0  1  0  0  0  0  0  0  0  0  0
    8.0208  -12.0543   26.5586 C   0  0  0  0  0  0  0  0  0  0  0  0
    5.9417  -13.0945   25.5683 C   0  0  2  0  0  0  0  0  0  0  0  0
    5.8015  -13.8252   26.8386 N   0  0  0  0  0  0  0  0  0  0  0  0
    6.7307  -13.9610   24.6639 C   0  0  0  0  0  0  0  0  0  0  0  0
    7.4506  -14.8690   25.1480 O   0  0  0  0  0  0  0  0  0  0  0  0
    8.0754  -13.4825   16.2814 N   0  0  0  0  0  0  0  0  0  0  0  0
    8.4227  -14.8364   16.5120 C   0  0  0  0  0  0  0  0  0  0  0  0
    9.3005  -15.4175   15.7767 N   0  0  0  0  0  0  0  0  0  0  0  0
    7.7864  -15.5504   17.5723 N   0  0  0  0  0  0  0  0  0  0  0  0
    7.1706  -14.8413   18.6718 C   0  0  0  0  0  0  0  0  0  0  0  0
    8.0779  -14.7896   19.9088 C   0  0  0  0  0  0  0  0  0  0  0  0
    7.3272  -14.0885   20.9886 C   0  0  0  0  0  0  0  0  0  0  0  0
    7.5411  -14.7020   22.3845 C   0  0  2  0  0  0  0  0  0  0  0  0
    6.7334  -13.8392   23.2609 N   0  0  0  0  0  0  0  0  0  0  0  0
    8.9708  -14.6718   22.7852 C   0  0  0  0  0  0  0  0  0  0  0  0
    9.6137  -13.5638   22.8120 O   0  0  0  0  0  0  0  0  0  0  0  0
    9.6736  -16.3620   15.9679 N   0  0  0  0  0  0  0  0  0  0  0  0
   11.3892  -17.5784   29.8112 C   0  0  0  0  0  0  0  0  0  0  0  0
   10.8492  -16.4338   29.1572 N   0  0  0  0  0  0  0  0  0  0  0  0
   10.4556  -15.4096   29.8272 N   0  0  0  0  0  0  0  0  0  0  0  0
   10.7311  -16.3981   27.7240 C   0  0  0  0  0  0  0  0  0  0  0  0
   10.5497  -17.5871   26.9419 C   0  0  0  0  0  0  0  0  0  0  0  0
   10.3785  -17.2680   25.4623 C   0  0  0  0  0  0  0  0  0  0  0  0
   11.2111  -16.0896   25.0415 C   0  0  1  0  0  0  0  0  0  0  0  0
   11.0884  -15.8136   23.5972 N   0  0  0  0  0  0  0  0  0  0  0  0
    9.6823  -15.8436   23.1537 C   0  0  0  0  0  0  0  0  0  0  0  0
   11.9345  -16.6120   22.6905 O   0  0  0  0  0  0  0  0  0  0  0  0
   13.1815  -16.7255   22.7633 O   0  0  0  0  0  0  0  0  0  0  0  0
  2  4  1  0
  2  1  1  1
  3  2  1  0
  4  6  1  0
  4  5  1  1
  6  7  2  0
  8  9  1  0
  9 11  1  0
 10  9  2  0
 11 12  1  0
 12 13  1  0
 14 13  1  0
 15 14  1  6
 16 15  1  0
 16  6  1  0
 17 18  2  0
 17 15  1  0
 19 20  1  0
 20 22  1  0
 21 20  2  0
 22 23  1  0
 23 24  1  0
 24 25  1  0
 26 25  1  1
 26 27  1  0
 26 28  1  0
 27 17  1  0
 28 30  1  0
 29 28  2  0
M  END
$$$$
