VRR.pdb
     RDKit          3D

 30 29  0  0  1  0  0  0  0  0999 V2000
    9.2853  -12.7364   20.5839 C   0  0  0  0  0  0  0  0  0  0  0  0
    7.9546  -13.2210   20.0232 C   0  0  1  0  0  0  0  0  0  0  0  0
    6.9069  -12.1602   20.0848 C   0  0  0  0  0  0  0  0  0  0  0  0
    8.1444  -13.8311   18.6490 C   0  0  2  0  0  0  0  0  0  0  0  0
    6.8381  -14.4234   18.3177 N   0  0  0  0  0  0  0  0  0  0  0  0
    9.1234  -14.9415   18.6641 C   0  0  0  0  0  0  0  0  0  0  0  0
    8.7886  -16.0560   19.1359 O   0  0  0  0  0  0  0  0  0  0  0  0
   15.9779  -13.2891   17.8663 N   0  0  0  0  0  0  0  0  0  0  0  0
   16.7425  -14.3884   17.4040 C   0  0  0  0  0  0  0  0  0  0  0  0
   17.9918  -14.4774   17.6872 N   0  0  0  0  0  0  0  0  0  0  0  0
   16.1096  -15.3990   16.6184 N   0  0  0  0  0  0  0  0  0  0  0  0
   14.6916  -15.3367   16.3425 C   0  0  0  0  0  0  0  0  0  0  0  0
   13.8452  -15.6006   17.5956 C   0  0  0  0  0  0  0  0  0  0  0  0
   12.4172  -15.6511   17.1719 C   0  0  0  0  0  0  0  0  0  0  0  0
   11.4395  -15.9048   18.3339 C   0  0  2  0  0  0  0  0  0  0  0  0
   10.4396  -14.8373   18.1740 N   0  0  0  0  0  0  0  0  0  0  0  0
   12.1147  -15.8033   19.6526 C   0  0  0  0  0  0  0  0  0  0  0  0
   12.5878  -14.6825   20.0547 O   0  0  0  0  0  0  0  0  0  0  0  0
   18.5919  -15.2648   17.3909 N   0  0  0  0  0  0  0  0  0  0  0  0
   16.2024  -20.7334   23.5707 C   0  0  0  0  0  0  0  0  0  0  0  0
   14.9569  -20.9105   24.2393 N   0  0  0  0  0  0  0  0  0  0  0  0
   14.2792  -21.9947   24.1054 N   0  0  0  0  0  0  0  0  0  0  0  0
   14.4261  -19.8739   25.0837 C   0  0  0  0  0  0  0  0  0  0  0  0
   13.1799  -19.2214   24.8018 C   0  0  0  0  0  0  0  0  0  0  0  0
   13.3802  -17.9534   23.9818 C   0  0  0  0  0  0  0  0  0  0  0  0
   12.7626  -18.0640   22.6161 C   0  0  2  0  0  0  0  0  0  0  0  0
   12.9118  -16.8182   21.8395 N   0  0  0  0  0  0  0  0  0  0  0  0
   12.2649  -16.9186   20.5181 C   0  0  0  0  0  0  0  0  0  0  0  0
   14.2756  -16.2723   21.7082 O   0  0  0  0  0  0  0  0  0  0  0  0
   14.7622  -15.3443   22.3978 O   0  0  0  0  0  0  0  0  0  0  0  0
  2  4  1  0
  2  1  1  6
  3  2  1  0
  4  6  1  0
  4  5  1  1
  6  7  2  0
  8  9  1  0
  9 11  1  0
 10  9  2  0
 11 12  1  0
 12 13  1  0
 14 13  1  0
 15 14  1  6
 16 15  1  0
 16  6  1  0
 17 18  2  0
 17 15  1  0
 19 20  1  0
 20 22  1  0
 21 20  2  0
 22 23  1  0
 23 24  1  0
 24 25  1  0
 26 25  1  1
 26 27  1  0
 26 28  1  0
 27 17  1  0
 28 30  1  0
 29 28  2  0
M  END
$$$$
