VRR.pdb
     RDKit          3D

 30 29  0  0  1  0  0  0  0  0999 V2000
    6.0608  -12.9604   24.8929 C   0  0  0  0  0  0  0  0  0  0  0  0
    6.9584  -12.6880   26.0930 C   0  0  1  0  0  0  0  0  0  0  0  0
    6.4922  -11.5080   26.8785 C   0  0  0  0  0  0  0  0  0  0  0  0
    7.1496  -13.9476   26.9138 C   0  0  2  0  0  0  0  0  0  0  0  0
    8.1173  -13.5719   27.9577 N   0  0  0  0  0  0  0  0  0  0  0  0
    7.7739  -15.0348   26.1265 C   0  0  0  0  0  0  0  0  0  0  0  0
    8.9528  -14.9028   25.7145 O   0  0  0  0  0  0  0  0  0  0  0  0
    7.4422  -20.0017   29.5791 N   0  0  0  0  0  0  0  0  0  0  0  0
    8.1341  -21.0557   28.9331 C   0  0  0  0  0  0  0  0  0  0  0  0
    9.1712  -21.5828   29.4766 N   0  0  0  0  0  0  0  0  0  0  0  0
    7.6664  -21.5277   27.6693 N   0  0  0  0  0  0  0  0  0  0  0  0
    6.9798  -20.6380   26.7593 C   0  0  0  0  0  0  0  0  0  0  0  0
    7.8259  -19.4080   26.4024 C   0  0  0  0  0  0  0  0  0  0  0  0
    7.0323  -18.5754   25.4547 C   0  0  0  0  0  0  0  0  0  0  0  0
    7.7622  -17.2990   24.9977 C   0  0  2  0  0  0  0  0  0  0  0  0
    7.1251  -16.2404   25.7966 N   0  0  0  0  0  0  0  0  0  0  0  0
    7.5766  -17.0495   23.5457 C   0  0  0  0  0  0  0  0  0  0  0  0
    6.5257  -16.4535   23.1190 O   0  0  0  0  0  0  0  0  0  0  0  0
    9.7447  -22.3150   29.0262 N   0  0  0  0  0  0  0  0  0  0  0  0
    8.7912  -12.0013   18.6568 C   0  0  0  0  0  0  0  0  0  0  0  0
    8.1706  -13.0483   17.9166 N   0  0  0  0  0  0  0  0  0  0  0  0
    8.4070  -13.2061   16.6628 N   0  0  0  0  0  0  0  0  0  0  0  0
    7.2596  -13.9576   18.5588 C   0  0  0  0  0  0  0  0  0  0  0  0
    7.2708  -14.1770   19.9766 C   0  0  0  0  0  0  0  0  0  0  0  0
    8.6893  -14.3120   20.5149 C   0  0  0  0  0  0  0  0  0  0  0  0
    8.7412  -15.1573   21.7566 C   0  0  2  0  0  0  0  0  0  0  0  0
    8.9253  -16.5876   21.4443 N   0  0  0  0  0  0  0  0  0  0  0  0
    8.5349  -17.4477   22.5769 C   0  0  0  0  0  0  0  0  0  0  0  0
   10.2419  -16.9920   20.9169 O   0  0  0  0  0  0  0  0  0  0  0  0
   11.2178  -17.3794   21.6030 O   0  0  0  0  0  0  0  0  0  0  0  0
  2  4  1  0
  2  1  1  6
  3  2  1  0
  4  6  1  0
  4  5  1  1
  6  7  2  0
  8  9  1  0
  9 11  1  0
 10  9  2  0
 11 12  1  0
 12 13  1  0
 14 13  1  0
 15 14  1  1
 16 15  1  0
 16  6  1  0
 17 18  2  0
 17 15  1  0
 19 20  1  0
 20 22  1  0
 21 20  2  0
 22 23  1  0
 23 24  1  0
 24 25  1  0
 26 25  1  6
 26 27  1  0
 26 28  1  0
 27 17  1  0
 28 30  1  0
 29 28  2  0
M  END
$$$$
