VRR.pdb
     RDKit          3D

 30 29  0  0  1  0  0  0  0  0999 V2000
    8.4051  -12.9188   20.6028 C   0  0  0  0  0  0  0  0  0  0  0  0
    7.5783  -13.3992   19.4172 C   0  0  1  0  0  0  0  0  0  0  0  0
    7.0801  -12.2614   18.5902 C   0  0  0  0  0  0  0  0  0  0  0  0
    8.3307  -14.4566   18.6346 C   0  0  2  0  0  0  0  0  0  0  0  0
    7.3713  -14.9281   17.6225 N   0  0  0  0  0  0  0  0  0  0  0  0
    8.6756  -15.6277   19.4720 C   0  0  0  0  0  0  0  0  0  0  0  0
    7.7652  -16.3990   19.8633 O   0  0  0  0  0  0  0  0  0  0  0  0
   10.6576  -21.3464   19.7647 N   0  0  0  0  0  0  0  0  0  0  0  0
   11.2603  -20.9009   18.5626 C   0  0  0  0  0  0  0  0  0  0  0  0
   10.7345  -21.1858   17.4263 N   0  0  0  0  0  0  0  0  0  0  0  0
   12.4605  -20.1300   18.6263 N   0  0  0  0  0  0  0  0  0  0  0  0
   12.9845  -19.6873   19.8993 C   0  0  0  0  0  0  0  0  0  0  0  0
   11.9084  -19.0235   20.7697 C   0  0  0  0  0  0  0  0  0  0  0  0
   11.3728  -17.8572   20.0118 C   0  0  0  0  0  0  0  0  0  0  0  0
   10.2940  -17.0692   20.7773 C   0  0  2  0  0  0  0  0  0  0  0  0
    9.9866  -15.9502   19.8729 N   0  0  0  0  0  0  0  0  0  0  0  0
   10.7991  -16.5710   22.0819 C   0  0  0  0  0  0  0  0  0  0  0  0
   11.7638  -15.7289   22.1253 O   0  0  0  0  0  0  0  0  0  0  0  0
   11.1112  -20.8570   16.5220 N   0  0  0  0  0  0  0  0  0  0  0  0
    5.4729  -14.0645   25.5259 C   0  0  0  0  0  0  0  0  0  0  0  0
    6.4516  -13.3275   26.2530 N   0  0  0  0  0  0  0  0  0  0  0  0
    6.4616  -12.0420   26.2384 N   0  0  0  0  0  0  0  0  0  0  0  0
    7.4569  -14.0090   27.0238 C   0  0  0  0  0  0  0  0  0  0  0  0
    8.7801  -14.2407   26.5200 C   0  0  0  0  0  0  0  0  0  0  0  0
    8.7769  -15.2278   25.3599 C   0  0  0  0  0  0  0  0  0  0  0  0
    9.6747  -16.4045   25.6208 C   0  0  2  0  0  0  0  0  0  0  0  0
   10.7540  -16.5089   24.6200 N   0  0  0  0  0  0  0  0  0  0  0  0
   10.2487  -16.9912   23.3213 C   0  0  0  0  0  0  0  0  0  0  0  0
   11.9617  -17.2572   25.0159 O   0  0  0  0  0  0  0  0  0  0  0  0
   12.1785  -18.4713   24.7871 O   0  0  0  0  0  0  0  0  0  0  0  0
  2  4  1  0
  2  1  1  1
  3  2  1  0
  4  6  1  0
  4  5  1  6
  6  7  2  0
  8  9  1  0
  9 11  1  0
 10  9  2  0
 11 12  1  0
 12 13  1  0
 14 13  1  0
 15 14  1  6
 16 15  1  0
 16  6  1  0
 17 18  2  0
 17 15  1  0
 19 20  1  0
 20 22  1  0
 21 20  2  0
 22 23  1  0
 23 24  1  0
 24 25  1  0
 26 25  1  6
 26 27  1  0
 26 28  1  0
 27 17  1  0
 28 30  1  0
 29 28  2  0
M  END
$$$$
