VRR.pdb
     RDKit          3D

 30 29  0  0  1  0  0  0  0  0999 V2000
   10.0128  -13.3019   20.3378 C   0  0  0  0  0  0  0  0  0  0  0  0
    8.6238  -12.9736   19.8058 C   0  0  1  0  0  0  0  0  0  0  0  0
    8.6011  -11.6699   19.0799 C   0  0  0  0  0  0  0  0  0  0  0  0
    8.0663  -14.1387   19.0131 C   0  0  2  0  0  0  0  0  0  0  0  0
    6.7302  -13.6948   18.5828 N   0  0  0  0  0  0  0  0  0  0  0  0
    7.8649  -15.3389   19.8559 C   0  0  0  0  0  0  0  0  0  0  0  0
    7.0697  -15.2878   20.8265 O   0  0  0  0  0  0  0  0  0  0  0  0
   10.7347  -19.6774   17.3396 N   0  0  0  0  0  0  0  0  0  0  0  0
   10.0132  -20.1677   16.2234 C   0  0  0  0  0  0  0  0  0  0  0  0
   10.6075  -20.3744   15.1040 N   0  0  0  0  0  0  0  0  0  0  0  0
    8.6160  -20.4307   16.3548 N   0  0  0  0  0  0  0  0  0  0  0  0
    7.9296  -20.1596   17.5984 C   0  0  0  0  0  0  0  0  0  0  0  0
    8.6393  -19.0813   18.4289 C   0  0  0  0  0  0  0  0  0  0  0  0
    7.8042  -18.8203   19.6355 C   0  0  0  0  0  0  0  0  0  0  0  0
    8.3715  -17.7187   20.5495 C   0  0  2  0  0  0  0  0  0  0  0  0
    8.5171  -16.5688   19.6433 N   0  0  0  0  0  0  0  0  0  0  0  0
    9.6835  -18.1055   21.1276 C   0  0  0  0  0  0  0  0  0  0  0  0
   10.6417  -18.4842   20.3660 O   0  0  0  0  0  0  0  0  0  0  0  0
   10.1305  -20.7297   14.2589 N   0  0  0  0  0  0  0  0  0  0  0  0
   14.4660  -15.9714   19.3865 C   0  0  0  0  0  0  0  0  0  0  0  0
   13.4572  -14.9968   19.6353 N   0  0  0  0  0  0  0  0  0  0  0  0
   12.9981  -14.2589   18.6879 N   0  0  0  0  0  0  0  0  0  0  0  0
   12.9268  -14.8148   20.9600 C   0  0  0  0  0  0  0  0  0  0  0  0
   13.3727  -15.5977   22.0764 C   0  0  0  0  0  0  0  0  0  0  0  0
   12.8306  -17.0201   22.0199 C   0  0  0  0  0  0  0  0  0  0  0  0
   12.1569  -17.4162   23.3036 C   0  0  2  0  0  0  0  0  0  0  0  0
   11.2114  -18.5324   23.1103 N   0  0  0  0  0  0  0  0  0  0  0  0
    9.9385  -18.0736   22.5238 C   0  0  0  0  0  0  0  0  0  0  0  0
   10.9612  -19.4047   24.2729 O   0  0  0  0  0  0  0  0  0  0  0  0
    9.8786  -19.4964   24.8998 O   0  0  0  0  0  0  0  0  0  0  0  0
  2  4  1  0
  2  1  1  6
  3  2  1  0
  4  6  1  0
  4  5  1  1
  6  7  2  0
  8  9  1  0
  9 11  1  0
 10  9  2  0
 11 12  1  0
 12 13  1  0
 14 13  1  0
 15 14  1  6
 16 15  1  0
 16  6  1  0
 17 18  2  0
 17 15  1  0
 19 20  1  0
 20 22  1  0
 21 20  2  0
 22 23  1  0
 23 24  1  0
 24 25  1  0
 26 25  1  6
 26 27  1  0
 26 28  1  0
 27 17  1  0
 28 30  1  0
 29 28  2  0
M  END
$$$$
