VRR.pdb
     RDKit          3D

 30 29  0  0  1  0  0  0  0  0999 V2000
   13.9511  -20.1610   18.3509 C   0  0  0  0  0  0  0  0  0  0  0  0
   14.2561  -18.9305   17.5065 C   0  0  1  0  0  0  0  0  0  0  0  0
   14.6849  -19.2975   16.1251 C   0  0  0  0  0  0  0  0  0  0  0  0
   13.1051  -17.9462   17.5615 C   0  0  2  0  0  0  0  0  0  0  0  0
   13.5305  -16.8234   16.7097 N   0  0  0  0  0  0  0  0  0  0  0  0
   12.9077  -17.3970   18.9221 C   0  0  0  0  0  0  0  0  0  0  0  0
   13.8781  -16.8786   19.5275 O   0  0  0  0  0  0  0  0  0  0  0  0
    6.7088  -13.1350   20.0461 N   0  0  0  0  0  0  0  0  0  0  0  0
    6.9614  -13.7525   18.7964 C   0  0  0  0  0  0  0  0  0  0  0  0
    6.8694  -13.0789   17.7071 N   0  0  0  0  0  0  0  0  0  0  0  0
    7.3202  -15.1341   18.7593 N   0  0  0  0  0  0  0  0  0  0  0  0
    7.9326  -15.7668   19.9062 C   0  0  0  0  0  0  0  0  0  0  0  0
    9.4631  -15.8098   19.7960 C   0  0  0  0  0  0  0  0  0  0  0  0
    9.9805  -16.5315   20.9930 C   0  0  0  0  0  0  0  0  0  0  0  0
   11.4936  -16.8106   20.9364 C   0  0  2  0  0  0  0  0  0  0  0  0
   11.6771  -17.4130   19.6067 N   0  0  0  0  0  0  0  0  0  0  0  0
   11.9198  -17.7492   22.0052 C   0  0  0  0  0  0  0  0  0  0  0  0
   11.7989  -19.0145   21.8437 O   0  0  0  0  0  0  0  0  0  0  0  0
    6.9946  -13.4895   16.7671 N   0  0  0  0  0  0  0  0  0  0  0  0
   15.6469  -21.5191   21.8155 C   0  0  0  0  0  0  0  0  0  0  0  0
   16.9519  -21.5781   22.3838 N   0  0  0  0  0  0  0  0  0  0  0  0
   17.5451  -22.7034   22.5701 N   0  0  0  0  0  0  0  0  0  0  0  0
   17.6390  -20.3732   22.7649 C   0  0  0  0  0  0  0  0  0  0  0  0
   17.0523  -19.0742   22.6017 C   0  0  0  0  0  0  0  0  0  0  0  0
   15.9113  -18.8435   23.5842 C   0  0  0  0  0  0  0  0  0  0  0  0
   14.7319  -18.1803   22.9301 C   0  0  1  0  0  0  0  0  0  0  0  0
   13.6208  -17.9688   23.8778 N   0  0  0  0  0  0  0  0  0  0  0  0
   12.4739  -17.3023   23.2335 C   0  0  0  0  0  0  0  0  0  0  0  0
   13.9498  -17.3121   25.1568 O   0  0  0  0  0  0  0  0  0  0  0  0
   13.6416  -16.1395   25.4781 O   0  0  0  0  0  0  0  0  0  0  0  0
  2  4  1  0
  2  1  1  1
  3  2  1  0
  4  6  1  0
  4  5  1  6
  6  7  2  0
  8  9  1  0
  9 11  1  0
 10  9  2  0
 11 12  1  0
 12 13  1  0
 14 13  1  0
 15 14  1  1
 16 15  1  0
 16  6  1  0
 17 18  2  0
 17 15  1  0
 19 20  1  0
 20 22  1  0
 21 20  2  0
 22 23  1  0
 23 24  1  0
 24 25  1  0
 26 25  1  6
 26 27  1  0
 26 28  1  0
 27 17  1  0
 28 30  1  0
 29 28  2  0
M  END
$$$$
