VRR.pdb
     RDKit          3D

 30 29  0  0  1  0  0  0  0  0999 V2000
    8.5292  -11.8185   25.8405 C   0  0  0  0  0  0  0  0  0  0  0  0
    7.2850  -12.4134   26.4872 C   0  0  1  0  0  0  0  0  0  0  0  0
    6.6692  -11.4765   27.4720 C   0  0  0  0  0  0  0  0  0  0  0  0
    6.3271  -12.9259   25.4306 C   0  0  2  0  0  0  0  0  0  0  0  0
    5.2945  -13.6571   26.1832 N   0  0  0  0  0  0  0  0  0  0  0  0
    6.9693  -13.9067   24.5267 C   0  0  0  0  0  0  0  0  0  0  0  0
    7.1665  -15.0808   24.9263 O   0  0  0  0  0  0  0  0  0  0  0  0
    7.0773  -15.0726   17.0182 N   0  0  0  0  0  0  0  0  0  0  0  0
    8.3581  -14.4757   17.1188 C   0  0  0  0  0  0  0  0  0  0  0  0
    9.3231  -14.8756   16.3720 N   0  0  0  0  0  0  0  0  0  0  0  0
    8.5666  -13.4226   18.0603 N   0  0  0  0  0  0  0  0  0  0  0  0
    7.4918  -12.9812   18.9211 C   0  0  0  0  0  0  0  0  0  0  0  0
    7.2325  -13.9613   20.0736 C   0  0  0  0  0  0  0  0  0  0  0  0
    8.3375  -13.7981   21.0604 C   0  0  0  0  0  0  0  0  0  0  0  0
    8.1118  -14.5749   22.3705 C   0  0  2  0  0  0  0  0  0  0  0  0
    7.3867  -13.6122   23.2143 N   0  0  0  0  0  0  0  0  0  0  0  0
    9.3958  -14.9702   23.0033 C   0  0  0  0  0  0  0  0  0  0  0  0
   10.2228  -14.0779   23.4051 O   0  0  0  0  0  0  0  0  0  0  0  0
   10.2677  -14.4567   16.3829 N   0  0  0  0  0  0  0  0  0  0  0  0
   10.1811  -18.0415   29.6420 C   0  0  0  0  0  0  0  0  0  0  0  0
   10.6317  -19.2235   28.9869 N   0  0  0  0  0  0  0  0  0  0  0  0
   10.4835  -20.3805   29.5277 N   0  0  0  0  0  0  0  0  0  0  0  0
   11.2668  -19.1489   27.6984 C   0  0  0  0  0  0  0  0  0  0  0  0
   11.1437  -17.9980   26.8508 C   0  0  0  0  0  0  0  0  0  0  0  0
   11.9209  -18.1686   25.5520 C   0  0  0  0  0  0  0  0  0  0  0  0
   11.0292  -18.0693   24.3462 C   0  0  2  0  0  0  0  0  0  0  0  0
   11.0767  -16.7283   23.7324 N   0  0  0  0  0  0  0  0  0  0  0  0
    9.7634  -16.3282   23.1940 C   0  0  0  0  0  0  0  0  0  0  0  0
   12.1393  -16.4859   22.7388 O   0  0  0  0  0  0  0  0  0  0  0  0
   12.1266  -16.8699   21.5448 O   0  0  0  0  0  0  0  0  0  0  0  0
  2  4  1  0
  2  1  1  6
  3  2  1  0
  4  6  1  0
  4  5  1  1
  6  7  2  0
  8  9  1  0
  9 11  1  0
 10  9  2  0
 11 12  1  0
 12 13  1  0
 14 13  1  0
 15 14  1  6
 16 15  1  0
 16  6  1  0
 17 18  2  0
 17 15  1  0
 19 20  1  0
 20 22  1  0
 21 20  2  0
 22 23  1  0
 23 24  1  0
 24 25  1  0
 26 25  1  1
 26 27  1  0
 26 28  1  0
 27 17  1  0
 28 30  1  0
 29 28  2  0
M  END
$$$$
