VRR.pdb
     RDKit          3D

 30 29  0  0  1  0  0  0  0  0999 V2000
    7.5316  -11.8747   18.8411 C   0  0  0  0  0  0  0  0  0  0  0  0
    8.2439  -12.9945   19.5887 C   0  0  1  0  0  0  0  0  0  0  0  0
    7.4943  -13.4111   20.8100 C   0  0  0  0  0  0  0  0  0  0  0  0
    8.5850  -14.1324   18.6477 C   0  0  2  0  0  0  0  0  0  0  0  0
    7.2828  -14.6403   18.1856 N   0  0  0  0  0  0  0  0  0  0  0  0
    9.2538  -15.2518   19.3485 C   0  0  0  0  0  0  0  0  0  0  0  0
    8.5828  -16.0008   20.1008 O   0  0  0  0  0  0  0  0  0  0  0  0
   11.0089  -20.6315   17.2848 N   0  0  0  0  0  0  0  0  0  0  0  0
   11.4284  -20.0368   16.0694 C   0  0  0  0  0  0  0  0  0  0  0  0
   10.7445  -20.1998   14.9949 N   0  0  0  0  0  0  0  0  0  0  0  0
   12.6214  -19.2524   16.0503 N   0  0  0  0  0  0  0  0  0  0  0  0
   12.7344  -18.0642   16.8665 C   0  0  0  0  0  0  0  0  0  0  0  0
   12.2128  -18.2889   18.2926 C   0  0  0  0  0  0  0  0  0  0  0  0
   12.4521  -17.0352   19.0622 C   0  0  0  0  0  0  0  0  0  0  0  0
   11.2757  -16.6386   19.9729 C   0  0  2  0  0  0  0  0  0  0  0  0
   10.6256  -15.5475   19.2301 N   0  0  0  0  0  0  0  0  0  0  0  0
   11.7433  -16.1681   21.3015 C   0  0  0  0  0  0  0  0  0  0  0  0
   12.4556  -15.1077   21.4005 O   0  0  0  0  0  0  0  0  0  0  0  0
   11.0210  -19.8165   14.0759 N   0  0  0  0  0  0  0  0  0  0  0  0
    9.5547  -14.2399   28.5030 C   0  0  0  0  0  0  0  0  0  0  0  0
   10.5388  -15.0257   29.1690 N   0  0  0  0  0  0  0  0  0  0  0  0
   11.1021  -14.6107   30.2475 N   0  0  0  0  0  0  0  0  0  0  0  0
   10.9272  -16.3084   28.6463 C   0  0  0  0  0  0  0  0  0  0  0  0
   10.4921  -16.7738   27.3609 C   0  0  0  0  0  0  0  0  0  0  0  0
   11.4074  -16.2861   26.2453 C   0  0  0  0  0  0  0  0  0  0  0  0
   10.9302  -16.7319   24.8916 C   0  0  1  0  0  0  0  0  0  0  0  0
   11.8931  -16.3920   23.8264 N   0  0  0  0  0  0  0  0  0  0  0  0
   11.4295  -16.8532   22.5047 C   0  0  0  0  0  0  0  0  0  0  0  0
   13.2984  -16.7817   24.0472 O   0  0  0  0  0  0  0  0  0  0  0  0
   13.8215  -17.8658   23.6945 O   0  0  0  0  0  0  0  0  0  0  0  0
  2  4  1  0
  2  1  1  6
  3  2  1  0
  4  6  1  0
  4  5  1  1
  6  7  2  0
  8  9  1  0
  9 11  1  0
 10  9  2  0
 11 12  1  0
 12 13  1  0
 14 13  1  0
 15 14  1  6
 16 15  1  0
 16  6  1  0
 17 18  2  0
 17 15  1  0
 19 20  1  0
 20 22  1  0
 21 20  2  0
 22 23  1  0
 23 24  1  0
 24 25  1  0
 26 25  1  6
 26 27  1  0
 26 28  1  0
 27 17  1  0
 28 30  1  0
 29 28  2  0
M  END
$$$$
