VRR.pdb
     RDKit          3D

 30 29  0  0  1  0  0  0  0  0999 V2000
    8.2789  -11.8627   26.0091 C   0  0  0  0  0  0  0  0  0  0  0  0
    6.9033  -12.3698   26.4223 C   0  0  1  0  0  0  0  0  0  0  0  0
    6.0179  -11.2605   26.8828 C   0  0  0  0  0  0  0  0  0  0  0  0
    6.3034  -13.2351   25.3322 C   0  0  2  0  0  0  0  0  0  0  0  0
    5.0647  -13.7724   25.9187 N   0  0  0  0  0  0  0  0  0  0  0  0
    7.1611  -14.3980   25.0104 C   0  0  0  0  0  0  0  0  0  0  0  0
    7.2369  -15.3547   25.8203 O   0  0  0  0  0  0  0  0  0  0  0  0
    7.0304  -12.3514   17.7127 N   0  0  0  0  0  0  0  0  0  0  0  0
    7.4119  -13.5405   18.3815 C   0  0  0  0  0  0  0  0  0  0  0  0
    6.6827  -14.5945   18.3021 N   0  0  0  0  0  0  0  0  0  0  0  0
    8.6176  -13.5563   19.1462 N   0  0  0  0  0  0  0  0  0  0  0  0
    9.0522  -14.7649   19.8107 C   0  0  0  0  0  0  0  0  0  0  0  0
    8.3382  -14.9770   21.1529 C   0  0  0  0  0  0  0  0  0  0  0  0
    9.3742  -15.3385   22.1615 C   0  0  0  0  0  0  0  0  0  0  0  0
    8.7935  -15.6641   23.5499 C   0  0  2  0  0  0  0  0  0  0  0  0
    7.9193  -14.5142   23.8293 N   0  0  0  0  0  0  0  0  0  0  0  0
    9.8589  -15.7803   24.5779 C   0  0  0  0  0  0  0  0  0  0  0  0
   10.5015  -14.7421   24.9664 O   0  0  0  0  0  0  0  0  0  0  0  0
    6.9220  -15.4922   18.7546 N   0  0  0  0  0  0  0  0  0  0  0  0
   11.2656  -20.8088   29.9966 C   0  0  0  0  0  0  0  0  0  0  0  0
   11.8636  -20.0096   31.0130 N   0  0  0  0  0  0  0  0  0  0  0  0
   12.0885  -20.4853   32.1860 N   0  0  0  0  0  0  0  0  0  0  0  0
   12.2311  -18.6443   30.7485 C   0  0  0  0  0  0  0  0  0  0  0  0
   11.4646  -17.8014   29.8765 C   0  0  0  0  0  0  0  0  0  0  0  0
   11.8893  -17.9601   28.4223 C   0  0  0  0  0  0  0  0  0  0  0  0
   10.7779  -17.6151   27.4713 C   0  0  1  0  0  0  0  0  0  0  0  0
   11.2899  -17.1473   26.1689 N   0  0  0  0  0  0  0  0  0  0  0  0
   10.2105  -17.0207   25.1721 C   0  0  0  0  0  0  0  0  0  0  0  0
   12.4367  -17.8798   25.6000 O   0  0  0  0  0  0  0  0  0  0  0  0
   13.5557  -18.0269   26.1473 O   0  0  0  0  0  0  0  0  0  0  0  0
  2  4  1  0
  2  1  1  6
  3  2  1  0
  4  6  1  0
  4  5  1  1
  6  7  2  0
  8  9  1  0
  9 11  1  0
 10  9  2  0
 11 12  1  0
 12 13  1  0
 14 13  1  0
 15 14  1  6
 16 15  1  0
 16  6  1  0
 17 18  2  0
 17 15  1  0
 19 20  1  0
 20 22  1  0
 21 20  2  0
 22 23  1  0
 23 24  1  0
 24 25  1  0
 26 25  1  1
 26 27  1  0
 26 28  1  0
 27 17  1  0
 28 30  1  0
 29 28  2  0
M  END
$$$$
