VRR.pdb
     RDKit          3D

 30 29  0  0  1  0  0  0  0  0999 V2000
   11.1822  -15.8171   17.0216 C   0  0  0  0  0  0  0  0  0  0  0  0
   10.0804  -16.2038   16.0436 C   0  0  1  0  0  0  0  0  0  0  0  0
   10.3954  -15.7677   14.6516 C   0  0  0  0  0  0  0  0  0  0  0  0
    9.7421  -17.6752   16.1747 C   0  0  2  0  0  0  0  0  0  0  0  0
    8.5906  -17.8767   15.2799 N   0  0  0  0  0  0  0  0  0  0  0  0
    9.2856  -18.0212   17.5398 C   0  0  0  0  0  0  0  0  0  0  0  0
    8.1351  -17.6830   17.9125 O   0  0  0  0  0  0  0  0  0  0  0  0
   11.5679  -24.9730   22.3647 N   0  0  0  0  0  0  0  0  0  0  0  0
   10.3394  -24.5080   22.8953 C   0  0  0  0  0  0  0  0  0  0  0  0
    9.5835  -25.2948   23.5724 N   0  0  0  0  0  0  0  0  0  0  0  0
    9.9488  -23.1533   22.6699 N   0  0  0  0  0  0  0  0  0  0  0  0
   10.3170  -22.4746   21.4472 C   0  0  0  0  0  0  0  0  0  0  0  0
    9.7333  -21.0568   21.3730 C   0  0  0  0  0  0  0  0  0  0  0  0
   10.1203  -20.4792   20.0548 C   0  0  0  0  0  0  0  0  0  0  0  0
    9.5924  -19.0502   19.8307 C   0  0  2  0  0  0  0  0  0  0  0  0
   10.0683  -18.7219   18.4777 N   0  0  0  0  0  0  0  0  0  0  0  0
   10.1415  -18.0984   20.8295 C   0  0  0  0  0  0  0  0  0  0  0  0
   11.3701  -17.7387   20.7759 O   0  0  0  0  0  0  0  0  0  0  0  0
    8.7070  -24.9942   24.0298 N   0  0  0  0  0  0  0  0  0  0  0  0
    6.4242  -14.1011   19.6530 C   0  0  0  0  0  0  0  0  0  0  0  0
    7.1227  -12.8680   19.7979 N   0  0  0  0  0  0  0  0  0  0  0  0
    7.1867  -12.0230   18.8310 N   0  0  0  0  0  0  0  0  0  0  0  0
    7.7764  -12.5387   21.0362 C   0  0  0  0  0  0  0  0  0  0  0  0
    7.8224  -13.4509   22.1426 C   0  0  0  0  0  0  0  0  0  0  0  0
    8.9146  -14.4978   21.9651 C   0  0  0  0  0  0  0  0  0  0  0  0
    8.9424  -15.4794   23.1029 C   0  0  2  0  0  0  0  0  0  0  0  0
    9.8844  -16.5875   22.8541 N   0  0  0  0  0  0  0  0  0  0  0  0
    9.3494  -17.5478   21.8710 C   0  0  0  0  0  0  0  0  0  0  0  0
   10.4100  -17.2955   24.0364 O   0  0  0  0  0  0  0  0  0  0  0  0
    9.8483  -18.2476   24.6292 O   0  0  0  0  0  0  0  0  0  0  0  0
  2  4  1  0
  2  1  1  1
  3  2  1  0
  4  6  1  0
  4  5  1  6
  6  7  2  0
  8  9  1  0
  9 11  1  0
 10  9  2  0
 11 12  1  0
 12 13  1  0
 14 13  1  0
 15 14  1  1
 16 15  1  0
 16  6  1  0
 17 18  2  0
 17 15  1  0
 19 20  1  0
 20 22  1  0
 21 20  2  0
 22 23  1  0
 23 24  1  0
 24 25  1  0
 26 25  1  6
 26 27  1  0
 26 28  1  0
 27 17  1  0
 28 30  1  0
 29 28  2  0
M  END
$$$$
