VRR.pdb
     RDKit          3D

 30 29  0  0  1  0  0  0  0  0999 V2000
   10.5551  -19.4339   13.3151 C   0  0  0  0  0  0  0  0  0  0  0  0
   11.0891  -19.1494   14.7130 C   0  0  1  0  0  0  0  0  0  0  0  0
   11.8824  -17.8862   14.7578 C   0  0  0  0  0  0  0  0  0  0  0  0
    9.9733  -19.2218   15.7360 C   0  0  2  0  0  0  0  0  0  0  0  0
    8.9773  -18.2406   15.2750 N   0  0  0  0  0  0  0  0  0  0  0  0
   10.4184  -18.7785   17.0764 C   0  0  0  0  0  0  0  0  0  0  0  0
   10.7355  -17.5770   17.2578 O   0  0  0  0  0  0  0  0  0  0  0  0
   11.1055  -23.8385   24.2181 N   0  0  0  0  0  0  0  0  0  0  0  0
   11.5168  -22.5978   24.7645 C   0  0  0  0  0  0  0  0  0  0  0  0
   11.8502  -22.5098   26.0014 N   0  0  0  0  0  0  0  0  0  0  0  0
   11.5576  -21.4435   23.9250 N   0  0  0  0  0  0  0  0  0  0  0  0
   11.0446  -21.4971   22.5741 C   0  0  0  0  0  0  0  0  0  0  0  0
   11.3483  -20.2144   21.7875 C   0  0  0  0  0  0  0  0  0  0  0  0
   10.7994  -20.3887   20.4129 C   0  0  0  0  0  0  0  0  0  0  0  0
   11.0862  -19.1975   19.4805 C   0  0  2  0  0  0  0  0  0  0  0  0
   10.5148  -19.6286   18.1951 N   0  0  0  0  0  0  0  0  0  0  0  0
   12.5427  -18.9388   19.3512 C   0  0  0  0  0  0  0  0  0  0  0  0
   13.2831  -19.7268   18.6639 O   0  0  0  0  0  0  0  0  0  0  0  0
   12.1600  -21.6321   26.4503 N   0  0  0  0  0  0  0  0  0  0  0  0
   17.1778  -12.1584   16.5728 C   0  0  0  0  0  0  0  0  0  0  0  0
   18.1033  -13.2186   16.7940 N   0  0  0  0  0  0  0  0  0  0  0  0
   19.3249  -13.1264   16.4041 N   0  0  0  0  0  0  0  0  0  0  0  0
   17.6893  -14.4235   17.4619 C   0  0  0  0  0  0  0  0  0  0  0  0
   16.3317  -14.6436   17.8702 C   0  0  0  0  0  0  0  0  0  0  0  0
   16.1755  -15.9585   18.6232 C   0  0  0  0  0  0  0  0  0  0  0  0
   14.7403  -16.2417   18.9678 C   0  0  2  0  0  0  0  0  0  0  0  0
   14.5930  -17.4915   19.7381 N   0  0  0  0  0  0  0  0  0  0  0  0
   13.1754  -17.8271   19.9672 C   0  0  0  0  0  0  0  0  0  0  0  0
   15.3594  -17.5963   20.9939 O   0  0  0  0  0  0  0  0  0  0  0  0
   14.8913  -17.4658   22.1503 O   0  0  0  0  0  0  0  0  0  0  0  0
  2  4  1  0
  2  1  1  6
  3  2  1  0
  4  6  1  0
  4  5  1  6
  6  7  2  0
  8  9  1  0
  9 11  1  0
 10  9  2  0
 11 12  1  0
 12 13  1  0
 14 13  1  0
 15 14  1  1
 16 15  1  0
 16  6  1  0
 17 18  2  0
 17 15  1  0
 19 20  1  0
 20 22  1  0
 21 20  2  0
 22 23  1  0
 23 24  1  0
 24 25  1  0
 26 25  1  6
 26 27  1  0
 26 28  1  0
 27 17  1  0
 28 30  1  0
 29 28  2  0
M  END
$$$$
