PKI.pdb
     RDKit          3D

 25 25  0  0  1  0  0  0  0  0999 V2000
   21.2582  -18.9774  -11.5856 N   0  0  0  0  0  0  0  0  0  0  0  0
   19.9968  -18.9381  -12.3079 C   0  0  0  0  0  0  0  0  0  0  0  0
   19.1636  -20.0598  -11.7596 C   0  0  0  0  0  0  0  0  0  0  0  0
   20.2490  -21.0750  -11.3704 C   0  0  0  0  0  0  0  0  0  0  0  0
   21.1927  -20.0934  -10.6926 C   0  0  1  0  0  0  0  0  0  0  0  0
   22.4724  -20.6466  -10.2935 C   0  0  0  0  0  0  0  0  0  0  0  0
   22.5703  -21.6844   -9.5491 O   0  0  0  0  0  0  0  0  0  0  0  0
   23.6919  -20.0701  -10.7028 N   0  0  0  0  0  0  0  0  0  0  0  0
   24.9534  -20.8257  -10.6357 C   0  0  1  0  0  0  0  0  0  0  0  0
   25.6406  -20.7248  -11.9752 C   0  0  0  0  0  0  0  0  0  0  0  0
   26.9064  -21.5373  -12.0517 C   0  0  0  0  0  0  0  0  0  0  0  0
   27.6311  -21.3578  -13.3465 C   0  0  0  0  0  0  0  0  0  0  0  0
   28.8876  -22.1983  -13.4232 C   0  0  0  0  0  0  0  0  0  0  0  0
   29.5045  -21.9677  -14.7246 N   0  0  0  0  0  0  0  0  0  0  0  0
   25.8206  -20.1138   -9.6564 C   0  0  0  0  0  0  0  0  0  0  0  0
   25.7291  -18.8734   -9.5045 O   0  0  0  0  0  0  0  0  0  0  0  0
   26.8242  -20.1915   -4.4519 C   0  0  0  0  0  0  0  0  0  0  0  0
   26.7581  -19.9866   -5.9189 C   0  0  0  0  0  0  0  0  0  0  0  0
   27.9602  -20.2913   -6.7221 C   0  0  2  0  0  0  0  0  0  0  0  0
   29.2233  -19.6530   -6.1626 C   0  0  0  0  0  0  0  0  0  0  0  0
   27.8179  -20.0807   -8.1844 C   0  0  2  0  0  0  0  0  0  0  0  0
   26.7830  -20.8033   -8.8568 N   0  0  0  0  0  0  0  0  0  0  0  0
   29.1291  -20.3527   -8.8640 C   0  0  0  0  0  0  0  0  0  0  0  0
   30.1088  -19.3774   -8.8598 O   0  0  0  0  0  0  0  0  0  0  0  0
   29.3746  -21.4393   -9.4412 O   0  0  0  0  0  0  0  0  0  0  0  0
  1  2  1  0
  2  3  1  0
  4  3  1  0
  5  1  1  0
  5  4  1  0
  5  6  1  6
  7  6  2  0
  8  6  1  0
  9  8  1  0
  9 10  1  6
 10 11  1  0
 11 12  1  0
 12 13  1  0
 13 14  1  0
 15  9  1  0
 16 15  2  0
 18 17  1  0
 18 19  1  0
 19 21  1  0
 19 20  1  1
 21 22  1  6
 22 15  1  0
 23 24  1  0
 23 21  1  0
 25 23  2  0
M  END
$$$$
