PKI.pdb
     RDKit          3D

 25 25  0  0  1  0  0  0  0  0999 V2000
   18.2905  -24.5291   -8.7567 N   0  0  0  0  0  0  0  0  0  0  0  0
   18.5736  -25.3555   -9.9191 C   0  0  0  0  0  0  0  0  0  0  0  0
   17.6248  -26.5166   -9.8502 C   0  0  0  0  0  0  0  0  0  0  0  0
   17.4485  -26.6680   -8.3316 C   0  0  0  0  0  0  0  0  0  0  0  0
   17.2630  -25.1921   -8.0139 C   0  0  1  0  0  0  0  0  0  0  0  0
   17.2096  -24.8693   -6.6012 C   0  0  0  0  0  0  0  0  0  0  0  0
   18.2598  -24.6093   -5.9156 O   0  0  0  0  0  0  0  0  0  0  0  0
   15.9908  -24.8236   -5.8944 N   0  0  0  0  0  0  0  0  0  0  0  0
   15.9392  -24.3847   -4.4903 C   0  0  1  0  0  0  0  0  0  0  0  0
   14.5850  -23.7710   -4.2329 C   0  0  0  0  0  0  0  0  0  0  0  0
   14.4186  -23.2806   -2.8187 C   0  0  0  0  0  0  0  0  0  0  0  0
   13.0638  -22.7038   -2.5625 C   0  0  0  0  0  0  0  0  0  0  0  0
   12.8651  -22.3260   -1.1103 C   0  0  0  0  0  0  0  0  0  0  0  0
   11.4793  -21.9042   -0.9405 N   0  0  0  0  0  0  0  0  0  0  0  0
   16.0136  -25.6182   -3.6592 C   0  0  0  0  0  0  0  0  0  0  0  0
   15.5613  -26.7058   -4.0867 O   0  0  0  0  0  0  0  0  0  0  0  0
   20.4584  -27.6331   -1.7812 C   0  0  0  0  0  0  0  0  0  0  0  0
   19.0442  -27.4472   -2.1861 C   0  0  0  0  0  0  0  0  0  0  0  0
   18.0356  -27.2379   -1.1270 C   0  0  2  0  0  0  0  0  0  0  0  0
   17.9772  -28.3863   -0.1301 C   0  0  0  0  0  0  0  0  0  0  0  0
   16.6900  -26.8301   -1.6022 C   0  0  2  0  0  0  0  0  0  0  0  0
   16.5961  -25.6175   -2.3547 N   0  0  0  0  0  0  0  0  0  0  0  0
   15.7425  -26.7619   -0.4391 C   0  0  0  0  0  0  0  0  0  0  0  0
   15.6734  -25.6025    0.3105 O   0  0  0  0  0  0  0  0  0  0  0  0
   15.0037  -27.7232   -0.1164 O   0  0  0  0  0  0  0  0  0  0  0  0
  1  2  1  0
  2  3  1  0
  4  3  1  0
  5  1  1  0
  5  4  1  0
  5  6  1  1
  7  6  2  0
  8  6  1  0
  9  8  1  0
  9 10  1  6
 10 11  1  0
 11 12  1  0
 12 13  1  0
 13 14  1  0
 15  9  1  0
 16 15  2  0
 18 17  1  0
 18 19  1  0
 19 21  1  0
 19 20  1  6
 21 22  1  1
 22 15  1  0
 23 24  1  0
 23 21  1  0
 25 23  2  0
M  END
$$$$
