PKI.pdb
     RDKit          3D

 25 25  0  0  1  0  0  0  0  0999 V2000
   21.0393  -25.2738  -14.4468 N   0  0  0  0  0  0  0  0  0  0  0  0
   22.0901  -26.2289  -14.7597 C   0  0  0  0  0  0  0  0  0  0  0  0
   21.6799  -27.5271  -14.1276 C   0  0  0  0  0  0  0  0  0  0  0  0
   20.8876  -27.0285  -12.9096 C   0  0  0  0  0  0  0  0  0  0  0  0
   20.0832  -25.9582  -13.6315 C   0  0  1  0  0  0  0  0  0  0  0  0
   19.2776  -25.1110  -12.7733 C   0  0  0  0  0  0  0  0  0  0  0  0
   19.7144  -24.0075  -12.2915 O   0  0  0  0  0  0  0  0  0  0  0  0
   17.9583  -25.4552  -12.4156 N   0  0  0  0  0  0  0  0  0  0  0  0
   17.1549  -24.5881  -11.5384 C   0  0  1  0  0  0  0  0  0  0  0  0
   15.8117  -24.3663  -12.1889 C   0  0  0  0  0  0  0  0  0  0  0  0
   14.8612  -23.5783  -11.3265 C   0  0  0  0  0  0  0  0  0  0  0  0
   14.9682  -22.1038  -11.5461 C   0  0  0  0  0  0  0  0  0  0  0  0
   14.0164  -21.3212  -10.6672 C   0  0  0  0  0  0  0  0  0  0  0  0
   14.2277  -19.9017  -10.9274 N   0  0  0  0  0  0  0  0  0  0  0  0
   16.9028  -25.3646  -10.2929 C   0  0  0  0  0  0  0  0  0  0  0  0
   16.8079  -26.6136  -10.3260 O   0  0  0  0  0  0  0  0  0  0  0  0
   18.1133  -26.0817   -4.4175 C   0  0  0  0  0  0  0  0  0  0  0  0
   17.4254  -26.4333   -5.6831 C   0  0  0  0  0  0  0  0  0  0  0  0
   17.6766  -25.5929   -6.8721 C   0  0  2  0  0  0  0  0  0  0  0  0
   18.2447  -24.2254   -6.5210 C   0  0  0  0  0  0  0  0  0  0  0  0
   16.5549  -25.5098   -7.8403 C   0  0  2  0  0  0  0  0  0  0  0  0
   16.7598  -24.7295   -9.0212 N   0  0  0  0  0  0  0  0  0  0  0  0
   15.3175  -25.0263   -7.1399 C   0  0  0  0  0  0  0  0  0  0  0  0
   14.5215  -25.9349   -6.4678 O   0  0  0  0  0  0  0  0  0  0  0  0
   14.9730  -23.8200   -7.1395 O   0  0  0  0  0  0  0  0  0  0  0  0
  1  2  1  0
  2  3  1  0
  4  3  1  0
  5  1  1  0
  5  4  1  0
  5  6  1  1
  7  6  2  0
  8  6  1  0
  9  8  1  0
  9 10  1  6
 10 11  1  0
 11 12  1  0
 12 13  1  0
 13 14  1  0
 15  9  1  0
 16 15  2  0
 18 17  1  0
 18 19  1  0
 19 21  1  0
 19 20  1  1
 21 22  1  6
 22 15  1  0
 23 24  1  0
 23 21  1  0
 25 23  2  0
M  END
$$$$
