PKI.pdb
     RDKit          3D

 25 25  0  0  1  0  0  0  0  0999 V2000
   27.8859  -21.3545  -15.3703 N   0  0  0  0  0  0  0  0  0  0  0  0
   28.2475  -21.3159  -16.7782 C   0  0  0  0  0  0  0  0  0  0  0  0
   28.8543  -19.9643  -17.0192 C   0  0  0  0  0  0  0  0  0  0  0  0
   28.0991  -19.1104  -15.9894 C   0  0  0  0  0  0  0  0  0  0  0  0
   28.2161  -20.0758  -14.8198 C   0  0  1  0  0  0  0  0  0  0  0  0
   27.4719  -19.6981  -13.6339 C   0  0  0  0  0  0  0  0  0  0  0  0
   27.5868  -18.5446  -13.0889 O   0  0  0  0  0  0  0  0  0  0  0  0
   26.5734  -20.5845  -13.0062 N   0  0  0  0  0  0  0  0  0  0  0  0
   25.5206  -20.0911  -12.1034 C   0  0  1  0  0  0  0  0  0  0  0  0
   24.1863  -20.5662  -12.6235 C   0  0  0  0  0  0  0  0  0  0  0  0
   23.3782  -19.4689  -13.2646 C   0  0  0  0  0  0  0  0  0  0  0  0
   22.0605  -19.9481  -13.7821 C   0  0  0  0  0  0  0  0  0  0  0  0
   21.2381  -18.8292  -14.3845 C   0  0  0  0  0  0  0  0  0  0  0  0
   19.9909  -19.4025  -14.8774 N   0  0  0  0  0  0  0  0  0  0  0  0
   25.7345  -20.7691  -10.7948 C   0  0  0  0  0  0  0  0  0  0  0  0
   25.8166  -22.0177  -10.7272 O   0  0  0  0  0  0  0  0  0  0  0  0
   28.6594  -18.5174   -6.6944 C   0  0  0  0  0  0  0  0  0  0  0  0
   28.0321  -19.5193   -7.5896 C   0  0  0  0  0  0  0  0  0  0  0  0
   26.6967  -20.0392   -7.2298 C   0  0  2  0  0  0  0  0  0  0  0  0
   26.7038  -20.8473   -5.9403 C   0  0  0  0  0  0  0  0  0  0  0  0
   25.9650  -20.7240   -8.3246 C   0  0  2  0  0  0  0  0  0  0  0  0
   25.8541  -20.0369   -9.5740 N   0  0  0  0  0  0  0  0  0  0  0  0
   24.5927  -21.1092   -7.8515 C   0  0  0  0  0  0  0  0  0  0  0  0
   23.4862  -20.5139   -8.4278 O   0  0  0  0  0  0  0  0  0  0  0  0
   24.4073  -21.9575   -6.9459 O   0  0  0  0  0  0  0  0  0  0  0  0
  1  2  1  0
  2  3  1  0
  4  3  1  0
  5  1  1  0
  5  4  1  0
  5  6  1  1
  7  6  2  0
  8  6  1  0
  9  8  1  0
  9 10  1  6
 10 11  1  0
 11 12  1  0
 12 13  1  0
 13 14  1  0
 15  9  1  0
 16 15  2  0
 18 17  1  0
 18 19  1  0
 19 21  1  0
 19 20  1  1
 21 22  1  6
 22 15  1  0
 23 24  1  0
 23 21  1  0
 25 23  2  0
M  END
$$$$
