PKI.pdb
     RDKit          3D

 25 25  0  0  1  0  0  0  0  0999 V2000
   23.9932  -23.5454  -15.8045 N   0  0  0  0  0  0  0  0  0  0  0  0
   25.2101  -24.3187  -15.9936 C   0  0  0  0  0  0  0  0  0  0  0  0
   24.8927  -25.7168  -15.5489 C   0  0  0  0  0  0  0  0  0  0  0  0
   23.8410  -25.4522  -14.4608 C   0  0  0  0  0  0  0  0  0  0  0  0
   23.0231  -24.4278  -15.2323 C   0  0  1  0  0  0  0  0  0  0  0  0
   21.9687  -23.7845  -14.4725 C   0  0  0  0  0  0  0  0  0  0  0  0
   22.1485  -22.6830  -13.8440 O   0  0  0  0  0  0  0  0  0  0  0  0
   20.6756  -24.3380  -14.3793 N   0  0  0  0  0  0  0  0  0  0  0  0
   19.5867  -23.6216  -13.6953 C   0  0  1  0  0  0  0  0  0  0  0  0
   18.5352  -23.2660  -14.7173 C   0  0  0  0  0  0  0  0  0  0  0  0
   18.3219  -21.7813  -14.8525 C   0  0  0  0  0  0  0  0  0  0  0  0
   17.2705  -21.4374  -15.8575 C   0  0  0  0  0  0  0  0  0  0  0  0
   16.9970  -19.9499  -15.9172 C   0  0  0  0  0  0  0  0  0  0  0  0
   15.9558  -19.7234  -16.9130 N   0  0  0  0  0  0  0  0  0  0  0  0
   18.9606  -24.5976  -12.7607 C   0  0  0  0  0  0  0  0  0  0  0  0
   18.7953  -25.7924  -13.1000 O   0  0  0  0  0  0  0  0  0  0  0  0
   19.2049  -23.9456   -7.1625 C   0  0  0  0  0  0  0  0  0  0  0  0
   19.1929  -24.4650   -8.5512 C   0  0  0  0  0  0  0  0  0  0  0  0
   17.8982  -24.8753   -9.1329 C   0  0  2  0  0  0  0  0  0  0  0  0
   17.2000  -25.9560   -8.3201 C   0  0  0  0  0  0  0  0  0  0  0  0
   17.9227  -25.1838  -10.5845 C   0  0  2  0  0  0  0  0  0  0  0  0
   18.5261  -24.2210  -11.4529 N   0  0  0  0  0  0  0  0  0  0  0  0
   16.5290  -25.4729  -11.0633 C   0  0  0  0  0  0  0  0  0  0  0  0
   15.6538  -24.4234  -11.2723 O   0  0  0  0  0  0  0  0  0  0  0  0
   16.1221  -26.6390  -11.2836 O   0  0  0  0  0  0  0  0  0  0  0  0
  1  2  1  0
  2  3  1  0
  4  3  1  0
  5  1  1  0
  5  4  1  0
  5  6  1  1
  7  6  2  0
  8  6  1  0
  9  8  1  0
  9 10  1  6
 10 11  1  0
 11 12  1  0
 12 13  1  0
 13 14  1  0
 15  9  1  0
 16 15  2  0
 18 17  1  0
 18 19  1  0
 19 21  1  0
 19 20  1  1
 21 22  1  6
 22 15  1  0
 23 24  1  0
 23 21  1  0
 25 23  2  0
M  END
$$$$
