PKI.pdb
     RDKit          3D

 25 25  0  0  1  0  0  0  0  0999 V2000
   17.5746  -12.0867  -14.1389 N   0  0  0  0  0  0  0  0  0  0  0  0
   17.8375  -12.9395  -15.2870 C   0  0  0  0  0  0  0  0  0  0  0  0
   17.9073  -12.0297  -16.4789 C   0  0  0  0  0  0  0  0  0  0  0  0
   16.9407  -10.9122  -16.0582 C   0  0  0  0  0  0  0  0  0  0  0  0
   17.4468  -10.7500  -14.6330 C   0  0  1  0  0  0  0  0  0  0  0  0
   16.6681   -9.8516  -13.8026 C   0  0  0  0  0  0  0  0  0  0  0  0
   16.4995   -8.6165  -14.0970 O   0  0  0  0  0  0  0  0  0  0  0  0
   16.0481  -10.2874  -12.6140 N   0  0  0  0  0  0  0  0  0  0  0  0
   15.1063   -9.4234  -11.8837 C   0  0  1  0  0  0  0  0  0  0  0  0
   14.2499  -10.2945  -10.9980 C   0  0  0  0  0  0  0  0  0  0  0  0
   13.1967   -9.5205  -10.2498 C   0  0  0  0  0  0  0  0  0  0  0  0
   12.3929  -10.3800   -9.3285 C   0  0  0  0  0  0  0  0  0  0  0  0
   11.3184   -9.5979   -8.6039 C   0  0  0  0  0  0  0  0  0  0  0  0
   10.5599  -10.5323   -7.7800 N   0  0  0  0  0  0  0  0  0  0  0  0
   15.9282   -8.5725  -10.9791 C   0  0  0  0  0  0  0  0  0  0  0  0
   16.9354   -9.0417  -10.3999 O   0  0  0  0  0  0  0  0  0  0  0  0
   18.4565   -4.6160  -12.8646 C   0  0  0  0  0  0  0  0  0  0  0  0
   17.8079   -5.6669  -12.0439 C   0  0  0  0  0  0  0  0  0  0  0  0
   17.1810   -5.2687  -10.7667 C   0  0  2  0  0  0  0  0  0  0  0  0
   18.1035   -4.4353   -9.8890 C   0  0  0  0  0  0  0  0  0  0  0  0
   16.5189   -6.3638  -10.0149 C   0  0  2  0  0  0  0  0  0  0  0  0
   15.6100   -7.2015  -10.7341 N   0  0  0  0  0  0  0  0  0  0  0  0
   15.8206   -5.7999   -8.8109 C   0  0  0  0  0  0  0  0  0  0  0  0
   16.5529   -5.5222   -7.6718 O   0  0  0  0  0  0  0  0  0  0  0  0
   14.5876   -5.5682   -8.7960 O   0  0  0  0  0  0  0  0  0  0  0  0
  1  2  1  0
  2  3  1  0
  4  3  1  0
  5  1  1  0
  5  4  1  0
  5  6  1  1
  7  6  2  0
  8  6  1  0
  9  8  1  0
  9 10  1  1
 10 11  1  0
 11 12  1  0
 12 13  1  0
 13 14  1  0
 15  9  1  0
 16 15  2  0
 18 17  1  0
 18 19  1  0
 19 21  1  0
 19 20  1  1
 21 22  1  6
 22 15  1  0
 23 24  1  0
 23 21  1  0
 25 23  2  0
M  END
$$$$
