HEL.pdb
     RDKit          3D

 28 28  0  0  1  0  0  0  0  0999 V2000
    7.9379  -16.7887   19.7652 N   0  0  0  0  0  0  0  0  0  0  0  0
    8.3943  -15.7139   20.5867 C   0  0  1  0  0  0  0  0  0  0  0  0
    7.6335  -14.4397   20.4039 C   0  0  0  0  0  0  0  0  0  0  0  0
    7.8803  -13.9214   19.0373 C   0  0  0  0  0  0  0  0  0  0  0  0
    8.5085  -12.7174   18.6963 C   0  0  0  0  0  0  0  0  0  0  0  0
    8.5520  -12.5934   17.3561 N   0  0  0  0  0  0  0  0  0  0  0  0
    7.9642  -13.6950   16.8456 C   0  0  0  0  0  0  0  0  0  0  0  0
    7.5665  -14.4817   17.8610 N   0  0  0  0  0  0  0  0  0  0  0  0
    8.4875  -16.1468   21.9972 C   0  0  0  0  0  0  0  0  0  0  0  0
    7.4461  -16.5796   22.5541 O   0  0  0  0  0  0  0  0  0  0  0  0
    9.7185  -16.0840   22.7309 N   0  0  0  0  0  0  0  0  0  0  0  0
    9.7753  -16.6684   24.0278 C   0  0  1  0  0  0  0  0  0  0  0  0
   10.6869  -17.8287   24.1819 C   0  0  0  0  0  0  0  0  0  0  0  0
   10.8051  -18.4789   25.4974 C   0  0  0  0  0  0  0  0  0  0  0  0
   11.7592  -19.5645   25.6663 C   0  0  0  0  0  0  0  0  0  0  0  0
   11.3502  -20.7044   26.0149 O   0  0  0  0  0  0  0  0  0  0  0  0
   10.0239  -15.6441   25.0882 C   0  0  0  0  0  0  0  0  0  0  0  0
   11.0652  -14.9545   25.1291 O   0  0  0  0  0  0  0  0  0  0  0  0
   13.1214  -19.4226   25.4641 O   0  0  0  0  0  0  0  0  0  0  0  0
    8.0777  -11.9629   25.7871 C   0  0  0  0  0  0  0  0  0  0  0  0
    7.3965  -13.2069   26.3622 C   0  0  2  0  0  0  0  0  0  0  0  0
    5.9938  -12.7642   26.7221 C   0  0  0  0  0  0  0  0  0  0  0  0
    8.1660  -13.7305   27.5434 C   0  0  0  0  0  0  0  0  0  0  0  0
    9.3140  -14.6137   27.2448 C   0  0  2  0  0  0  0  0  0  0  0  0
    9.0331  -15.4572   26.0788 N   0  0  0  0  0  0  0  0  0  0  0  0
    9.7487  -15.3939   28.4119 C   0  0  0  0  0  0  0  0  0  0  0  0
    9.6911  -16.6290   28.5081 O   0  0  0  0  0  0  0  0  0  0  0  0
   10.2673  -14.7037   29.5091 O   0  0  0  0  0  0  0  0  0  0  0  0
  2  9  1  0
  2  1  1  6
  3  2  1  0
  4  3  1  0
  4  5  2  0
  6  5  1  0
  7  6  1  0
  8  7  2  0
  8  4  1  0
  9 11  1  0
 10  9  2  0
 11 12  1  0
 12 13  1  6
 13 14  1  0
 14 15  1  0
 15 19  1  0
 15 16  2  0
 17 18  2  0
 17 12  1  0
 21 20  1  1
 21 23  1  0
 22 21  1  0
 24 23  1  1
 24 25  1  0
 24 26  1  0
 25 17  1  0
 26 28  1  0
 27 26  2  0
M  END
$$$$
