HEL.pdb
     RDKit          3D

 28 28  0  0  1  0  0  0  0  0999 V2000
    9.8391  -15.5621   18.9709 N   0  0  0  0  0  0  0  0  0  0  0  0
    8.7558  -14.9513   19.6720 C   0  0  1  0  0  0  0  0  0  0  0  0
    7.4641  -14.9500   18.9189 C   0  0  0  0  0  0  0  0  0  0  0  0
    7.7154  -14.4987   17.5295 C   0  0  0  0  0  0  0  0  0  0  0  0
    8.2252  -13.2577   17.1287 C   0  0  0  0  0  0  0  0  0  0  0  0
    8.3158  -13.2182   15.7857 N   0  0  0  0  0  0  0  0  0  0  0  0
    7.8736  -14.4092   15.3320 C   0  0  0  0  0  0  0  0  0  0  0  0
    7.5173  -15.1664   16.3845 N   0  0  0  0  0  0  0  0  0  0  0  0
    8.6420  -15.5127   21.0349 C   0  0  0  0  0  0  0  0  0  0  0  0
    7.6813  -15.1344   21.7532 O   0  0  0  0  0  0  0  0  0  0  0  0
    9.5878  -16.4623   21.5464 N   0  0  0  0  0  0  0  0  0  0  0  0
    9.4462  -16.9179   22.8877 C   0  0  1  0  0  0  0  0  0  0  0  0
   10.3415  -18.0273   23.2984 C   0  0  0  0  0  0  0  0  0  0  0  0
   10.2722  -18.5318   24.6797 C   0  0  0  0  0  0  0  0  0  0  0  0
   11.1424  -19.6285   25.0764 C   0  0  0  0  0  0  0  0  0  0  0  0
   11.9775  -20.0899   24.2530 O   0  0  0  0  0  0  0  0  0  0  0  0
    9.5038  -15.7893   23.8668 C   0  0  0  0  0  0  0  0  0  0  0  0
   10.4595  -14.9856   23.9143 O   0  0  0  0  0  0  0  0  0  0  0  0
   11.1116  -20.2125   26.3312 O   0  0  0  0  0  0  0  0  0  0  0  0
    5.5174  -12.3568   26.9719 C   0  0  0  0  0  0  0  0  0  0  0  0
    6.9836  -12.7696   26.8232 C   0  0  2  0  0  0  0  0  0  0  0  0
    7.7090  -11.5158   26.3819 C   0  0  0  0  0  0  0  0  0  0  0  0
    7.1159  -13.8991   25.8391 C   0  0  0  0  0  0  0  0  0  0  0  0
    8.4436  -14.5442   25.7488 C   0  0  2  0  0  0  0  0  0  0  0  0
    8.4272  -15.6356   24.7695 N   0  0  0  0  0  0  0  0  0  0  0  0
    8.9577  -14.9707   27.0578 C   0  0  0  0  0  0  0  0  0  0  0  0
    9.4839  -14.2246   27.8971 O   0  0  0  0  0  0  0  0  0  0  0  0
    8.8557  -16.3213   27.3969 O   0  0  0  0  0  0  0  0  0  0  0  0
  2  9  1  0
  2  1  1  6
  3  2  1  0
  4  3  1  0
  4  5  2  0
  6  5  1  0
  7  6  1  0
  8  7  2  0
  8  4  1  0
  9 11  1  0
 10  9  2  0
 11 12  1  0
 12 13  1  1
 13 14  1  0
 14 15  1  0
 15 19  1  0
 15 16  2  0
 17 18  2  0
 17 12  1  0
 21 20  1  6
 21 23  1  0
 22 21  1  0
 24 23  1  1
 24 25  1  0
 24 26  1  0
 25 17  1  0
 26 28  1  0
 27 26  2  0
M  END
$$$$
