HEL.pdb
     RDKit          3D

 28 28  0  0  1  0  0  0  0  0999 V2000
    9.3548  -16.3008   19.7751 N   0  0  0  0  0  0  0  0  0  0  0  0
    8.9563  -15.2933   20.7048 C   0  0  1  0  0  0  0  0  0  0  0  0
    7.6993  -14.5768   20.3274 C   0  0  0  0  0  0  0  0  0  0  0  0
    7.8320  -14.0651   18.9426 C   0  0  0  0  0  0  0  0  0  0  0  0
    8.5122  -12.9110   18.5351 C   0  0  0  0  0  0  0  0  0  0  0  0
    8.4149  -12.7766   17.1987 N   0  0  0  0  0  0  0  0  0  0  0  0
    7.6874  -13.8226   16.7557 C   0  0  0  0  0  0  0  0  0  0  0  0
    7.3445  -14.5862   17.8081 N   0  0  0  0  0  0  0  0  0  0  0  0
    8.9329  -15.8394   22.0783 C   0  0  0  0  0  0  0  0  0  0  0  0
    7.8169  -15.9795   22.6413 O   0  0  0  0  0  0  0  0  0  0  0  0
   10.1348  -16.2059   22.7704 N   0  0  0  0  0  0  0  0  0  0  0  0
   10.0306  -16.8005   24.0596 C   0  0  1  0  0  0  0  0  0  0  0  0
   10.9586  -17.9243   24.3373 C   0  0  0  0  0  0  0  0  0  0  0  0
   10.8911  -18.6056   25.6406 C   0  0  0  0  0  0  0  0  0  0  0  0
   11.8718  -19.6344   25.9523 C   0  0  0  0  0  0  0  0  0  0  0  0
   11.7381  -20.7897   25.4669 O   0  0  0  0  0  0  0  0  0  0  0  0
   10.0827  -15.7778   25.1490 C   0  0  0  0  0  0  0  0  0  0  0  0
   11.0570  -15.0118   25.3091 O   0  0  0  0  0  0  0  0  0  0  0  0
   12.9698  -19.4208   26.7681 O   0  0  0  0  0  0  0  0  0  0  0  0
    8.6542  -11.9145   25.8556 C   0  0  0  0  0  0  0  0  0  0  0  0
    7.6226  -13.0421   25.9376 C   0  0  2  0  0  0  0  0  0  0  0  0
    6.2746  -12.3523   25.9265 C   0  0  0  0  0  0  0  0  0  0  0  0
    7.8454  -13.8714   27.1722 C   0  0  0  0  0  0  0  0  0  0  0  0
    9.0267  -14.7612   27.1659 C   0  0  2  0  0  0  0  0  0  0  0  0
    8.9787  -15.6830   26.0265 N   0  0  0  0  0  0  0  0  0  0  0  0
    9.2196  -15.4579   28.4454 C   0  0  0  0  0  0  0  0  0  0  0  0
    9.4026  -14.9050   29.5402 O   0  0  0  0  0  0  0  0  0  0  0  0
    9.2010  -16.8540   28.4440 O   0  0  0  0  0  0  0  0  0  0  0  0
  2  9  1  0
  2  1  1  6
  3  2  1  0
  4  3  1  0
  4  5  2  0
  6  5  1  0
  7  6  1  0
  8  7  2  0
  8  4  1  0
  9 11  1  0
 10  9  2  0
 11 12  1  0
 12 13  1  1
 13 14  1  0
 14 15  1  0
 15 19  1  0
 15 16  2  0
 17 18  2  0
 17 12  1  0
 21 20  1  1
 21 23  1  0
 22 21  1  0
 24 23  1  1
 24 25  1  0
 24 26  1  0
 25 17  1  0
 26 28  1  0
 27 26  2  0
M  END
$$$$
