HEL.pdb
     RDKit          3D

 28 28  0  0  1  0  0  0  0  0999 V2000
    6.7965  -16.4549   19.5929 N   0  0  0  0  0  0  0  0  0  0  0  0
    7.5856  -15.6349   20.4549 C   0  0  1  0  0  0  0  0  0  0  0  0
    7.5899  -14.1862   20.0846 C   0  0  0  0  0  0  0  0  0  0  0  0
    8.1829  -14.0345   18.7346 C   0  0  0  0  0  0  0  0  0  0  0  0
    7.6850  -13.2585   17.6808 C   0  0  0  0  0  0  0  0  0  0  0  0
    8.4984  -13.3698   16.6133 N   0  0  0  0  0  0  0  0  0  0  0  0
    9.4989  -14.2000   16.9730 C   0  0  0  0  0  0  0  0  0  0  0  0
    9.2991  -14.5910   18.2440 N   0  0  0  0  0  0  0  0  0  0  0  0
    7.2289  -15.8801   21.8685 C   0  0  0  0  0  0  0  0  0  0  0  0
    6.1947  -15.3272   22.3230 O   0  0  0  0  0  0  0  0  0  0  0  0
    8.0238  -16.7199   22.7175 N   0  0  0  0  0  0  0  0  0  0  0  0
    7.6619  -16.8493   24.0882 C   0  0  1  0  0  0  0  0  0  0  0  0
    7.6264  -18.2314   24.6265 C   0  0  0  0  0  0  0  0  0  0  0  0
    7.2754  -18.4422   26.0405 C   0  0  0  0  0  0  0  0  0  0  0  0
    7.3913  -19.7778   26.6063 C   0  0  0  0  0  0  0  0  0  0  0  0
    6.8754  -20.7566   26.0029 O   0  0  0  0  0  0  0  0  0  0  0  0
    8.4747  -15.9512   24.9646 C   0  0  0  0  0  0  0  0  0  0  0  0
    9.7117  -15.8258   24.8396 O   0  0  0  0  0  0  0  0  0  0  0  0
    8.0478  -20.0498   27.7944 O   0  0  0  0  0  0  0  0  0  0  0  0
    8.0021  -11.6623   25.3697 C   0  0  0  0  0  0  0  0  0  0  0  0
    7.0248  -12.4600   26.2361 C   0  0  2  0  0  0  0  0  0  0  0  0
    6.0503  -11.4384   26.7837 C   0  0  0  0  0  0  0  0  0  0  0  0
    7.7628  -13.2021   27.3161 C   0  0  0  0  0  0  0  0  0  0  0  0
    8.5692  -14.3647   26.8857 C   0  0  2  0  0  0  0  0  0  0  0  0
    7.8050  -15.2192   25.9713 N   0  0  0  0  0  0  0  0  0  0  0  0
    9.1333  -15.1144   28.0169 C   0  0  0  0  0  0  0  0  0  0  0  0
    8.8649  -16.2917   28.2996 O   0  0  0  0  0  0  0  0  0  0  0  0
   10.0433  -14.4618   28.8507 O   0  0  0  0  0  0  0  0  0  0  0  0
  2  9  1  0
  2  1  1  6
  3  2  1  0
  4  3  1  0
  4  5  2  0
  6  5  1  0
  7  6  1  0
  8  7  2  0
  8  4  1  0
  9 11  1  0
 10  9  2  0
 11 12  1  0
 12 13  1  1
 13 14  1  0
 14 15  1  0
 15 19  1  0
 15 16  2  0
 17 18  2  0
 17 12  1  0
 21 20  1  6
 21 23  1  0
 22 21  1  0
 24 23  1  1
 24 25  1  0
 24 26  1  0
 25 17  1  0
 26 28  1  0
 27 26  2  0
M  END
$$$$
