HEL.pdb
     RDKit          3D

 28 28  0  0  1  0  0  0  0  0999 V2000
    9.7717  -15.4498   19.6008 N   0  0  0  0  0  0  0  0  0  0  0  0
    8.7287  -14.8974   20.4041 C   0  0  1  0  0  0  0  0  0  0  0  0
    7.3913  -14.8724   19.7360 C   0  0  0  0  0  0  0  0  0  0  0  0
    7.5572  -14.4019   18.3402 C   0  0  0  0  0  0  0  0  0  0  0  0
    7.9796  -13.1328   17.9262 C   0  0  0  0  0  0  0  0  0  0  0  0
    8.0100  -13.0826   16.5808 N   0  0  0  0  0  0  0  0  0  0  0  0
    7.6156  -14.2944   16.1386 C   0  0  0  0  0  0  0  0  0  0  0  0
    7.3474  -15.0749   17.2003 N   0  0  0  0  0  0  0  0  0  0  0  0
    8.7095  -15.5383   21.7362 C   0  0  0  0  0  0  0  0  0  0  0  0
    7.7456  -15.2827   22.5028 O   0  0  0  0  0  0  0  0  0  0  0  0
    9.7487  -16.4293   22.1653 N   0  0  0  0  0  0  0  0  0  0  0  0
    9.7179  -16.9287   23.4980 C   0  0  1  0  0  0  0  0  0  0  0  0
   10.4891  -18.1713   23.7477 C   0  0  0  0  0  0  0  0  0  0  0  0
   10.5652  -18.7059   25.1172 C   0  0  0  0  0  0  0  0  0  0  0  0
   11.2981  -19.9404   25.3546 C   0  0  0  0  0  0  0  0  0  0  0  0
   10.7911  -20.8353   26.0829 O   0  0  0  0  0  0  0  0  0  0  0  0
   10.0645  -15.8706   24.4959 C   0  0  0  0  0  0  0  0  0  0  0  0
   11.1054  -15.1837   24.4167 O   0  0  0  0  0  0  0  0  0  0  0  0
   12.5476  -20.2020   24.8190 O   0  0  0  0  0  0  0  0  0  0  0  0
    7.1698  -12.3171   24.9514 C   0  0  0  0  0  0  0  0  0  0  0  0
    7.4307  -13.4635   25.9312 C   0  0  2  0  0  0  0  0  0  0  0  0
    6.4014  -13.2934   27.0287 C   0  0  0  0  0  0  0  0  0  0  0  0
    8.8443  -13.4093   26.4413 C   0  0  0  0  0  0  0  0  0  0  0  0
    9.5269  -14.7070   26.6345 C   0  0  2  0  0  0  0  0  0  0  0  0
    9.1702  -15.6474   25.5674 N   0  0  0  0  0  0  0  0  0  0  0  0
    9.3098  -15.2687   27.9750 C   0  0  0  0  0  0  0  0  0  0  0  0
    8.7879  -16.3681   28.2138 O   0  0  0  0  0  0  0  0  0  0  0  0
    9.7153  -14.5150   29.0781 O   0  0  0  0  0  0  0  0  0  0  0  0
  2  9  1  0
  2  1  1  6
  3  2  1  0
  4  3  1  0
  4  5  2  0
  6  5  1  0
  7  6  1  0
  8  7  2  0
  8  4  1  0
  9 11  1  0
 10  9  2  0
 11 12  1  0
 12 13  1  6
 13 14  1  0
 14 15  1  0
 15 19  1  0
 15 16  2  0
 17 18  2  0
 17 12  1  0
 21 20  1  6
 21 23  1  0
 22 21  1  0
 24 23  1  6
 24 25  1  0
 24 26  1  0
 25 17  1  0
 26 28  1  0
 27 26  2  0
M  END
$$$$
