HEL.pdb
     RDKit          3D

 28 28  0  0  1  0  0  0  0  0999 V2000
    8.2389  -19.1707   17.2154 N   0  0  0  0  0  0  0  0  0  0  0  0
    8.9009  -17.9542   17.5618 C   0  0  1  0  0  0  0  0  0  0  0  0
    8.0605  -16.7300   17.3861 C   0  0  0  0  0  0  0  0  0  0  0  0
    8.2588  -16.2005   16.0159 C   0  0  0  0  0  0  0  0  0  0  0  0
    8.8078  -14.9609   15.6657 C   0  0  0  0  0  0  0  0  0  0  0  0
    8.8276  -14.8373   14.3249 N   0  0  0  0  0  0  0  0  0  0  0  0
    8.3023  -15.9739   13.8230 C   0  0  0  0  0  0  0  0  0  0  0  0
    7.9658  -16.7814   14.8442 N   0  0  0  0  0  0  0  0  0  0  0  0
    9.5095  -18.0627   18.9046 C   0  0  0  0  0  0  0  0  0  0  0  0
    9.0852  -18.9605   19.6766 O   0  0  0  0  0  0  0  0  0  0  0  0
   10.5547  -17.1810   19.3381 N   0  0  0  0  0  0  0  0  0  0  0  0
   11.1094  -17.3602   20.6369 C   0  0  1  0  0  0  0  0  0  0  0  0
   12.5517  -17.0435   20.7803 C   0  0  0  0  0  0  0  0  0  0  0  0
   13.2443  -17.4006   22.0294 C   0  0  0  0  0  0  0  0  0  0  0  0
   14.5943  -16.9070   22.2553 C   0  0  0  0  0  0  0  0  0  0  0  0
   14.9430  -16.5555   23.4142 O   0  0  0  0  0  0  0  0  0  0  0  0
   10.2997  -16.6692   21.6869 C   0  0  0  0  0  0  0  0  0  0  0  0
   10.6257  -16.6609   22.8933 O   0  0  0  0  0  0  0  0  0  0  0  0
   15.5443  -16.7954   21.2545 O   0  0  0  0  0  0  0  0  0  0  0  0
    8.9146  -12.5004   21.1264 C   0  0  0  0  0  0  0  0  0  0  0  0
    7.9122  -13.4983   20.5417 C   0  0  2  0  0  0  0  0  0  0  0  0
    6.8549  -12.6521   19.8639 C   0  0  0  0  0  0  0  0  0  0  0  0
    7.3516  -14.3781   21.6249 C   0  0  0  0  0  0  0  0  0  0  0  0
    8.3004  -15.3033   22.2813 C   0  0  2  0  0  0  0  0  0  0  0  0
    9.1202  -16.0016   21.2861 N   0  0  0  0  0  0  0  0  0  0  0  0
    7.6395  -16.2270   23.2139 C   0  0  0  0  0  0  0  0  0  0  0  0
    7.6764  -17.4645   23.1411 O   0  0  0  0  0  0  0  0  0  0  0  0
    6.9051  -15.6832   24.2694 O   0  0  0  0  0  0  0  0  0  0  0  0
  2  9  1  0
  2  1  1  1
  3  2  1  0
  4  3  1  0
  4  5  2  0
  6  5  1  0
  7  6  1  0
  8  7  2  0
  8  4  1  0
  9 11  1  0
 10  9  2  0
 11 12  1  0
 12 13  1  6
 13 14  1  0
 14 15  1  0
 15 19  1  0
 15 16  2  0
 17 18  2  0
 17 12  1  0
 21 20  1  1
 21 23  1  0
 22 21  1  0
 24 23  1  6
 24 25  1  0
 24 26  1  0
 25 17  1  0
 26 28  1  0
 27 26  2  0
M  END
$$$$
