HEL.pdb
     RDKit          3D

 28 28  0  0  1  0  0  0  0  0999 V2000
    8.4782  -16.8318   19.3622 N   0  0  0  0  0  0  0  0  0  0  0  0
    8.6090  -15.7651   20.3020 C   0  0  1  0  0  0  0  0  0  0  0  0
    7.5626  -14.7049   20.1723 C   0  0  0  0  0  0  0  0  0  0  0  0
    7.6841  -14.0665   18.8401 C   0  0  0  0  0  0  0  0  0  0  0  0
    8.4173  -12.9164   18.5235 C   0  0  0  0  0  0  0  0  0  0  0  0
    8.2890  -12.6451   17.2108 N   0  0  0  0  0  0  0  0  0  0  0  0
    7.4900  -13.6010   16.6935 C   0  0  0  0  0  0  0  0  0  0  0  0
    7.1346  -14.4454   17.6779 N   0  0  0  0  0  0  0  0  0  0  0  0
    8.7385  -16.2998   21.6741 C   0  0  0  0  0  0  0  0  0  0  0  0
    7.7654  -16.9338   22.1571 O   0  0  0  0  0  0  0  0  0  0  0  0
    9.9290  -16.1137   22.4524 N   0  0  0  0  0  0  0  0  0  0  0  0
   10.0501  -16.7966   23.6957 C   0  0  1  0  0  0  0  0  0  0  0  0
   11.0974  -17.8451   23.7655 C   0  0  0  0  0  0  0  0  0  0  0  0
   11.2112  -18.6661   24.9821 C   0  0  0  0  0  0  0  0  0  0  0  0
   12.3264  -19.5923   25.1083 C   0  0  0  0  0  0  0  0  0  0  0  0
   12.1060  -20.7935   25.4194 O   0  0  0  0  0  0  0  0  0  0  0  0
   10.1640  -15.8450   24.8433 C   0  0  0  0  0  0  0  0  0  0  0  0
   11.1550  -15.1017   25.0075 O   0  0  0  0  0  0  0  0  0  0  0  0
   13.6469  -19.2303   24.9039 O   0  0  0  0  0  0  0  0  0  0  0  0
    8.4905  -12.0510   25.9029 C   0  0  0  0  0  0  0  0  0  0  0  0
    7.5515  -13.2552   26.0051 C   0  0  2  0  0  0  0  0  0  0  0  0
    6.1673  -12.6685   26.1865 C   0  0  0  0  0  0  0  0  0  0  0  0
    7.9621  -14.1484   27.1432 C   0  0  0  0  0  0  0  0  0  0  0  0
    9.2032  -14.9303   26.9544 C   0  0  2  0  0  0  0  0  0  0  0  0
    9.1008  -15.7932   25.7732 N   0  0  0  0  0  0  0  0  0  0  0  0
    9.5959  -15.6722   28.1607 C   0  0  0  0  0  0  0  0  0  0  0  0
    9.9279  -15.1587   29.2396 O   0  0  0  0  0  0  0  0  0  0  0  0
    9.6037  -17.0671   28.1022 O   0  0  0  0  0  0  0  0  0  0  0  0
  2  9  1  0
  2  1  1  6
  3  2  1  0
  4  3  1  0
  4  5  2  0
  6  5  1  0
  7  6  1  0
  8  7  2  0
  8  4  1  0
  9 11  1  0
 10  9  2  0
 11 12  1  0
 12 13  1  6
 13 14  1  0
 14 15  1  0
 15 19  1  0
 15 16  2  0
 17 18  2  0
 17 12  1  0
 21 20  1  1
 21 23  1  0
 22 21  1  0
 24 23  1  1
 24 25  1  0
 24 26  1  0
 25 17  1  0
 26 28  1  0
 27 26  2  0
M  END
$$$$
