HEL.pdb
     RDKit          3D

 28 28  0  0  1  0  0  0  0  0999 V2000
    7.1432  -16.4960   19.6641 N   0  0  0  0  0  0  0  0  0  0  0  0
    8.2039  -15.7769   20.2935 C   0  0  1  0  0  0  0  0  0  0  0  0
    8.0578  -14.2903   20.2267 C   0  0  0  0  0  0  0  0  0  0  0  0
    8.0147  -13.8724   18.8052 C   0  0  0  0  0  0  0  0  0  0  0  0
    7.1117  -12.9765   18.2201 C   0  0  0  0  0  0  0  0  0  0  0  0
    7.3893  -12.8459   16.9088 N   0  0  0  0  0  0  0  0  0  0  0  0
    8.4491  -13.6412   16.6558 C   0  0  0  0  0  0  0  0  0  0  0  0
    8.8141  -14.2500   17.7979 N   0  0  0  0  0  0  0  0  0  0  0  0
    8.4299  -16.2853   21.6631 C   0  0  0  0  0  0  0  0  0  0  0  0
    7.4283  -16.6402   22.3361 O   0  0  0  0  0  0  0  0  0  0  0  0
    9.7439  -16.3803   22.2306 N   0  0  0  0  0  0  0  0  0  0  0  0
    9.8892  -16.9232   23.5386 C   0  0  1  0  0  0  0  0  0  0  0  0
   10.9422  -17.9551   23.7040 C   0  0  0  0  0  0  0  0  0  0  0  0
   10.9536  -19.1198   22.8037 C   0  0  0  0  0  0  0  0  0  0  0  0
   12.2292  -19.7094   22.4263 C   0  0  0  0  0  0  0  0  0  0  0  0
   13.0833  -19.9680   23.3162 O   0  0  0  0  0  0  0  0  0  0  0  0
   10.0183  -15.8519   24.5736 C   0  0  0  0  0  0  0  0  0  0  0  0
   10.1335  -14.6423   24.2817 O   0  0  0  0  0  0  0  0  0  0  0  0
   12.5742  -20.0121   21.1201 O   0  0  0  0  0  0  0  0  0  0  0  0
    8.6778  -12.4343   26.6187 C   0  0  0  0  0  0  0  0  0  0  0  0
    7.9562  -13.6080   25.9523 C   0  0  2  0  0  0  0  0  0  0  0  0
    6.5006  -13.1960   25.8848 C   0  0  0  0  0  0  0  0  0  0  0  0
    8.1705  -14.8726   26.7374 C   0  0  0  0  0  0  0  0  0  0  0  0
    9.5742  -15.2820   26.9598 C   0  0  2  0  0  0  0  0  0  0  0  0
   10.0077  -16.2357   25.9339 N   0  0  0  0  0  0  0  0  0  0  0  0
    9.8122  -15.7757   28.3234 C   0  0  0  0  0  0  0  0  0  0  0  0
   10.1680  -15.0777   29.2848 O   0  0  0  0  0  0  0  0  0  0  0  0
    9.6306  -17.1376   28.5714 O   0  0  0  0  0  0  0  0  0  0  0  0
  2  9  1  0
  2  1  1  1
  3  2  1  0
  4  3  1  0
  4  5  2  0
  6  5  1  0
  7  6  1  0
  8  7  2  0
  8  4  1  0
  9 11  1  0
 10  9  2  0
 11 12  1  0
 12 13  1  6
 13 14  1  0
 14 15  1  0
 15 19  1  0
 15 16  2  0
 17 18  2  0
 17 12  1  0
 21 20  1  1
 21 23  1  0
 22 21  1  0
 24 23  1  1
 24 25  1  0
 24 26  1  0
 25 17  1  0
 26 28  1  0
 27 26  2  0
M  END
$$$$
