MGV.pdb
     RDKit          3D

 20 19  0  0  1  0  0  0  0  0999 V2000
    5.2936  -11.3361   26.4830 C   0  0  0  0  0  0  0  0  0  0  0  0
    6.7123  -12.2407   25.8417 S   0  0  0  0  0  0  0  0  0  0  0  0
    6.3739  -12.7683   24.1604 C   0  0  0  0  0  0  0  0  0  0  0  0
    7.5242  -13.4871   23.5234 C   0  0  0  0  0  0  0  0  0  0  0  0
    7.5011  -14.9713   23.8595 C   0  0  2  0  0  0  0  0  0  0  0  0
    7.7847  -15.1228   25.2528 N   0  0  0  0  0  0  0  0  0  0  0  0
    8.5566  -15.6415   23.0462 C   0  0  0  0  0  0  0  0  0  0  0  0
    8.2091  -16.4757   22.1655 O   0  0  0  0  0  0  0  0  0  0  0  0
    9.9371  -15.3642   23.2388 N   0  0  0  0  0  0  0  0  0  0  0  0
   10.8685  -16.3698   23.6062 C   0  0  0  0  0  0  0  0  0  0  0  0
   11.1942  -16.4657   25.0342 C   0  0  0  0  0  0  0  0  0  0  0  0
   12.3912  -16.7233   25.3444 O   0  0  0  0  0  0  0  0  0  0  0  0
   10.4548  -15.0698   29.6569 C   0  0  0  0  0  0  0  0  0  0  0  0
    9.8691  -15.2041   28.2708 C   0  0  1  0  0  0  0  0  0  0  0  0
    9.7878  -13.8170   27.6654 C   0  0  0  0  0  0  0  0  0  0  0  0
   10.7509  -16.1206   27.4884 C   0  0  2  0  0  0  0  0  0  0  0  0
   10.3214  -16.3050   26.1196 N   0  0  0  0  0  0  0  0  0  0  0  0
   10.7910  -17.4356   28.1644 C   0  0  0  0  0  0  0  0  0  0  0  0
   10.1344  -18.5514   27.6708 O   0  0  0  0  0  0  0  0  0  0  0  0
   11.4690  -17.5117   29.2495 O   0  0  0  0  0  0  0  0  0  0  0  0
  1  2  1  0
  3  4  1  0
  3  2  1  0
  4  5  1  0
  5  7  1  0
  5  6  1  1
  7  8  2  0
  9 10  1  0
  9  7  1  0
 11 10  1  0
 11 17  1  0
 12 11  2  0
 14 13  1  1
 14 15  1  0
 14 16  1  0
 16 17  1  6
 16 18  1  0
 18 20  2  0
 18 19  1  0
M  END
$$$$
