MGV.pdb
     RDKit          3D

 20 19  0  0  1  0  0  0  0  0999 V2000
    9.4147  -14.3621   29.4681 C   0  0  0  0  0  0  0  0  0  0  0  0
   11.0389  -15.1043   29.2375 S   0  0  0  0  0  0  0  0  0  0  0  0
   10.8905  -16.8920   29.2823 C   0  0  0  0  0  0  0  0  0  0  0  0
   10.4919  -17.4855   27.9653 C   0  0  0  0  0  0  0  0  0  0  0  0
    9.0312  -17.1969   27.6501 C   0  0  2  0  0  0  0  0  0  0  0  0
    8.2722  -17.3458   28.8528 N   0  0  0  0  0  0  0  0  0  0  0  0
    8.5778  -18.1885   26.6323 C   0  0  0  0  0  0  0  0  0  0  0  0
    9.4407  -18.7516   25.9039 O   0  0  0  0  0  0  0  0  0  0  0  0
    7.2042  -18.5124   26.4645 N   0  0  0  0  0  0  0  0  0  0  0  0
    6.5173  -18.2929   25.2423 C   0  0  0  0  0  0  0  0  0  0  0  0
    6.5656  -16.9284   24.7038 C   0  0  0  0  0  0  0  0  0  0  0  0
    6.1253  -16.7460   23.5340 O   0  0  0  0  0  0  0  0  0  0  0  0
    7.1256  -12.0592   24.8766 C   0  0  0  0  0  0  0  0  0  0  0  0
    6.8969  -13.3428   25.6399 C   0  0  1  0  0  0  0  0  0  0  0  0
    5.4724  -13.3271   26.1572 C   0  0  0  0  0  0  0  0  0  0  0  0
    7.1566  -14.4810   24.7090 C   0  0  2  0  0  0  0  0  0  0  0  0
    7.0523  -15.7781   25.3406 N   0  0  0  0  0  0  0  0  0  0  0  0
    8.5120  -14.3290   24.1366 C   0  0  0  0  0  0  0  0  0  0  0  0
    8.7815  -13.4982   23.0610 O   0  0  0  0  0  0  0  0  0  0  0  0
    9.4529  -15.0084   24.6806 O   0  0  0  0  0  0  0  0  0  0  0  0
  1  2  1  0
  3  4  1  0
  3  2  1  0
  4  5  1  0
  5  7  1  0
  5  6  1  1
  7  8  2  0
  9 10  1  0
  9  7  1  0
 11 10  1  0
 11 17  1  0
 12 11  2  0
 14 13  1  6
 14 15  1  0
 14 16  1  0
 16 17  1  1
 16 18  1  0
 18 20  2  0
 18 19  1  0
M  END
$$$$
