MGV.pdb
     RDKit          3D

 20 19  0  0  1  0  0  0  0  0999 V2000
    5.9300  -12.6090   26.2745 C   0  0  0  0  0  0  0  0  0  0  0  0
    6.9757  -11.4458   25.3825 S   0  0  0  0  0  0  0  0  0  0  0  0
    7.5885  -12.2209   23.8846 C   0  0  0  0  0  0  0  0  0  0  0  0
    7.6982  -13.7115   23.9925 C   0  0  0  0  0  0  0  0  0  0  0  0
    8.3124  -14.3114   22.7358 C   0  0  2  0  0  0  0  0  0  0  0  0
    7.5630  -13.8566   21.6060 N   0  0  0  0  0  0  0  0  0  0  0  0
    8.2224  -15.7962   22.8459 C   0  0  0  0  0  0  0  0  0  0  0  0
    7.6965  -16.4462   21.9008 O   0  0  0  0  0  0  0  0  0  0  0  0
    8.7122  -16.4922   23.9841 N   0  0  0  0  0  0  0  0  0  0  0  0
   10.0576  -16.9327   24.0824 C   0  0  0  0  0  0  0  0  0  0  0  0
   10.7394  -16.6647   25.3543 C   0  0  0  0  0  0  0  0  0  0  0  0
   11.9875  -16.8535   25.3992 O   0  0  0  0  0  0  0  0  0  0  0  0
   10.4540  -13.6353   27.7789 C   0  0  0  0  0  0  0  0  0  0  0  0
   10.3784  -14.8933   28.6121 C   0  0  1  0  0  0  0  0  0  0  0  0
    8.9336  -15.0893   29.0257 C   0  0  0  0  0  0  0  0  0  0  0  0
   10.8961  -16.0225   27.7836 C   0  0  2  0  0  0  0  0  0  0  0  0
   10.1637  -16.2172   26.5517 N   0  0  0  0  0  0  0  0  0  0  0  0
   10.8382  -17.2658   28.5829 C   0  0  0  0  0  0  0  0  0  0  0  0
   11.6594  -17.4923   29.6755 O   0  0  0  0  0  0  0  0  0  0  0  0
    9.9829  -18.1498   28.2226 O   0  0  0  0  0  0  0  0  0  0  0  0
  1  2  1  0
  3  4  1  0
  3  2  1  0
  4  5  1  0
  5  7  1  0
  5  6  1  6
  7  8  2  0
  9 10  1  0
  9  7  1  0
 11 10  1  0
 11 17  1  0
 12 11  2  0
 14 13  1  6
 14 15  1  0
 14 16  1  0
 16 17  1  6
 16 18  1  0
 18 20  2  0
 18 19  1  0
M  END
$$$$
