MGV.pdb
     RDKit          3D

 20 19  0  0  1  0  0  0  0  0999 V2000
    6.6114  -12.0741   19.3203 C   0  0  0  0  0  0  0  0  0  0  0  0
    7.5307  -13.0076   18.0852 S   0  0  0  0  0  0  0  0  0  0  0  0
    8.2908  -14.4364   18.8601 C   0  0  0  0  0  0  0  0  0  0  0  0
    8.1172  -14.4642   20.3484 C   0  0  0  0  0  0  0  0  0  0  0  0
    8.7897  -15.6853   20.9591 C   0  0  2  0  0  0  0  0  0  0  0  0
    8.2983  -16.8513   20.2931 N   0  0  0  0  0  0  0  0  0  0  0  0
    8.4288  -15.7314   22.4056 C   0  0  0  0  0  0  0  0  0  0  0  0
    8.7681  -14.7698   23.1489 O   0  0  0  0  0  0  0  0  0  0  0  0
    7.7156  -16.8268   22.9634 N   0  0  0  0  0  0  0  0  0  0  0  0
    7.4664  -16.9392   24.3559 C   0  0  0  0  0  0  0  0  0  0  0  0
    8.5532  -16.5187   25.2482 C   0  0  0  0  0  0  0  0  0  0  0  0
    9.7374  -16.7582   24.8797 O   0  0  0  0  0  0  0  0  0  0  0  0
   10.4705  -13.6831   28.7478 C   0  0  0  0  0  0  0  0  0  0  0  0
    9.1957  -14.2087   28.1303 C   0  0  1  0  0  0  0  0  0  0  0  0
    8.5425  -13.0690   27.3744 C   0  0  0  0  0  0  0  0  0  0  0  0
    9.5557  -15.3540   27.2425 C   0  0  2  0  0  0  0  0  0  0  0  0
    8.4366  -15.8718   26.4865 N   0  0  0  0  0  0  0  0  0  0  0  0
   10.1235  -16.4395   28.0715 C   0  0  0  0  0  0  0  0  0  0  0  0
   11.4543  -16.4699   28.4558 O   0  0  0  0  0  0  0  0  0  0  0  0
    9.3250  -17.3754   28.4311 O   0  0  0  0  0  0  0  0  0  0  0  0
  1  2  1  0
  3  4  1  0
  3  2  1  0
  4  5  1  0
  5  7  1  0
  5  6  1  6
  7  8  2  0
  9 10  1  0
  9  7  1  0
 11 10  1  0
 11 17  1  0
 12 11  2  0
 14 13  1  6
 14 15  1  0
 14 16  1  0
 16 17  1  1
 16 18  1  0
 18 20  2  0
 18 19  1  0
M  END
$$$$
