MGV.pdb
     RDKit          3D

 20 19  0  0  1  0  0  0  0  0999 V2000
    6.2014  -11.1459   26.7169 C   0  0  0  0  0  0  0  0  0  0  0  0
    6.0040  -12.2115   25.2789 S   0  0  0  0  0  0  0  0  0  0  0  0
    7.3051  -13.4471   25.2680 C   0  0  0  0  0  0  0  0  0  0  0  0
    6.8939  -14.7332   24.6180 C   0  0  0  0  0  0  0  0  0  0  0  0
    7.6488  -14.9588   23.3158 C   0  0  2  0  0  0  0  0  0  0  0  0
    7.0985  -16.1092   22.6688 N   0  0  0  0  0  0  0  0  0  0  0  0
    9.0820  -15.1974   23.6528 C   0  0  0  0  0  0  0  0  0  0  0  0
    9.8372  -14.2039   23.8401 O   0  0  0  0  0  0  0  0  0  0  0  0
    9.6143  -16.5101   23.7674 N   0  0  0  0  0  0  0  0  0  0  0  0
   10.9911  -16.7513   24.0128 C   0  0  0  0  0  0  0  0  0  0  0  0
   11.4517  -16.5512   25.3920 C   0  0  0  0  0  0  0  0  0  0  0  0
   12.6949  -16.4324   25.5812 O   0  0  0  0  0  0  0  0  0  0  0  0
   10.8190  -13.9072   27.7266 C   0  0  0  0  0  0  0  0  0  0  0  0
   10.6247  -15.1227   28.6024 C   0  0  1  0  0  0  0  0  0  0  0  0
    9.1401  -15.2688   28.8701 C   0  0  0  0  0  0  0  0  0  0  0  0
   11.1966  -16.3003   27.8841 C   0  0  2  0  0  0  0  0  0  0  0  0
   10.6655  -16.4760   26.5502 N   0  0  0  0  0  0  0  0  0  0  0  0
   10.9268  -17.5194   28.6770 C   0  0  0  0  0  0  0  0  0  0  0  0
   11.5546  -17.7815   29.8840 O   0  0  0  0  0  0  0  0  0  0  0  0
   10.0728  -18.3472   28.1992 O   0  0  0  0  0  0  0  0  0  0  0  0
  1  2  1  0
  3  4  1  0
  3  2  1  0
  4  5  1  0
  5  7  1  0
  5  6  1  1
  7  8  2  0
  9 10  1  0
  9  7  1  0
 11 10  1  0
 11 17  1  0
 12 11  2  0
 14 13  1  6
 14 15  1  0
 14 16  1  0
 16 17  1  6
 16 18  1  0
 18 20  2  0
 18 19  1  0
M  END
$$$$
