KRN.pdb
     RDKit          3D

 29 28  0  0  1  0  0  0  0  0999 V2000
   26.6605  -20.8493  -14.4172 N   0  0  0  0  0  0  0  0  0  0  0  0
   25.5097  -20.5058  -13.6131 C   0  0  1  0  0  0  0  0  0  0  0  0
   25.8826  -20.6629  -12.1745 C   0  0  0  0  0  0  0  0  0  0  0  0
   24.5974  -20.8207  -11.3886 C   0  0  0  0  0  0  0  0  0  0  0  0
   24.8182  -20.7894   -9.8983 C   0  0  0  0  0  0  0  0  0  0  0  0
   23.5210  -21.1375   -9.2084 C   0  0  0  0  0  0  0  0  0  0  0  0
   23.6295  -20.9929   -7.7694 N   0  0  0  0  0  0  0  0  0  0  0  0
   24.9468  -19.1779  -13.9573 C   0  0  0  0  0  0  0  0  0  0  0  0
   24.5528  -18.4629  -13.0028 O   0  0  0  0  0  0  0  0  0  0  0  0
   26.1871  -14.3310  -15.2105 N   0  0  0  0  0  0  0  0  0  0  0  0
   26.8348  -14.4723  -16.4797 C   0  0  0  0  0  0  0  0  0  0  0  0
   28.0470  -14.9170  -16.5464 N   0  0  0  0  0  0  0  0  0  0  0  0
   26.1905  -14.1406  -17.6937 N   0  0  0  0  0  0  0  0  0  0  0  0
   24.8654  -14.5876  -18.0598 C   0  0  0  0  0  0  0  0  0  0  0  0
   24.1902  -15.3331  -16.9289 C   0  0  0  0  0  0  0  0  0  0  0  0
   24.8153  -16.6685  -16.6745 C   0  0  0  0  0  0  0  0  0  0  0  0
   24.1765  -17.4799  -15.5936 C   0  0  2  0  0  0  0  0  0  0  0  0
   24.8449  -18.7118  -15.2904 N   0  0  0  0  0  0  0  0  0  0  0  0
   22.7664  -17.7791  -16.0412 C   0  0  0  0  0  0  0  0  0  0  0  0
   22.5930  -18.6885  -16.8578 O   0  0  0  0  0  0  0  0  0  0  0  0
   28.4812  -15.0314  -17.4734 N   0  0  0  0  0  0  0  0  0  0  0  0
   18.2075  -20.2628  -15.6108 C   0  0  0  0  0  0  0  0  0  0  0  0
   18.8196  -19.3700  -14.7154 O   0  0  0  0  0  0  0  0  0  0  0  0
   18.1217  -18.9530  -13.7281 C   0  0  0  0  0  0  0  0  0  0  0  0
   20.1950  -18.8613  -14.7985 C   0  0  1  0  0  0  0  0  0  0  0  0
   20.3163  -17.5468  -15.5070 N   0  0  0  0  0  0  0  0  0  0  0  0
   21.6647  -17.0451  -15.5458 C   0  0  0  0  0  0  0  0  0  0  0  0
   19.3521  -16.5330  -15.0207 O   0  0  0  0  0  0  0  0  0  0  0  0
   19.7595  -15.5540  -14.3730 O   0  0  0  0  0  0  0  0  0  0  0  0
  2  1  1  6
  3  2  1  0
  3  4  1  0
  4  5  1  0
  6  5  1  0
  7  6  1  0
  8  9  2  0
  8  2  1  0
 10 11  1  0
 11 12  2  0
 13 14  1  0
 13 11  1  0
 15 14  1  0
 15 16  1  0
 17 16  1  6
 17 18  1  0
 18  8  1  0
 19 17  1  0
 19 26  1  0
 20 19  2  0
 21 22  1  0
 22 24  1  0
 23 22  2  0
 25 24  1  6
 25 26  1  0
 25 27  1  0
 27 28  2  0
 27 29  1  0
M  END
$$$$
