KRN.pdb
     RDKit          3D

 29 28  0  0  1  0  0  0  0  0999 V2000
   26.0339  -17.0645  -16.6021 N   0  0  0  0  0  0  0  0  0  0  0  0
   25.6180  -18.0036  -17.6190 C   0  0  1  0  0  0  0  0  0  0  0  0
   26.7866  -18.2727  -18.5109 C   0  0  0  0  0  0  0  0  0  0  0  0
   27.9434  -17.4355  -18.0059 C   0  0  0  0  0  0  0  0  0  0  0  0
   29.2068  -17.6488  -18.7990 C   0  0  0  0  0  0  0  0  0  0  0  0
   30.2662  -16.7022  -18.2874 C   0  0  0  0  0  0  0  0  0  0  0  0
   31.5137  -16.8611  -19.0098 N   0  0  0  0  0  0  0  0  0  0  0  0
   24.9891  -19.2204  -17.0514 C   0  0  0  0  0  0  0  0  0  0  0  0
   24.8617  -20.2056  -17.8201 O   0  0  0  0  0  0  0  0  0  0  0  0
   24.4456  -20.9596  -10.0024 N   0  0  0  0  0  0  0  0  0  0  0  0
   25.8470  -20.6682  -10.0433 C   0  0  0  0  0  0  0  0  0  0  0  0
   26.4079  -20.0284   -9.0698 N   0  0  0  0  0  0  0  0  0  0  0  0
   26.6653  -21.0607  -11.1274 N   0  0  0  0  0  0  0  0  0  0  0  0
   26.1705  -21.6728  -12.3399 C   0  0  0  0  0  0  0  0  0  0  0  0
   25.2274  -20.7563  -13.0889 C   0  0  0  0  0  0  0  0  0  0  0  0
   24.7457  -21.3598  -14.3706 C   0  0  0  0  0  0  0  0  0  0  0  0
   23.8882  -20.4726  -15.2145 C   0  0  2  0  0  0  0  0  0  0  0  0
   24.5425  -19.2968  -15.7099 N   0  0  0  0  0  0  0  0  0  0  0  0
   22.7087  -20.0625  -14.3667 C   0  0  0  0  0  0  0  0  0  0  0  0
   22.7335  -18.9517  -13.8290 O   0  0  0  0  0  0  0  0  0  0  0  0
   27.4175  -19.8319   -9.1242 N   0  0  0  0  0  0  0  0  0  0  0  0
   18.0089  -18.0415  -15.0154 C   0  0  0  0  0  0  0  0  0  0  0  0
   18.5175  -19.2361  -15.5520 O   0  0  0  0  0  0  0  0  0  0  0  0
   17.6984  -20.0036  -16.1649 C   0  0  0  0  0  0  0  0  0  0  0  0
   19.9098  -19.6981  -15.4802 C   0  0  1  0  0  0  0  0  0  0  0  0
   20.2285  -20.4815  -14.2436 N   0  0  0  0  0  0  0  0  0  0  0  0
   21.5985  -20.9185  -14.1855 C   0  0  0  0  0  0  0  0  0  0  0  0
   19.2740  -21.5862  -13.9931 O   0  0  0  0  0  0  0  0  0  0  0  0
   19.5535  -22.7393  -14.3622 O   0  0  0  0  0  0  0  0  0  0  0  0
  2  1  1  1
  3  2  1  0
  3  4  1  0
  4  5  1  0
  6  5  1  0
  7  6  1  0
  8  9  2  0
  8  2  1  0
 10 11  1  0
 11 12  2  0
 13 14  1  0
 13 11  1  0
 15 14  1  0
 15 16  1  0
 17 16  1  1
 17 18  1  0
 18  8  1  0
 19 17  1  0
 19 26  1  0
 20 19  2  0
 21 22  1  0
 22 24  1  0
 23 22  2  0
 25 24  1  1
 25 26  1  0
 25 27  1  0
 27 28  2  0
 27 29  1  0
M  END
$$$$
