KRN.pdb
     RDKit          3D

 29 28  0  0  1  0  0  0  0  0999 V2000
   27.3216  -19.1816  -16.1696 N   0  0  0  0  0  0  0  0  0  0  0  0
   26.1897  -19.9032  -16.7053 C   0  0  1  0  0  0  0  0  0  0  0  0
   26.2697  -21.3170  -16.2275 C   0  0  0  0  0  0  0  0  0  0  0  0
   26.8428  -22.1452  -17.3587 C   0  0  0  0  0  0  0  0  0  0  0  0
   25.7771  -22.7540  -18.2330 C   0  0  0  0  0  0  0  0  0  0  0  0
   26.4450  -23.5334  -19.3404 C   0  0  0  0  0  0  0  0  0  0  0  0
   25.4701  -24.1156  -20.2426 N   0  0  0  0  0  0  0  0  0  0  0  0
   24.8976  -19.2339  -16.4210 C   0  0  0  0  0  0  0  0  0  0  0  0
   24.6826  -18.8956  -15.2306 O   0  0  0  0  0  0  0  0  0  0  0  0
   22.2248  -14.4874  -16.9070 N   0  0  0  0  0  0  0  0  0  0  0  0
   20.9117  -14.0303  -17.2496 C   0  0  0  0  0  0  0  0  0  0  0  0
   20.3257  -13.1320  -16.5276 N   0  0  0  0  0  0  0  0  0  0  0  0
   20.2110  -14.5289  -18.3718 N   0  0  0  0  0  0  0  0  0  0  0  0
   20.3183  -15.8850  -18.8609 C   0  0  0  0  0  0  0  0  0  0  0  0
   20.7972  -16.8354  -17.7850 C   0  0  0  0  0  0  0  0  0  0  0  0
   22.1370  -17.4227  -18.0997 C   0  0  0  0  0  0  0  0  0  0  0  0
   22.6614  -18.3980  -17.0955 C   0  0  2  0  0  0  0  0  0  0  0  0
   23.9319  -18.9760  -17.4239 N   0  0  0  0  0  0  0  0  0  0  0  0
   21.6350  -19.4975  -16.9702 C   0  0  0  0  0  0  0  0  0  0  0  0
   21.6642  -20.4204  -17.7895 O   0  0  0  0  0  0  0  0  0  0  0  0
   19.3948  -12.7974  -16.8144 N   0  0  0  0  0  0  0  0  0  0  0  0
   17.7170  -22.5747  -15.0802 C   0  0  0  0  0  0  0  0  0  0  0  0
   18.2866  -21.7483  -14.0972 O   0  0  0  0  0  0  0  0  0  0  0  0
   17.8714  -21.8881  -12.8957 C   0  0  0  0  0  0  0  0  0  0  0  0
   19.3220  -20.7289  -14.3115 C   0  0  1  0  0  0  0  0  0  0  0  0
   19.6845  -20.5220  -15.7503 N   0  0  0  0  0  0  0  0  0  0  0  0
   20.6608  -19.4829  -15.9461 C   0  0  0  0  0  0  0  0  0  0  0  0
   18.5038  -20.3582  -16.6295 O   0  0  0  0  0  0  0  0  0  0  0  0
   17.9918  -19.2351  -16.7730 O   0  0  0  0  0  0  0  0  0  0  0  0
  2  1  1  1
  3  2  1  0
  3  4  1  0
  4  5  1  0
  6  5  1  0
  7  6  1  0
  8  9  2  0
  8  2  1  0
 10 11  1  0
 11 12  2  0
 13 14  1  0
 13 11  1  0
 15 14  1  0
 15 16  1  0
 17 16  1  6
 17 18  1  0
 18  8  1  0
 19 17  1  0
 19 26  1  0
 20 19  2  0
 21 22  1  0
 22 24  1  0
 23 22  2  0
 25 24  1  1
 25 26  1  0
 25 27  1  0
 27 28  2  0
 27 29  1  0
M  END
$$$$
