KRN.pdb
     RDKit          3D

 29 28  0  0  1  0  0  0  0  0999 V2000
   27.1567  -17.2374  -17.7049 N   0  0  0  0  0  0  0  0  0  0  0  0
   26.3875  -18.2758  -18.3520 C   0  0  1  0  0  0  0  0  0  0  0  0
   27.2436  -18.9031  -19.4042 C   0  0  0  0  0  0  0  0  0  0  0  0
   27.9943  -17.7874  -20.1012 C   0  0  0  0  0  0  0  0  0  0  0  0
   27.7632  -17.7711  -21.5902 C   0  0  0  0  0  0  0  0  0  0  0  0
   28.6014  -16.6726  -22.1991 C   0  0  0  0  0  0  0  0  0  0  0  0
   28.4510  -16.6273  -23.6409 N   0  0  0  0  0  0  0  0  0  0  0  0
   25.7998  -19.2375  -17.3885 C   0  0  0  0  0  0  0  0  0  0  0  0
   25.1699  -20.2116  -17.8702 O   0  0  0  0  0  0  0  0  0  0  0  0
   26.5668  -20.6548   -8.5463 N   0  0  0  0  0  0  0  0  0  0  0  0
   25.2220  -20.8300   -9.0059 C   0  0  0  0  0  0  0  0  0  0  0  0
   24.2474  -20.8945   -8.1587 N   0  0  0  0  0  0  0  0  0  0  0  0
   24.9046  -20.9363  -10.3795 N   0  0  0  0  0  0  0  0  0  0  0  0
   25.8853  -21.0743  -11.4326 C   0  0  0  0  0  0  0  0  0  0  0  0
   25.2436  -21.0724  -12.8032 C   0  0  0  0  0  0  0  0  0  0  0  0
   25.8568  -20.0587  -13.7172 C   0  0  0  0  0  0  0  0  0  0  0  0
   25.2595  -19.9848  -15.0855 C   0  0  2  0  0  0  0  0  0  0  0  0
   25.9259  -19.0897  -15.9860 N   0  0  0  0  0  0  0  0  0  0  0  0
   23.8263  -19.5421  -14.9181 C   0  0  0  0  0  0  0  0  0  0  0  0
   23.6117  -18.3850  -14.5456 O   0  0  0  0  0  0  0  0  0  0  0  0
   23.2905  -21.0287   -8.5154 N   0  0  0  0  0  0  0  0  0  0  0  0
   18.5402  -19.3382  -14.9002 C   0  0  0  0  0  0  0  0  0  0  0  0
   19.3402  -19.0549  -16.0198 O   0  0  0  0  0  0  0  0  0  0  0  0
   18.7934  -18.4312  -16.9933 C   0  0  0  0  0  0  0  0  0  0  0  0
   20.7565  -19.4058  -16.1878 C   0  0  2  0  0  0  0  0  0  0  0  0
   21.3651  -20.0710  -14.9913 N   0  0  0  0  0  0  0  0  0  0  0  0
   22.7489  -20.4195  -15.1781 C   0  0  0  0  0  0  0  0  0  0  0  0
   20.5613  -21.2081  -14.4866 O   0  0  0  0  0  0  0  0  0  0  0  0
   21.0197  -22.3616  -14.5433 O   0  0  0  0  0  0  0  0  0  0  0  0
  2  1  1  1
  3  2  1  0
  3  4  1  0
  4  5  1  0
  6  5  1  0
  7  6  1  0
  8  9  2  0
  8  2  1  0
 10 11  1  0
 11 12  2  0
 13 14  1  0
 13 11  1  0
 15 14  1  0
 15 16  1  0
 17 16  1  1
 17 18  1  0
 18  8  1  0
 19 17  1  0
 19 26  1  0
 20 19  2  0
 21 22  1  0
 22 24  1  0
 23 22  2  0
 25 24  1  1
 25 26  1  0
 25 27  1  0
 27 28  2  0
 27 29  1  0
M  END
$$$$
