KRN.pdb
     RDKit          3D

 29 28  0  0  1  0  0  0  0  0999 V2000
   22.1218  -28.4225  -15.9023 N   0  0  0  0  0  0  0  0  0  0  0  0
   23.1400  -28.3667  -16.9266 C   0  0  1  0  0  0  0  0  0  0  0  0
   22.4646  -28.1682  -18.2449 C   0  0  0  0  0  0  0  0  0  0  0  0
   21.3656  -27.1460  -18.0409 C   0  0  0  0  0  0  0  0  0  0  0  0
   21.8794  -25.7295  -18.0450 C   0  0  0  0  0  0  0  0  0  0  0  0
   20.7048  -24.7873  -17.9318 C   0  0  0  0  0  0  0  0  0  0  0  0
   21.1392  -23.4220  -17.7063 N   0  0  0  0  0  0  0  0  0  0  0  0
   24.1995  -27.3736  -16.6268 C   0  0  0  0  0  0  0  0  0  0  0  0
   23.9957  -26.5999  -15.6585 O   0  0  0  0  0  0  0  0  0  0  0  0
   28.1451  -30.8690  -18.6371 N   0  0  0  0  0  0  0  0  0  0  0  0
   29.0940  -31.0639  -17.5825 C   0  0  0  0  0  0  0  0  0  0  0  0
   29.3512  -32.2547  -17.1496 N   0  0  0  0  0  0  0  0  0  0  0  0
   29.7806  -29.9849  -16.9799 N   0  0  0  0  0  0  0  0  0  0  0  0
   29.5273  -28.5927  -17.2758 C   0  0  0  0  0  0  0  0  0  0  0  0
   28.1122  -28.1902  -16.9209 C   0  0  0  0  0  0  0  0  0  0  0  0
   27.8098  -26.7757  -17.3041 C   0  0  0  0  0  0  0  0  0  0  0  0
   26.4096  -26.3248  -17.0382 C   0  0  2  0  0  0  0  0  0  0  0  0
   25.3947  -27.2783  -17.3799 N   0  0  0  0  0  0  0  0  0  0  0  0
   26.1929  -25.0632  -17.8379 C   0  0  0  0  0  0  0  0  0  0  0  0
   25.8471  -25.1714  -19.0180 O   0  0  0  0  0  0  0  0  0  0  0  0
   30.0030  -32.3634  -16.3596 N   0  0  0  0  0  0  0  0  0  0  0  0
   25.2479  -20.6097  -20.3252 C   0  0  0  0  0  0  0  0  0  0  0  0
   24.5560  -21.1332  -19.2203 O   0  0  0  0  0  0  0  0  0  0  0  0
   23.6127  -20.4255  -18.7253 C   0  0  0  0  0  0  0  0  0  0  0  0
   24.8084  -22.4250  -18.5686 C   0  0  1  0  0  0  0  0  0  0  0  0
   26.1763  -22.5483  -17.9703 N   0  0  0  0  0  0  0  0  0  0  0  0
   26.3771  -23.7852  -17.2625 C   0  0  0  0  0  0  0  0  0  0  0  0
   26.5668  -21.3686  -17.1643 O   0  0  0  0  0  0  0  0  0  0  0  0
   26.8804  -21.5127  -15.9706 O   0  0  0  0  0  0  0  0  0  0  0  0
  2  1  1  1
  3  2  1  0
  3  4  1  0
  4  5  1  0
  6  5  1  0
  7  6  1  0
  8  9  2  0
  8  2  1  0
 10 11  1  0
 11 12  2  0
 13 14  1  0
 13 11  1  0
 15 14  1  0
 15 16  1  0
 17 16  1  6
 17 18  1  0
 18  8  1  0
 19 17  1  0
 19 26  1  0
 20 19  2  0
 21 22  1  0
 22 24  1  0
 23 22  2  0
 25 24  1  6
 25 26  1  0
 25 27  1  0
 27 28  2  0
 27 29  1  0
M  END
$$$$
