KRN.pdb
     RDKit          3D

 29 28  0  0  1  0  0  0  0  0999 V2000
   24.4364  -21.5447  -16.1549 N   0  0  0  0  0  0  0  0  0  0  0  0
   23.7056  -20.5503  -15.4026 C   0  0  1  0  0  0  0  0  0  0  0  0
   23.6264  -19.3068  -16.2277 C   0  0  0  0  0  0  0  0  0  0  0  0
   25.0308  -18.9821  -16.6927 C   0  0  0  0  0  0  0  0  0  0  0  0
   25.1226  -17.6437  -17.3790 C   0  0  0  0  0  0  0  0  0  0  0  0
   26.5171  -17.4779  -17.9340 C   0  0  0  0  0  0  0  0  0  0  0  0
   27.3782  -16.7729  -17.0041 N   0  0  0  0  0  0  0  0  0  0  0  0
   22.3951  -21.0476  -14.9189 C   0  0  0  0  0  0  0  0  0  0  0  0
   21.6684  -21.6402  -15.7546 O   0  0  0  0  0  0  0  0  0  0  0  0
   19.2170  -25.2622   -8.6465 N   0  0  0  0  0  0  0  0  0  0  0  0
   18.0495  -24.5103   -8.9959 C   0  0  0  0  0  0  0  0  0  0  0  0
   16.8980  -25.0933   -9.0721 N   0  0  0  0  0  0  0  0  0  0  0  0
   18.1012  -23.1235   -9.2661 N   0  0  0  0  0  0  0  0  0  0  0  0
   19.2888  -22.4234   -9.7012 C   0  0  0  0  0  0  0  0  0  0  0  0
   19.3218  -22.2511  -11.2044 C   0  0  0  0  0  0  0  0  0  0  0  0
   20.5403  -21.5157  -11.6663 C   0  0  0  0  0  0  0  0  0  0  0  0
   20.6924  -21.3941  -13.1484 C   0  0  2  0  0  0  0  0  0  0  0  0
   21.9567  -20.8761  -13.5836 N   0  0  0  0  0  0  0  0  0  0  0  0
   19.5911  -20.4821  -13.6317 C   0  0  0  0  0  0  0  0  0  0  0  0
   19.7533  -19.2630  -13.5260 O   0  0  0  0  0  0  0  0  0  0  0  0
   16.0766  -24.5322   -9.3392 N   0  0  0  0  0  0  0  0  0  0  0  0
   15.4090  -18.3686  -15.9465 C   0  0  0  0  0  0  0  0  0  0  0  0
   16.3842  -19.0418  -16.7011 O   0  0  0  0  0  0  0  0  0  0  0  0
   16.3825  -18.8574  -17.9667 C   0  0  0  0  0  0  0  0  0  0  0  0
   17.4172  -19.9457  -16.1786 C   0  0  2  0  0  0  0  0  0  0  0  0
   17.3313  -20.1795  -14.7013 N   0  0  0  0  0  0  0  0  0  0  0  0
   18.4005  -20.9977  -14.1927 C   0  0  0  0  0  0  0  0  0  0  0  0
   15.9993  -20.6585  -14.2650 O   0  0  0  0  0  0  0  0  0  0  0  0
   15.8805  -21.7967  -13.7810 O   0  0  0  0  0  0  0  0  0  0  0  0
  2  1  1  6
  3  2  1  0
  3  4  1  0
  4  5  1  0
  6  5  1  0
  7  6  1  0
  8  9  2  0
  8  2  1  0
 10 11  1  0
 11 12  2  0
 13 14  1  0
 13 11  1  0
 15 14  1  0
 15 16  1  0
 17 16  1  1
 17 18  1  0
 18  8  1  0
 19 17  1  0
 19 26  1  0
 20 19  2  0
 21 22  1  0
 22 24  1  0
 23 22  2  0
 25 24  1  1
 25 26  1  0
 25 27  1  0
 27 28  2  0
 27 29  1  0
M  END
$$$$
