KRN.pdb
     RDKit          3D

 29 28  0  0  1  0  0  0  0  0999 V2000
   24.9080  -24.6330  -15.0600 N   0  0  0  0  0  0  0  0  0  0  0  0
   25.0080  -23.3434  -14.4153 C   0  0  1  0  0  0  0  0  0  0  0  0
   25.9467  -22.4957  -15.2115 C   0  0  0  0  0  0  0  0  0  0  0  0
   26.2918  -23.2631  -16.4709 C   0  0  0  0  0  0  0  0  0  0  0  0
   27.7122  -23.7662  -16.4758 C   0  0  0  0  0  0  0  0  0  0  0  0
   28.0433  -24.2705  -17.8601 C   0  0  0  0  0  0  0  0  0  0  0  0
   29.3810  -24.8281  -17.9161 N   0  0  0  0  0  0  0  0  0  0  0  0
   23.6842  -22.7230  -14.1679 C   0  0  0  0  0  0  0  0  0  0  0  0
   22.7812  -22.9560  -15.0093 O   0  0  0  0  0  0  0  0  0  0  0  0
   18.8462  -22.8864   -9.4789 N   0  0  0  0  0  0  0  0  0  0  0  0
   19.7659  -22.9620   -8.3840 C   0  0  0  0  0  0  0  0  0  0  0  0
   19.6625  -23.9097   -7.5107 N   0  0  0  0  0  0  0  0  0  0  0  0
   20.8094  -22.0236   -8.2124 N   0  0  0  0  0  0  0  0  0  0  0  0
   21.1805  -21.0311   -9.1957 C   0  0  0  0  0  0  0  0  0  0  0  0
   21.4199  -21.6486  -10.5565 C   0  0  0  0  0  0  0  0  0  0  0  0
   21.9015  -20.6476  -11.5590 C   0  0  0  0  0  0  0  0  0  0  0  0
   22.1822  -21.1905  -12.9232 C   0  0  2  0  0  0  0  0  0  0  0  0
   23.4216  -21.9012  -13.0452 N   0  0  0  0  0  0  0  0  0  0  0  0
   22.1891  -20.0170  -13.8724 C   0  0  0  0  0  0  0  0  0  0  0  0
   23.2638  -19.4520  -14.0954 O   0  0  0  0  0  0  0  0  0  0  0  0
   20.3285  -23.9332   -6.7254 N   0  0  0  0  0  0  0  0  0  0  0  0
   20.9900  -16.6104  -17.6917 C   0  0  0  0  0  0  0  0  0  0  0  0
   21.8448  -17.7250  -17.6717 O   0  0  0  0  0  0  0  0  0  0  0  0
   22.6291  -17.8853  -18.6691 C   0  0  0  0  0  0  0  0  0  0  0  0
   21.9306  -18.7361  -16.6099 C   0  0  1  0  0  0  0  0  0  0  0  0
   20.9620  -18.5237  -15.4869 N   0  0  0  0  0  0  0  0  0  0  0  0
   21.0033  -19.5670  -14.4964 C   0  0  0  0  0  0  0  0  0  0  0  0
   19.5842  -18.2437  -15.9527 O   0  0  0  0  0  0  0  0  0  0  0  0
   18.6397  -18.9377  -15.5398 O   0  0  0  0  0  0  0  0  0  0  0  0
  2  1  1  6
  3  2  1  0
  3  4  1  0
  4  5  1  0
  6  5  1  0
  7  6  1  0
  8  9  2  0
  8  2  1  0
 10 11  1  0
 11 12  2  0
 13 14  1  0
 13 11  1  0
 15 14  1  0
 15 16  1  0
 17 16  1  1
 17 18  1  0
 18  8  1  0
 19 17  1  0
 19 26  1  0
 20 19  2  0
 21 22  1  0
 22 24  1  0
 23 22  2  0
 25 24  1  1
 25 26  1  0
 25 27  1  0
 27 28  2  0
 27 29  1  0
M  END
$$$$
