KRN.pdb
     RDKit          3D

 29 28  0  0  1  0  0  0  0  0999 V2000
   23.1402  -22.1490   -9.1081 N   0  0  0  0  0  0  0  0  0  0  0  0
   22.0532  -21.3074   -9.5542 C   0  0  1  0  0  0  0  0  0  0  0  0
   21.2747  -20.8760   -8.3536 C   0  0  0  0  0  0  0  0  0  0  0  0
   20.8901  -22.1265   -7.5904 C   0  0  0  0  0  0  0  0  0  0  0  0
   19.4021  -22.3632   -7.5718 C   0  0  0  0  0  0  0  0  0  0  0  0
   19.1208  -23.6208   -6.7847 C   0  0  0  0  0  0  0  0  0  0  0  0
   17.7010  -23.9135   -6.7412 N   0  0  0  0  0  0  0  0  0  0  0  0
   22.5100  -20.1933  -10.4194 C   0  0  0  0  0  0  0  0  0  0  0  0
   21.6681  -19.3010  -10.6888 O   0  0  0  0  0  0  0  0  0  0  0  0
   27.2507  -19.6901  -17.5857 N   0  0  0  0  0  0  0  0  0  0  0  0
   27.8878  -18.7986  -16.6639 C   0  0  0  0  0  0  0  0  0  0  0  0
   28.5220  -17.7583  -17.0966 N   0  0  0  0  0  0  0  0  0  0  0  0
   27.8515  -19.0099  -15.2664 N   0  0  0  0  0  0  0  0  0  0  0  0
   27.1490  -20.0993  -14.6265 C   0  0  0  0  0  0  0  0  0  0  0  0
   25.7578  -19.6933  -14.1906 C   0  0  0  0  0  0  0  0  0  0  0  0
   25.4509  -20.1260  -12.7915 C   0  0  0  0  0  0  0  0  0  0  0  0
   24.0641  -19.8298  -12.3184 C   0  0  2  0  0  0  0  0  0  0  0  0
   23.8270  -20.1132  -10.9330 N   0  0  0  0  0  0  0  0  0  0  0  0
   23.1242  -20.6575  -13.1608 C   0  0  0  0  0  0  0  0  0  0  0  0
   22.9491  -21.8395  -12.8512 O   0  0  0  0  0  0  0  0  0  0  0  0
   28.9516  -17.1208  -16.4111 N   0  0  0  0  0  0  0  0  0  0  0  0
   19.1185  -22.2468  -16.0821 C   0  0  0  0  0  0  0  0  0  0  0  0
   20.0508  -22.8476  -15.2199 O   0  0  0  0  0  0  0  0  0  0  0  0
   19.9283  -24.1015  -14.9996 C   0  0  0  0  0  0  0  0  0  0  0  0
   21.1643  -22.1748  -14.5383 C   0  0  2  0  0  0  0  0  0  0  0  0
   21.3709  -20.7540  -14.9661 N   0  0  0  0  0  0  0  0  0  0  0  0
   22.4556  -20.1056  -14.2773 C   0  0  0  0  0  0  0  0  0  0  0  0
   20.1263  -19.9515  -14.9381 O   0  0  0  0  0  0  0  0  0  0  0  0
   19.5623  -19.7244  -13.8544 O   0  0  0  0  0  0  0  0  0  0  0  0
  2  1  1  1
  3  2  1  0
  3  4  1  0
  4  5  1  0
  6  5  1  0
  7  6  1  0
  8  9  2  0
  8  2  1  0
 10 11  1  0
 11 12  2  0
 13 14  1  0
 13 11  1  0
 15 14  1  0
 15 16  1  0
 17 16  1  6
 17 18  1  0
 18  8  1  0
 19 17  1  0
 19 26  1  0
 20 19  2  0
 21 22  1  0
 22 24  1  0
 23 22  2  0
 25 24  1  6
 25 26  1  0
 25 27  1  0
 27 28  2  0
 27 29  1  0
M  END
$$$$
