KRN.pdb
     RDKit          3D

 29 28  0  0  1  0  0  0  0  0999 V2000
   19.5040  -32.0691   -9.9826 N   0  0  0  0  0  0  0  0  0  0  0  0
   20.4443  -30.9718   -9.9567 C   0  0  1  0  0  0  0  0  0  0  0  0
   21.5821  -31.3115  -10.8642 C   0  0  0  0  0  0  0  0  0  0  0  0
   22.4785  -32.2812  -10.1225 C   0  0  0  0  0  0  0  0  0  0  0  0
   23.9343  -32.1138  -10.4733 C   0  0  0  0  0  0  0  0  0  0  0  0
   24.7276  -33.1960   -9.7807 C   0  0  0  0  0  0  0  0  0  0  0  0
   26.1434  -33.0881  -10.0763 N   0  0  0  0  0  0  0  0  0  0  0  0
   19.8056  -29.6640  -10.2402 C   0  0  0  0  0  0  0  0  0  0  0  0
   18.9607  -29.6336  -11.1691 O   0  0  0  0  0  0  0  0  0  0  0  0
   15.8939  -23.7442   -8.7172 N   0  0  0  0  0  0  0  0  0  0  0  0
   15.6356  -24.2230   -7.3926 C   0  0  0  0  0  0  0  0  0  0  0  0
   14.4391  -24.1764   -6.9050 N   0  0  0  0  0  0  0  0  0  0  0  0
   16.6562  -24.7597   -6.5747 N   0  0  0  0  0  0  0  0  0  0  0  0
   18.0002  -25.0381   -7.0285 C   0  0  0  0  0  0  0  0  0  0  0  0
   18.0115  -25.9919   -8.2035 C   0  0  0  0  0  0  0  0  0  0  0  0
   19.3966  -26.2738   -8.6944 C   0  0  0  0  0  0  0  0  0  0  0  0
   19.4894  -27.2374   -9.8334 C   0  0  2  0  0  0  0  0  0  0  0  0
   20.1147  -28.4879   -9.5150 N   0  0  0  0  0  0  0  0  0  0  0  0
   20.2760  -26.5548  -10.9260 C   0  0  0  0  0  0  0  0  0  0  0  0
   21.4949  -26.4291  -10.7772 O   0  0  0  0  0  0  0  0  0  0  0  0
   14.2836  -24.5120   -5.9437 N   0  0  0  0  0  0  0  0  0  0  0  0
   22.4292  -25.0023  -15.4850 C   0  0  0  0  0  0  0  0  0  0  0  0
   21.0776  -25.3848  -15.5102 O   0  0  0  0  0  0  0  0  0  0  0  0
   20.4032  -25.1004  -16.5590 C   0  0  0  0  0  0  0  0  0  0  0  0
   20.3523  -26.0860  -14.4427 C   0  0  1  0  0  0  0  0  0  0  0  0
   20.3296  -25.3511  -13.1374 N   0  0  0  0  0  0  0  0  0  0  0  0
   19.6456  -26.0682  -12.0938 C   0  0  0  0  0  0  0  0  0  0  0  0
   19.8548  -23.9539  -13.2650 O   0  0  0  0  0  0  0  0  0  0  0  0
   20.4186  -23.1800  -14.0570 O   0  0  0  0  0  0  0  0  0  0  0  0
  2  1  1  6
  3  2  1  0
  3  4  1  0
  4  5  1  0
  6  5  1  0
  7  6  1  0
  8  9  2  0
  8  2  1  0
 10 11  1  0
 11 12  2  0
 13 14  1  0
 13 11  1  0
 15 14  1  0
 15 16  1  0
 17 16  1  1
 17 18  1  0
 18  8  1  0
 19 17  1  0
 19 26  1  0
 20 19  2  0
 21 22  1  0
 22 24  1  0
 23 22  2  0
 25 24  1  1
 25 26  1  0
 25 27  1  0
 27 28  2  0
 27 29  1  0
M  END
$$$$
