KRN.pdb
     RDKit          3D

 29 28  0  0  1  0  0  0  0  0999 V2000
   29.5271  -11.6385  -17.5888 N   0  0  0  0  0  0  0  0  0  0  0  0
   28.8959  -10.4335  -17.1006 C   0  0  1  0  0  0  0  0  0  0  0  0
   29.4033   -9.2820  -17.9068 C   0  0  0  0  0  0  0  0  0  0  0  0
   30.8930   -9.1750  -17.6553 C   0  0  0  0  0  0  0  0  0  0  0  0
   31.7168   -9.6964  -18.8043 C   0  0  0  0  0  0  0  0  0  0  0  0
   33.1662   -9.3526  -18.5572 C   0  0  0  0  0  0  0  0  0  0  0  0
   34.0160   -9.8320  -19.6303 N   0  0  0  0  0  0  0  0  0  0  0  0
   27.4179  -10.5413  -17.0512 C   0  0  0  0  0  0  0  0  0  0  0  0
   26.8850  -11.3951  -17.8026 O   0  0  0  0  0  0  0  0  0  0  0  0
   21.0930  -14.5283  -15.8761 N   0  0  0  0  0  0  0  0  0  0  0  0
   20.5065  -13.2478  -15.6175 C   0  0  0  0  0  0  0  0  0  0  0  0
   19.2286  -13.0832  -15.7247 N   0  0  0  0  0  0  0  0  0  0  0  0
   21.2822  -12.1281  -15.2387 N   0  0  0  0  0  0  0  0  0  0  0  0
   22.7273  -12.1139  -15.2043 C   0  0  0  0  0  0  0  0  0  0  0  0
   23.2661  -10.7815  -14.7303 C   0  0  0  0  0  0  0  0  0  0  0  0
   24.7488  -10.6740  -14.9010 C   0  0  0  0  0  0  0  0  0  0  0  0
   25.2020   -9.9322  -16.1171 C   0  0  2  0  0  0  0  0  0  0  0  0
   26.6191   -9.7324  -16.2073 N   0  0  0  0  0  0  0  0  0  0  0  0
   24.5131   -8.5893  -16.0972 C   0  0  0  0  0  0  0  0  0  0  0  0
   24.8938   -7.7493  -15.2768 O   0  0  0  0  0  0  0  0  0  0  0  0
   18.8327  -12.1513  -15.5356 N   0  0  0  0  0  0  0  0  0  0  0  0
   21.1115   -4.6283  -17.2018 C   0  0  0  0  0  0  0  0  0  0  0  0
   21.3263   -5.4749  -18.3022 O   0  0  0  0  0  0  0  0  0  0  0  0
   20.7907   -5.1434  -19.4152 C   0  0  0  0  0  0  0  0  0  0  0  0
   22.1124   -6.7155  -18.3044 C   0  0  1  0  0  0  0  0  0  0  0  0
   22.7248   -7.0509  -16.9790 N   0  0  0  0  0  0  0  0  0  0  0  0
   23.4588   -8.2888  -16.9895 C   0  0  0  0  0  0  0  0  0  0  0  0
   21.7599   -6.9779  -15.8575 O   0  0  0  0  0  0  0  0  0  0  0  0
   21.7004   -5.9513  -15.1600 O   0  0  0  0  0  0  0  0  0  0  0  0
  2  1  1  6
  3  2  1  0
  3  4  1  0
  4  5  1  0
  6  5  1  0
  7  6  1  0
  8  9  2  0
  8  2  1  0
 10 11  1  0
 11 12  2  0
 13 14  1  0
 13 11  1  0
 15 14  1  0
 15 16  1  0
 17 16  1  1
 17 18  1  0
 18  8  1  0
 19 17  1  0
 19 26  1  0
 20 19  2  0
 21 22  1  0
 22 24  1  0
 23 22  2  0
 25 24  1  6
 25 26  1  0
 25 27  1  0
 27 28  2  0
 27 29  1  0
M  END
$$$$
