VPC.pdb
     RDKit          3D

 21 21  0  0  1  0  0  0  0  0999 V2000
    7.1362  -16.7849   20.5611 C   0  0  0  0  0  0  0  0  0  0  0  0
    7.6987  -16.4192   21.9062 C   0  0  2  0  0  0  0  0  0  0  0  0
    6.7175  -16.8652   22.9575 C   0  0  0  0  0  0  0  0  0  0  0  0
    8.0144  -14.9407   22.0143 C   0  0  2  0  0  0  0  0  0  0  0  0
    8.7836  -14.4504   20.9287 N   0  0  0  0  0  0  0  0  0  0  0  0
    8.5031  -14.6478   23.3642 C   0  0  0  0  0  0  0  0  0  0  0  0
    9.7242  -14.9734   23.5878 O   0  0  0  0  0  0  0  0  0  0  0  0
    7.7361  -14.0404   24.4203 N   0  0  0  0  0  0  0  0  0  0  0  0
    6.3510  -13.6773   24.4077 C   0  0  0  0  0  0  0  0  0  0  0  0
    5.9319  -13.7207   25.8541 C   0  0  0  0  0  0  0  0  0  0  0  0
    7.1899  -13.2386   26.5440 C   0  0  0  0  0  0  0  0  0  0  0  0
    8.3231  -13.6905   25.6785 C   0  0  1  0  0  0  0  0  0  0  0  0
    8.9364  -14.8705   26.3596 C   0  0  0  0  0  0  0  0  0  0  0  0
    8.4566  -16.0053   26.1234 O   0  0  0  0  0  0  0  0  0  0  0  0
   10.0227  -14.7715   27.2504 N   0  0  0  0  0  0  0  0  0  0  0  0
   10.7451  -15.9087   27.7879 C   0  0  1  0  0  0  0  0  0  0  0  0
   12.0503  -15.4978   28.4270 C   0  0  0  0  0  0  0  0  0  0  0  0
   12.4485  -13.8254   27.8429 S   0  0  0  0  0  0  0  0  0  0  0  0
    9.9061  -16.5670   28.8234 C   0  0  0  0  0  0  0  0  0  0  0  0
   10.2186  -17.8034   29.3719 O   0  0  0  0  0  0  0  0  0  0  0  0
    8.8573  -15.9999   29.2412 O   0  0  0  0  0  0  0  0  0  0  0  0
  2  1  1  6
  2  4  1  0
  3  2  1  0
  4  5  1  6
  6  4  1  0
  7  6  2  0
  8  6  1  0
  9 10  1  0
  9  8  1  0
 10 11  1  0
 12  8  1  0
 12 11  1  0
 12 13  1  1
 14 13  2  0
 15 13  1  0
 16 15  1  0
 16 17  1  1
 17 18  1  0
 19 16  1  0
 19 20  1  0
 21 19  2  0
M  END
$$$$
