VPC.pdb
     RDKit          3D

 21 21  0  0  1  0  0  0  0  0999 V2000
    6.8698  -17.0285   21.1582 C   0  0  0  0  0  0  0  0  0  0  0  0
    7.5882  -16.5223   22.3776 C   0  0  2  0  0  0  0  0  0  0  0  0
    6.7445  -16.8457   23.5820 C   0  0  0  0  0  0  0  0  0  0  0  0
    7.9038  -15.0428   22.2857 C   0  0  2  0  0  0  0  0  0  0  0  0
    8.5777  -14.6861   21.0902 N   0  0  0  0  0  0  0  0  0  0  0  0
    8.5013  -14.5962   23.5468 C   0  0  0  0  0  0  0  0  0  0  0  0
    9.7187  -14.9565   23.7345 O   0  0  0  0  0  0  0  0  0  0  0  0
    7.8413  -13.8081   24.5547 N   0  0  0  0  0  0  0  0  0  0  0  0
    6.5230  -13.2506   24.5151 C   0  0  0  0  0  0  0  0  0  0  0  0
    6.1177  -13.1260   25.9608 C   0  0  0  0  0  0  0  0  0  0  0  0
    7.4394  -12.7813   26.6128 C   0  0  0  0  0  0  0  0  0  0  0  0
    8.4862  -13.4548   25.7833 C   0  0  1  0  0  0  0  0  0  0  0  0
    8.9303  -14.6576   26.5504 C   0  0  0  0  0  0  0  0  0  0  0  0
    8.1613  -15.6477   26.5955 O   0  0  0  0  0  0  0  0  0  0  0  0
   10.1653  -14.7338   27.2230 N   0  0  0  0  0  0  0  0  0  0  0  0
   10.6265  -15.8976   27.9557 C   0  0  1  0  0  0  0  0  0  0  0  0
   12.1325  -16.0104   27.9468 C   0  0  0  0  0  0  0  0  0  0  0  0
   12.6886  -15.8398   26.2267 S   0  0  0  0  0  0  0  0  0  0  0  0
   10.1758  -15.7877   29.3679 C   0  0  0  0  0  0  0  0  0  0  0  0
   10.3357  -16.8119   30.2915 O   0  0  0  0  0  0  0  0  0  0  0  0
    9.6199  -14.7281   29.7732 O   0  0  0  0  0  0  0  0  0  0  0  0
  2  1  1  6
  2  4  1  0
  3  2  1  0
  4  5  1  6
  6  4  1  0
  7  6  2  0
  8  6  1  0
  9 10  1  0
  9  8  1  0
 10 11  1  0
 12  8  1  0
 12 11  1  0
 12 13  1  1
 14 13  2  0
 15 13  1  0
 16 15  1  0
 16 17  1  1
 17 18  1  0
 19 16  1  0
 19 20  1  0
 21 19  2  0
M  END
$$$$
