VPC.pdb
     RDKit          3D

 21 21  0  0  1  0  0  0  0  0999 V2000
    6.7653  -18.7243   16.5139 C   0  0  0  0  0  0  0  0  0  0  0  0
    7.5661  -18.0886   17.6157 C   0  0  2  0  0  0  0  0  0  0  0  0
    6.6506  -17.8740   18.7917 C   0  0  0  0  0  0  0  0  0  0  0  0
    8.2327  -16.8017   17.1725 C   0  0  2  0  0  0  0  0  0  0  0  0
    9.0199  -16.9516   16.0026 N   0  0  0  0  0  0  0  0  0  0  0  0
    8.8696  -16.1639   18.3277 C   0  0  0  0  0  0  0  0  0  0  0  0
    9.8911  -16.7805   18.8003 O   0  0  0  0  0  0  0  0  0  0  0  0
    8.4447  -14.9358   18.9475 N   0  0  0  0  0  0  0  0  0  0  0  0
    7.3570  -14.0861   18.5666 C   0  0  0  0  0  0  0  0  0  0  0  0
    6.9613  -13.3800   19.8372 C   0  0  0  0  0  0  0  0  0  0  0  0
    8.3036  -13.2123   20.5161 C   0  0  0  0  0  0  0  0  0  0  0  0
    9.1258  -14.3829   20.0791 C   0  0  1  0  0  0  0  0  0  0  0  0
    9.1627  -15.3329   21.2316 C   0  0  0  0  0  0  0  0  0  0  0  0
    8.1316  -16.0032   21.4790 O   0  0  0  0  0  0  0  0  0  0  0  0
   10.2941  -15.5119   22.0510 N   0  0  0  0  0  0  0  0  0  0  0  0
   10.3549  -16.4317   23.1709 C   0  0  1  0  0  0  0  0  0  0  0  0
   11.5988  -17.2873   23.1322 C   0  0  0  0  0  0  0  0  0  0  0  0
   11.8012  -17.8903   21.4315 S   0  0  0  0  0  0  0  0  0  0  0  0
   10.3656  -15.6509   24.4357 C   0  0  0  0  0  0  0  0  0  0  0  0
   10.4596  -14.2661   24.4653 O   0  0  0  0  0  0  0  0  0  0  0  0
   10.2869  -16.2468   25.5469 O   0  0  0  0  0  0  0  0  0  0  0  0
  2  1  1  6
  2  4  1  0
  3  2  1  0
  4  5  1  6
  6  4  1  0
  7  6  2  0
  8  6  1  0
  9 10  1  0
  9  8  1  0
 10 11  1  0
 12  8  1  0
 12 11  1  0
 12 13  1  1
 14 13  2  0
 15 13  1  0
 16 15  1  0
 16 17  1  6
 17 18  1  0
 19 16  1  0
 19 20  1  0
 21 19  2  0
M  END
$$$$
