VPC.pdb
     RDKit          3D

 21 21  0  0  1  0  0  0  0  0999 V2000
    6.7117  -16.6461   20.9318 C   0  0  0  0  0  0  0  0  0  0  0  0
    7.4122  -16.3056   22.2174 C   0  0  2  0  0  0  0  0  0  0  0  0
    6.4526  -16.5559   23.3503 C   0  0  0  0  0  0  0  0  0  0  0  0
    7.9416  -14.8854   22.2246 C   0  0  2  0  0  0  0  0  0  0  0  0
    8.7654  -14.5881   21.1094 N   0  0  0  0  0  0  0  0  0  0  0  0
    8.4789  -14.5760   23.5521 C   0  0  0  0  0  0  0  0  0  0  0  0
    9.6156  -15.1076   23.8210 O   0  0  0  0  0  0  0  0  0  0  0  0
    7.8431  -13.7453   24.5413 N   0  0  0  0  0  0  0  0  0  0  0  0
    6.5711  -13.0930   24.4595 C   0  0  0  0  0  0  0  0  0  0  0  0
    6.1257  -12.9443   25.8910 C   0  0  0  0  0  0  0  0  0  0  0  0
    7.4453  -12.6993   26.5904 C   0  0  0  0  0  0  0  0  0  0  0  0
    8.4687  -13.4445   25.7936 C   0  0  1  0  0  0  0  0  0  0  0  0
    8.7969  -14.6792   26.5684 C   0  0  0  0  0  0  0  0  0  0  0  0
    7.9512  -15.6054   26.5915 O   0  0  0  0  0  0  0  0  0  0  0  0
   10.0047  -14.8534   27.2713 N   0  0  0  0  0  0  0  0  0  0  0  0
   10.3199  -16.0162   28.0791 C   0  0  1  0  0  0  0  0  0  0  0  0
   11.5959  -16.6873   27.6295 C   0  0  0  0  0  0  0  0  0  0  0  0
   11.9131  -18.0785   28.7526 S   0  0  0  0  0  0  0  0  0  0  0  0
   10.4911  -15.5889   29.4926 C   0  0  0  0  0  0  0  0  0  0  0  0
   10.4218  -16.4733   30.5605 O   0  0  0  0  0  0  0  0  0  0  0  0
   10.7104  -14.3746   29.7635 O   0  0  0  0  0  0  0  0  0  0  0  0
  2  1  1  6
  2  4  1  0
  3  2  1  0
  4  5  1  6
  6  4  1  0
  7  6  2  0
  8  6  1  0
  9 10  1  0
  9  8  1  0
 10 11  1  0
 12  8  1  0
 12 11  1  0
 12 13  1  1
 14 13  2  0
 15 13  1  0
 16 15  1  0
 16 17  1  6
 17 18  1  0
 19 16  1  0
 19 20  1  0
 21 19  2  0
M  END
$$$$
