VPC.pdb
     RDKit          3D

 21 21  0  0  1  0  0  0  0  0999 V2000
    7.1677  -16.7414   20.6491 C   0  0  0  0  0  0  0  0  0  0  0  0
    7.7668  -16.2618   21.9416 C   0  0  2  0  0  0  0  0  0  0  0  0
    6.9184  -16.7851   23.0699 C   0  0  0  0  0  0  0  0  0  0  0  0
    7.9039  -14.7530   21.9863 C   0  0  2  0  0  0  0  0  0  0  0  0
    8.5251  -14.2116   20.8323 N   0  0  0  0  0  0  0  0  0  0  0  0
    8.4500  -14.3551   23.2865 C   0  0  0  0  0  0  0  0  0  0  0  0
    9.7075  -14.5612   23.4392 O   0  0  0  0  0  0  0  0  0  0  0  0
    7.7005  -13.7686   24.3667 N   0  0  0  0  0  0  0  0  0  0  0  0
    6.3096  -13.4293   24.3928 C   0  0  0  0  0  0  0  0  0  0  0  0
    5.9292  -13.4902   25.8492 C   0  0  0  0  0  0  0  0  0  0  0  0
    7.1964  -12.9917   26.5100 C   0  0  0  0  0  0  0  0  0  0  0  0
    8.3142  -13.4178   25.6119 C   0  0  1  0  0  0  0  0  0  0  0  0
    8.9648  -14.5920   26.2678 C   0  0  0  0  0  0  0  0  0  0  0  0
    8.6491  -15.7402   25.8731 O   0  0  0  0  0  0  0  0  0  0  0  0
    9.9117  -14.4734   27.3035 N   0  0  0  0  0  0  0  0  0  0  0  0
   10.7989  -15.5403   27.7260 C   0  0  1  0  0  0  0  0  0  0  0  0
   11.7495  -15.0888   28.8092 C   0  0  0  0  0  0  0  0  0  0  0  0
   10.8057  -14.0774   29.9854 S   0  0  0  0  0  0  0  0  0  0  0  0
    9.9831  -16.6624   28.2600 C   0  0  0  0  0  0  0  0  0  0  0  0
    8.6219  -16.5518   28.5098 O   0  0  0  0  0  0  0  0  0  0  0  0
   10.5253  -17.7765   28.5064 O   0  0  0  0  0  0  0  0  0  0  0  0
  2  1  1  6
  2  4  1  0
  3  2  1  0
  4  5  1  6
  6  4  1  0
  7  6  2  0
  8  6  1  0
  9 10  1  0
  9  8  1  0
 10 11  1  0
 12  8  1  0
 12 11  1  0
 12 13  1  1
 14 13  2  0
 15 13  1  0
 16 15  1  0
 16 17  1  1
 17 18  1  0
 19 16  1  0
 19 20  1  0
 21 19  2  0
M  END
$$$$
