VPC.pdb
     RDKit          3D

 21 21  0  0  1  0  0  0  0  0999 V2000
    8.1749  -13.1041   27.1454 C   0  0  0  0  0  0  0  0  0  0  0  0
    7.2066  -12.6658   26.0825 C   0  0  2  0  0  0  0  0  0  0  0  0
    6.4214  -11.4995   26.6212 C   0  0  0  0  0  0  0  0  0  0  0  0
    6.3050  -13.7952   25.6257 C   0  0  2  0  0  0  0  0  0  0  0  0
    5.5090  -14.3343   26.6680 N   0  0  0  0  0  0  0  0  0  0  0  0
    7.0841  -14.7421   24.8236 C   0  0  0  0  0  0  0  0  0  0  0  0
    7.5682  -15.7395   25.4699 O   0  0  0  0  0  0  0  0  0  0  0  0
    7.3349  -14.6357   23.4099 N   0  0  0  0  0  0  0  0  0  0  0  0
    6.7283  -13.7403   22.4715 C   0  0  0  0  0  0  0  0  0  0  0  0
    7.7500  -13.5870   21.3750 C   0  0  0  0  0  0  0  0  0  0  0  0
    8.3594  -14.9720   21.3390 C   0  0  0  0  0  0  0  0  0  0  0  0
    8.2693  -15.4889   22.7398 C   0  0  1  0  0  0  0  0  0  0  0  0
    9.6414  -15.3858   23.3220 C   0  0  0  0  0  0  0  0  0  0  0  0
    9.8360  -14.5456   24.2329 O   0  0  0  0  0  0  0  0  0  0  0  0
   10.7230  -16.1829   22.8997 N   0  0  0  0  0  0  0  0  0  0  0  0
   11.6561  -16.8366   23.7975 C   0  0  1  0  0  0  0  0  0  0  0  0
   10.9537  -17.7451   24.7784 C   0  0  0  0  0  0  0  0  0  0  0  0
   11.6149  -17.3886   26.4316 S   0  0  0  0  0  0  0  0  0  0  0  0
   12.6010  -17.6579   22.9960 C   0  0  0  0  0  0  0  0  0  0  0  0
   13.9797  -17.5674   23.1316 O   0  0  0  0  0  0  0  0  0  0  0  0
   12.1585  -18.4824   22.1472 O   0  0  0  0  0  0  0  0  0  0  0  0
  2  1  1  1
  2  4  1  0
  3  2  1  0
  4  5  1  1
  6  4  1  0
  7  6  2  0
  8  6  1  0
  9 10  1  0
  9  8  1  0
 10 11  1  0
 12  8  1  0
 12 11  1  0
 12 13  1  1
 14 13  2  0
 15 13  1  0
 16 15  1  0
 16 17  1  1
 17 18  1  0
 19 16  1  0
 19 20  1  0
 21 19  2  0
M  END
$$$$
