KWL.pdb
     RDKit          3D

 32 33  0  0  1  0  0  0  0  0999 V2000
   27.7155  -19.8504  -14.6423 N   0  0  0  0  0  0  0  0  0  0  0  0
   26.9762  -21.0819  -14.5826 C   0  0  1  0  0  0  0  0  0  0  0  0
   27.8413  -22.2769  -14.9578 C   0  0  0  0  0  0  0  0  0  0  0  0
   27.6637  -22.6386  -16.4156 C   0  0  0  0  0  0  0  0  0  0  0  0
   28.3725  -23.9813  -16.6240 C   0  0  0  0  0  0  0  0  0  0  0  0
   29.6505  -23.7010  -17.3946 C   0  0  0  0  0  0  0  0  0  0  0  0
   30.3493  -24.9739  -17.5219 N   0  0  0  0  0  0  0  0  0  0  0  0
   26.3489  -21.2819  -13.2539 C   0  0  0  0  0  0  0  0  0  0  0  0
   25.4499  -22.1458  -13.1337 O   0  0  0  0  0  0  0  0  0  0  0  0
   26.7419  -20.5187  -12.1155 N   0  0  0  0  0  0  0  0  0  0  0  0
   26.1399  -20.7377  -10.8282 C   0  0  1  0  0  0  0  0  0  0  0  0
   26.8141  -19.9405   -9.7408 C   0  0  0  0  0  0  0  0  0  0  0  0
   26.4790  -20.4320   -8.3906 C   0  0  0  0  0  0  0  0  0  0  0  0
   25.4745  -21.2999   -8.0147 C   0  0  0  0  0  0  0  0  0  0  0  0
   25.5223  -21.4784   -6.6929 N   0  0  0  0  0  0  0  0  0  0  0  0
   26.5168  -20.7708   -6.1398 C   0  0  0  0  0  0  0  0  0  0  0  0
   27.0121  -20.5836   -4.8559 C   0  0  0  0  0  0  0  0  0  0  0  0
   28.0889  -19.7615   -4.5973 C   0  0  0  0  0  0  0  0  0  0  0  0
   28.6763  -19.1110   -5.6886 C   0  0  0  0  0  0  0  0  0  0  0  0
   28.1983  -19.2856   -6.9652 C   0  0  0  0  0  0  0  0  0  0  0  0
   27.1240  -20.1072   -7.2149 C   0  0  0  0  0  0  0  0  0  0  0  0
   24.7189  -20.2399  -10.9234 C   0  0  0  0  0  0  0  0  0  0  0  0
   24.5110  -19.0282  -11.2197 O   0  0  0  0  0  0  0  0  0  0  0  0
   21.6115  -19.5579  -13.8067 C   0  0  0  0  0  0  0  0  0  0  0  0
   22.0687  -20.9564  -13.4584 C   0  0  2  0  0  0  0  0  0  0  0  0
   21.8386  -21.9719  -14.5387 C   0  0  0  0  0  0  0  0  0  0  0  0
   21.7487  -21.3986  -12.0879 C   0  0  0  0  0  0  0  0  0  0  0  0
   22.2331  -20.6054  -10.9367 C   0  0  2  0  0  0  0  0  0  0  0  0
   23.6122  -21.0878  -10.6908 N   0  0  0  0  0  0  0  0  0  0  0  0
   21.4794  -20.6538   -9.6984 C   0  0  0  0  0  0  0  0  0  0  0  0
   21.6623  -21.6579   -8.7710 O   0  0  0  0  0  0  0  0  0  0  0  0
   20.6237  -19.7719   -9.4326 O   0  0  0  0  0  0  0  0  0  0  0  0
  2  3  1  0
  2  1  1  1
  3  4  1  0
  5  4  1  0
  6  5  1  0
  7  6  1  0
  8  2  1  0
  8  9  2  0
 10  8  1  0
 11 10  1  0
 11 12  1  1
 13 14  2  0
 13 12  1  0
 15 14  1  0
 16 21  2  0
 16 15  1  0
 17 16  1  0
 18 19  1  0
 18 17  2  0
 19 20  2  0
 20 21  1  0
 21 13  1  0
 22 29  1  0
 22 11  1  0
 23 22  2  0
 25 24  1  6
 25 27  1  0
 26 25  1  0
 28 27  1  6
 28 29  1  0
 28 30  1  0
 30 32  2  0
 30 31  1  0
M  END
$$$$
