KWL.pdb
     RDKit          3D

 32 33  0  0  1  0  0  0  0  0999 V2000
   20.4665  -19.8426  -11.2827 N   0  0  0  0  0  0  0  0  0  0  0  0
   21.5077  -20.7958  -11.5548 C   0  0  1  0  0  0  0  0  0  0  0  0
   21.5215  -21.2121  -13.0190 C   0  0  0  0  0  0  0  0  0  0  0  0
   20.1960  -21.8182  -13.4231 C   0  0  0  0  0  0  0  0  0  0  0  0
   20.1435  -23.2160  -12.7972 C   0  0  0  0  0  0  0  0  0  0  0  0
   18.8657  -23.8784  -13.2811 C   0  0  0  0  0  0  0  0  0  0  0  0
   18.7803  -25.1663  -12.6038 N   0  0  0  0  0  0  0  0  0  0  0  0
   22.8379  -20.2901  -11.1382 C   0  0  0  0  0  0  0  0  0  0  0  0
   23.2625  -19.2227  -11.6373 O   0  0  0  0  0  0  0  0  0  0  0  0
   23.6418  -20.9859  -10.1880 N   0  0  0  0  0  0  0  0  0  0  0  0
   24.9716  -20.5412   -9.8699 C   0  0  1  0  0  0  0  0  0  0  0  0
   25.5355  -21.2479   -8.6636 C   0  0  0  0  0  0  0  0  0  0  0  0
   26.9026  -20.8003   -8.3354 C   0  0  0  0  0  0  0  0  0  0  0  0
   27.9769  -20.6215   -9.1825 C   0  0  0  0  0  0  0  0  0  0  0  0
   29.0288  -20.2066   -8.4735 N   0  0  0  0  0  0  0  0  0  0  0  0
   28.7269  -20.0910   -7.1730 C   0  0  0  0  0  0  0  0  0  0  0  0
   29.4068  -19.7150   -6.0219 C   0  0  0  0  0  0  0  0  0  0  0  0
   28.7997  -19.6976   -4.7836 C   0  0  0  0  0  0  0  0  0  0  0  0
   27.4540  -20.0776   -4.7233 C   0  0  0  0  0  0  0  0  0  0  0  0
   26.7669  -20.4524   -5.8530 C   0  0  0  0  0  0  0  0  0  0  0  0
   27.3795  -20.4670   -7.0843 C   0  0  0  0  0  0  0  0  0  0  0  0
   25.8445  -20.9087  -11.0442 C   0  0  0  0  0  0  0  0  0  0  0  0
   25.7440  -22.0649  -11.5465 O   0  0  0  0  0  0  0  0  0  0  0  0
   28.7104  -17.1403  -15.0036 C   0  0  0  0  0  0  0  0  0  0  0  0
   28.1087  -18.5081  -14.7727 C   0  0  2  0  0  0  0  0  0  0  0  0
   27.2329  -18.9974  -15.8884 C   0  0  0  0  0  0  0  0  0  0  0  0
   27.5995  -18.7481  -13.4091 C   0  0  0  0  0  0  0  0  0  0  0  0
   27.1728  -20.1109  -13.0221 C   0  0  2  0  0  0  0  0  0  0  0  0
   26.7724  -19.9988  -11.6001 N   0  0  0  0  0  0  0  0  0  0  0  0
   28.1199  -21.1995  -13.1702 C   0  0  0  0  0  0  0  0  0  0  0  0
   28.9499  -21.5902  -12.1405 O   0  0  0  0  0  0  0  0  0  0  0  0
   28.2151  -21.8245  -14.2569 O   0  0  0  0  0  0  0  0  0  0  0  0
  2  3  1  0
  2  1  1  6
  3  4  1  0
  5  4  1  0
  6  5  1  0
  7  6  1  0
  8  2  1  0
  8  9  2  0
 10  8  1  0
 11 10  1  0
 11 12  1  1
 13 14  2  0
 13 12  1  0
 15 14  1  0
 16 21  2  0
 16 15  1  0
 17 16  1  0
 18 19  1  0
 18 17  2  0
 19 20  2  0
 20 21  1  0
 21 13  1  0
 22 29  1  0
 22 11  1  0
 23 22  2  0
 25 24  1  6
 25 27  1  0
 26 25  1  0
 28 27  1  1
 28 29  1  0
 28 30  1  0
 30 32  2  0
 30 31  1  0
M  END
$$$$
