KWL.pdb
     RDKit          3D

 32 33  0  0  1  0  0  0  0  0999 V2000
   28.8017  -21.2418  -14.6965 N   0  0  0  0  0  0  0  0  0  0  0  0
   28.3830  -20.2649  -13.7285 C   0  0  1  0  0  0  0  0  0  0  0  0
   27.9863  -18.9519  -14.3887 C   0  0  0  0  0  0  0  0  0  0  0  0
   27.3533  -19.1942  -15.7408 C   0  0  0  0  0  0  0  0  0  0  0  0
   27.0276  -17.8159  -16.3262 C   0  0  0  0  0  0  0  0  0  0  0  0
   26.4823  -18.0385  -17.7258 C   0  0  0  0  0  0  0  0  0  0  0  0
   26.1518  -16.7229  -18.2595 N   0  0  0  0  0  0  0  0  0  0  0  0
   27.2863  -20.7760  -12.8712 C   0  0  0  0  0  0  0  0  0  0  0  0
   26.5288  -21.6647  -13.3243 O   0  0  0  0  0  0  0  0  0  0  0  0
   27.0740  -20.2831  -11.5502 N   0  0  0  0  0  0  0  0  0  0  0  0
   26.0526  -20.8375  -10.7038 C   0  0  1  0  0  0  0  0  0  0  0  0
   26.1298  -20.3068   -9.2949 C   0  0  0  0  0  0  0  0  0  0  0  0
   27.4104  -20.6328   -8.6386 C   0  0  0  0  0  0  0  0  0  0  0  0
   28.4032  -21.4905   -9.0656 C   0  0  0  0  0  0  0  0  0  0  0  0
   29.3935  -21.4934   -8.1709 N   0  0  0  0  0  0  0  0  0  0  0  0
   29.1272  -20.6744   -7.1442 C   0  0  0  0  0  0  0  0  0  0  0  0
   29.7754  -20.2996   -5.9746 C   0  0  0  0  0  0  0  0  0  0  0  0
   29.2234  -19.4018   -5.0850 C   0  0  0  0  0  0  0  0  0  0  0  0
   27.9679  -18.8717   -5.4041 C   0  0  0  0  0  0  0  0  0  0  0  0
   27.3132  -19.2323   -6.5574 C   0  0  0  0  0  0  0  0  0  0  0  0
   27.8705  -20.1283   -7.4396 C   0  0  0  0  0  0  0  0  0  0  0  0
   24.7283  -20.3900  -11.2715 C   0  0  0  0  0  0  0  0  0  0  0  0
   24.6872  -19.3480  -11.9868 O   0  0  0  0  0  0  0  0  0  0  0  0
   22.0379  -20.0260  -14.6711 C   0  0  0  0  0  0  0  0  0  0  0  0
   22.6782  -21.3606  -14.3629 C   0  0  2  0  0  0  0  0  0  0  0  0
   22.5285  -22.3863  -15.4476 C   0  0  0  0  0  0  0  0  0  0  0  0
   22.4745  -21.8521  -12.9870 C   0  0  0  0  0  0  0  0  0  0  0  0
   22.3403  -20.8794  -11.8802 C   0  0  2  0  0  0  0  0  0  0  0  0
   23.5313  -21.1010  -11.0274 N   0  0  0  0  0  0  0  0  0  0  0  0
   21.1457  -20.9279  -11.0590 C   0  0  0  0  0  0  0  0  0  0  0  0
   20.0184  -20.1952  -11.3659 O   0  0  0  0  0  0  0  0  0  0  0  0
   21.1039  -21.6463  -10.0280 O   0  0  0  0  0  0  0  0  0  0  0  0
  2  3  1  0
  2  1  1  6
  3  4  1  0
  5  4  1  0
  6  5  1  0
  7  6  1  0
  8  2  1  0
  8  9  2  0
 10  8  1  0
 11 10  1  0
 11 12  1  1
 13 14  2  0
 13 12  1  0
 15 14  1  0
 16 21  2  0
 16 15  1  0
 17 16  1  0
 18 19  1  0
 18 17  2  0
 19 20  2  0
 20 21  1  0
 21 13  1  0
 22 29  1  0
 22 11  1  0
 23 22  2  0
 25 24  1  6
 25 27  1  0
 26 25  1  0
 28 27  1  6
 28 29  1  0
 28 30  1  0
 30 32  2  0
 30 31  1  0
M  END
$$$$
