KWL.pdb
     RDKit          3D

 32 33  0  0  1  0  0  0  0  0999 V2000
   28.1770  -19.8375  -16.2346 N   0  0  0  0  0  0  0  0  0  0  0  0
   27.8457  -18.6085  -15.5665 C   0  0  1  0  0  0  0  0  0  0  0  0
   27.4407  -17.5224  -16.5532 C   0  0  0  0  0  0  0  0  0  0  0  0
   27.5116  -18.0290  -17.9765 C   0  0  0  0  0  0  0  0  0  0  0  0
   28.3287  -17.0019  -18.7677 C   0  0  0  0  0  0  0  0  0  0  0  0
   28.3399  -17.4552  -20.2169 C   0  0  0  0  0  0  0  0  0  0  0  0
   29.2433  -16.5590  -20.9280 N   0  0  0  0  0  0  0  0  0  0  0  0
   26.7936  -18.8073  -14.5406 C   0  0  0  0  0  0  0  0  0  0  0  0
   26.3799  -17.8146  -13.8984 O   0  0  0  0  0  0  0  0  0  0  0  0
   26.2440  -20.0945  -14.2684 N   0  0  0  0  0  0  0  0  0  0  0  0
   25.1843  -20.2646  -13.3117 C   0  0  1  0  0  0  0  0  0  0  0  0
   24.0493  -21.0918  -13.8595 C   0  0  0  0  0  0  0  0  0  0  0  0
   23.0920  -20.2877  -14.6431 C   0  0  0  0  0  0  0  0  0  0  0  0
   23.3405  -19.4591  -15.7180 C   0  0  0  0  0  0  0  0  0  0  0  0
   22.1908  -18.9211  -16.1306 N   0  0  0  0  0  0  0  0  0  0  0  0
   21.1590  -19.3427  -15.3867 C   0  0  0  0  0  0  0  0  0  0  0  0
   19.7887  -19.1180  -15.3651 C   0  0  0  0  0  0  0  0  0  0  0  0
   18.9606  -19.7210  -14.4417 C   0  0  0  0  0  0  0  0  0  0  0  0
   19.5554  -20.5812  -13.5114 C   0  0  0  0  0  0  0  0  0  0  0  0
   20.9098  -20.8143  -13.5194 C   0  0  0  0  0  0  0  0  0  0  0  0
   21.7290  -20.2090  -14.4436 C   0  0  0  0  0  0  0  0  0  0  0  0
   25.7673  -21.0305  -12.1500 C   0  0  0  0  0  0  0  0  0  0  0  0
   26.6078  -21.9474  -12.3784 O   0  0  0  0  0  0  0  0  0  0  0  0
   27.3626  -19.7746   -7.9000 C   0  0  0  0  0  0  0  0  0  0  0  0
   28.2099  -20.5846   -8.8551 C   0  0  2  0  0  0  0  0  0  0  0  0
   29.4213  -19.8661   -9.3726 C   0  0  0  0  0  0  0  0  0  0  0  0
   27.4570  -21.3674   -9.8534 C   0  0  0  0  0  0  0  0  0  0  0  0
   25.9946  -21.5287   -9.6978 C   0  0  2  0  0  0  0  0  0  0  0  0
   25.4018  -20.7540  -10.8129 N   0  0  0  0  0  0  0  0  0  0  0  0
   25.3832  -21.1171   -8.4486 C   0  0  0  0  0  0  0  0  0  0  0  0
   25.6353  -21.7723   -7.2616 O   0  0  0  0  0  0  0  0  0  0  0  0
   24.5925  -20.1403   -8.4118 O   0  0  0  0  0  0  0  0  0  0  0  0
  2  3  1  0
  2  1  1  6
  3  4  1  0
  5  4  1  0
  6  5  1  0
  7  6  1  0
  8  2  1  0
  8  9  2  0
 10  8  1  0
 11 10  1  0
 11 12  1  6
 13 14  2  0
 13 12  1  0
 15 14  1  0
 16 21  2  0
 16 15  1  0
 17 16  1  0
 18 19  1  0
 18 17  2  0
 19 20  2  0
 20 21  1  0
 21 13  1  0
 22 29  1  0
 22 11  1  0
 23 22  2  0
 25 24  1  6
 25 27  1  0
 26 25  1  0
 28 27  1  1
 28 29  1  0
 28 30  1  0
 30 32  2  0
 30 31  1  0
M  END
$$$$
