KWL.pdb
     RDKit          3D

 32 33  0  0  1  0  0  0  0  0999 V2000
   27.9144  -20.5034  -18.8704 N   0  0  0  0  0  0  0  0  0  0  0  0
   27.6411  -21.0300  -17.5609 C   0  0  1  0  0  0  0  0  0  0  0  0
   28.8193  -20.8330  -16.6174 C   0  0  0  0  0  0  0  0  0  0  0  0
   29.2388  -22.1449  -15.9925 C   0  0  0  0  0  0  0  0  0  0  0  0
   29.8523  -22.9892  -17.1146 C   0  0  0  0  0  0  0  0  0  0  0  0
   30.1907  -24.3464  -16.5235 C   0  0  0  0  0  0  0  0  0  0  0  0
   30.5218  -25.2189  -17.6432 N   0  0  0  0  0  0  0  0  0  0  0  0
   26.4024  -20.4535  -16.9846 C   0  0  0  0  0  0  0  0  0  0  0  0
   26.2857  -19.2078  -16.9256 O   0  0  0  0  0  0  0  0  0  0  0  0
   25.3459  -21.2785  -16.4983 N   0  0  0  0  0  0  0  0  0  0  0  0
   24.1446  -20.7061  -15.9537 C   0  0  1  0  0  0  0  0  0  0  0  0
   22.9241  -21.0682  -16.7610 C   0  0  0  0  0  0  0  0  0  0  0  0
   22.7205  -20.1668  -17.9112 C   0  0  0  0  0  0  0  0  0  0  0  0
   22.8865  -20.4339  -19.2546 C   0  0  0  0  0  0  0  0  0  0  0  0
   22.5961  -19.3374  -19.9579 N   0  0  0  0  0  0  0  0  0  0  0  0
   22.2365  -18.3245  -19.1577 C   0  0  0  0  0  0  0  0  0  0  0  0
   21.8449  -17.0040  -19.3365 C   0  0  0  0  0  0  0  0  0  0  0  0
   21.5275  -16.1825  -18.2752 C   0  0  0  0  0  0  0  0  0  0  0  0
   21.6142  -16.7314  -16.9905 C   0  0  0  0  0  0  0  0  0  0  0  0
   22.0000  -18.0360  -16.7965 C   0  0  0  0  0  0  0  0  0  0  0  0
   22.3149  -18.8490  -17.8602 C   0  0  0  0  0  0  0  0  0  0  0  0
   23.9604  -21.3073  -14.5823 C   0  0  0  0  0  0  0  0  0  0  0  0
   24.8305  -22.1129  -14.1428 O   0  0  0  0  0  0  0  0  0  0  0  0
   25.0410  -22.5077  -10.7442 C   0  0  0  0  0  0  0  0  0  0  0  0
   25.2602  -21.1603  -11.3945 C   0  0  2  0  0  0  0  0  0  0  0  0
   26.2940  -20.3067  -10.7209 C   0  0  0  0  0  0  0  0  0  0  0  0
   24.0328  -20.4608  -11.8192 C   0  0  0  0  0  0  0  0  0  0  0  0
   22.8818  -21.2480  -12.3138 C   0  0  2  0  0  0  0  0  0  0  0  0
   22.8436  -20.9971  -13.7735 N   0  0  0  0  0  0  0  0  0  0  0  0
   21.5723  -20.9878  -11.7472 C   0  0  0  0  0  0  0  0  0  0  0  0
   21.0680  -21.7324  -10.7016 O   0  0  0  0  0  0  0  0  0  0  0  0
   20.8478  -20.0659  -12.2009 O   0  0  0  0  0  0  0  0  0  0  0  0
  2  3  1  0
  2  1  1  6
  3  4  1  0
  5  4  1  0
  6  5  1  0
  7  6  1  0
  8  2  1  0
  8  9  2  0
 10  8  1  0
 11 10  1  0
 11 12  1  6
 13 14  2  0
 13 12  1  0
 15 14  1  0
 16 21  2  0
 16 15  1  0
 17 16  1  0
 18 19  1  0
 18 17  2  0
 19 20  2  0
 20 21  1  0
 21 13  1  0
 22 29  1  0
 22 11  1  0
 23 22  2  0
 25 24  1  1
 25 27  1  0
 26 25  1  0
 28 27  1  1
 28 29  1  0
 28 30  1  0
 30 32  2  0
 30 31  1  0
M  END
$$$$
