KWL.pdb
     RDKit          3D

 32 33  0  0  1  0  0  0  0  0999 V2000
   27.7779  -20.3419  -15.8977 N   0  0  0  0  0  0  0  0  0  0  0  0
   27.2941  -21.6833  -15.7155 C   0  0  1  0  0  0  0  0  0  0  0  0
   28.4151  -22.7067  -15.8295 C   0  0  0  0  0  0  0  0  0  0  0  0
   28.4644  -23.3047  -17.2179 C   0  0  0  0  0  0  0  0  0  0  0  0
   29.4517  -22.4562  -18.0264 C   0  0  0  0  0  0  0  0  0  0  0  0
   29.4317  -22.9780  -19.4522 C   0  0  0  0  0  0  0  0  0  0  0  0
   30.3065  -24.1435  -19.4829 N   0  0  0  0  0  0  0  0  0  0  0  0
   26.5698  -21.8361  -14.4306 C   0  0  0  0  0  0  0  0  0  0  0  0
   26.1040  -22.9589  -14.1289 O   0  0  0  0  0  0  0  0  0  0  0  0
   26.3915  -20.7414  -13.5344 N   0  0  0  0  0  0  0  0  0  0  0  0
   25.7725  -20.9241  -12.2496 C   0  0  1  0  0  0  0  0  0  0  0  0
   26.2274  -19.8951  -11.2463 C   0  0  0  0  0  0  0  0  0  0  0  0
   27.3341  -20.3823  -10.4007 C   0  0  0  0  0  0  0  0  0  0  0  0
   28.4098  -21.1685  -10.7589 C   0  0  0  0  0  0  0  0  0  0  0  0
   29.1756  -21.3773   -9.6859 N   0  0  0  0  0  0  0  0  0  0  0  0
   28.6748  -20.7688   -8.6020 C   0  0  0  0  0  0  0  0  0  0  0  0
   29.0401  -20.6513   -7.2673 C   0  0  0  0  0  0  0  0  0  0  0  0
   28.2902  -19.9301   -6.3620 C   0  0  0  0  0  0  0  0  0  0  0  0
   27.1297  -19.3101   -6.8395 C   0  0  0  0  0  0  0  0  0  0  0  0
   26.7543  -19.4167   -8.1572 C   0  0  0  0  0  0  0  0  0  0  0  0
   27.5076  -20.1378   -9.0539 C   0  0  0  0  0  0  0  0  0  0  0  0
   24.2909  -20.7206  -12.4489 C   0  0  0  0  0  0  0  0  0  0  0  0
   23.8957  -19.9253  -13.3493 O   0  0  0  0  0  0  0  0  0  0  0  0
   20.5843  -23.2232   -8.8767 C   0  0  0  0  0  0  0  0  0  0  0  0
   20.9148  -22.0032   -9.7066 C   0  0  2  0  0  0  0  0  0  0  0  0
   20.0343  -20.8169   -9.4444 C   0  0  0  0  0  0  0  0  0  0  0  0
   21.2182  -22.2720  -11.1250 C   0  0  0  0  0  0  0  0  0  0  0  0
   21.8844  -21.2291  -11.9359 C   0  0  2  0  0  0  0  0  0  0  0  0
   23.3306  -21.3924  -11.6588 N   0  0  0  0  0  0  0  0  0  0  0  0
   21.5081  -19.8443  -11.7246 C   0  0  0  0  0  0  0  0  0  0  0  0
   20.3611  -19.3079  -12.2708 O   0  0  0  0  0  0  0  0  0  0  0  0
   22.2280  -19.0819  -11.0309 O   0  0  0  0  0  0  0  0  0  0  0  0
  2  3  1  0
  2  1  1  1
  3  4  1  0
  5  4  1  0
  6  5  1  0
  7  6  1  0
  8  2  1  0
  8  9  2  0
 10  8  1  0
 11 10  1  0
 11 12  1  1
 13 14  2  0
 13 12  1  0
 15 14  1  0
 16 21  2  0
 16 15  1  0
 17 16  1  0
 18 19  1  0
 18 17  2  0
 19 20  2  0
 20 21  1  0
 21 13  1  0
 22 29  1  0
 22 11  1  0
 23 22  2  0
 25 24  1  6
 25 27  1  0
 26 25  1  0
 28 27  1  1
 28 29  1  0
 28 30  1  0
 30 32  2  0
 30 31  1  0
M  END
$$$$
