KWL.pdb
     RDKit          3D

 32 33  0  0  1  0  0  0  0  0999 V2000
   28.3833  -19.4781  -13.5513 N   0  0  0  0  0  0  0  0  0  0  0  0
   27.7911  -20.7728  -13.7510 C   0  0  1  0  0  0  0  0  0  0  0  0
   28.8377  -21.8246  -14.0909 C   0  0  0  0  0  0  0  0  0  0  0  0
   29.4895  -21.5303  -15.4235 C   0  0  0  0  0  0  0  0  0  0  0  0
   28.3747  -21.5642  -16.4745 C   0  0  0  0  0  0  0  0  0  0  0  0
   29.0062  -21.2218  -17.8122 C   0  0  0  0  0  0  0  0  0  0  0  0
   27.9194  -21.1492  -18.7809 N   0  0  0  0  0  0  0  0  0  0  0  0
   26.9822  -21.1930  -12.5814 C   0  0  0  0  0  0  0  0  0  0  0  0
   26.4041  -22.3037  -12.6137 O   0  0  0  0  0  0  0  0  0  0  0  0
   26.8469  -20.3677  -11.4265 N   0  0  0  0  0  0  0  0  0  0  0  0
   25.9944  -20.7502  -10.3337 C   0  0  1  0  0  0  0  0  0  0  0  0
   26.3226  -20.0028   -9.0664 C   0  0  0  0  0  0  0  0  0  0  0  0
   27.5446  -20.5094   -8.4128 C   0  0  0  0  0  0  0  0  0  0  0  0
   28.4969  -21.3711   -8.9171 C   0  0  0  0  0  0  0  0  0  0  0  0
   29.4398  -21.5700   -7.9936 N   0  0  0  0  0  0  0  0  0  0  0  0
   29.1795  -20.8824   -6.8732 C   0  0  0  0  0  0  0  0  0  0  0  0
   29.7935  -20.7207   -5.6381 C   0  0  0  0  0  0  0  0  0  0  0  0
   29.2605  -19.9155   -4.6534 C   0  0  0  0  0  0  0  0  0  0  0  0
   28.0608  -19.2554   -4.9436 C   0  0  0  0  0  0  0  0  0  0  0  0
   27.4406  -19.4049   -6.1609 C   0  0  0  0  0  0  0  0  0  0  0  0
   27.9785  -20.2097   -7.1378 C   0  0  0  0  0  0  0  0  0  0  0  0
   24.5894  -20.3624  -10.7230 C   0  0  0  0  0  0  0  0  0  0  0  0
   24.3410  -19.1548  -11.0044 O   0  0  0  0  0  0  0  0  0  0  0  0
   21.6616  -20.0998  -14.2632 C   0  0  0  0  0  0  0  0  0  0  0  0
   22.3362  -21.4093  -13.9222 C   0  0  2  0  0  0  0  0  0  0  0  0
   22.2544  -22.4492  -15.0007 C   0  0  0  0  0  0  0  0  0  0  0  0
   22.1066  -21.8950  -12.5483 C   0  0  0  0  0  0  0  0  0  0  0  0
   22.2477  -20.9571  -11.4128 C   0  0  2  0  0  0  0  0  0  0  0  0
   23.5414  -21.3090  -10.7824 N   0  0  0  0  0  0  0  0  0  0  0  0
   21.2095  -20.9371  -10.4001 C   0  0  0  0  0  0  0  0  0  0  0  0
   20.0371  -20.2312  -10.5703 O   0  0  0  0  0  0  0  0  0  0  0  0
   21.3517  -21.5682   -9.3222 O   0  0  0  0  0  0  0  0  0  0  0  0
  2  3  1  0
  2  1  1  1
  3  4  1  0
  5  4  1  0
  6  5  1  0
  7  6  1  0
  8  2  1  0
  8  9  2  0
 10  8  1  0
 11 10  1  0
 11 12  1  1
 13 14  2  0
 13 12  1  0
 15 14  1  0
 16 21  2  0
 16 15  1  0
 17 16  1  0
 18 19  1  0
 18 17  2  0
 19 20  2  0
 20 21  1  0
 21 13  1  0
 22 29  1  0
 22 11  1  0
 23 22  2  0
 25 24  1  6
 25 27  1  0
 26 25  1  0
 28 27  1  6
 28 29  1  0
 28 30  1  0
 30 32  2  0
 30 31  1  0
M  END
$$$$
