KWL.pdb
     RDKit          3D

 32 33  0  0  1  0  0  0  0  0999 V2000
   28.2042  -20.5377  -15.4109 N   0  0  0  0  0  0  0  0  0  0  0  0
   27.9671  -19.2289  -14.8655 C   0  0  1  0  0  0  0  0  0  0  0  0
   27.3820  -18.2831  -15.9048 C   0  0  0  0  0  0  0  0  0  0  0  0
   28.0840  -18.4382  -17.2355 C   0  0  0  0  0  0  0  0  0  0  0  0
   27.0980  -17.9662  -18.3095 C   0  0  0  0  0  0  0  0  0  0  0  0
   27.5467  -18.5690  -19.6290 C   0  0  0  0  0  0  0  0  0  0  0  0
   28.8837  -18.0512  -19.8917 N   0  0  0  0  0  0  0  0  0  0  0  0
   27.1061  -19.2843  -13.6594 C   0  0  0  0  0  0  0  0  0  0  0  0
   26.6220  -18.2189  -13.2127 O   0  0  0  0  0  0  0  0  0  0  0  0
   26.8172  -20.5145  -12.9989 N   0  0  0  0  0  0  0  0  0  0  0  0
   25.7964  -20.5960  -11.9896 C   0  0  1  0  0  0  0  0  0  0  0  0
   24.6907  -21.5462  -12.3728 C   0  0  0  0  0  0  0  0  0  0  0  0
   23.7677  -20.9663  -13.3673 C   0  0  0  0  0  0  0  0  0  0  0  0
   23.8467  -21.0104  -14.7440 C   0  0  0  0  0  0  0  0  0  0  0  0
   22.8050  -20.3572  -15.2631 N   0  0  0  0  0  0  0  0  0  0  0  0
   22.0099  -19.8639  -14.3038 C   0  0  0  0  0  0  0  0  0  0  0  0
   20.8328  -19.1280  -14.2660 C   0  0  0  0  0  0  0  0  0  0  0  0
   20.2357  -18.7591  -13.0787 C   0  0  0  0  0  0  0  0  0  0  0  0
   20.8647  -19.1569  -11.8933 C   0  0  0  0  0  0  0  0  0  0  0  0
   22.0299  -19.8855  -11.9135 C   0  0  0  0  0  0  0  0  0  0  0  0
   22.6191  -20.2495  -13.1017 C   0  0  0  0  0  0  0  0  0  0  0  0
   26.4527  -21.1588  -10.7532 C   0  0  0  0  0  0  0  0  0  0  0  0
   27.6552  -21.5445  -10.8174 O   0  0  0  0  0  0  0  0  0  0  0  0
   28.5901  -20.8821   -6.2857 C   0  0  0  0  0  0  0  0  0  0  0  0
   28.1143  -19.6803   -7.0702 C   0  0  2  0  0  0  0  0  0  0  0  0
   27.7096  -18.5081   -6.2256 C   0  0  0  0  0  0  0  0  0  0  0  0
   27.2258  -19.9845   -8.2078 C   0  0  0  0  0  0  0  0  0  0  0  0
   26.5086  -21.2781   -8.2441 C   0  0  2  0  0  0  0  0  0  0  0  0
   25.7630  -21.2682   -9.5243 N   0  0  0  0  0  0  0  0  0  0  0  0
   25.5979  -21.5937   -7.1602 C   0  0  0  0  0  0  0  0  0  0  0  0
   25.9985  -22.3187   -6.0576 O   0  0  0  0  0  0  0  0  0  0  0  0
   24.4002  -21.2132   -7.1964 O   0  0  0  0  0  0  0  0  0  0  0  0
  2  3  1  0
  2  1  1  6
  3  4  1  0
  5  4  1  0
  6  5  1  0
  7  6  1  0
  8  2  1  0
  8  9  2  0
 10  8  1  0
 11 10  1  0
 11 12  1  6
 13 14  2  0
 13 12  1  0
 15 14  1  0
 16 21  2  0
 16 15  1  0
 17 16  1  0
 18 19  1  0
 18 17  2  0
 19 20  2  0
 20 21  1  0
 21 13  1  0
 22 29  1  0
 22 11  1  0
 23 22  2  0
 25 24  1  1
 25 27  1  0
 26 25  1  0
 28 27  1  1
 28 29  1  0
 28 30  1  0
 30 32  2  0
 30 31  1  0
M  END
$$$$
