RDF.pdb
     RDKit          3D

 31 31  0  0  1  0  0  0  0  0999 V2000
   17.9969  -22.9008  -11.0750 N   0  0  0  0  0  0  0  0  0  0  0  0
   17.3761  -21.6504  -10.7876 C   0  0  0  0  0  0  0  0  0  0  0  0
   16.2471  -21.6022  -10.1650 N   0  0  0  0  0  0  0  0  0  0  0  0
   18.0516  -20.4696  -11.2167 N   0  0  0  0  0  0  0  0  0  0  0  0
   18.6040  -20.4484  -12.5467 C   0  0  0  0  0  0  0  0  0  0  0  0
   19.7917  -21.3821  -12.6284 C   0  0  0  0  0  0  0  0  0  0  0  0
   21.0240  -20.7596  -11.9905 C   0  0  0  0  0  0  0  0  0  0  0  0
   22.0870  -20.6991  -13.0602 C   0  0  2  0  0  0  0  0  0  0  0  0
   21.5658  -21.3678  -14.2188 N   0  0  0  0  0  0  0  0  0  0  0  0
   23.4014  -21.2095  -12.6233 C   0  0  0  0  0  0  0  0  0  0  0  0
   23.4804  -22.3658  -12.1351 O   0  0  0  0  0  0  0  0  0  0  0  0
   15.8150  -20.6708  -10.0167 N   0  0  0  0  0  0  0  0  0  0  0  0
   24.6037  -20.4831  -12.7140 C   0  0  1  0  0  0  0  0  0  0  0  0
   25.9079  -21.0680  -12.2823 C   0  0  0  0  0  0  0  0  0  0  0  0
   26.9755  -20.5194  -13.1951 C   0  0  0  0  0  0  0  0  0  0  0  0
   26.9983  -21.2373  -14.4729 O   0  0  0  0  0  0  0  0  0  0  0  0
   26.1988  -22.2111  -14.6965 C   0  0  0  0  0  0  0  0  0  0  0  0
   26.1550  -20.5935  -10.9055 O   0  0  0  0  0  0  0  0  0  0  0  0
   25.7477  -19.4173  -10.6162 O   0  0  0  0  0  0  0  0  0  0  0  0
   27.8758  -20.9169  -15.5142 N   0  0  0  0  0  0  0  0  0  0  0  0
   26.7744  -21.2205   -9.8176 C   0  0  1  0  0  0  0  0  0  0  0  0
   27.3861  -20.5321   -8.7170 C   0  0  0  0  0  0  0  0  0  0  0  0
   26.8752  -20.8493   -7.3638 C   0  0  0  0  0  0  0  0  0  0  0  0
   27.6292  -20.0573   -6.3507 C   0  0  0  0  0  0  0  0  0  0  0  0
   28.6085  -20.6242   -5.5562 C   0  0  0  0  0  0  0  0  0  0  0  0
   29.3112  -19.9129   -4.6046 C   0  0  0  0  0  0  0  0  0  0  0  0
   29.0436  -18.5755   -4.4182 C   0  0  0  0  0  0  0  0  0  0  0  0
   28.0795  -17.9878   -5.1896 C   0  0  0  0  0  0  0  0  0  0  0  0
   27.3774  -18.7131   -6.1453 C   0  0  0  0  0  0  0  0  0  0  0  0
   28.8436  -20.8878   -8.7523 O   0  0  0  0  0  0  0  0  0  0  0  0
   29.7342  -19.8804   -8.3853 O   0  0  0  0  0  0  0  0  0  0  0  0
  2  1  1  0
  3  2  2  0
  4  2  1  0
  5  4  1  0
  6  5  1  0
  7  6  1  0
  8  7  1  0
  8  9  1  6
 10  8  1  0
 10 11  2  0
 12 10  1  0
 13 12  1  0
 13 17  1  0
 13 14  1  1
 15 16  2  0
 15 14  1  0
 17 20  1  0
 18 17  2  0
 19 15  1  0
 20 21  1  0
 21 29  1  0
 22 23  1  0
 21 22  1  1
 23 28  2  0
 24 25  2  0
 24 23  1  0
 25 26  1  0
 26 27  2  0
 28 27  1  0
 29 31  2  0
 29 30  1  0
M  END
$$$$
