RDF.pdb
     RDKit          3D

 31 31  0  0  1  0  0  0  0  0999 V2000
   16.7707  -28.0292  -23.8368 N   0  0  0  0  0  0  0  0  0  0  0  0
   16.9811  -29.1964  -23.0464 C   0  0  0  0  0  0  0  0  0  0  0  0
   17.1258  -30.3519  -23.6018 N   0  0  0  0  0  0  0  0  0  0  0  0
   17.0217  -29.0302  -21.6302 N   0  0  0  0  0  0  0  0  0  0  0  0
   16.7532  -27.7215  -21.0920 C   0  0  0  0  0  0  0  0  0  0  0  0
   16.8726  -27.7479  -19.5839 C   0  0  0  0  0  0  0  0  0  0  0  0
   16.4608  -26.4153  -18.9775 C   0  0  0  0  0  0  0  0  0  0  0  0
   17.5106  -25.4086  -19.3802 C   0  0  2  0  0  0  0  0  0  0  0  0
   18.7723  -26.0932  -19.4038 N   0  0  0  0  0  0  0  0  0  0  0  0
   17.5148  -24.1879  -18.5501 C   0  0  0  0  0  0  0  0  0  0  0  0
   17.7262  -24.2859  -17.3142 O   0  0  0  0  0  0  0  0  0  0  0  0
   17.3366  -31.1614  -22.9883 N   0  0  0  0  0  0  0  0  0  0  0  0
   17.2953  -22.8899  -19.0483 C   0  0  1  0  0  0  0  0  0  0  0  0
   17.3884  -21.6864  -18.1695 C   0  0  0  0  0  0  0  0  0  0  0  0
   17.5697  -20.4851  -19.0628 C   0  0  0  0  0  0  0  0  0  0  0  0
   17.6992  -19.2556  -18.2752 O   0  0  0  0  0  0  0  0  0  0  0  0
   18.2256  -19.2720  -17.1089 C   0  0  0  0  0  0  0  0  0  0  0  0
   16.0978  -21.5738  -17.4598 O   0  0  0  0  0  0  0  0  0  0  0  0
   15.0441  -21.8559  -18.1255 O   0  0  0  0  0  0  0  0  0  0  0  0
   17.2662  -18.0062  -18.7316 N   0  0  0  0  0  0  0  0  0  0  0  0
   15.8063  -21.2033  -16.1414 C   0  0  1  0  0  0  0  0  0  0  0  0
   14.4840  -21.1087  -15.5921 C   0  0  0  0  0  0  0  0  0  0  0  0
   14.0287  -22.2379  -14.7491 C   0  0  0  0  0  0  0  0  0  0  0  0
   12.6085  -22.0194  -14.3523 C   0  0  0  0  0  0  0  0  0  0  0  0
   12.2458  -21.7362  -13.0485 C   0  0  0  0  0  0  0  0  0  0  0  0
   10.9366  -21.5413  -12.6567 C   0  0  0  0  0  0  0  0  0  0  0  0
    9.9266  -21.6276  -13.5878 C   0  0  0  0  0  0  0  0  0  0  0  0
   10.2554  -21.9070  -14.8854 C   0  0  0  0  0  0  0  0  0  0  0  0
   11.5771  -22.1016  -15.2698 C   0  0  0  0  0  0  0  0  0  0  0  0
   14.4637  -19.8682  -14.7478 O   0  0  0  0  0  0  0  0  0  0  0  0
   13.2167  -19.4638  -14.2743 O   0  0  0  0  0  0  0  0  0  0  0  0
  2  1  1  0
  3  2  2  0
  4  2  1  0
  5  4  1  0
  6  5  1  0
  7  6  1  0
  8  7  1  0
  8  9  1  1
 10  8  1  0
 10 11  2  0
 12 10  1  0
 13 12  1  0
 13 17  1  0
 13 14  1  1
 15 16  2  0
 15 14  1  0
 17 20  1  0
 18 17  2  0
 19 15  1  0
 20 21  1  0
 21 29  1  0
 22 23  1  0
 21 22  1  1
 23 28  2  0
 24 25  2  0
 24 23  1  0
 25 26  1  0
 26 27  2  0
 28 27  1  0
 29 31  2  0
 29 30  1  0
M  END
$$$$
