RDF.pdb
     RDKit          3D

 31 31  0  0  1  0  0  0  0  0999 V2000
   18.9863  -18.0076  -15.2289 N   0  0  0  0  0  0  0  0  0  0  0  0
   18.3839  -19.2752  -15.4772 C   0  0  0  0  0  0  0  0  0  0  0  0
   17.1655  -19.3563  -15.8937 N   0  0  0  0  0  0  0  0  0  0  0  0
   19.1802  -20.4358  -15.2448 N   0  0  0  0  0  0  0  0  0  0  0  0
   20.4297  -20.2736  -14.5473 C   0  0  0  0  0  0  0  0  0  0  0  0
   21.5737  -20.2373  -15.5369 C   0  0  0  0  0  0  0  0  0  0  0  0
   22.6961  -21.1719  -15.1126 C   0  0  0  0  0  0  0  0  0  0  0  0
   23.2159  -20.6597  -13.7915 C   0  0  2  0  0  0  0  0  0  0  0  0
   23.2525  -19.2269  -13.8734 N   0  0  0  0  0  0  0  0  0  0  0  0
   24.4998  -21.2624  -13.3825 C   0  0  0  0  0  0  0  0  0  0  0  0
   24.6184  -22.5144  -13.3818 O   0  0  0  0  0  0  0  0  0  0  0  0
   16.7577  -20.3022  -16.0175 N   0  0  0  0  0  0  0  0  0  0  0  0
   25.6303  -20.5246  -12.9837 C   0  0  1  0  0  0  0  0  0  0  0  0
   26.8357  -21.1886  -12.4046 C   0  0  0  0  0  0  0  0  0  0  0  0
   28.0506  -20.5083  -12.9836 C   0  0  0  0  0  0  0  0  0  0  0  0
   27.6818  -19.2747  -13.6843 O   0  0  0  0  0  0  0  0  0  0  0  0
   26.4591  -18.9084  -13.7754 C   0  0  0  0  0  0  0  0  0  0  0  0
   26.7954  -20.9529  -10.9469 O   0  0  0  0  0  0  0  0  0  0  0  0
   26.3101  -19.8381  -10.5535 O   0  0  0  0  0  0  0  0  0  0  0  0
   28.6184  -18.4301  -14.2896 N   0  0  0  0  0  0  0  0  0  0  0  0
   27.2043  -21.7580   -9.8769 C   0  0  2  0  0  0  0  0  0  0  0  0
   27.3227  -21.3131   -8.5177 C   0  0  0  0  0  0  0  0  0  0  0  0
   28.2763  -20.2106   -8.2565 C   0  0  0  0  0  0  0  0  0  0  0  0
   28.2590  -19.8734   -6.8045 C   0  0  0  0  0  0  0  0  0  0  0  0
   28.1323  -18.5722   -6.3546 C   0  0  0  0  0  0  0  0  0  0  0  0
   28.1250  -18.2359   -5.0158 C   0  0  0  0  0  0  0  0  0  0  0  0
   28.2480  -19.2232   -4.0645 C   0  0  0  0  0  0  0  0  0  0  0  0
   28.3753  -20.5197   -4.4803 C   0  0  0  0  0  0  0  0  0  0  0  0
   28.3815  -20.8479   -5.8310 C   0  0  0  0  0  0  0  0  0  0  0  0
   25.9576  -20.8468   -8.1041 O   0  0  0  0  0  0  0  0  0  0  0  0
   25.2565  -20.0845   -9.0369 O   0  0  0  0  0  0  0  0  0  0  0  0
  2  1  1  0
  3  2  2  0
  4  2  1  0
  5  4  1  0
  6  5  1  0
  7  6  1  0
  8  7  1  0
  8  9  1  6
 10  8  1  0
 10 11  2  0
 12 10  1  0
 13 12  1  0
 13 17  1  0
 13 14  1  6
 15 16  2  0
 15 14  1  0
 17 20  1  0
 18 17  2  0
 19 15  1  0
 20 21  1  0
 21 29  1  0
 22 23  1  0
 21 22  1  6
 23 28  2  0
 24 25  2  0
 24 23  1  0
 25 26  1  0
 26 27  2  0
 28 27  1  0
 29 31  2  0
 29 30  1  0
M  END
$$$$
