RDF.pdb
     RDKit          3D

 31 31  0  0  1  0  0  0  0  0999 V2000
   30.1729  -15.7686  -17.7375 N   0  0  0  0  0  0  0  0  0  0  0  0
   30.9429  -16.9100  -18.1056 C   0  0  0  0  0  0  0  0  0  0  0  0
   31.8492  -16.8273  -19.0202 N   0  0  0  0  0  0  0  0  0  0  0  0
   30.6671  -18.1334  -17.4259 N   0  0  0  0  0  0  0  0  0  0  0  0
   29.8772  -18.0788  -16.2228 C   0  0  0  0  0  0  0  0  0  0  0  0
   28.4045  -18.1026  -16.5694 C   0  0  0  0  0  0  0  0  0  0  0  0
   27.5460  -17.8965  -15.3310 C   0  0  0  0  0  0  0  0  0  0  0  0
   27.7497  -19.1060  -14.4515 C   0  0  2  0  0  0  0  0  0  0  0  0
   27.4609  -20.2659  -15.2466 N   0  0  0  0  0  0  0  0  0  0  0  0
   26.9953  -19.0544  -13.1837 C   0  0  0  0  0  0  0  0  0  0  0  0
   27.1067  -18.0442  -12.4429 O   0  0  0  0  0  0  0  0  0  0  0  0
   32.3723  -17.6895  -19.2633 N   0  0  0  0  0  0  0  0  0  0  0  0
   26.1387  -20.0746  -12.7290 C   0  0  1  0  0  0  0  0  0  0  0  0
   25.3208  -19.9177  -11.4898 C   0  0  0  0  0  0  0  0  0  0  0  0
   23.9582  -20.5007  -11.7685 C   0  0  0  0  0  0  0  0  0  0  0  0
   23.0986  -20.4249  -10.5836 O   0  0  0  0  0  0  0  0  0  0  0  0
   23.4906  -19.8282   -9.5216 C   0  0  0  0  0  0  0  0  0  0  0  0
   25.9833  -20.7130  -10.4361 O   0  0  0  0  0  0  0  0  0  0  0  0
   26.5602  -21.7930  -10.8019 O   0  0  0  0  0  0  0  0  0  0  0  0
   21.8186  -20.9868  -10.5306 N   0  0  0  0  0  0  0  0  0  0  0  0
   26.1020  -20.4912   -9.0587 C   0  0  2  0  0  0  0  0  0  0  0  0
   26.7928  -21.3582   -8.1475 C   0  0  0  0  0  0  0  0  0  0  0  0
   28.1898  -20.9986   -7.8127 C   0  0  0  0  0  0  0  0  0  0  0  0
   28.2168  -20.2744   -6.5100 C   0  0  0  0  0  0  0  0  0  0  0  0
   27.9641  -18.9181   -6.4188 C   0  0  0  0  0  0  0  0  0  0  0  0
   27.9947  -18.2252   -5.2253 C   0  0  0  0  0  0  0  0  0  0  0  0
   28.2878  -18.8923   -4.0574 C   0  0  0  0  0  0  0  0  0  0  0  0
   28.5426  -20.2345   -4.1172 C   0  0  0  0  0  0  0  0  0  0  0  0
   28.5093  -20.9230   -5.3243 C   0  0  0  0  0  0  0  0  0  0  0  0
   25.9995  -21.3526   -6.8736 O   0  0  0  0  0  0  0  0  0  0  0  0
   26.3834  -22.2762   -5.9030 O   0  0  0  0  0  0  0  0  0  0  0  0
  2  1  1  0
  3  2  2  0
  4  2  1  0
  5  4  1  0
  6  5  1  0
  7  6  1  0
  8  7  1  0
  8  9  1  6
 10  8  1  0
 10 11  2  0
 12 10  1  0
 13 12  1  0
 13 17  1  0
 13 14  1  1
 15 16  2  0
 15 14  1  0
 17 20  1  0
 18 17  2  0
 19 15  1  0
 20 21  1  0
 21 29  1  0
 22 23  1  0
 21 22  1  1
 23 28  2  0
 24 25  2  0
 24 23  1  0
 25 26  1  0
 26 27  2  0
 28 27  1  0
 29 31  2  0
 29 30  1  0
M  END
$$$$
