RDF.pdb
     RDKit          3D

 31 31  0  0  1  0  0  0  0  0999 V2000
   30.4202  -23.3087  -17.5038 N   0  0  0  0  0  0  0  0  0  0  0  0
   29.0699  -23.7620  -17.5540 C   0  0  0  0  0  0  0  0  0  0  0  0
   28.7618  -24.9591  -17.1843 N   0  0  0  0  0  0  0  0  0  0  0  0
   28.0874  -22.8428  -18.0280 N   0  0  0  0  0  0  0  0  0  0  0  0
   28.5054  -21.4982  -18.3307 C   0  0  0  0  0  0  0  0  0  0  0  0
   28.4944  -20.6575  -17.0727 C   0  0  0  0  0  0  0  0  0  0  0  0
   27.3111  -19.7021  -17.0616 C   0  0  0  0  0  0  0  0  0  0  0  0
   26.2699  -20.3061  -16.1512 C   0  0  2  0  0  0  0  0  0  0  0  0
   25.9873  -21.6255  -16.6416 N   0  0  0  0  0  0  0  0  0  0  0  0
   25.0672  -19.4669  -15.9826 C   0  0  0  0  0  0  0  0  0  0  0  0
   25.1900  -18.3018  -15.5252 O   0  0  0  0  0  0  0  0  0  0  0  0
   27.7597  -25.2271  -17.1963 N   0  0  0  0  0  0  0  0  0  0  0  0
   23.7606  -19.8809  -16.3029 C   0  0  2  0  0  0  0  0  0  0  0  0
   22.5860  -18.9759  -16.1279 C   0  0  0  0  0  0  0  0  0  0  0  0
   21.6118  -19.2768  -17.2389 C   0  0  0  0  0  0  0  0  0  0  0  0
   20.3889  -18.4806  -17.0993 O   0  0  0  0  0  0  0  0  0  0  0  0
   20.4399  -17.2473  -16.7621 C   0  0  0  0  0  0  0  0  0  0  0  0
   21.9676  -19.3230  -14.8321 O   0  0  0  0  0  0  0  0  0  0  0  0
   21.9238  -20.5626  -14.5246 O   0  0  0  0  0  0  0  0  0  0  0  0
   19.1089  -19.0005  -17.3193 N   0  0  0  0  0  0  0  0  0  0  0  0
   21.4017  -18.5125  -13.8405 C   0  0  2  0  0  0  0  0  0  0  0  0
   20.8368  -18.9961  -12.6132 C   0  0  0  0  0  0  0  0  0  0  0  0
   20.5160  -17.9839  -11.5811 C   0  0  0  0  0  0  0  0  0  0  0  0
   19.9045  -18.6567  -10.3997 C   0  0  0  0  0  0  0  0  0  0  0  0
   18.5349  -18.7365  -10.2278 C   0  0  0  0  0  0  0  0  0  0  0  0
   17.9472  -19.3446   -9.1368 C   0  0  0  0  0  0  0  0  0  0  0  0
   18.7393  -19.9054   -8.1606 C   0  0  0  0  0  0  0  0  0  0  0  0
   20.0977  -19.8412   -8.3037 C   0  0  0  0  0  0  0  0  0  0  0  0
   20.6796  -19.2264   -9.4063 C   0  0  0  0  0  0  0  0  0  0  0  0
   19.5617  -19.6968  -12.9810 O   0  0  0  0  0  0  0  0  0  0  0  0
   18.7315  -19.0347  -13.8837 O   0  0  0  0  0  0  0  0  0  0  0  0
  2  1  1  0
  3  2  2  0
  4  2  1  0
  5  4  1  0
  6  5  1  0
  7  6  1  0
  8  7  1  0
  8  9  1  6
 10  8  1  0
 10 11  2  0
 12 10  1  0
 13 12  1  0
 13 17  1  0
 13 14  1  6
 15 16  2  0
 15 14  1  0
 17 20  1  0
 18 17  2  0
 19 15  1  0
 20 21  1  0
 21 29  1  0
 22 23  1  0
 21 22  1  1
 23 28  2  0
 24 25  2  0
 24 23  1  0
 25 26  1  0
 26 27  2  0
 28 27  1  0
 29 31  2  0
 29 30  1  0
M  END
$$$$
