RDF.pdb
     RDKit          3D

 31 31  0  0  1  0  0  0  0  0999 V2000
   25.5787  -25.1938  -15.1718 N   0  0  0  0  0  0  0  0  0  0  0  0
   24.2941  -24.7940  -14.7013 C   0  0  0  0  0  0  0  0  0  0  0  0
   23.5349  -25.6246  -14.0702 N   0  0  0  0  0  0  0  0  0  0  0  0
   23.8910  -23.4501  -14.9591 N   0  0  0  0  0  0  0  0  0  0  0  0
   24.7653  -22.6176  -15.7444 C   0  0  0  0  0  0  0  0  0  0  0  0
   25.5219  -21.6668  -14.8428 C   0  0  0  0  0  0  0  0  0  0  0  0
   24.7335  -20.3872  -14.6099 C   0  0  0  0  0  0  0  0  0  0  0  0
   24.5240  -19.7503  -15.9620 C   0  0  2  0  0  0  0  0  0  0  0  0
   25.7062  -18.9946  -16.2661 N   0  0  0  0  0  0  0  0  0  0  0  0
   23.2775  -18.9663  -16.0645 C   0  0  0  0  0  0  0  0  0  0  0  0
   23.2107  -17.8421  -15.5047 O   0  0  0  0  0  0  0  0  0  0  0  0
   22.6136  -25.2826  -13.7379 N   0  0  0  0  0  0  0  0  0  0  0  0
   22.1289  -19.3910  -16.7586 C   0  0  2  0  0  0  0  0  0  0  0  0
   20.8865  -18.5639  -16.7991 C   0  0  0  0  0  0  0  0  0  0  0  0
   20.3773  -18.5791  -18.2185 C   0  0  0  0  0  0  0  0  0  0  0  0
   21.0792  -17.5904  -19.0422 O   0  0  0  0  0  0  0  0  0  0  0  0
   21.9417  -16.7969  -18.5284 C   0  0  0  0  0  0  0  0  0  0  0  0
   19.9010  -19.2287  -15.9223 O   0  0  0  0  0  0  0  0  0  0  0  0
   20.1051  -20.4607  -15.6510 O   0  0  0  0  0  0  0  0  0  0  0  0
   20.8608  -17.4470  -20.4165 N   0  0  0  0  0  0  0  0  0  0  0  0
   18.7423  -18.7377  -15.3087 C   0  0  1  0  0  0  0  0  0  0  0  0
   17.9711  -19.4494  -14.3299 C   0  0  0  0  0  0  0  0  0  0  0  0
   18.7016  -20.4152  -13.4775 C   0  0  0  0  0  0  0  0  0  0  0  0
   19.6645  -19.6804  -12.6085 C   0  0  0  0  0  0  0  0  0  0  0  0
   21.0157  -19.9732  -12.5989 C   0  0  0  0  0  0  0  0  0  0  0  0
   21.9233  -19.3136  -11.7947 C   0  0  0  0  0  0  0  0  0  0  0  0
   21.4885  -18.3139  -10.9543 C   0  0  0  0  0  0  0  0  0  0  0  0
   20.1570  -18.0028  -10.9421 C   0  0  0  0  0  0  0  0  0  0  0  0
   19.2510  -18.6732  -11.7560 C   0  0  0  0  0  0  0  0  0  0  0  0
   17.3649  -18.4113  -13.4316 O   0  0  0  0  0  0  0  0  0  0  0  0
   16.5246  -18.8814  -12.4238 O   0  0  0  0  0  0  0  0  0  0  0  0
  2  1  1  0
  3  2  2  0
  4  2  1  0
  5  4  1  0
  6  5  1  0
  7  6  1  0
  8  7  1  0
  8  9  1  1
 10  8  1  0
 10 11  2  0
 12 10  1  0
 13 12  1  0
 13 17  1  0
 13 14  1  1
 15 16  2  0
 15 14  1  0
 17 20  1  0
 18 17  2  0
 19 15  1  0
 20 21  1  0
 21 29  1  0
 22 23  1  0
 21 22  1  6
 23 28  2  0
 24 25  2  0
 24 23  1  0
 25 26  1  0
 26 27  2  0
 28 27  1  0
 29 31  2  0
 29 30  1  0
M  END
$$$$
