RDF.pdb
     RDKit          3D

 31 31  0  0  1  0  0  0  0  0999 V2000
   20.6813  -21.9971  -12.7288 N   0  0  0  0  0  0  0  0  0  0  0  0
   20.7149  -20.7392  -12.0596 C   0  0  0  0  0  0  0  0  0  0  0  0
   19.7640  -20.3920  -11.2596 N   0  0  0  0  0  0  0  0  0  0  0  0
   21.8337  -19.8915  -12.3137 N   0  0  0  0  0  0  0  0  0  0  0  0
   22.9996  -20.4718  -12.9287 C   0  0  0  0  0  0  0  0  0  0  0  0
   24.0580  -20.7394  -11.8811 C   0  0  0  0  0  0  0  0  0  0  0  0
   25.3650  -21.1804  -12.5217 C   0  0  0  0  0  0  0  0  0  0  0  0
   25.0537  -22.3984  -13.3568 C   0  0  2  0  0  0  0  0  0  0  0  0
   25.5274  -23.5446  -12.6338 N   0  0  0  0  0  0  0  0  0  0  0  0
   25.5634  -22.3185  -14.7398 C   0  0  0  0  0  0  0  0  0  0  0  0
   26.8008  -22.4101  -14.9450 O   0  0  0  0  0  0  0  0  0  0  0  0
   19.8671  -19.4979  -10.7438 N   0  0  0  0  0  0  0  0  0  0  0  0
   24.7502  -22.1438  -15.8754 C   0  0  2  0  0  0  0  0  0  0  0  0
   25.3268  -22.0847  -17.2514 C   0  0  0  0  0  0  0  0  0  0  0  0
   24.1991  -22.3126  -18.2262 C   0  0  0  0  0  0  0  0  0  0  0  0
   24.6987  -22.3977  -19.6017 O   0  0  0  0  0  0  0  0  0  0  0  0
   25.9390  -22.2250  -19.8646 C   0  0  0  0  0  0  0  0  0  0  0  0
   25.8585  -20.7187  -17.4343 O   0  0  0  0  0  0  0  0  0  0  0  0
   25.0762  -19.7495  -17.1483 O   0  0  0  0  0  0  0  0  0  0  0  0
   23.8740  -22.6668  -20.6992 N   0  0  0  0  0  0  0  0  0  0  0  0
   27.1100  -20.2743  -17.8777 C   0  0  1  0  0  0  0  0  0  0  0  0
   27.4902  -18.8964  -18.0049 C   0  0  0  0  0  0  0  0  0  0  0  0
   28.5208  -18.3984  -17.0653 C   0  0  0  0  0  0  0  0  0  0  0  0
   27.9610  -18.3717  -15.6839 C   0  0  0  0  0  0  0  0  0  0  0  0
   28.1345  -19.4216  -14.8011 C   0  0  0  0  0  0  0  0  0  0  0  0
   27.6159  -19.4231  -13.5219 C   0  0  0  0  0  0  0  0  0  0  0  0
   26.8884  -18.3412  -13.0802 C   0  0  0  0  0  0  0  0  0  0  0  0
   26.7001  -17.2881  -13.9319 C   0  0  0  0  0  0  0  0  0  0  0  0
   27.2266  -17.2964  -15.2184 C   0  0  0  0  0  0  0  0  0  0  0  0
   28.0213  -18.7305  -19.3987 O   0  0  0  0  0  0  0  0  0  0  0  0
   28.3967  -17.4398  -19.7669 O   0  0  0  0  0  0  0  0  0  0  0  0
  2  1  1  0
  3  2  2  0
  4  2  1  0
  5  4  1  0
  6  5  1  0
  7  6  1  0
  8  7  1  0
  8  9  1  1
 10  8  1  0
 10 11  2  0
 12 10  1  0
 13 12  1  0
 13 17  1  0
 13 14  1  6
 15 16  2  0
 15 14  1  0
 17 20  1  0
 18 17  2  0
 19 15  1  0
 20 21  1  0
 21 29  1  0
 22 23  1  0
 21 22  1  6
 23 28  2  0
 24 25  2  0
 24 23  1  0
 25 26  1  0
 26 27  2  0
 28 27  1  0
 29 31  2  0
 29 30  1  0
M  END
$$$$
