RDF.pdb
     RDKit          3D

 31 31  0  0  1  0  0  0  0  0999 V2000
   18.2525  -24.6203   -6.5673 N   0  0  0  0  0  0  0  0  0  0  0  0
   17.2662  -24.6901   -7.5938 C   0  0  0  0  0  0  0  0  0  0  0  0
   16.0148  -24.7997   -7.2998 N   0  0  0  0  0  0  0  0  0  0  0  0
   17.7215  -24.6359   -8.9446 N   0  0  0  0  0  0  0  0  0  0  0  0
   19.1136  -24.3525   -9.1813 C   0  0  0  0  0  0  0  0  0  0  0  0
   19.2620  -22.9930   -9.8286 C   0  0  0  0  0  0  0  0  0  0  0  0
   20.7173  -22.6979  -10.1576 C   0  0  0  0  0  0  0  0  0  0  0  0
   20.7316  -21.4343  -10.9828 C   0  0  2  0  0  0  0  0  0  0  0  0
   19.3755  -20.9735  -11.0820 N   0  0  0  0  0  0  0  0  0  0  0  0
   21.4033  -21.5834  -12.2888 C   0  0  0  0  0  0  0  0  0  0  0  0
   22.3417  -22.4125  -12.4062 O   0  0  0  0  0  0  0  0  0  0  0  0
   15.3458  -24.9520   -8.0779 N   0  0  0  0  0  0  0  0  0  0  0  0
   21.0652  -20.8508  -13.4422 C   0  0  1  0  0  0  0  0  0  0  0  0
   21.7975  -21.0341  -14.7304 C   0  0  0  0  0  0  0  0  0  0  0  0
   20.8473  -20.6806  -15.8468 C   0  0  0  0  0  0  0  0  0  0  0  0
   21.4773  -20.8701  -17.1567 O   0  0  0  0  0  0  0  0  0  0  0  0
   22.2392  -21.8729  -17.3832 C   0  0  0  0  0  0  0  0  0  0  0  0
   22.9197  -20.0737  -14.7252 O   0  0  0  0  0  0  0  0  0  0  0  0
   23.0228  -19.2977  -15.7353 O   0  0  0  0  0  0  0  0  0  0  0  0
   21.2951  -19.9882  -18.2273 N   0  0  0  0  0  0  0  0  0  0  0  0
   23.9275  -19.8471  -13.7800 C   0  0  2  0  0  0  0  0  0  0  0  0
   25.3290  -20.0469  -14.0154 C   0  0  0  0  0  0  0  0  0  0  0  0
   25.9658  -21.1912  -13.3242 C   0  0  0  0  0  0  0  0  0  0  0  0
   25.7060  -21.0928  -11.8596 C   0  0  0  0  0  0  0  0  0  0  0  0
   25.6331  -19.8760  -11.2071 C   0  0  0  0  0  0  0  0  0  0  0  0
   25.4047  -19.7617   -9.8506 C   0  0  0  0  0  0  0  0  0  0  0  0
   25.2384  -20.8965   -9.0895 C   0  0  0  0  0  0  0  0  0  0  0  0
   25.3059  -22.1143   -9.7078 C   0  0  0  0  0  0  0  0  0  0  0  0
   25.5365  -22.2187  -11.0747 C   0  0  0  0  0  0  0  0  0  0  0  0
   25.4843  -20.2590  -15.4929 O   0  0  0  0  0  0  0  0  0  0  0  0
   26.7892  -20.2622  -15.9825 O   0  0  0  0  0  0  0  0  0  0  0  0
  2  1  1  0
  3  2  2  0
  4  2  1  0
  5  4  1  0
  6  5  1  0
  7  6  1  0
  8  7  1  0
  8  9  1  6
 10  8  1  0
 10 11  2  0
 12 10  1  0
 13 12  1  0
 13 17  1  0
 13 14  1  1
 15 16  2  0
 15 14  1  0
 17 20  1  0
 18 17  2  0
 19 15  1  0
 20 21  1  0
 21 29  1  0
 22 23  1  0
 21 22  1  1
 23 28  2  0
 24 25  2  0
 24 23  1  0
 25 26  1  0
 26 27  2  0
 28 27  1  0
 29 31  2  0
 29 30  1  0
M  END
$$$$
