NGS.pdb
     RDKit          3D

 19 18  0  0  1  0  0  0  0  0999 V2000
   11.9987  -17.1757   20.5144 N   0  0  0  0  0  0  0  0  0  0  0  0
   13.2170  -17.9486   20.4926 C   0  0  0  0  0  0  0  0  0  0  0  0
   14.0013  -17.7408   19.5468 O   0  0  0  0  0  0  0  0  0  0  0  0
   13.4470  -18.9126   21.5695 C   0  0  0  0  0  0  0  0  0  0  0  0
   12.3826  -18.9195   22.6274 C   0  0  2  0  0  0  0  0  0  0  0  0
   11.0723  -19.2334   22.1377 N   0  0  0  0  0  0  0  0  0  0  0  0
   12.4082  -17.6479   23.3978 C   0  0  0  0  0  0  0  0  0  0  0  0
   13.5239  -17.1656   23.7699 O   0  0  0  0  0  0  0  0  0  0  0  0
   11.1783  -17.0147   23.6918 N   0  0  0  0  0  0  0  0  0  0  0  0
   11.1154  -15.7706   24.3881 C   0  0  0  0  0  0  0  0  0  0  0  0
   11.3165  -15.9383   25.8676 C   0  0  0  0  0  0  0  0  0  0  0  0
   12.1733  -16.7490   26.2970 O   0  0  0  0  0  0  0  0  0  0  0  0
    9.9036  -13.0218   28.0911 O   0  0  0  0  0  0  0  0  0  0  0  0
    9.9379  -14.1478   28.9307 C   0  0  0  0  0  0  0  0  0  0  0  0
   10.7280  -15.2298   28.2158 C   0  0  2  0  0  0  0  0  0  0  0  0
   10.5537  -15.1950   26.8016 N   0  0  0  0  0  0  0  0  0  0  0  0
   10.4415  -16.5598   28.8099 C   0  0  0  0  0  0  0  0  0  0  0  0
    9.8837  -17.4543   28.0871 O   0  0  0  0  0  0  0  0  0  0  0  0
   10.7459  -16.8872   30.1087 O   0  0  0  0  0  0  0  0  0  0  0  0
  1  2  1  0
  2  3  2  0
  4  2  1  0
  4  5  1  0
  5  6  1  6
  7  8  2  0
  7  5  1  0
  9  7  1  0
 10 11  1  0
 10  9  1  0
 11 16  1  0
 12 11  2  0
 13 14  1  0
 15 14  1  1
 15 17  1  0
 16 15  1  0
 17 18  2  0
 17 19  1  0
M  END
$$$$
