NGS.pdb
     RDKit          3D

 19 18  0  0  1  0  0  0  0  0999 V2000
    8.6287  -18.4948   15.8252 N   0  0  0  0  0  0  0  0  0  0  0  0
    8.1775  -17.8275   17.0224 C   0  0  0  0  0  0  0  0  0  0  0  0
    6.9478  -17.7938   17.2212 O   0  0  0  0  0  0  0  0  0  0  0  0
    9.1818  -17.2426   17.9118 C   0  0  0  0  0  0  0  0  0  0  0  0
    9.1118  -17.7347   19.3277 C   0  0  2  0  0  0  0  0  0  0  0  0
    7.8106  -17.6300   19.9204 N   0  0  0  0  0  0  0  0  0  0  0  0
   10.1634  -17.0864   20.1553 C   0  0  0  0  0  0  0  0  0  0  0  0
   11.3818  -17.1860   19.8070 O   0  0  0  0  0  0  0  0  0  0  0  0
    9.7663  -16.3753   21.3115 N   0  0  0  0  0  0  0  0  0  0  0  0
   10.6953  -15.6297   22.0973 C   0  0  0  0  0  0  0  0  0  0  0  0
   11.7020  -16.5147   22.7762 C   0  0  0  0  0  0  0  0  0  0  0  0
   11.3588  -17.6448   23.2016 O   0  0  0  0  0  0  0  0  0  0  0  0
   15.4528  -14.9686   23.6951 O   0  0  0  0  0  0  0  0  0  0  0  0
   15.4600  -16.3202   23.3110 C   0  0  0  0  0  0  0  0  0  0  0  0
   14.0703  -16.8770   23.5650 C   0  0  2  0  0  0  0  0  0  0  0  0
   13.0453  -16.1003   22.9503 N   0  0  0  0  0  0  0  0  0  0  0  0
   13.8540  -17.0893   25.0183 C   0  0  0  0  0  0  0  0  0  0  0  0
   12.8941  -16.4762   25.5982 O   0  0  0  0  0  0  0  0  0  0  0  0
   14.6372  -17.9179   25.7844 O   0  0  0  0  0  0  0  0  0  0  0  0
  1  2  1  0
  2  3  2  0
  4  2  1  0
  4  5  1  0
  5  6  1  1
  7  8  2  0
  7  5  1  0
  9  7  1  0
 10 11  1  0
 10  9  1  0
 11 16  1  0
 12 11  2  0
 13 14  1  0
 15 14  1  1
 15 17  1  0
 16 15  1  0
 17 18  2  0
 17 19  1  0
M  END
$$$$
