NGS.pdb
     RDKit          3D

 19 18  0  0  1  0  0  0  0  0999 V2000
    6.9496  -12.2378   19.4791 N   0  0  0  0  0  0  0  0  0  0  0  0
    7.1530  -13.5462   18.9055 C   0  0  0  0  0  0  0  0  0  0  0  0
    6.1758  -14.0733   18.3398 O   0  0  0  0  0  0  0  0  0  0  0  0
    8.4767  -14.1587   19.0252 C   0  0  0  0  0  0  0  0  0  0  0  0
    8.4792  -15.4883   19.7210 C   0  0  2  0  0  0  0  0  0  0  0  0
    7.8303  -15.4815   20.9993 N   0  0  0  0  0  0  0  0  0  0  0  0
    9.8604  -16.0348   19.7914 C   0  0  0  0  0  0  0  0  0  0  0  0
   10.5229  -16.1978   18.7189 O   0  0  0  0  0  0  0  0  0  0  0  0
   10.3924  -16.3568   21.0616 N   0  0  0  0  0  0  0  0  0  0  0  0
   11.7135  -16.8728   21.2197 C   0  0  0  0  0  0  0  0  0  0  0  0
   12.0957  -17.0190   22.6654 C   0  0  0  0  0  0  0  0  0  0  0  0
   13.1962  -16.5728   23.0723 O   0  0  0  0  0  0  0  0  0  0  0  0
   10.6760  -16.9825   27.1271 O   0  0  0  0  0  0  0  0  0  0  0  0
   10.3563  -16.9224   25.7603 C   0  0  0  0  0  0  0  0  0  0  0  0
   11.4278  -17.6878   25.0040 C   0  0  2  0  0  0  0  0  0  0  0  0
   11.2342  -17.6558   23.5922 N   0  0  0  0  0  0  0  0  0  0  0  0
   11.5638  -19.0630   25.5467 C   0  0  0  0  0  0  0  0  0  0  0  0
   11.9615  -19.2173   26.7516 O   0  0  0  0  0  0  0  0  0  0  0  0
   11.2828  -20.1928   24.8177 O   0  0  0  0  0  0  0  0  0  0  0  0
  1  2  1  0
  2  3  2  0
  4  2  1  0
  4  5  1  0
  5  6  1  1
  7  8  2  0
  7  5  1  0
  9  7  1  0
 10 11  1  0
 10  9  1  0
 11 16  1  0
 12 11  2  0
 13 14  1  0
 15 14  1  1
 15 17  1  0
 16 15  1  0
 17 18  2  0
 17 19  1  0
M  END
$$$$
