NGS.pdb
     RDKit          3D

 19 18  0  0  1  0  0  0  0  0999 V2000
    7.9196  -13.2548   15.7242 N   0  0  0  0  0  0  0  0  0  0  0  0
    7.8678  -13.9463   16.9897 C   0  0  0  0  0  0  0  0  0  0  0  0
    8.1753  -15.1539   16.9868 O   0  0  0  0  0  0  0  0  0  0  0  0
    7.4627  -13.1924   18.1769 C   0  0  0  0  0  0  0  0  0  0  0  0
    8.4945  -13.1580   19.2661 C   0  0  2  0  0  0  0  0  0  0  0  0
    9.8122  -12.8199   18.8139 N   0  0  0  0  0  0  0  0  0  0  0  0
    8.4717  -14.4257   20.0430 C   0  0  0  0  0  0  0  0  0  0  0  0
    7.3976  -14.7853   20.6199 O   0  0  0  0  0  0  0  0  0  0  0  0
    9.6575  -15.1932   20.1128 N   0  0  0  0  0  0  0  0  0  0  0  0
    9.7287  -16.4095   20.8559 C   0  0  0  0  0  0  0  0  0  0  0  0
   10.5840  -16.2743   22.0838 C   0  0  0  0  0  0  0  0  0  0  0  0
   11.8177  -16.0723   21.9705 O   0  0  0  0  0  0  0  0  0  0  0  0
   10.7231  -16.2938   26.9460 O   0  0  0  0  0  0  0  0  0  0  0  0
    9.8911  -16.4707   25.8277 C   0  0  0  0  0  0  0  0  0  0  0  0
   10.7738  -16.4590   24.5922 C   0  0  2  0  0  0  0  0  0  0  0  0
   10.0258  -16.3704   23.3821 N   0  0  0  0  0  0  0  0  0  0  0  0
   11.7162  -17.6058   24.6169 C   0  0  0  0  0  0  0  0  0  0  0  0
   12.8618  -17.4550   25.1633 O   0  0  0  0  0  0  0  0  0  0  0  0
   11.4227  -18.8351   24.0790 O   0  0  0  0  0  0  0  0  0  0  0  0
  1  2  1  0
  2  3  2  0
  4  2  1  0
  4  5  1  0
  5  6  1  6
  7  8  2  0
  7  5  1  0
  9  7  1  0
 10 11  1  0
 10  9  1  0
 11 16  1  0
 12 11  2  0
 13 14  1  0
 15 14  1  1
 15 17  1  0
 16 15  1  0
 17 18  2  0
 17 19  1  0
M  END
$$$$
