NGS.pdb
     RDKit          3D

 19 18  0  0  1  0  0  0  0  0999 V2000
    7.0084  -12.2446   19.2532 N   0  0  0  0  0  0  0  0  0  0  0  0
    7.5381  -13.5217   18.8401 C   0  0  0  0  0  0  0  0  0  0  0  0
    7.2818  -14.5014   19.5662 O   0  0  0  0  0  0  0  0  0  0  0  0
    8.3310  -13.5799   17.6114 C   0  0  0  0  0  0  0  0  0  0  0  0
    8.7201  -14.9681   17.1949 C   0  0  2  0  0  0  0  0  0  0  0  0
    7.6201  -15.8833   17.1081 N   0  0  0  0  0  0  0  0  0  0  0  0
    9.8155  -15.4817   18.0595 C   0  0  0  0  0  0  0  0  0  0  0  0
   10.9279  -14.8673   18.0890 O   0  0  0  0  0  0  0  0  0  0  0  0
    9.5780  -16.6467   18.8252 N   0  0  0  0  0  0  0  0  0  0  0  0
   10.5871  -17.2289   19.6494 C   0  0  0  0  0  0  0  0  0  0  0  0
   10.8927  -16.3839   20.8537 C   0  0  0  0  0  0  0  0  0  0  0  0
   11.9101  -15.6488   20.8631 O   0  0  0  0  0  0  0  0  0  0  0  0
    7.9922  -15.8175   23.7731 O   0  0  0  0  0  0  0  0  0  0  0  0
    9.0362  -14.8872   23.6365 C   0  0  0  0  0  0  0  0  0  0  0  0
   10.2713  -15.6461   23.1843 C   0  0  2  0  0  0  0  0  0  0  0  0
   10.0506  -16.3965   21.9927 N   0  0  0  0  0  0  0  0  0  0  0  0
   10.8162  -16.4614   24.2988 C   0  0  0  0  0  0  0  0  0  0  0  0
   10.8508  -17.7334   24.1770 O   0  0  0  0  0  0  0  0  0  0  0  0
   11.2913  -15.9192   25.4680 O   0  0  0  0  0  0  0  0  0  0  0  0
  1  2  1  0
  2  3  2  0
  4  2  1  0
  4  5  1  0
  5  6  1  1
  7  8  2  0
  7  5  1  0
  9  7  1  0
 10 11  1  0
 10  9  1  0
 11 16  1  0
 12 11  2  0
 13 14  1  0
 15 14  1  1
 15 17  1  0
 16 15  1  0
 17 18  2  0
 17 19  1  0
M  END
$$$$
