NGS.pdb
     RDKit          3D

 19 18  0  0  1  0  0  0  0  0999 V2000
    8.4562  -18.7025   14.9199 N   0  0  0  0  0  0  0  0  0  0  0  0
    7.8439  -17.3983   14.8383 C   0  0  0  0  0  0  0  0  0  0  0  0
    6.7515  -17.3231   14.2435 O   0  0  0  0  0  0  0  0  0  0  0  0
    8.5383  -16.2656   15.4520 C   0  0  0  0  0  0  0  0  0  0  0  0
    8.1154  -15.9749   16.8622 C   0  0  2  0  0  0  0  0  0  0  0  0
    6.7093  -15.7413   17.0155 N   0  0  0  0  0  0  0  0  0  0  0  0
    8.9365  -14.8750   17.4341 C   0  0  0  0  0  0  0  0  0  0  0  0
   10.1818  -15.0547   17.6154 O   0  0  0  0  0  0  0  0  0  0  0  0
    8.2962  -13.6566   17.7592 N   0  0  0  0  0  0  0  0  0  0  0  0
    8.9998  -12.5680   18.3561 C   0  0  0  0  0  0  0  0  0  0  0  0
    9.2588  -12.7943   19.8187 C   0  0  0  0  0  0  0  0  0  0  0  0
    9.9024  -11.9445   20.4814 O   0  0  0  0  0  0  0  0  0  0  0  0
    6.7922  -14.7759   22.0912 O   0  0  0  0  0  0  0  0  0  0  0  0
    7.8929  -14.1976   22.7457 C   0  0  0  0  0  0  0  0  0  0  0  0
    9.0919  -14.3183   21.8218 C   0  0  2  0  0  0  0  0  0  0  0  0
    8.7886  -13.9575   20.4766 N   0  0  0  0  0  0  0  0  0  0  0  0
    9.7078  -15.6635   21.9440 C   0  0  0  0  0  0  0  0  0  0  0  0
    9.7283  -16.4309   20.9220 O   0  0  0  0  0  0  0  0  0  0  0  0
   10.2638  -16.1357   23.1079 O   0  0  0  0  0  0  0  0  0  0  0  0
  1  2  1  0
  2  3  2  0
  4  2  1  0
  4  5  1  0
  5  6  1  6
  7  8  2  0
  7  5  1  0
  9  7  1  0
 10 11  1  0
 10  9  1  0
 11 16  1  0
 12 11  2  0
 13 14  1  0
 15 14  1  1
 15 17  1  0
 16 15  1  0
 17 18  2  0
 17 19  1  0
M  END
$$$$
