NGS.pdb
     RDKit          3D

 19 18  0  0  1  0  0  0  0  0999 V2000
    9.5524  -14.7534   16.6790 N   0  0  0  0  0  0  0  0  0  0  0  0
    8.2894  -14.0584   16.6144 C   0  0  0  0  0  0  0  0  0  0  0  0
    7.8298  -13.8258   15.4797 O   0  0  0  0  0  0  0  0  0  0  0  0
    7.6411  -13.6780   17.8701 C   0  0  0  0  0  0  0  0  0  0  0  0
    8.3147  -14.2161   19.0984 C   0  0  2  0  0  0  0  0  0  0  0  0
    8.3569  -15.6476   19.1635 N   0  0  0  0  0  0  0  0  0  0  0  0
    7.7233  -13.6121   20.3217 C   0  0  0  0  0  0  0  0  0  0  0  0
    7.8588  -12.3657   20.5308 O   0  0  0  0  0  0  0  0  0  0  0  0
    7.0244  -14.4544   21.2173 N   0  0  0  0  0  0  0  0  0  0  0  0
    6.4102  -13.9532   22.4039 C   0  0  0  0  0  0  0  0  0  0  0  0
    7.3831  -13.8457   23.5438 C   0  0  0  0  0  0  0  0  0  0  0  0
    8.5790  -14.1920   23.3835 O   0  0  0  0  0  0  0  0  0  0  0  0
    5.9630  -12.5725   27.2259 O   0  0  0  0  0  0  0  0  0  0  0  0
    7.2767  -12.1688   26.9339 C   0  0  0  0  0  0  0  0  0  0  0  0
    7.8450  -13.1501   25.9240 C   0  0  2  0  0  0  0  0  0  0  0  0
    6.9793  -13.3573   24.8107 N   0  0  0  0  0  0  0  0  0  0  0  0
    8.2488  -14.4108   26.5960 C   0  0  0  0  0  0  0  0  0  0  0  0
    7.6464  -15.4961   26.2912 O   0  0  0  0  0  0  0  0  0  0  0  0
    9.2458  -14.4773   27.5385 O   0  0  0  0  0  0  0  0  0  0  0  0
  1  2  1  0
  2  3  2  0
  4  2  1  0
  4  5  1  0
  5  6  1  1
  7  8  2  0
  7  5  1  0
  9  7  1  0
 10 11  1  0
 10  9  1  0
 11 16  1  0
 12 11  2  0
 13 14  1  0
 15 14  1  1
 15 17  1  0
 16 15  1  0
 17 18  2  0
 17 19  1  0
M  END
$$$$
