NGS.pdb
     RDKit          3D

 19 18  0  0  1  0  0  0  0  0999 V2000
    9.0950  -13.3799   15.9086 N   0  0  0  0  0  0  0  0  0  0  0  0
    7.9268  -13.8401   16.6199 C   0  0  0  0  0  0  0  0  0  0  0  0
    7.0945  -14.5025   15.9709 O   0  0  0  0  0  0  0  0  0  0  0  0
    7.7996  -13.5022   18.0382 C   0  0  0  0  0  0  0  0  0  0  0  0
    7.7438  -14.6914   18.9519 C   0  0  2  0  0  0  0  0  0  0  0  0
    6.5012  -15.4050   18.9088 N   0  0  0  0  0  0  0  0  0  0  0  0
    8.1236  -14.3012   20.3356 C   0  0  0  0  0  0  0  0  0  0  0  0
    9.3142  -13.9249   20.5737 O   0  0  0  0  0  0  0  0  0  0  0  0
    7.1369  -14.3636   21.3468 N   0  0  0  0  0  0  0  0  0  0  0  0
    7.4233  -14.0304   22.7046 C   0  0  0  0  0  0  0  0  0  0  0  0
    7.7714  -15.2408   23.5240 C   0  0  0  0  0  0  0  0  0  0  0  0
    7.0473  -16.2648   23.4703 O   0  0  0  0  0  0  0  0  0  0  0  0
   11.7458  -17.4558   23.7659 O   0  0  0  0  0  0  0  0  0  0  0  0
   11.0245  -16.2573   23.6338 C   0  0  0  0  0  0  0  0  0  0  0  0
    9.7991  -16.3583   24.5249 C   0  0  2  0  0  0  0  0  0  0  0  0
    8.9105  -15.2552   24.3659 N   0  0  0  0  0  0  0  0  0  0  0  0
   10.2008  -16.5897   25.9353 C   0  0  0  0  0  0  0  0  0  0  0  0
   10.1405  -15.6186   26.7642 O   0  0  0  0  0  0  0  0  0  0  0  0
   10.6391  -17.8036   26.4053 O   0  0  0  0  0  0  0  0  0  0  0  0
  1  2  1  0
  2  3  2  0
  4  2  1  0
  4  5  1  0
  5  6  1  1
  7  8  2  0
  7  5  1  0
  9  7  1  0
 10 11  1  0
 10  9  1  0
 11 16  1  0
 12 11  2  0
 13 14  1  0
 15 14  1  6
 15 17  1  0
 16 15  1  0
 17 18  2  0
 17 19  1  0
M  END
$$$$
