NGS.pdb
     RDKit          3D

 19 18  0  0  1  0  0  0  0  0999 V2000
    2.5276  -20.6506   22.0404 N   0  0  0  0  0  0  0  0  0  0  0  0
    2.0610  -19.3678   21.5724 C   0  0  0  0  0  0  0  0  0  0  0  0
    0.8301  -19.1744   21.5876 O   0  0  0  0  0  0  0  0  0  0  0  0
    3.0523  -18.3923   21.1170 C   0  0  0  0  0  0  0  0  0  0  0  0
    4.4708  -18.8768   21.1886 C   0  0  2  0  0  0  0  0  0  0  0  0
    4.9163  -19.1902   22.5147 N   0  0  0  0  0  0  0  0  0  0  0  0
    5.3801  -17.9247   20.4974 C   0  0  0  0  0  0  0  0  0  0  0  0
    5.3793  -17.8706   19.2274 O   0  0  0  0  0  0  0  0  0  0  0  0
    6.2215  -17.1056   21.2855 N   0  0  0  0  0  0  0  0  0  0  0  0
    7.1212  -16.1633   20.7031 C   0  0  0  0  0  0  0  0  0  0  0  0
    7.9838  -15.4914   21.7337 C   0  0  0  0  0  0  0  0  0  0  0  0
    8.8858  -14.6954   21.3753 O   0  0  0  0  0  0  0  0  0  0  0  0
    6.7213  -14.7822   25.4363 O   0  0  0  0  0  0  0  0  0  0  0  0
    7.9546  -14.2332   25.0468 C   0  0  0  0  0  0  0  0  0  0  0  0
    8.6477  -15.2481   24.1549 C   0  0  2  0  0  0  0  0  0  0  0  0
    7.8020  -15.7369   23.1169 N   0  0  0  0  0  0  0  0  0  0  0  0
    9.2568  -16.3271   24.9726 C   0  0  0  0  0  0  0  0  0  0  0  0
    8.8945  -17.5364   24.7721 O   0  0  0  0  0  0  0  0  0  0  0  0
   10.1996  -16.0963   25.9446 O   0  0  0  0  0  0  0  0  0  0  0  0
  1  2  1  0
  2  3  2  0
  4  2  1  0
  4  5  1  0
  5  6  1  1
  7  8  2  0
  7  5  1  0
  9  7  1  0
 10 11  1  0
 10  9  1  0
 11 16  1  0
 12 11  2  0
 13 14  1  0
 15 14  1  1
 15 17  1  0
 16 15  1  0
 17 18  2  0
 17 19  1  0
M  END
$$$$
