NGS.pdb
     RDKit          3D

 19 18  0  0  1  0  0  0  0  0999 V2000
    8.1720  -13.1058   16.6365 N   0  0  0  0  0  0  0  0  0  0  0  0
    7.6801  -14.3336   17.2134 C   0  0  0  0  0  0  0  0  0  0  0  0
    7.5990  -15.3206   16.4571 O   0  0  0  0  0  0  0  0  0  0  0  0
    7.3141  -14.3371   18.6304 C   0  0  0  0  0  0  0  0  0  0  0  0
    8.4772  -14.4897   19.5664 C   0  0  2  0  0  0  0  0  0  0  0  0
    9.2192  -15.7029   19.3852 N   0  0  0  0  0  0  0  0  0  0  0  0
    8.0387  -14.3006   20.9746 C   0  0  0  0  0  0  0  0  0  0  0  0
    7.5889  -13.1699   21.3420 O   0  0  0  0  0  0  0  0  0  0  0  0
    8.1389  -15.3962   21.8632 N   0  0  0  0  0  0  0  0  0  0  0  0
    7.7080  -15.3108   23.2210 C   0  0  0  0  0  0  0  0  0  0  0  0
    8.8007  -14.8301   24.1333 C   0  0  0  0  0  0  0  0  0  0  0  0
    9.9728  -14.7100   23.7002 O   0  0  0  0  0  0  0  0  0  0  0  0
    7.8492  -12.6734   27.4165 O   0  0  0  0  0  0  0  0  0  0  0  0
    9.1741  -12.6435   26.9495 C   0  0  0  0  0  0  0  0  0  0  0  0
    9.5050  -14.0271   26.4184 C   0  0  2  0  0  0  0  0  0  0  0  0
    8.5379  -14.5049   25.4867 N   0  0  0  0  0  0  0  0  0  0  0  0
    9.7542  -14.9675   27.5398 C   0  0  0  0  0  0  0  0  0  0  0  0
    9.0306  -16.0162   27.6417 O   0  0  0  0  0  0  0  0  0  0  0  0
   10.7307  -14.7715   28.4857 O   0  0  0  0  0  0  0  0  0  0  0  0
  1  2  1  0
  2  3  2  0
  4  2  1  0
  4  5  1  0
  5  6  1  1
  7  8  2  0
  7  5  1  0
  9  7  1  0
 10 11  1  0
 10  9  1  0
 11 16  1  0
 12 11  2  0
 13 14  1  0
 15 14  1  1
 15 17  1  0
 16 15  1  0
 17 18  2  0
 17 19  1  0
M  END
$$$$
