NGS.pdb
     RDKit          3D

 19 18  0  0  1  0  0  0  0  0999 V2000
    8.4403  -13.7009   16.8493 N   0  0  0  0  0  0  0  0  0  0  0  0
    8.2133  -13.7876   15.4268 C   0  0  0  0  0  0  0  0  0  0  0  0
    7.6433  -12.8207   14.8856 O   0  0  0  0  0  0  0  0  0  0  0  0
    8.6623  -14.9903   14.7241 C   0  0  0  0  0  0  0  0  0  0  0  0
    9.3337  -16.0032   15.6045 C   0  0  2  0  0  0  0  0  0  0  0  0
    8.4767  -16.5696   16.6045 N   0  0  0  0  0  0  0  0  0  0  0  0
   10.5828  -15.4413   16.1834 C   0  0  0  0  0  0  0  0  0  0  0  0
   11.4607  -14.9440   15.4103 O   0  0  0  0  0  0  0  0  0  0  0  0
   10.7508  -15.4808   17.5871 N   0  0  0  0  0  0  0  0  0  0  0  0
   11.9246  -14.9763   18.2229 C   0  0  0  0  0  0  0  0  0  0  0  0
   11.6393  -14.4425   19.5981 C   0  0  0  0  0  0  0  0  0  0  0  0
   12.5478  -13.8745   20.2522 O   0  0  0  0  0  0  0  0  0  0  0  0
    8.2116  -13.2847   20.9778 O   0  0  0  0  0  0  0  0  0  0  0  0
    8.6439  -14.2447   21.9082 C   0  0  0  0  0  0  0  0  0  0  0  0
   10.0882  -14.5822   21.5823 C   0  0  2  0  0  0  0  0  0  0  0  0
   10.3546  -14.5658   20.1821 N   0  0  0  0  0  0  0  0  0  0  0  0
   10.4855  -15.8521   22.2405 C   0  0  0  0  0  0  0  0  0  0  0  0
   10.9471  -16.8040   21.5233 O   0  0  0  0  0  0  0  0  0  0  0  0
   10.3838  -16.0643   23.5938 O   0  0  0  0  0  0  0  0  0  0  0  0
  1  2  1  0
  2  3  2  0
  4  2  1  0
  4  5  1  0
  5  6  1  1
  7  8  2  0
  7  5  1  0
  9  7  1  0
 10 11  1  0
 10  9  1  0
 11 16  1  0
 12 11  2  0
 13 14  1  0
 15 14  1  6
 15 17  1  0
 16 15  1  0
 17 18  2  0
 17 19  1  0
M  END
$$$$
