NGS.pdb
     RDKit          3D

 19 18  0  0  1  0  0  0  0  0999 V2000
   11.4017  -21.4092   30.8560 N   0  0  0  0  0  0  0  0  0  0  0  0
   11.7327  -20.0792   31.3073 C   0  0  0  0  0  0  0  0  0  0  0  0
   12.1909  -19.9716   32.4611 O   0  0  0  0  0  0  0  0  0  0  0  0
   11.5108  -18.9597   30.3911 C   0  0  0  0  0  0  0  0  0  0  0  0
   10.8433  -19.3419   29.1025 C   0  0  2  0  0  0  0  0  0  0  0  0
   11.5370  -20.3542   28.3615 N   0  0  0  0  0  0  0  0  0  0  0  0
   10.5655  -18.1325   28.2832 C   0  0  0  0  0  0  0  0  0  0  0  0
   10.0129  -17.1243   28.8254 O   0  0  0  0  0  0  0  0  0  0  0  0
   10.9295  -18.1475   26.9166 N   0  0  0  0  0  0  0  0  0  0  0  0
   10.7300  -17.0176   26.0682 C   0  0  0  0  0  0  0  0  0  0  0  0
   11.2501  -17.2534   24.6784 C   0  0  0  0  0  0  0  0  0  0  0  0
   11.8379  -18.3276   24.4018 O   0  0  0  0  0  0  0  0  0  0  0  0
   11.4013  -15.6411   20.0900 O   0  0  0  0  0  0  0  0  0  0  0  0
   10.9977  -15.3354   21.4006 C   0  0  0  0  0  0  0  0  0  0  0  0
   11.5297  -16.4278   22.3114 C   0  0  2  0  0  0  0  0  0  0  0  0
   11.0917  -16.2817   23.6600 N   0  0  0  0  0  0  0  0  0  0  0  0
   13.0044  -16.5388   22.1822 C   0  0  0  0  0  0  0  0  0  0  0  0
   13.7472  -15.9873   23.0641 O   0  0  0  0  0  0  0  0  0  0  0  0
   13.6233  -17.2091   21.1553 O   0  0  0  0  0  0  0  0  0  0  0  0
  1  2  1  0
  2  3  2  0
  4  2  1  0
  4  5  1  0
  5  6  1  6
  7  8  2  0
  7  5  1  0
  9  7  1  0
 10 11  1  0
 10  9  1  0
 11 16  1  0
 12 11  2  0
 13 14  1  0
 15 14  1  6
 15 17  1  0
 16 15  1  0
 17 18  2  0
 17 19  1  0
M  END
$$$$
