TSP.pdb
     RDKit          3D

 21 21  0  0  1  0  0  0  0  0999 V2000
    8.3099  -12.5428   20.1923 C   0  0  0  0  0  0  0  0  0  0  0  0
    7.9275  -13.6259   19.2062 C   0  0  1  0  0  0  0  0  0  0  0  0
    8.8228  -13.5535   18.1406 O   0  0  0  0  0  0  0  0  0  0  0  0
    8.1062  -14.9695   19.8692 C   0  0  2  0  0  0  0  0  0  0  0  0
    7.7717  -15.9779   18.8797 N   0  0  0  0  0  0  0  0  0  0  0  0
    7.3266  -15.1234   21.0969 C   0  0  0  0  0  0  0  0  0  0  0  0
    6.1183  -15.4942   20.9922 O   0  0  0  0  0  0  0  0  0  0  0  0
    6.5422  -17.0742   24.7751 O   0  0  0  0  0  0  0  0  0  0  0  0
    7.0114  -16.6555   23.5418 C   0  0  0  0  0  0  0  0  0  0  0  0
    7.2899  -15.1707   23.6139 C   0  0  2  0  0  0  0  0  0  0  0  0
    7.9308  -14.8590   22.3498 N   0  0  0  0  0  0  0  0  0  0  0  0
    8.1034  -14.7323   24.7448 C   0  0  0  0  0  0  0  0  0  0  0  0
    9.3701  -14.8921   24.5763 O   0  0  0  0  0  0  0  0  0  0  0  0
    7.6964  -14.1723   25.9597 N   0  0  0  0  0  0  0  0  0  0  0  0
    6.4013  -13.9629   26.5758 C   0  0  0  0  0  0  0  0  0  0  0  0
    6.5510  -12.6859   27.4157 C   0  0  0  0  0  0  0  0  0  0  0  0
    7.9972  -12.2766   27.2330 C   0  0  0  0  0  0  0  0  0  0  0  0
    8.6165  -13.6308   26.9699 C   0  0  1  0  0  0  0  0  0  0  0  0
    8.6756  -14.4755   28.1618 C   0  0  0  0  0  0  0  0  0  0  0  0
    9.3855  -14.2212   29.1626 O   0  0  0  0  0  0  0  0  0  0  0  0
    7.8989  -15.6253   28.1830 O   0  0  0  0  0  0  0  0  0  0  0  0
  2  4  1  0
  2  1  1  1
  3  2  1  0
  4  5  1  6
  6  4  1  0
  6 11  1  0
  7  6  2  0
  9  8  1  0
 10 12  1  0
 10 11  1  0
 10  9  1  1
 12 14  1  0
 13 12  2  0
 14 15  1  0
 14 18  1  0
 15 16  1  0
 17 16  1  0
 17 18  1  0
 18 19  1  1
 19 20  2  0
 19 21  1  0
M  END
$$$$
