TSP.pdb
     RDKit          3D

 21 21  0  0  1  0  0  0  0  0999 V2000
   11.8680  -16.7308   22.8320 C   0  0  0  0  0  0  0  0  0  0  0  0
   11.5523  -16.5217   21.3663 C   0  0  1  0  0  0  0  0  0  0  0  0
   12.3625  -17.3907   20.6379 O   0  0  0  0  0  0  0  0  0  0  0  0
   10.1162  -16.9129   21.1194 C   0  0  2  0  0  0  0  0  0  0  0  0
    9.8936  -16.8262   19.6874 N   0  0  0  0  0  0  0  0  0  0  0  0
    9.1543  -16.1116   21.8752 C   0  0  0  0  0  0  0  0  0  0  0  0
    8.9278  -14.9270   21.4828 O   0  0  0  0  0  0  0  0  0  0  0  0
    7.1302  -17.7778   25.2067 O   0  0  0  0  0  0  0  0  0  0  0  0
    6.5429  -16.9781   24.2412 C   0  0  0  0  0  0  0  0  0  0  0  0
    7.5484  -15.9353   23.8062 C   0  0  2  0  0  0  0  0  0  0  0  0
    8.5111  -16.6696   23.0065 N   0  0  0  0  0  0  0  0  0  0  0  0
    8.2038  -15.1983   24.8834 C   0  0  0  0  0  0  0  0  0  0  0  0
    9.4849  -15.3276   24.9070 O   0  0  0  0  0  0  0  0  0  0  0  0
    7.6354  -14.3866   25.8700 N   0  0  0  0  0  0  0  0  0  0  0  0
    6.2711  -14.1387   26.2919 C   0  0  0  0  0  0  0  0  0  0  0  0
    6.2541  -12.6834   26.7822 C   0  0  0  0  0  0  0  0  0  0  0  0
    7.6852  -12.2130   26.6305 C   0  0  0  0  0  0  0  0  0  0  0  0
    8.4073  -13.5327   26.7839 C   0  0  1  0  0  0  0  0  0  0  0  0
    8.3859  -14.0419   28.1543 C   0  0  0  0  0  0  0  0  0  0  0  0
    9.0366  -13.5344   29.0974 O   0  0  0  0  0  0  0  0  0  0  0  0
    7.5981  -15.1522   28.4231 O   0  0  0  0  0  0  0  0  0  0  0  0
  2  4  1  0
  2  1  1  1
  3  2  1  0
  4  5  1  6
  6  4  1  0
  6 11  1  0
  7  6  2  0
  9  8  1  0
 10 12  1  0
 10 11  1  0
 10  9  1  1
 12 14  1  0
 13 12  2  0
 14 15  1  0
 14 18  1  0
 15 16  1  0
 17 16  1  0
 17 18  1  0
 18 19  1  1
 19 20  2  0
 19 21  1  0
M  END
$$$$
