TSP.pdb
     RDKit          3D

 21 21  0  0  1  0  0  0  0  0999 V2000
   12.5373  -18.8470   20.4987 C   0  0  0  0  0  0  0  0  0  0  0  0
   12.1666  -17.8878   21.6098 C   0  0  1  0  0  0  0  0  0  0  0  0
   13.0948  -16.8485   21.5894 O   0  0  0  0  0  0  0  0  0  0  0  0
   10.8093  -17.3010   21.3102 C   0  0  2  0  0  0  0  0  0  0  0  0
   10.8920  -16.6924   19.9946 N   0  0  0  0  0  0  0  0  0  0  0  0
   10.3444  -16.3563   22.3251 C   0  0  0  0  0  0  0  0  0  0  0  0
   10.6770  -15.1386   22.2019 O   0  0  0  0  0  0  0  0  0  0  0  0
    7.5420  -17.5452   25.2640 O   0  0  0  0  0  0  0  0  0  0  0  0
    7.6035  -16.3247   24.6134 C   0  0  0  0  0  0  0  0  0  0  0  0
    9.0575  -15.9420   24.4491 C   0  0  2  0  0  0  0  0  0  0  0  0
    9.5480  -16.8177   23.4011 N   0  0  0  0  0  0  0  0  0  0  0  0
    9.8791  -16.0408   25.6525 C   0  0  0  0  0  0  0  0  0  0  0  0
   10.8843  -16.8380   25.5403 O   0  0  0  0  0  0  0  0  0  0  0  0
    9.7220  -15.3961   26.8833 N   0  0  0  0  0  0  0  0  0  0  0  0
    8.6922  -14.5377   27.4339 C   0  0  0  0  0  0  0  0  0  0  0  0
    9.4246  -13.5823   28.3875 C   0  0  0  0  0  0  0  0  0  0  0  0
   10.8723  -14.0217   28.3301 C   0  0  0  0  0  0  0  0  0  0  0  0
   10.6843  -15.4833   27.9909 C   0  0  1  0  0  0  0  0  0  0  0  0
   10.1602  -16.2680   29.1077 C   0  0  0  0  0  0  0  0  0  0  0  0
    8.9863  -16.7029   29.1647 O   0  0  0  0  0  0  0  0  0  0  0  0
   11.0152  -16.5458   30.1649 O   0  0  0  0  0  0  0  0  0  0  0  0
  2  4  1  0
  2  1  1  6
  3  2  1  0
  4  5  1  6
  6  4  1  0
  6 11  1  0
  7  6  2  0
  9  8  1  0
 10 12  1  0
 10 11  1  0
 10  9  1  1
 12 14  1  0
 13 12  2  0
 14 15  1  0
 14 18  1  0
 15 16  1  0
 17 16  1  0
 17 18  1  0
 18 19  1  1
 19 20  2  0
 19 21  1  0
M  END
$$$$
