TSP.pdb
     RDKit          3D

 21 21  0  0  1  0  0  0  0  0999 V2000
   11.1240  -14.6257   20.9842 C   0  0  0  0  0  0  0  0  0  0  0  0
   10.3497  -13.7225   20.0479 C   0  0  1  0  0  0  0  0  0  0  0  0
   10.7649  -14.0143   18.7500 O   0  0  0  0  0  0  0  0  0  0  0  0
    8.8830  -14.0613   20.1510 C   0  0  2  0  0  0  0  0  0  0  0  0
    8.1898  -13.2446   19.1710 N   0  0  0  0  0  0  0  0  0  0  0  0
    8.3367  -13.8886   21.4965 C   0  0  0  0  0  0  0  0  0  0  0  0
    7.9558  -12.7286   21.8399 O   0  0  0  0  0  0  0  0  0  0  0  0
    7.1844  -17.1816   23.9177 O   0  0  0  0  0  0  0  0  0  0  0  0
    6.6216  -15.9244   23.7795 C   0  0  0  0  0  0  0  0  0  0  0  0
    7.7365  -14.9040   23.7207 C   0  0  2  0  0  0  0  0  0  0  0  0
    8.2483  -15.0021   22.3665 N   0  0  0  0  0  0  0  0  0  0  0  0
    8.8020  -15.0717   24.7054 C   0  0  0  0  0  0  0  0  0  0  0  0
    9.8926  -15.5588   24.2240 O   0  0  0  0  0  0  0  0  0  0  0  0
    8.7943  -14.7774   26.0724 N   0  0  0  0  0  0  0  0  0  0  0  0
    7.7599  -14.3508   26.9937 C   0  0  0  0  0  0  0  0  0  0  0  0
    8.4759  -13.4780   28.0348 C   0  0  0  0  0  0  0  0  0  0  0  0
    9.9332  -13.5141   27.6256 C   0  0  0  0  0  0  0  0  0  0  0  0
    9.9753  -14.8629   26.9431 C   0  0  1  0  0  0  0  0  0  0  0  0
    9.8824  -15.9821   27.8792 C   0  0  0  0  0  0  0  0  0  0  0  0
    8.8693  -16.7099   27.9982 O   0  0  0  0  0  0  0  0  0  0  0  0
   10.9822  -16.2517   28.6815 O   0  0  0  0  0  0  0  0  0  0  0  0
  2  4  1  0
  2  1  1  1
  3  2  1  0
  4  5  1  6
  6  4  1  0
  6 11  1  0
  7  6  2  0
  9  8  1  0
 10 12  1  0
 10 11  1  0
 10  9  1  1
 12 14  1  0
 13 12  2  0
 14 15  1  0
 14 18  1  0
 15 16  1  0
 17 16  1  0
 17 18  1  0
 18 19  1  1
 19 20  2  0
 19 21  1  0
M  END
$$$$
