TSP.pdb
     RDKit          3D

 21 21  0  0  1  0  0  0  0  0999 V2000
   10.1666  -14.8541   18.5929 C   0  0  0  0  0  0  0  0  0  0  0  0
    9.9219  -14.6524   20.0732 C   0  0  1  0  0  0  0  0  0  0  0  0
   10.7018  -13.5717   20.4805 O   0  0  0  0  0  0  0  0  0  0  0  0
    8.4741  -14.2806   20.2785 C   0  0  2  0  0  0  0  0  0  0  0  0
    8.2415  -13.0560   19.5341 N   0  0  0  0  0  0  0  0  0  0  0  0
    8.0987  -14.1487   21.6858 C   0  0  0  0  0  0  0  0  0  0  0  0
    7.9724  -12.9796   22.1611 O   0  0  0  0  0  0  0  0  0  0  0  0
    6.9316  -17.1783   25.0985 O   0  0  0  0  0  0  0  0  0  0  0  0
    6.5223  -16.4013   24.0283 C   0  0  0  0  0  0  0  0  0  0  0  0
    7.4989  -15.2580   23.8649 C   0  0  2  0  0  0  0  0  0  0  0  0
    7.8893  -15.3100   22.4683 N   0  0  0  0  0  0  0  0  0  0  0  0
    8.6644  -15.2890   24.7444 C   0  0  0  0  0  0  0  0  0  0  0  0
    9.7233  -15.7789   24.1991 O   0  0  0  0  0  0  0  0  0  0  0  0
    8.7796  -14.8642   26.0716 N   0  0  0  0  0  0  0  0  0  0  0  0
    7.8240  -14.3871   27.0513 C   0  0  0  0  0  0  0  0  0  0  0  0
    8.6003  -13.3929   27.9274 C   0  0  0  0  0  0  0  0  0  0  0  0
   10.0096  -13.4172   27.3749 C   0  0  0  0  0  0  0  0  0  0  0  0
   10.0441  -14.8233   26.8197 C   0  0  1  0  0  0  0  0  0  0  0  0
   10.0952  -15.8493   27.8602 C   0  0  0  0  0  0  0  0  0  0  0  0
    9.1438  -16.6197   28.1277 O   0  0  0  0  0  0  0  0  0  0  0  0
   11.2673  -15.9746   28.5926 O   0  0  0  0  0  0  0  0  0  0  0  0
  2  4  1  0
  2  1  1  6
  3  2  1  0
  4  5  1  6
  6  4  1  0
  6 11  1  0
  7  6  2  0
  9  8  1  0
 10 12  1  0
 10 11  1  0
 10  9  1  1
 12 14  1  0
 13 12  2  0
 14 15  1  0
 14 18  1  0
 15 16  1  0
 17 16  1  0
 17 18  1  0
 18 19  1  1
 19 20  2  0
 19 21  1  0
M  END
$$$$
