TSP.pdb
     RDKit          3D

 21 21  0  0  1  0  0  0  0  0999 V2000
    8.1026  -18.2498   21.5063 C   0  0  0  0  0  0  0  0  0  0  0  0
    6.8987  -19.1629   21.4132 C   0  0  1  0  0  0  0  0  0  0  0  0
    7.2609  -20.2496   20.6194 O   0  0  0  0  0  0  0  0  0  0  0  0
    6.5787  -19.6846   22.7923 C   0  0  2  0  0  0  0  0  0  0  0  0
    5.5339  -20.6807   22.6365 N   0  0  0  0  0  0  0  0  0  0  0  0
    6.2027  -18.6367   23.7406 C   0  0  0  0  0  0  0  0  0  0  0  0
    5.1141  -18.0169   23.5422 O   0  0  0  0  0  0  0  0  0  0  0  0
    8.2613  -18.3500   27.2697 O   0  0  0  0  0  0  0  0  0  0  0  0
    6.9408  -17.9530   27.1456 C   0  0  0  0  0  0  0  0  0  0  0  0
    6.7632  -17.2945   25.7956 C   0  0  2  0  0  0  0  0  0  0  0  0
    7.0495  -18.3460   24.8375 N   0  0  0  0  0  0  0  0  0  0  0  0
    7.5885  -16.1144   25.5523 C   0  0  0  0  0  0  0  0  0  0  0  0
    8.5213  -16.2937   24.6827 O   0  0  0  0  0  0  0  0  0  0  0  0
    7.4996  -14.8422   26.1260 N   0  0  0  0  0  0  0  0  0  0  0  0
    6.6201  -14.2559   27.1177 C   0  0  0  0  0  0  0  0  0  0  0  0
    6.5016  -12.7741   26.7323 C   0  0  0  0  0  0  0  0  0  0  0  0
    7.3968  -12.6222   25.5208 C   0  0  0  0  0  0  0  0  0  0  0  0
    8.3950  -13.7235   25.7989 C   0  0  1  0  0  0  0  0  0  0  0  0
    9.3014  -13.4103   26.9026 C   0  0  0  0  0  0  0  0  0  0  0  0
    9.2344  -13.9452   28.0337 O   0  0  0  0  0  0  0  0  0  0  0  0
   10.2929  -12.4648   26.6812 O   0  0  0  0  0  0  0  0  0  0  0  0
  2  4  1  0
  2  1  1  1
  3  2  1  0
  4  5  1  6
  6  4  1  0
  6 11  1  0
  7  6  2  0
  9  8  1  0
 10 12  1  0
 10 11  1  0
 10  9  1  1
 12 14  1  0
 13 12  2  0
 14 15  1  0
 14 18  1  0
 15 16  1  0
 17 16  1  0
 17 18  1  0
 18 19  1  1
 19 20  2  0
 19 21  1  0
M  END
$$$$
