TSP.pdb
     RDKit          3D

 21 21  0  0  1  0  0  0  0  0999 V2000
   10.0906  -14.7957   16.7617 C   0  0  0  0  0  0  0  0  0  0  0  0
    9.6038  -14.8071   18.1951 C   0  0  1  0  0  0  0  0  0  0  0  0
   10.4049  -13.9217   18.9138 O   0  0  0  0  0  0  0  0  0  0  0  0
    8.1893  -14.2832   18.2305 C   0  0  2  0  0  0  0  0  0  0  0  0
    8.2216  -12.9392   17.6824 N   0  0  0  0  0  0  0  0  0  0  0  0
    7.5859  -14.3199   19.5621 C   0  0  0  0  0  0  0  0  0  0  0  0
    7.4636  -13.2252   20.1907 O   0  0  0  0  0  0  0  0  0  0  0  0
    4.6809  -16.9438   21.4406 O   0  0  0  0  0  0  0  0  0  0  0  0
    6.0575  -17.0724   21.5124 C   0  0  0  0  0  0  0  0  0  0  0  0
    6.6710  -15.6907   21.4655 C   0  0  2  0  0  0  0  0  0  0  0  0
    7.1606  -15.5561   20.1062 N   0  0  0  0  0  0  0  0  0  0  0  0
    7.7283  -15.4330   22.4395 C   0  0  0  0  0  0  0  0  0  0  0  0
    8.9204  -15.5678   21.9713 O   0  0  0  0  0  0  0  0  0  0  0  0
    7.6186  -15.0654   23.7841 N   0  0  0  0  0  0  0  0  0  0  0  0
    6.4910  -14.8396   24.6663 C   0  0  0  0  0  0  0  0  0  0  0  0
    6.9562  -13.7599   25.6544 C   0  0  0  0  0  0  0  0  0  0  0  0
    8.3904  -13.4757   25.2614 C   0  0  0  0  0  0  0  0  0  0  0  0
    8.7652  -14.8155   24.6691 C   0  0  1  0  0  0  0  0  0  0  0  0
    8.9159  -15.8653   25.6756 C   0  0  0  0  0  0  0  0  0  0  0  0
    8.0825  -16.7835   25.8561 O   0  0  0  0  0  0  0  0  0  0  0  0
   10.0491  -15.8405   26.4762 O   0  0  0  0  0  0  0  0  0  0  0  0
  2  4  1  0
  2  1  1  6
  3  2  1  0
  4  5  1  1
  6  4  1  0
  6 11  1  0
  7  6  2  0
  9  8  1  0
 10 12  1  0
 10 11  1  0
 10  9  1  6
 12 14  1  0
 13 12  2  0
 14 15  1  0
 14 18  1  0
 15 16  1  0
 17 16  1  0
 17 18  1  0
 18 19  1  1
 19 20  2  0
 19 21  1  0
M  END
$$$$
