FYG.pdb
     RDKit          3D

 28 29  0  0  1  0  0  0  0  0999 V2000
   19.3603  -14.4201    7.0025 N   0  0  0  0  0  0  0  0  0  0  0  0
   18.2290  -13.7249    6.4522 C   0  0  1  0  0  0  0  0  0  0  0  0
   18.6498  -12.6589    5.4569 C   0  0  0  0  0  0  0  0  0  0  0  0
   19.6648  -11.7948    6.1071 C   0  0  0  0  0  0  0  0  0  0  0  0
   19.3901  -10.9823    7.1790 C   0  0  0  0  0  0  0  0  0  0  0  0
   20.3754  -10.1899    7.7548 C   0  0  0  0  0  0  0  0  0  0  0  0
   21.6548  -10.2214    7.2379 C   0  0  0  0  0  0  0  0  0  0  0  0
   21.9529  -11.0368    6.1538 C   0  0  0  0  0  0  0  0  0  0  0  0
   20.9474  -11.8151    5.6022 C   0  0  0  0  0  0  0  0  0  0  0  0
   17.3115  -14.6933    5.7502 C   0  0  0  0  0  0  0  0  0  0  0  0
   16.1771  -14.3347    5.3797 O   0  0  0  0  0  0  0  0  0  0  0  0
   13.6240  -20.8584    0.8982 O   0  0  0  0  0  0  0  0  0  0  0  0
   14.5099  -19.9821    1.5097 C   0  0  0  0  0  0  0  0  0  0  0  0
   15.8709  -20.2298    1.5965 C   0  0  0  0  0  0  0  0  0  0  0  0
   16.7355  -19.3466    2.2081 C   0  0  0  0  0  0  0  0  0  0  0  0
   16.2848  -18.1776    2.7607 C   0  0  0  0  0  0  0  0  0  0  0  0
   17.0940  -17.1751    3.4265 C   0  0  0  0  0  0  0  0  0  0  0  0
   16.8738  -17.0425    4.9019 C   0  0  2  0  0  0  0  0  0  0  0  0
   17.7074  -16.0297    5.4925 N   0  0  0  0  0  0  0  0  0  0  0  0
   17.0138  -18.3621    5.5623 C   0  0  0  0  0  0  0  0  0  0  0  0
   16.2382  -19.2796    5.1880 O   0  0  0  0  0  0  0  0  0  0  0  0
   14.9165  -17.9371    2.6688 C   0  0  0  0  0  0  0  0  0  0  0  0
   14.0484  -18.8063    2.0641 C   0  0  0  0  0  0  0  0  0  0  0  0
   17.9513  -18.6540    6.5741 N   0  0  0  0  0  0  0  0  0  0  0  0
   18.0366  -19.9717    7.1201 C   0  0  0  0  0  0  0  0  0  0  0  0
   17.2525  -20.1630    8.3465 C   0  0  0  0  0  0  0  0  0  0  0  0
   16.4575  -19.1549    8.8433 O   0  0  0  0  0  0  0  0  0  0  0  0
   17.3020  -21.2512    8.9526 O   0  0  0  0  0  0  0  0  0  0  0  0
  2  1  1  6
  2  3  1  0
  2 10  1  0
  4  9  1  0
  4  3  1  0
  5  4  2  0
  6  7  2  0
  6  5  1  0
  7  8  1  0
  8  9  2  0
 10 11  2  0
 13 12  1  0
 13 14  2  0
 15 14  1  0
 16 15  2  0
 17 16  1  0
 18 17  1  6
 19 10  1  0
 19 18  1  0
 20 18  1  0
 20 21  2  0
 22 23  2  0
 22 16  1  0
 23 13  1  0
 24 20  1  0
 25 24  1  0
 25 26  1  0
 26 27  1  0
 28 26  2  0
M  END
$$$$
