FYG.pdb
     RDKit          3D

 28 29  0  0  1  0  0  0  0  0999 V2000
   26.8948  -21.9861  -14.5523 N   0  0  0  0  0  0  0  0  0  0  0  0
   26.0663  -21.0893  -13.7938 C   0  0  1  0  0  0  0  0  0  0  0  0
   24.6077  -21.1844  -14.2031 C   0  0  0  0  0  0  0  0  0  0  0  0
   24.2415  -19.9293  -14.9032 C   0  0  0  0  0  0  0  0  0  0  0  0
   23.3018  -19.0472  -14.4304 C   0  0  0  0  0  0  0  0  0  0  0  0
   22.9925  -17.8830  -15.1225 C   0  0  0  0  0  0  0  0  0  0  0  0
   23.6435  -17.6093  -16.3084 C   0  0  0  0  0  0  0  0  0  0  0  0
   24.5974  -18.4891  -16.8035 C   0  0  0  0  0  0  0  0  0  0  0  0
   24.8830  -19.6419  -16.0890 C   0  0  0  0  0  0  0  0  0  0  0  0
   26.1674  -21.4025  -12.3227 C   0  0  0  0  0  0  0  0  0  0  0  0
   26.1232  -22.5818  -11.9225 O   0  0  0  0  0  0  0  0  0  0  0  0
   28.1230  -19.7377   -3.6921 O   0  0  0  0  0  0  0  0  0  0  0  0
   27.8622  -19.7076   -5.0551 C   0  0  0  0  0  0  0  0  0  0  0  0
   27.2931  -20.7736   -5.7340 C   0  0  0  0  0  0  0  0  0  0  0  0
   27.0415  -20.7248   -7.0890 C   0  0  0  0  0  0  0  0  0  0  0  0
   27.3449  -19.6135   -7.8291 C   0  0  0  0  0  0  0  0  0  0  0  0
   27.1275  -19.4449   -9.2529 C   0  0  0  0  0  0  0  0  0  0  0  0
   26.4304  -20.5791   -9.9389 C   0  0  2  0  0  0  0  0  0  0  0  0
   26.3147  -20.3744  -11.3581 N   0  0  0  0  0  0  0  0  0  0  0  0
   25.1270  -20.8498   -9.2870 C   0  0  0  0  0  0  0  0  0  0  0  0
   25.1359  -21.0660   -8.0474 O   0  0  0  0  0  0  0  0  0  0  0  0
   27.9163  -18.5477   -7.1389 C   0  0  0  0  0  0  0  0  0  0  0  0
   28.1707  -18.5844   -5.7940 C   0  0  0  0  0  0  0  0  0  0  0  0
   23.8882  -20.8807   -9.9595 N   0  0  0  0  0  0  0  0  0  0  0  0
   22.6744  -21.0622   -9.2277 C   0  0  0  0  0  0  0  0  0  0  0  0
   21.4651  -21.0405  -10.0599 C   0  0  0  0  0  0  0  0  0  0  0  0
   21.5494  -20.9196  -11.4286 O   0  0  0  0  0  0  0  0  0  0  0  0
   20.3420  -21.1324   -9.5268 O   0  0  0  0  0  0  0  0  0  0  0  0
  2  1  1  6
  2  3  1  0
  2 10  1  0
  4  9  1  0
  4  3  1  0
  5  4  2  0
  6  7  2  0
  6  5  1  0
  7  8  1  0
  8  9  2  0
 10 11  2  0
 13 12  1  0
 13 14  2  0
 15 14  1  0
 16 15  2  0
 17 16  1  0
 18 17  1  1
 19 10  1  0
 19 18  1  0
 20 18  1  0
 20 21  2  0
 22 23  2  0
 22 16  1  0
 23 13  1  0
 24 20  1  0
 25 24  1  0
 25 26  1  0
 26 27  1  0
 28 26  2  0
M  END
$$$$
