FYG.pdb
     RDKit          3D

 28 29  0  0  1  0  0  0  0  0999 V2000
   19.4349   -7.5404  -13.1204 N   0  0  0  0  0  0  0  0  0  0  0  0
   20.3449   -7.9610  -14.1506 C   0  0  1  0  0  0  0  0  0  0  0  0
   21.7896   -7.8982  -13.6891 C   0  0  0  0  0  0  0  0  0  0  0  0
   22.3660   -6.6116  -14.1497 C   0  0  0  0  0  0  0  0  0  0  0  0
   23.1604   -6.4954  -15.2634 C   0  0  0  0  0  0  0  0  0  0  0  0
   23.6778   -5.2672  -15.6555 C   0  0  0  0  0  0  0  0  0  0  0  0
   23.3865   -4.1428  -14.9098 C   0  0  0  0  0  0  0  0  0  0  0  0
   22.5848   -4.2394  -13.7799 C   0  0  0  0  0  0  0  0  0  0  0  0
   22.0842   -5.4794  -13.4155 C   0  0  0  0  0  0  0  0  0  0  0  0
   20.0419   -9.3772  -14.5691 C   0  0  0  0  0  0  0  0  0  0  0  0
   19.7902  -10.2491  -13.7152 O   0  0  0  0  0  0  0  0  0  0  0  0
   15.3419   -6.9089  -18.6108 O   0  0  0  0  0  0  0  0  0  0  0  0
   16.0543   -7.9750  -18.0792 C   0  0  0  0  0  0  0  0  0  0  0  0
   16.2079   -8.1695  -16.7154 C   0  0  0  0  0  0  0  0  0  0  0  0
   16.9197   -9.2352  -16.2062 C   0  0  0  0  0  0  0  0  0  0  0  0
   17.5105  -10.1549  -17.0308 C   0  0  0  0  0  0  0  0  0  0  0  0
   18.2798  -11.3116  -16.6146 C   0  0  0  0  0  0  0  0  0  0  0  0
   19.7471  -11.0782  -16.4264 C   0  0  2  0  0  0  0  0  0  0  0  0
   20.0341   -9.7571  -15.9347 N   0  0  0  0  0  0  0  0  0  0  0  0
   20.4822  -11.4023  -17.6721 C   0  0  0  0  0  0  0  0  0  0  0  0
   20.7631  -10.4469  -18.4413 O   0  0  0  0  0  0  0  0  0  0  0  0
   17.3510   -9.9516  -18.3990 C   0  0  0  0  0  0  0  0  0  0  0  0
   16.6468   -8.8975  -18.9163 C   0  0  0  0  0  0  0  0  0  0  0  0
   20.8838  -12.7004  -18.0483 N   0  0  0  0  0  0  0  0  0  0  0  0
   21.5032  -12.9248  -19.3163 C   0  0  0  0  0  0  0  0  0  0  0  0
   22.9354  -12.6036  -19.3477 C   0  0  0  0  0  0  0  0  0  0  0  0
   23.8688  -13.5609  -19.6759 O   0  0  0  0  0  0  0  0  0  0  0  0
   23.3199  -11.4497  -19.0745 O   0  0  0  0  0  0  0  0  0  0  0  0
  2  1  1  1
  2  3  1  0
  2 10  1  0
  4  9  1  0
  4  3  1  0
  5  4  2  0
  6  7  2  0
  6  5  1  0
  7  8  1  0
  8  9  2  0
 10 11  2  0
 13 12  1  0
 13 14  2  0
 15 14  1  0
 16 15  2  0
 17 16  1  0
 18 17  1  6
 19 10  1  0
 19 18  1  0
 20 18  1  0
 20 21  2  0
 22 23  2  0
 22 16  1  0
 23 13  1  0
 24 20  1  0
 25 24  1  0
 25 26  1  0
 26 27  1  0
 28 26  2  0
M  END
$$$$
