FYG.pdb
     RDKit          3D

 28 29  0  0  1  0  0  0  0  0999 V2000
   25.3138  -19.0332  -15.2291 N   0  0  0  0  0  0  0  0  0  0  0  0
   26.4034  -19.0046  -14.2920 C   0  0  1  0  0  0  0  0  0  0  0  0
   27.1585  -17.6888  -14.3429 C   0  0  0  0  0  0  0  0  0  0  0  0
   27.8686  -17.6137  -15.6428 C   0  0  0  0  0  0  0  0  0  0  0  0
   27.4803  -16.7886  -16.6691 C   0  0  0  0  0  0  0  0  0  0  0  0
   28.1782  -16.7532  -17.8698 C   0  0  0  0  0  0  0  0  0  0  0  0
   29.2833  -17.5640  -18.0325 C   0  0  0  0  0  0  0  0  0  0  0  0
   29.6923  -18.4058  -17.0063 C   0  0  0  0  0  0  0  0  0  0  0  0
   28.9743  -18.4175  -15.8207 C   0  0  0  0  0  0  0  0  0  0  0  0
   25.8908  -19.2032  -12.8883 C   0  0  0  0  0  0  0  0  0  0  0  0
   25.0556  -18.4163  -12.4026 O   0  0  0  0  0  0  0  0  0  0  0  0
   19.9944  -20.9949  -13.2103 O   0  0  0  0  0  0  0  0  0  0  0  0
   21.2000  -21.1393  -12.5379 C   0  0  0  0  0  0  0  0  0  0  0  0
   21.4079  -20.6523  -11.2569 C   0  0  0  0  0  0  0  0  0  0  0  0
   22.6133  -20.8056  -10.6049 C   0  0  0  0  0  0  0  0  0  0  0  0
   23.6657  -21.4502  -11.1980 C   0  0  0  0  0  0  0  0  0  0  0  0
   24.9749  -21.6724  -10.6150 C   0  0  0  0  0  0  0  0  0  0  0  0
   25.9346  -20.5281  -10.7268 C   0  0  2  0  0  0  0  0  0  0  0  0
   26.3391  -20.2816  -12.0851 N   0  0  0  0  0  0  0  0  0  0  0  0
   27.0824  -20.7297   -9.8107 C   0  0  0  0  0  0  0  0  0  0  0  0
   27.6165  -21.8689   -9.7973 O   0  0  0  0  0  0  0  0  0  0  0  0
   23.4479  -21.9359  -12.4846 C   0  0  0  0  0  0  0  0  0  0  0  0
   22.2558  -21.7898  -13.1420 C   0  0  0  0  0  0  0  0  0  0  0  0
   27.6103  -19.7366   -8.9604 N   0  0  0  0  0  0  0  0  0  0  0  0
   26.7789  -19.1064   -7.9841 C   0  0  0  0  0  0  0  0  0  0  0  0
   26.5973  -19.8911   -6.7566 C   0  0  0  0  0  0  0  0  0  0  0  0
   27.1509  -19.4801   -5.5650 O   0  0  0  0  0  0  0  0  0  0  0  0
   25.9336  -20.9459   -6.7855 O   0  0  0  0  0  0  0  0  0  0  0  0
  2  1  1  6
  2  3  1  0
  2 10  1  0
  4  9  1  0
  4  3  1  0
  5  4  2  0
  6  7  2  0
  6  5  1  0
  7  8  1  0
  8  9  2  0
 10 11  2  0
 13 12  1  0
 13 14  2  0
 15 14  1  0
 16 15  2  0
 17 16  1  0
 18 17  1  6
 19 10  1  0
 19 18  1  0
 20 18  1  0
 20 21  2  0
 22 23  2  0
 22 16  1  0
 23 13  1  0
 24 20  1  0
 25 24  1  0
 25 26  1  0
 26 27  1  0
 28 26  2  0
M  END
$$$$
