FYG.pdb
     RDKit          3D

 28 29  0  0  1  0  0  0  0  0999 V2000
   25.2603  -21.6414  -10.5056 N   0  0  0  0  0  0  0  0  0  0  0  0
   25.7378  -20.5084  -11.2502 C   0  0  1  0  0  0  0  0  0  0  0  0
   27.2333  -20.3107  -11.0818 C   0  0  0  0  0  0  0  0  0  0  0  0
   27.5021  -20.0138   -9.6538 C   0  0  0  0  0  0  0  0  0  0  0  0
   28.4181  -20.7030   -8.8984 C   0  0  0  0  0  0  0  0  0  0  0  0
   28.6352  -20.3877   -7.5629 C   0  0  0  0  0  0  0  0  0  0  0  0
   27.9150  -19.3614   -6.9858 C   0  0  0  0  0  0  0  0  0  0  0  0
   26.9836  -18.6520   -7.7331 C   0  0  0  0  0  0  0  0  0  0  0  0
   26.7907  -18.9914   -9.0630 C   0  0  0  0  0  0  0  0  0  0  0  0
   25.4454  -20.6870  -12.7182 C   0  0  0  0  0  0  0  0  0  0  0  0
   25.3865  -21.8273  -13.2174 O   0  0  0  0  0  0  0  0  0  0  0  0
   18.7967  -20.6809  -13.1337 O   0  0  0  0  0  0  0  0  0  0  0  0
   19.9908  -20.1796  -13.6332 C   0  0  0  0  0  0  0  0  0  0  0  0
   20.5374  -18.9792  -13.2072 C   0  0  0  0  0  0  0  0  0  0  0  0
   21.7253  -18.4974  -13.7155 C   0  0  0  0  0  0  0  0  0  0  0  0
   22.4224  -19.1882  -14.6703 C   0  0  0  0  0  0  0  0  0  0  0  0
   23.6764  -18.7851  -15.2771 C   0  0  0  0  0  0  0  0  0  0  0  0
   24.8569  -19.6487  -14.9555 C   0  0  2  0  0  0  0  0  0  0  0  0
   25.2304  -19.5733  -13.5683 N   0  0  0  0  0  0  0  0  0  0  0  0
   25.9808  -19.3440  -15.8728 C   0  0  0  0  0  0  0  0  0  0  0  0
   25.7241  -19.2968  -17.1037 O   0  0  0  0  0  0  0  0  0  0  0  0
   21.8660  -20.3928  -15.0922 C   0  0  0  0  0  0  0  0  0  0  0  0
   20.6875  -20.8813  -14.5950 C   0  0  0  0  0  0  0  0  0  0  0  0
   27.3075  -19.1055  -15.4595 N   0  0  0  0  0  0  0  0  0  0  0  0
   28.3193  -18.8024  -16.4218 C   0  0  0  0  0  0  0  0  0  0  0  0
   28.7853  -19.9657  -17.1867 C   0  0  0  0  0  0  0  0  0  0  0  0
   29.8101  -19.8495  -18.0985 O   0  0  0  0  0  0  0  0  0  0  0  0
   28.2504  -21.0783  -17.0136 O   0  0  0  0  0  0  0  0  0  0  0  0
  2  1  1  1
  2  3  1  0
  2 10  1  0
  4  9  1  0
  4  3  1  0
  5  4  2  0
  6  7  2  0
  6  5  1  0
  7  8  1  0
  8  9  2  0
 10 11  2  0
 13 12  1  0
 13 14  2  0
 15 14  1  0
 16 15  2  0
 17 16  1  0
 18 17  1  1
 19 10  1  0
 19 18  1  0
 20 18  1  0
 20 21  2  0
 22 23  2  0
 22 16  1  0
 23 13  1  0
 24 20  1  0
 25 24  1  0
 25 26  1  0
 26 27  1  0
 28 26  2  0
M  END
$$$$
