VKL.pdb
     RDKit          3D

 25 24  0  0  1  0  0  0  0  0999 V2000
   15.1453  -12.5762  -18.2185 C   0  0  0  0  0  0  0  0  0  0  0  0
   15.9848  -12.7208  -16.9863 C   0  0  1  0  0  0  0  0  0  0  0  0
   15.2261  -13.5639  -15.9958 C   0  0  0  0  0  0  0  0  0  0  0  0
   17.3076  -13.3464  -17.3684 C   0  0  2  0  0  0  0  0  0  0  0  0
   17.2207  -14.7792  -17.2333 N   0  0  0  0  0  0  0  0  0  0  0  0
   18.4311  -12.8366  -16.5548 C   0  0  0  0  0  0  0  0  0  0  0  0
   18.2930  -12.5977  -15.3413 O   0  0  0  0  0  0  0  0  0  0  0  0
   19.6754  -12.6195  -17.1666 N   0  0  0  0  0  0  0  0  0  0  0  0
   20.8382  -12.0295  -16.5353 C   0  0  1  0  0  0  0  0  0  0  0  0
   22.0358  -12.4427  -17.3172 C   0  0  0  0  0  0  0  0  0  0  0  0
   22.3087  -13.9040  -17.1220 C   0  0  0  0  0  0  0  0  0  0  0  0
   23.4877  -14.3659  -17.9151 C   0  0  0  0  0  0  0  0  0  0  0  0
   23.6575  -15.8859  -17.8180 C   0  0  0  0  0  0  0  0  0  0  0  0
   24.8114  -16.2553  -18.5804 N   0  0  0  0  0  0  0  0  0  0  0  0
   20.6469  -10.5464  -16.5490 C   0  0  0  0  0  0  0  0  0  0  0  0
   20.1676  -10.0150  -17.5732 O   0  0  0  0  0  0  0  0  0  0  0  0
   17.4340   -6.3496  -15.9338 C   0  0  0  0  0  0  0  0  0  0  0  0
   18.8888   -6.5872  -16.0592 C   0  0  2  0  0  0  0  0  0  0  0  0
   19.3283   -5.9228  -17.3913 C   0  0  0  0  0  0  0  0  0  0  0  0
   19.4266   -7.9479  -15.9932 C   0  0  0  0  0  0  0  0  0  0  0  0
   20.8161   -8.2290  -15.5820 C   0  0  2  0  0  0  0  0  0  0  0  0
   20.9763   -9.7177  -15.4741 N   0  0  0  0  0  0  0  0  0  0  0  0
   21.2107   -7.7360  -14.2594 C   0  0  0  0  0  0  0  0  0  0  0  0
   21.2259   -8.4337  -13.1925 O   0  0  0  0  0  0  0  0  0  0  0  0
   21.6180   -6.3914  -14.0818 O   0  0  0  0  0  0  0  0  0  0  0  0
  2  1  1  6
  2  4  1  0
  3  2  1  0
  4  5  1  1
  4  6  1  0
  6  8  1  0
  6  7  2  0
  8  9  1  0
  9 10  1  6
 11 10  1  0
 12 11  1  0
 12 13  1  0
 13 14  1  0
 15  9  1  0
 15 22  1  0
 16 15  2  0
 18 17  1  6
 18 20  1  0
 19 18  1  0
 21 20  1  1
 21 22  1  0
 21 23  1  0
 23 25  1  0
 24 23  2  0
M  END
$$$$
