VKL.pdb
     RDKit          3D

 25 24  0  0  1  0  0  0  0  0999 V2000
   30.0917  -31.9086  -19.3076 C   0  0  0  0  0  0  0  0  0  0  0  0
   30.2120  -30.4614  -18.9401 C   0  0  1  0  0  0  0  0  0  0  0  0
   29.9211  -29.6382  -20.1669 C   0  0  0  0  0  0  0  0  0  0  0  0
   29.2475  -30.1626  -17.8142 C   0  0  2  0  0  0  0  0  0  0  0  0
   29.5581  -28.8764  -17.2415 N   0  0  0  0  0  0  0  0  0  0  0  0
   29.2713  -31.1967  -16.7587 C   0  0  0  0  0  0  0  0  0  0  0  0
   30.1705  -31.2208  -15.8988 O   0  0  0  0  0  0  0  0  0  0  0  0
   28.2584  -32.1678  -16.7296 N   0  0  0  0  0  0  0  0  0  0  0  0
   28.0968  -33.1931  -15.7191 C   0  0  1  0  0  0  0  0  0  0  0  0
   26.6424  -33.3125  -15.4244 C   0  0  0  0  0  0  0  0  0  0  0  0
   26.4100  -34.3221  -14.3405 C   0  0  0  0  0  0  0  0  0  0  0  0
   24.9672  -34.4203  -13.9648 C   0  0  0  0  0  0  0  0  0  0  0  0
   24.7552  -35.4526  -12.8520 C   0  0  0  0  0  0  0  0  0  0  0  0
   23.4070  -35.3352  -12.3857 N   0  0  0  0  0  0  0  0  0  0  0  0
   28.6591  -34.4609  -16.2782 C   0  0  0  0  0  0  0  0  0  0  0  0
   28.4269  -34.7418  -17.4734 O   0  0  0  0  0  0  0  0  0  0  0  0
   32.4109  -36.3596  -18.1636 C   0  0  0  0  0  0  0  0  0  0  0  0
   32.4181  -36.1257  -16.7029 C   0  0  2  0  0  0  0  0  0  0  0  0
   33.8212  -36.5550  -16.1969 C   0  0  0  0  0  0  0  0  0  0  0  0
   31.3888  -36.7252  -15.8506 C   0  0  0  0  0  0  0  0  0  0  0  0
   29.9489  -36.6186  -16.1571 C   0  0  2  0  0  0  0  0  0  0  0  0
   29.4338  -35.3536  -15.5343 N   0  0  0  0  0  0  0  0  0  0  0  0
   29.0893  -37.6635  -15.5933 C   0  0  0  0  0  0  0  0  0  0  0  0
   28.3763  -37.5378  -14.5441 O   0  0  0  0  0  0  0  0  0  0  0  0
   28.9965  -38.9339  -16.2119 O   0  0  0  0  0  0  0  0  0  0  0  0
  2  1  1  6
  2  4  1  0
  3  2  1  0
  4  5  1  1
  4  6  1  0
  6  8  1  0
  6  7  2  0
  8  9  1  0
  9 10  1  6
 11 10  1  0
 12 11  1  0
 12 13  1  0
 13 14  1  0
 15  9  1  0
 15 22  1  0
 16 15  2  0
 18 17  1  6
 18 20  1  0
 19 18  1  0
 21 20  1  1
 21 22  1  0
 21 23  1  0
 23 25  1  0
 24 23  2  0
M  END
$$$$
