VKL.pdb
     RDKit          3D

 25 24  0  0  1  0  0  0  0  0999 V2000
   28.7043  -19.1726  -14.0011 C   0  0  0  0  0  0  0  0  0  0  0  0
   27.8517  -18.4769  -15.0174 C   0  0  1  0  0  0  0  0  0  0  0  0
   28.5691  -18.5169  -16.3407 C   0  0  0  0  0  0  0  0  0  0  0  0
   26.5070  -19.1662  -15.0797 C   0  0  2  0  0  0  0  0  0  0  0  0
   25.7322  -18.6153  -16.1636 N   0  0  0  0  0  0  0  0  0  0  0  0
   25.7506  -19.0471  -13.8158 C   0  0  0  0  0  0  0  0  0  0  0  0
   25.3194  -17.9480  -13.4227 O   0  0  0  0  0  0  0  0  0  0  0  0
   25.5165  -20.1982  -13.0477 N   0  0  0  0  0  0  0  0  0  0  0  0
   24.7207  -20.2625  -11.8388 C   0  0  1  0  0  0  0  0  0  0  0  0
   23.4837  -21.0294  -12.1518 C   0  0  0  0  0  0  0  0  0  0  0  0
   22.4680  -20.1396  -12.8035 C   0  0  0  0  0  0  0  0  0  0  0  0
   21.8476  -20.7799  -14.0025 C   0  0  0  0  0  0  0  0  0  0  0  0
   20.8057  -19.8572  -14.6444 C   0  0  0  0  0  0  0  0  0  0  0  0
   20.2410  -20.5375  -15.7702 N   0  0  0  0  0  0  0  0  0  0  0  0
   25.5500  -20.9418  -10.7962 C   0  0  0  0  0  0  0  0  0  0  0  0
   26.6983  -21.3270  -11.1033 O   0  0  0  0  0  0  0  0  0  0  0  0
   28.2408  -20.8498   -6.3082 C   0  0  0  0  0  0  0  0  0  0  0  0
   27.8954  -19.7938   -7.2849 C   0  0  2  0  0  0  0  0  0  0  0  0
   27.5667  -18.5221   -6.4580 C   0  0  0  0  0  0  0  0  0  0  0  0
   26.8401  -20.0164   -8.2758 C   0  0  0  0  0  0  0  0  0  0  0  0
   26.0940  -21.2870   -8.3634 C   0  0  2  0  0  0  0  0  0  0  0  0
   25.1097  -21.1708   -9.4908 N   0  0  0  0  0  0  0  0  0  0  0  0
   25.2635  -21.6296   -7.2053 C   0  0  0  0  0  0  0  0  0  0  0  0
   24.0545  -21.2618   -7.0369 O   0  0  0  0  0  0  0  0  0  0  0  0
   25.7809  -22.4279   -6.1564 O   0  0  0  0  0  0  0  0  0  0  0  0
  2  1  1  1
  2  4  1  0
  3  2  1  0
  4  5  1  6
  4  6  1  0
  6  8  1  0
  6  7  2  0
  8  9  1  0
  9 10  1  6
 11 10  1  0
 12 11  1  0
 12 13  1  0
 13 14  1  0
 15  9  1  0
 15 22  1  0
 16 15  2  0
 18 17  1  1
 18 20  1  0
 19 18  1  0
 21 20  1  1
 21 22  1  0
 21 23  1  0
 23 25  1  0
 24 23  2  0
M  END
$$$$
