VKL.pdb
     RDKit          3D

 25 24  0  0  1  0  0  0  0  0999 V2000
   24.3831  -34.1254  -17.6511 C   0  0  0  0  0  0  0  0  0  0  0  0
   23.4091  -34.5333  -16.5886 C   0  0  1  0  0  0  0  0  0  0  0  0
   23.1363  -36.0064  -16.7402 C   0  0  0  0  0  0  0  0  0  0  0  0
   23.9967  -34.2012  -15.2352 C   0  0  2  0  0  0  0  0  0  0  0  0
   25.3101  -34.7854  -15.1230 N   0  0  0  0  0  0  0  0  0  0  0  0
   23.1473  -34.6671  -14.1193 C   0  0  0  0  0  0  0  0  0  0  0  0
   21.9516  -34.3327  -14.0350 O   0  0  0  0  0  0  0  0  0  0  0  0
   23.7041  -35.5024  -13.1384 N   0  0  0  0  0  0  0  0  0  0  0  0
   23.0070  -36.0381  -11.9870 C   0  0  1  0  0  0  0  0  0  0  0  0
   22.9276  -37.5154  -12.1533 C   0  0  0  0  0  0  0  0  0  0  0  0
   21.6810  -37.8913  -12.8969 C   0  0  0  0  0  0  0  0  0  0  0  0
   21.5637  -39.3688  -13.0854 C   0  0  0  0  0  0  0  0  0  0  0  0
   20.2713  -39.7304  -13.8254 C   0  0  0  0  0  0  0  0  0  0  0  0
   20.1767  -41.1574  -13.8865 N   0  0  0  0  0  0  0  0  0  0  0  0
   23.7923  -35.6543  -10.7736 C   0  0  0  0  0  0  0  0  0  0  0  0
   25.0397  -35.6471  -10.8466 O   0  0  0  0  0  0  0  0  0  0  0  0
   26.5748  -32.9916   -7.9328 C   0  0  0  0  0  0  0  0  0  0  0  0
   25.3691  -32.6050   -8.6978 C   0  0  2  0  0  0  0  0  0  0  0  0
   25.1423  -31.0940   -8.4248 C   0  0  0  0  0  0  0  0  0  0  0  0
   24.1090  -33.3278   -8.5115 C   0  0  0  0  0  0  0  0  0  0  0  0
   24.0487  -34.7998   -8.4203 C   0  0  2  0  0  0  0  0  0  0  0  0
   23.2055  -35.3014   -9.5564 N   0  0  0  0  0  0  0  0  0  0  0  0
   23.3944  -35.3470   -7.2284 C   0  0  0  0  0  0  0  0  0  0  0  0
   23.9733  -36.0396   -6.3282 O   0  0  0  0  0  0  0  0  0  0  0  0
   22.0149  -35.1266   -6.9965 O   0  0  0  0  0  0  0  0  0  0  0  0
  2  1  1  6
  2  4  1  0
  3  2  1  0
  4  5  1  1
  4  6  1  0
  6  8  1  0
  6  7  2  0
  8  9  1  0
  9 10  1  6
 11 10  1  0
 12 11  1  0
 12 13  1  0
 13 14  1  0
 15  9  1  0
 15 22  1  0
 16 15  2  0
 18 17  1  1
 18 20  1  0
 19 18  1  0
 21 20  1  1
 21 22  1  0
 21 23  1  0
 23 25  1  0
 24 23  2  0
M  END
$$$$
