VKL.pdb
     RDKit          3D

 25 24  0  0  1  0  0  0  0  0999 V2000
   31.6127   -6.5920  -16.7692 C   0  0  0  0  0  0  0  0  0  0  0  0
   32.1092   -5.4794  -17.6406 C   0  0  1  0  0  0  0  0  0  0  0  0
   31.7221   -4.1721  -17.0015 C   0  0  0  0  0  0  0  0  0  0  0  0
   33.6076   -5.6135  -17.7960 C   0  0  2  0  0  0  0  0  0  0  0  0
   34.0758   -4.6755  -18.7858 N   0  0  0  0  0  0  0  0  0  0  0  0
   34.0175   -6.9823  -18.1735 C   0  0  0  0  0  0  0  0  0  0  0  0
   33.8110   -7.4254  -19.3179 O   0  0  0  0  0  0  0  0  0  0  0  0
   34.6513   -7.7940  -17.2200 N   0  0  0  0  0  0  0  0  0  0  0  0
   35.1081   -9.1521  -17.4331 C   0  0  1  0  0  0  0  0  0  0  0  0
   36.1212   -9.4581  -16.3861 C   0  0  0  0  0  0  0  0  0  0  0  0
   36.6680  -10.8412  -16.5763 C   0  0  0  0  0  0  0  0  0  0  0  0
   37.7723  -11.1452  -15.6169 C   0  0  0  0  0  0  0  0  0  0  0  0
   38.4223  -12.4967  -15.9331 C   0  0  0  0  0  0  0  0  0  0  0  0
   39.3421  -12.8062  -14.8809 N   0  0  0  0  0  0  0  0  0  0  0  0
   33.9125  -10.0445  -17.3309 C   0  0  0  0  0  0  0  0  0  0  0  0
   33.0641   -9.8079  -16.4445 O   0  0  0  0  0  0  0  0  0  0  0  0
   29.0160  -10.5086  -19.4182 C   0  0  0  0  0  0  0  0  0  0  0  0
   29.9376  -11.3962  -18.6757 C   0  0  2  0  0  0  0  0  0  0  0  0
   29.2005  -11.8011  -17.3712 C   0  0  0  0  0  0  0  0  0  0  0  0
   31.2945  -10.9513  -18.3501 C   0  0  0  0  0  0  0  0  0  0  0  0
   32.4004  -11.8991  -18.1106 C   0  0  2  0  0  0  0  0  0  0  0  0
   33.6902  -11.1339  -18.1760 N   0  0  0  0  0  0  0  0  0  0  0  0
   32.5697  -12.9597  -19.1080 C   0  0  0  0  0  0  0  0  0  0  0  0
   32.0627  -14.1267  -19.0290 O   0  0  0  0  0  0  0  0  0  0  0  0
   33.3431  -12.7383  -20.2734 O   0  0  0  0  0  0  0  0  0  0  0  0
  2  1  1  1
  2  4  1  0
  3  2  1  0
  4  5  1  6
  4  6  1  0
  6  8  1  0
  6  7  2  0
  8  9  1  0
  9 10  1  1
 11 10  1  0
 12 11  1  0
 12 13  1  0
 13 14  1  0
 15  9  1  0
 15 22  1  0
 16 15  2  0
 18 17  1  1
 18 20  1  0
 19 18  1  0
 21 20  1  6
 21 22  1  0
 21 23  1  0
 23 25  1  0
 24 23  2  0
M  END
$$$$
