VKL.pdb
     RDKit          3D

 25 24  0  0  1  0  0  0  0  0999 V2000
   22.6744  -19.1553  -22.2485 C   0  0  0  0  0  0  0  0  0  0  0  0
   23.9761  -18.4167  -22.3101 C   0  0  1  0  0  0  0  0  0  0  0  0
   24.0117  -17.6314  -23.5944 C   0  0  0  0  0  0  0  0  0  0  0  0
   24.0876  -17.5231  -21.0951 C   0  0  2  0  0  0  0  0  0  0  0  0
   25.2499  -16.6795  -21.2216 N   0  0  0  0  0  0  0  0  0  0  0  0
   24.1630  -18.2893  -19.8337 C   0  0  0  0  0  0  0  0  0  0  0  0
   23.2715  -19.0967  -19.5145 O   0  0  0  0  0  0  0  0  0  0  0  0
   25.2629  -18.0994  -18.9828 N   0  0  0  0  0  0  0  0  0  0  0  0
   25.4706  -18.7552  -17.7079 C   0  0  1  0  0  0  0  0  0  0  0  0
   26.7302  -18.2187  -17.1232 C   0  0  0  0  0  0  0  0  0  0  0  0
   27.2603  -19.1531  -16.0772 C   0  0  0  0  0  0  0  0  0  0  0  0
   27.6385  -20.4804  -16.6497 C   0  0  0  0  0  0  0  0  0  0  0  0
   28.1692  -21.4203  -15.5617 C   0  0  0  0  0  0  0  0  0  0  0  0
   28.4436  -22.6895  -16.1639 N   0  0  0  0  0  0  0  0  0  0  0  0
   24.2832  -18.4493  -16.8519 C   0  0  0  0  0  0  0  0  0  0  0  0
   23.9306  -17.2576  -16.7228 O   0  0  0  0  0  0  0  0  0  0  0  0
   19.6251  -17.7108  -14.7155 C   0  0  0  0  0  0  0  0  0  0  0  0
   20.2204  -17.6476  -16.0683 C   0  0  2  0  0  0  0  0  0  0  0  0
   19.0484  -17.8178  -17.0716 C   0  0  0  0  0  0  0  0  0  0  0  0
   21.3142  -18.5477  -16.4403 C   0  0  0  0  0  0  0  0  0  0  0  0
   22.2830  -19.0636  -15.4533 C   0  0  2  0  0  0  0  0  0  0  0  0
   23.5422  -19.4275  -16.1850 N   0  0  0  0  0  0  0  0  0  0  0  0
   21.9064  -20.3011  -14.7643 C   0  0  0  0  0  0  0  0  0  0  0  0
   22.1270  -21.4784  -15.2008 O   0  0  0  0  0  0  0  0  0  0  0  0
   21.2444  -20.2584  -13.5132 O   0  0  0  0  0  0  0  0  0  0  0  0
  2  1  1  1
  2  4  1  0
  3  2  1  0
  4  5  1  6
  4  6  1  0
  6  8  1  0
  6  7  2  0
  8  9  1  0
  9 10  1  1
 11 10  1  0
 12 11  1  0
 12 13  1  0
 13 14  1  0
 15  9  1  0
 15 22  1  0
 16 15  2  0
 18 17  1  1
 18 20  1  0
 19 18  1  0
 21 20  1  6
 21 22  1  0
 21 23  1  0
 23 25  1  0
 24 23  2  0
M  END
$$$$
