VKL.pdb
     RDKit          3D

 25 24  0  0  1  0  0  0  0  0999 V2000
   32.6427  -31.0130  -18.1851 C   0  0  0  0  0  0  0  0  0  0  0  0
   33.1649  -30.8431  -19.5788 C   0  0  1  0  0  0  0  0  0  0  0  0
   34.6038  -30.4076  -19.4928 C   0  0  0  0  0  0  0  0  0  0  0  0
   33.0114  -32.1524  -20.3199 C   0  0  2  0  0  0  0  0  0  0  0  0
   33.2931  -31.9506  -21.7194 N   0  0  0  0  0  0  0  0  0  0  0  0
   31.6636  -32.7377  -20.1624 C   0  0  0  0  0  0  0  0  0  0  0  0
   30.6706  -32.2289  -20.7136 O   0  0  0  0  0  0  0  0  0  0  0  0
   31.5055  -33.8890  -19.3755 N   0  0  0  0  0  0  0  0  0  0  0  0
   30.2774  -34.6394  -19.2095 C   0  0  1  0  0  0  0  0  0  0  0  0
   30.6452  -36.0274  -18.8163 C   0  0  0  0  0  0  0  0  0  0  0  0
   30.8823  -36.8699  -20.0337 C   0  0  0  0  0  0  0  0  0  0  0  0
   32.2460  -37.4806  -20.0369 C   0  0  0  0  0  0  0  0  0  0  0  0
   32.4089  -38.4622  -21.2026 C   0  0  0  0  0  0  0  0  0  0  0  0
   33.7484  -38.9661  -21.1773 N   0  0  0  0  0  0  0  0  0  0  0  0
   29.4765  -33.9526  -18.1499 C   0  0  0  0  0  0  0  0  0  0  0  0
   30.0564  -33.1490  -17.3889 O   0  0  0  0  0  0  0  0  0  0  0  0
   26.8966  -29.4209  -17.3360 C   0  0  0  0  0  0  0  0  0  0  0  0
   26.8409  -30.7798  -16.7539 C   0  0  2  0  0  0  0  0  0  0  0  0
   27.2917  -30.6422  -15.2751 C   0  0  0  0  0  0  0  0  0  0  0  0
   27.5654  -31.8864  -17.3828 C   0  0  0  0  0  0  0  0  0  0  0  0
   27.3280  -33.2962  -17.0154 C   0  0  2  0  0  0  0  0  0  0  0  0
   28.1082  -34.1607  -17.9626 N   0  0  0  0  0  0  0  0  0  0  0  0
   25.9503  -33.7767  -17.1543 C   0  0  0  0  0  0  0  0  0  0  0  0
   25.0049  -33.5367  -16.3334 O   0  0  0  0  0  0  0  0  0  0  0  0
   25.5715  -34.5733  -18.2621 O   0  0  0  0  0  0  0  0  0  0  0  0
  2  1  1  1
  2  4  1  0
  3  2  1  0
  4  5  1  6
  4  6  1  0
  6  8  1  0
  6  7  2  0
  8  9  1  0
  9 10  1  1
 11 10  1  0
 12 11  1  0
 12 13  1  0
 13 14  1  0
 15  9  1  0
 15 22  1  0
 16 15  2  0
 18 17  1  6
 18 20  1  0
 19 18  1  0
 21 20  1  6
 21 22  1  0
 21 23  1  0
 23 25  1  0
 24 23  2  0
M  END
$$$$
