VKL.pdb
     RDKit          3D

 25 24  0  0  1  0  0  0  0  0999 V2000
   17.8724  -16.5479  -18.9692 C   0  0  0  0  0  0  0  0  0  0  0  0
   18.7852  -15.3664  -19.0909 C   0  0  1  0  0  0  0  0  0  0  0  0
   18.5477  -14.7238  -20.4318 C   0  0  0  0  0  0  0  0  0  0  0  0
   18.5066  -14.4154  -17.9484 C   0  0  2  0  0  0  0  0  0  0  0  0
   17.0926  -14.1411  -17.8829 N   0  0  0  0  0  0  0  0  0  0  0  0
   19.2549  -13.1471  -18.0720 C   0  0  0  0  0  0  0  0  0  0  0  0
   20.4923  -13.1127  -17.9446 O   0  0  0  0  0  0  0  0  0  0  0  0
   18.5524  -11.9616  -18.3380 N   0  0  0  0  0  0  0  0  0  0  0  0
   19.1365  -10.6425  -18.4706 C   0  0  1  0  0  0  0  0  0  0  0  0
   18.1561   -9.7840  -19.1903 C   0  0  0  0  0  0  0  0  0  0  0  0
   18.7257   -9.3242  -20.4988 C   0  0  0  0  0  0  0  0  0  0  0  0
   18.6135  -10.3712  -21.5588 C   0  0  0  0  0  0  0  0  0  0  0  0
   19.2111   -9.8830  -22.8830 C   0  0  0  0  0  0  0  0  0  0  0  0
   19.1001  -10.9420  -23.8396 N   0  0  0  0  0  0  0  0  0  0  0  0
   19.4129  -10.1379  -17.0903 C   0  0  0  0  0  0  0  0  0  0  0  0
   18.6175  -10.4368  -16.1742 O   0  0  0  0  0  0  0  0  0  0  0  0
   22.5277   -8.8977  -12.6523 C   0  0  0  0  0  0  0  0  0  0  0  0
   22.4543  -10.0501  -13.5770 C   0  0  2  0  0  0  0  0  0  0  0  0
   23.8513  -10.7257  -13.5477 C   0  0  0  0  0  0  0  0  0  0  0  0
   22.0346   -9.8601  -14.9673 C   0  0  0  0  0  0  0  0  0  0  0  0
   20.8524   -9.0552  -15.3326 C   0  0  2  0  0  0  0  0  0  0  0  0
   20.5172   -9.3466  -16.7665 N   0  0  0  0  0  0  0  0  0  0  0  0
   21.0266   -7.6002  -15.3008 C   0  0  0  0  0  0  0  0  0  0  0  0
   21.4103   -6.8871  -16.2853 O   0  0  0  0  0  0  0  0  0  0  0  0
   20.7655   -6.8674  -14.1175 O   0  0  0  0  0  0  0  0  0  0  0  0
  2  1  1  1
  2  4  1  0
  3  2  1  0
  4  5  1  6
  4  6  1  0
  6  8  1  0
  6  7  2  0
  8  9  1  0
  9 10  1  1
 11 10  1  0
 12 11  1  0
 12 13  1  0
 13 14  1  0
 15  9  1  0
 15 22  1  0
 16 15  2  0
 18 17  1  6
 18 20  1  0
 19 18  1  0
 21 20  1  6
 21 22  1  0
 21 23  1  0
 23 25  1  0
 24 23  2  0
M  END
$$$$
