VKL.pdb
     RDKit          3D

 25 24  0  0  1  0  0  0  0  0999 V2000
   21.4113  -19.5529  -17.7080 C   0  0  0  0  0  0  0  0  0  0  0  0
   21.7076  -18.2761  -18.4331 C   0  0  1  0  0  0  0  0  0  0  0  0
   20.5542  -17.9791  -19.3544 C   0  0  0  0  0  0  0  0  0  0  0  0
   21.9201  -17.1763  -17.4169 C   0  0  2  0  0  0  0  0  0  0  0  0
   20.7648  -17.0820  -16.5595 N   0  0  0  0  0  0  0  0  0  0  0  0
   22.1811  -15.8655  -18.0473 C   0  0  0  0  0  0  0  0  0  0  0  0
   23.1317  -15.7055  -18.8343 O   0  0  0  0  0  0  0  0  0  0  0  0
   21.3382  -14.7835  -17.7496 N   0  0  0  0  0  0  0  0  0  0  0  0
   21.4540  -13.4453  -18.2924 C   0  0  1  0  0  0  0  0  0  0  0  0
   20.0814  -12.9679  -18.6155 C   0  0  0  0  0  0  0  0  0  0  0  0
   19.6407  -13.5047  -19.9444 C   0  0  0  0  0  0  0  0  0  0  0  0
   18.2942  -12.9911  -20.3389 C   0  0  0  0  0  0  0  0  0  0  0  0
   17.8471  -13.5857  -21.6788 C   0  0  0  0  0  0  0  0  0  0  0  0
   16.4895  -13.1946  -21.9093 N   0  0  0  0  0  0  0  0  0  0  0  0
   22.1087  -12.5975  -17.2490 C   0  0  0  0  0  0  0  0  0  0  0  0
   21.7521  -12.7323  -16.0591 O   0  0  0  0  0  0  0  0  0  0  0  0
   26.4879   -9.4405  -15.3705 C   0  0  0  0  0  0  0  0  0  0  0  0
   25.9622  -10.8076  -15.1627 C   0  0  2  0  0  0  0  0  0  0  0  0
   27.1973  -11.7281  -14.9720 C   0  0  0  0  0  0  0  0  0  0  0  0
   25.0530  -11.4094  -16.1407 C   0  0  0  0  0  0  0  0  0  0  0  0
   23.7202  -10.8457  -16.4315 C   0  0  2  0  0  0  0  0  0  0  0  0
   23.1025  -11.6580  -17.5324 N   0  0  0  0  0  0  0  0  0  0  0  0
   23.6976   -9.4752  -16.9505 C   0  0  0  0  0  0  0  0  0  0  0  0
   23.7386   -9.1589  -18.1847 O   0  0  0  0  0  0  0  0  0  0  0  0
   23.6248   -8.3699  -16.0681 O   0  0  0  0  0  0  0  0  0  0  0  0
  2  1  1  1
  2  4  1  0
  3  2  1  0
  4  5  1  6
  4  6  1  0
  6  8  1  0
  6  7  2  0
  8  9  1  0
  9 10  1  1
 11 10  1  0
 12 11  1  0
 12 13  1  0
 13 14  1  0
 15  9  1  0
 15 22  1  0
 16 15  2  0
 18 17  1  6
 18 20  1  0
 19 18  1  0
 21 20  1  6
 21 22  1  0
 21 23  1  0
 23 25  1  0
 24 23  2  0
M  END
$$$$
