ARG.pdb
     RDKit          3D

 21 20  0  0  1  0  0  0  0  0999 V2000
   11.9099  -19.4694   21.7243 C   0  0  0  0  0  0  0  0  0  0  0  0
   11.4466  -18.2831   20.9236 C   0  0  2  0  0  0  0  0  0  0  0  0
   12.4872  -17.8279   20.0494 N   0  0  0  0  0  0  0  0  0  0  0  0
   10.9668  -17.2010   21.8176 C   0  0  0  0  0  0  0  0  0  0  0  0
   11.8048  -16.5942   22.5418 O   0  0  0  0  0  0  0  0  0  0  0  0
    7.2832  -12.4072   18.1793 N   0  0  0  0  0  0  0  0  0  0  0  0
    7.8402  -13.6540   17.7159 C   0  0  0  0  0  0  0  0  0  0  0  0
    8.1216  -13.8316   16.4709 N   0  0  0  0  0  0  0  0  0  0  0  0
    8.0975  -14.7266   18.6078 N   0  0  0  0  0  0  0  0  0  0  0  0
    7.4686  -14.8833   19.8957 C   0  0  0  0  0  0  0  0  0  0  0  0
    8.1980  -14.1590   21.0152 C   0  0  0  0  0  0  0  0  0  0  0  0
    7.9979  -14.9761   22.2665 C   0  0  0  0  0  0  0  0  0  0  0  0
    9.2137  -15.6912   22.7263 C   0  0  2  0  0  0  0  0  0  0  0  0
    9.6280  -16.7977   21.9184 N   0  0  0  0  0  0  0  0  0  0  0  0
    9.0190  -16.1135   24.1580 C   0  0  0  0  0  0  0  0  0  0  0  0
    8.1605  -16.9685   24.4764 O   0  0  0  0  0  0  0  0  0  0  0  0
    8.6091  -14.6971   16.1271 N   0  0  0  0  0  0  0  0  0  0  0  0
    9.8072  -15.5533   25.2111 C   0  0  0  0  0  0  0  0  0  0  0  0
    9.6017  -15.9587   26.6064 C   0  0  0  0  0  0  0  0  0  0  0  0
   10.6184  -16.9212   27.0413 O   0  0  0  0  0  0  0  0  0  0  0  0
   11.4462  -17.3857   26.2322 O   0  0  0  0  0  0  0  0  0  0  0  0
  2  1  1  1
  3  2  1  0
  4  5  2  0
  4  2  1  0
  7  6  1  0
  8  7  2  0
  9  7  1  0
 10  9  1  0
 10 11  1  0
 11 12  1  0
 13 12  1  6
 13 14  1  0
 14  4  1  0
 15 13  1  0
 15 17  1  0
 16 15  2  0
 18 17  1  0
 18 19  1  0
 19 21  1  0
 20 19  2  0
M  END
$$$$
