ARG.pdb
     RDKit          3D

 21 20  0  0  1  0  0  0  0  0999 V2000
    5.3333  -19.7205   20.1265 C   0  0  0  0  0  0  0  0  0  0  0  0
    6.5342  -19.2827   20.9198 C   0  0  2  0  0  0  0  0  0  0  0  0
    7.6508  -20.1427   20.6594 N   0  0  0  0  0  0  0  0  0  0  0  0
    6.2136  -19.2204   22.3668 C   0  0  0  0  0  0  0  0  0  0  0  0
    5.2962  -18.4435   22.7534 O   0  0  0  0  0  0  0  0  0  0  0  0
    3.9395  -26.0345   25.2831 N   0  0  0  0  0  0  0  0  0  0  0  0
    2.9993  -25.0726   24.7633 C   0  0  0  0  0  0  0  0  0  0  0  0
    1.8309  -25.4387   24.3616 N   0  0  0  0  0  0  0  0  0  0  0  0
    3.3232  -23.6944   24.6745 N   0  0  0  0  0  0  0  0  0  0  0  0
    4.5736  -23.1224   25.1081 C   0  0  0  0  0  0  0  0  0  0  0  0
    4.6659  -21.6240   24.8709 C   0  0  0  0  0  0  0  0  0  0  0  0
    6.0354  -21.1929   25.3313 C   0  0  0  0  0  0  0  0  0  0  0  0
    6.5035  -19.9176   24.7350 C   0  0  2  0  0  0  0  0  0  0  0  0
    6.8673  -19.9738   23.3518 N   0  0  0  0  0  0  0  0  0  0  0  0
    7.6350  -19.3763   25.5674 C   0  0  0  0  0  0  0  0  0  0  0  0
    8.8312  -19.5780   25.2548 O   0  0  0  0  0  0  0  0  0  0  0  0
    1.1372  -24.7550   23.9661 N   0  0  0  0  0  0  0  0  0  0  0  0
    7.3871  -18.6108   26.7492 C   0  0  0  0  0  0  0  0  0  0  0  0
    8.4862  -17.9625   27.4738 C   0  0  0  0  0  0  0  0  0  0  0  0
    8.9542  -18.7889   28.5907 O   0  0  0  0  0  0  0  0  0  0  0  0
    8.4969  -19.9349   28.7731 O   0  0  0  0  0  0  0  0  0  0  0  0
  2  1  1  6
  3  2  1  0
  4  5  2  0
  4  2  1  0
  7  6  1  0
  8  7  2  0
  9  7  1  0
 10  9  1  0
 10 11  1  0
 11 12  1  0
 13 12  1  1
 13 14  1  0
 14  4  1  0
 15 13  1  0
 15 17  1  0
 16 15  2  0
 18 17  1  0
 18 19  1  0
 19 21  1  0
 20 19  2  0
M  END
$$$$
