ARG.pdb
     RDKit          3D

 21 20  0  0  1  0  0  0  0  0999 V2000
    8.8896  -20.5422   23.0516 C   0  0  0  0  0  0  0  0  0  0  0  0
    8.5020  -19.8261   21.7867 C   0  0  2  0  0  0  0  0  0  0  0  0
    8.8218  -20.6223   20.6387 N   0  0  0  0  0  0  0  0  0  0  0  0
    9.1404  -18.4886   21.7236 C   0  0  0  0  0  0  0  0  0  0  0  0
   10.2224  -18.3609   21.0850 O   0  0  0  0  0  0  0  0  0  0  0  0
    8.7769  -14.3729   18.0662 N   0  0  0  0  0  0  0  0  0  0  0  0
    7.6811  -13.4483   18.2207 C   0  0  0  0  0  0  0  0  0  0  0  0
    6.9271  -13.1419   17.2217 N   0  0  0  0  0  0  0  0  0  0  0  0
    7.3935  -12.8439   19.4714 N   0  0  0  0  0  0  0  0  0  0  0  0
    8.0240  -13.2082   20.7158 C   0  0  0  0  0  0  0  0  0  0  0  0
    7.6811  -14.6154   21.1764 C   0  0  0  0  0  0  0  0  0  0  0  0
    8.4860  -14.8741   22.4249 C   0  0  0  0  0  0  0  0  0  0  0  0
    9.3282  -16.0940   22.3631 C   0  0  2  0  0  0  0  0  0  0  0  0
    8.6206  -17.3378   22.3326 N   0  0  0  0  0  0  0  0  0  0  0  0
   10.3144  -16.0637   23.5000 C   0  0  0  0  0  0  0  0  0  0  0  0
    9.9354  -16.0359   24.6937 O   0  0  0  0  0  0  0  0  0  0  0  0
    6.1355  -12.4559   17.3098 N   0  0  0  0  0  0  0  0  0  0  0  0
   11.7239  -16.0648   23.2603 C   0  0  0  0  0  0  0  0  0  0  0  0
   12.6796  -16.0590   24.3739 C   0  0  0  0  0  0  0  0  0  0  0  0
   14.0563  -15.8899   23.8991 O   0  0  0  0  0  0  0  0  0  0  0  0
   14.3134  -15.8689   22.6787 O   0  0  0  0  0  0  0  0  0  0  0  0
  2  1  1  1
  3  2  1  0
  4  5  2  0
  4  2  1  0
  7  6  1  0
  8  7  2  0
  9  7  1  0
 10  9  1  0
 10 11  1  0
 11 12  1  0
 13 12  1  1
 13 14  1  0
 14  4  1  0
 15 13  1  0
 15 17  1  0
 16 15  2  0
 18 17  1  0
 18 19  1  0
 19 21  1  0
 20 19  2  0
M  END
$$$$
