ARG.pdb
     RDKit          3D

 21 20  0  0  1  0  0  0  0  0999 V2000
    8.4213  -20.1167   18.9546 C   0  0  0  0  0  0  0  0  0  0  0  0
    8.9562  -19.8835   20.3411 C   0  0  2  0  0  0  0  0  0  0  0  0
    7.9676  -20.2144   21.3247 N   0  0  0  0  0  0  0  0  0  0  0  0
    9.4358  -18.4879   20.4913 C   0  0  0  0  0  0  0  0  0  0  0  0
   10.3872  -18.0902   19.7622 O   0  0  0  0  0  0  0  0  0  0  0  0
    7.4223  -15.0631   17.6987 N   0  0  0  0  0  0  0  0  0  0  0  0
    7.6793  -13.6508   17.8362 C   0  0  0  0  0  0  0  0  0  0  0  0
    8.0207  -12.9375   16.8187 N   0  0  0  0  0  0  0  0  0  0  0  0
    7.5672  -12.9968   19.0900 N   0  0  0  0  0  0  0  0  0  0  0  0
    7.1126  -13.6320   20.3018 C   0  0  0  0  0  0  0  0  0  0  0  0
    7.5653  -15.0771   20.4317 C   0  0  0  0  0  0  0  0  0  0  0  0
    8.4781  -15.1423   21.6301 C   0  0  0  0  0  0  0  0  0  0  0  0
    9.4548  -16.2583   21.5900 C   0  0  2  0  0  0  0  0  0  0  0  0
    8.9004  -17.5641   21.3998 N   0  0  0  0  0  0  0  0  0  0  0  0
   10.3023  -16.2094   22.8332 C   0  0  0  0  0  0  0  0  0  0  0  0
    9.7905  -16.2568   23.9756 O   0  0  0  0  0  0  0  0  0  0  0  0
    8.2797  -11.9229   16.9103 N   0  0  0  0  0  0  0  0  0  0  0  0
   11.7263  -16.1062   22.7574 C   0  0  0  0  0  0  0  0  0  0  0  0
   12.5531  -16.1580   23.9686 C   0  0  0  0  0  0  0  0  0  0  0  0
   13.9820  -16.0960   23.6465 O   0  0  0  0  0  0  0  0  0  0  0  0
   14.3701  -16.0879   22.4610 O   0  0  0  0  0  0  0  0  0  0  0  0
  2  1  1  6
  3  2  1  0
  4  5  2  0
  4  2  1  0
  7  6  1  0
  8  7  2  0
  9  7  1  0
 10  9  1  0
 10 11  1  0
 11 12  1  0
 13 12  1  1
 13 14  1  0
 14  4  1  0
 15 13  1  0
 15 17  1  0
 16 15  2  0
 18 17  1  0
 18 19  1  0
 19 21  1  0
 20 19  2  0
M  END
$$$$
