ARG.pdb
     RDKit          3D

 21 20  0  0  1  0  0  0  0  0999 V2000
    8.9562  -21.3684   20.1591 C   0  0  0  0  0  0  0  0  0  0  0  0
    9.7128  -20.7299   21.2918 C   0  0  2  0  0  0  0  0  0  0  0  0
    9.0250  -20.9301   22.5332 N   0  0  0  0  0  0  0  0  0  0  0  0
    9.9497  -19.2911   21.0200 C   0  0  0  0  0  0  0  0  0  0  0  0
   10.8029  -18.9698   20.1461 O   0  0  0  0  0  0  0  0  0  0  0  0
    7.9599  -12.9800   17.1212 N   0  0  0  0  0  0  0  0  0  0  0  0
    8.1828  -12.9070   18.5441 C   0  0  0  0  0  0  0  0  0  0  0  0
    9.1435  -12.1979   19.0286 N   0  0  0  0  0  0  0  0  0  0  0  0
    7.3576  -13.6096   19.4594 N   0  0  0  0  0  0  0  0  0  0  0  0
    7.6190  -13.7184   20.8731 C   0  0  0  0  0  0  0  0  0  0  0  0
    8.8907  -14.4863   21.1940 C   0  0  0  0  0  0  0  0  0  0  0  0
    8.4886  -15.9221   21.4181 C   0  0  0  0  0  0  0  0  0  0  0  0
    9.6284  -16.8698   21.4810 C   0  0  2  0  0  0  0  0  0  0  0  0
    9.2841  -18.2454   21.6749 N   0  0  0  0  0  0  0  0  0  0  0  0
   10.5933  -16.4025   22.5377 C   0  0  0  0  0  0  0  0  0  0  0  0
   10.3206  -16.4910   23.7572 O   0  0  0  0  0  0  0  0  0  0  0  0
    9.3664  -12.1877   20.0558 N   0  0  0  0  0  0  0  0  0  0  0  0
   11.8599  -15.8381   22.1892 C   0  0  0  0  0  0  0  0  0  0  0  0
   12.8573  -15.5265   23.2195 C   0  0  0  0  0  0  0  0  0  0  0  0
   13.8693  -16.5821   23.3239 O   0  0  0  0  0  0  0  0  0  0  0  0
   13.5401  -17.7615   23.5616 O   0  0  0  0  0  0  0  0  0  0  0  0
  2  1  1  6
  3  2  1  0
  4  5  2  0
  4  2  1  0
  7  6  1  0
  8  7  2  0
  9  7  1  0
 10  9  1  0
 10 11  1  0
 11 12  1  0
 13 12  1  1
 13 14  1  0
 14  4  1  0
 15 13  1  0
 15 17  1  0
 16 15  2  0
 18 17  1  0
 18 19  1  0
 19 21  1  0
 20 19  2  0
M  END
$$$$
