ARG.pdb
     RDKit          3D

 21 20  0  0  1  0  0  0  0  0999 V2000
    7.2022  -11.5077   26.9344 C   0  0  0  0  0  0  0  0  0  0  0  0
    6.1730  -12.2822   26.1573 C   0  0  2  0  0  0  0  0  0  0  0  0
    5.0656  -12.6319   26.9973 N   0  0  0  0  0  0  0  0  0  0  0  0
    6.7825  -13.4774   25.5247 C   0  0  0  0  0  0  0  0  0  0  0  0
    6.7616  -14.5740   26.1506 O   0  0  0  0  0  0  0  0  0  0  0  0
   10.1962  -13.5712   18.9017 N   0  0  0  0  0  0  0  0  0  0  0  0
    8.8638  -13.6811   18.3613 C   0  0  0  0  0  0  0  0  0  0  0  0
    8.6660  -14.1461   17.1759 N   0  0  0  0  0  0  0  0  0  0  0  0
    7.7264  -13.2831   19.1098 N   0  0  0  0  0  0  0  0  0  0  0  0
    7.7539  -12.9323   20.5079 C   0  0  0  0  0  0  0  0  0  0  0  0
    7.1298  -13.9871   21.4068 C   0  0  0  0  0  0  0  0  0  0  0  0
    8.2484  -14.5797   22.2258 C   0  0  0  0  0  0  0  0  0  0  0  0
    7.9644  -14.6520   23.6802 C   0  0  2  0  0  0  0  0  0  0  0  0
    7.3906  -13.4766   24.2615 N   0  0  0  0  0  0  0  0  0  0  0  0
    9.2229  -15.0506   24.4036 C   0  0  0  0  0  0  0  0  0  0  0  0
   10.1012  -14.2080   24.7003 O   0  0  0  0  0  0  0  0  0  0  0  0
    7.7071  -14.1936   16.7480 N   0  0  0  0  0  0  0  0  0  0  0  0
    9.4647  -16.4086   24.7797 C   0  0  0  0  0  0  0  0  0  0  0  0
   10.6981  -16.7914   25.4766 C   0  0  0  0  0  0  0  0  0  0  0  0
   10.7037  -18.2182   25.8137 O   0  0  0  0  0  0  0  0  0  0  0  0
    9.7153  -18.9374   25.5652 O   0  0  0  0  0  0  0  0  0  0  0  0
  2  1  1  1
  3  2  1  0
  4  5  2  0
  4  2  1  0
  7  6  1  0
  8  7  2  0
  9  7  1  0
 10  9  1  0
 10 11  1  0
 11 12  1  0
 13 12  1  6
 13 14  1  0
 14  4  1  0
 15 13  1  0
 15 17  1  0
 16 15  2  0
 18 17  1  0
 18 19  1  0
 19 21  1  0
 20 19  2  0
M  END
$$$$
