PIF.pdb
     RDKit          3D

 27 28  0  0  1  0  0  0  0  0999 V2000
   28.0888  -20.9184  -14.9711 N   0  0  0  0  0  0  0  0  0  0  0  0
   28.3294  -20.8712  -16.3859 C   0  0  0  0  0  0  0  0  0  0  0  0
   27.7017  -19.5730  -16.8156 C   0  0  0  0  0  0  0  0  0  0  0  0
   27.9223  -18.6541  -15.6479 C   0  0  0  0  0  0  0  0  0  0  0  0
   28.1751  -19.5534  -14.4845 C   0  0  1  0  0  0  0  0  0  0  0  0
   27.1839  -19.3965  -13.3898 C   0  0  0  0  0  0  0  0  0  0  0  0
   26.9071  -18.2491  -12.8997 O   0  0  0  0  0  0  0  0  0  0  0  0
   22.9111  -19.4526  -13.1276 C   0  0  0  0  0  0  0  0  0  0  0  0
   23.6032  -20.7864  -13.2880 C   0  0  0  0  0  0  0  0  0  0  0  0
   24.3670  -21.2044  -12.0896 C   0  0  2  0  0  0  0  0  0  0  0  0
   23.3969  -21.3003  -10.9010 C   0  0  0  0  0  0  0  0  0  0  0  0
   25.5246  -20.2816  -11.7029 C   0  0  2  0  0  0  0  0  0  0  0  0
   26.4858  -20.4921  -12.8203 N   0  0  0  0  0  0  0  0  0  0  0  0
   26.1667  -20.6304  -10.4365 C   0  0  0  0  0  0  0  0  0  0  0  0
   26.6406  -21.8171  -10.3218 O   0  0  0  0  0  0  0  0  0  0  0  0
   26.2926  -19.7391   -9.3484 N   0  0  0  0  0  0  0  0  0  0  0  0
   26.9599  -20.1900   -8.1344 C   0  0  1  0  0  0  0  0  0  0  0  0
   27.6164  -19.0259   -7.4237 C   0  0  0  0  0  0  0  0  0  0  0  0
   28.2616  -19.3940   -6.1525 C   0  0  0  0  0  0  0  0  0  0  0  0
   29.5304  -19.9440   -6.1130 C   0  0  0  0  0  0  0  0  0  0  0  0
   30.1533  -20.2927   -4.9220 C   0  0  0  0  0  0  0  0  0  0  0  0
   29.4944  -20.0891   -3.7251 C   0  0  0  0  0  0  0  0  0  0  0  0
   28.2363  -19.5446   -3.7530 C   0  0  0  0  0  0  0  0  0  0  0  0
   27.6272  -19.2018   -4.9426 C   0  0  0  0  0  0  0  0  0  0  0  0
   26.0137  -20.9194   -7.2728 C   0  0  0  0  0  0  0  0  0  0  0  0
   24.7765  -20.7059   -7.2479 O   0  0  0  0  0  0  0  0  0  0  0  0
   26.4755  -21.9119   -6.4205 O   0  0  0  0  0  0  0  0  0  0  0  0
  1  2  1  0
  3  2  1  0
  4  3  1  0
  4  5  1  0
  5  6  1  1
  5  1  1  0
  6  7  2  0
  9  8  1  0
 10  9  1  0
 10 11  1  1
 12 10  1  0
 13  6  1  0
 12 13  1  6
 14 12  1  0
 14 15  2  0
 16 14  1  0
 17 25  1  0
 17 16  1  0
 17 18  1  1
 19 20  2  0
 19 18  1  0
 21 20  1  0
 22 21  2  0
 23 22  1  0
 23 24  2  0
 24 19  1  0
 25 27  1  0
 26 25  2  0
M  END
$$$$
