PIF.pdb
     RDKit          3D

 27 28  0  0  1  0  0  0  0  0999 V2000
   23.1262  -18.8084  -15.7130 N   0  0  0  0  0  0  0  0  0  0  0  0
   23.1881  -18.5054  -17.1152 C   0  0  0  0  0  0  0  0  0  0  0  0
   23.2557  -19.8564  -17.7738 C   0  0  0  0  0  0  0  0  0  0  0  0
   22.4175  -20.7374  -16.8919 C   0  0  0  0  0  0  0  0  0  0  0  0
   22.3506  -20.0284  -15.5808 C   0  0  1  0  0  0  0  0  0  0  0  0
   22.9215  -20.8115  -14.4555 C   0  0  0  0  0  0  0  0  0  0  0  0
   22.4606  -21.9614  -14.1412 O   0  0  0  0  0  0  0  0  0  0  0  0
   28.1588  -21.0938  -13.8702 C   0  0  0  0  0  0  0  0  0  0  0  0
   26.6792  -21.3967  -13.8193 C   0  0  0  0  0  0  0  0  0  0  0  0
   26.0169  -20.9061  -12.5884 C   0  0  2  0  0  0  0  0  0  0  0  0
   26.6807  -21.5780  -11.3756 C   0  0  0  0  0  0  0  0  0  0  0  0
   24.5085  -21.1536  -12.5198 C   0  0  2  0  0  0  0  0  0  0  0  0
   24.0016  -20.3454  -13.6630 N   0  0  0  0  0  0  0  0  0  0  0  0
   23.8847  -20.6899  -11.2815 C   0  0  0  0  0  0  0  0  0  0  0  0
   23.9589  -19.4368  -11.0161 O   0  0  0  0  0  0  0  0  0  0  0  0
   23.2115  -21.5388  -10.3758 N   0  0  0  0  0  0  0  0  0  0  0  0
   22.6697  -20.9778   -9.1453 C   0  0  1  0  0  0  0  0  0  0  0  0
   21.1747  -20.7739   -9.2660 C   0  0  0  0  0  0  0  0  0  0  0  0
   20.5410  -20.2826   -8.0311 C   0  0  0  0  0  0  0  0  0  0  0  0
   19.8931  -21.1363   -7.1563 C   0  0  0  0  0  0  0  0  0  0  0  0
   19.2941  -20.6885   -5.9864 C   0  0  0  0  0  0  0  0  0  0  0  0
   19.3387  -19.3443   -5.6712 C   0  0  0  0  0  0  0  0  0  0  0  0
   19.9783  -18.4895   -6.5315 C   0  0  0  0  0  0  0  0  0  0  0  0
   20.5700  -18.9458   -7.6913 C   0  0  0  0  0  0  0  0  0  0  0  0
   23.0354  -21.8223   -7.9951 C   0  0  0  0  0  0  0  0  0  0  0  0
   23.2485  -23.0576   -8.0688 O   0  0  0  0  0  0  0  0  0  0  0  0
   23.1633  -21.2586   -6.7339 O   0  0  0  0  0  0  0  0  0  0  0  0
  1  2  1  0
  3  2  1  0
  4  3  1  0
  4  5  1  0
  5  6  1  1
  5  1  1  0
  6  7  2  0
  9  8  1  0
 10  9  1  0
 10 11  1  1
 12 10  1  0
 13  6  1  0
 12 13  1  6
 14 12  1  0
 14 15  2  0
 16 14  1  0
 17 25  1  0
 17 16  1  0
 17 18  1  6
 19 20  2  0
 19 18  1  0
 21 20  1  0
 22 21  2  0
 23 22  1  0
 23 24  2  0
 24 19  1  0
 25 27  1  0
 26 25  2  0
M  END
$$$$
