PIF.pdb
     RDKit          3D

 27 28  0  0  1  0  0  0  0  0999 V2000
   28.2253  -20.9400  -15.0929 N   0  0  0  0  0  0  0  0  0  0  0  0
   28.4928  -20.8818  -16.5024 C   0  0  0  0  0  0  0  0  0  0  0  0
   27.9005  -19.5658  -16.9281 C   0  0  0  0  0  0  0  0  0  0  0  0
   28.1189  -18.6652  -15.7459 C   0  0  0  0  0  0  0  0  0  0  0  0
   28.3313  -19.5828  -14.5888 C   0  0  1  0  0  0  0  0  0  0  0  0
   27.3237  -19.4174  -13.5105 C   0  0  0  0  0  0  0  0  0  0  0  0
   27.0864  -18.2752  -12.9883 O   0  0  0  0  0  0  0  0  0  0  0  0
   23.1163  -19.3117  -13.4493 C   0  0  0  0  0  0  0  0  0  0  0  0
   23.6854  -20.7059  -13.5764 C   0  0  0  0  0  0  0  0  0  0  0  0
   24.4001  -21.1659  -12.3632 C   0  0  2  0  0  0  0  0  0  0  0  0
   23.3887  -21.2697  -11.2102 C   0  0  0  0  0  0  0  0  0  0  0  0
   25.5611  -20.2749  -11.9165 C   0  0  2  0  0  0  0  0  0  0  0  0
   26.5656  -20.4987  -12.9925 N   0  0  0  0  0  0  0  0  0  0  0  0
   26.1379  -20.6505  -10.6266 C   0  0  0  0  0  0  0  0  0  0  0  0
   26.5247  -21.8654  -10.4839 O   0  0  0  0  0  0  0  0  0  0  0  0
   26.2913  -19.7557   -9.5448 N   0  0  0  0  0  0  0  0  0  0  0  0
   26.8505  -20.2455   -8.2919 C   0  0  1  0  0  0  0  0  0  0  0  0
   27.5557  -19.1296   -7.5512 C   0  0  0  0  0  0  0  0  0  0  0  0
   28.0630  -19.5242   -6.2265 C   0  0  0  0  0  0  0  0  0  0  0  0
   27.3611  -19.2485   -5.0668 C   0  0  0  0  0  0  0  0  0  0  0  0
   27.8247  -19.6175   -3.8110 C   0  0  0  0  0  0  0  0  0  0  0  0
   29.0293  -20.2846   -3.7000 C   0  0  0  0  0  0  0  0  0  0  0  0
   29.7331  -20.5627   -4.8433 C   0  0  0  0  0  0  0  0  0  0  0  0
   29.2624  -20.1912   -6.0859 C   0  0  0  0  0  0  0  0  0  0  0  0
   25.8018  -20.8891   -7.4819 C   0  0  0  0  0  0  0  0  0  0  0  0
   24.5851  -20.5833   -7.5349 O   0  0  0  0  0  0  0  0  0  0  0  0
   26.1353  -21.9005   -6.5928 O   0  0  0  0  0  0  0  0  0  0  0  0
  1  2  1  0
  3  2  1  0
  4  3  1  0
  4  5  1  0
  5  6  1  1
  5  1  1  0
  6  7  2  0
  9  8  1  0
 10  9  1  0
 10 11  1  1
 12 10  1  0
 13  6  1  0
 12 13  1  6
 14 12  1  0
 14 15  2  0
 16 14  1  0
 17 25  1  0
 17 16  1  0
 17 18  1  1
 19 20  2  0
 19 18  1  0
 21 20  1  0
 22 21  2  0
 23 22  1  0
 23 24  2  0
 24 19  1  0
 25 27  1  0
 26 25  2  0
M  END
$$$$
