PIF.pdb
     RDKit          3D

 27 28  0  0  1  0  0  0  0  0999 V2000
   14.8246  -17.2897    3.0410 N   0  0  0  0  0  0  0  0  0  0  0  0
   14.2050  -17.4355    1.7540 C   0  0  0  0  0  0  0  0  0  0  0  0
   15.3380  -17.8433    0.8520 C   0  0  0  0  0  0  0  0  0  0  0  0
   16.2226  -18.6821    1.7297 C   0  0  0  0  0  0  0  0  0  0  0  0
   15.8590  -18.3047    3.1266 C   0  0  1  0  0  0  0  0  0  0  0  0
   16.9925  -17.7359    3.8992 C   0  0  0  0  0  0  0  0  0  0  0  0
   18.1045  -18.3566    4.0076 O   0  0  0  0  0  0  0  0  0  0  0  0
   18.2410  -12.4899    3.7284 C   0  0  0  0  0  0  0  0  0  0  0  0
   18.2846  -13.9952    3.8542 C   0  0  0  0  0  0  0  0  0  0  0  0
   17.9725  -14.4842    5.2172 C   0  0  2  0  0  0  0  0  0  0  0  0
   18.9402  -13.8180    6.2086 C   0  0  0  0  0  0  0  0  0  0  0  0
   18.0552  -16.0014    5.3975 C   0  0  2  0  0  0  0  0  0  0  0  0
   16.9217  -16.4832    4.5609 N   0  0  0  0  0  0  0  0  0  0  0  0
   17.8663  -16.4483    6.7767 C   0  0  0  0  0  0  0  0  0  0  0  0
   16.7569  -16.1494    7.3477 O   0  0  0  0  0  0  0  0  0  0  0  0
   18.8286  -17.1844    7.5022 N   0  0  0  0  0  0  0  0  0  0  0  0
   18.5344  -17.5805    8.8730 C   0  0  1  0  0  0  0  0  0  0  0  0
   18.5690  -19.0875    9.0110 C   0  0  0  0  0  0  0  0  0  0  0  0
   18.2594  -19.5665   10.3684 C   0  0  0  0  0  0  0  0  0  0  0  0
   19.2538  -19.9633   11.2445 C   0  0  0  0  0  0  0  0  0  0  0  0
   18.9777  -20.4137   12.5286 C   0  0  0  0  0  0  0  0  0  0  0  0
   17.6671  -20.4735   12.9611 C   0  0  0  0  0  0  0  0  0  0  0  0
   16.6738  -20.0827   12.1005 C   0  0  0  0  0  0  0  0  0  0  0  0
   16.9600  -19.6367   10.8267 C   0  0  0  0  0  0  0  0  0  0  0  0
   19.4509  -16.9047    9.8074 C   0  0  0  0  0  0  0  0  0  0  0  0
   20.6534  -16.6487    9.5519 O   0  0  0  0  0  0  0  0  0  0  0  0
   18.9988  -16.5094   11.0581 O   0  0  0  0  0  0  0  0  0  0  0  0
  1  2  1  0
  3  2  1  0
  4  3  1  0
  4  5  1  0
  5  6  1  6
  5  1  1  0
  6  7  2  0
  9  8  1  0
 10  9  1  0
 10 11  1  1
 12 10  1  0
 13  6  1  0
 12 13  1  6
 14 12  1  0
 14 15  2  0
 16 14  1  0
 17 25  1  0
 17 16  1  0
 17 18  1  6
 19 20  2  0
 19 18  1  0
 21 20  1  0
 22 21  2  0
 23 22  1  0
 23 24  2  0
 24 19  1  0
 25 27  1  0
 26 25  2  0
M  END
$$$$
