PIF.pdb
     RDKit          3D

 27 28  0  0  1  0  0  0  0  0999 V2000
   24.3123  -35.0237  -17.3393 N   0  0  0  0  0  0  0  0  0  0  0  0
   23.9906  -35.5182  -18.6483 C   0  0  0  0  0  0  0  0  0  0  0  0
   25.1322  -36.4420  -18.9758 C   0  0  0  0  0  0  0  0  0  0  0  0
   25.5081  -37.0448  -17.6522 C   0  0  0  0  0  0  0  0  0  0  0  0
   24.9585  -36.1108  -16.6266 C   0  0  1  0  0  0  0  0  0  0  0  0
   25.9986  -35.5228  -15.7448 C   0  0  0  0  0  0  0  0  0  0  0  0
   26.6558  -36.2414  -14.9169 O   0  0  0  0  0  0  0  0  0  0  0  0
   29.1040  -31.6088  -17.6944 C   0  0  0  0  0  0  0  0  0  0  0  0
   28.6873  -32.7965  -16.8581 C   0  0  0  0  0  0  0  0  0  0  0  0
   27.9320  -32.4258  -15.6389 C   0  0  2  0  0  0  0  0  0  0  0  0
   28.8552  -31.6065  -14.7226 C   0  0  0  0  0  0  0  0  0  0  0  0
   27.3700  -33.6035  -14.8400 C   0  0  2  0  0  0  0  0  0  0  0  0
   26.3306  -34.1438  -15.7591 N   0  0  0  0  0  0  0  0  0  0  0  0
   26.7482  -33.2212  -13.5733 C   0  0  0  0  0  0  0  0  0  0  0  0
   25.6308  -32.5931  -13.6297 O   0  0  0  0  0  0  0  0  0  0  0  0
   27.3057  -33.5061  -12.3075 N   0  0  0  0  0  0  0  0  0  0  0  0
   26.5576  -33.1571  -11.1071 C   0  0  1  0  0  0  0  0  0  0  0  0
   25.1703  -33.7613  -11.1495 C   0  0  0  0  0  0  0  0  0  0  0  0
   24.3814  -33.5227   -9.9295 C   0  0  0  0  0  0  0  0  0  0  0  0
   24.1063  -34.5377   -9.0307 C   0  0  0  0  0  0  0  0  0  0  0  0
   23.3670  -34.3274   -7.8744 C   0  0  0  0  0  0  0  0  0  0  0  0
   22.8817  -33.0639   -7.5981 C   0  0  0  0  0  0  0  0  0  0  0  0
   23.1485  -32.0507   -8.4825 C   0  0  0  0  0  0  0  0  0  0  0  0
   23.8844  -32.2714   -9.6284 C   0  0  0  0  0  0  0  0  0  0  0  0
   27.3106  -33.5509   -9.9038 C   0  0  0  0  0  0  0  0  0  0  0  0
   28.0294  -34.5778   -9.8285 O   0  0  0  0  0  0  0  0  0  0  0  0
   27.2503  -32.7672   -8.7606 O   0  0  0  0  0  0  0  0  0  0  0  0
  1  2  1  0
  3  2  1  0
  4  3  1  0
  4  5  1  0
  5  6  1  6
  5  1  1  0
  6  7  2  0
  9  8  1  0
 10  9  1  0
 10 11  1  1
 12 10  1  0
 13  6  1  0
 12 13  1  6
 14 12  1  0
 14 15  2  0
 16 14  1  0
 17 25  1  0
 17 16  1  0
 17 18  1  6
 19 20  2  0
 19 18  1  0
 21 20  1  0
 22 21  2  0
 23 22  1  0
 23 24  2  0
 24 19  1  0
 25 27  1  0
 26 25  2  0
M  END
$$$$
