PIF.pdb
     RDKit          3D

 27 28  0  0  1  0  0  0  0  0999 V2000
   28.0054  -20.8807  -14.9641 N   0  0  0  0  0  0  0  0  0  0  0  0
   28.1931  -20.8336  -16.3869 C   0  0  0  0  0  0  0  0  0  0  0  0
   27.6180  -19.5008  -16.7828 C   0  0  0  0  0  0  0  0  0  0  0  0
   27.9316  -18.6050  -15.6185 C   0  0  0  0  0  0  0  0  0  0  0  0
   28.1819  -19.5265  -14.4721 C   0  0  1  0  0  0  0  0  0  0  0  0
   27.2436  -19.3278  -13.3383 C   0  0  0  0  0  0  0  0  0  0  0  0
   27.0479  -18.1722  -12.8286 O   0  0  0  0  0  0  0  0  0  0  0  0
   22.3604  -21.2508  -13.5375 C   0  0  0  0  0  0  0  0  0  0  0  0
   23.5784  -20.4267  -13.1894 C   0  0  0  0  0  0  0  0  0  0  0  0
   24.3425  -20.9582  -12.0370 C   0  0  2  0  0  0  0  0  0  0  0  0
   23.3963  -21.0629  -10.8299 C   0  0  0  0  0  0  0  0  0  0  0  0
   25.5639  -20.1310  -11.6306 C   0  0  2  0  0  0  0  0  0  0  0  0
   26.5101  -20.3902  -12.7506 N   0  0  0  0  0  0  0  0  0  0  0  0
   26.1748  -20.5506  -10.3704 C   0  0  0  0  0  0  0  0  0  0  0  0
   26.6087  -21.7558  -10.2969 O   0  0  0  0  0  0  0  0  0  0  0  0
   26.3123  -19.7078   -9.2456 N   0  0  0  0  0  0  0  0  0  0  0  0
   26.9496  -20.2270   -8.0428 C   0  0  1  0  0  0  0  0  0  0  0  0
   27.7076  -19.1302   -7.3260 C   0  0  0  0  0  0  0  0  0  0  0  0
   28.2797  -19.5496   -6.0358 C   0  0  0  0  0  0  0  0  0  0  0  0
   27.6644  -19.2473   -4.8342 C   0  0  0  0  0  0  0  0  0  0  0  0
   28.1898  -19.6390   -3.6101 C   0  0  0  0  0  0  0  0  0  0  0  0
   29.3693  -20.3572   -3.5749 C   0  0  0  0  0  0  0  0  0  0  0  0
   29.9875  -20.6620   -4.7602 C   0  0  0  0  0  0  0  0  0  0  0  0
   29.4560  -20.2675   -5.9708 C   0  0  0  0  0  0  0  0  0  0  0  0
   25.9528  -20.8841   -7.1800 C   0  0  0  0  0  0  0  0  0  0  0  0
   24.7168  -20.6726   -7.2459 O   0  0  0  0  0  0  0  0  0  0  0  0
   26.3615  -21.8004   -6.2219 O   0  0  0  0  0  0  0  0  0  0  0  0
  1  2  1  0
  3  2  1  0
  4  3  1  0
  4  5  1  0
  5  6  1  1
  5  1  1  0
  6  7  2  0
  9  8  1  0
 10  9  1  0
 10 11  1  1
 12 10  1  0
 13  6  1  0
 12 13  1  6
 14 12  1  0
 14 15  2  0
 16 14  1  0
 17 25  1  0
 17 16  1  0
 17 18  1  1
 19 20  2  0
 19 18  1  0
 21 20  1  0
 22 21  2  0
 23 22  1  0
 23 24  2  0
 24 19  1  0
 25 27  1  0
 26 25  2  0
M  END
$$$$
