PIF.pdb
     RDKit          3D

 27 28  0  0  1  0  0  0  0  0999 V2000
   27.2017  -20.6979  -16.4696 N   0  0  0  0  0  0  0  0  0  0  0  0
   28.3764  -21.0915  -17.1955 C   0  0  0  0  0  0  0  0  0  0  0  0
   29.3916  -21.3637  -16.1188 C   0  0  0  0  0  0  0  0  0  0  0  0
   28.5820  -21.9220  -14.9833 C   0  0  0  0  0  0  0  0  0  0  0  0
   27.1815  -21.4804  -15.2471 C   0  0  1  0  0  0  0  0  0  0  0  0
   26.6177  -20.6279  -14.1698 C   0  0  0  0  0  0  0  0  0  0  0  0
   26.7540  -19.3571  -14.1841 O   0  0  0  0  0  0  0  0  0  0  0  0
   21.9150  -21.9898  -11.9475 C   0  0  0  0  0  0  0  0  0  0  0  0
   23.4191  -21.8537  -12.0012 C   0  0  0  0  0  0  0  0  0  0  0  0
   23.8834  -20.4494  -12.0829 C   0  0  2  0  0  0  0  0  0  0  0  0
   23.3959  -19.8503  -13.4120 C   0  0  0  0  0  0  0  0  0  0  0  0
   25.3988  -20.2600  -11.9877 C   0  0  2  0  0  0  0  0  0  0  0  0
   25.8994  -21.1558  -13.0664 N   0  0  0  0  0  0  0  0  0  0  0  0
   25.9712  -20.6730  -10.7074 C   0  0  0  0  0  0  0  0  0  0  0  0
   26.3093  -21.9042  -10.5813 O   0  0  0  0  0  0  0  0  0  0  0  0
   26.1708  -19.7973   -9.6176 N   0  0  0  0  0  0  0  0  0  0  0  0
   26.7611  -20.3142   -8.3900 C   0  0  1  0  0  0  0  0  0  0  0  0
   27.6743  -19.2827   -7.7628 C   0  0  0  0  0  0  0  0  0  0  0  0
   28.1934  -19.6744   -6.4418 C   0  0  0  0  0  0  0  0  0  0  0  0
   27.6845  -19.1391   -5.2721 C   0  0  0  0  0  0  0  0  0  0  0  0
   28.1610  -19.5012   -4.0192 C   0  0  0  0  0  0  0  0  0  0  0  0
   29.1803  -20.4285   -3.9214 C   0  0  0  0  0  0  0  0  0  0  0  0
   29.6919  -20.9652   -5.0748 C   0  0  0  0  0  0  0  0  0  0  0  0
   29.2104  -20.5978   -6.3144 C   0  0  0  0  0  0  0  0  0  0  0  0
   25.7060  -20.7715   -7.4695 C   0  0  0  0  0  0  0  0  0  0  0  0
   24.5291  -20.3337   -7.4752 O   0  0  0  0  0  0  0  0  0  0  0  0
   25.9868  -21.7449   -6.5217 O   0  0  0  0  0  0  0  0  0  0  0  0
  1  2  1  0
  3  2  1  0
  4  3  1  0
  4  5  1  0
  5  6  1  1
  5  1  1  0
  6  7  2  0
  9  8  1  0
 10  9  1  0
 10 11  1  6
 12 10  1  0
 13  6  1  0
 12 13  1  6
 14 12  1  0
 14 15  2  0
 16 14  1  0
 17 25  1  0
 17 16  1  0
 17 18  1  1
 19 20  2  0
 19 18  1  0
 21 20  1  0
 22 21  2  0
 23 22  1  0
 23 24  2  0
 24 19  1  0
 25 27  1  0
 26 25  2  0
M  END
$$$$
