PIF.pdb
     RDKit          3D

 27 28  0  0  1  0  0  0  0  0999 V2000
   15.8289  -22.7268    0.5554 N   0  0  0  0  0  0  0  0  0  0  0  0
   15.2804  -22.8150   -0.7686 C   0  0  0  0  0  0  0  0  0  0  0  0
   14.9708  -24.2781   -0.9343 C   0  0  0  0  0  0  0  0  0  0  0  0
   14.5609  -24.7247    0.4401 C   0  0  0  0  0  0  0  0  0  0  0  0
   15.1230  -23.7007    1.3682 C   0  0  1  0  0  0  0  0  0  0  0  0
   16.0871  -24.2588    2.3503 C   0  0  0  0  0  0  0  0  0  0  0  0
   15.7440  -25.1697    3.1785 O   0  0  0  0  0  0  0  0  0  0  0  0
   21.1664  -24.6880    0.7237 C   0  0  0  0  0  0  0  0  0  0  0  0
   19.8706  -24.9910    1.4397 C   0  0  0  0  0  0  0  0  0  0  0  0
   19.7255  -24.2752    2.7285 C   0  0  2  0  0  0  0  0  0  0  0  0
   20.8265  -24.7622    3.6843 C   0  0  0  0  0  0  0  0  0  0  0  0
   18.3696  -24.4458    3.4169 C   0  0  2  0  0  0  0  0  0  0  0  0
   17.4354  -23.8268    2.4366 N   0  0  0  0  0  0  0  0  0  0  0  0
   18.2609  -23.7506    4.6985 C   0  0  0  0  0  0  0  0  0  0  0  0
   18.4045  -22.4757    4.6929 O   0  0  0  0  0  0  0  0  0  0  0  0
   18.0069  -24.4016    5.9257 N   0  0  0  0  0  0  0  0  0  0  0  0
   18.0041  -23.6216    7.1562 C   0  0  1  0  0  0  0  0  0  0  0  0
   16.8435  -24.0254    8.0401 C   0  0  0  0  0  0  0  0  0  0  0  0
   16.8278  -23.3461    9.3462 C   0  0  0  0  0  0  0  0  0  0  0  0
   17.4562  -23.8852   10.4545 C   0  0  0  0  0  0  0  0  0  0  0  0
   17.4531  -23.2548   11.6916 C   0  0  0  0  0  0  0  0  0  0  0  0
   16.8028  -22.0446   11.8364 C   0  0  0  0  0  0  0  0  0  0  0  0
   16.1766  -21.5015   10.7442 C   0  0  0  0  0  0  0  0  0  0  0  0
   16.1863  -22.1371    9.5196 C   0  0  0  0  0  0  0  0  0  0  0  0
   19.3042  -23.7402    7.8385 C   0  0  0  0  0  0  0  0  0  0  0  0
   19.7435  -22.9038    8.6657 O   0  0  0  0  0  0  0  0  0  0  0  0
   20.1260  -24.8278    7.5807 O   0  0  0  0  0  0  0  0  0  0  0  0
  1  2  1  0
  3  2  1  0
  4  3  1  0
  4  5  1  0
  5  6  1  1
  5  1  1  0
  6  7  2  0
  9  8  1  0
 10  9  1  0
 10 11  1  1
 12 10  1  0
 13  6  1  0
 12 13  1  6
 14 12  1  0
 14 15  2  0
 16 14  1  0
 17 25  1  0
 17 16  1  0
 17 18  1  1
 19 20  2  0
 19 18  1  0
 21 20  1  0
 22 21  2  0
 23 22  1  0
 23 24  2  0
 24 19  1  0
 25 27  1  0
 26 25  2  0
M  END
$$$$
