INE.pdb
     RDKit          3D

 26 25  0  0  1  0  0  0  0  0999 V2000
   26.7060  -32.0784   -8.8224 C   0  0  0  0  0  0  0  0  0  0  0  0
   25.7304  -32.3935   -7.7486 C   0  0  0  0  0  0  0  0  0  0  0  0
   26.3053  -33.1341   -6.5878 C   0  0  2  0  0  0  0  0  0  0  0  0
   26.8501  -34.4704   -7.0608 C   0  0  0  0  0  0  0  0  0  0  0  0
   25.3035  -33.2957   -5.4766 C   0  0  2  0  0  0  0  0  0  0  0  0
   24.9149  -31.9178   -5.1057 N   0  0  0  0  0  0  0  0  0  0  0  0
   25.8378  -33.9132   -4.2503 C   0  0  0  0  0  0  0  0  0  0  0  0
   26.5518  -33.1943   -3.4719 O   0  0  0  0  0  0  0  0  0  0  0  0
   27.0331  -35.2814    0.3813 N   0  0  0  0  0  0  0  0  0  0  0  0
   25.7276  -35.5155   -0.1126 C   0  0  0  0  0  0  0  0  0  0  0  0
   24.8917  -36.0568    0.6409 O   0  0  0  0  0  0  0  0  0  0  0  0
   25.3778  -35.1301   -1.4691 C   0  0  0  0  0  0  0  0  0  0  0  0
   26.2049  -35.7422   -2.5650 C   0  0  2  0  0  0  0  0  0  0  0  0
   25.6463  -35.2442   -3.8163 N   0  0  0  0  0  0  0  0  0  0  0  0
   26.3891  -37.1841   -2.5010 C   0  0  0  0  0  0  0  0  0  0  0  0
   25.3659  -37.9565   -2.5377 O   0  0  0  0  0  0  0  0  0  0  0  0
   27.6373  -37.8484   -2.3956 N   0  0  0  0  0  0  0  0  0  0  0  0
   27.7615  -39.2927   -2.0907 C   0  0  1  0  0  0  0  0  0  0  0  0
   28.4850  -39.4858   -0.8298 C   0  0  0  0  0  0  0  0  0  0  0  0
   28.7122  -40.8840   -0.4081 C   0  0  0  0  0  0  0  0  0  0  0  0
   29.5484  -41.0934    0.7872 C   0  0  0  0  0  0  0  0  0  0  0  0
   29.7752  -42.2203    1.3063 O   0  0  0  0  0  0  0  0  0  0  0  0
   26.4994  -39.9777   -2.2335 C   0  0  0  0  0  0  0  0  0  0  0  0
   26.1405  -40.7490   -3.1487 O   0  0  0  0  0  0  0  0  0  0  0  0
   30.1612  -39.9933    1.4245 O   0  0  0  0  0  0  0  0  0  0  0  0
   25.5322  -39.7652   -1.2241 O   0  0  0  0  0  0  0  0  0  0  0  0
  2  1  1  0
  3  4  1  6
  3  2  1  0
  5  3  1  0
  5  6  1  1
  7  5  1  0
  7  8  2  0
  9 10  1  0
 10 12  1  0
 10 11  2  0
 13 12  1  1
 13 15  1  0
 13 14  1  0
 14  7  1  0
 15 16  2  0
 17 15  1  0
 17 18  1  0
 18 19  1  1
 19 20  1  0
 20 21  1  0
 21 25  1  0
 21 22  2  0
 23 18  1  0
 24 23  2  0
 26 23  1  0
M  END
$$$$
