INE.pdb
     RDKit          3D

 26 25  0  0  1  0  0  0  0  0999 V2000
   17.4367  -15.2257  -16.7745 C   0  0  0  0  0  0  0  0  0  0  0  0
   17.9339  -14.0635  -15.9959 C   0  0  0  0  0  0  0  0  0  0  0  0
   17.3001  -12.7612  -16.3549 C   0  0  2  0  0  0  0  0  0  0  0  0
   17.4568  -12.5170  -17.8455 C   0  0  0  0  0  0  0  0  0  0  0  0
   17.8539  -11.6261  -15.5369 C   0  0  2  0  0  0  0  0  0  0  0  0
   17.6722  -12.0418  -14.1293 N   0  0  0  0  0  0  0  0  0  0  0  0
   17.1302  -10.3511  -15.6825 C   0  0  0  0  0  0  0  0  0  0  0  0
   17.1988   -9.7405  -16.8028 O   0  0  0  0  0  0  0  0  0  0  0  0
   12.3696   -7.1336  -14.1531 N   0  0  0  0  0  0  0  0  0  0  0  0
   13.7766   -7.1134  -14.0008 C   0  0  0  0  0  0  0  0  0  0  0  0
   14.3474   -6.0108  -13.8669 O   0  0  0  0  0  0  0  0  0  0  0  0
   14.5312   -8.3551  -14.0014 C   0  0  0  0  0  0  0  0  0  0  0  0
   15.6961   -8.4209  -14.9491 C   0  0  2  0  0  0  0  0  0  0  0  0
   16.3420   -9.7047  -14.7039 N   0  0  0  0  0  0  0  0  0  0  0  0
   16.5877   -7.2710  -14.9512 C   0  0  0  0  0  0  0  0  0  0  0  0
   17.4996   -7.1740  -14.0546 O   0  0  0  0  0  0  0  0  0  0  0  0
   16.5466   -6.2019  -15.8816 N   0  0  0  0  0  0  0  0  0  0  0  0
   17.4802   -5.0527  -15.8347 C   0  0  1  0  0  0  0  0  0  0  0  0
   18.3778   -5.0791  -16.9941 C   0  0  0  0  0  0  0  0  0  0  0  0
   19.3074   -3.9386  -17.1338 C   0  0  0  0  0  0  0  0  0  0  0  0
   20.2354   -3.9698  -18.2780 C   0  0  0  0  0  0  0  0  0  0  0  0
   20.3515   -4.9433  -19.0715 O   0  0  0  0  0  0  0  0  0  0  0  0
   16.7879   -3.8144  -15.5701 C   0  0  0  0  0  0  0  0  0  0  0  0
   15.5972   -3.5289  -15.8191 O   0  0  0  0  0  0  0  0  0  0  0  0
   21.0648   -2.8602  -18.5478 O   0  0  0  0  0  0  0  0  0  0  0  0
   17.5287   -2.7804  -14.9525 O   0  0  0  0  0  0  0  0  0  0  0  0
  2  1  1  0
  3  4  1  6
  3  2  1  0
  5  3  1  0
  5  6  1  1
  7  5  1  0
  7  8  2  0
  9 10  1  0
 10 12  1  0
 10 11  2  0
 13 12  1  1
 13 15  1  0
 13 14  1  0
 14  7  1  0
 15 16  2  0
 17 15  1  0
 17 18  1  0
 18 19  1  6
 19 20  1  0
 20 21  1  0
 21 25  1  0
 21 22  2  0
 23 18  1  0
 24 23  2  0
 26 23  1  0
M  END
$$$$
