INE.pdb
     RDKit          3D

 26 25  0  0  1  0  0  0  0  0999 V2000
   14.4537  -13.3968  -12.5992 C   0  0  0  0  0  0  0  0  0  0  0  0
   14.3522  -12.6544  -11.3175 C   0  0  0  0  0  0  0  0  0  0  0  0
   14.6025  -11.1877  -11.4303 C   0  0  2  0  0  0  0  0  0  0  0  0
   15.9559  -10.9545  -12.0785 C   0  0  0  0  0  0  0  0  0  0  0  0
   14.4896  -10.4977  -10.0978 C   0  0  2  0  0  0  0  0  0  0  0  0
   13.1015  -10.7462   -9.6523 N   0  0  0  0  0  0  0  0  0  0  0  0
   14.6466   -9.0336  -10.1468 C   0  0  0  0  0  0  0  0  0  0  0  0
   13.7910   -8.3548  -10.8101 O   0  0  0  0  0  0  0  0  0  0  0  0
   14.2489   -6.9263   -6.6280 N   0  0  0  0  0  0  0  0  0  0  0  0
   14.4374   -6.1841   -7.8182 C   0  0  0  0  0  0  0  0  0  0  0  0
   13.4654   -5.5610   -8.2943 O   0  0  0  0  0  0  0  0  0  0  0  0
   15.7384   -6.1543   -8.4645 C   0  0  0  0  0  0  0  0  0  0  0  0
   15.8313   -6.8440   -9.7969 C   0  0  2  0  0  0  0  0  0  0  0  0
   15.6580   -8.2662   -9.5265 N   0  0  0  0  0  0  0  0  0  0  0  0
   16.9863   -6.5068  -10.6151 C   0  0  0  0  0  0  0  0  0  0  0  0
   18.1488   -6.9292  -10.2759 O   0  0  0  0  0  0  0  0  0  0  0  0
   16.9548   -5.7242  -11.7970 N   0  0  0  0  0  0  0  0  0  0  0  0
   18.1291   -5.5502  -12.6832 C   0  0  1  0  0  0  0  0  0  0  0  0
   18.7094   -6.8541  -13.0203 C   0  0  0  0  0  0  0  0  0  0  0  0
   19.8375   -6.8461  -13.9751 C   0  0  0  0  0  0  0  0  0  0  0  0
   20.3846   -8.1552  -14.3732 C   0  0  0  0  0  0  0  0  0  0  0  0
   20.5725   -9.1172  -13.5794 O   0  0  0  0  0  0  0  0  0  0  0  0
   17.8409   -4.6578  -13.7801 C   0  0  0  0  0  0  0  0  0  0  0  0
   18.6500   -4.0258  -14.4922 O   0  0  0  0  0  0  0  0  0  0  0  0
   20.7305   -8.3985  -15.7197 O   0  0  0  0  0  0  0  0  0  0  0  0
   16.4802   -4.4580  -14.1088 O   0  0  0  0  0  0  0  0  0  0  0  0
  2  1  1  0
  3  4  1  1
  3  2  1  0
  5  3  1  0
  5  6  1  6
  7  5  1  0
  7  8  2  0
  9 10  1  0
 10 12  1  0
 10 11  2  0
 13 12  1  1
 13 15  1  0
 13 14  1  0
 14  7  1  0
 15 16  2  0
 17 15  1  0
 17 18  1  0
 18 19  1  6
 19 20  1  0
 20 21  1  0
 21 25  1  0
 21 22  2  0
 23 18  1  0
 24 23  2  0
 26 23  1  0
M  END
$$$$
