INE.pdb
     RDKit          3D

 26 25  0  0  1  0  0  0  0  0999 V2000
   27.2577  -16.0283  -19.1094 C   0  0  0  0  0  0  0  0  0  0  0  0
   27.9979  -16.8402  -18.1109 C   0  0  0  0  0  0  0  0  0  0  0  0
   27.1462  -17.7763  -17.3204 C   0  0  2  0  0  0  0  0  0  0  0  0
   26.0021  -17.0050  -16.6861 C   0  0  0  0  0  0  0  0  0  0  0  0
   27.9494  -18.5345  -16.2985 C   0  0  2  0  0  0  0  0  0  0  0  0
   28.9100  -19.3390  -17.0840 N   0  0  0  0  0  0  0  0  0  0  0  0
   27.1739  -19.4952  -15.4945 C   0  0  0  0  0  0  0  0  0  0  0  0
   26.8470  -20.6082  -16.0303 O   0  0  0  0  0  0  0  0  0  0  0  0
   26.0484  -22.4166  -10.8920 N   0  0  0  0  0  0  0  0  0  0  0  0
   25.5368  -21.1196  -11.1348 C   0  0  0  0  0  0  0  0  0  0  0  0
   24.4745  -20.7812  -10.5723 O   0  0  0  0  0  0  0  0  0  0  0  0
   26.2407  -20.2088  -12.0214 C   0  0  0  0  0  0  0  0  0  0  0  0
   25.9120  -20.3229  -13.4838 C   0  0  2  0  0  0  0  0  0  0  0  0
   26.7385  -19.3305  -14.1604 N   0  0  0  0  0  0  0  0  0  0  0  0
   24.4988  -20.2889  -13.8287 C   0  0  0  0  0  0  0  0  0  0  0  0
   23.8435  -19.1927  -13.7109 O   0  0  0  0  0  0  0  0  0  0  0  0
   23.7418  -21.3916  -14.2990 N   0  0  0  0  0  0  0  0  0  0  0  0
   22.2651  -21.3682  -14.4150 C   0  0  1  0  0  0  0  0  0  0  0  0
   21.6487  -21.5259  -13.0938 C   0  0  0  0  0  0  0  0  0  0  0  0
   20.5912  -22.5519  -12.9785 C   0  0  0  0  0  0  0  0  0  0  0  0
   19.3351  -22.1455  -12.3235 C   0  0  0  0  0  0  0  0  0  0  0  0
   19.1301  -21.0041  -11.8277 O   0  0  0  0  0  0  0  0  0  0  0  0
   21.8117  -20.2608  -15.2217 C   0  0  0  0  0  0  0  0  0  0  0  0
   20.6946  -19.7013  -15.2043 O   0  0  0  0  0  0  0  0  0  0  0  0
   18.2609  -23.0557  -12.2253 O   0  0  0  0  0  0  0  0  0  0  0  0
   22.7285  -19.7250  -16.1555 O   0  0  0  0  0  0  0  0  0  0  0  0
  2  1  1  0
  3  4  1  1
  3  2  1  0
  5  3  1  0
  5  6  1  6
  7  5  1  0
  7  8  2  0
  9 10  1  0
 10 12  1  0
 10 11  2  0
 13 12  1  1
 13 15  1  0
 13 14  1  0
 14  7  1  0
 15 16  2  0
 17 15  1  0
 17 18  1  0
 18 19  1  1
 19 20  1  0
 20 21  1  0
 21 25  1  0
 21 22  2  0
 23 18  1  0
 24 23  2  0
 26 23  1  0
M  END
$$$$
