LQM.pdb
     RDKit          3D

 26 25  0  0  1  0  0  0  0  0999 V2000
    7.6473  -11.8928   19.3277 C   0  0  0  0  0  0  0  0  0  0  0  0
    7.8205  -13.3626   19.1140 C   0  0  1  0  0  0  0  0  0  0  0  0
    8.9248  -13.6691   18.1246 C   0  0  0  0  0  0  0  0  0  0  0  0
    8.0084  -14.1194   20.4080 C   0  0  0  0  0  0  0  0  0  0  0  0
    8.0847  -15.5941   20.1823 C   0  0  2  0  0  0  0  0  0  0  0  0
    6.8135  -16.0551   19.6601 N   0  0  0  0  0  0  0  0  0  0  0  0
    8.3974  -16.3479   21.4214 C   0  0  0  0  0  0  0  0  0  0  0  0
    7.4869  -16.6313   22.2408 O   0  0  0  0  0  0  0  0  0  0  0  0
   14.1314  -19.4485   23.8379 N   0  0  0  0  0  0  0  0  0  0  0  0
   12.8353  -19.9732   23.6544 C   0  0  0  0  0  0  0  0  0  0  0  0
   12.7720  -21.1728   23.2270 O   0  0  0  0  0  0  0  0  0  0  0  0
   11.5974  -19.2172   23.9271 C   0  0  0  0  0  0  0  0  0  0  0  0
   11.3106  -18.3095   22.7754 C   0  0  0  0  0  0  0  0  0  0  0  0
   10.0463  -17.5174   22.9415 C   0  0  2  0  0  0  0  0  0  0  0  0
    9.7135  -16.7819   21.7448 N   0  0  0  0  0  0  0  0  0  0  0  0
   10.0491  -16.6712   24.1454 C   0  0  0  0  0  0  0  0  0  0  0  0
   10.8645  -15.6865   24.1591 O   0  0  0  0  0  0  0  0  0  0  0  0
    7.0058  -11.1062   26.5530 C   0  0  0  0  0  0  0  0  0  0  0  0
    6.7723  -12.8764   26.8324 S   0  0  0  0  0  0  0  0  0  0  0  0
    8.2792  -13.8125   26.5018 C   0  0  0  0  0  0  0  0  0  0  0  0
    8.0957  -15.2805   26.7597 C   0  0  0  0  0  0  0  0  0  0  0  0
    9.3955  -16.0145   26.4333 C   0  0  2  0  0  0  0  0  0  0  0  0
    9.2362  -16.8568   25.2679 N   0  0  0  0  0  0  0  0  0  0  0  0
    9.8579  -16.8004   27.5968 C   0  0  0  0  0  0  0  0  0  0  0  0
    9.9698  -18.1706   27.4709 O   0  0  0  0  0  0  0  0  0  0  0  0
   10.1505  -16.2668   28.6880 O   0  0  0  0  0  0  0  0  0  0  0  0
  2  4  1  0
  2  1  1  1
  3  2  1  0
  4  5  1  0
  5  6  1  1
  7  8  2  0
  7  5  1  0
  9 10  1  0
 10 12  1  0
 10 11  2  0
 12 13  1  0
 14 13  1  6
 14 15  1  0
 15  7  1  0
 16 17  2  0
 16 14  1  0
 19 18  1  0
 20 19  1  0
 20 21  1  0
 22 21  1  1
 22 23  1  0
 23 16  1  0
 24 22  1  0
 25 24  1  0
 26 24  2  0
M  END
$$$$
