LQM.pdb
     RDKit          3D

 26 25  0  0  1  0  0  0  0  0999 V2000
    9.1407  -12.9830   18.9838 C   0  0  0  0  0  0  0  0  0  0  0  0
    8.1423  -13.5657   19.9321 C   0  0  1  0  0  0  0  0  0  0  0  0
    7.2653  -12.5036   20.5610 C   0  0  0  0  0  0  0  0  0  0  0  0
    7.3186  -14.6659   19.3047 C   0  0  0  0  0  0  0  0  0  0  0  0
    8.0533  -15.9663   19.2844 C   0  0  2  0  0  0  0  0  0  0  0  0
    7.2229  -16.9643   18.6397 N   0  0  0  0  0  0  0  0  0  0  0  0
    8.4112  -16.4433   20.6431 C   0  0  0  0  0  0  0  0  0  0  0  0
    7.5129  -16.7671   21.4610 O   0  0  0  0  0  0  0  0  0  0  0  0
   13.8383  -19.2719   22.1842 N   0  0  0  0  0  0  0  0  0  0  0  0
   13.2395  -19.0051   23.4328 C   0  0  0  0  0  0  0  0  0  0  0  0
   13.9276  -19.3128   24.4612 O   0  0  0  0  0  0  0  0  0  0  0  0
   11.8994  -18.4069   23.5895 C   0  0  0  0  0  0  0  0  0  0  0  0
   11.5004  -17.7495   22.3084 C   0  0  0  0  0  0  0  0  0  0  0  0
   10.1403  -17.1165   22.3618 C   0  0  2  0  0  0  0  0  0  0  0  0
    9.7584  -16.5583   21.0865 N   0  0  0  0  0  0  0  0  0  0  0  0
    9.9929  -16.1573   23.4681 C   0  0  0  0  0  0  0  0  0  0  0  0
   10.2388  -14.9301   23.2070 O   0  0  0  0  0  0  0  0  0  0  0  0
    7.1872  -11.2204   27.1217 C   0  0  0  0  0  0  0  0  0  0  0  0
    7.8478  -12.4123   25.9346 S   0  0  0  0  0  0  0  0  0  0  0  0
    7.0907  -14.0392   26.1250 C   0  0  0  0  0  0  0  0  0  0  0  0
    7.6612  -15.0399   25.1613 C   0  0  0  0  0  0  0  0  0  0  0  0
    9.0478  -15.4659   25.6411 C   0  0  2  0  0  0  0  0  0  0  0  0
    9.6078  -16.4790   24.7732 N   0  0  0  0  0  0  0  0  0  0  0  0
    8.9943  -15.9372   27.0411 C   0  0  0  0  0  0  0  0  0  0  0  0
    8.5719  -17.2272   27.2922 O   0  0  0  0  0  0  0  0  0  0  0  0
    9.3182  -15.2082   28.0028 O   0  0  0  0  0  0  0  0  0  0  0  0
  2  4  1  0
  2  1  1  6
  3  2  1  0
  4  5  1  0
  5  6  1  1
  7  8  2  0
  7  5  1  0
  9 10  1  0
 10 12  1  0
 10 11  2  0
 12 13  1  0
 14 13  1  6
 14 15  1  0
 15  7  1  0
 16 17  2  0
 16 14  1  0
 19 18  1  0
 20 19  1  0
 20 21  1  0
 22 21  1  6
 22 23  1  0
 23 16  1  0
 24 22  1  0
 25 24  1  0
 26 24  2  0
M  END
$$$$
