LQM.pdb
     RDKit          3D

 26 25  0  0  1  0  0  0  0  0999 V2000
    6.6813  -12.5053   18.8187 C   0  0  0  0  0  0  0  0  0  0  0  0
    8.0416  -13.0603   19.0974 C   0  0  1  0  0  0  0  0  0  0  0  0
    9.0334  -11.9790   19.4709 C   0  0  0  0  0  0  0  0  0  0  0  0
    8.0173  -14.1698   20.1226 C   0  0  0  0  0  0  0  0  0  0  0  0
    9.3812  -14.4604   20.6582 C   0  0  2  0  0  0  0  0  0  0  0  0
   10.1394  -15.1733   19.6491 N   0  0  0  0  0  0  0  0  0  0  0  0
    9.3483  -15.2735   21.8988 C   0  0  0  0  0  0  0  0  0  0  0  0
    8.6316  -14.9230   22.8705 O   0  0  0  0  0  0  0  0  0  0  0  0
   12.2369  -20.9292   22.7504 N   0  0  0  0  0  0  0  0  0  0  0  0
   11.6791  -20.6275   24.0100 C   0  0  0  0  0  0  0  0  0  0  0  0
   11.8758  -21.4879   24.9302 O   0  0  0  0  0  0  0  0  0  0  0  0
   10.9064  -19.4025   24.2936 C   0  0  0  0  0  0  0  0  0  0  0  0
   10.8286  -18.5711   23.0545 C   0  0  0  0  0  0  0  0  0  0  0  0
   10.0993  -17.2740   23.2520 C   0  0  2  0  0  0  0  0  0  0  0  0
   10.1076  -16.4667   22.0553 N   0  0  0  0  0  0  0  0  0  0  0  0
   10.5516  -16.5324   24.4399 C   0  0  0  0  0  0  0  0  0  0  0  0
   11.7257  -16.0282   24.3953 O   0  0  0  0  0  0  0  0  0  0  0  0
    6.0095  -12.2933   26.7473 C   0  0  0  0  0  0  0  0  0  0  0  0
    7.7194  -12.5453   27.2757 S   0  0  0  0  0  0  0  0  0  0  0  0
    8.3744  -14.1245   26.6982 C   0  0  0  0  0  0  0  0  0  0  0  0
    9.8761  -14.1429   26.6984 C   0  0  0  0  0  0  0  0  0  0  0  0
   10.3610  -15.5918   26.7141 C   0  0  2  0  0  0  0  0  0  0  0  0
    9.8046  -16.3364   25.6054 N   0  0  0  0  0  0  0  0  0  0  0  0
   10.0360  -16.2375   28.0034 C   0  0  0  0  0  0  0  0  0  0  0  0
   10.5695  -15.7117   29.1629 O   0  0  0  0  0  0  0  0  0  0  0  0
    9.2958  -17.2413   28.0784 O   0  0  0  0  0  0  0  0  0  0  0  0
  2  4  1  0
  2  1  1  1
  3  2  1  0
  4  5  1  0
  5  6  1  6
  7  8  2  0
  7  5  1  0
  9 10  1  0
 10 12  1  0
 10 11  2  0
 12 13  1  0
 14 13  1  6
 14 15  1  0
 15  7  1  0
 16 17  2  0
 16 14  1  0
 19 18  1  0
 20 19  1  0
 20 21  1  0
 22 21  1  1
 22 23  1  0
 23 16  1  0
 24 22  1  0
 25 24  1  0
 26 24  2  0
M  END
$$$$
