LQM.pdb
     RDKit          3D

 26 25  0  0  1  0  0  0  0  0999 V2000
    7.5005  -12.1562   19.3793 C   0  0  0  0  0  0  0  0  0  0  0  0
    8.0284  -13.5504   19.2635 C   0  0  1  0  0  0  0  0  0  0  0  0
    9.4224  -13.5855   18.6736 C   0  0  0  0  0  0  0  0  0  0  0  0
    7.9585  -14.3081   20.5687 C   0  0  0  0  0  0  0  0  0  0  0  0
    8.5972  -15.6544   20.4637 C   0  0  2  0  0  0  0  0  0  0  0  0
    7.6833  -16.5560   19.7906 N   0  0  0  0  0  0  0  0  0  0  0  0
    8.9495  -16.2261   21.7867 C   0  0  0  0  0  0  0  0  0  0  0  0
    8.0683  -16.3737   22.6712 O   0  0  0  0  0  0  0  0  0  0  0  0
   14.4527  -18.7187   22.3584 N   0  0  0  0  0  0  0  0  0  0  0  0
   13.2530  -19.3484   21.9674 C   0  0  0  0  0  0  0  0  0  0  0  0
   13.3341  -20.1368   20.9686 O   0  0  0  0  0  0  0  0  0  0  0  0
   11.9577  -19.1387   22.6429 C   0  0  0  0  0  0  0  0  0  0  0  0
   11.9867  -17.8335   23.3697 C   0  0  0  0  0  0  0  0  0  0  0  0
   10.6527  -17.1466   23.4144 C   0  0  2  0  0  0  0  0  0  0  0  0
   10.2725  -16.6295   22.1214 N   0  0  0  0  0  0  0  0  0  0  0  0
   10.5592  -16.1357   24.4796 C   0  0  0  0  0  0  0  0  0  0  0  0
   11.3168  -15.1112   24.3738 O   0  0  0  0  0  0  0  0  0  0  0  0
    6.0280  -12.5131   26.0774 C   0  0  0  0  0  0  0  0  0  0  0  0
    7.0540  -12.1826   27.5281 S   0  0  0  0  0  0  0  0  0  0  0  0
    8.4462  -13.3252   27.6398 C   0  0  0  0  0  0  0  0  0  0  0  0
    8.4577  -14.3084   26.5046 C   0  0  0  0  0  0  0  0  0  0  0  0
    9.7261  -15.1564   26.5868 C   0  0  2  0  0  0  0  0  0  0  0  0
    9.7133  -16.2057   25.5908 N   0  0  0  0  0  0  0  0  0  0  0  0
    9.8933  -15.7159   27.9448 C   0  0  0  0  0  0  0  0  0  0  0  0
    9.9158  -17.0874   28.1002 O   0  0  0  0  0  0  0  0  0  0  0  0
   10.0150  -14.9901   28.9545 O   0  0  0  0  0  0  0  0  0  0  0  0
  2  4  1  0
  2  1  1  1
  3  2  1  0
  4  5  1  0
  5  6  1  1
  7  8  2  0
  7  5  1  0
  9 10  1  0
 10 12  1  0
 10 11  2  0
 12 13  1  0
 14 13  1  6
 14 15  1  0
 15  7  1  0
 16 17  2  0
 16 14  1  0
 19 18  1  0
 20 19  1  0
 20 21  1  0
 22 21  1  1
 22 23  1  0
 23 16  1  0
 24 22  1  0
 25 24  1  0
 26 24  2  0
M  END
$$$$
