LQM.pdb
     RDKit          3D

 26 25  0  0  1  0  0  0  0  0999 V2000
    8.1414  -12.4633   19.0672 C   0  0  0  0  0  0  0  0  0  0  0  0
    7.9482  -13.5307   20.0963 C   0  0  1  0  0  0  0  0  0  0  0  0
    7.2014  -13.0230   21.3117 C   0  0  0  0  0  0  0  0  0  0  0  0
    7.3053  -14.7747   19.5292 C   0  0  0  0  0  0  0  0  0  0  0  0
    7.3866  -15.9240   20.4799 C   0  0  2  0  0  0  0  0  0  0  0  0
    6.7746  -15.5380   21.7360 N   0  0  0  0  0  0  0  0  0  0  0  0
    8.7822  -16.3566   20.7378 C   0  0  0  0  0  0  0  0  0  0  0  0
    9.3430  -17.1843   19.9756 O   0  0  0  0  0  0  0  0  0  0  0  0
   14.6086  -13.6865   20.7403 N   0  0  0  0  0  0  0  0  0  0  0  0
   14.1275  -14.9860   20.4782 C   0  0  0  0  0  0  0  0  0  0  0  0
   14.4480  -15.4847   19.3493 O   0  0  0  0  0  0  0  0  0  0  0  0
   13.2997  -15.7610   21.4228 C   0  0  0  0  0  0  0  0  0  0  0  0
   11.8589  -15.4366   21.1962 C   0  0  0  0  0  0  0  0  0  0  0  0
   10.9264  -16.2215   22.0725 C   0  0  2  0  0  0  0  0  0  0  0  0
    9.5462  -15.8711   21.8358 N   0  0  0  0  0  0  0  0  0  0  0  0
   11.2896  -16.1662   23.4975 C   0  0  0  0  0  0  0  0  0  0  0  0
   12.3156  -15.4687   23.8069 O   0  0  0  0  0  0  0  0  0  0  0  0
    7.8498  -11.9154   25.3117 C   0  0  0  0  0  0  0  0  0  0  0  0
    7.4222  -13.2084   26.4997 S   0  0  0  0  0  0  0  0  0  0  0  0
    8.7760  -14.3782   26.7346 C   0  0  0  0  0  0  0  0  0  0  0  0
    9.1593  -15.0579   25.4515 C   0  0  0  0  0  0  0  0  0  0  0  0
   10.2506  -16.0890   25.7352 C   0  0  2  0  0  0  0  0  0  0  0  0
   10.6065  -16.8111   24.5331 N   0  0  0  0  0  0  0  0  0  0  0  0
    9.8273  -17.0165   26.8056 C   0  0  0  0  0  0  0  0  0  0  0  0
    9.6805  -18.3557   26.5046 O   0  0  0  0  0  0  0  0  0  0  0  0
    9.5987  -16.6293   27.9714 O   0  0  0  0  0  0  0  0  0  0  0  0
  2  4  1  0
  2  1  1  6
  3  2  1  0
  4  5  1  0
  5  6  1  1
  7  8  2  0
  7  5  1  0
  9 10  1  0
 10 12  1  0
 10 11  2  0
 12 13  1  0
 14 13  1  6
 14 15  1  0
 15  7  1  0
 16 17  2  0
 16 14  1  0
 19 18  1  0
 20 19  1  0
 20 21  1  0
 22 21  1  6
 22 23  1  0
 23 16  1  0
 24 22  1  0
 25 24  1  0
 26 24  2  0
M  END
$$$$
