LQM.pdb
     RDKit          3D

 26 25  0  0  1  0  0  0  0  0999 V2000
    7.8011  -11.8362   19.7711 C   0  0  0  0  0  0  0  0  0  0  0  0
    7.8623  -13.3299   19.7396 C   0  0  1  0  0  0  0  0  0  0  0  0
    8.8072  -13.8398   18.6721 C   0  0  0  0  0  0  0  0  0  0  0  0
    8.1774  -13.9269   21.0913 C   0  0  0  0  0  0  0  0  0  0  0  0
    8.0920  -15.4181   21.0727 C   0  0  2  0  0  0  0  0  0  0  0  0
    6.7332  -15.8063   20.7498 N   0  0  0  0  0  0  0  0  0  0  0  0
    8.4714  -16.0298   22.3702 C   0  0  0  0  0  0  0  0  0  0  0  0
    7.6318  -16.1178   23.3019 O   0  0  0  0  0  0  0  0  0  0  0  0
   13.4766  -19.8092   23.3656 N   0  0  0  0  0  0  0  0  0  0  0  0
   12.8950  -19.6711   24.6429 C   0  0  0  0  0  0  0  0  0  0  0  0
   13.4036  -20.3840   25.5698 O   0  0  0  0  0  0  0  0  0  0  0  0
   11.7647  -18.7689   24.9372 C   0  0  0  0  0  0  0  0  0  0  0  0
   11.2938  -18.1385   23.6670 C   0  0  0  0  0  0  0  0  0  0  0  0
   10.1608  -17.1738   23.8649 C   0  0  2  0  0  0  0  0  0  0  0  0
    9.7751  -16.5388   22.6272 N   0  0  0  0  0  0  0  0  0  0  0  0
   10.4084  -16.2064   24.9459 C   0  0  0  0  0  0  0  0  0  0  0  0
   11.3221  -15.3349   24.7450 O   0  0  0  0  0  0  0  0  0  0  0  0
    5.9930  -12.6423   26.2406 C   0  0  0  0  0  0  0  0  0  0  0  0
    7.5364  -12.2925   27.1135 S   0  0  0  0  0  0  0  0  0  0  0  0
    8.8484  -13.4383   26.6423 C   0  0  0  0  0  0  0  0  0  0  0  0
    9.2019  -14.3769   27.7600 C   0  0  0  0  0  0  0  0  0  0  0  0
   10.2452  -15.3775   27.2652 C   0  0  2  0  0  0  0  0  0  0  0  0
    9.7283  -16.1646   26.1669 N   0  0  0  0  0  0  0  0  0  0  0  0
   10.7023  -16.2454   28.3710 C   0  0  0  0  0  0  0  0  0  0  0  0
   11.3187  -15.6639   29.4608 O   0  0  0  0  0  0  0  0  0  0  0  0
   10.5493  -17.4854   28.3523 O   0  0  0  0  0  0  0  0  0  0  0  0
  2  4  1  0
  2  1  1  1
  3  2  1  0
  4  5  1  0
  5  6  1  1
  7  8  2  0
  7  5  1  0
  9 10  1  0
 10 12  1  0
 10 11  2  0
 12 13  1  0
 14 13  1  6
 14 15  1  0
 15  7  1  0
 16 17  2  0
 16 14  1  0
 19 18  1  0
 20 19  1  0
 20 21  1  0
 22 21  1  1
 22 23  1  0
 23 16  1  0
 24 22  1  0
 25 24  1  0
 26 24  2  0
M  END
$$$$
