LQM.pdb
     RDKit          3D

 26 25  0  0  1  0  0  0  0  0999 V2000
    6.5092  -13.5175   17.6068 C   0  0  0  0  0  0  0  0  0  0  0  0
    7.7896  -13.6155   18.3728 C   0  0  1  0  0  0  0  0  0  0  0  0
    8.5248  -12.2930   18.4269 C   0  0  0  0  0  0  0  0  0  0  0  0
    7.5979  -14.2011   19.7522 C   0  0  0  0  0  0  0  0  0  0  0  0
    8.8451  -14.1151   20.5698 C   0  0  2  0  0  0  0  0  0  0  0  0
    9.9914  -14.2369   19.6911 N   0  0  0  0  0  0  0  0  0  0  0  0
    8.9221  -15.1705   21.6099 C   0  0  0  0  0  0  0  0  0  0  0  0
    7.9351  -15.4055   22.3523 O   0  0  0  0  0  0  0  0  0  0  0  0
   13.1899  -18.4850   20.5539 N   0  0  0  0  0  0  0  0  0  0  0  0
   11.9527  -19.1549   20.4573 C   0  0  0  0  0  0  0  0  0  0  0  0
   11.8231  -19.9524   19.4709 O   0  0  0  0  0  0  0  0  0  0  0  0
   10.8451  -18.9759   21.4162 C   0  0  0  0  0  0  0  0  0  0  0  0
   11.2570  -17.9976   22.4677 C   0  0  0  0  0  0  0  0  0  0  0  0
   10.1850  -17.0040   22.8100 C   0  0  2  0  0  0  0  0  0  0  0  0
   10.0891  -15.9570   21.8210 N   0  0  0  0  0  0  0  0  0  0  0  0
   10.2989  -16.4811   24.1808 C   0  0  0  0  0  0  0  0  0  0  0  0
   11.1639  -15.5607   24.3794 O   0  0  0  0  0  0  0  0  0  0  0  0
    7.6074  -11.1585   26.8687 C   0  0  0  0  0  0  0  0  0  0  0  0
    6.8107  -12.7807   26.8633 S   0  0  0  0  0  0  0  0  0  0  0  0
    7.9808  -14.1043   27.2312 C   0  0  0  0  0  0  0  0  0  0  0  0
    8.2392  -14.9736   26.0342 C   0  0  0  0  0  0  0  0  0  0  0  0
    9.2987  -16.0157   26.3890 C   0  0  2  0  0  0  0  0  0  0  0  0
    9.5415  -16.9076   25.2760 N   0  0  0  0  0  0  0  0  0  0  0  0
    8.9052  -16.7703   27.5976 C   0  0  0  0  0  0  0  0  0  0  0  0
    8.8055  -18.1450   27.5194 O   0  0  0  0  0  0  0  0  0  0  0  0
    8.6604  -16.2064   28.6854 O   0  0  0  0  0  0  0  0  0  0  0  0
  2  4  1  0
  2  1  1  1
  3  2  1  0
  4  5  1  0
  5  6  1  6
  7  8  2  0
  7  5  1  0
  9 10  1  0
 10 12  1  0
 10 11  2  0
 12 13  1  0
 14 13  1  6
 14 15  1  0
 15  7  1  0
 16 17  2  0
 16 14  1  0
 19 18  1  0
 20 19  1  0
 20 21  1  0
 22 21  1  6
 22 23  1  0
 23 16  1  0
 24 22  1  0
 25 24  1  0
 26 24  2  0
M  END
$$$$
