LQM.pdb
     RDKit          3D

 26 25  0  0  1  0  0  0  0  0999 V2000
    6.6320  -12.9134   17.6365 C   0  0  0  0  0  0  0  0  0  0  0  0
    7.9581  -13.3587   18.1647 C   0  0  1  0  0  0  0  0  0  0  0  0
    8.8279  -12.1912   18.5805 C   0  0  0  0  0  0  0  0  0  0  0  0
    7.8295  -14.3777   19.2727 C   0  0  0  0  0  0  0  0  0  0  0  0
    9.1170  -14.5647   20.0068 C   0  0  2  0  0  0  0  0  0  0  0  0
   10.0926  -15.1421   19.1034 N   0  0  0  0  0  0  0  0  0  0  0  0
    8.9779  -15.4465   21.1919 C   0  0  0  0  0  0  0  0  0  0  0  0
    8.0310  -15.2792   22.0019 O   0  0  0  0  0  0  0  0  0  0  0  0
   12.4653  -20.6516   22.2530 N   0  0  0  0  0  0  0  0  0  0  0  0
   11.2848  -20.6193   21.4821 C   0  0  0  0  0  0  0  0  0  0  0  0
   11.0892  -21.6191   20.7153 O   0  0  0  0  0  0  0  0  0  0  0  0
   10.3052  -19.5163   21.5265 C   0  0  0  0  0  0  0  0  0  0  0  0
   10.7312  -18.5201   22.5554 C   0  0  0  0  0  0  0  0  0  0  0  0
    9.8157  -17.3344   22.6517 C   0  0  2  0  0  0  0  0  0  0  0  0
    9.8863  -16.5054   21.4721 N   0  0  0  0  0  0  0  0  0  0  0  0
    9.9926  -16.5679   23.8954 C   0  0  0  0  0  0  0  0  0  0  0  0
   11.0079  -15.7933   23.9587 O   0  0  0  0  0  0  0  0  0  0  0  0
    6.5588  -11.3142   28.2144 C   0  0  0  0  0  0  0  0  0  0  0  0
    6.5502  -12.5232   26.8711 S   0  0  0  0  0  0  0  0  0  0  0  0
    7.9480  -13.6590   26.9815 C   0  0  0  0  0  0  0  0  0  0  0  0
    7.9686  -14.6360   25.8412 C   0  0  0  0  0  0  0  0  0  0  0  0
    9.1723  -15.5643   25.9961 C   0  0  2  0  0  0  0  0  0  0  0  0
    9.1444  -16.6187   25.0058 N   0  0  0  0  0  0  0  0  0  0  0  0
    9.2290  -16.1223   27.3638 C   0  0  0  0  0  0  0  0  0  0  0  0
    9.5185  -15.2759   28.4152 O   0  0  0  0  0  0  0  0  0  0  0  0
    9.0238  -17.3321   27.5993 O   0  0  0  0  0  0  0  0  0  0  0  0
  2  4  1  0
  2  1  1  1
  3  2  1  0
  4  5  1  0
  5  6  1  6
  7  8  2  0
  7  5  1  0
  9 10  1  0
 10 12  1  0
 10 11  2  0
 12 13  1  0
 14 13  1  6
 14 15  1  0
 15  7  1  0
 16 17  2  0
 16 14  1  0
 19 18  1  0
 20 19  1  0
 20 21  1  0
 22 21  1  1
 22 23  1  0
 23 16  1  0
 24 22  1  0
 25 24  1  0
 26 24  2  0
M  END
$$$$
