LQM.pdb
     RDKit          3D

 26 25  0  0  1  0  0  0  0  0999 V2000
    7.0603  -12.8079   18.3435 C   0  0  0  0  0  0  0  0  0  0  0  0
    8.0300  -13.6399   19.1201 C   0  0  1  0  0  0  0  0  0  0  0  0
    9.2907  -12.8751   19.4639 C   0  0  0  0  0  0  0  0  0  0  0  0
    7.4074  -14.2643   20.3469 C   0  0  0  0  0  0  0  0  0  0  0  0
    8.4257  -14.9500   21.1981 C   0  0  2  0  0  0  0  0  0  0  0  0
    8.9743  -16.0715   20.4616 N   0  0  0  0  0  0  0  0  0  0  0  0
    7.8626  -15.4447   22.4785 C   0  0  0  0  0  0  0  0  0  0  0  0
    7.1978  -14.6773   23.2201 O   0  0  0  0  0  0  0  0  0  0  0  0
    6.9066  -20.9116   22.4230 N   0  0  0  0  0  0  0  0  0  0  0  0
    5.8533  -19.9786   22.3290 C   0  0  0  0  0  0  0  0  0  0  0  0
    4.9305  -20.2579   21.4946 O   0  0  0  0  0  0  0  0  0  0  0  0
    5.7803  -18.7396   23.1277 C   0  0  0  0  0  0  0  0  0  0  0  0
    6.9632  -18.6697   24.0378 C   0  0  0  0  0  0  0  0  0  0  0  0
    7.5240  -17.2846   24.1807 C   0  0  2  0  0  0  0  0  0  0  0  0
    8.0390  -16.7830   22.9289 N   0  0  0  0  0  0  0  0  0  0  0  0
    8.4930  -17.1648   25.2817 C   0  0  0  0  0  0  0  0  0  0  0  0
    8.4632  -18.0735   26.1807 O   0  0  0  0  0  0  0  0  0  0  0  0
    5.8616  -11.8577   28.0872 C   0  0  0  0  0  0  0  0  0  0  0  0
    7.6402  -12.0495   27.8301 S   0  0  0  0  0  0  0  0  0  0  0  0
    8.1668  -13.7633   28.0349 C   0  0  0  0  0  0  0  0  0  0  0  0
    8.1606  -14.5116   26.7329 C   0  0  0  0  0  0  0  0  0  0  0  0
    9.4520  -15.3191   26.6109 C   0  0  2  0  0  0  0  0  0  0  0  0
    9.4374  -16.1433   25.4220 N   0  0  0  0  0  0  0  0  0  0  0  0
    9.6724  -16.1380   27.8216 C   0  0  0  0  0  0  0  0  0  0  0  0
    9.5407  -17.5091   27.7294 O   0  0  0  0  0  0  0  0  0  0  0  0
    9.9735  -15.6315   28.9234 O   0  0  0  0  0  0  0  0  0  0  0  0
  2  4  1  0
  2  1  1  1
  3  2  1  0
  4  5  1  0
  5  6  1  6
  7  8  2  0
  7  5  1  0
  9 10  1  0
 10 12  1  0
 10 11  2  0
 12 13  1  0
 14 13  1  6
 14 15  1  0
 15  7  1  0
 16 17  2  0
 16 14  1  0
 19 18  1  0
 20 19  1  0
 20 21  1  0
 22 21  1  1
 22 23  1  0
 23 16  1  0
 24 22  1  0
 25 24  1  0
 26 24  2  0
M  END
$$$$
