LQM.pdb
     RDKit          3D

 26 25  0  0  1  0  0  0  0  0999 V2000
    3.0601  -19.1291   20.4487 C   0  0  0  0  0  0  0  0  0  0  0  0
    3.6956  -18.3610   21.5632 C   0  0  1  0  0  0  0  0  0  0  0  0
    2.8771  -18.4192   22.8356 C   0  0  0  0  0  0  0  0  0  0  0  0
    5.1297  -18.7695   21.8063 C   0  0  0  0  0  0  0  0  0  0  0  0
    5.9838  -18.5397   20.6026 C   0  0  2  0  0  0  0  0  0  0  0  0
    6.3673  -19.8227   20.0475 N   0  0  0  0  0  0  0  0  0  0  0  0
    7.2100  -17.7629   20.9101 C   0  0  0  0  0  0  0  0  0  0  0  0
    8.2053  -18.3256   21.4330 O   0  0  0  0  0  0  0  0  0  0  0  0
    8.5650  -12.1627   18.3580 N   0  0  0  0  0  0  0  0  0  0  0  0
    8.4352  -13.4414   17.7778 C   0  0  0  0  0  0  0  0  0  0  0  0
    8.2604  -13.4683   16.5151 O   0  0  0  0  0  0  0  0  0  0  0  0
    8.4914  -14.7008   18.5454 C   0  0  0  0  0  0  0  0  0  0  0  0
    8.5915  -14.3857   20.0025 C   0  0  0  0  0  0  0  0  0  0  0  0
    8.5223  -15.6009   20.8810 C   0  0  2  0  0  0  0  0  0  0  0  0
    7.3260  -16.3711   20.6374 N   0  0  0  0  0  0  0  0  0  0  0  0
    8.7195  -15.2946   22.3068 C   0  0  0  0  0  0  0  0  0  0  0  0
    9.7716  -14.6381   22.6179 O   0  0  0  0  0  0  0  0  0  0  0  0
    6.9086  -11.3836   28.2186 C   0  0  0  0  0  0  0  0  0  0  0  0
    6.0900  -12.5236   27.0799 S   0  0  0  0  0  0  0  0  0  0  0  0
    7.1836  -13.8667   26.5733 C   0  0  0  0  0  0  0  0  0  0  0  0
    6.9397  -14.2827   25.1511 C   0  0  0  0  0  0  0  0  0  0  0  0
    8.0815  -15.1868   24.6889 C   0  0  2  0  0  0  0  0  0  0  0  0
    7.8534  -15.6616   23.3414 N   0  0  0  0  0  0  0  0  0  0  0  0
    8.2657  -16.3157   25.6252 C   0  0  0  0  0  0  0  0  0  0  0  0
    8.7272  -16.0534   26.8995 O   0  0  0  0  0  0  0  0  0  0  0  0
    8.0178  -17.4970   25.3023 O   0  0  0  0  0  0  0  0  0  0  0  0
  2  4  1  0
  2  1  1  6
  3  2  1  0
  4  5  1  0
  5  6  1  1
  7  8  2  0
  7  5  1  0
  9 10  1  0
 10 12  1  0
 10 11  2  0
 12 13  1  0
 14 13  1  6
 14 15  1  0
 15  7  1  0
 16 17  2  0
 16 14  1  0
 19 18  1  0
 20 19  1  0
 20 21  1  0
 22 21  1  1
 22 23  1  0
 23 16  1  0
 24 22  1  0
 25 24  1  0
 26 24  2  0
M  END
$$$$
