AFL.pdb
     RDKit          3D

 25 25  0  0  1  0  0  0  0  0999 V2000
   25.7344  -17.4804  -18.6307 C   0  0  0  0  0  0  0  0  0  0  0  0
   25.6681  -16.7985  -17.2725 C   0  0  2  0  0  0  0  0  0  0  0  0
   26.6140  -15.7026  -17.2929 N   0  0  0  0  0  0  0  0  0  0  0  0
   26.0606  -17.8065  -16.2483 C   0  0  0  0  0  0  0  0  0  0  0  0
   27.2538  -18.2569  -16.3418 O   0  0  0  0  0  0  0  0  0  0  0  0
   25.1861  -18.2430  -15.2392 N   0  0  0  0  0  0  0  0  0  0  0  0
   25.6209  -19.1755  -14.1739 C   0  0  1  0  0  0  0  0  0  0  0  0
   24.9004  -18.7908  -12.9339 C   0  0  0  0  0  0  0  0  0  0  0  0
   25.0867  -19.6088  -11.7677 C   0  0  0  0  0  0  0  0  0  0  0  0
   24.2498  -20.6378  -11.4072 C   0  0  0  0  0  0  0  0  0  0  0  0
   24.4972  -21.3800  -10.2445 C   0  0  0  0  0  0  0  0  0  0  0  0
   25.5677  -21.1093   -9.4383 C   0  0  0  0  0  0  0  0  0  0  0  0
   26.4150  -20.0831   -9.7852 C   0  0  0  0  0  0  0  0  0  0  0  0
   26.1560  -19.3693  -10.9253 C   0  0  0  0  0  0  0  0  0  0  0  0
   25.2560  -20.5256  -14.6147 C   0  0  0  0  0  0  0  0  0  0  0  0
   24.0775  -20.6939  -15.0873 O   0  0  0  0  0  0  0  0  0  0  0  0
   25.9287  -23.0405  -17.9027 C   0  0  0  0  0  0  0  0  0  0  0  0
   27.0479  -23.1458  -16.8612 C   0  0  2  0  0  0  0  0  0  0  0  0
   28.2017  -23.8608  -17.5124 C   0  0  0  0  0  0  0  0  0  0  0  0
   26.5606  -23.8273  -15.6222 C   0  0  0  0  0  0  0  0  0  0  0  0
   25.4657  -22.9968  -14.9767 C   0  0  2  0  0  0  0  0  0  0  0  0
   26.0575  -21.6911  -14.5926 N   0  0  0  0  0  0  0  0  0  0  0  0
   24.9906  -23.6402  -13.7607 C   0  0  0  0  0  0  0  0  0  0  0  0
   24.1424  -24.7652  -13.8041 O   0  0  0  0  0  0  0  0  0  0  0  0
   25.3317  -23.1928  -12.6188 O   0  0  0  0  0  0  0  0  0  0  0  0
  2  1  1  6
  2  3  1  0
  4  2  1  0
  4  5  2  0
  6  4  1  0
  7  6  1  0
  7  8  1  1
  8  9  1  0
  9 14  2  0
 10  9  1  0
 10 11  2  0
 11 12  1  0
 12 13  2  0
 14 13  1  0
 15  7  1  0
 16 15  2  0
 18 19  1  6
 18 17  1  0
 20 18  1  0
 21 20  1  1
 21 22  1  0
 22 15  1  0
 23 21  1  0
 24 23  1  0
 25 23  2  0
M  END
$$$$
