AFL.pdb
     RDKit          3D

 25 25  0  0  1  0  0  0  0  0999 V2000
   21.8967  -11.5206    7.9006 C   0  0  0  0  0  0  0  0  0  0  0  0
   20.5802  -10.8875    7.4763 C   0  0  2  0  0  0  0  0  0  0  0  0
   20.0572  -10.1708    8.6204 N   0  0  0  0  0  0  0  0  0  0  0  0
   19.6593  -11.9921    7.0881 C   0  0  0  0  0  0  0  0  0  0  0  0
   19.0383  -12.5609    8.0505 O   0  0  0  0  0  0  0  0  0  0  0  0
   19.4755  -12.3934    5.7543 N   0  0  0  0  0  0  0  0  0  0  0  0
   18.5492  -13.4885    5.3853 C   0  0  1  0  0  0  0  0  0  0  0  0
   18.4430  -13.4923    3.9043 C   0  0  0  0  0  0  0  0  0  0  0  0
   17.5979  -14.4808    3.2941 C   0  0  0  0  0  0  0  0  0  0  0  0
   16.2495  -14.5956    3.5345 C   0  0  0  0  0  0  0  0  0  0  0  0
   15.4991  -15.5984    2.9057 C   0  0  0  0  0  0  0  0  0  0  0  0
   16.0759  -16.4864    2.0410 C   0  0  0  0  0  0  0  0  0  0  0  0
   17.4241  -16.3848    1.7893 C   0  0  0  0  0  0  0  0  0  0  0  0
   18.1403  -15.3982    2.4138 C   0  0  0  0  0  0  0  0  0  0  0  0
   19.1392  -14.7331    5.8884 C   0  0  0  0  0  0  0  0  0  0  0  0
   20.2520  -15.1078    5.3768 O   0  0  0  0  0  0  0  0  0  0  0  0
   22.2699  -16.9029    7.8525 C   0  0  0  0  0  0  0  0  0  0  0  0
   21.2280  -16.0387    8.5708 C   0  0  2  0  0  0  0  0  0  0  0  0
   21.7732  -15.7210    9.9377 C   0  0  0  0  0  0  0  0  0  0  0  0
   19.9019  -16.7290    8.6150 C   0  0  0  0  0  0  0  0  0  0  0  0
   19.3413  -16.8534    7.2095 C   0  0  2  0  0  0  0  0  0  0  0  0
   18.6313  -15.5889    6.8938 N   0  0  0  0  0  0  0  0  0  0  0  0
   18.3678  -17.9335    7.1450 C   0  0  0  0  0  0  0  0  0  0  0  0
   16.9980  -17.6806    6.9295 O   0  0  0  0  0  0  0  0  0  0  0  0
   18.7368  -19.1435    7.2878 O   0  0  0  0  0  0  0  0  0  0  0  0
  2  1  1  1
  2  3  1  0
  4  2  1  0
  4  5  2  0
  6  4  1  0
  7  6  1  0
  7  8  1  6
  8  9  1  0
  9 14  2  0
 10  9  1  0
 10 11  2  0
 11 12  1  0
 12 13  2  0
 14 13  1  0
 15  7  1  0
 16 15  2  0
 18 19  1  1
 18 17  1  0
 20 18  1  0
 21 20  1  1
 21 22  1  0
 22 15  1  0
 23 21  1  0
 24 23  1  0
 25 23  2  0
M  END
$$$$
