AFL.pdb
     RDKit          3D

 25 25  0  0  1  0  0  0  0  0999 V2000
   27.9500  -21.4518  -16.3920 C   0  0  0  0  0  0  0  0  0  0  0  0
   27.0986  -20.6743  -17.3843 C   0  0  2  0  0  0  0  0  0  0  0  0
   27.9716  -19.7399  -18.0632 N   0  0  0  0  0  0  0  0  0  0  0  0
   26.0602  -19.9445  -16.6043 C   0  0  0  0  0  0  0  0  0  0  0  0
   26.4162  -18.8112  -16.1309 O   0  0  0  0  0  0  0  0  0  0  0  0
   24.7690  -20.4570  -16.3947 N   0  0  0  0  0  0  0  0  0  0  0  0
   23.7530  -19.7240  -15.6047 C   0  0  1  0  0  0  0  0  0  0  0  0
   22.5709  -19.5315  -16.4823 C   0  0  0  0  0  0  0  0  0  0  0  0
   22.6237  -18.4792  -17.4589 C   0  0  0  0  0  0  0  0  0  0  0  0
   22.9428  -18.6718  -18.7819 C   0  0  0  0  0  0  0  0  0  0  0  0
   22.9838  -17.5865  -19.6676 C   0  0  0  0  0  0  0  0  0  0  0  0
   22.7103  -16.3135  -19.2508 C   0  0  0  0  0  0  0  0  0  0  0  0
   22.3889  -16.1038  -17.9302 C   0  0  0  0  0  0  0  0  0  0  0  0
   22.3544  -17.1774  -17.0802 C   0  0  0  0  0  0  0  0  0  0  0  0
   23.4335  -20.5589  -14.4425 C   0  0  0  0  0  0  0  0  0  0  0  0
   22.9953  -21.7413  -14.6676 O   0  0  0  0  0  0  0  0  0  0  0  0
   25.8018  -22.1656  -11.3659 C   0  0  0  0  0  0  0  0  0  0  0  0
   25.2712  -20.7872  -10.9573 C   0  0  2  0  0  0  0  0  0  0  0  0
   26.0364  -20.3556   -9.7348 C   0  0  0  0  0  0  0  0  0  0  0  0
   23.7922  -20.8289  -10.7382 C   0  0  0  0  0  0  0  0  0  0  0  0
   23.0907  -21.1791  -12.0384 C   0  0  2  0  0  0  0  0  0  0  0  0
   23.5568  -20.2234  -13.0737 N   0  0  0  0  0  0  0  0  0  0  0  0
   21.6515  -21.0117  -11.8997 C   0  0  0  0  0  0  0  0  0  0  0  0
   20.8422  -22.0190  -11.3367 O   0  0  0  0  0  0  0  0  0  0  0  0
   21.0861  -19.9409  -12.2925 O   0  0  0  0  0  0  0  0  0  0  0  0
  2  1  1  1
  2  3  1  0
  4  2  1  0
  4  5  2  0
  6  4  1  0
  7  6  1  0
  7  8  1  6
  8  9  1  0
  9 14  2  0
 10  9  1  0
 10 11  2  0
 11 12  1  0
 12 13  2  0
 14 13  1  0
 15  7  1  0
 16 15  2  0
 18 19  1  1
 18 17  1  0
 20 18  1  0
 21 20  1  1
 21 22  1  0
 22 15  1  0
 23 21  1  0
 24 23  1  0
 25 23  2  0
M  END
$$$$
