AFL.pdb
     RDKit          3D

 25 25  0  0  1  0  0  0  0  0999 V2000
   29.5662  -20.3545  -15.4252 C   0  0  0  0  0  0  0  0  0  0  0  0
   28.1226  -20.5650  -15.8563 C   0  0  2  0  0  0  0  0  0  0  0  0
   27.9161  -19.7947  -17.0647 N   0  0  0  0  0  0  0  0  0  0  0  0
   27.2517  -20.0573  -14.7596 C   0  0  0  0  0  0  0  0  0  0  0  0
   27.1924  -18.7852  -14.6419 O   0  0  0  0  0  0  0  0  0  0  0  0
   26.5359  -20.9098  -13.9025 N   0  0  0  0  0  0  0  0  0  0  0  0
   25.5719  -20.3905  -12.9053 C   0  0  1  0  0  0  0  0  0  0  0  0
   24.2707  -21.0566  -13.1655 C   0  0  0  0  0  0  0  0  0  0  0  0
   23.1636  -20.7241  -12.3126 C   0  0  0  0  0  0  0  0  0  0  0  0
   22.7701  -21.4776  -11.2325 C   0  0  0  0  0  0  0  0  0  0  0  0
   21.6689  -21.0879  -10.4582 C   0  0  0  0  0  0  0  0  0  0  0  0
   20.9567  -19.9572  -10.7471 C   0  0  0  0  0  0  0  0  0  0  0  0
   21.3377  -19.1919  -11.8243 C   0  0  0  0  0  0  0  0  0  0  0  0
   22.4165  -19.5897  -12.5689 C   0  0  0  0  0  0  0  0  0  0  0  0
   26.1009  -20.7353  -11.5819 C   0  0  0  0  0  0  0  0  0  0  0  0
   26.4998  -21.9389  -11.4009 O   0  0  0  0  0  0  0  0  0  0  0  0
   27.9886  -18.7358   -6.0294 C   0  0  0  0  0  0  0  0  0  0  0  0
   27.6521  -19.8895   -6.9802 C   0  0  2  0  0  0  0  0  0  0  0  0
   28.8317  -20.8250   -6.9863 C   0  0  0  0  0  0  0  0  0  0  0  0
   27.3056  -19.3748   -8.3411 C   0  0  0  0  0  0  0  0  0  0  0  0
   26.6271  -20.4690   -9.1459 C   0  0  2  0  0  0  0  0  0  0  0  0
   26.2384  -19.8900  -10.4559 N   0  0  0  0  0  0  0  0  0  0  0  0
   25.4100  -20.9087   -8.4797 C   0  0  0  0  0  0  0  0  0  0  0  0
   25.3219  -22.1730   -7.8628 O   0  0  0  0  0  0  0  0  0  0  0  0
   24.3859  -20.1534   -8.4434 O   0  0  0  0  0  0  0  0  0  0  0  0
  2  1  1  1
  2  3  1  0
  4  2  1  0
  4  5  2  0
  6  4  1  0
  7  6  1  0
  7  8  1  6
  8  9  1  0
  9 14  2  0
 10  9  1  0
 10 11  2  0
 11 12  1  0
 12 13  2  0
 14 13  1  0
 15  7  1  0
 16 15  2  0
 18 19  1  6
 18 17  1  0
 20 18  1  0
 21 20  1  1
 21 22  1  0
 22 15  1  0
 23 21  1  0
 24 23  1  0
 25 23  2  0
M  END
$$$$
