AFL.pdb
     RDKit          3D

 25 25  0  0  1  0  0  0  0  0999 V2000
   26.5515  -17.6569  -13.7373 C   0  0  0  0  0  0  0  0  0  0  0  0
   27.6664  -18.2866  -14.5586 C   0  0  2  0  0  0  0  0  0  0  0  0
   27.2296  -18.3028  -15.9389 N   0  0  0  0  0  0  0  0  0  0  0  0
   27.8590  -19.6760  -14.0569 C   0  0  0  0  0  0  0  0  0  0  0  0
   27.1171  -20.5680  -14.5948 O   0  0  0  0  0  0  0  0  0  0  0  0
   28.7921  -19.9994  -13.0577 N   0  0  0  0  0  0  0  0  0  0  0  0
   29.0348  -21.3976  -12.6342 C   0  0  1  0  0  0  0  0  0  0  0  0
   30.4384  -21.4733  -12.1560 C   0  0  0  0  0  0  0  0  0  0  0  0
   30.6724  -21.3754  -10.7420 C   0  0  0  0  0  0  0  0  0  0  0  0
   30.6085  -20.2013  -10.0303 C   0  0  0  0  0  0  0  0  0  0  0  0
   30.8633  -20.1917   -8.6522 C   0  0  0  0  0  0  0  0  0  0  0  0
   31.1802  -21.3369   -7.9762 C   0  0  0  0  0  0  0  0  0  0  0  0
   31.2478  -22.5203   -8.6736 C   0  0  0  0  0  0  0  0  0  0  0  0
   30.9956  -22.5090  -10.0199 C   0  0  0  0  0  0  0  0  0  0  0  0
   28.0808  -21.6888  -11.5594 C   0  0  0  0  0  0  0  0  0  0  0  0
   27.9995  -22.9013  -11.1546 O   0  0  0  0  0  0  0  0  0  0  0  0
   28.0263  -20.3538   -6.7432 C   0  0  0  0  0  0  0  0  0  0  0  0
   27.2903  -20.1761   -8.0756 C   0  0  2  0  0  0  0  0  0  0  0  0
   26.1638  -19.2054   -7.8405 C   0  0  0  0  0  0  0  0  0  0  0  0
   26.8261  -21.4944   -8.6081 C   0  0  0  0  0  0  0  0  0  0  0  0
   26.1827  -21.2999   -9.9695 C   0  0  2  0  0  0  0  0  0  0  0  0
   27.2248  -20.7824  -10.8908 N   0  0  0  0  0  0  0  0  0  0  0  0
   25.1262  -20.3016   -9.8936 C   0  0  0  0  0  0  0  0  0  0  0  0
   25.1222  -19.1664  -10.7291 O   0  0  0  0  0  0  0  0  0  0  0  0
   24.1744  -20.4322   -9.0584 O   0  0  0  0  0  0  0  0  0  0  0  0
  2  1  1  1
  2  3  1  0
  4  2  1  0
  4  5  2  0
  6  4  1  0
  7  6  1  0
  7  8  1  1
  8  9  1  0
  9 14  2  0
 10  9  1  0
 10 11  2  0
 11 12  1  0
 12 13  2  0
 14 13  1  0
 15  7  1  0
 16 15  2  0
 18 19  1  1
 18 17  1  0
 20 18  1  0
 21 20  1  1
 21 22  1  0
 22 15  1  0
 23 21  1  0
 24 23  1  0
 25 23  2  0
M  END
$$$$
