AFL.pdb
     RDKit          3D

 25 25  0  0  1  0  0  0  0  0999 V2000
   23.3004  -17.3757  -16.2654 C   0  0  0  0  0  0  0  0  0  0  0  0
   24.6921  -17.3506  -16.8791 C   0  0  2  0  0  0  0  0  0  0  0  0
   24.5292  -17.2886  -18.3164 N   0  0  0  0  0  0  0  0  0  0  0  0
   25.3751  -18.6148  -16.4862 C   0  0  0  0  0  0  0  0  0  0  0  0
   25.0127  -19.6625  -17.1238 O   0  0  0  0  0  0  0  0  0  0  0  0
   26.3559  -18.6669  -15.4817 N   0  0  0  0  0  0  0  0  0  0  0  0
   27.0561  -19.9247  -15.1338 C   0  0  1  0  0  0  0  0  0  0  0  0
   28.4335  -19.5586  -14.7172 C   0  0  0  0  0  0  0  0  0  0  0  0
   28.9128  -20.0669  -13.4619 C   0  0  0  0  0  0  0  0  0  0  0  0
   28.6854  -19.4620  -12.2489 C   0  0  0  0  0  0  0  0  0  0  0  0
   29.2006  -20.0186  -11.0703 C   0  0  0  0  0  0  0  0  0  0  0  0
   29.9383  -21.1694  -11.0867 C   0  0  0  0  0  0  0  0  0  0  0  0
   30.1746  -21.7873  -12.2924 C   0  0  0  0  0  0  0  0  0  0  0  0
   29.6628  -21.2277  -13.4331 C   0  0  0  0  0  0  0  0  0  0  0  0
   26.3046  -20.5408  -14.0357 C   0  0  0  0  0  0  0  0  0  0  0  0
   26.4833  -21.7919  -13.8271 O   0  0  0  0  0  0  0  0  0  0  0  0
   26.3151  -21.7524   -9.9428 C   0  0  0  0  0  0  0  0  0  0  0  0
   26.0787  -20.2654  -10.2284 C   0  0  2  0  0  0  0  0  0  0  0  0
   26.2807  -19.5220   -8.9350 C   0  0  0  0  0  0  0  0  0  0  0  0
   24.7249  -20.0459  -10.8250 C   0  0  0  0  0  0  0  0  0  0  0  0
   24.6396  -20.7395  -12.1729 C   0  0  2  0  0  0  0  0  0  0  0  0
   25.3932  -19.9170  -13.1517 N   0  0  0  0  0  0  0  0  0  0  0  0
   23.2572  -20.8048  -12.6236 C   0  0  0  0  0  0  0  0  0  0  0  0
   22.8005  -20.0407  -13.7165 O   0  0  0  0  0  0  0  0  0  0  0  0
   22.4206  -21.5591  -12.0307 O   0  0  0  0  0  0  0  0  0  0  0  0
  2  1  1  1
  2  3  1  0
  4  2  1  0
  4  5  2  0
  6  4  1  0
  7  6  1  0
  7  8  1  1
  8  9  1  0
  9 14  2  0
 10  9  1  0
 10 11  2  0
 11 12  1  0
 12 13  2  0
 14 13  1  0
 15  7  1  0
 16 15  2  0
 18 19  1  1
 18 17  1  0
 20 18  1  0
 21 20  1  1
 21 22  1  0
 22 15  1  0
 23 21  1  0
 24 23  1  0
 25 23  2  0
M  END
$$$$
