AFL.pdb
     RDKit          3D

 25 25  0  0  1  0  0  0  0  0999 V2000
   20.9342  -12.2040  -19.7003 C   0  0  0  0  0  0  0  0  0  0  0  0
   22.2436  -11.8924  -18.9914 C   0  0  2  0  0  0  0  0  0  0  0  0
   22.8699  -13.1566  -18.6660 N   0  0  0  0  0  0  0  0  0  0  0  0
   21.9098  -11.1414  -17.7490 C   0  0  0  0  0  0  0  0  0  0  0  0
   21.3780  -11.8289  -16.8109 O   0  0  0  0  0  0  0  0  0  0  0  0
   22.1578   -9.7662  -17.6038 N   0  0  0  0  0  0  0  0  0  0  0  0
   21.9006   -9.0529  -16.3316 C   0  0  1  0  0  0  0  0  0  0  0  0
   22.9181   -7.9774  -16.2189 C   0  0  0  0  0  0  0  0  0  0  0  0
   22.6877   -6.9327  -15.2601 C   0  0  0  0  0  0  0  0  0  0  0  0
   22.4547   -7.1520  -13.9234 C   0  0  0  0  0  0  0  0  0  0  0  0
   22.2265   -6.0748  -13.0564 C   0  0  0  0  0  0  0  0  0  0  0  0
   22.2283   -4.7835  -13.5054 C   0  0  0  0  0  0  0  0  0  0  0  0
   22.4603   -4.5469  -14.8402 C   0  0  0  0  0  0  0  0  0  0  0  0
   22.6809   -5.6131  -15.6715 C   0  0  0  0  0  0  0  0  0  0  0  0
   20.5428   -8.5060  -16.4170 C   0  0  0  0  0  0  0  0  0  0  0  0
   20.1844   -7.9870  -17.5318 O   0  0  0  0  0  0  0  0  0  0  0  0
   16.2818   -9.6115  -17.3645 C   0  0  0  0  0  0  0  0  0  0  0  0
   17.0950   -9.9037  -16.0989 C   0  0  2  0  0  0  0  0  0  0  0  0
   16.4756  -11.1042  -15.4343 C   0  0  0  0  0  0  0  0  0  0  0  0
   17.1459   -8.7027  -15.2089 C   0  0  0  0  0  0  0  0  0  0  0  0
   18.2679   -7.7817  -15.6539 C   0  0  2  0  0  0  0  0  0  0  0  0
   19.5520   -8.4838  -15.4074 N   0  0  0  0  0  0  0  0  0  0  0  0
   18.2713   -6.5639  -14.8567 C   0  0  0  0  0  0  0  0  0  0  0  0
   17.6611   -5.3793  -15.3163 O   0  0  0  0  0  0  0  0  0  0  0  0
   18.8358   -6.5415  -13.7159 O   0  0  0  0  0  0  0  0  0  0  0  0
  2  1  1  1
  2  3  1  0
  4  2  1  0
  4  5  2  0
  6  4  1  0
  7  6  1  0
  7  8  1  6
  8  9  1  0
  9 14  2  0
 10  9  1  0
 10 11  2  0
 11 12  1  0
 12 13  2  0
 14 13  1  0
 15  7  1  0
 16 15  2  0
 18 19  1  1
 18 17  1  0
 20 18  1  0
 21 20  1  1
 21 22  1  0
 22 15  1  0
 23 21  1  0
 24 23  1  0
 25 23  2  0
M  END
$$$$
