AFL.pdb
     RDKit          3D

 25 25  0  0  1  0  0  0  0  0999 V2000
   27.5911  -20.7510  -17.6278 C   0  0  0  0  0  0  0  0  0  0  0  0
   28.2323  -21.5840  -16.5283 C   0  0  2  0  0  0  0  0  0  0  0  0
   28.5518  -22.8768  -17.0966 N   0  0  0  0  0  0  0  0  0  0  0  0
   27.2292  -21.7285  -15.4364 C   0  0  0  0  0  0  0  0  0  0  0  0
   26.5006  -22.7782  -15.4877 O   0  0  0  0  0  0  0  0  0  0  0  0
   27.0826  -20.7802  -14.4104 N   0  0  0  0  0  0  0  0  0  0  0  0
   26.1882  -21.0094  -13.2524 C   0  0  1  0  0  0  0  0  0  0  0  0
   26.7044  -20.1855  -12.1301 C   0  0  0  0  0  0  0  0  0  0  0  0
   26.0225  -20.2667  -10.8683 C   0  0  0  0  0  0  0  0  0  0  0  0
   24.9595  -19.4703  -10.5148 C   0  0  0  0  0  0  0  0  0  0  0  0
   24.3581  -19.6064   -9.2563 C   0  0  0  0  0  0  0  0  0  0  0  0
   24.8028  -20.5259   -8.3476 C   0  0  0  0  0  0  0  0  0  0  0  0
   25.8653  -21.3309   -8.6860 C   0  0  0  0  0  0  0  0  0  0  0  0
   26.4397  -21.1824   -9.9206 C   0  0  0  0  0  0  0  0  0  0  0  0
   24.8452  -20.5860  -13.6611 C   0  0  0  0  0  0  0  0  0  0  0  0
   24.7377  -19.4564  -14.2553 O   0  0  0  0  0  0  0  0  0  0  0  0
   22.4435  -20.2821  -16.9320 C   0  0  0  0  0  0  0  0  0  0  0  0
   22.5227  -21.5975  -16.1497 C   0  0  2  0  0  0  0  0  0  0  0  0
   22.1119  -22.7024  -17.0862 C   0  0  0  0  0  0  0  0  0  0  0  0
   21.6823  -21.5342  -14.9141 C   0  0  0  0  0  0  0  0  0  0  0  0
   22.3495  -20.6387  -13.8853 C   0  0  2  0  0  0  0  0  0  0  0  0
   23.6262  -21.2825  -13.4876 N   0  0  0  0  0  0  0  0  0  0  0  0
   21.5208  -20.5297  -12.6937 C   0  0  0  0  0  0  0  0  0  0  0  0
   20.4887  -19.5746  -12.5974 O   0  0  0  0  0  0  0  0  0  0  0  0
   21.7157  -21.3010  -11.6999 O   0  0  0  0  0  0  0  0  0  0  0  0
  2  1  1  6
  2  3  1  0
  4  2  1  0
  4  5  2  0
  6  4  1  0
  7  6  1  0
  7  8  1  1
  8  9  1  0
  9 14  2  0
 10  9  1  0
 10 11  2  0
 11 12  1  0
 12 13  2  0
 14 13  1  0
 15  7  1  0
 16 15  2  0
 18 19  1  6
 18 17  1  0
 20 18  1  0
 21 20  1  6
 21 22  1  0
 22 15  1  0
 23 21  1  0
 24 23  1  0
 25 23  2  0
M  END
$$$$
