AFL.pdb
     RDKit          3D

 25 25  0  0  1  0  0  0  0  0999 V2000
   25.7595  -18.2267  -18.4354 C   0  0  0  0  0  0  0  0  0  0  0  0
   26.9946  -18.6314  -17.6449 C   0  0  2  0  0  0  0  0  0  0  0  0
   27.8627  -19.3621  -18.5443 N   0  0  0  0  0  0  0  0  0  0  0  0
   26.5419  -19.5094  -16.5299 C   0  0  0  0  0  0  0  0  0  0  0  0
   26.2604  -20.7146  -16.8519 O   0  0  0  0  0  0  0  0  0  0  0  0
   26.4272  -19.0555  -15.2053 N   0  0  0  0  0  0  0  0  0  0  0  0
   25.9799  -19.9437  -14.1078 C   0  0  1  0  0  0  0  0  0  0  0  0
   26.4917  -19.3653  -12.8397 C   0  0  0  0  0  0  0  0  0  0  0  0
   26.1159  -20.0053  -11.6097 C   0  0  0  0  0  0  0  0  0  0  0  0
   25.2520  -19.4597  -10.6904 C   0  0  0  0  0  0  0  0  0  0  0  0
   24.9476  -20.1466   -9.5074 C   0  0  0  0  0  0  0  0  0  0  0  0
   25.4929  -21.3693   -9.2306 C   0  0  0  0  0  0  0  0  0  0  0  0
   26.3590  -21.9293  -10.1404 C   0  0  0  0  0  0  0  0  0  0  0  0
   26.6441  -21.2422  -11.2906 C   0  0  0  0  0  0  0  0  0  0  0  0
   24.5141  -19.9587  -14.1426 C   0  0  0  0  0  0  0  0  0  0  0  0
   23.9199  -18.8688  -14.4584 O   0  0  0  0  0  0  0  0  0  0  0  0
   19.7775  -20.1113  -15.1086 C   0  0  0  0  0  0  0  0  0  0  0  0
   20.2824  -21.5151  -15.4591 C   0  0  2  0  0  0  0  0  0  0  0  0
   19.5316  -22.4916  -14.5935 C   0  0  0  0  0  0  0  0  0  0  0  0
   21.7660  -21.6050  -15.2925 C   0  0  0  0  0  0  0  0  0  0  0  0
   22.1851  -20.8776  -14.0273 C   0  0  2  0  0  0  0  0  0  0  0  0
   23.6515  -21.0474  -13.8744 N   0  0  0  0  0  0  0  0  0  0  0  0
   21.5482  -21.4758  -12.8633 C   0  0  0  0  0  0  0  0  0  0  0  0
   20.4335  -20.8768  -12.2425 O   0  0  0  0  0  0  0  0  0  0  0  0
   21.9924  -22.5634  -12.3729 O   0  0  0  0  0  0  0  0  0  0  0  0
  2  1  1  6
  2  3  1  0
  4  2  1  0
  4  5  2  0
  6  4  1  0
  7  6  1  0
  7  8  1  1
  8  9  1  0
  9 14  2  0
 10  9  1  0
 10 11  2  0
 11 12  1  0
 12 13  2  0
 14 13  1  0
 15  7  1  0
 16 15  2  0
 18 19  1  1
 18 17  1  0
 20 18  1  0
 21 20  1  6
 21 22  1  0
 22 15  1  0
 23 21  1  0
 24 23  1  0
 25 23  2  0
M  END
$$$$
