AFL.pdb
     RDKit          3D

 25 25  0  0  1  0  0  0  0  0999 V2000
   26.8462  -20.4581  -18.3343 C   0  0  0  0  0  0  0  0  0  0  0  0
   26.7866  -19.0071  -17.8814 C   0  0  2  0  0  0  0  0  0  0  0  0
   27.7535  -18.2694  -18.6670 N   0  0  0  0  0  0  0  0  0  0  0  0
   27.1549  -18.9754  -16.4383 C   0  0  0  0  0  0  0  0  0  0  0  0
   28.3992  -19.1181  -16.1799 O   0  0  0  0  0  0  0  0  0  0  0  0
   26.2064  -18.8007  -15.4168 N   0  0  0  0  0  0  0  0  0  0  0  0
   26.6000  -18.6709  -13.9949 C   0  0  1  0  0  0  0  0  0  0  0  0
   25.4984  -17.9593  -13.2986 C   0  0  0  0  0  0  0  0  0  0  0  0
   25.5120  -17.9426  -11.8622 C   0  0  0  0  0  0  0  0  0  0  0  0
   26.2559  -17.0659  -11.1092 C   0  0  0  0  0  0  0  0  0  0  0  0
   26.2212  -17.1256   -9.7094 C   0  0  0  0  0  0  0  0  0  0  0  0
   25.4545  -18.0473   -9.0524 C   0  0  0  0  0  0  0  0  0  0  0  0
   24.7038  -18.9316   -9.7912 C   0  0  0  0  0  0  0  0  0  0  0  0
   24.7514  -18.8573  -11.1582 C   0  0  0  0  0  0  0  0  0  0  0  0
   26.7782  -20.0308  -13.4765 C   0  0  0  0  0  0  0  0  0  0  0  0
   26.0957  -20.9658  -14.0248 O   0  0  0  0  0  0  0  0  0  0  0  0
   30.3642  -22.3332  -13.0508 C   0  0  0  0  0  0  0  0  0  0  0  0
   30.0632  -21.5682  -11.7574 C   0  0  2  0  0  0  0  0  0  0  0  0
   31.2829  -21.6705  -10.8809 C   0  0  0  0  0  0  0  0  0  0  0  0
   28.8256  -22.0943  -11.1027 C   0  0  0  0  0  0  0  0  0  0  0  0
   27.6316  -21.8801  -12.0158 C   0  0  2  0  0  0  0  0  0  0  0  0
   27.6314  -20.4553  -12.4309 N   0  0  0  0  0  0  0  0  0  0  0  0
   26.3912  -22.1299  -11.2963 C   0  0  0  0  0  0  0  0  0  0  0  0
   25.9246  -23.4392  -11.0622 O   0  0  0  0  0  0  0  0  0  0  0  0
   25.6911  -21.1595  -10.8619 O   0  0  0  0  0  0  0  0  0  0  0  0
  2  1  1  6
  2  3  1  0
  4  2  1  0
  4  5  2  0
  6  4  1  0
  7  6  1  0
  7  8  1  1
  8  9  1  0
  9 14  2  0
 10  9  1  0
 10 11  2  0
 11 12  1  0
 12 13  2  0
 14 13  1  0
 15  7  1  0
 16 15  2  0
 18 19  1  1
 18 17  1  0
 20 18  1  0
 21 20  1  1
 21 22  1  0
 22 15  1  0
 23 21  1  0
 24 23  1  0
 25 23  2  0
M  END
$$$$
