AFL.pdb
     RDKit          3D

 25 25  0  0  1  0  0  0  0  0999 V2000
   18.4340  -11.0257  -20.3777 C   0  0  0  0  0  0  0  0  0  0  0  0
   19.8002  -10.7996  -19.7482 C   0  0  2  0  0  0  0  0  0  0  0  0
   20.3831  -12.1019  -19.5022 N   0  0  0  0  0  0  0  0  0  0  0  0
   19.5849  -10.0744  -18.4650 C   0  0  0  0  0  0  0  0  0  0  0  0
   18.5597  -10.4332  -17.7900 O   0  0  0  0  0  0  0  0  0  0  0  0
   20.4450   -9.0594  -18.0134 N   0  0  0  0  0  0  0  0  0  0  0  0
   20.2481   -8.3876  -16.7083 C   0  0  1  0  0  0  0  0  0  0  0  0
   21.5608   -8.3848  -16.0144 C   0  0  0  0  0  0  0  0  0  0  0  0
   21.6797   -7.6182  -14.8053 C   0  0  0  0  0  0  0  0  0  0  0  0
   21.3494   -8.0914  -13.5579 C   0  0  0  0  0  0  0  0  0  0  0  0
   21.4841   -7.2719  -12.4291 C   0  0  0  0  0  0  0  0  0  0  0  0
   21.9440   -5.9882  -12.5289 C   0  0  0  0  0  0  0  0  0  0  0  0
   22.2792   -5.4996  -13.7699 C   0  0  0  0  0  0  0  0  0  0  0  0
   22.1403   -6.3161  -14.8610 C   0  0  0  0  0  0  0  0  0  0  0  0
   19.7853   -7.0263  -16.9956 C   0  0  0  0  0  0  0  0  0  0  0  0
   20.3302   -6.4128  -17.9793 O   0  0  0  0  0  0  0  0  0  0  0  0
   16.3079   -2.6683  -16.4268 C   0  0  0  0  0  0  0  0  0  0  0  0
   16.6212   -3.5311  -17.6540 C   0  0  2  0  0  0  0  0  0  0  0  0
   15.4065   -3.5056  -18.5430 C   0  0  0  0  0  0  0  0  0  0  0  0
   17.0194   -4.9138  -17.2457 C   0  0  0  0  0  0  0  0  0  0  0  0
   18.4594   -4.9119  -16.7645 C   0  0  2  0  0  0  0  0  0  0  0  0
   18.7870   -6.2885  -16.3171 N   0  0  0  0  0  0  0  0  0  0  0  0
   18.6103   -4.0281  -15.6180 C   0  0  0  0  0  0  0  0  0  0  0  0
   19.2128   -2.7595  -15.7383 O   0  0  0  0  0  0  0  0  0  0  0  0
   18.2003   -4.3881  -14.4679 O   0  0  0  0  0  0  0  0  0  0  0  0
  2  1  1  1
  2  3  1  0
  4  2  1  0
  4  5  2  0
  6  4  1  0
  7  6  1  0
  7  8  1  6
  8  9  1  0
  9 14  2  0
 10  9  1  0
 10 11  2  0
 11 12  1  0
 12 13  2  0
 14 13  1  0
 15  7  1  0
 16 15  2  0
 18 19  1  6
 18 17  1  0
 20 18  1  0
 21 20  1  1
 21 22  1  0
 22 15  1  0
 23 21  1  0
 24 23  1  0
 25 23  2  0
M  END
$$$$
