QED.pdb
     RDKit          3D

 27 26  0  0  1  0  0  0  0  0999 V2000
   20.7703  -13.8013  -16.7564 N   0  0  0  0  0  0  0  0  0  0  0  0
   19.8703  -14.8961  -16.9602 C   0  0  0  0  0  0  0  0  0  0  0  0
   20.3697  -16.0392  -16.9337 O   0  0  0  0  0  0  0  0  0  0  0  0
   18.4498  -14.6588  -17.1897 C   0  0  0  0  0  0  0  0  0  0  0  0
   18.0796  -13.2090  -17.1862 C   0  0  0  0  0  0  0  0  0  0  0  0
   17.8195  -12.6576  -15.8302 C   0  0  2  0  0  0  0  0  0  0  0  0
   17.0746  -13.4926  -14.9385 N   0  0  0  0  0  0  0  0  0  0  0  0
   17.1866  -11.2918  -15.9464 C   0  0  0  0  0  0  0  0  0  0  0  0
   17.4288  -10.5716  -16.9643 O   0  0  0  0  0  0  0  0  0  0  0  0
   16.3239  -10.7332  -14.9933 N   0  0  0  0  0  0  0  0  0  0  0  0
   15.6419   -9.4591  -15.2281 C   0  0  1  0  0  0  0  0  0  0  0  0
   14.3285   -9.3980  -14.5562 C   0  0  0  0  0  0  0  0  0  0  0  0
   13.3505  -10.3583  -15.1652 C   0  0  0  0  0  0  0  0  0  0  0  0
   12.0098  -10.2605  -14.4746 C   0  0  0  0  0  0  0  0  0  0  0  0
   10.9949  -10.4065  -15.1803 O   0  0  0  0  0  0  0  0  0  0  0  0
   16.5197   -8.3353  -14.8692 C   0  0  0  0  0  0  0  0  0  0  0  0
   17.2634   -8.2884  -13.8705 O   0  0  0  0  0  0  0  0  0  0  0  0
   11.8757  -10.0219  -13.1265 O   0  0  0  0  0  0  0  0  0  0  0  0
   16.5608   -7.1634  -15.7106 N   0  0  0  0  0  0  0  0  0  0  0  0
   17.4199   -6.0146  -15.3836 C   0  0  1  0  0  0  0  0  0  0  0  0
   18.3802   -5.8871  -16.5146 C   0  0  0  0  0  0  0  0  0  0  0  0
   19.2231   -4.6963  -16.5337 C   0  0  0  0  0  0  0  0  0  0  0  0
   19.8569   -4.4420  -15.4498 O   0  0  0  0  0  0  0  0  0  0  0  0
   16.5710   -4.8142  -15.1602 C   0  0  0  0  0  0  0  0  0  0  0  0
   17.0287   -3.7704  -14.3859 O   0  0  0  0  0  0  0  0  0  0  0  0
   19.4233   -3.8147  -17.5591 O   0  0  0  0  0  0  0  0  0  0  0  0
   15.4164   -4.6846  -15.6510 O   0  0  0  0  0  0  0  0  0  0  0  0
  2  4  1  0
  2  1  1  0
  3  2  2  0
  5  6  1  0
  5  4  1  0
  6  7  1  6
  6  8  1  0
  8  9  2  0
 10  8  1  0
 10 11  1  0
 11 16  1  0
 11 12  1  1
 13 12  1  0
 13 14  1  0
 14 15  2  0
 16 17  2  0
 18 14  1  0
 19 20  1  0
 19 16  1  0
 20 24  1  0
 20 21  1  6
 22 21  1  0
 23 22  2  0
 24 27  2  0
 24 25  1  0
 26 22  1  0
M  END
$$$$
