QED.pdb
     RDKit          3D

 27 26  0  0  1  0  0  0  0  0999 V2000
   15.6302  -14.0489  -14.1021 N   0  0  0  0  0  0  0  0  0  0  0  0
   16.8198  -14.2221  -14.8799 C   0  0  0  0  0  0  0  0  0  0  0  0
   17.5692  -15.1629  -14.5484 O   0  0  0  0  0  0  0  0  0  0  0  0
   17.1179  -13.3279  -15.9928 C   0  0  0  0  0  0  0  0  0  0  0  0
   18.3279  -12.4772  -15.7661 C   0  0  0  0  0  0  0  0  0  0  0  0
   18.1765  -11.0766  -16.2414 C   0  0  2  0  0  0  0  0  0  0  0  0
   17.7696  -10.9097  -17.6029 N   0  0  0  0  0  0  0  0  0  0  0  0
   19.4397  -10.3005  -15.9562 C   0  0  0  0  0  0  0  0  0  0  0  0
   19.9350  -10.3141  -14.7866 O   0  0  0  0  0  0  0  0  0  0  0  0
   20.1363   -9.5413  -16.9065 N   0  0  0  0  0  0  0  0  0  0  0  0
   21.4064   -8.8875  -16.5858 C   0  0  1  0  0  0  0  0  0  0  0  0
   22.4378   -9.1402  -17.6116 C   0  0  0  0  0  0  0  0  0  0  0  0
   22.7592  -10.6009  -17.7246 C   0  0  0  0  0  0  0  0  0  0  0  0
   23.8299  -10.8301  -18.7663 C   0  0  0  0  0  0  0  0  0  0  0  0
   23.4833  -11.3853  -19.8251 O   0  0  0  0  0  0  0  0  0  0  0  0
   21.1941   -7.4550  -16.3304 C   0  0  0  0  0  0  0  0  0  0  0  0
   20.6733   -6.6478  -17.1241 O   0  0  0  0  0  0  0  0  0  0  0  0
   25.1417  -10.4558  -18.5892 O   0  0  0  0  0  0  0  0  0  0  0  0
   21.6057   -6.8850  -15.0699 N   0  0  0  0  0  0  0  0  0  0  0  0
   21.4819   -5.4434  -14.8036 C   0  0  1  0  0  0  0  0  0  0  0  0
   20.0527   -5.1035  -15.0485 C   0  0  0  0  0  0  0  0  0  0  0  0
   19.6336   -3.7432  -14.7285 C   0  0  0  0  0  0  0  0  0  0  0  0
   20.5752   -2.8852  -14.5913 O   0  0  0  0  0  0  0  0  0  0  0  0
   21.9536   -5.1565  -13.4227 C   0  0  0  0  0  0  0  0  0  0  0  0
   22.4198   -6.1742  -12.6194 O   0  0  0  0  0  0  0  0  0  0  0  0
   18.3649   -3.2648  -14.5544 O   0  0  0  0  0  0  0  0  0  0  0  0
   21.9541   -3.9998  -12.9202 O   0  0  0  0  0  0  0  0  0  0  0  0
  2  4  1  0
  2  1  1  0
  3  2  2  0
  5  6  1  0
  5  4  1  0
  6  7  1  6
  6  8  1  0
  8  9  2  0
 10  8  1  0
 10 11  1  0
 11 16  1  0
 11 12  1  6
 13 12  1  0
 13 14  1  0
 14 15  2  0
 16 17  2  0
 18 14  1  0
 19 20  1  0
 19 16  1  0
 20 24  1  0
 20 21  1  1
 22 21  1  0
 23 22  2  0
 24 27  2  0
 24 25  1  0
 26 22  1  0
M  END
$$$$
