QED.pdb
     RDKit          3D

 27 26  0  0  1  0  0  0  0  0999 V2000
   17.3503  -13.1356  -17.7649 N   0  0  0  0  0  0  0  0  0  0  0  0
   18.4923  -13.9627  -17.5160 C   0  0  0  0  0  0  0  0  0  0  0  0
   18.5679  -15.0197  -18.1746 O   0  0  0  0  0  0  0  0  0  0  0  0
   19.4968  -13.5686  -16.5349 C   0  0  0  0  0  0  0  0  0  0  0  0
   19.1528  -12.3099  -15.8024 C   0  0  0  0  0  0  0  0  0  0  0  0
   19.3629  -11.0729  -16.6000 C   0  0  2  0  0  0  0  0  0  0  0  0
   20.5081  -11.0584  -17.4576 N   0  0  0  0  0  0  0  0  0  0  0  0
   19.3556   -9.8694  -15.6885 C   0  0  0  0  0  0  0  0  0  0  0  0
   18.5245   -9.8125  -14.7296 O   0  0  0  0  0  0  0  0  0  0  0  0
   20.2193   -8.7728  -15.8150 N   0  0  0  0  0  0  0  0  0  0  0  0
   20.0336   -7.5539  -15.0254 C   0  0  1  0  0  0  0  0  0  0  0  0
   21.3023   -6.8292  -14.8126 C   0  0  0  0  0  0  0  0  0  0  0  0
   21.1451   -5.7203  -13.8149 C   0  0  0  0  0  0  0  0  0  0  0  0
   22.4364   -4.9484  -13.6709 C   0  0  0  0  0  0  0  0  0  0  0  0
   22.3942   -3.8855  -13.0244 O   0  0  0  0  0  0  0  0  0  0  0  0
   18.9880   -6.7110  -15.6241 C   0  0  0  0  0  0  0  0  0  0  0  0
   18.7199   -6.6441  -16.8391 O   0  0  0  0  0  0  0  0  0  0  0  0
   23.6272   -5.3693  -14.2161 O   0  0  0  0  0  0  0  0  0  0  0  0
   18.1753   -5.8709  -14.7774 N   0  0  0  0  0  0  0  0  0  0  0  0
   17.0813   -5.0563  -15.3290 C   0  0  1  0  0  0  0  0  0  0  0  0
   17.2850   -5.0429  -16.8042 C   0  0  0  0  0  0  0  0  0  0  0  0
   16.2890   -4.3352  -17.6016 C   0  0  0  0  0  0  0  0  0  0  0  0
   15.9975   -3.1507  -17.2100 O   0  0  0  0  0  0  0  0  0  0  0  0
   15.7778   -5.6250  -14.8940 C   0  0  0  0  0  0  0  0  0  0  0  0
   15.5966   -6.9896  -14.8366 O   0  0  0  0  0  0  0  0  0  0  0  0
   15.6246   -4.7732  -18.7131 O   0  0  0  0  0  0  0  0  0  0  0  0
   14.7908   -4.9132  -14.5626 O   0  0  0  0  0  0  0  0  0  0  0  0
  2  4  1  0
  2  1  1  0
  3  2  2  0
  5  6  1  0
  5  4  1  0
  6  7  1  1
  6  8  1  0
  8  9  2  0
 10  8  1  0
 10 11  1  0
 11 16  1  0
 11 12  1  6
 13 12  1  0
 13 14  1  0
 14 15  2  0
 16 17  2  0
 18 14  1  0
 19 20  1  0
 19 16  1  0
 20 24  1  0
 20 21  1  6
 22 21  1  0
 23 22  2  0
 24 27  2  0
 24 25  1  0
 26 22  1  0
M  END
$$$$
