QED.pdb
     RDKit          3D

 27 26  0  0  1  0  0  0  0  0999 V2000
   22.6819  -12.3202  -19.9082 N   0  0  0  0  0  0  0  0  0  0  0  0
   22.4547  -13.6823  -19.5296 C   0  0  0  0  0  0  0  0  0  0  0  0
   23.2958  -14.5164  -19.9215 O   0  0  0  0  0  0  0  0  0  0  0  0
   21.2902  -14.0485  -18.7316 C   0  0  0  0  0  0  0  0  0  0  0  0
   20.3811  -12.8962  -18.4403 C   0  0  0  0  0  0  0  0  0  0  0  0
   20.7050  -12.1778  -17.1796 C   0  0  2  0  0  0  0  0  0  0  0  0
   20.8635  -12.9881  -16.0111 N   0  0  0  0  0  0  0  0  0  0  0  0
   19.6958  -11.0802  -16.9429 C   0  0  0  0  0  0  0  0  0  0  0  0
   19.4105  -10.2753  -17.8832 O   0  0  0  0  0  0  0  0  0  0  0  0
   19.0232  -10.8684  -15.7315 N   0  0  0  0  0  0  0  0  0  0  0  0
   18.1582   -9.7050  -15.5267 C   0  0  1  0  0  0  0  0  0  0  0  0
   16.9331  -10.0467  -14.7767 C   0  0  0  0  0  0  0  0  0  0  0  0
   15.9988  -10.8861  -15.5965 C   0  0  0  0  0  0  0  0  0  0  0  0
   14.7642  -11.2393  -14.7996 C   0  0  0  0  0  0  0  0  0  0  0  0
   13.6614  -11.0364  -15.3401 O   0  0  0  0  0  0  0  0  0  0  0  0
   18.9166   -8.6058  -14.9111 C   0  0  0  0  0  0  0  0  0  0  0  0
   19.8902   -8.7385  -14.1449 O   0  0  0  0  0  0  0  0  0  0  0  0
   14.8158  -11.7643  -13.5291 O   0  0  0  0  0  0  0  0  0  0  0  0
   18.5429   -7.2388  -15.1844 N   0  0  0  0  0  0  0  0  0  0  0  0
   19.3165   -6.1099  -14.6442 C   0  0  1  0  0  0  0  0  0  0  0  0
   20.7308   -6.3568  -15.0399 C   0  0  0  0  0  0  0  0  0  0  0  0
   21.7647   -5.8647  -14.1357 C   0  0  0  0  0  0  0  0  0  0  0  0
   21.3522   -5.1851  -13.1311 O   0  0  0  0  0  0  0  0  0  0  0  0
   18.7487   -4.8349  -15.1574 C   0  0  0  0  0  0  0  0  0  0  0  0
   18.8097   -3.6879  -14.3964 O   0  0  0  0  0  0  0  0  0  0  0  0
   23.1185   -6.0337  -14.2223 O   0  0  0  0  0  0  0  0  0  0  0  0
   18.1940   -4.7312  -16.2854 O   0  0  0  0  0  0  0  0  0  0  0  0
  2  4  1  0
  2  1  1  0
  3  2  2  0
  5  6  1  0
  5  4  1  0
  6  7  1  1
  6  8  1  0
  8  9  2  0
 10  8  1  0
 10 11  1  0
 11 16  1  0
 11 12  1  1
 13 12  1  0
 13 14  1  0
 14 15  2  0
 16 17  2  0
 18 14  1  0
 19 20  1  0
 19 16  1  0
 20 24  1  0
 20 21  1  6
 22 21  1  0
 23 22  2  0
 24 27  2  0
 24 25  1  0
 26 22  1  0
M  END
$$$$
