QED.pdb
     RDKit          3D

 27 26  0  0  1  0  0  0  0  0999 V2000
   15.3682  -12.5650  -13.3145 N   0  0  0  0  0  0  0  0  0  0  0  0
   15.2647  -13.1075  -14.6356 C   0  0  0  0  0  0  0  0  0  0  0  0
   14.2955  -13.8626  -14.8526 O   0  0  0  0  0  0  0  0  0  0  0  0
   16.2571  -12.7818  -15.6534 C   0  0  0  0  0  0  0  0  0  0  0  0
   17.3370  -11.8697  -15.1627 C   0  0  0  0  0  0  0  0  0  0  0  0
   17.5703  -10.6889  -16.0355 C   0  0  2  0  0  0  0  0  0  0  0  0
   17.4108  -10.8988  -17.4418 N   0  0  0  0  0  0  0  0  0  0  0  0
   18.9197  -10.0853  -15.7292 C   0  0  0  0  0  0  0  0  0  0  0  0
   19.3056   -9.9884  -14.5229 O   0  0  0  0  0  0  0  0  0  0  0  0
   19.8137   -9.6076  -16.6974 N   0  0  0  0  0  0  0  0  0  0  0  0
   21.0979   -9.0092  -16.3281 C   0  0  1  0  0  0  0  0  0  0  0  0
   22.1869   -9.4234  -17.2350 C   0  0  0  0  0  0  0  0  0  0  0  0
   22.5549  -10.8637  -17.0357 C   0  0  0  0  0  0  0  0  0  0  0  0
   23.7249  -11.2397  -17.9154 C   0  0  0  0  0  0  0  0  0  0  0  0
   24.2718  -10.3233  -18.5562 O   0  0  0  0  0  0  0  0  0  0  0  0
   20.9693   -7.5483  -16.2202 C   0  0  0  0  0  0  0  0  0  0  0  0
   20.4230   -6.8061  -17.0588 O   0  0  0  0  0  0  0  0  0  0  0  0
   24.1948  -12.5275  -18.0294 O   0  0  0  0  0  0  0  0  0  0  0  0
   21.5041   -6.8671  -15.0657 N   0  0  0  0  0  0  0  0  0  0  0  0
   21.3927   -5.4076  -14.9169 C   0  0  1  0  0  0  0  0  0  0  0  0
   19.9442   -5.0915  -15.0585 C   0  0  0  0  0  0  0  0  0  0  0  0
   19.5408   -3.7139  -14.7974 C   0  0  0  0  0  0  0  0  0  0  0  0
   19.3880   -3.3996  -13.5649 O   0  0  0  0  0  0  0  0  0  0  0  0
   21.9861   -4.9996  -13.6158 C   0  0  0  0  0  0  0  0  0  0  0  0
   22.0699   -5.8985  -12.5749 O   0  0  0  0  0  0  0  0  0  0  0  0
   19.3029   -2.7140  -15.6987 O   0  0  0  0  0  0  0  0  0  0  0  0
   22.4336   -3.8415  -13.3945 O   0  0  0  0  0  0  0  0  0  0  0  0
  2  4  1  0
  2  1  1  0
  3  2  2  0
  5  6  1  0
  5  4  1  0
  6  7  1  6
  6  8  1  0
  8  9  2  0
 10  8  1  0
 10 11  1  0
 11 16  1  0
 11 12  1  6
 13 12  1  0
 13 14  1  0
 14 15  2  0
 16 17  2  0
 18 14  1  0
 19 20  1  0
 19 16  1  0
 20 24  1  0
 20 21  1  1
 22 21  1  0
 23 22  2  0
 24 27  2  0
 24 25  1  0
 26 22  1  0
M  END
$$$$
