QED.pdb
     RDKit          3D

 27 26  0  0  1  0  0  0  0  0999 V2000
   14.4022   -7.4935  -16.8171 N   0  0  0  0  0  0  0  0  0  0  0  0
   14.3344   -8.8918  -16.5163 C   0  0  0  0  0  0  0  0  0  0  0  0
   13.2903   -9.4840  -16.8564 O   0  0  0  0  0  0  0  0  0  0  0  0
   15.4402   -9.5623  -15.8423 C   0  0  0  0  0  0  0  0  0  0  0  0
   16.6231   -8.6754  -15.6111 C   0  0  0  0  0  0  0  0  0  0  0  0
   17.7816   -9.3677  -14.9875 C   0  0  2  0  0  0  0  0  0  0  0  0
   17.4838  -10.2459  -13.8978 N   0  0  0  0  0  0  0  0  0  0  0  0
   18.8308   -8.3558  -14.5943 C   0  0  0  0  0  0  0  0  0  0  0  0
   19.0414   -8.1143  -13.3652 O   0  0  0  0  0  0  0  0  0  0  0  0
   19.6197   -7.6368  -15.5027 N   0  0  0  0  0  0  0  0  0  0  0  0
   20.6222   -6.6697  -15.0515 C   0  0  1  0  0  0  0  0  0  0  0  0
   21.9905   -7.0614  -15.4443 C   0  0  0  0  0  0  0  0  0  0  0  0
   22.3634   -8.4028  -14.8864 C   0  0  0  0  0  0  0  0  0  0  0  0
   23.7557   -8.7927  -15.3264 C   0  0  0  0  0  0  0  0  0  0  0  0
   24.1221   -9.9579  -15.0867 O   0  0  0  0  0  0  0  0  0  0  0  0
   20.2649   -5.3157  -15.5001 C   0  0  0  0  0  0  0  0  0  0  0  0
   19.4590   -5.0442  -16.4108 O   0  0  0  0  0  0  0  0  0  0  0  0
   24.6107   -7.9260  -15.9668 O   0  0  0  0  0  0  0  0  0  0  0  0
   20.8704   -4.1695  -14.8656 N   0  0  0  0  0  0  0  0  0  0  0  0
   20.5243   -2.7978  -15.2694 C   0  0  1  0  0  0  0  0  0  0  0  0
   19.0858   -2.6214  -14.9267 C   0  0  0  0  0  0  0  0  0  0  0  0
   18.5107   -1.2997  -15.1531 C   0  0  0  0  0  0  0  0  0  0  0  0
   18.8028   -0.4059  -14.2830 O   0  0  0  0  0  0  0  0  0  0  0  0
   21.4389   -1.8406  -14.5920 C   0  0  0  0  0  0  0  0  0  0  0  0
   21.6716   -0.5955  -15.1343 O   0  0  0  0  0  0  0  0  0  0  0  0
   17.6982   -0.8913  -16.1738 O   0  0  0  0  0  0  0  0  0  0  0  0
   22.0381   -2.1041  -13.5140 O   0  0  0  0  0  0  0  0  0  0  0  0
  2  4  1  0
  2  1  1  0
  3  2  2  0
  5  6  1  0
  5  4  1  0
  6  7  1  1
  6  8  1  0
  8  9  2  0
 10  8  1  0
 10 11  1  0
 11 16  1  0
 11 12  1  6
 13 12  1  0
 13 14  1  0
 14 15  2  0
 16 17  2  0
 18 14  1  0
 19 20  1  0
 19 16  1  0
 20 24  1  0
 20 21  1  1
 22 21  1  0
 23 22  2  0
 24 27  2  0
 24 25  1  0
 26 22  1  0
M  END
$$$$
