QED.pdb
     RDKit          3D

 27 26  0  0  1  0  0  0  0  0999 V2000
   25.3024  -21.0965  -10.5770 N   0  0  0  0  0  0  0  0  0  0  0  0
   26.6837  -20.7384  -10.4586 C   0  0  0  0  0  0  0  0  0  0  0  0
   27.2976  -21.2057   -9.4781 O   0  0  0  0  0  0  0  0  0  0  0  0
   27.3135  -19.8671  -11.4440 C   0  0  0  0  0  0  0  0  0  0  0  0
   26.3826  -19.4227  -12.5281 C   0  0  0  0  0  0  0  0  0  0  0  0
   26.0639  -20.4833  -13.5200 C   0  0  2  0  0  0  0  0  0  0  0  0
   27.1726  -21.0340  -14.2374 N   0  0  0  0  0  0  0  0  0  0  0  0
   24.9971  -19.9921  -14.4687 C   0  0  0  0  0  0  0  0  0  0  0  0
   25.2127  -18.9597  -15.1766 O   0  0  0  0  0  0  0  0  0  0  0  0
   23.7465  -20.6013  -14.6407 N   0  0  0  0  0  0  0  0  0  0  0  0
   22.7417  -20.0484  -15.5508 C   0  0  1  0  0  0  0  0  0  0  0  0
   22.4367  -20.9651  -16.6674 C   0  0  0  0  0  0  0  0  0  0  0  0
   21.5262  -20.3268  -17.6740 C   0  0  0  0  0  0  0  0  0  0  0  0
   21.2031  -21.2960  -18.7877 C   0  0  0  0  0  0  0  0  0  0  0  0
   20.1350  -21.9290  -18.6983 O   0  0  0  0  0  0  0  0  0  0  0  0
   21.5431  -19.6410  -14.8028 C   0  0  0  0  0  0  0  0  0  0  0  0
   21.1320  -20.1688  -13.7515 O   0  0  0  0  0  0  0  0  0  0  0  0
   22.0280  -21.4978  -19.8699 O   0  0  0  0  0  0  0  0  0  0  0  0
   20.7392  -18.5431  -15.2838 N   0  0  0  0  0  0  0  0  0  0  0  0
   19.6159  -18.0125  -14.4956 C   0  0  1  0  0  0  0  0  0  0  0  0
   19.4414  -16.5994  -14.9323 C   0  0  0  0  0  0  0  0  0  0  0  0
   18.3531  -15.8479  -14.3163 C   0  0  0  0  0  0  0  0  0  0  0  0
   17.7661  -16.4191  -13.3311 O   0  0  0  0  0  0  0  0  0  0  0  0
   18.4202  -18.8719  -14.7040 C   0  0  0  0  0  0  0  0  0  0  0  0
   18.1417  -19.3892  -15.9503 O   0  0  0  0  0  0  0  0  0  0  0  0
   17.8769  -14.6122  -14.6554 O   0  0  0  0  0  0  0  0  0  0  0  0
   17.6143  -19.1685  -13.7803 O   0  0  0  0  0  0  0  0  0  0  0  0
  2  4  1  0
  2  1  1  0
  3  2  2  0
  5  6  1  0
  5  4  1  0
  6  7  1  6
  6  8  1  0
  8  9  2  0
 10  8  1  0
 10 11  1  0
 11 16  1  0
 11 12  1  6
 13 12  1  0
 13 14  1  0
 14 15  2  0
 16 17  2  0
 18 14  1  0
 19 20  1  0
 19 16  1  0
 20 24  1  0
 20 21  1  6
 22 21  1  0
 23 22  2  0
 24 27  2  0
 24 25  1  0
 26 22  1  0
M  END
$$$$
