QED.pdb
     RDKit          3D

 27 26  0  0  1  0  0  0  0  0999 V2000
   16.7300  -14.1488  -15.8951 N   0  0  0  0  0  0  0  0  0  0  0  0
   17.3926  -14.3223  -17.1525 C   0  0  0  0  0  0  0  0  0  0  0  0
   17.4625  -15.4893  -17.5882 O   0  0  0  0  0  0  0  0  0  0  0  0
   17.9520  -13.1780  -17.8629 C   0  0  0  0  0  0  0  0  0  0  0  0
   17.7480  -11.8773  -17.1518 C   0  0  0  0  0  0  0  0  0  0  0  0
   18.9764  -11.0454  -17.0546 C   0  0  2  0  0  0  0  0  0  0  0  0
   20.1443  -11.6966  -16.5456 N   0  0  0  0  0  0  0  0  0  0  0  0
   18.6799   -9.7844  -16.2792 C   0  0  0  0  0  0  0  0  0  0  0  0
   17.7247   -9.0315  -16.6454 O   0  0  0  0  0  0  0  0  0  0  0  0
   19.3938   -9.3609  -15.1498 N   0  0  0  0  0  0  0  0  0  0  0  0
   19.1471   -8.0579  -14.5294 C   0  0  1  0  0  0  0  0  0  0  0  0
   18.6911   -8.1841  -13.1307 C   0  0  0  0  0  0  0  0  0  0  0  0
   17.2189   -8.4597  -13.0517 C   0  0  0  0  0  0  0  0  0  0  0  0
   16.7599   -8.4860  -11.6121 C   0  0  0  0  0  0  0  0  0  0  0  0
   17.6128   -8.2414  -10.7390 O   0  0  0  0  0  0  0  0  0  0  0  0
   20.3282   -7.1931  -14.6690 C   0  0  0  0  0  0  0  0  0  0  0  0
   21.5056   -7.5874  -14.7724 O   0  0  0  0  0  0  0  0  0  0  0  0
   15.4644   -8.7639  -11.2423 O   0  0  0  0  0  0  0  0  0  0  0  0
   20.1652   -5.7593  -14.6937 N   0  0  0  0  0  0  0  0  0  0  0  0
   21.3160   -4.8598  -14.8702 C   0  0  1  0  0  0  0  0  0  0  0  0
   21.9984   -5.3084  -16.1156 C   0  0  0  0  0  0  0  0  0  0  0  0
   23.1074   -4.4890  -16.5923 C   0  0  0  0  0  0  0  0  0  0  0  0
   23.4245   -3.4917  -15.8532 O   0  0  0  0  0  0  0  0  0  0  0  0
   20.8385   -3.4519  -14.9045 C   0  0  0  0  0  0  0  0  0  0  0  0
   19.4906   -3.1711  -14.8538 O   0  0  0  0  0  0  0  0  0  0  0  0
   23.8523   -4.6467  -17.7277 O   0  0  0  0  0  0  0  0  0  0  0  0
   21.6157   -2.4614  -14.9804 O   0  0  0  0  0  0  0  0  0  0  0  0
  2  4  1  0
  2  1  1  0
  3  2  2  0
  5  6  1  0
  5  4  1  0
  6  7  1  1
  6  8  1  0
  8  9  2  0
 10  8  1  0
 10 11  1  0
 11 16  1  0
 11 12  1  1
 13 12  1  0
 13 14  1  0
 14 15  2  0
 16 17  2  0
 18 14  1  0
 19 20  1  0
 19 16  1  0
 20 24  1  0
 20 21  1  6
 22 21  1  0
 23 22  2  0
 24 27  2  0
 24 25  1  0
 26 22  1  0
M  END
$$$$
