QED.pdb
     RDKit          3D

 27 26  0  0  1  0  0  0  0  0999 V2000
   25.9689  -20.3623   -8.6829 N   0  0  0  0  0  0  0  0  0  0  0  0
   24.6129  -20.4947   -8.2423 C   0  0  0  0  0  0  0  0  0  0  0  0
   24.4448  -20.8322   -7.0530 O   0  0  0  0  0  0  0  0  0  0  0  0
   23.5054  -20.2470   -9.1582 C   0  0  0  0  0  0  0  0  0  0  0  0
   23.9458  -19.8939  -10.5441 C   0  0  0  0  0  0  0  0  0  0  0  0
   23.9800  -21.0504  -11.4777 C   0  0  2  0  0  0  0  0  0  0  0  0
   24.8212  -22.1447  -11.1007 N   0  0  0  0  0  0  0  0  0  0  0  0
   24.3079  -20.5726  -12.8718 C   0  0  0  0  0  0  0  0  0  0  0  0
   23.6734  -19.5885  -13.3642 O   0  0  0  0  0  0  0  0  0  0  0  0
   25.2880  -21.1424  -13.6960 N   0  0  0  0  0  0  0  0  0  0  0  0
   25.5516  -20.6306  -15.0422 C   0  0  1  0  0  0  0  0  0  0  0  0
   26.7528  -21.2417  -15.6453 C   0  0  0  0  0  0  0  0  0  0  0  0
   27.0664  -20.6411  -16.9834 C   0  0  0  0  0  0  0  0  0  0  0  0
   28.3127  -21.2656  -17.5672 C   0  0  0  0  0  0  0  0  0  0  0  0
   28.7131  -22.3249  -17.0504 O   0  0  0  0  0  0  0  0  0  0  0  0
   24.3553  -20.7703  -15.8858 C   0  0  0  0  0  0  0  0  0  0  0  0
   23.6509  -21.7939  -15.9789 O   0  0  0  0  0  0  0  0  0  0  0  0
   29.0026  -20.7176  -18.6235 O   0  0  0  0  0  0  0  0  0  0  0  0
   23.9169  -19.6578  -16.6941 N   0  0  0  0  0  0  0  0  0  0  0  0
   22.7185  -19.7519  -17.5424 C   0  0  1  0  0  0  0  0  0  0  0  0
   21.6613  -18.9683  -16.8451 C   0  0  0  0  0  0  0  0  0  0  0  0
   20.4082  -18.7647  -17.5642 C   0  0  0  0  0  0  0  0  0  0  0  0
   19.9604  -17.5645  -17.5794 O   0  0  0  0  0  0  0  0  0  0  0  0
   23.0443  -19.2638  -18.9089 C   0  0  0  0  0  0  0  0  0  0  0  0
   22.3378  -19.7211  -19.9998 O   0  0  0  0  0  0  0  0  0  0  0  0
   19.6482  -19.6902  -18.2234 O   0  0  0  0  0  0  0  0  0  0  0  0
   23.9594  -18.4280  -19.1430 O   0  0  0  0  0  0  0  0  0  0  0  0
  2  4  1  0
  2  1  1  0
  3  2  2  0
  5  6  1  0
  5  4  1  0
  6  7  1  1
  6  8  1  0
  8  9  2  0
 10  8  1  0
 10 11  1  0
 11 16  1  0
 11 12  1  6
 13 12  1  0
 13 14  1  0
 14 15  2  0
 16 17  2  0
 18 14  1  0
 19 20  1  0
 19 16  1  0
 20 24  1  0
 20 21  1  1
 22 21  1  0
 23 22  2  0
 24 27  2  0
 24 25  1  0
 26 22  1  0
M  END
$$$$
