LCG.pdb
     RDKit          3D

 19 18  0  0  1  0  0  0  0  0999 V2000
    7.7089  -17.4049   19.5286 C   0  0  0  0  0  0  0  0  0  0  0  0
    7.3678  -16.1309   20.2314 C   0  0  2  0  0  0  0  0  0  0  0  0
    5.9207  -16.0629   20.6374 C   0  0  0  0  0  0  0  0  0  0  0  0
    7.7388  -14.9124   19.3824 C   0  0  0  0  0  0  0  0  0  0  0  0
    7.2558  -13.6879   20.1723 C   0  0  2  0  0  0  0  0  0  0  0  0
    7.5580  -12.4813   19.4546 N   0  0  0  0  0  0  0  0  0  0  0  0
    8.0042  -13.7071   21.4529 C   0  0  0  0  0  0  0  0  0  0  0  0
    9.2430  -13.4506   21.4432 O   0  0  0  0  0  0  0  0  0  0  0  0
    7.4402  -13.9930   22.7060 N   0  0  0  0  0  0  0  0  0  0  0  0
    8.1844  -14.0333   23.9254 C   0  0  1  0  0  0  0  0  0  0  0  0
    7.6242  -13.1537   25.0116 C   0  0  0  0  0  0  0  0  0  0  0  0
    5.8179  -13.2237   25.0716 S   0  0  0  0  0  0  0  0  0  0  0  0
    8.3794  -15.4004   24.4490 C   0  0  0  0  0  0  0  0  0  0  0  0
    7.3562  -16.1103   24.6262 O   0  0  0  0  0  0  0  0  0  0  0  0
    9.6541  -15.9362   24.7550 N   0  0  0  0  0  0  0  0  0  0  0  0
    9.8474  -17.2762   25.2561 C   0  0  0  0  0  0  0  0  0  0  0  0
   11.3096  -17.5523   25.3478 C   0  0  0  0  0  0  0  0  0  0  0  0
   11.8007  -18.7350   25.8307 O   0  0  0  0  0  0  0  0  0  0  0  0
   12.1348  -16.6733   24.9703 O   0  0  0  0  0  0  0  0  0  0  0  0
  2  1  1  6
  3  2  1  0
  4  2  1  0
  4  5  1  0
  5  6  1  6
  7  5  1  0
  7  8  2  0
  9  7  1  0
 10  9  1  0
 10 13  1  0
 10 11  1  1
 12 11  1  0
 13 14  2  0
 13 15  1  0
 15 16  1  0
 17 18  1  0
 17 16  1  0
 19 17  2  0
M  END
$$$$
