LCG.pdb
     RDKit          3D

 19 18  0  0  1  0  0  0  0  0999 V2000
    7.1760  -18.7854   28.7573 C   0  0  0  0  0  0  0  0  0  0  0  0
    8.1308  -19.7686   28.1619 C   0  0  2  0  0  0  0  0  0  0  0  0
    9.4321  -19.8404   28.9137 C   0  0  0  0  0  0  0  0  0  0  0  0
    8.3879  -19.4669   26.6834 C   0  0  0  0  0  0  0  0  0  0  0  0
    7.0143  -19.1525   26.0743 C   0  0  2  0  0  0  0  0  0  0  0  0
    6.4872  -20.3111   25.4094 N   0  0  0  0  0  0  0  0  0  0  0  0
    7.2444  -18.0715   25.0849 C   0  0  0  0  0  0  0  0  0  0  0  0
    7.7180  -18.3691   23.9502 O   0  0  0  0  0  0  0  0  0  0  0  0
    6.9744  -16.7120   25.3067 N   0  0  0  0  0  0  0  0  0  0  0  0
    7.4177  -15.6600   24.4469 C   0  0  1  0  0  0  0  0  0  0  0  0
    6.6727  -14.3648   24.6333 C   0  0  0  0  0  0  0  0  0  0  0  0
    7.2564  -13.0818   23.5000 S   0  0  0  0  0  0  0  0  0  0  0  0
    8.8709  -15.4094   24.5274 C   0  0  0  0  0  0  0  0  0  0  0  0
    9.3064  -14.8155   25.5471 O   0  0  0  0  0  0  0  0  0  0  0  0
    9.7805  -15.8054   23.5168 N   0  0  0  0  0  0  0  0  0  0  0  0
   11.1578  -15.3743   23.4815 C   0  0  0  0  0  0  0  0  0  0  0  0
   11.9037  -16.2168   22.5034 C   0  0  0  0  0  0  0  0  0  0  0  0
   12.9096  -17.0625   22.8857 O   0  0  0  0  0  0  0  0  0  0  0  0
   11.6074  -16.1580   21.2768 O   0  0  0  0  0  0  0  0  0  0  0  0
  2  1  1  1
  3  2  1  0
  4  2  1  0
  4  5  1  0
  5  6  1  6
  7  5  1  0
  7  8  2  0
  9  7  1  0
 10  9  1  0
 10 13  1  0
 10 11  1  1
 12 11  1  0
 13 14  2  0
 13 15  1  0
 15 16  1  0
 17 18  1  0
 17 16  1  0
 19 17  2  0
M  END
$$$$
