LCG.pdb
     RDKit          3D

 19 18  0  0  1  0  0  0  0  0999 V2000
    8.4382  -14.4466   18.4866 C   0  0  0  0  0  0  0  0  0  0  0  0
    7.6661  -13.5158   19.3643 C   0  0  2  0  0  0  0  0  0  0  0  0
    7.4987  -12.1503   18.7550 C   0  0  0  0  0  0  0  0  0  0  0  0
    8.3040  -13.4037   20.7512 C   0  0  0  0  0  0  0  0  0  0  0  0
    8.2250  -14.8089   21.3643 C   0  0  2  0  0  0  0  0  0  0  0  0
    6.8637  -15.2657   21.3890 N   0  0  0  0  0  0  0  0  0  0  0  0
    8.7322  -14.6778   22.7520 C   0  0  0  0  0  0  0  0  0  0  0  0
    9.9379  -14.3409   22.9352 O   0  0  0  0  0  0  0  0  0  0  0  0
    7.9687  -14.9015   23.9083 N   0  0  0  0  0  0  0  0  0  0  0  0
    8.5123  -14.9330   25.2297 C   0  0  1  0  0  0  0  0  0  0  0  0
    7.6261  -14.2997   26.2694 C   0  0  0  0  0  0  0  0  0  0  0  0
    6.0508  -13.7518   25.5698 S   0  0  0  0  0  0  0  0  0  0  0  0
    8.9018  -16.2873   25.6718 C   0  0  0  0  0  0  0  0  0  0  0  0
    7.9820  -17.0962   25.9578 O   0  0  0  0  0  0  0  0  0  0  0  0
   10.2501  -16.7053   25.7849 N   0  0  0  0  0  0  0  0  0  0  0  0
   10.6322  -18.0356   26.1948 C   0  0  0  0  0  0  0  0  0  0  0  0
   12.1113  -18.1747   26.0690 C   0  0  0  0  0  0  0  0  0  0  0  0
   12.7839  -19.2722   26.5341 O   0  0  0  0  0  0  0  0  0  0  0  0
   12.7790  -17.2555   25.5164 O   0  0  0  0  0  0  0  0  0  0  0  0
  2  1  1  6
  3  2  1  0
  4  2  1  0
  4  5  1  0
  5  6  1  1
  7  5  1  0
  7  8  2  0
  9  7  1  0
 10  9  1  0
 10 13  1  0
 10 11  1  1
 12 11  1  0
 13 14  2  0
 13 15  1  0
 15 16  1  0
 17 18  1  0
 17 16  1  0
 19 17  2  0
M  END
$$$$
