LCG.pdb
     RDKit          3D

 19 18  0  0  1  0  0  0  0  0999 V2000
    9.1654  -14.0401   19.1934 C   0  0  0  0  0  0  0  0  0  0  0  0
    7.8183  -13.6666   19.7214 C   0  0  2  0  0  0  0  0  0  0  0  0
    7.2032  -12.5138   18.9755 C   0  0  0  0  0  0  0  0  0  0  0  0
    7.8753  -13.3594   21.2199 C   0  0  0  0  0  0  0  0  0  0  0  0
    8.4492  -14.6185   21.8848 C   0  0  2  0  0  0  0  0  0  0  0  0
    7.5719  -15.7361   21.6757 N   0  0  0  0  0  0  0  0  0  0  0  0
    8.5312  -14.3133   23.3341 C   0  0  0  0  0  0  0  0  0  0  0  0
    9.0316  -13.2109   23.7015 O   0  0  0  0  0  0  0  0  0  0  0  0
    8.0895  -15.1654   24.3583 N   0  0  0  0  0  0  0  0  0  0  0  0
    8.0863  -14.8132   25.7433 C   0  0  1  0  0  0  0  0  0  0  0  0
    7.3614  -13.5283   26.0446 C   0  0  0  0  0  0  0  0  0  0  0  0
    5.5722  -13.7001   25.8434 S   0  0  0  0  0  0  0  0  0  0  0  0
    7.5747  -15.8858   26.6203 C   0  0  0  0  0  0  0  0  0  0  0  0
    7.4031  -15.6148   27.8366 O   0  0  0  0  0  0  0  0  0  0  0  0
    7.2741  -17.1884   26.1532 N   0  0  0  0  0  0  0  0  0  0  0  0
    7.0258  -18.3050   27.0339 C   0  0  0  0  0  0  0  0  0  0  0  0
    8.3300  -18.9133   27.4236 C   0  0  0  0  0  0  0  0  0  0  0  0
    8.4094  -20.0177   28.2280 O   0  0  0  0  0  0  0  0  0  0  0  0
    9.4063  -18.4020   27.0041 O   0  0  0  0  0  0  0  0  0  0  0  0
  2  1  1  6
  3  2  1  0
  4  2  1  0
  4  5  1  0
  5  6  1  1
  7  5  1  0
  7  8  2  0
  9  7  1  0
 10  9  1  0
 10 13  1  0
 10 11  1  6
 12 11  1  0
 13 14  2  0
 13 15  1  0
 15 16  1  0
 17 18  1  0
 17 16  1  0
 19 17  2  0
M  END
$$$$
