HLM.pdb
     RDKit          3D

 27 27  0  0  1  0  0  0  0  0999 V2000
    6.7557  -18.2098   21.3202 N   0  0  0  0  0  0  0  0  0  0  0  0
    6.9656  -18.1020   22.7962 C   0  0  1  0  0  0  0  0  0  0  0  0
    7.7736  -19.2984   23.1568 C   0  0  0  0  0  0  0  0  0  0  0  0
    7.5337  -19.8979   24.4677 C   0  0  0  0  0  0  0  0  0  0  0  0
    6.5366  -19.7417   25.3891 C   0  0  0  0  0  0  0  0  0  0  0  0
    6.7837  -20.6035   26.4213 N   0  0  0  0  0  0  0  0  0  0  0  0
    7.8943  -21.2609   26.1328 C   0  0  0  0  0  0  0  0  0  0  0  0
    8.3654  -20.8589   24.9682 N   0  0  0  0  0  0  0  0  0  0  0  0
    7.8577  -16.8918   22.9912 C   0  0  0  0  0  0  0  0  0  0  0  0
    8.7387  -16.6474   22.1767 O   0  0  0  0  0  0  0  0  0  0  0  0
    6.9514  -12.4343   23.6679 C   0  0  0  0  0  0  0  0  0  0  0  0
    6.5901  -13.3702   24.8377 C   0  0  2  0  0  0  0  0  0  0  0  0
    5.8364  -12.5348   25.8106 C   0  0  0  0  0  0  0  0  0  0  0  0
    7.8667  -13.9623   25.3183 C   0  0  0  0  0  0  0  0  0  0  0  0
    8.5540  -14.9130   24.4186 C   0  0  2  0  0  0  0  0  0  0  0  0
    7.6761  -16.0333   24.1220 N   0  0  0  0  0  0  0  0  0  0  0  0
    9.9033  -15.3333   24.7687 C   0  0  0  0  0  0  0  0  0  0  0  0
   10.8165  -14.4718   24.8011 O   0  0  0  0  0  0  0  0  0  0  0  0
   10.5706  -13.7858   30.1260 C   0  0  0  0  0  0  0  0  0  0  0  0
   10.1814  -14.5715   28.5935 S   0  0  0  0  0  0  0  0  0  0  0  0
    9.8793  -16.3203   28.6843 C   0  0  0  0  0  0  0  0  0  0  0  0
    9.5838  -16.9254   27.3706 C   0  0  0  0  0  0  0  0  0  0  0  0
   10.7247  -17.0711   26.4140 C   0  0  2  0  0  0  0  0  0  0  0  0
   10.2352  -16.6739   25.0764 N   0  0  0  0  0  0  0  0  0  0  0  0
   11.1314  -18.4775   26.3398 C   0  0  0  0  0  0  0  0  0  0  0  0
   12.2455  -18.9042   27.0411 O   0  0  0  0  0  0  0  0  0  0  0  0
   10.5176  -19.3099   25.6715 O   0  0  0  0  0  0  0  0  0  0  0  0
  2  3  1  0
  2  1  1  6
  4  3  1  0
  5  4  2  0
  6  5  1  0
  6  7  1  0
  7  8  2  0
  8  4  1  0
  9 16  1  0
  9  2  1  0
 10  9  2  0
 12 11  1  6
 12 13  1  0
 14 12  1  0
 15 14  1  1
 15 16  1  0
 17 15  1  0
 18 17  2  0
 19 20  1  0
 20 21  1  0
 22 21  1  0
 23 22  1  1
 23 25  1  0
 23 24  1  0
 24 17  1  0
 25 26  1  0
 27 25  2  0
M  END
$$$$
