HLM.pdb
     RDKit          3D

 27 27  0  0  1  0  0  0  0  0999 V2000
    8.6999  -18.3598   19.8128 N   0  0  0  0  0  0  0  0  0  0  0  0
   10.1586  -18.0337   19.8227 C   0  0  1  0  0  0  0  0  0  0  0  0
   10.5218  -17.8580   18.3905 C   0  0  0  0  0  0  0  0  0  0  0  0
   10.7556  -19.0685   17.6058 C   0  0  0  0  0  0  0  0  0  0  0  0
   11.0424  -20.3580   17.9557 C   0  0  0  0  0  0  0  0  0  0  0  0
   11.0992  -21.0987   16.8080 N   0  0  0  0  0  0  0  0  0  0  0  0
   10.8532  -20.2835   15.7963 C   0  0  0  0  0  0  0  0  0  0  0  0
   10.6434  -19.0608   16.2445 N   0  0  0  0  0  0  0  0  0  0  0  0
   10.2643  -16.6694   20.4755 C   0  0  0  0  0  0  0  0  0  0  0  0
   11.3621  -16.1456   20.6165 O   0  0  0  0  0  0  0  0  0  0  0  0
    8.9263  -12.6771   19.2943 C   0  0  0  0  0  0  0  0  0  0  0  0
    7.7747  -13.6200   19.6936 C   0  0  2  0  0  0  0  0  0  0  0  0
    6.5221  -12.9306   19.2833 C   0  0  0  0  0  0  0  0  0  0  0  0
    7.9362  -13.8971   21.1456 C   0  0  0  0  0  0  0  0  0  0  0  0
    9.1200  -14.6807   21.5586 C   0  0  2  0  0  0  0  0  0  0  0  0
    9.0884  -15.9902   20.9279 N   0  0  0  0  0  0  0  0  0  0  0  0
    9.4352  -14.7478   22.9784 C   0  0  0  0  0  0  0  0  0  0  0  0
    9.9557  -13.7473   23.5308 O   0  0  0  0  0  0  0  0  0  0  0  0
    6.4753  -11.4315   27.2546 C   0  0  0  0  0  0  0  0  0  0  0  0
    6.2875  -13.0729   26.6319 S   0  0  0  0  0  0  0  0  0  0  0  0
    7.7764  -14.0405   26.5614 C   0  0  0  0  0  0  0  0  0  0  0  0
    7.7460  -15.0733   25.5069 C   0  0  0  0  0  0  0  0  0  0  0  0
    9.0192  -15.8105   25.2366 C   0  0  2  0  0  0  0  0  0  0  0  0
    9.1805  -15.8932   23.7690 N   0  0  0  0  0  0  0  0  0  0  0  0
    8.9172  -17.1792   25.7511 C   0  0  0  0  0  0  0  0  0  0  0  0
    8.9444  -17.3991   27.1172 O   0  0  0  0  0  0  0  0  0  0  0  0
    8.8066  -18.1580   25.0121 O   0  0  0  0  0  0  0  0  0  0  0  0
  2  3  1  0
  2  1  1  6
  4  3  1  0
  5  4  2  0
  6  5  1  0
  6  7  1  0
  7  8  2  0
  8  4  1  0
  9 16  1  0
  9  2  1  0
 10  9  2  0
 12 11  1  1
 12 13  1  0
 14 12  1  0
 15 14  1  1
 15 16  1  0
 17 15  1  0
 18 17  2  0
 19 20  1  0
 20 21  1  0
 22 21  1  0
 23 22  1  6
 23 25  1  0
 23 24  1  0
 24 17  1  0
 25 26  1  0
 27 25  2  0
M  END
$$$$
