HLM.pdb
     RDKit          3D

 27 27  0  0  1  0  0  0  0  0999 V2000
    9.4200  -19.9888   19.9790 N   0  0  0  0  0  0  0  0  0  0  0  0
    8.3023  -19.2065   20.5895 C   0  0  1  0  0  0  0  0  0  0  0  0
    8.1574  -19.7547   21.9652 C   0  0  0  0  0  0  0  0  0  0  0  0
    7.6285  -21.1110   22.0930 C   0  0  0  0  0  0  0  0  0  0  0  0
    7.3840  -22.0995   21.1817 C   0  0  0  0  0  0  0  0  0  0  0  0
    6.9426  -23.1977   21.8658 N   0  0  0  0  0  0  0  0  0  0  0  0
    6.9219  -22.8839   23.1503 C   0  0  0  0  0  0  0  0  0  0  0  0
    7.3281  -21.6399   23.3160 N   0  0  0  0  0  0  0  0  0  0  0  0
    8.8282  -17.7917   20.7313 C   0  0  0  0  0  0  0  0  0  0  0  0
   10.0252  -17.6020   20.9067 O   0  0  0  0  0  0  0  0  0  0  0  0
    9.0665  -12.8580   19.5665 C   0  0  0  0  0  0  0  0  0  0  0  0
    7.6134  -12.9599   20.0695 C   0  0  2  0  0  0  0  0  0  0  0  0
    7.5595  -12.1635   21.3247 C   0  0  0  0  0  0  0  0  0  0  0  0
    7.3053  -14.4098   20.1882 C   0  0  0  0  0  0  0  0  0  0  0  0
    8.3842  -15.2941   20.6782 C   0  0  2  0  0  0  0  0  0  0  0  0
    7.9339  -16.6763   20.6614 N   0  0  0  0  0  0  0  0  0  0  0  0
    9.0519  -14.9353   21.9211 C   0  0  0  0  0  0  0  0  0  0  0  0
    9.7443  -13.8881   21.9559 O   0  0  0  0  0  0  0  0  0  0  0  0
    6.8767  -11.2734   27.0864 C   0  0  0  0  0  0  0  0  0  0  0  0
    7.6683  -12.3447   25.9275 S   0  0  0  0  0  0  0  0  0  0  0  0
    7.0169  -13.9959   25.8419 C   0  0  0  0  0  0  0  0  0  0  0  0
    7.3837  -14.6987   24.5965 C   0  0  0  0  0  0  0  0  0  0  0  0
    8.8160  -15.0989   24.4350 C   0  0  2  0  0  0  0  0  0  0  0  0
    8.9561  -15.7149   23.0980 N   0  0  0  0  0  0  0  0  0  0  0  0
    9.1609  -16.1162   25.4323 C   0  0  0  0  0  0  0  0  0  0  0  0
    9.9154  -15.7616   26.5369 O   0  0  0  0  0  0  0  0  0  0  0  0
    8.8045  -17.2906   25.3309 O   0  0  0  0  0  0  0  0  0  0  0  0
  2  3  1  0
  2  1  1  6
  4  3  1  0
  5  4  2  0
  6  5  1  0
  6  7  1  0
  7  8  2  0
  8  4  1  0
  9 16  1  0
  9  2  1  0
 10  9  2  0
 12 11  1  1
 12 13  1  0
 14 12  1  0
 15 14  1  1
 15 16  1  0
 17 15  1  0
 18 17  2  0
 19 20  1  0
 20 21  1  0
 22 21  1  0
 23 22  1  1
 23 25  1  0
 23 24  1  0
 24 17  1  0
 25 26  1  0
 27 25  2  0
M  END
$$$$
