HLM.pdb
     RDKit          3D

 27 27  0  0  1  0  0  0  0  0999 V2000
    9.6375  -16.2880   20.0102 N   0  0  0  0  0  0  0  0  0  0  0  0
    8.5901  -16.7138   20.9878 C   0  0  1  0  0  0  0  0  0  0  0  0
    8.6945  -18.1972   21.0396 C   0  0  0  0  0  0  0  0  0  0  0  0
    8.1499  -18.9466   19.9094 C   0  0  0  0  0  0  0  0  0  0  0  0
    7.0141  -19.6899   19.7521 C   0  0  0  0  0  0  0  0  0  0  0  0
    6.9733  -20.1199   18.4550 N   0  0  0  0  0  0  0  0  0  0  0  0
    8.0495  -19.6504   17.8467 C   0  0  0  0  0  0  0  0  0  0  0  0
    8.7727  -18.9436   18.6937 N   0  0  0  0  0  0  0  0  0  0  0  0
    9.0549  -16.1912   22.3328 C   0  0  0  0  0  0  0  0  0  0  0  0
   10.2379  -15.9274   22.5075 O   0  0  0  0  0  0  0  0  0  0  0  0
    7.7137  -12.5527   24.7558 C   0  0  0  0  0  0  0  0  0  0  0  0
    6.6823  -13.6957   24.6893 C   0  0  2  0  0  0  0  0  0  0  0  0
    5.4414  -13.1621   25.3124 C   0  0  0  0  0  0  0  0  0  0  0  0
    7.3069  -14.8711   25.3521 C   0  0  0  0  0  0  0  0  0  0  0  0
    8.4913  -15.4677   24.6985 C   0  0  2  0  0  0  0  0  0  0  0  0
    8.1192  -16.0046   23.3998 N   0  0  0  0  0  0  0  0  0  0  0  0
    9.3098  -16.3887   25.4742 C   0  0  0  0  0  0  0  0  0  0  0  0
    9.3116  -17.6055   25.1638 O   0  0  0  0  0  0  0  0  0  0  0  0
   10.3435  -13.2569   30.7220 C   0  0  0  0  0  0  0  0  0  0  0  0
   11.8246  -13.9641   30.0713 S   0  0  0  0  0  0  0  0  0  0  0  0
   11.6513  -14.8110   28.5187 C   0  0  0  0  0  0  0  0  0  0  0  0
   11.2321  -16.2183   28.6707 C   0  0  0  0  0  0  0  0  0  0  0  0
   10.8146  -16.9439   27.4310 C   0  0  2  0  0  0  0  0  0  0  0  0
   10.1081  -15.9743   26.5665 N   0  0  0  0  0  0  0  0  0  0  0  0
    9.8658  -18.0068   27.7758 C   0  0  0  0  0  0  0  0  0  0  0  0
   10.3326  -19.2871   28.0170 O   0  0  0  0  0  0  0  0  0  0  0  0
    8.6534  -17.8098   27.8621 O   0  0  0  0  0  0  0  0  0  0  0  0
  2  3  1  0
  2  1  1  6
  4  3  1  0
  5  4  2  0
  6  5  1  0
  6  7  1  0
  7  8  2  0
  8  4  1  0
  9 16  1  0
  9  2  1  0
 10  9  2  0
 12 11  1  1
 12 13  1  0
 14 12  1  0
 15 14  1  1
 15 16  1  0
 17 15  1  0
 18 17  2  0
 19 20  1  0
 20 21  1  0
 22 21  1  0
 23 22  1  1
 23 25  1  0
 23 24  1  0
 24 17  1  0
 25 26  1  0
 27 25  2  0
M  END
$$$$
