HLM.pdb
     RDKit          3D

 27 27  0  0  1  0  0  0  0  0999 V2000
    8.7270  -17.4816   19.6240 N   0  0  0  0  0  0  0  0  0  0  0  0
    7.8025  -17.5947   20.7930 C   0  0  1  0  0  0  0  0  0  0  0  0
    7.8770  -19.0229   21.2039 C   0  0  0  0  0  0  0  0  0  0  0  0
    7.2622  -20.0078   20.3165 C   0  0  0  0  0  0  0  0  0  0  0  0
    5.9775  -20.4510   20.1733 C   0  0  0  0  0  0  0  0  0  0  0  0
    5.9572  -21.3439   19.1382 N   0  0  0  0  0  0  0  0  0  0  0  0
    7.1901  -21.4369   18.6694 C   0  0  0  0  0  0  0  0  0  0  0  0
    7.9932  -20.6472   19.3560 N   0  0  0  0  0  0  0  0  0  0  0  0
    8.4470  -16.7829   21.8993 C   0  0  0  0  0  0  0  0  0  0  0  0
    9.6646  -16.6568   21.9315 O   0  0  0  0  0  0  0  0  0  0  0  0
    6.1385  -13.1152   26.2689 C   0  0  0  0  0  0  0  0  0  0  0  0
    7.4550  -13.4750   25.5531 C   0  0  2  0  0  0  0  0  0  0  0  0
    8.0677  -12.1805   25.1513 C   0  0  0  0  0  0  0  0  0  0  0  0
    7.0993  -14.4118   24.4544 C   0  0  0  0  0  0  0  0  0  0  0  0
    8.1795  -15.2650   23.9148 C   0  0  2  0  0  0  0  0  0  0  0  0
    7.6406  -16.1630   22.9064 N   0  0  0  0  0  0  0  0  0  0  0  0
    9.0543  -15.9422   24.8612 C   0  0  0  0  0  0  0  0  0  0  0  0
    8.5664  -16.8197   25.6156 O   0  0  0  0  0  0  0  0  0  0  0  0
   10.7657  -12.8182   29.1816 C   0  0  0  0  0  0  0  0  0  0  0  0
   10.9047  -14.4377   29.8711 S   0  0  0  0  0  0  0  0  0  0  0  0
   11.0129  -15.7646   28.6941 C   0  0  0  0  0  0  0  0  0  0  0  0
   10.5259  -15.3889   27.3520 C   0  0  0  0  0  0  0  0  0  0  0  0
   11.2139  -16.0096   26.1777 C   0  0  2  0  0  0  0  0  0  0  0  0
   10.4358  -15.6570   24.9707 N   0  0  0  0  0  0  0  0  0  0  0  0
   11.1957  -17.4694   26.3084 C   0  0  0  0  0  0  0  0  0  0  0  0
   12.3836  -18.1761   26.2409 O   0  0  0  0  0  0  0  0  0  0  0  0
   10.1554  -18.1061   26.4784 O   0  0  0  0  0  0  0  0  0  0  0  0
  2  3  1  0
  2  1  1  6
  4  3  1  0
  5  4  2  0
  6  5  1  0
  6  7  1  0
  7  8  2  0
  8  4  1  0
  9 16  1  0
  9  2  1  0
 10  9  2  0
 12 11  1  6
 12 13  1  0
 14 12  1  0
 15 14  1  1
 15 16  1  0
 17 15  1  0
 18 17  2  0
 19 20  1  0
 20 21  1  0
 22 21  1  0
 23 22  1  1
 23 25  1  0
 23 24  1  0
 24 17  1  0
 25 26  1  0
 27 25  2  0
M  END
$$$$
