HLM.pdb
     RDKit          3D

 27 27  0  0  1  0  0  0  0  0999 V2000
    8.2331  -17.1587   19.8246 N   0  0  0  0  0  0  0  0  0  0  0  0
    7.7898  -17.4060   21.2305 C   0  0  1  0  0  0  0  0  0  0  0  0
    8.3496  -18.7397   21.5799 C   0  0  0  0  0  0  0  0  0  0  0  0
    7.7763  -19.9034   20.9073 C   0  0  0  0  0  0  0  0  0  0  0  0
    6.9029  -20.0333   19.8643 C   0  0  0  0  0  0  0  0  0  0  0  0
    6.7571  -21.3680   19.6060 N   0  0  0  0  0  0  0  0  0  0  0  0
    7.5191  -22.0244   20.4646 C   0  0  0  0  0  0  0  0  0  0  0  0
    8.1417  -21.1725   21.2563 N   0  0  0  0  0  0  0  0  0  0  0  0
    8.5263  -16.3835   22.0734 C   0  0  0  0  0  0  0  0  0  0  0  0
    9.6380  -16.0002   21.7316 O   0  0  0  0  0  0  0  0  0  0  0  0
    7.7488  -12.1024   24.4724 C   0  0  0  0  0  0  0  0  0  0  0  0
    6.7996  -13.2747   24.7877 C   0  0  2  0  0  0  0  0  0  0  0  0
    5.8619  -12.7721   25.8272 C   0  0  0  0  0  0  0  0  0  0  0  0
    7.6590  -14.4270   25.1684 C   0  0  0  0  0  0  0  0  0  0  0  0
    8.6071  -14.9305   24.1518 C   0  0  2  0  0  0  0  0  0  0  0  0
    7.9300  -15.8638   23.2663 N   0  0  0  0  0  0  0  0  0  0  0  0
    9.8997  -15.4231   24.6058 C   0  0  0  0  0  0  0  0  0  0  0  0
   10.9136  -14.6996   24.4453 O   0  0  0  0  0  0  0  0  0  0  0  0
    9.8143  -13.3936   29.1835 C   0  0  0  0  0  0  0  0  0  0  0  0
   10.9555  -14.6606   29.6414 S   0  0  0  0  0  0  0  0  0  0  0  0
   10.6518  -16.2595   28.9280 C   0  0  0  0  0  0  0  0  0  0  0  0
   10.0794  -16.1876   27.5691 C   0  0  0  0  0  0  0  0  0  0  0  0
   10.8476  -16.8487   26.4689 C   0  0  2  0  0  0  0  0  0  0  0  0
   10.0677  -16.6850   25.2232 N   0  0  0  0  0  0  0  0  0  0  0  0
   10.9603  -18.2852   26.7381 C   0  0  0  0  0  0  0  0  0  0  0  0
   11.9934  -18.7522   27.5318 O   0  0  0  0  0  0  0  0  0  0  0  0
   10.1655  -19.1085   26.2834 O   0  0  0  0  0  0  0  0  0  0  0  0
  2  3  1  0
  2  1  1  6
  4  3  1  0
  5  4  2  0
  6  5  1  0
  6  7  1  0
  7  8  2  0
  8  4  1  0
  9 16  1  0
  9  2  1  0
 10  9  2  0
 12 11  1  1
 12 13  1  0
 14 12  1  0
 15 14  1  1
 15 16  1  0
 17 15  1  0
 18 17  2  0
 19 20  1  0
 20 21  1  0
 22 21  1  0
 23 22  1  1
 23 25  1  0
 23 24  1  0
 24 17  1  0
 25 26  1  0
 27 25  2  0
M  END
$$$$
