PTW.pdb
     RDKit          3D

 29 31  0  0  1  0  0  0  0  0999 V2000
   27.6303  -21.3468  -17.8945 N   0  0  0  0  0  0  0  0  0  0  0  0
   28.6961  -21.9272  -18.6542 C   0  0  0  0  0  0  0  0  0  0  0  0
   29.3661  -22.9681  -17.7600 C   0  0  0  0  0  0  0  0  0  0  0  0
   28.2218  -23.3817  -16.8772 C   0  0  0  0  0  0  0  0  0  0  0  0
   27.3996  -22.1468  -16.7339 C   0  0  1  0  0  0  0  0  0  0  0  0
   27.6387  -21.3730  -15.5266 C   0  0  0  0  0  0  0  0  0  0  0  0
   28.8225  -21.0454  -15.2350 O   0  0  0  0  0  0  0  0  0  0  0  0
   27.2901  -18.0695  -14.5473 C   0  0  0  0  0  0  0  0  0  0  0  0
   26.5134  -18.8118  -13.4838 C   0  0  1  0  0  0  0  0  0  0  0  0
   25.1449  -18.7561  -13.6666 O   0  0  0  0  0  0  0  0  0  0  0  0
   26.9368  -20.2616  -13.3860 C   0  0  2  0  0  0  0  0  0  0  0  0
   26.6243  -20.9543  -14.6413 N   0  0  0  0  0  0  0  0  0  0  0  0
   26.3122  -20.9442  -12.2430 C   0  0  0  0  0  0  0  0  0  0  0  0
   25.3578  -21.7549  -12.4155 O   0  0  0  0  0  0  0  0  0  0  0  0
   26.7519  -20.7221  -10.9350 N   0  0  0  0  0  0  0  0  0  0  0  0
   26.1148  -21.3433   -9.7664 C   0  0  1  0  0  0  0  0  0  0  0  0
   27.1398  -21.6544   -8.7040 C   0  0  0  0  0  0  0  0  0  0  0  0
   27.5426  -20.4619   -7.9396 C   0  0  0  0  0  0  0  0  0  0  0  0
   27.1998  -19.1399   -8.0967 C   0  0  0  0  0  0  0  0  0  0  0  0
   27.8123  -18.3984   -7.1626 N   0  0  0  0  0  0  0  0  0  0  0  0
   28.5680  -19.1879   -6.3688 C   0  0  0  0  0  0  0  0  0  0  0  0
   29.3766  -18.9174   -5.2847 C   0  0  0  0  0  0  0  0  0  0  0  0
   30.0425  -19.9618   -4.6585 C   0  0  0  0  0  0  0  0  0  0  0  0
   29.8925  -21.2529   -5.1207 C   0  0  0  0  0  0  0  0  0  0  0  0
   29.0753  -21.4832   -6.2074 C   0  0  0  0  0  0  0  0  0  0  0  0
   28.4044  -20.4711   -6.8467 C   0  0  0  0  0  0  0  0  0  0  0  0
   25.0825  -20.3999   -9.2891 C   0  0  0  0  0  0  0  0  0  0  0  0
   24.1387  -20.7971   -8.3621 O   0  0  0  0  0  0  0  0  0  0  0  0
   25.0148  -19.2083   -9.6981 O   0  0  0  0  0  0  0  0  0  0  0  0
  1  5  1  0
  2  1  1  0
  3  2  1  0
  3  4  1  0
  4  5  1  0
  5  6  1  1
  6  7  2  0
  9  8  1  6
  9 11  1  0
 10  9  1  0
 11 12  1  6
 11 13  1  0
 12  6  1  0
 13 14  2  0
 13 15  1  0
 15 16  1  0
 16 27  1  0
 16 17  1  1
 18 17  1  0
 19 18  2  0
 20 19  1  0
 21 20  1  0
 21 26  2  0
 22 21  1  0
 23 22  2  0
 23 24  1  0
 24 25  2  0
 25 26  1  0
 26 18  1  0
 27 29  2  0
 27 28  1  0
M  END
$$$$
