PTW.pdb
     RDKit          3D

 29 31  0  0  1  0  0  0  0  0999 V2000
   27.1612  -18.3106  -17.2143 N   0  0  0  0  0  0  0  0  0  0  0  0
   28.4193  -17.7902  -17.6575 C   0  0  0  0  0  0  0  0  0  0  0  0
   29.4887  -18.3528  -16.7237 C   0  0  0  0  0  0  0  0  0  0  0  0
   28.8627  -19.6537  -16.3049 C   0  0  0  0  0  0  0  0  0  0  0  0
   27.3991  -19.3718  -16.2883 C   0  0  1  0  0  0  0  0  0  0  0  0
   26.8398  -19.0464  -14.9865 C   0  0  0  0  0  0  0  0  0  0  0  0
   26.2209  -17.9556  -14.8425 O   0  0  0  0  0  0  0  0  0  0  0  0
   24.3030  -18.6205  -14.1310 C   0  0  0  0  0  0  0  0  0  0  0  0
   24.6034  -19.7495  -13.1718 C   0  0  1  0  0  0  0  0  0  0  0  0
   24.3263  -20.9988  -13.6931 O   0  0  0  0  0  0  0  0  0  0  0  0
   26.0421  -19.7218  -12.7023 C   0  0  2  0  0  0  0  0  0  0  0  0
   26.9408  -19.8773  -13.8518 N   0  0  0  0  0  0  0  0  0  0  0  0
   26.3117  -20.7492  -11.6854 C   0  0  0  0  0  0  0  0  0  0  0  0
   26.5541  -21.9439  -12.0201 O   0  0  0  0  0  0  0  0  0  0  0  0
   26.3111  -20.4404  -10.3222 N   0  0  0  0  0  0  0  0  0  0  0  0
   26.4426  -21.4629   -9.2759 C   0  0  1  0  0  0  0  0  0  0  0  0
   27.7515  -21.3079   -8.5419 C   0  0  0  0  0  0  0  0  0  0  0  0
   27.7665  -20.1339   -7.6530 C   0  0  0  0  0  0  0  0  0  0  0  0
   27.1796  -18.8985   -7.7917 C   0  0  0  0  0  0  0  0  0  0  0  0
   27.4660  -18.1380   -6.7253 N   0  0  0  0  0  0  0  0  0  0  0  0
   28.2380  -18.8295   -5.8590 C   0  0  0  0  0  0  0  0  0  0  0  0
   28.7901  -18.5030   -4.6381 C   0  0  0  0  0  0  0  0  0  0  0  0
   29.5560  -19.4457   -3.9666 C   0  0  0  0  0  0  0  0  0  0  0  0
   29.7583  -20.6930   -4.5203 C   0  0  0  0  0  0  0  0  0  0  0  0
   29.1898  -20.9819   -5.7430 C   0  0  0  0  0  0  0  0  0  0  0  0
   28.4280  -20.0704   -6.4301 C   0  0  0  0  0  0  0  0  0  0  0  0
   25.2772  -21.3118   -8.3802 C   0  0  0  0  0  0  0  0  0  0  0  0
   25.1537  -22.0906   -7.2461 O   0  0  0  0  0  0  0  0  0  0  0  0
   24.3558  -20.4796   -8.6043 O   0  0  0  0  0  0  0  0  0  0  0  0
  1  5  1  0
  2  1  1  0
  3  2  1  0
  3  4  1  0
  4  5  1  0
  5  6  1  1
  6  7  2  0
  9  8  1  6
  9 11  1  0
 10  9  1  0
 11 12  1  6
 11 13  1  0
 12  6  1  0
 13 14  2  0
 13 15  1  0
 15 16  1  0
 16 27  1  0
 16 17  1  1
 18 17  1  0
 19 18  2  0
 20 19  1  0
 21 20  1  0
 21 26  2  0
 22 21  1  0
 23 22  2  0
 23 24  1  0
 24 25  2  0
 25 26  1  0
 26 18  1  0
 27 29  2  0
 27 28  1  0
M  END
$$$$
