PTW.pdb
     RDKit          3D

 29 31  0  0  1  0  0  0  0  0999 V2000
   22.1498  -22.2701  -16.2306 N   0  0  0  0  0  0  0  0  0  0  0  0
   20.7399  -22.3822  -16.0078 C   0  0  0  0  0  0  0  0  0  0  0  0
   20.4126  -21.5311  -14.7828 C   0  0  0  0  0  0  0  0  0  0  0  0
   21.4886  -20.4838  -14.8529 C   0  0  0  0  0  0  0  0  0  0  0  0
   22.6595  -21.1946  -15.4408 C   0  0  1  0  0  0  0  0  0  0  0  0
   23.6380  -21.6851  -14.4839 C   0  0  0  0  0  0  0  0  0  0  0  0
   23.4633  -22.8193  -13.9580 O   0  0  0  0  0  0  0  0  0  0  0  0
   27.5354  -22.0002  -14.7331 C   0  0  0  0  0  0  0  0  0  0  0  0
   27.1425  -21.2138  -13.5033 C   0  0  1  0  0  0  0  0  0  0  0  0
   27.3019  -19.8493  -13.6522 O   0  0  0  0  0  0  0  0  0  0  0  0
   25.7159  -21.4984  -13.0850 C   0  0  2  0  0  0  0  0  0  0  0  0
   24.7899  -20.9715  -14.0939 N   0  0  0  0  0  0  0  0  0  0  0  0
   25.4092  -20.9483  -11.7561 C   0  0  0  0  0  0  0  0  0  0  0  0
   24.5497  -20.0318  -11.6172 O   0  0  0  0  0  0  0  0  0  0  0  0
   26.0528  -21.4192  -10.6083 N   0  0  0  0  0  0  0  0  0  0  0  0
   25.8429  -20.8276   -9.2804 C   0  0  1  0  0  0  0  0  0  0  0  0
   26.8154  -21.4038   -8.2812 C   0  0  0  0  0  0  0  0  0  0  0  0
   27.1793  -20.4427   -7.2265 C   0  0  0  0  0  0  0  0  0  0  0  0
   26.5706  -19.2756   -6.8301 C   0  0  0  0  0  0  0  0  0  0  0  0
   27.2607  -18.7239   -5.8217 N   0  0  0  0  0  0  0  0  0  0  0  0
   28.3305  -19.4915   -5.5201 C   0  0  0  0  0  0  0  0  0  0  0  0
   29.3323  -19.3651   -4.5806 C   0  0  0  0  0  0  0  0  0  0  0  0
   30.3198  -20.3377   -4.5077 C   0  0  0  0  0  0  0  0  0  0  0  0
   30.2929  -21.4155   -5.3684 C   0  0  0  0  0  0  0  0  0  0  0  0
   29.2750  -21.5067   -6.2941 C   0  0  0  0  0  0  0  0  0  0  0  0
   28.2852  -20.5608   -6.3897 C   0  0  0  0  0  0  0  0  0  0  0  0
   25.9974  -19.3660   -9.4332 C   0  0  0  0  0  0  0  0  0  0  0  0
   25.1163  -18.4960   -8.8210 O   0  0  0  0  0  0  0  0  0  0  0  0
   26.9244  -18.8521  -10.1175 O   0  0  0  0  0  0  0  0  0  0  0  0
  1  5  1  0
  2  1  1  0
  3  2  1  0
  3  4  1  0
  4  5  1  0
  5  6  1  1
  6  7  2  0
  9  8  1  6
  9 11  1  0
 10  9  1  0
 11 12  1  6
 11 13  1  0
 12  6  1  0
 13 14  2  0
 13 15  1  0
 15 16  1  0
 16 27  1  0
 16 17  1  1
 18 17  1  0
 19 18  2  0
 20 19  1  0
 21 20  1  0
 21 26  2  0
 22 21  1  0
 23 22  2  0
 23 24  1  0
 24 25  2  0
 25 26  1  0
 26 18  1  0
 27 29  2  0
 27 28  1  0
M  END
$$$$
