PTW.pdb
     RDKit          3D

 29 31  0  0  1  0  0  0  0  0999 V2000
   27.1446  -18.5170  -16.8053 N   0  0  0  0  0  0  0  0  0  0  0  0
   28.1671  -17.5595  -17.1016 C   0  0  0  0  0  0  0  0  0  0  0  0
   29.1455  -17.5742  -15.9291 C   0  0  0  0  0  0  0  0  0  0  0  0
   28.9970  -18.9865  -15.4363 C   0  0  0  0  0  0  0  0  0  0  0  0
   27.5711  -19.3254  -15.7076 C   0  0  1  0  0  0  0  0  0  0  0  0
   26.6663  -19.1711  -14.5801 C   0  0  0  0  0  0  0  0  0  0  0  0
   25.6776  -18.3942  -14.6917 O   0  0  0  0  0  0  0  0  0  0  0  0
   24.0204  -19.6440  -14.1358 C   0  0  0  0  0  0  0  0  0  0  0  0
   24.4871  -20.4196  -12.9251 C   0  0  1  0  0  0  0  0  0  0  0  0
   24.6888  -21.7626  -13.1800 O   0  0  0  0  0  0  0  0  0  0  0  0
   25.7536  -19.8362  -12.3364 C   0  0  2  0  0  0  0  0  0  0  0  0
   26.8167  -19.8395  -13.3478 N   0  0  0  0  0  0  0  0  0  0  0  0
   26.1817  -20.5527  -11.1258 C   0  0  0  0  0  0  0  0  0  0  0  0
   26.9913  -21.5209  -11.1984 O   0  0  0  0  0  0  0  0  0  0  0  0
   25.7120  -20.1880   -9.8609 N   0  0  0  0  0  0  0  0  0  0  0  0
   26.1729  -20.8347   -8.6253 C   0  0  1  0  0  0  0  0  0  0  0  0
   27.1463  -19.9464   -7.8908 C   0  0  0  0  0  0  0  0  0  0  0  0
   27.5002  -20.4719   -6.5614 C   0  0  0  0  0  0  0  0  0  0  0  0
   27.2303  -21.6873   -5.9784 C   0  0  0  0  0  0  0  0  0  0  0  0
   27.7521  -21.7240   -4.7440 N   0  0  0  0  0  0  0  0  0  0  0  0
   28.3742  -20.5566   -4.4708 C   0  0  0  0  0  0  0  0  0  0  0  0
   29.0540  -20.1010   -3.3606 C   0  0  0  0  0  0  0  0  0  0  0  0
   29.5978  -18.8242   -3.3755 C   0  0  0  0  0  0  0  0  0  0  0  0
   29.4559  -18.0257   -4.4915 C   0  0  0  0  0  0  0  0  0  0  0  0
   28.7694  -18.5167   -5.5820 C   0  0  0  0  0  0  0  0  0  0  0  0
   28.2210  -19.7746   -5.5964 C   0  0  0  0  0  0  0  0  0  0  0  0
   24.9688  -21.1306   -7.8215 C   0  0  0  0  0  0  0  0  0  0  0  0
   25.0089  -22.0722   -6.8117 O   0  0  0  0  0  0  0  0  0  0  0  0
   23.8666  -20.5482   -8.0156 O   0  0  0  0  0  0  0  0  0  0  0  0
  1  5  1  0
  2  1  1  0
  3  2  1  0
  3  4  1  0
  4  5  1  0
  5  6  1  1
  6  7  2  0
  9  8  1  6
  9 11  1  0
 10  9  1  0
 11 12  1  6
 11 13  1  0
 12  6  1  0
 13 14  2  0
 13 15  1  0
 15 16  1  0
 16 27  1  0
 16 17  1  1
 18 17  1  0
 19 18  2  0
 20 19  1  0
 21 20  1  0
 21 26  2  0
 22 21  1  0
 23 22  2  0
 23 24  1  0
 24 25  2  0
 25 26  1  0
 26 18  1  0
 27 29  2  0
 27 28  1  0
M  END
$$$$
