PTW.pdb
     RDKit          3D

 29 31  0  0  1  0  0  0  0  0999 V2000
   28.4881  -20.4408  -16.4438 N   0  0  0  0  0  0  0  0  0  0  0  0
   27.9766  -20.2338  -17.7650 C   0  0  0  0  0  0  0  0  0  0  0  0
   27.6960  -18.7394  -17.9059 C   0  0  0  0  0  0  0  0  0  0  0  0
   28.7054  -18.1569  -16.9564 C   0  0  0  0  0  0  0  0  0  0  0  0
   28.8270  -19.1752  -15.8748 C   0  0  1  0  0  0  0  0  0  0  0  0
   28.0301  -18.9222  -14.6855 C   0  0  0  0  0  0  0  0  0  0  0  0
   28.0300  -17.7632  -14.1850 O   0  0  0  0  0  0  0  0  0  0  0  0
   24.7859  -18.3006  -14.2027 C   0  0  0  0  0  0  0  0  0  0  0  0
   24.9977  -19.4244  -13.2141 C   0  0  1  0  0  0  0  0  0  0  0  0
   24.5174  -20.6416  -13.6581 O   0  0  0  0  0  0  0  0  0  0  0  0
   26.4564  -19.5790  -12.8410 C   0  0  2  0  0  0  0  0  0  0  0  0
   27.2425  -19.8966  -14.0387 N   0  0  0  0  0  0  0  0  0  0  0  0
   26.6559  -20.5978  -11.7996 C   0  0  0  0  0  0  0  0  0  0  0  0
   27.2785  -21.6687  -12.0520 O   0  0  0  0  0  0  0  0  0  0  0  0
   26.1682  -20.4164  -10.5024 N   0  0  0  0  0  0  0  0  0  0  0  0
   26.3444  -21.4156   -9.4403 C   0  0  1  0  0  0  0  0  0  0  0  0
   27.6871  -21.2511   -8.7724 C   0  0  0  0  0  0  0  0  0  0  0  0
   27.6890  -20.1804   -7.7613 C   0  0  0  0  0  0  0  0  0  0  0  0
   27.0016  -18.9908   -7.7160 C   0  0  0  0  0  0  0  0  0  0  0  0
   27.3192  -18.3258   -6.5959 N   0  0  0  0  0  0  0  0  0  0  0  0
   28.2111  -19.0379   -5.8735 C   0  0  0  0  0  0  0  0  0  0  0  0
   28.8382  -18.7970   -4.6690 C   0  0  0  0  0  0  0  0  0  0  0  0
   29.7266  -19.7380   -4.1672 C   0  0  0  0  0  0  0  0  0  0  0  0
   29.9743  -20.8984   -4.8708 C   0  0  0  0  0  0  0  0  0  0  0  0
   29.3279  -21.1032   -6.0715 C   0  0  0  0  0  0  0  0  0  0  0  0
   28.4447  -20.1912   -6.5926 C   0  0  0  0  0  0  0  0  0  0  0  0
   25.2231  -21.2380   -8.4945 C   0  0  0  0  0  0  0  0  0  0  0  0
   24.2823  -20.2465   -8.6944 O   0  0  0  0  0  0  0  0  0  0  0  0
   25.0740  -21.9699   -7.4777 O   0  0  0  0  0  0  0  0  0  0  0  0
  1  5  1  0
  2  1  1  0
  3  2  1  0
  3  4  1  0
  4  5  1  0
  5  6  1  1
  6  7  2  0
  9  8  1  6
  9 11  1  0
 10  9  1  0
 11 12  1  6
 11 13  1  0
 12  6  1  0
 13 14  2  0
 13 15  1  0
 15 16  1  0
 16 27  1  0
 16 17  1  1
 18 17  1  0
 19 18  2  0
 20 19  1  0
 21 20  1  0
 21 26  2  0
 22 21  1  0
 23 22  2  0
 23 24  1  0
 24 25  2  0
 25 26  1  0
 26 18  1  0
 27 29  2  0
 27 28  1  0
M  END
$$$$
