PTW.pdb
     RDKit          3D

 29 31  0  0  1  0  0  0  0  0999 V2000
   27.1216  -22.0753  -17.2296 N   0  0  0  0  0  0  0  0  0  0  0  0
   27.4362  -21.4593  -18.4833 C   0  0  0  0  0  0  0  0  0  0  0  0
   28.9134  -21.0752  -18.4335 C   0  0  0  0  0  0  0  0  0  0  0  0
   29.4577  -22.1105  -17.4893 C   0  0  0  0  0  0  0  0  0  0  0  0
   28.3376  -22.3728  -16.5417 C   0  0  1  0  0  0  0  0  0  0  0  0
   28.4007  -21.6479  -15.2831 C   0  0  0  0  0  0  0  0  0  0  0  0
   29.4201  -21.7824  -14.5507 O   0  0  0  0  0  0  0  0  0  0  0  0
   25.7378  -18.5110  -14.3352 C   0  0  0  0  0  0  0  0  0  0  0  0
   27.0964  -18.6468  -13.6865 C   0  0  1  0  0  0  0  0  0  0  0  0
   27.1821  -18.0179  -12.4591 O   0  0  0  0  0  0  0  0  0  0  0  0
   27.5008  -20.0964  -13.5244 C   0  0  2  0  0  0  0  0  0  0  0  0
   27.3860  -20.7892  -14.8129 N   0  0  0  0  0  0  0  0  0  0  0  0
   26.7079  -20.7794  -12.4913 C   0  0  0  0  0  0  0  0  0  0  0  0
   25.7062  -21.4841  -12.8042 O   0  0  0  0  0  0  0  0  0  0  0  0
   27.0349  -20.6745  -11.1365 N   0  0  0  0  0  0  0  0  0  0  0  0
   26.2757  -21.3574  -10.0807 C   0  0  1  0  0  0  0  0  0  0  0  0
   27.1535  -21.6278   -8.8839 C   0  0  0  0  0  0  0  0  0  0  0  0
   27.2690  -20.4618   -7.9918 C   0  0  0  0  0  0  0  0  0  0  0  0
   26.7118  -19.2082   -8.0804 C   0  0  0  0  0  0  0  0  0  0  0  0
   27.0982  -18.4650   -7.0335 N   0  0  0  0  0  0  0  0  0  0  0  0
   27.9096  -19.1864   -6.2297 C   0  0  0  0  0  0  0  0  0  0  0  0
   28.5587  -18.8862   -5.0505 C   0  0  0  0  0  0  0  0  0  0  0  0
   29.3421  -19.8570   -4.4419 C   0  0  0  0  0  0  0  0  0  0  0  0
   29.4652  -21.1054   -5.0159 C   0  0  0  0  0  0  0  0  0  0  0  0
   28.8007  -21.3673   -6.1955 C   0  0  0  0  0  0  0  0  0  0  0  0
   28.0193  -20.4279   -6.8201 C   0  0  0  0  0  0  0  0  0  0  0  0
   25.1276  -20.4887   -9.7482 C   0  0  0  0  0  0  0  0  0  0  0  0
   25.0515  -19.2008  -10.2417 O   0  0  0  0  0  0  0  0  0  0  0  0
   24.1791  -20.8745   -9.0111 O   0  0  0  0  0  0  0  0  0  0  0  0
  1  5  1  0
  2  1  1  0
  3  2  1  0
  3  4  1  0
  4  5  1  0
  5  6  1  1
  6  7  2  0
  9  8  1  1
  9 11  1  0
 10  9  1  0
 11 12  1  6
 11 13  1  0
 12  6  1  0
 13 14  2  0
 13 15  1  0
 15 16  1  0
 16 27  1  0
 16 17  1  1
 18 17  1  0
 19 18  2  0
 20 19  1  0
 21 20  1  0
 21 26  2  0
 22 21  1  0
 23 22  2  0
 23 24  1  0
 24 25  2  0
 25 26  1  0
 26 18  1  0
 27 29  2  0
 27 28  1  0
M  END
$$$$
