PTW.pdb
     RDKit          3D

 29 31  0  0  1  0  0  0  0  0999 V2000
   28.0324  -17.2489  -18.7067 N   0  0  0  0  0  0  0  0  0  0  0  0
   28.2830  -15.9734  -18.1065 C   0  0  0  0  0  0  0  0  0  0  0  0
   28.8177  -16.2390  -16.7009 C   0  0  0  0  0  0  0  0  0  0  0  0
   29.4783  -17.5770  -16.8825 C   0  0  0  0  0  0  0  0  0  0  0  0
   28.6467  -18.2639  -17.9113 C   0  0  1  0  0  0  0  0  0  0  0  0
   27.6446  -19.1816  -17.3944 C   0  0  0  0  0  0  0  0  0  0  0  0
   26.4232  -18.8939  -17.5324 O   0  0  0  0  0  0  0  0  0  0  0  0
   26.8530  -22.6209  -18.3196 C   0  0  0  0  0  0  0  0  0  0  0  0
   27.0190  -22.6464  -16.8173 C   0  0  1  0  0  0  0  0  0  0  0  0
   28.2159  -23.2028  -16.4084 O   0  0  0  0  0  0  0  0  0  0  0  0
   26.8879  -21.2651  -16.2126 C   0  0  2  0  0  0  0  0  0  0  0  0
   27.9446  -20.3928  -16.7377 N   0  0  0  0  0  0  0  0  0  0  0  0
   26.9209  -21.2994  -14.7429 C   0  0  0  0  0  0  0  0  0  0  0  0
   28.0053  -21.1316  -14.1153 O   0  0  0  0  0  0  0  0  0  0  0  0
   25.7603  -21.5155  -13.9948 N   0  0  0  0  0  0  0  0  0  0  0  0
   25.7657  -21.6087  -12.5289 C   0  0  1  0  0  0  0  0  0  0  0  0
   26.3769  -20.3715  -11.9192 C   0  0  0  0  0  0  0  0  0  0  0  0
   26.1132  -20.2630  -10.4744 C   0  0  0  0  0  0  0  0  0  0  0  0
   24.9531  -19.9753   -9.7953 C   0  0  0  0  0  0  0  0  0  0  0  0
   25.1865  -19.9832   -8.4751 N   0  0  0  0  0  0  0  0  0  0  0  0
   26.4847  -20.2709   -8.2375 C   0  0  0  0  0  0  0  0  0  0  0  0
   27.2127  -20.3968   -7.0729 C   0  0  0  0  0  0  0  0  0  0  0  0
   28.5634  -20.7073   -7.1481 C   0  0  0  0  0  0  0  0  0  0  0  0
   29.1638  -20.8864   -8.3772 C   0  0  0  0  0  0  0  0  0  0  0  0
   28.4026  -20.7520   -9.5191 C   0  0  0  0  0  0  0  0  0  0  0  0
   27.0655  -20.4458   -9.4760 C   0  0  0  0  0  0  0  0  0  0  0  0
   24.3636  -21.8067  -12.1068 C   0  0  0  0  0  0  0  0  0  0  0  0
   24.0681  -22.4569  -10.9244 O   0  0  0  0  0  0  0  0  0  0  0  0
   23.3869  -21.3990  -12.7936 O   0  0  0  0  0  0  0  0  0  0  0  0
  1  5  1  0
  2  1  1  0
  3  2  1  0
  3  4  1  0
  4  5  1  0
  5  6  1  1
  6  7  2  0
  9  8  1  6
  9 11  1  0
 10  9  1  0
 11 12  1  6
 11 13  1  0
 12  6  1  0
 13 14  2  0
 13 15  1  0
 15 16  1  0
 16 27  1  0
 16 17  1  1
 18 17  1  0
 19 18  2  0
 20 19  1  0
 21 20  1  0
 21 26  2  0
 22 21  1  0
 23 22  2  0
 23 24  1  0
 24 25  2  0
 25 26  1  0
 26 18  1  0
 27 29  2  0
 27 28  1  0
M  END
$$$$
