PTW.pdb
     RDKit          3D

 29 31  0  0  1  0  0  0  0  0999 V2000
   15.8621  -22.9201    2.5400 N   0  0  0  0  0  0  0  0  0  0  0  0
   14.7923  -23.3403    1.6862 C   0  0  0  0  0  0  0  0  0  0  0  0
   14.1317  -22.0751    1.1430 C   0  0  0  0  0  0  0  0  0  0  0  0
   15.2835  -21.1093    1.1572 C   0  0  0  0  0  0  0  0  0  0  0  0
   16.1035  -21.5281    2.3293 C   0  0  1  0  0  0  0  0  0  0  0  0
   15.8712  -20.7802    3.5541 C   0  0  0  0  0  0  0  0  0  0  0  0
   14.7854  -20.1506    3.6892 O   0  0  0  0  0  0  0  0  0  0  0  0
   15.6578  -22.1187    7.0801 C   0  0  0  0  0  0  0  0  0  0  0  0
   16.6876  -21.0128    7.0384 C   0  0  1  0  0  0  0  0  0  0  0  0
   17.9867  -21.4774    6.9630 O   0  0  0  0  0  0  0  0  0  0  0  0
   16.4410  -20.0568    5.8912 C   0  0  2  0  0  0  0  0  0  0  0  0
   16.7887  -20.7063    4.6222 N   0  0  0  0  0  0  0  0  0  0  0  0
   17.1810  -18.7963    6.0531 C   0  0  0  0  0  0  0  0  0  0  0  0
   18.3134  -18.6363    5.5145 O   0  0  0  0  0  0  0  0  0  0  0  0
   16.6588  -17.7380    6.8020 N   0  0  0  0  0  0  0  0  0  0  0  0
   17.3711  -16.4665    6.9847 C   0  0  1  0  0  0  0  0  0  0  0  0
   16.5992  -15.3298    6.3617 C   0  0  0  0  0  0  0  0  0  0  0  0
   16.9895  -15.0795    4.9639 C   0  0  0  0  0  0  0  0  0  0  0  0
   16.6254  -15.7215    3.8042 C   0  0  0  0  0  0  0  0  0  0  0  0
   17.2336  -15.1460    2.7571 N   0  0  0  0  0  0  0  0  0  0  0  0
   18.0074  -14.1220    3.1782 C   0  0  0  0  0  0  0  0  0  0  0  0
   18.8200  -13.2319    2.5078 C   0  0  0  0  0  0  0  0  0  0  0  0
   19.5067  -12.2653    3.2293 C   0  0  0  0  0  0  0  0  0  0  0  0
   19.3728  -12.2018    4.6009 C   0  0  0  0  0  0  0  0  0  0  0  0
   18.5510  -13.1094    5.2351 C   0  0  0  0  0  0  0  0  0  0  0  0
   17.8597  -14.0759    4.5485 C   0  0  0  0  0  0  0  0  0  0  0  0
   17.5584  -16.2853    8.4391 C   0  0  0  0  0  0  0  0  0  0  0  0
   17.0177  -17.1848    9.3373 O   0  0  0  0  0  0  0  0  0  0  0  0
   18.2091  -15.3181    8.9216 O   0  0  0  0  0  0  0  0  0  0  0  0
  1  5  1  0
  2  1  1  0
  3  2  1  0
  3  4  1  0
  4  5  1  0
  5  6  1  1
  6  7  2  0
  9  8  1  6
  9 11  1  0
 10  9  1  0
 11 12  1  6
 11 13  1  0
 12  6  1  0
 13 14  2  0
 13 15  1  0
 15 16  1  0
 16 27  1  0
 16 17  1  1
 18 17  1  0
 19 18  2  0
 20 19  1  0
 21 20  1  0
 21 26  2  0
 22 21  1  0
 23 22  2  0
 23 24  1  0
 24 25  2  0
 25 26  1  0
 26 18  1  0
 27 29  2  0
 27 28  1  0
M  END
$$$$
