PTW.pdb
     RDKit          3D

 29 31  0  0  1  0  0  0  0  0999 V2000
   27.2604  -22.3760  -16.8455 N   0  0  0  0  0  0  0  0  0  0  0  0
   26.5923  -22.1389  -18.0894 C   0  0  0  0  0  0  0  0  0  0  0  0
   26.8419  -20.6783  -18.4587 C   0  0  0  0  0  0  0  0  0  0  0  0
   28.1677  -20.4270  -17.7963 C   0  0  0  0  0  0  0  0  0  0  0  0
   28.1406  -21.2836  -16.5768 C   0  0  1  0  0  0  0  0  0  0  0  0
   27.7549  -20.6096  -15.3478 C   0  0  0  0  0  0  0  0  0  0  0  0
   28.3710  -19.5621  -15.0059 O   0  0  0  0  0  0  0  0  0  0  0  0
   25.1377  -18.5907  -14.7321 C   0  0  0  0  0  0  0  0  0  0  0  0
   25.0161  -19.5665  -13.5839 C   0  0  1  0  0  0  0  0  0  0  0  0
   24.0213  -20.5076  -13.7686 O   0  0  0  0  0  0  0  0  0  0  0  0
   26.3225  -20.2804  -13.3108 C   0  0  2  0  0  0  0  0  0  0  0  0
   26.7227  -21.0501  -14.4943 N   0  0  0  0  0  0  0  0  0  0  0  0
   26.2414  -21.1478  -12.1261 C   0  0  0  0  0  0  0  0  0  0  0  0
   26.3427  -22.4032  -12.2344 O   0  0  0  0  0  0  0  0  0  0  0  0
   26.0526  -20.6160  -10.8474 N   0  0  0  0  0  0  0  0  0  0  0  0
   25.9788  -21.4522   -9.6421 C   0  0  1  0  0  0  0  0  0  0  0  0
   27.2974  -21.4470   -8.9091 C   0  0  0  0  0  0  0  0  0  0  0  0
   27.4475  -20.2807   -8.0225 C   0  0  0  0  0  0  0  0  0  0  0  0
   26.9741  -18.9959   -8.1455 C   0  0  0  0  0  0  0  0  0  0  0  0
   27.3613  -18.2668   -7.0891 N   0  0  0  0  0  0  0  0  0  0  0  0
   28.0909  -19.0283   -6.2450 C   0  0  0  0  0  0  0  0  0  0  0  0
   28.7067  -18.7562   -5.0414 C   0  0  0  0  0  0  0  0  0  0  0  0
   29.4012  -19.7670   -4.3915 C   0  0  0  0  0  0  0  0  0  0  0  0
   29.4704  -21.0268   -4.9493 C   0  0  0  0  0  0  0  0  0  0  0  0
   28.8417  -21.2599   -6.1542 C   0  0  0  0  0  0  0  0  0  0  0  0
   28.1479  -20.2806   -6.8198 C   0  0  0  0  0  0  0  0  0  0  0  0
   24.8769  -20.9168   -8.8159 C   0  0  0  0  0  0  0  0  0  0  0  0
   24.1123  -19.8562   -9.2617 O   0  0  0  0  0  0  0  0  0  0  0  0
   24.5868  -21.3938   -7.6846 O   0  0  0  0  0  0  0  0  0  0  0  0
  1  5  1  0
  2  1  1  0
  3  2  1  0
  3  4  1  0
  4  5  1  0
  5  6  1  1
  6  7  2  0
  9  8  1  6
  9 11  1  0
 10  9  1  0
 11 12  1  6
 11 13  1  0
 12  6  1  0
 13 14  2  0
 13 15  1  0
 15 16  1  0
 16 27  1  0
 16 17  1  1
 18 17  1  0
 19 18  2  0
 20 19  1  0
 21 20  1  0
 21 26  2  0
 22 21  1  0
 23 22  2  0
 23 24  1  0
 24 25  2  0
 25 26  1  0
 26 18  1  0
 27 29  2  0
 27 28  1  0
M  END
$$$$
