PTW.pdb
     RDKit          3D

 29 31  0  0  1  0  0  0  0  0999 V2000
   17.6485  -15.9857  -16.7547 N   0  0  0  0  0  0  0  0  0  0  0  0
   16.6531  -16.8171  -17.3613 C   0  0  0  0  0  0  0  0  0  0  0  0
   16.8925  -16.7721  -18.8689 C   0  0  0  0  0  0  0  0  0  0  0  0
   18.3728  -16.5173  -18.9270 C   0  0  0  0  0  0  0  0  0  0  0  0
   18.6522  -15.6819  -17.7246 C   0  0  1  0  0  0  0  0  0  0  0  0
   18.7151  -14.2486  -17.9601 C   0  0  0  0  0  0  0  0  0  0  0  0
   19.5809  -13.7982  -18.7608 O   0  0  0  0  0  0  0  0  0  0  0  0
   16.2602  -11.9453  -19.4960 C   0  0  0  0  0  0  0  0  0  0  0  0
   16.6138  -11.3716  -18.1428 C   0  0  1  0  0  0  0  0  0  0  0  0
   15.6585  -11.6210  -17.1761 O   0  0  0  0  0  0  0  0  0  0  0  0
   17.9535  -11.8751  -17.6502 C   0  0  2  0  0  0  0  0  0  0  0  0
   17.8626  -13.3078  -17.3468 N   0  0  0  0  0  0  0  0  0  0  0  0
   18.4310  -11.1224  -16.4807 C   0  0  0  0  0  0  0  0  0  0  0  0
   18.2231  -11.5470  -15.3083 O   0  0  0  0  0  0  0  0  0  0  0  0
   19.1287   -9.9200  -16.6255 N   0  0  0  0  0  0  0  0  0  0  0  0
   19.5578   -9.1074  -15.4796 C   0  0  1  0  0  0  0  0  0  0  0  0
   21.0628   -9.0185  -15.4240 C   0  0  0  0  0  0  0  0  0  0  0  0
   21.5352   -8.0188  -14.4513 C   0  0  0  0  0  0  0  0  0  0  0  0
   21.8163   -8.1372  -13.1109 C   0  0  0  0  0  0  0  0  0  0  0  0
   22.2198   -6.9542  -12.6259 N   0  0  0  0  0  0  0  0  0  0  0  0
   22.2202   -6.0280  -13.6091 C   0  0  0  0  0  0  0  0  0  0  0  0
   22.5461   -4.6880  -13.6262 C   0  0  0  0  0  0  0  0  0  0  0  0
   22.4447   -3.9809  -14.8163 C   0  0  0  0  0  0  0  0  0  0  0  0
   22.0222   -4.6179  -15.9646 C   0  0  0  0  0  0  0  0  0  0  0  0
   21.7053   -5.9588  -15.9074 C   0  0  0  0  0  0  0  0  0  0  0  0
   21.7957   -6.6837  -14.7457 C   0  0  0  0  0  0  0  0  0  0  0  0
   18.9239   -7.7815  -15.6332 C   0  0  0  0  0  0  0  0  0  0  0  0
   18.6948   -7.2505  -16.8876 O   0  0  0  0  0  0  0  0  0  0  0  0
   18.5683   -7.0836  -14.6442 O   0  0  0  0  0  0  0  0  0  0  0  0
  1  5  1  0
  2  1  1  0
  3  2  1  0
  3  4  1  0
  4  5  1  0
  5  6  1  6
  6  7  2  0
  9  8  1  6
  9 11  1  0
 10  9  1  0
 11 12  1  1
 11 13  1  0
 12  6  1  0
 13 14  2  0
 13 15  1  0
 15 16  1  0
 16 27  1  0
 16 17  1  6
 18 17  1  0
 19 18  2  0
 20 19  1  0
 21 20  1  0
 21 26  2  0
 22 21  1  0
 23 22  2  0
 23 24  1  0
 24 25  2  0
 25 26  1  0
 26 18  1  0
 27 29  2  0
 27 28  1  0
M  END
$$$$
