NNF.pdb
     RDKit          3D

 28 28  0  0  1  0  0  0  0  0999 V2000
    8.5813  -12.3308   18.4948 N   0  0  0  0  0  0  0  0  0  0  0  0
    7.6963  -13.3252   18.0320 C   0  0  0  0  0  0  0  0  0  0  0  0
    7.3628  -13.2957   16.8146 O   0  0  0  0  0  0  0  0  0  0  0  0
    7.1701  -14.3734   18.9345 C   0  0  0  0  0  0  0  0  0  0  0  0
    7.6788  -14.2589   20.3515 C   0  0  2  0  0  0  0  0  0  0  0  0
    8.8866  -13.5093   20.4912 N   0  0  0  0  0  0  0  0  0  0  0  0
    7.7166  -15.5799   21.0263 C   0  0  0  0  0  0  0  0  0  0  0  0
    6.6334  -16.2104   21.1330 O   0  0  0  0  0  0  0  0  0  0  0  0
    9.3569  -20.5949   22.0257 N   0  0  0  0  0  0  0  0  0  0  0  0
   10.2346  -19.5387   22.3809 C   0  0  0  0  0  0  0  0  0  0  0  0
   11.1036  -19.7682   23.2572 O   0  0  0  0  0  0  0  0  0  0  0  0
   10.0835  -18.2297   21.7060 C   0  0  0  0  0  0  0  0  0  0  0  0
    8.9245  -17.4448   22.2363 C   0  0  2  0  0  0  0  0  0  0  0  0
    8.8788  -16.1690   21.5518 N   0  0  0  0  0  0  0  0  0  0  0  0
    9.0317  -17.1956   23.6976 C   0  0  0  0  0  0  0  0  0  0  0  0
    9.1058  -18.1620   24.5131 O   0  0  0  0  0  0  0  0  0  0  0  0
    9.0561  -15.8895   24.2426 N   0  0  0  0  0  0  0  0  0  0  0  0
    9.6937  -15.5431   25.5045 C   0  0  1  0  0  0  0  0  0  0  0  0
    9.8679  -14.0524   25.6332 C   0  0  0  0  0  0  0  0  0  0  0  0
    8.5848  -13.3730   25.7850 C   0  0  0  0  0  0  0  0  0  0  0  0
    7.8904  -13.0398   24.6234 C   0  0  0  0  0  0  0  0  0  0  0  0
    6.6714  -12.4079   24.7422 C   0  0  0  0  0  0  0  0  0  0  0  0
    6.1226  -12.0981   25.9674 C   0  0  0  0  0  0  0  0  0  0  0  0
    6.7979  -12.4214   27.1176 C   0  0  0  0  0  0  0  0  0  0  0  0
    8.0192  -13.0544   27.0025 C   0  0  0  0  0  0  0  0  0  0  0  0
    9.0544  -16.1938   26.6473 C   0  0  0  0  0  0  0  0  0  0  0  0
    9.5494  -16.2873   27.9205 O   0  0  0  0  0  0  0  0  0  0  0  0
    7.9148  -16.7340   26.4413 O   0  0  0  0  0  0  0  0  0  0  0  0
  2  1  1  0
  2  3  2  0
  4  2  1  0
  5  7  1  0
  5  4  1  0
  5  6  1  6
  7  8  2  0
  9 10  1  0
 10 12  1  0
 10 11  2  0
 13 12  1  6
 13 14  1  0
 13 15  1  0
 14  7  1  0
 15 17  1  0
 15 16  2  0
 17 18  1  0
 18 26  1  0
 18 19  1  1
 20 19  1  0
 20 25  2  0
 21 20  1  0
 22 21  2  0
 22 23  1  0
 23 24  2  0
 24 25  1  0
 26 28  2  0
 26 27  1  0
M  END
$$$$
