NNF.pdb
     RDKit          3D

 28 28  0  0  1  0  0  0  0  0999 V2000
    8.7948  -19.4230   17.5583 N   0  0  0  0  0  0  0  0  0  0  0  0
    9.3872  -18.4305   16.7518 C   0  0  0  0  0  0  0  0  0  0  0  0
    8.9135  -18.2525   15.5950 O   0  0  0  0  0  0  0  0  0  0  0  0
   10.5263  -17.6189   17.2352 C   0  0  0  0  0  0  0  0  0  0  0  0
   10.9380  -17.9424   18.6513 C   0  0  2  0  0  0  0  0  0  0  0  0
   10.5711  -19.2501   19.0936 N   0  0  0  0  0  0  0  0  0  0  0  0
   10.5475  -16.8641   19.5930 C   0  0  0  0  0  0  0  0  0  0  0  0
   11.3312  -15.8882   19.7181 O   0  0  0  0  0  0  0  0  0  0  0  0
    6.1881  -14.4103   23.0016 N   0  0  0  0  0  0  0  0  0  0  0  0
    7.2560  -14.3416   22.0705 C   0  0  0  0  0  0  0  0  0  0  0  0
    7.8637  -13.2493   21.9550 O   0  0  0  0  0  0  0  0  0  0  0  0
    7.5977  -15.5512   21.2882 C   0  0  0  0  0  0  0  0  0  0  0  0
    9.0479  -15.9068   21.3919 C   0  0  2  0  0  0  0  0  0  0  0  0
    9.3646  -16.8632   20.3510 N   0  0  0  0  0  0  0  0  0  0  0  0
    9.3902  -16.5071   22.7078 C   0  0  0  0  0  0  0  0  0  0  0  0
   10.5748  -16.8791   22.9586 O   0  0  0  0  0  0  0  0  0  0  0  0
    8.4276  -16.6901   23.7293 N   0  0  0  0  0  0  0  0  0  0  0  0
    8.6194  -16.2845   25.1141 C   0  0  1  0  0  0  0  0  0  0  0  0
    9.1136  -14.8641   25.2000 C   0  0  0  0  0  0  0  0  0  0  0  0
    9.4741  -14.5029   26.5677 C   0  0  0  0  0  0  0  0  0  0  0  0
   10.7001  -14.9554   27.0521 C   0  0  0  0  0  0  0  0  0  0  0  0
   11.0669  -14.6172   28.3369 C   0  0  0  0  0  0  0  0  0  0  0  0
   10.2625  -13.8500   29.1510 C   0  0  0  0  0  0  0  0  0  0  0  0
    9.0532  -13.3993   28.6842 C   0  0  0  0  0  0  0  0  0  0  0  0
    8.6825  -13.7361   27.3979 C   0  0  0  0  0  0  0  0  0  0  0  0
    7.4576  -16.5886   25.9484 C   0  0  0  0  0  0  0  0  0  0  0  0
    7.4465  -17.3269   27.1014 O   0  0  0  0  0  0  0  0  0  0  0  0
    6.3326  -16.1192   25.5651 O   0  0  0  0  0  0  0  0  0  0  0  0
  2  1  1  0
  2  3  2  0
  4  2  1  0
  5  7  1  0
  5  4  1  0
  5  6  1  1
  7  8  2  0
  9 10  1  0
 10 12  1  0
 10 11  2  0
 13 12  1  1
 13 14  1  0
 13 15  1  0
 14  7  1  0
 15 17  1  0
 15 16  2  0
 17 18  1  0
 18 26  1  0
 18 19  1  6
 20 19  1  0
 20 25  2  0
 21 20  1  0
 22 21  2  0
 22 23  1  0
 23 24  2  0
 24 25  1  0
 26 28  2  0
 26 27  1  0
M  END
$$$$
