NNF.pdb
     RDKit          3D

 28 28  0  0  1  0  0  0  0  0999 V2000
    7.9234  -11.7303   18.3216 N   0  0  0  0  0  0  0  0  0  0  0  0
    8.0906  -13.1035   18.0519 C   0  0  0  0  0  0  0  0  0  0  0  0
    8.5125  -13.4313   16.9078 O   0  0  0  0  0  0  0  0  0  0  0  0
    7.7850  -14.1344   19.0686 C   0  0  0  0  0  0  0  0  0  0  0  0
    8.4908  -15.4470   18.8262 C   0  0  2  0  0  0  0  0  0  0  0  0
    8.1700  -16.0744   17.5837 N   0  0  0  0  0  0  0  0  0  0  0  0
    8.3775  -16.3519   19.9968 C   0  0  0  0  0  0  0  0  0  0  0  0
    7.5288  -17.2784   19.9367 O   0  0  0  0  0  0  0  0  0  0  0  0
   11.5539  -19.5024   22.1188 N   0  0  0  0  0  0  0  0  0  0  0  0
   10.6469  -18.7969   21.2871 C   0  0  0  0  0  0  0  0  0  0  0  0
   11.0572  -18.4151   20.1639 O   0  0  0  0  0  0  0  0  0  0  0  0
    9.2736  -18.5483   21.7809 C   0  0  0  0  0  0  0  0  0  0  0  0
    9.0937  -17.1516   22.2879 C   0  0  2  0  0  0  0  0  0  0  0  0
    9.1530  -16.2406   21.1631 N   0  0  0  0  0  0  0  0  0  0  0  0
   10.1435  -16.7657   23.2667 C   0  0  0  0  0  0  0  0  0  0  0  0
   11.2817  -16.3751   22.8715 O   0  0  0  0  0  0  0  0  0  0  0  0
    9.9286  -16.8139   24.6650 N   0  0  0  0  0  0  0  0  0  0  0  0
    9.4187  -15.7001   25.4515 C   0  0  1  0  0  0  0  0  0  0  0  0
    8.2318  -15.0602   24.7800 C   0  0  0  0  0  0  0  0  0  0  0  0
    7.7670  -13.8875   25.5149 C   0  0  0  0  0  0  0  0  0  0  0  0
    8.5342  -12.7271   25.4291 C   0  0  0  0  0  0  0  0  0  0  0  0
    8.1090  -11.6041   26.1054 C   0  0  0  0  0  0  0  0  0  0  0  0
    6.9553  -11.5948   26.8587 C   0  0  0  0  0  0  0  0  0  0  0  0
    6.1924  -12.7320   26.9501 C   0  0  0  0  0  0  0  0  0  0  0  0
    6.6152  -13.8588   26.2741 C   0  0  0  0  0  0  0  0  0  0  0  0
    9.2196  -16.0564   26.8556 C   0  0  0  0  0  0  0  0  0  0  0  0
    8.4458  -17.0763   27.3412 O   0  0  0  0  0  0  0  0  0  0  0  0
    9.8284  -15.3439   27.7243 O   0  0  0  0  0  0  0  0  0  0  0  0
  2  1  1  0
  2  3  2  0
  4  2  1  0
  5  7  1  0
  5  4  1  0
  5  6  1  6
  7  8  2  0
  9 10  1  0
 10 12  1  0
 10 11  2  0
 13 12  1  6
 13 14  1  0
 13 15  1  0
 14  7  1  0
 15 17  1  0
 15 16  2  0
 17 18  1  0
 18 26  1  0
 18 19  1  6
 20 19  1  0
 20 25  2  0
 21 20  1  0
 22 21  2  0
 22 23  1  0
 23 24  2  0
 24 25  1  0
 26 28  2  0
 26 27  1  0
M  END
$$$$
