NNF.pdb
     RDKit          3D

 28 28  0  0  1  0  0  0  0  0999 V2000
    9.3389  -14.0352   17.6259 N   0  0  0  0  0  0  0  0  0  0  0  0
    8.0746  -13.5153   17.9686 C   0  0  0  0  0  0  0  0  0  0  0  0
    7.3621  -13.0410   17.0403 O   0  0  0  0  0  0  0  0  0  0  0  0
    7.5890  -13.5205   19.3665 C   0  0  0  0  0  0  0  0  0  0  0  0
    8.5032  -14.2533   20.3188 C   0  0  2  0  0  0  0  0  0  0  0  0
    9.4292  -15.1407   19.6901 N   0  0  0  0  0  0  0  0  0  0  0  0
    7.7456  -14.8750   21.4331 C   0  0  0  0  0  0  0  0  0  0  0  0
    6.9285  -14.1504   22.0573 O   0  0  0  0  0  0  0  0  0  0  0  0
    6.9976  -20.2246   24.3581 N   0  0  0  0  0  0  0  0  0  0  0  0
    6.5814  -18.9006   24.0648 C   0  0  0  0  0  0  0  0  0  0  0  0
    5.7744  -18.3515   24.8540 O   0  0  0  0  0  0  0  0  0  0  0  0
    7.1150  -18.2383   22.8531 C   0  0  0  0  0  0  0  0  0  0  0  0
    7.3405  -16.7726   23.0566 C   0  0  2  0  0  0  0  0  0  0  0  0
    7.8819  -16.2144   21.8344 N   0  0  0  0  0  0  0  0  0  0  0  0
    8.2900  -16.4953   24.1661 C   0  0  0  0  0  0  0  0  0  0  0  0
    9.5406  -16.5669   23.9780 O   0  0  0  0  0  0  0  0  0  0  0  0
    7.8531  -16.1431   25.4656 N   0  0  0  0  0  0  0  0  0  0  0  0
    8.7423  -15.9524   26.6022 C   0  0  1  0  0  0  0  0  0  0  0  0
    8.1269  -15.0326   27.6242 C   0  0  0  0  0  0  0  0  0  0  0  0
    7.6951  -13.7743   27.0230 C   0  0  0  0  0  0  0  0  0  0  0  0
    6.3889  -13.3563   27.2708 C   0  0  0  0  0  0  0  0  0  0  0  0
    5.9624  -12.1657   26.7229 C   0  0  0  0  0  0  0  0  0  0  0  0
    6.7841  -11.3818   25.9427 C   0  0  0  0  0  0  0  0  0  0  0  0
    8.0722  -11.7840   25.6922 C   0  0  0  0  0  0  0  0  0  0  0  0
    8.5027  -12.9759   26.2393 C   0  0  0  0  0  0  0  0  0  0  0  0
    9.2472  -17.2186   27.1315 C   0  0  0  0  0  0  0  0  0  0  0  0
    8.9255  -18.4762   26.6959 O   0  0  0  0  0  0  0  0  0  0  0  0
   10.0747  -17.1497   28.1027 O   0  0  0  0  0  0  0  0  0  0  0  0
  2  1  1  0
  2  3  2  0
  4  2  1  0
  5  7  1  0
  5  4  1  0
  5  6  1  6
  7  8  2  0
  9 10  1  0
 10 12  1  0
 10 11  2  0
 13 12  1  6
 13 14  1  0
 13 15  1  0
 14  7  1  0
 15 17  1  0
 15 16  2  0
 17 18  1  0
 18 26  1  0
 18 19  1  1
 20 19  1  0
 20 25  2  0
 21 20  1  0
 22 21  2  0
 22 23  1  0
 23 24  2  0
 24 25  1  0
 26 28  2  0
 26 27  1  0
M  END
$$$$
