NNF.pdb
     RDKit          3D

 28 28  0  0  1  0  0  0  0  0999 V2000
    8.3496  -19.3799   16.8184 N   0  0  0  0  0  0  0  0  0  0  0  0
    8.9209  -19.2581   18.1010 C   0  0  0  0  0  0  0  0  0  0  0  0
    9.1939  -20.3203   18.7267 O   0  0  0  0  0  0  0  0  0  0  0  0
    9.1958  -17.9345   18.7030 C   0  0  0  0  0  0  0  0  0  0  0  0
    8.9822  -17.8965   20.1972 C   0  0  2  0  0  0  0  0  0  0  0  0
    7.6621  -18.2431   20.6185 N   0  0  0  0  0  0  0  0  0  0  0  0
    9.4826  -16.6306   20.7881 C   0  0  0  0  0  0  0  0  0  0  0  0
   10.7279  -16.4569   20.8236 O   0  0  0  0  0  0  0  0  0  0  0  0
    6.5507  -13.4294   19.5770 N   0  0  0  0  0  0  0  0  0  0  0  0
    7.8886  -13.2627   20.0176 C   0  0  0  0  0  0  0  0  0  0  0  0
    8.7775  -13.1046   19.1456 O   0  0  0  0  0  0  0  0  0  0  0  0
    8.1674  -13.2832   21.4714 C   0  0  0  0  0  0  0  0  0  0  0  0
    9.1327  -14.3620   21.8521 C   0  0  2  0  0  0  0  0  0  0  0  0
    8.6589  -15.6185   21.3087 N   0  0  0  0  0  0  0  0  0  0  0  0
    9.2700  -14.5039   23.3252 C   0  0  0  0  0  0  0  0  0  0  0  0
    9.7706  -13.5701   24.0194 O   0  0  0  0  0  0  0  0  0  0  0  0
    8.8555  -15.6684   24.0150 N   0  0  0  0  0  0  0  0  0  0  0  0
    8.9917  -15.8582   25.4518 C   0  0  1  0  0  0  0  0  0  0  0  0
    7.6572  -15.7503   26.1423 C   0  0  0  0  0  0  0  0  0  0  0  0
    7.2633  -14.3578   26.3346 C   0  0  0  0  0  0  0  0  0  0  0  0
    6.0119  -13.9703   25.8589 C   0  0  0  0  0  0  0  0  0  0  0  0
    5.6138  -12.6632   26.0391 C   0  0  0  0  0  0  0  0  0  0  0  0
    6.4112  -11.7346   26.6716 C   0  0  0  0  0  0  0  0  0  0  0  0
    7.6454  -12.1054   27.1437 C   0  0  0  0  0  0  0  0  0  0  0  0
    8.0475  -13.4137   26.9650 C   0  0  0  0  0  0  0  0  0  0  0  0
    9.7670  -17.0528   25.7837 C   0  0  0  0  0  0  0  0  0  0  0  0
   10.3579  -17.9181   24.9023 O   0  0  0  0  0  0  0  0  0  0  0  0
    9.9101  -17.3222   27.0245 O   0  0  0  0  0  0  0  0  0  0  0  0
  2  1  1  0
  2  3  2  0
  4  2  1  0
  5  7  1  0
  5  4  1  0
  5  6  1  6
  7  8  2  0
  9 10  1  0
 10 12  1  0
 10 11  2  0
 13 12  1  1
 13 14  1  0
 13 15  1  0
 14  7  1  0
 15 17  1  0
 15 16  2  0
 17 18  1  0
 18 26  1  0
 18 19  1  1
 20 19  1  0
 20 25  2  0
 21 20  1  0
 22 21  2  0
 22 23  1  0
 23 24  2  0
 24 25  1  0
 26 28  2  0
 26 27  1  0
M  END
$$$$
