NNF.pdb
     RDKit          3D

 28 28  0  0  1  0  0  0  0  0999 V2000
    8.8997  -12.4316   17.7762 N   0  0  0  0  0  0  0  0  0  0  0  0
    7.7137  -13.1903   17.8409 C   0  0  0  0  0  0  0  0  0  0  0  0
    6.8737  -13.0495   16.9087 O   0  0  0  0  0  0  0  0  0  0  0  0
    7.4521  -14.1234   18.9593 C   0  0  0  0  0  0  0  0  0  0  0  0
    8.4743  -14.0370   20.0671 C   0  0  2  0  0  0  0  0  0  0  0  0
    9.8323  -14.0275   19.6242 N   0  0  0  0  0  0  0  0  0  0  0  0
    8.2042  -15.0286   21.1375 C   0  0  0  0  0  0  0  0  0  0  0  0
    7.0724  -15.0001   21.6855 O   0  0  0  0  0  0  0  0  0  0  0  0
    8.1691  -19.5303   20.6789 N   0  0  0  0  0  0  0  0  0  0  0  0
    9.3462  -18.7600   20.8603 C   0  0  0  0  0  0  0  0  0  0  0  0
   10.0743  -18.5573   19.8580 O   0  0  0  0  0  0  0  0  0  0  0  0
    9.6547  -18.2378   22.2108 C   0  0  0  0  0  0  0  0  0  0  0  0
    8.8455  -17.0257   22.5522 C   0  0  2  0  0  0  0  0  0  0  0  0
    9.1272  -15.9924   21.5769 N   0  0  0  0  0  0  0  0  0  0  0  0
    9.1602  -16.4988   23.9059 C   0  0  0  0  0  0  0  0  0  0  0  0
   10.2094  -15.8178   24.1052 O   0  0  0  0  0  0  0  0  0  0  0  0
    8.3185  -16.7266   25.0210 N   0  0  0  0  0  0  0  0  0  0  0  0
    8.5919  -16.2362   26.3640 C   0  0  1  0  0  0  0  0  0  0  0  0
    7.3510  -15.6600   26.9943 C   0  0  0  0  0  0  0  0  0  0  0  0
    7.0589  -14.3246   26.4816 C   0  0  0  0  0  0  0  0  0  0  0  0
    7.9812  -13.3149   26.7507 C   0  0  0  0  0  0  0  0  0  0  0  0
    7.7322  -12.0486   26.2671 C   0  0  0  0  0  0  0  0  0  0  0  0
    6.6060  -11.7535   25.5303 C   0  0  0  0  0  0  0  0  0  0  0  0
    5.6912  -12.7402   25.2597 C   0  0  0  0  0  0  0  0  0  0  0  0
    5.9372  -14.0097   25.7424 C   0  0  0  0  0  0  0  0  0  0  0  0
    9.3033  -17.2188   27.1805 C   0  0  0  0  0  0  0  0  0  0  0  0
   10.0115  -16.9743   28.3266 O   0  0  0  0  0  0  0  0  0  0  0  0
    9.2637  -18.4339   26.7871 O   0  0  0  0  0  0  0  0  0  0  0  0
  2  1  1  0
  2  3  2  0
  4  2  1  0
  5  7  1  0
  5  4  1  0
  5  6  1  6
  7  8  2  0
  9 10  1  0
 10 12  1  0
 10 11  2  0
 13 12  1  6
 13 14  1  0
 13 15  1  0
 14  7  1  0
 15 17  1  0
 15 16  2  0
 17 18  1  0
 18 26  1  0
 18 19  1  1
 20 19  1  0
 20 25  2  0
 21 20  1  0
 22 21  2  0
 22 23  1  0
 23 24  2  0
 24 25  1  0
 26 28  2  0
 26 27  1  0
M  END
$$$$
