NNF.pdb
     RDKit          3D

 28 28  0  0  1  0  0  0  0  0999 V2000
    8.5938  -13.1131   19.5367 N   0  0  0  0  0  0  0  0  0  0  0  0
    7.9916  -13.7834   18.4531 C   0  0  0  0  0  0  0  0  0  0  0  0
    8.2663  -13.3829   17.2876 O   0  0  0  0  0  0  0  0  0  0  0  0
    7.0671  -14.9196   18.6635 C   0  0  0  0  0  0  0  0  0  0  0  0
    6.9546  -15.3449   20.1078 C   0  0  2  0  0  0  0  0  0  0  0  0
    6.8472  -14.2668   21.0387 N   0  0  0  0  0  0  0  0  0  0  0  0
    7.9955  -16.3398   20.4665 C   0  0  0  0  0  0  0  0  0  0  0  0
    8.1357  -17.3345   19.7095 O   0  0  0  0  0  0  0  0  0  0  0  0
   13.0136  -14.1686   21.2286 N   0  0  0  0  0  0  0  0  0  0  0  0
   12.2361  -15.1470   20.5575 C   0  0  0  0  0  0  0  0  0  0  0  0
   12.8382  -15.9847   19.8423 O   0  0  0  0  0  0  0  0  0  0  0  0
   10.7662  -15.1318   20.7328 C   0  0  0  0  0  0  0  0  0  0  0  0
   10.2779  -16.2821   21.5566 C   0  0  2  0  0  0  0  0  0  0  0  0
    8.8303  -16.2431   21.5924 N   0  0  0  0  0  0  0  0  0  0  0  0
   10.7884  -16.2354   22.9518 C   0  0  0  0  0  0  0  0  0  0  0  0
   11.9888  -15.9078   23.1889 O   0  0  0  0  0  0  0  0  0  0  0  0
    9.9739  -16.5484   24.0663 N   0  0  0  0  0  0  0  0  0  0  0  0
    9.9404  -15.7717   25.2970 C   0  0  1  0  0  0  0  0  0  0  0  0
    9.7730  -14.3029   25.0071 C   0  0  0  0  0  0  0  0  0  0  0  0
    8.5422  -13.7774   25.5904 C   0  0  0  0  0  0  0  0  0  0  0  0
    8.6446  -12.6513   26.4052 C   0  0  0  0  0  0  0  0  0  0  0  0
    7.4945  -12.1306   26.9579 C   0  0  0  0  0  0  0  0  0  0  0  0
    6.2547  -12.6867   26.7299 C   0  0  0  0  0  0  0  0  0  0  0  0
    6.1424  -13.7958   25.9293 C   0  0  0  0  0  0  0  0  0  0  0  0
    7.2923  -14.3201   25.3741 C   0  0  0  0  0  0  0  0  0  0  0  0
    9.0036  -16.3214   26.2759 C   0  0  0  0  0  0  0  0  0  0  0  0
    8.0167  -17.2408   26.0404 O   0  0  0  0  0  0  0  0  0  0  0  0
    9.1126  -15.9025   27.4782 O   0  0  0  0  0  0  0  0  0  0  0  0
  2  1  1  0
  2  3  2  0
  4  2  1  0
  5  7  1  0
  5  4  1  0
  5  6  1  1
  7  8  2  0
  9 10  1  0
 10 12  1  0
 10 11  2  0
 13 12  1  6
 13 14  1  0
 13 15  1  0
 14  7  1  0
 15 17  1  0
 15 16  2  0
 17 18  1  0
 18 26  1  0
 18 19  1  6
 20 19  1  0
 20 25  2  0
 21 20  1  0
 22 21  2  0
 22 23  1  0
 23 24  2  0
 24 25  1  0
 26 28  2  0
 26 27  1  0
M  END
$$$$
