NNF.pdb
     RDKit          3D

 28 28  0  0  1  0  0  0  0  0999 V2000
   12.5930  -21.3035   13.4033 N   0  0  0  0  0  0  0  0  0  0  0  0
   13.2493  -20.1080   13.7586 C   0  0  0  0  0  0  0  0  0  0  0  0
   14.5110  -20.0933   13.7123 O   0  0  0  0  0  0  0  0  0  0  0  0
   12.4942  -18.9046   14.1731 C   0  0  0  0  0  0  0  0  0  0  0  0
   13.0660  -18.2262   15.3948 C   0  0  2  0  0  0  0  0  0  0  0  0
   13.1688  -19.0641   16.5471 N   0  0  0  0  0  0  0  0  0  0  0  0
   12.3987  -16.9277   15.6605 C   0  0  0  0  0  0  0  0  0  0  0  0
   12.2456  -16.1423   14.6900 O   0  0  0  0  0  0  0  0  0  0  0  0
    8.9200  -13.3526   16.3837 N   0  0  0  0  0  0  0  0  0  0  0  0
    8.8036  -14.5118   17.1929 C   0  0  0  0  0  0  0  0  0  0  0  0
    7.9411  -14.5059   18.1048 O   0  0  0  0  0  0  0  0  0  0  0  0
    9.6973  -15.6610   16.9237 C   0  0  0  0  0  0  0  0  0  0  0  0
   11.1374  -15.3327   17.1660 C   0  0  2  0  0  0  0  0  0  0  0  0
   11.9296  -16.5205   16.9207 N   0  0  0  0  0  0  0  0  0  0  0  0
   11.3867  -14.8755   18.5581 C   0  0  0  0  0  0  0  0  0  0  0  0
   12.1572  -13.8966   18.7874 O   0  0  0  0  0  0  0  0  0  0  0  0
   10.7863  -15.4989   19.6781 N   0  0  0  0  0  0  0  0  0  0  0  0
   11.0162  -15.0955   21.0578 C   0  0  1  0  0  0  0  0  0  0  0  0
    9.7144  -14.9045   21.7913 C   0  0  0  0  0  0  0  0  0  0  0  0
    8.8311  -13.9807   21.0858 C   0  0  0  0  0  0  0  0  0  0  0  0
    9.4011  -12.8287   20.5468 C   0  0  0  0  0  0  0  0  0  0  0  0
    8.5887  -11.9473   19.8666 C   0  0  0  0  0  0  0  0  0  0  0  0
    7.2387  -12.1702   19.7048 C   0  0  0  0  0  0  0  0  0  0  0  0
    6.6671  -13.3013   20.2316 C   0  0  0  0  0  0  0  0  0  0  0  0
    7.4777  -14.1863   20.9135 C   0  0  0  0  0  0  0  0  0  0  0  0
   11.9886  -15.9536   21.7332 C   0  0  0  0  0  0  0  0  0  0  0  0
   12.6230  -15.6986   22.9194 O   0  0  0  0  0  0  0  0  0  0  0  0
   12.2810  -17.0577   21.1601 O   0  0  0  0  0  0  0  0  0  0  0  0
  2  1  1  0
  2  3  2  0
  4  2  1  0
  5  7  1  0
  5  4  1  0
  5  6  1  1
  7  8  2  0
  9 10  1  0
 10 12  1  0
 10 11  2  0
 13 12  1  1
 13 14  1  0
 13 15  1  0
 14  7  1  0
 15 17  1  0
 15 16  2  0
 17 18  1  0
 18 26  1  0
 18 19  1  1
 20 19  1  0
 20 25  2  0
 21 20  1  0
 22 21  2  0
 22 23  1  0
 23 24  2  0
 24 25  1  0
 26 28  2  0
 26 27  1  0
M  END
$$$$
