NNF.pdb
     RDKit          3D

 28 28  0  0  1  0  0  0  0  0999 V2000
   10.4813  -17.6555   15.6313 N   0  0  0  0  0  0  0  0  0  0  0  0
   10.6216  -17.2257   16.9662 C   0  0  0  0  0  0  0  0  0  0  0  0
   11.7919  -17.0829   17.4183 O   0  0  0  0  0  0  0  0  0  0  0  0
    9.4435  -16.9482   17.8175 C   0  0  0  0  0  0  0  0  0  0  0  0
    9.5053  -17.6194   19.1686 C   0  0  2  0  0  0  0  0  0  0  0  0
    9.9025  -18.9910   19.1337 N   0  0  0  0  0  0  0  0  0  0  0  0
    8.2709  -17.3768   19.9556 C   0  0  0  0  0  0  0  0  0  0  0  0
    7.2294  -17.0638   19.3235 O   0  0  0  0  0  0  0  0  0  0  0  0
    4.0201  -18.8235   23.0570 N   0  0  0  0  0  0  0  0  0  0  0  0
    5.3540  -18.5914   23.4797 C   0  0  0  0  0  0  0  0  0  0  0  0
    5.5488  -18.3403   24.6941 O   0  0  0  0  0  0  0  0  0  0  0  0
    6.4407  -18.6565   22.4764 C   0  0  0  0  0  0  0  0  0  0  0  0
    6.9786  -17.3034   22.1294 C   0  0  2  0  0  0  0  0  0  0  0  0
    8.1910  -17.4730   21.3549 N   0  0  0  0  0  0  0  0  0  0  0  0
    7.2953  -16.4946   23.3354 C   0  0  0  0  0  0  0  0  0  0  0  0
    6.4330  -15.7099   23.8307 O   0  0  0  0  0  0  0  0  0  0  0  0
    8.5537  -16.5588   23.9805 N   0  0  0  0  0  0  0  0  0  0  0  0
    8.9651  -15.6710   25.0582 C   0  0  1  0  0  0  0  0  0  0  0  0
    7.8537  -15.4786   26.0567 C   0  0  0  0  0  0  0  0  0  0  0  0
    7.3737  -14.1000   26.0669 C   0  0  0  0  0  0  0  0  0  0  0  0
    7.9699  -13.2033   25.1820 C   0  0  0  0  0  0  0  0  0  0  0  0
    7.5254  -11.8988   25.1659 C   0  0  0  0  0  0  0  0  0  0  0  0
    6.5155  -11.4582   25.9932 C   0  0  0  0  0  0  0  0  0  0  0  0
    5.9216  -12.3327   26.8685 C   0  0  0  0  0  0  0  0  0  0  0  0
    6.3643  -13.6400   26.8875 C   0  0  0  0  0  0  0  0  0  0  0  0
   10.2548  -16.0530   25.6314 C   0  0  0  0  0  0  0  0  0  0  0  0
   11.0567  -17.0877   25.2299 O   0  0  0  0  0  0  0  0  0  0  0  0
   10.6824  -15.3517   26.6103 O   0  0  0  0  0  0  0  0  0  0  0  0
  2  1  1  0
  2  3  2  0
  4  2  1  0
  5  7  1  0
  5  4  1  0
  5  6  1  6
  7  8  2  0
  9 10  1  0
 10 12  1  0
 10 11  2  0
 13 12  1  1
 13 14  1  0
 13 15  1  0
 14  7  1  0
 15 17  1  0
 15 16  2  0
 17 18  1  0
 18 26  1  0
 18 19  1  1
 20 19  1  0
 20 25  2  0
 21 20  1  0
 22 21  2  0
 22 23  1  0
 23 24  2  0
 24 25  1  0
 26 28  2  0
 26 27  1  0
M  END
$$$$
