NAG.pdb
     RDKit          3D

 18 17  0  0  1  0  0  0  0  0999 V2000
    7.7451  -19.2655   18.2789 N   0  0  0  0  0  0  0  0  0  0  0  0
    6.9522  -18.1525   18.6560 C   0  0  0  0  0  0  0  0  0  0  0  0
    6.0559  -17.6961   17.9029 O   0  0  0  0  0  0  0  0  0  0  0  0
    7.1688  -17.4935   19.9698 C   0  0  0  0  0  0  0  0  0  0  0  0
    7.4865  -16.0102   19.7820 C   0  0  2  0  0  0  0  0  0  0  0  0
    8.4029  -15.7971   18.7022 N   0  0  0  0  0  0  0  0  0  0  0  0
    8.1004  -15.5540   21.0496 C   0  0  0  0  0  0  0  0  0  0  0  0
    9.2217  -16.0241   21.3654 O   0  0  0  0  0  0  0  0  0  0  0  0
    7.3251  -13.0984   23.7250 C   0  0  0  0  0  0  0  0  0  0  0  0
    8.1088  -14.2684   23.1355 C   0  0  2  0  0  0  0  0  0  0  0  0
    7.4702  -14.6138   21.9094 N   0  0  0  0  0  0  0  0  0  0  0  0
    8.1649  -15.3696   24.1104 C   0  0  0  0  0  0  0  0  0  0  0  0
    7.1381  -15.9956   24.4708 O   0  0  0  0  0  0  0  0  0  0  0  0
    9.4331  -15.7196   24.6491 N   0  0  0  0  0  0  0  0  0  0  0  0
    9.5900  -16.7434   25.6641 C   0  0  0  0  0  0  0  0  0  0  0  0
   11.0028  -16.8345   26.0435 C   0  0  0  0  0  0  0  0  0  0  0  0
   11.8956  -16.1641   25.4550 O   0  0  0  0  0  0  0  0  0  0  0  0
   11.3976  -17.6667   27.0674 O   0  0  0  0  0  0  0  0  0  0  0  0
  2  1  1  0
  3  2  2  0
  4  2  1  0
  5  4  1  0
  5  6  1  6
  7  5  1  0
  8  7  2  0
 10  9  1  1
 10 12  1  0
 10 11  1  0
 11  7  1  0
 12 13  2  0
 14 15  1  0
 14 12  1  0
 15 16  1  0
 16 17  2  0
 16 18  1  0
M  END
$$$$
