NAG.pdb
     RDKit          3D

 18 17  0  0  1  0  0  0  0  0999 V2000
    8.7171  -15.2757   14.6599 N   0  0  0  0  0  0  0  0  0  0  0  0
    8.2136  -15.6472   15.9319 C   0  0  0  0  0  0  0  0  0  0  0  0
    7.2511  -16.4459   16.0524 O   0  0  0  0  0  0  0  0  0  0  0  0
    8.8237  -15.0908   17.1670 C   0  0  0  0  0  0  0  0  0  0  0  0
    7.8146  -14.2276   17.9241 C   0  0  2  0  0  0  0  0  0  0  0  0
    7.7098  -12.9158   17.3587 N   0  0  0  0  0  0  0  0  0  0  0  0
    8.3139  -14.1291   19.3142 C   0  0  0  0  0  0  0  0  0  0  0  0
    9.3605  -13.4655   19.5202 O   0  0  0  0  0  0  0  0  0  0  0  0
    7.1540  -15.0605   22.7040 C   0  0  0  0  0  0  0  0  0  0  0  0
    8.2352  -14.6515   21.7069 C   0  0  2  0  0  0  0  0  0  0  0  0
    7.6559  -14.7529   20.4090 N   0  0  0  0  0  0  0  0  0  0  0  0
    9.4282  -15.4928   21.8956 C   0  0  0  0  0  0  0  0  0  0  0  0
    9.6345  -16.5229   21.2083 O   0  0  0  0  0  0  0  0  0  0  0  0
   10.3643  -15.1082   22.8939 N   0  0  0  0  0  0  0  0  0  0  0  0
   11.6118  -15.8175   23.1033 C   0  0  0  0  0  0  0  0  0  0  0  0
   11.3980  -16.8934   24.0753 C   0  0  0  0  0  0  0  0  0  0  0  0
   10.4096  -17.6745   23.9986 O   0  0  0  0  0  0  0  0  0  0  0  0
   12.2839  -17.0821   25.1128 O   0  0  0  0  0  0  0  0  0  0  0  0
  2  1  1  0
  3  2  2  0
  4  2  1  0
  5  4  1  0
  5  6  1  6
  7  5  1  0
  8  7  2  0
 10  9  1  1
 10 12  1  0
 10 11  1  0
 11  7  1  0
 12 13  2  0
 14 15  1  0
 14 12  1  0
 15 16  1  0
 16 17  2  0
 16 18  1  0
M  END
$$$$
