NAG.pdb
     RDKit          3D

 18 17  0  0  1  0  0  0  0  0999 V2000
    9.0729  -16.9530   14.0115 N   0  0  0  0  0  0  0  0  0  0  0  0
    9.0633  -15.5479   13.8240 C   0  0  0  0  0  0  0  0  0  0  0  0
    9.0334  -15.0361   12.6769 O   0  0  0  0  0  0  0  0  0  0  0  0
    9.0886  -14.6387   14.9988 C   0  0  0  0  0  0  0  0  0  0  0  0
    9.2336  -15.4370   16.2942 C   0  0  2  0  0  0  0  0  0  0  0  0
    8.1349  -16.3349   16.4891 N   0  0  0  0  0  0  0  0  0  0  0  0
    9.2621  -14.4441   17.3919 C   0  0  0  0  0  0  0  0  0  0  0  0
   10.2808  -13.7176   17.5048 O   0  0  0  0  0  0  0  0  0  0  0  0
    6.9382  -12.9163   19.7827 C   0  0  0  0  0  0  0  0  0  0  0  0
    8.3407  -13.3806   19.3979 C   0  0  2  0  0  0  0  0  0  0  0  0
    8.1883  -14.2884   18.3102 N   0  0  0  0  0  0  0  0  0  0  0  0
    9.0104  -13.9627   20.5722 C   0  0  0  0  0  0  0  0  0  0  0  0
    9.1442  -13.3285   21.6473 O   0  0  0  0  0  0  0  0  0  0  0  0
    9.5149  -15.2873   20.4638 N   0  0  0  0  0  0  0  0  0  0  0  0
   10.0573  -16.0072   21.6000 C   0  0  0  0  0  0  0  0  0  0  0  0
   11.5154  -16.0827   21.4720 C   0  0  0  0  0  0  0  0  0  0  0  0
   12.0731  -16.4226   20.3921 O   0  0  0  0  0  0  0  0  0  0  0  0
   12.3260  -15.7802   22.5436 O   0  0  0  0  0  0  0  0  0  0  0  0
  2  1  1  0
  3  2  2  0
  4  2  1  0
  5  4  1  0
  5  6  1  1
  7  5  1  0
  8  7  2  0
 10  9  1  1
 10 12  1  0
 10 11  1  0
 11  7  1  0
 12 13  2  0
 14 15  1  0
 14 12  1  0
 15 16  1  0
 16 17  2  0
 16 18  1  0
M  END
$$$$
