NAG.pdb
     RDKit          3D

 18 17  0  0  1  0  0  0  0  0999 V2000
    7.7810  -18.5095   16.0471 N   0  0  0  0  0  0  0  0  0  0  0  0
    8.2738  -17.2670   15.5750 C   0  0  0  0  0  0  0  0  0  0  0  0
    9.4936  -17.0921   15.3290 O   0  0  0  0  0  0  0  0  0  0  0  0
    7.3432  -16.1294   15.3583 C   0  0  0  0  0  0  0  0  0  0  0  0
    8.1185  -14.8579   15.0137 C   0  0  2  0  0  0  0  0  0  0  0  0
    9.2351  -15.1331   14.1600 N   0  0  0  0  0  0  0  0  0  0  0  0
    8.6025  -14.3063   16.2994 C   0  0  0  0  0  0  0  0  0  0  0  0
    9.8407  -14.1557   16.4487 O   0  0  0  0  0  0  0  0  0  0  0  0
    7.1001  -12.5529   19.1686 C   0  0  0  0  0  0  0  0  0  0  0  0
    8.2586  -13.2914   18.5030 C   0  0  2  0  0  0  0  0  0  0  0  0
    7.7229  -13.9465   17.3565 N   0  0  0  0  0  0  0  0  0  0  0  0
    8.8880  -14.2032   19.4719 C   0  0  0  0  0  0  0  0  0  0  0  0
    9.3921  -13.7922   20.5457 O   0  0  0  0  0  0  0  0  0  0  0  0
    8.9152  -15.5904   19.1621 N   0  0  0  0  0  0  0  0  0  0  0  0
    9.4356  -16.5819   20.0837 C   0  0  0  0  0  0  0  0  0  0  0  0
    9.3077  -17.9129   19.4835 C   0  0  0  0  0  0  0  0  0  0  0  0
    8.7995  -18.0829   18.3408 O   0  0  0  0  0  0  0  0  0  0  0  0
    9.7454  -19.0287   20.1618 O   0  0  0  0  0  0  0  0  0  0  0  0
  2  1  1  0
  3  2  2  0
  4  2  1  0
  5  4  1  0
  5  6  1  6
  7  5  1  0
  8  7  2  0
 10  9  1  1
 10 12  1  0
 10 11  1  0
 11  7  1  0
 12 13  2  0
 14 15  1  0
 14 12  1  0
 15 16  1  0
 16 17  2  0
 16 18  1  0
M  END
$$$$
