NAG.pdb
     RDKit          3D

 18 17  0  0  1  0  0  0  0  0999 V2000
   10.3760  -20.1282   19.1283 N   0  0  0  0  0  0  0  0  0  0  0  0
    9.9299  -19.1251   18.2315 C   0  0  0  0  0  0  0  0  0  0  0  0
    9.3653  -19.4141   17.1468 O   0  0  0  0  0  0  0  0  0  0  0  0
   10.1242  -17.6896   18.5618 C   0  0  0  0  0  0  0  0  0  0  0  0
    8.8447  -16.8976   18.2934 C   0  0  2  0  0  0  0  0  0  0  0  0
    8.6927  -16.5916   16.9025 N   0  0  0  0  0  0  0  0  0  0  0  0
    8.9653  -15.6408   19.0664 C   0  0  0  0  0  0  0  0  0  0  0  0
   10.1146  -15.2655   19.4079 O   0  0  0  0  0  0  0  0  0  0  0  0
    6.7235  -12.8942   20.1550 C   0  0  0  0  0  0  0  0  0  0  0  0
    8.0454  -13.6576   20.1730 C   0  0  2  0  0  0  0  0  0  0  0  0
    7.8377  -14.8555   19.4299 N   0  0  0  0  0  0  0  0  0  0  0  0
    8.4689  -13.8839   21.5644 C   0  0  0  0  0  0  0  0  0  0  0  0
    8.6697  -12.9370   22.3638 O   0  0  0  0  0  0  0  0  0  0  0  0
    8.6505  -15.2261   21.9963 N   0  0  0  0  0  0  0  0  0  0  0  0
    8.9951  -15.5617   23.3645 C   0  0  0  0  0  0  0  0  0  0  0  0
   10.3368  -16.1507   23.3938 C   0  0  0  0  0  0  0  0  0  0  0  0
   11.3648  -15.4828   23.0941 O   0  0  0  0  0  0  0  0  0  0  0  0
   10.5122  -17.4683   23.7546 O   0  0  0  0  0  0  0  0  0  0  0  0
  2  1  1  0
  3  2  2  0
  4  2  1  0
  5  4  1  0
  5  6  1  6
  7  5  1  0
  8  7  2  0
 10  9  1  1
 10 12  1  0
 10 11  1  0
 11  7  1  0
 12 13  2  0
 14 15  1  0
 14 12  1  0
 15 16  1  0
 16 17  2  0
 16 18  1  0
M  END
$$$$
