NAG.pdb
     RDKit          3D

 18 17  0  0  1  0  0  0  0  0999 V2000
    2.6758  -18.9806   22.5774 N   0  0  0  0  0  0  0  0  0  0  0  0
    3.4267  -18.5284   21.4633 C   0  0  0  0  0  0  0  0  0  0  0  0
    3.0530  -18.7470   20.2837 O   0  0  0  0  0  0  0  0  0  0  0  0
    4.6902  -17.7752   21.6719 C   0  0  0  0  0  0  0  0  0  0  0  0
    5.2446  -17.2743   20.3384 C   0  0  2  0  0  0  0  0  0  0  0  0
    5.5500  -18.3566   19.4513 N   0  0  0  0  0  0  0  0  0  0  0  0
    6.4844  -16.5311   20.6578 C   0  0  0  0  0  0  0  0  0  0  0  0
    7.5353  -17.1915   20.8522 O   0  0  0  0  0  0  0  0  0  0  0  0
    7.5263  -12.9719   20.9028 C   0  0  0  0  0  0  0  0  0  0  0  0
    7.7731  -14.4753   20.9999 C   0  0  2  0  0  0  0  0  0  0  0  0
    6.5236  -15.1132   20.7504 N   0  0  0  0  0  0  0  0  0  0  0  0
    8.3572  -14.7987   22.3117 C   0  0  0  0  0  0  0  0  0  0  0  0
    7.6571  -14.8928   23.3495 O   0  0  0  0  0  0  0  0  0  0  0  0
    9.7615  -15.0073   22.3834 N   0  0  0  0  0  0  0  0  0  0  0  0
   10.4525  -15.2158   23.6413 C   0  0  0  0  0  0  0  0  0  0  0  0
   10.9753  -16.5844   23.6837 C   0  0  0  0  0  0  0  0  0  0  0  0
   10.2338  -17.5875   23.4918 O   0  0  0  0  0  0  0  0  0  0  0  0
   12.3093  -16.8137   23.9380 O   0  0  0  0  0  0  0  0  0  0  0  0
  2  1  1  0
  3  2  2  0
  4  2  1  0
  5  4  1  0
  5  6  1  6
  7  5  1  0
  8  7  2  0
 10  9  1  1
 10 12  1  0
 10 11  1  0
 11  7  1  0
 12 13  2  0
 14 15  1  0
 14 12  1  0
 15 16  1  0
 16 17  2  0
 16 18  1  0
M  END
$$$$
