NAG.pdb
     RDKit          3D

 18 17  0  0  1  0  0  0  0  0999 V2000
    7.4888  -16.5018   13.5304 N   0  0  0  0  0  0  0  0  0  0  0  0
    7.2238  -17.1404   14.7680 C   0  0  0  0  0  0  0  0  0  0  0  0
    6.5794  -18.2174   14.8295 O   0  0  0  0  0  0  0  0  0  0  0  0
    7.7104  -16.5393   16.0365 C   0  0  0  0  0  0  0  0  0  0  0  0
    8.2042  -15.1119   15.8011 C   0  0  2  0  0  0  0  0  0  0  0  0
    9.1882  -15.0563   14.7619 N   0  0  0  0  0  0  0  0  0  0  0  0
    8.8066  -14.6659   17.0777 C   0  0  0  0  0  0  0  0  0  0  0  0
    9.9952  -14.9953   17.3167 O   0  0  0  0  0  0  0  0  0  0  0  0
    7.8394  -12.5375   19.9597 C   0  0  0  0  0  0  0  0  0  0  0  0
    8.7175  -13.5802   19.2725 C   0  0  2  0  0  0  0  0  0  0  0  0
    8.0931  -13.8873   18.0291 N   0  0  0  0  0  0  0  0  0  0  0  0
    8.8909  -14.7438   20.1571 C   0  0  0  0  0  0  0  0  0  0  0  0
    7.9986  -15.6159   20.2960 O   0  0  0  0  0  0  0  0  0  0  0  0
   10.1161  -14.8646   20.8678 N   0  0  0  0  0  0  0  0  0  0  0  0
   10.3919  -15.9769   21.7566 C   0  0  0  0  0  0  0  0  0  0  0  0
   11.6935  -15.7709   22.3980 C   0  0  0  0  0  0  0  0  0  0  0  0
   12.4594  -14.8252   22.0635 O   0  0  0  0  0  0  0  0  0  0  0  0
   12.1202  -16.6173   23.3973 O   0  0  0  0  0  0  0  0  0  0  0  0
  2  1  1  0
  3  2  2  0
  4  2  1  0
  5  4  1  0
  5  6  1  6
  7  5  1  0
  8  7  2  0
 10  9  1  1
 10 12  1  0
 10 11  1  0
 11  7  1  0
 12 13  2  0
 14 15  1  0
 14 12  1  0
 15 16  1  0
 16 17  2  0
 16 18  1  0
M  END
$$$$
