NAG.pdb
     RDKit          3D

 18 17  0  0  1  0  0  0  0  0999 V2000
    5.0039  -19.5388   18.0858 N   0  0  0  0  0  0  0  0  0  0  0  0
    6.0748  -18.9282   17.3860 C   0  0  0  0  0  0  0  0  0  0  0  0
    6.1598  -18.9820   16.1335 O   0  0  0  0  0  0  0  0  0  0  0  0
    7.1345  -18.2011   18.1315 C   0  0  0  0  0  0  0  0  0  0  0  0
    7.4043  -16.8391   17.4923 C   0  0  2  0  0  0  0  0  0  0  0  0
    8.2091  -16.9570   16.3134 N   0  0  0  0  0  0  0  0  0  0  0  0
    8.1275  -16.0406   18.5077 C   0  0  0  0  0  0  0  0  0  0  0  0
    9.2559  -16.4455   18.8833 O   0  0  0  0  0  0  0  0  0  0  0  0
    7.6233  -12.8410   20.3251 C   0  0  0  0  0  0  0  0  0  0  0  0
    8.3332  -14.1693   20.0760 C   0  0  2  0  0  0  0  0  0  0  0  0
    7.5935  -14.8465   19.0638 N   0  0  0  0  0  0  0  0  0  0  0  0
    8.4418  -14.9184   21.3384 C   0  0  0  0  0  0  0  0  0  0  0  0
    7.4340  -15.3677   21.9372 O   0  0  0  0  0  0  0  0  0  0  0  0
    9.7393  -15.1287   21.8798 N   0  0  0  0  0  0  0  0  0  0  0  0
    9.9515  -15.7823   23.1569 C   0  0  0  0  0  0  0  0  0  0  0  0
   11.3748  -15.7193   23.5008 C   0  0  0  0  0  0  0  0  0  0  0  0
   12.2388  -15.2893   22.6875 O   0  0  0  0  0  0  0  0  0  0  0  0
   11.8119  -16.1341   24.7392 O   0  0  0  0  0  0  0  0  0  0  0  0
  2  1  1  0
  3  2  2  0
  4  2  1  0
  5  4  1  0
  5  6  1  6
  7  5  1  0
  8  7  2  0
 10  9  1  1
 10 12  1  0
 10 11  1  0
 11  7  1  0
 12 13  2  0
 14 15  1  0
 14 12  1  0
 15 16  1  0
 16 17  2  0
 16 18  1  0
M  END
$$$$
