NAG.pdb
     RDKit          3D

 18 17  0  0  1  0  0  0  0  0999 V2000
    9.7352  -18.8612   14.2365 N   0  0  0  0  0  0  0  0  0  0  0  0
    8.8097  -18.2442   15.1153 C   0  0  0  0  0  0  0  0  0  0  0  0
    7.5703  -18.4068   14.9877 O   0  0  0  0  0  0  0  0  0  0  0  0
    9.2947  -17.3796   16.2219 C   0  0  0  0  0  0  0  0  0  0  0  0
    8.1961  -16.4178   16.6743 C   0  0  2  0  0  0  0  0  0  0  0  0
    7.8259  -15.5080   15.6319 N   0  0  0  0  0  0  0  0  0  0  0  0
    8.7536  -15.6602   17.8176 C   0  0  0  0  0  0  0  0  0  0  0  0
    9.9379  -15.8981   18.1625 O   0  0  0  0  0  0  0  0  0  0  0  0
    7.6002  -13.0229   20.1679 C   0  0  0  0  0  0  0  0  0  0  0  0
    8.5464  -14.1359   19.7248 C   0  0  2  0  0  0  0  0  0  0  0  0
    8.0018  -14.6853   18.5282 N   0  0  0  0  0  0  0  0  0  0  0  0
    8.7055  -15.1145   20.8127 C   0  0  0  0  0  0  0  0  0  0  0  0
    7.7820  -15.8959   21.1484 O   0  0  0  0  0  0  0  0  0  0  0  0
    9.9534  -15.1595   21.4921 N   0  0  0  0  0  0  0  0  0  0  0  0
   10.2120  -16.0820   22.5809 C   0  0  0  0  0  0  0  0  0  0  0  0
   11.5283  -15.7923   23.1566 C   0  0  0  0  0  0  0  0  0  0  0  0
   12.3188  -14.9621   22.6286 O   0  0  0  0  0  0  0  0  0  0  0  0
   11.9420  -16.4284   24.3060 O   0  0  0  0  0  0  0  0  0  0  0  0
  2  1  1  0
  3  2  2  0
  4  2  1  0
  5  4  1  0
  5  6  1  6
  7  5  1  0
  8  7  2  0
 10  9  1  1
 10 12  1  0
 10 11  1  0
 11  7  1  0
 12 13  2  0
 14 15  1  0
 14 12  1  0
 15 16  1  0
 16 17  2  0
 16 18  1  0
M  END
$$$$
