MAN.pdb
     RDKit          3D

 22 21  0  0  1  0  0  0  0  0999 V2000
    7.7842  -11.5693   20.4452 C   0  0  0  0  0  0  0  0  0  0  0  0
    6.8720  -12.6793   19.3443 S   0  0  0  0  0  0  0  0  0  0  0  0
    7.4190  -14.3859   19.4630 C   0  0  0  0  0  0  0  0  0  0  0  0
    8.1206  -14.6133   20.7786 C   0  0  0  0  0  0  0  0  0  0  0  0
    8.5407  -16.0672   20.9545 C   0  0  2  0  0  0  0  0  0  0  0  0
    7.7038  -16.9922   20.2467 N   0  0  0  0  0  0  0  0  0  0  0  0
    8.4765  -16.3139   22.4319 C   0  0  0  0  0  0  0  0  0  0  0  0
    9.1802  -15.6479   23.2217 O   0  0  0  0  0  0  0  0  0  0  0  0
    6.5072  -18.6363   24.7294 C   0  0  0  0  0  0  0  0  0  0  0  0
    7.6446  -17.6624   24.3793 C   0  0  2  0  0  0  0  0  0  0  0  0
    7.6148  -17.3102   22.9870 N   0  0  0  0  0  0  0  0  0  0  0  0
    8.8833  -18.3684   24.7687 C   0  0  0  0  0  0  0  0  0  0  0  0
    8.9943  -19.6161   24.4992 O   0  0  0  0  0  0  0  0  0  0  0  0
   12.4420  -15.9310   23.6511 N   0  0  0  0  0  0  0  0  0  0  0  0
   12.5266  -17.2262   24.2083 C   0  0  0  0  0  0  0  0  0  0  0  0
   12.8067  -18.2075   23.4728 O   0  0  0  0  0  0  0  0  0  0  0  0
   12.2899  -17.4536   25.6406 C   0  0  0  0  0  0  0  0  0  0  0  0
   11.1685  -18.4869   25.8770 C   0  0  2  0  0  0  0  0  0  0  0  0
    9.9714  -17.7875   25.4161 N   0  0  0  0  0  0  0  0  0  0  0  0
   11.1313  -18.6884   27.3491 C   0  0  0  0  0  0  0  0  0  0  0  0
   12.1973  -19.4010   27.9114 O   0  0  0  0  0  0  0  0  0  0  0  0
   10.2062  -18.2545   28.0758 O   0  0  0  0  0  0  0  0  0  0  0  0
  1  2  1  0
  3  2  1  0
  4  3  1  0
  5  4  1  0
  5  6  1  6
  7  5  1  0
  7 11  1  0
  8  7  2  0
 10  9  1  6
 10 11  1  0
 10 12  1  0
 12 13  2  0
 12 19  1  0
 15 14  1  0
 16 15  2  0
 17 15  1  0
 18 20  1  0
 18 17  1  1
 19 18  1  0
 20 21  1  0
 22 20  2  0
M  END
$$$$
