MAN.pdb
     RDKit          3D

 22 21  0  0  1  0  0  0  0  0999 V2000
    6.2292  -10.7676   26.2595 C   0  0  0  0  0  0  0  0  0  0  0  0
    5.1675  -12.2028   25.9604 S   0  0  0  0  0  0  0  0  0  0  0  0
    6.0636  -13.7583   26.0155 C   0  0  0  0  0  0  0  0  0  0  0  0
    6.6838  -14.0453   24.6709 C   0  0  0  0  0  0  0  0  0  0  0  0
    7.5446  -15.3020   24.6989 C   0  0  2  0  0  0  0  0  0  0  0  0
    6.9609  -16.3765   25.4486 N   0  0  0  0  0  0  0  0  0  0  0  0
    8.8432  -14.8695   25.3110 C   0  0  0  0  0  0  0  0  0  0  0  0
    9.6379  -14.1432   24.6759 O   0  0  0  0  0  0  0  0  0  0  0  0
   10.4015  -14.6026   28.6755 C   0  0  0  0  0  0  0  0  0  0  0  0
   10.5084  -14.9735   27.1869 C   0  0  2  0  0  0  0  0  0  0  0  0
    9.2164  -15.2675   26.6322 N   0  0  0  0  0  0  0  0  0  0  0  0
   11.4287  -16.1294   27.1480 C   0  0  0  0  0  0  0  0  0  0  0  0
   12.3722  -16.1976   28.0122 O   0  0  0  0  0  0  0  0  0  0  0  0
   10.8976  -19.1511   28.4292 N   0  0  0  0  0  0  0  0  0  0  0  0
   10.5734  -19.7820   27.2077 C   0  0  0  0  0  0  0  0  0  0  0  0
    9.6057  -20.5841   27.1544 O   0  0  0  0  0  0  0  0  0  0  0  0
   11.3507  -19.5209   25.9884 C   0  0  0  0  0  0  0  0  0  0  0  0
   12.2891  -18.3077   26.1584 C   0  0  2  0  0  0  0  0  0  0  0  0
   11.3624  -17.1808   26.2366 N   0  0  0  0  0  0  0  0  0  0  0  0
   13.0843  -18.2541   24.9039 C   0  0  0  0  0  0  0  0  0  0  0  0
   14.0267  -19.2723   24.7152 O   0  0  0  0  0  0  0  0  0  0  0  0
   12.9411  -17.3560   24.0409 O   0  0  0  0  0  0  0  0  0  0  0  0
  1  2  1  0
  3  2  1  0
  4  3  1  0
  5  4  1  0
  5  6  1  1
  7  5  1  0
  7 11  1  0
  8  7  2  0
 10  9  1  1
 10 11  1  0
 10 12  1  0
 12 13  2  0
 12 19  1  0
 15 14  1  0
 16 15  2  0
 17 15  1  0
 18 20  1  0
 18 17  1  6
 19 18  1  0
 20 21  1  0
 22 20  2  0
M  END
$$$$
