MAN.pdb
     RDKit          3D

 22 21  0  0  1  0  0  0  0  0999 V2000
    9.9549  -12.7142   28.1618 C   0  0  0  0  0  0  0  0  0  0  0  0
   10.3856  -14.4633   27.9850 S   0  0  0  0  0  0  0  0  0  0  0  0
    8.9666  -15.4975   27.6074 C   0  0  0  0  0  0  0  0  0  0  0  0
    8.6990  -15.4859   26.1230 C   0  0  0  0  0  0  0  0  0  0  0  0
    7.4270  -16.2461   25.7691 C   0  0  2  0  0  0  0  0  0  0  0  0
    7.3561  -17.5484   26.3660 N   0  0  0  0  0  0  0  0  0  0  0  0
    7.4378  -16.3457   24.2732 C   0  0  0  0  0  0  0  0  0  0  0  0
    7.5898  -17.4501   23.7078 O   0  0  0  0  0  0  0  0  0  0  0  0
    7.0296  -13.8893   21.3804 C   0  0  0  0  0  0  0  0  0  0  0  0
    7.3059  -15.2642   22.0114 C   0  0  2  0  0  0  0  0  0  0  0  0
    7.2748  -15.1916   23.4456 N   0  0  0  0  0  0  0  0  0  0  0  0
    8.6264  -15.6667   21.4834 C   0  0  0  0  0  0  0  0  0  0  0  0
    8.7263  -15.9860   20.2465 O   0  0  0  0  0  0  0  0  0  0  0  0
   13.6420  -16.6174   20.7236 N   0  0  0  0  0  0  0  0  0  0  0  0
   13.1481  -15.2941   20.7247 C   0  0  0  0  0  0  0  0  0  0  0  0
   13.8537  -14.3616   20.2608 O   0  0  0  0  0  0  0  0  0  0  0  0
   11.8173  -14.9807   21.2631 C   0  0  0  0  0  0  0  0  0  0  0  0
   11.0868  -16.2484   21.7536 C   0  0  2  0  0  0  0  0  0  0  0  0
    9.8043  -15.7302   22.2243 N   0  0  0  0  0  0  0  0  0  0  0  0
   11.9039  -16.7521   22.8883 C   0  0  0  0  0  0  0  0  0  0  0  0
   13.0828  -17.4318   22.5587 O   0  0  0  0  0  0  0  0  0  0  0  0
   11.5799  -16.5917   24.0889 O   0  0  0  0  0  0  0  0  0  0  0  0
  1  2  1  0
  3  2  1  0
  4  3  1  0
  5  4  1  0
  5  6  1  1
  7  5  1  0
  7 11  1  0
  8  7  2  0
 10  9  1  6
 10 11  1  0
 10 12  1  0
 12 13  2  0
 12 19  1  0
 15 14  1  0
 16 15  2  0
 17 15  1  0
 18 20  1  0
 18 17  1  1
 19 18  1  0
 20 21  1  0
 22 20  2  0
M  END
$$$$
