MAN.pdb
     RDKit          3D

 22 21  0  0  1  0  0  0  0  0999 V2000
    6.8818  -10.3952   26.9098 C   0  0  0  0  0  0  0  0  0  0  0  0
    5.6455  -11.6781   26.5902 S   0  0  0  0  0  0  0  0  0  0  0  0
    6.2180  -13.3239   27.0252 C   0  0  0  0  0  0  0  0  0  0  0  0
    6.4439  -14.1393   25.7766 C   0  0  0  0  0  0  0  0  0  0  0  0
    7.7653  -14.8962   25.8237 C   0  0  2  0  0  0  0  0  0  0  0  0
    8.9144  -14.0379   25.8247 N   0  0  0  0  0  0  0  0  0  0  0  0
    7.7552  -15.7711   24.6061 C   0  0  0  0  0  0  0  0  0  0  0  0
    6.9371  -16.7104   24.5015 O   0  0  0  0  0  0  0  0  0  0  0  0
    9.1261  -15.8597   21.1357 C   0  0  0  0  0  0  0  0  0  0  0  0
    8.8709  -16.5382   22.4920 C   0  0  2  0  0  0  0  0  0  0  0  0
    8.6720  -15.5644   23.5291 N   0  0  0  0  0  0  0  0  0  0  0  0
   10.0574  -17.3893   22.7208 C   0  0  0  0  0  0  0  0  0  0  0  0
   10.2766  -18.3705   21.9264 O   0  0  0  0  0  0  0  0  0  0  0  0
   13.3044  -14.9398   22.9063 N   0  0  0  0  0  0  0  0  0  0  0  0
   13.5266  -16.3340   22.9518 C   0  0  0  0  0  0  0  0  0  0  0  0
   13.9280  -16.9383   21.9240 O   0  0  0  0  0  0  0  0  0  0  0  0
   13.2945  -17.1001   24.1840 C   0  0  0  0  0  0  0  0  0  0  0  0
   12.1223  -18.0914   24.0277 C   0  0  2  0  0  0  0  0  0  0  0  0
   10.9855  -17.2180   23.7453 N   0  0  0  0  0  0  0  0  0  0  0  0
   11.9786  -18.7348   25.3598 C   0  0  0  0  0  0  0  0  0  0  0  0
   13.0238  -19.5727   25.7672 O   0  0  0  0  0  0  0  0  0  0  0  0
   10.9844  -18.5556   26.1025 O   0  0  0  0  0  0  0  0  0  0  0  0
  1  2  1  0
  3  2  1  0
  4  3  1  0
  5  4  1  0
  5  6  1  6
  7  5  1  0
  7 11  1  0
  8  7  2  0
 10  9  1  6
 10 11  1  0
 10 12  1  0
 12 13  2  0
 12 19  1  0
 15 14  1  0
 16 15  2  0
 17 15  1  0
 18 20  1  0
 18 17  1  1
 19 18  1  0
 20 21  1  0
 22 20  2  0
M  END
$$$$
