MAN.pdb
     RDKit          3D

 22 21  0  0  1  0  0  0  0  0999 V2000
    7.7138  -11.5391   19.4579 C   0  0  0  0  0  0  0  0  0  0  0  0
    6.7531  -12.9605   18.8810 S   0  0  0  0  0  0  0  0  0  0  0  0
    7.4305  -14.5307   19.4298 C   0  0  0  0  0  0  0  0  0  0  0  0
    8.7206  -14.8191   18.7035 C   0  0  0  0  0  0  0  0  0  0  0  0
    9.3586  -16.1203   19.1736 C   0  0  2  0  0  0  0  0  0  0  0  0
    8.4277  -17.2063   19.2790 N   0  0  0  0  0  0  0  0  0  0  0  0
    9.9556  -15.7990   20.5108 C   0  0  0  0  0  0  0  0  0  0  0  0
   11.0290  -15.1638   20.5949 O   0  0  0  0  0  0  0  0  0  0  0  0
    8.9590  -16.3248   24.1516 C   0  0  0  0  0  0  0  0  0  0  0  0
    9.9467  -16.0275   23.0109 C   0  0  2  0  0  0  0  0  0  0  0  0
    9.3244  -16.2027   21.7281 N   0  0  0  0  0  0  0  0  0  0  0  0
   11.0762  -16.9541   23.2346 C   0  0  0  0  0  0  0  0  0  0  0  0
   10.9279  -18.1921   22.9394 O   0  0  0  0  0  0  0  0  0  0  0  0
   15.0144  -14.8657   22.1305 N   0  0  0  0  0  0  0  0  0  0  0  0
   14.8491  -16.2248   22.4781 C   0  0  0  0  0  0  0  0  0  0  0  0
   14.8517  -17.1059   21.5802 O   0  0  0  0  0  0  0  0  0  0  0  0
   14.6703  -16.6341   23.8779 C   0  0  0  0  0  0  0  0  0  0  0  0
   13.4152  -17.5133   24.0599 C   0  0  2  0  0  0  0  0  0  0  0  0
   12.3210  -16.5967   23.7477 N   0  0  0  0  0  0  0  0  0  0  0  0
   13.4048  -17.8806   25.5000 C   0  0  0  0  0  0  0  0  0  0  0  0
   12.4081  -17.2940   26.2893 O   0  0  0  0  0  0  0  0  0  0  0  0
   14.2328  -18.6718   26.0103 O   0  0  0  0  0  0  0  0  0  0  0  0
  1  2  1  0
  3  2  1  0
  4  3  1  0
  5  4  1  0
  5  6  1  1
  7  5  1  0
  7 11  1  0
  8  7  2  0
 10  9  1  1
 10 11  1  0
 10 12  1  0
 12 13  2  0
 12 19  1  0
 15 14  1  0
 16 15  2  0
 17 15  1  0
 18 20  1  0
 18 17  1  1
 19 18  1  0
 20 21  1  0
 22 20  2  0
M  END
$$$$
