MAN.pdb
     RDKit          3D

 22 21  0  0  1  0  0  0  0  0999 V2000
    8.3148  -11.9101   26.8955 C   0  0  0  0  0  0  0  0  0  0  0  0
    6.5280  -12.0083   26.6240 S   0  0  0  0  0  0  0  0  0  0  0  0
    6.0207  -13.5544   25.8637 C   0  0  0  0  0  0  0  0  0  0  0  0
    7.2340  -14.3574   25.4662 C   0  0  0  0  0  0  0  0  0  0  0  0
    6.8518  -15.6558   24.7668 C   0  0  2  0  0  0  0  0  0  0  0  0
    6.1838  -16.5907   25.6252 N   0  0  0  0  0  0  0  0  0  0  0  0
    8.1465  -16.2230   24.2667 C   0  0  0  0  0  0  0  0  0  0  0  0
    8.6637  -17.2177   24.8195 O   0  0  0  0  0  0  0  0  0  0  0  0
   10.3073  -15.6129   21.1892 C   0  0  0  0  0  0  0  0  0  0  0  0
    9.9394  -16.3067   22.5114 C   0  0  2  0  0  0  0  0  0  0  0  0
    8.8303  -15.6529   23.1484 N   0  0  0  0  0  0  0  0  0  0  0  0
   11.1756  -16.2637   23.3204 C   0  0  0  0  0  0  0  0  0  0  0  0
   12.2261  -16.8468   22.8752 O   0  0  0  0  0  0  0  0  0  0  0  0
   12.7694  -17.3262   28.6123 N   0  0  0  0  0  0  0  0  0  0  0  0
   11.9467  -16.8288   27.5774 C   0  0  0  0  0  0  0  0  0  0  0  0
   10.8922  -16.2041   27.8608 O   0  0  0  0  0  0  0  0  0  0  0  0
   12.2985  -17.0295   26.1649 C   0  0  0  0  0  0  0  0  0  0  0  0
   12.4799  -15.6874   25.4254 C   0  0  2  0  0  0  0  0  0  0  0  0
   11.3092  -15.6291   24.5532 N   0  0  0  0  0  0  0  0  0  0  0  0
   13.7257  -15.8480   24.6308 C   0  0  0  0  0  0  0  0  0  0  0  0
   13.5972  -16.4685   23.3823 O   0  0  0  0  0  0  0  0  0  0  0  0
   14.8479  -15.4581   25.0317 O   0  0  0  0  0  0  0  0  0  0  0  0
  1  2  1  0
  3  2  1  0
  4  3  1  0
  5  4  1  0
  5  6  1  1
  7  5  1  0
  7 11  1  0
  8  7  2  0
 10  9  1  6
 10 11  1  0
 10 12  1  0
 12 13  2  0
 12 19  1  0
 15 14  1  0
 16 15  2  0
 17 15  1  0
 18 20  1  0
 18 17  1  1
 19 18  1  0
 20 21  1  0
 22 20  2  0
M  END
$$$$
