MAN.pdb
     RDKit          3D

 22 21  0  0  1  0  0  0  0  0999 V2000
    7.3257  -11.1458   26.4643 C   0  0  0  0  0  0  0  0  0  0  0  0
    8.1371  -12.6707   27.0052 S   0  0  0  0  0  0  0  0  0  0  0  0
    7.2959  -14.1507   26.4325 C   0  0  0  0  0  0  0  0  0  0  0  0
    7.6084  -14.3921   24.9768 C   0  0  0  0  0  0  0  0  0  0  0  0
    6.8376  -15.5826   24.4203 C   0  0  2  0  0  0  0  0  0  0  0  0
    7.1019  -16.8087   25.1159 N   0  0  0  0  0  0  0  0  0  0  0  0
    7.2607  -15.6825   22.9853 C   0  0  0  0  0  0  0  0  0  0  0  0
    7.6976  -16.7580   22.5218 O   0  0  0  0  0  0  0  0  0  0  0  0
    7.3490  -13.2984   20.0051 C   0  0  0  0  0  0  0  0  0  0  0  0
    7.5187  -14.6549   20.7093 C   0  0  2  0  0  0  0  0  0  0  0  0
    7.1797  -14.5615   22.1020 N   0  0  0  0  0  0  0  0  0  0  0  0
    8.9313  -15.0265   20.4838 C   0  0  0  0  0  0  0  0  0  0  0  0
    9.3276  -15.2518   19.2863 O   0  0  0  0  0  0  0  0  0  0  0  0
   13.3178  -13.7392   19.0543 N   0  0  0  0  0  0  0  0  0  0  0  0
   13.2438  -14.2814   20.3565 C   0  0  0  0  0  0  0  0  0  0  0  0
   14.2424  -14.8669   20.8491 O   0  0  0  0  0  0  0  0  0  0  0  0
   12.0138  -14.1771   21.1537 C   0  0  0  0  0  0  0  0  0  0  0  0
   11.2939  -15.5367   21.2731 C   0  0  2  0  0  0  0  0  0  0  0  0
    9.8984  -15.1554   21.4782 N   0  0  0  0  0  0  0  0  0  0  0  0
   11.8565  -16.1672   22.4958 C   0  0  0  0  0  0  0  0  0  0  0  0
   13.0884  -16.8176   22.3555 O   0  0  0  0  0  0  0  0  0  0  0  0
   11.2807  -16.1347   23.6091 O   0  0  0  0  0  0  0  0  0  0  0  0
  1  2  1  0
  3  2  1  0
  4  3  1  0
  5  4  1  0
  5  6  1  1
  7  5  1  0
  7 11  1  0
  8  7  2  0
 10  9  1  6
 10 11  1  0
 10 12  1  0
 12 13  2  0
 12 19  1  0
 15 14  1  0
 16 15  2  0
 17 15  1  0
 18 20  1  0
 18 17  1  1
 19 18  1  0
 20 21  1  0
 22 20  2  0
M  END
$$$$
