MAN.pdb
     RDKit          3D

 22 21  0  0  1  0  0  0  0  0999 V2000
    6.5566  -11.5409   18.9409 C   0  0  0  0  0  0  0  0  0  0  0  0
    7.7099  -12.8295   19.4753 S   0  0  0  0  0  0  0  0  0  0  0  0
    6.8799  -14.3057   20.0734 C   0  0  0  0  0  0  0  0  0  0  0  0
    7.8916  -15.2822   20.6192 C   0  0  0  0  0  0  0  0  0  0  0  0
    8.0627  -16.4914   19.7084 C   0  0  2  0  0  0  0  0  0  0  0  0
    6.9258  -17.3658   19.7019 N   0  0  0  0  0  0  0  0  0  0  0  0
    9.2770  -17.2005   20.2285 C   0  0  0  0  0  0  0  0  0  0  0  0
    9.6702  -17.0174   21.4009 O   0  0  0  0  0  0  0  0  0  0  0  0
   11.6772  -19.8473   18.9126 C   0  0  0  0  0  0  0  0  0  0  0  0
   11.2488  -18.7083   19.8528 C   0  0  2  0  0  0  0  0  0  0  0  0
   10.0226  -18.1050   19.4104 N   0  0  0  0  0  0  0  0  0  0  0  0
   12.3875  -17.7660   19.8522 C   0  0  0  0  0  0  0  0  0  0  0  0
   12.8414  -17.3457   18.7301 O   0  0  0  0  0  0  0  0  0  0  0  0
   12.1180  -13.9957   19.4196 N   0  0  0  0  0  0  0  0  0  0  0  0
   13.4013  -14.4947   19.7348 C   0  0  0  0  0  0  0  0  0  0  0  0
   14.3066  -14.4913   18.8614 O   0  0  0  0  0  0  0  0  0  0  0  0
   13.7028  -15.0242   21.0718 C   0  0  0  0  0  0  0  0  0  0  0  0
   14.2447  -16.4676   21.0055 C   0  0  2  0  0  0  0  0  0  0  0  0
   13.0286  -17.2773   20.9883 N   0  0  0  0  0  0  0  0  0  0  0  0
   14.9919  -16.6598   22.2758 C   0  0  0  0  0  0  0  0  0  0  0  0
   16.2737  -16.1002   22.3399 O   0  0  0  0  0  0  0  0  0  0  0  0
   14.5246  -17.2861   23.2563 O   0  0  0  0  0  0  0  0  0  0  0  0
  1  2  1  0
  3  2  1  0
  4  3  1  0
  5  4  1  0
  5  6  1  1
  7  5  1  0
  7 11  1  0
  8  7  2  0
 10  9  1  6
 10 11  1  0
 10 12  1  0
 12 13  2  0
 12 19  1  0
 15 14  1  0
 16 15  2  0
 17 15  1  0
 18 20  1  0
 18 17  1  1
 19 18  1  0
 20 21  1  0
 22 20  2  0
M  END
$$$$
