GAI.pdb
     RDKit          3D

 18 17  0  0  1  0  0  0  0  0999 V2000
   16.2897  -14.1573  -16.4287 N   0  0  0  0  0  0  0  0  0  0  0  0
   15.7224  -12.8722  -16.0631 C   0  0  0  0  0  0  0  0  0  0  0  0
   16.7504  -11.8280  -16.3683 C   0  0  0  0  0  0  0  0  0  0  0  0
   17.9582  -12.1314  -16.6149 O   0  0  0  0  0  0  0  0  0  0  0  0
   16.7939   -8.0776  -16.9615 C   0  0  0  0  0  0  0  0  0  0  0  0
   17.4040   -9.4284  -16.7185 C   0  0  2  0  0  0  0  0  0  0  0  0
   16.4318  -10.4441  -16.3988 N   0  0  0  0  0  0  0  0  0  0  0  0
   18.4441   -9.2885  -15.6697 C   0  0  0  0  0  0  0  0  0  0  0  0
   18.0698   -9.4495  -14.4795 O   0  0  0  0  0  0  0  0  0  0  0  0
   24.0572  -11.0244  -14.3867 C   0  0  0  0  0  0  0  0  0  0  0  0
   22.9853  -10.0462  -14.1173 C   0  0  0  0  0  0  0  0  0  0  0  0
   21.9111   -9.8472  -15.1207 C   0  0  2  0  0  0  0  0  0  0  0  0
   22.5124   -9.6994  -16.5257 C   0  0  0  0  0  0  0  0  0  0  0  0
   20.8267   -8.8859  -14.8751 C   0  0  2  0  0  0  0  0  0  0  0  0
   19.7869   -8.9949  -15.9158 N   0  0  0  0  0  0  0  0  0  0  0  0
   21.1137   -7.4801  -14.6484 C   0  0  0  0  0  0  0  0  0  0  0  0
   21.6077   -7.1582  -13.4996 O   0  0  0  0  0  0  0  0  0  0  0  0
   20.9456   -6.4027  -15.4812 O   0  0  0  0  0  0  0  0  0  0  0  0
  1  2  1  0
  3  4  2  0
  3  2  1  0
  6  7  1  0
  6  5  1  1
  7  3  1  0
  8  6  1  0
  9  8  2  0
 10 11  1  0
 11 12  1  0
 12 14  1  0
 12 13  1  6
 14 16  1  0
 14 15  1  6
 15  8  1  0
 16 18  1  0
 17 16  2  0
M  END
$$$$
