GAI.pdb
     RDKit          3D

 18 17  0  0  1  0  0  0  0  0999 V2000
   19.3470  -17.8252  -14.6894 N   0  0  0  0  0  0  0  0  0  0  0  0
   20.3711  -18.3642  -15.5656 C   0  0  0  0  0  0  0  0  0  0  0  0
   21.1969  -19.3136  -14.7551 C   0  0  0  0  0  0  0  0  0  0  0  0
   21.2768  -19.2188  -13.4916 O   0  0  0  0  0  0  0  0  0  0  0  0
   23.0379  -22.5676  -15.3406 C   0  0  0  0  0  0  0  0  0  0  0  0
   22.7069  -21.3132  -14.5838 C   0  0  2  0  0  0  0  0  0  0  0  0
   21.9343  -20.3699  -15.3535 N   0  0  0  0  0  0  0  0  0  0  0  0
   23.9717  -20.7285  -14.0742 C   0  0  0  0  0  0  0  0  0  0  0  0
   24.4363  -19.7479  -14.7109 O   0  0  0  0  0  0  0  0  0  0  0  0
   25.2025  -21.0051   -8.6487 C   0  0  0  0  0  0  0  0  0  0  0  0
   25.0775  -20.5427  -10.0448 C   0  0  0  0  0  0  0  0  0  0  0  0
   26.1180  -20.9186  -11.0330 C   0  0  2  0  0  0  0  0  0  0  0  0
   27.5087  -20.5094  -10.5271 C   0  0  0  0  0  0  0  0  0  0  0  0
   25.9355  -20.6223  -12.4610 C   0  0  2  0  0  0  0  0  0  0  0  0
   24.6660  -21.1892  -12.9536 N   0  0  0  0  0  0  0  0  0  0  0  0
   26.9826  -20.9178  -13.4235 C   0  0  0  0  0  0  0  0  0  0  0  0
   27.8121  -19.9678  -13.7007 O   0  0  0  0  0  0  0  0  0  0  0  0
   27.2478  -22.0781  -14.1060 O   0  0  0  0  0  0  0  0  0  0  0  0
  1  2  1  0
  3  4  2  0
  3  2  1  0
  6  7  1  0
  6  5  1  6
  7  3  1  0
  8  6  1  0
  9  8  2  0
 10 11  1  0
 11 12  1  0
 12 14  1  0
 12 13  1  1
 14 16  1  0
 14 15  1  6
 15  8  1  0
 16 18  1  0
 17 16  2  0
M  END
$$$$
