GAI.pdb
     RDKit          3D

 18 17  0  0  1  0  0  0  0  0999 V2000
   28.4994  -17.5733  -15.5223 N   0  0  0  0  0  0  0  0  0  0  0  0
   28.0184  -18.9307  -15.3396 C   0  0  0  0  0  0  0  0  0  0  0  0
   27.1474  -18.9349  -14.1224 C   0  0  0  0  0  0  0  0  0  0  0  0
   27.4680  -18.3026  -13.0692 O   0  0  0  0  0  0  0  0  0  0  0  0
   23.6150  -20.0084  -13.2961 C   0  0  0  0  0  0  0  0  0  0  0  0
   25.0090  -19.5596  -12.9627 C   0  0  2  0  0  0  0  0  0  0  0  0
   25.9178  -19.6447  -14.0789 N   0  0  0  0  0  0  0  0  0  0  0  0
   25.4796  -20.3336  -11.7877 C   0  0  0  0  0  0  0  0  0  0  0  0
   26.0215  -21.4440  -12.0244 O   0  0  0  0  0  0  0  0  0  0  0  0
   29.0978  -19.6741   -7.4893 C   0  0  0  0  0  0  0  0  0  0  0  0
   28.0856  -20.5189   -8.1529 C   0  0  0  0  0  0  0  0  0  0  0  0
   26.7582  -19.9440   -8.4812 C   0  0  2  0  0  0  0  0  0  0  0  0
   26.1139  -19.3356   -7.2274 C   0  0  0  0  0  0  0  0  0  0  0  0
   25.7939  -20.7024   -9.2906 C   0  0  2  0  0  0  0  0  0  0  0  0
   25.3612  -19.9153  -10.4607 N   0  0  0  0  0  0  0  0  0  0  0  0
   24.6247  -21.3117   -8.6807 C   0  0  0  0  0  0  0  0  0  0  0  0
   24.8330  -22.1851   -7.7526 O   0  0  0  0  0  0  0  0  0  0  0  0
   23.2921  -21.1031   -8.9320 O   0  0  0  0  0  0  0  0  0  0  0  0
  1  2  1  0
  3  4  2  0
  3  2  1  0
  6  7  1  0
  6  5  1  6
  7  3  1  0
  8  6  1  0
  9  8  2  0
 10 11  1  0
 11 12  1  0
 12 14  1  0
 12 13  1  1
 14 16  1  0
 14 15  1  6
 15  8  1  0
 16 18  1  0
 17 16  2  0
M  END
$$$$
