GAI.pdb
     RDKit          3D

 18 17  0  0  1  0  0  0  0  0999 V2000
   18.6646  -14.3719  -19.0021 N   0  0  0  0  0  0  0  0  0  0  0  0
   17.9706  -13.1184  -19.2353 C   0  0  0  0  0  0  0  0  0  0  0  0
   18.9258  -12.0128  -18.9104 C   0  0  0  0  0  0  0  0  0  0  0  0
   20.0703  -12.2436  -18.4116 O   0  0  0  0  0  0  0  0  0  0  0  0
   19.1028   -8.2607  -19.4560 C   0  0  0  0  0  0  0  0  0  0  0  0
   19.5265   -9.5746  -18.8644 C   0  0  2  0  0  0  0  0  0  0  0  0
   18.6052  -10.6486  -19.1418 N   0  0  0  0  0  0  0  0  0  0  0  0
   19.7506   -9.3807  -17.4106 C   0  0  0  0  0  0  0  0  0  0  0  0
   18.7920   -9.6699  -16.6489 O   0  0  0  0  0  0  0  0  0  0  0  0
   23.7988  -11.6741  -15.0989 C   0  0  0  0  0  0  0  0  0  0  0  0
   22.5640  -10.9505  -15.4597 C   0  0  0  0  0  0  0  0  0  0  0  0
   22.3834   -9.5482  -15.0110 C   0  0  2  0  0  0  0  0  0  0  0  0
   22.6962   -9.4215  -13.5132 C   0  0  0  0  0  0  0  0  0  0  0  0
   21.1861   -8.7877  -15.3962 C   0  0  2  0  0  0  0  0  0  0  0  0
   20.9360   -8.9065  -16.8450 N   0  0  0  0  0  0  0  0  0  0  0  0
   21.0299   -7.3964  -15.0087 C   0  0  0  0  0  0  0  0  0  0  0  0
   21.4442   -6.5030  -15.8440 O   0  0  0  0  0  0  0  0  0  0  0  0
   20.4936   -6.8563  -13.8672 O   0  0  0  0  0  0  0  0  0  0  0  0
  1  2  1  0
  3  4  2  0
  3  2  1  0
  6  7  1  0
  6  5  1  1
  7  3  1  0
  8  6  1  0
  9  8  2  0
 10 11  1  0
 11 12  1  0
 12 14  1  0
 12 13  1  1
 14 16  1  0
 14 15  1  6
 15  8  1  0
 16 18  1  0
 17 16  2  0
M  END
$$$$
