GAI.pdb
     RDKit          3D

 18 17  0  0  1  0  0  0  0  0999 V2000
   21.0553  -20.3874  -12.0873 N   0  0  0  0  0  0  0  0  0  0  0  0
   22.1424  -19.4479  -11.8809 C   0  0  0  0  0  0  0  0  0  0  0  0
   23.1000  -20.0783  -10.9187 C   0  0  0  0  0  0  0  0  0  0  0  0
   22.7895  -20.2832   -9.7048 O   0  0  0  0  0  0  0  0  0  0  0  0
   26.2607  -22.0875  -11.1611 C   0  0  0  0  0  0  0  0  0  0  0  0
   25.2935  -21.2001  -10.4311 C   0  0  2  0  0  0  0  0  0  0  0  0
   24.4048  -20.4808  -11.3097 N   0  0  0  0  0  0  0  0  0  0  0  0
   26.0674  -20.2974   -9.5438 C   0  0  0  0  0  0  0  0  0  0  0  0
   26.2086  -19.1094   -9.9329 O   0  0  0  0  0  0  0  0  0  0  0  0
   27.9601  -18.8137   -3.9086 C   0  0  0  0  0  0  0  0  0  0  0  0
   28.2068  -18.8504   -5.3634 C   0  0  0  0  0  0  0  0  0  0  0  0
   27.3575  -19.7086   -6.2252 C   0  0  2  0  0  0  0  0  0  0  0  0
   27.0046  -21.0140   -5.4980 C   0  0  0  0  0  0  0  0  0  0  0  0
   27.7084  -19.9336   -7.6346 C   0  0  2  0  0  0  0  0  0  0  0  0
   26.6382  -20.6760   -8.3269 N   0  0  0  0  0  0  0  0  0  0  0  0
   28.9894  -20.5127   -8.0007 C   0  0  0  0  0  0  0  0  0  0  0  0
   30.0474  -19.8313   -7.7114 O   0  0  0  0  0  0  0  0  0  0  0  0
   29.2711  -21.7046   -8.6193 O   0  0  0  0  0  0  0  0  0  0  0  0
  1  2  1  0
  3  4  2  0
  3  2  1  0
  6  7  1  0
  6  5  1  6
  7  3  1  0
  8  6  1  0
  9  8  2  0
 10 11  1  0
 11 12  1  0
 12 14  1  0
 12 13  1  1
 14 16  1  0
 14 15  1  1
 15  8  1  0
 16 18  1  0
 17 16  2  0
M  END
$$$$
