GAI.pdb
     RDKit          3D

 18 17  0  0  1  0  0  0  0  0999 V2000
   17.4173  -25.4768   -4.5214 N   0  0  0  0  0  0  0  0  0  0  0  0
   15.9684  -25.4253   -4.4501 C   0  0  0  0  0  0  0  0  0  0  0  0
   15.6060  -24.2678   -3.5732 C   0  0  0  0  0  0  0  0  0  0  0  0
   16.4707  -23.6766   -2.8558 O   0  0  0  0  0  0  0  0  0  0  0  0
   12.6244  -21.9877   -3.1214 C   0  0  0  0  0  0  0  0  0  0  0  0
   13.9262  -22.6129   -2.7088 C   0  0  2  0  0  0  0  0  0  0  0  0
   14.2785  -23.7687   -3.4956 N   0  0  0  0  0  0  0  0  0  0  0  0
   13.8598  -22.9134   -1.2574 C   0  0  0  0  0  0  0  0  0  0  0  0
   13.6316  -24.1090   -0.9391 O   0  0  0  0  0  0  0  0  0  0  0  0
   16.9355  -23.3698    3.5438 C   0  0  0  0  0  0  0  0  0  0  0  0
   15.5629  -23.1445    3.0499 C   0  0  0  0  0  0  0  0  0  0  0  0
   15.3595  -22.6053    1.6831 C   0  0  2  0  0  0  0  0  0  0  0  0
   16.3679  -21.4839    1.3950 C   0  0  0  0  0  0  0  0  0  0  0  0
   14.0101  -22.2781    1.2011 C   0  0  2  0  0  0  0  0  0  0  0  0
   14.0313  -21.9709   -0.2415 N   0  0  0  0  0  0  0  0  0  0  0  0
   13.1977  -21.2820    1.8779 C   0  0  0  0  0  0  0  0  0  0  0  0
   12.9142  -20.2079    1.2196 O   0  0  0  0  0  0  0  0  0  0  0  0
   12.6603  -21.2955    3.1402 O   0  0  0  0  0  0  0  0  0  0  0  0
  1  2  1  0
  3  4  2  0
  3  2  1  0
  6  7  1  0
  6  5  1  6
  7  3  1  0
  8  6  1  0
  9  8  2  0
 10 11  1  0
 11 12  1  0
 12 14  1  0
 12 13  1  1
 14 16  1  0
 14 15  1  6
 15  8  1  0
 16 18  1  0
 17 16  2  0
M  END
$$$$
