GAI.pdb
     RDKit          3D

 18 17  0  0  1  0  0  0  0  0999 V2000
   27.4728  -21.1487  -14.4729 N   0  0  0  0  0  0  0  0  0  0  0  0
   27.9156  -20.0166  -15.2663 C   0  0  0  0  0  0  0  0  0  0  0  0
   26.8769  -18.9470  -15.1355 C   0  0  0  0  0  0  0  0  0  0  0  0
   25.7118  -19.1970  -14.6974 O   0  0  0  0  0  0  0  0  0  0  0  0
   26.7853  -15.1660  -15.3759 C   0  0  0  0  0  0  0  0  0  0  0  0
   26.1816  -16.5381  -15.2822 C   0  0  2  0  0  0  0  0  0  0  0  0
   27.1369  -17.5972  -15.4934 N   0  0  0  0  0  0  0  0  0  0  0  0
   25.0378  -16.6096  -16.2245 C   0  0  0  0  0  0  0  0  0  0  0  0
   25.2805  -17.0639  -17.3723 O   0  0  0  0  0  0  0  0  0  0  0  0
   18.9251  -17.4619  -16.0966 C   0  0  0  0  0  0  0  0  0  0  0  0
   20.1051  -16.9809  -16.8415 C   0  0  0  0  0  0  0  0  0  0  0  0
   21.3776  -16.7440  -16.1169 C   0  0  2  0  0  0  0  0  0  0  0  0
   21.1296  -15.8892  -14.8658 C   0  0  0  0  0  0  0  0  0  0  0  0
   22.5864  -16.3302  -16.8434 C   0  0  2  0  0  0  0  0  0  0  0  0
   23.7335  -16.2119  -15.9236 N   0  0  0  0  0  0  0  0  0  0  0  0
   22.5698  -15.1714  -17.7192 C   0  0  0  0  0  0  0  0  0  0  0  0
   22.0435  -15.3250  -18.8883 O   0  0  0  0  0  0  0  0  0  0  0  0
   23.0317  -13.8979  -17.5017 O   0  0  0  0  0  0  0  0  0  0  0  0
  1  2  1  0
  3  4  2  0
  3  2  1  0
  6  7  1  0
  6  5  1  6
  7  3  1  0
  8  6  1  0
  9  8  2  0
 10 11  1  0
 11 12  1  0
 12 14  1  0
 12 13  1  1
 14 16  1  0
 14 15  1  1
 15  8  1  0
 16 18  1  0
 17 16  2  0
M  END
$$$$
