GAI.pdb
     RDKit          3D

 18 17  0  0  1  0  0  0  0  0999 V2000
   22.9010  -21.5726  -12.0966 N   0  0  0  0  0  0  0  0  0  0  0  0
   23.2205  -20.3942  -11.3115 C   0  0  0  0  0  0  0  0  0  0  0  0
   24.3674  -20.7508  -10.4184 C   0  0  0  0  0  0  0  0  0  0  0  0
   24.1862  -21.2523   -9.2663 O   0  0  0  0  0  0  0  0  0  0  0  0
   28.1555  -20.8505  -10.6936 C   0  0  0  0  0  0  0  0  0  0  0  0
   26.8341  -20.9392   -9.9853 C   0  0  2  0  0  0  0  0  0  0  0  0
   25.7177  -20.5484  -10.8099 N   0  0  0  0  0  0  0  0  0  0  0  0
   26.9211  -20.1453   -8.7349 C   0  0  0  0  0  0  0  0  0  0  0  0
   26.2731  -19.0674   -8.7052 O   0  0  0  0  0  0  0  0  0  0  0  0
   28.2844  -22.6340   -3.7902 C   0  0  0  0  0  0  0  0  0  0  0  0
   27.6550  -21.8197   -4.8482 C   0  0  0  0  0  0  0  0  0  0  0  0
   28.2984  -20.5523   -5.2724 C   0  0  2  0  0  0  0  0  0  0  0  0
   28.6710  -19.7054   -4.0470 C   0  0  0  0  0  0  0  0  0  0  0  0
   27.7169  -19.7429   -6.3526 C   0  0  2  0  0  0  0  0  0  0  0  0
   27.6629  -20.5122   -7.6101 N   0  0  0  0  0  0  0  0  0  0  0  0
   28.2219  -18.4119   -6.6418 C   0  0  0  0  0  0  0  0  0  0  0  0
   29.2139  -18.3248   -7.4638 O   0  0  0  0  0  0  0  0  0  0  0  0
   27.8032  -17.1917   -6.1746 O   0  0  0  0  0  0  0  0  0  0  0  0
  1  2  1  0
  3  4  2  0
  3  2  1  0
  6  7  1  0
  6  5  1  6
  7  3  1  0
  8  6  1  0
  9  8  2  0
 10 11  1  0
 11 12  1  0
 12 14  1  0
 12 13  1  1
 14 16  1  0
 14 15  1  6
 15  8  1  0
 16 18  1  0
 17 16  2  0
M  END
$$$$
