GAI.pdb
     RDKit          3D

 18 17  0  0  1  0  0  0  0  0999 V2000
   26.6746  -21.8129  -18.5876 N   0  0  0  0  0  0  0  0  0  0  0  0
   25.2468  -21.8308  -18.3266 C   0  0  0  0  0  0  0  0  0  0  0  0
   25.0070  -21.0049  -17.1016 C   0  0  0  0  0  0  0  0  0  0  0  0
   25.8269  -20.9938  -16.1323 O   0  0  0  0  0  0  0  0  0  0  0  0
   22.5035  -18.3988  -15.9476 C   0  0  0  0  0  0  0  0  0  0  0  0
   23.5835  -19.4263  -15.7640 C   0  0  2  0  0  0  0  0  0  0  0  0
   23.8524  -20.1904  -16.9569 N   0  0  0  0  0  0  0  0  0  0  0  0
   23.2188  -20.2850  -14.6104 C   0  0  0  0  0  0  0  0  0  0  0  0
   22.6077  -21.3528  -14.8733 O   0  0  0  0  0  0  0  0  0  0  0  0
   26.5499  -20.7034  -10.2261 C   0  0  0  0  0  0  0  0  0  0  0  0
   25.5652  -20.9889  -11.2880 C   0  0  0  0  0  0  0  0  0  0  0  0
   24.1298  -20.7030  -11.0468 C   0  0  2  0  0  0  0  0  0  0  0  0
   23.6625  -21.3715   -9.7460 C   0  0  0  0  0  0  0  0  0  0  0  0
   23.1465  -20.8446  -12.1301 C   0  0  2  0  0  0  0  0  0  0  0  0
   23.5058  -19.9884  -13.2763 N   0  0  0  0  0  0  0  0  0  0  0  0
   21.7245  -20.7021  -11.8695 C   0  0  0  0  0  0  0  0  0  0  0  0
   21.0576  -21.7832  -11.6377 O   0  0  0  0  0  0  0  0  0  0  0  0
   20.9478  -19.5720  -11.8229 O   0  0  0  0  0  0  0  0  0  0  0  0
  1  2  1  0
  3  4  2  0
  3  2  1  0
  6  7  1  0
  6  5  1  6
  7  3  1  0
  8  6  1  0
  9  8  2  0
 10 11  1  0
 11 12  1  0
 12 14  1  0
 12 13  1  1
 14 16  1  0
 14 15  1  6
 15  8  1  0
 16 18  1  0
 17 16  2  0
M  END
$$$$
