GAI.pdb
     RDKit          3D

 18 17  0  0  1  0  0  0  0  0999 V2000
   16.3969  -12.4888  -14.9884 N   0  0  0  0  0  0  0  0  0  0  0  0
   15.7089  -11.2899  -15.4314 C   0  0  0  0  0  0  0  0  0  0  0  0
   16.7540  -10.2623  -15.7345 C   0  0  0  0  0  0  0  0  0  0  0  0
   17.9826  -10.4660  -15.4878 O   0  0  0  0  0  0  0  0  0  0  0  0
   16.8589   -6.9994  -17.6681 C   0  0  0  0  0  0  0  0  0  0  0  0
   17.4304   -8.1035  -16.8253 C   0  0  2  0  0  0  0  0  0  0  0  0
   16.4296   -9.0063  -16.3130 N   0  0  0  0  0  0  0  0  0  0  0  0
   18.2478   -7.4925  -15.7483 C   0  0  0  0  0  0  0  0  0  0  0  0
   17.6883   -7.3437  -14.6314 O   0  0  0  0  0  0  0  0  0  0  0  0
   22.9424   -9.5178  -14.5011 C   0  0  0  0  0  0  0  0  0  0  0  0
   21.6628   -8.7879  -14.5925 C   0  0  0  0  0  0  0  0  0  0  0  0
   21.6738   -7.3090  -14.7064 C   0  0  2  0  0  0  0  0  0  0  0  0
   22.6398   -6.7007  -13.6797 C   0  0  0  0  0  0  0  0  0  0  0  0
   20.4147   -6.5565  -14.8004 C   0  0  2  0  0  0  0  0  0  0  0  0
   19.5740   -7.0800  -15.8935 N   0  0  0  0  0  0  0  0  0  0  0  0
   20.4166   -5.1054  -14.8679 C   0  0  0  0  0  0  0  0  0  0  0  0
   20.4068   -4.5711  -16.0434 O   0  0  0  0  0  0  0  0  0  0  0  0
   20.4228   -4.1779  -13.8568 O   0  0  0  0  0  0  0  0  0  0  0  0
  1  2  1  0
  3  4  2  0
  3  2  1  0
  6  7  1  0
  6  5  1  1
  7  3  1  0
  8  6  1  0
  9  8  2  0
 10 11  1  0
 11 12  1  0
 12 14  1  0
 12 13  1  1
 14 16  1  0
 14 15  1  6
 15  8  1  0
 16 18  1  0
 17 16  2  0
M  END
$$$$
