REN.pdb
     RDKit          3D

 29 28  0  0  1  0  0  0  0  0999 V2000
   26.7706  -23.3464  -16.6752 N   0  0  0  0  0  0  0  0  0  0  0  0
   28.0653  -22.8681  -16.3872 C   0  0  0  0  0  0  0  0  0  0  0  0
   29.0749  -23.5319  -16.8423 N   0  0  0  0  0  0  0  0  0  0  0  0
   28.2729  -21.6901  -15.6207 N   0  0  0  0  0  0  0  0  0  0  0  0
   27.2291  -20.7336  -15.4006 C   0  0  0  0  0  0  0  0  0  0  0  0
   26.7623  -20.0746  -16.6796 C   0  0  0  0  0  0  0  0  0  0  0  0
   25.5977  -19.1545  -16.4617 C   0  0  0  0  0  0  0  0  0  0  0  0
   25.9620  -17.7566  -16.1149 C   0  0  2  0  0  0  0  0  0  0  0  0
   26.8940  -17.7083  -14.9903 N   0  0  0  0  0  0  0  0  0  0  0  0
   24.7687  -16.9650  -15.7768 C   0  0  0  0  0  0  0  0  0  0  0  0
   24.3853  -16.8356  -14.6036 O   0  0  0  0  0  0  0  0  0  0  0  0
   30.0561  -23.2653  -16.7382 N   0  0  0  0  0  0  0  0  0  0  0  0
   24.0208  -16.3256  -16.8018 C   0  0  1  0  0  0  0  0  0  0  0  0
   22.8744  -15.5461  -16.4819 C   0  0  0  0  0  0  0  0  0  0  0  0
   23.0740  -14.0841  -16.6730 C   0  0  0  0  0  0  0  0  0  0  0  0
   21.9424  -13.1878  -16.3599 C   0  0  0  0  0  0  0  0  0  0  0  0
   22.1453  -11.7461  -16.5409 O   0  0  0  0  0  0  0  0  0  0  0  0
   22.5049  -11.2326  -17.6079 C   0  0  0  0  0  0  0  0  0  0  0  0
   21.7348  -16.0617  -17.3023 O   0  0  0  0  0  0  0  0  0  0  0  0
   21.9285  -16.7213  -18.3735 O   0  0  0  0  0  0  0  0  0  0  0  0
   21.9228  -10.8930  -15.4479 N   0  0  0  0  0  0  0  0  0  0  0  0
   20.7019  -19.8804  -18.9191 C   0  0  0  0  0  0  0  0  0  0  0  0
   19.9355  -18.7403  -18.5150 O   0  0  0  0  0  0  0  0  0  0  0  0
   19.0680  -18.3279  -19.3073 C   0  0  0  0  0  0  0  0  0  0  0  0
   20.1918  -18.1175  -17.2209 C   0  0  2  0  0  0  0  0  0  0  0  0
   19.4262  -16.8643  -16.9390 N   0  0  0  0  0  0  0  0  0  0  0  0
   20.4252  -15.7920  -16.8493 C   0  0  0  0  0  0  0  0  0  0  0  0
   18.6998  -16.8785  -15.6502 O   0  0  0  0  0  0  0  0  0  0  0  0
   17.4528  -16.2657  -15.5722 O   0  0  0  0  0  0  0  0  0  0  0  0
  2  3  2  0
  2  1  1  0
  4  2  1  0
  5  6  1  0
  5  4  1  0
  7  6  1  0
  8 10  1  0
  8  7  1  0
  8  9  1  1
 10 11  2  0
 12 13  1  0
 12 10  1  0
 13 14  1  1
 14 15  1  0
 16 20  1  0
 16 15  1  0
 17 16  2  0
 18 19  2  0
 18 13  1  0
 21 22  1  0
 22 23  2  0
 22 24  1  0
 25 24  1  6
 25 26  1  0
 26 18  1  0
 27 25  1  0
 27 28  1  0
 29 27  2  0
M  END
$$$$
