REN.pdb
     RDKit          3D

 29 28  0  0  1  0  0  0  0  0999 V2000
   14.2013  -13.2611  -11.7876 N   0  0  0  0  0  0  0  0  0  0  0  0
   13.3524  -12.1664  -12.0502 C   0  0  0  0  0  0  0  0  0  0  0  0
   12.7282  -11.6278  -11.0565 N   0  0  0  0  0  0  0  0  0  0  0  0
   13.1771  -11.6556  -13.3642 N   0  0  0  0  0  0  0  0  0  0  0  0
   14.2591  -11.5807  -14.3004 C   0  0  0  0  0  0  0  0  0  0  0  0
   14.9858  -10.2551  -14.2478 C   0  0  0  0  0  0  0  0  0  0  0  0
   16.1162  -10.1783  -15.2309 C   0  0  0  0  0  0  0  0  0  0  0  0
   17.4289  -10.6405  -14.7112 C   0  0  2  0  0  0  0  0  0  0  0  0
   17.4836  -12.0975  -14.6112 N   0  0  0  0  0  0  0  0  0  0  0  0
   17.7092  -10.0630  -13.3873 C   0  0  0  0  0  0  0  0  0  0  0  0
   17.3950  -10.6524  -12.3412 O   0  0  0  0  0  0  0  0  0  0  0  0
   12.1020  -10.8221  -11.1153 N   0  0  0  0  0  0  0  0  0  0  0  0
   18.3527   -8.8008  -13.2794 C   0  0  2  0  0  0  0  0  0  0  0  0
   18.7196   -8.2824  -12.0063 C   0  0  0  0  0  0  0  0  0  0  0  0
   19.9539   -7.4520  -12.0328 C   0  0  0  0  0  0  0  0  0  0  0  0
   19.8852   -6.1373  -12.7026 C   0  0  0  0  0  0  0  0  0  0  0  0
   21.0682   -5.2726  -12.6287 O   0  0  0  0  0  0  0  0  0  0  0  0
   21.1248   -4.1432  -13.1317 C   0  0  0  0  0  0  0  0  0  0  0  0
   17.5484   -7.5176  -11.4759 O   0  0  0  0  0  0  0  0  0  0  0  0
   16.5370   -7.2569  -12.2032 O   0  0  0  0  0  0  0  0  0  0  0  0
   22.2051   -5.7443  -11.9530 N   0  0  0  0  0  0  0  0  0  0  0  0
   13.6694   -7.6496   -7.3800 C   0  0  0  0  0  0  0  0  0  0  0  0
   14.3226   -6.8637   -8.3831 O   0  0  0  0  0  0  0  0  0  0  0  0
   13.8247   -5.7543   -8.6504 C   0  0  0  0  0  0  0  0  0  0  0  0
   15.5192   -7.3782   -9.0404 C   0  0  2  0  0  0  0  0  0  0  0  0
   16.4495   -6.3482   -9.5969 N   0  0  0  0  0  0  0  0  0  0  0  0
   17.5990   -7.0888  -10.1318 C   0  0  0  0  0  0  0  0  0  0  0  0
   16.9816   -5.4076   -8.5865 O   0  0  0  0  0  0  0  0  0  0  0  0
   16.3071   -4.2122   -8.3569 O   0  0  0  0  0  0  0  0  0  0  0  0
  2  3  2  0
  2  1  1  0
  4  2  1  0
  5  6  1  0
  5  4  1  0
  7  6  1  0
  8 10  1  0
  8  7  1  0
  8  9  1  1
 10 11  2  0
 12 13  1  0
 12 10  1  0
 13 14  1  6
 14 15  1  0
 16 20  1  0
 16 15  1  0
 17 16  2  0
 18 19  2  0
 18 13  1  0
 21 22  1  0
 22 23  2  0
 22 24  1  0
 25 24  1  6
 25 26  1  0
 26 18  1  0
 27 25  1  0
 27 28  1  0
 29 27  2  0
M  END
$$$$
