REN.pdb
     RDKit          3D

 29 28  0  0  1  0  0  0  0  0999 V2000
   26.4079  -22.9811  -19.6573 N   0  0  0  0  0  0  0  0  0  0  0  0
   27.1034  -22.3074  -20.6822 C   0  0  0  0  0  0  0  0  0  0  0  0
   26.7516  -22.5294  -21.9045 N   0  0  0  0  0  0  0  0  0  0  0  0
   28.1630  -21.4050  -20.3974 N   0  0  0  0  0  0  0  0  0  0  0  0
   28.5202  -21.0526  -19.0553 C   0  0  0  0  0  0  0  0  0  0  0  0
   27.4414  -20.2572  -18.3540 C   0  0  0  0  0  0  0  0  0  0  0  0
   27.8252  -19.8744  -16.9553 C   0  0  0  0  0  0  0  0  0  0  0  0
   28.1653  -21.0149  -16.0662 C   0  0  2  0  0  0  0  0  0  0  0  0
   28.6257  -22.1724  -16.8305 N   0  0  0  0  0  0  0  0  0  0  0  0
   27.0087  -21.4150  -15.2494 C   0  0  0  0  0  0  0  0  0  0  0  0
   26.2499  -22.3316  -15.6019 O   0  0  0  0  0  0  0  0  0  0  0  0
   27.1719  -22.0986  -22.7306 N   0  0  0  0  0  0  0  0  0  0  0  0
   26.7335  -20.7490  -14.0249 C   0  0  2  0  0  0  0  0  0  0  0  0
   25.7385  -21.2472  -13.1383 C   0  0  0  0  0  0  0  0  0  0  0  0
   25.8773  -20.7478  -11.7436 C   0  0  0  0  0  0  0  0  0  0  0  0
   24.9136  -21.2383  -10.7374 C   0  0  0  0  0  0  0  0  0  0  0  0
   25.0443  -20.7332   -9.3661 O   0  0  0  0  0  0  0  0  0  0  0  0
   25.8237  -19.8290   -9.0395 C   0  0  0  0  0  0  0  0  0  0  0  0
   24.4035  -20.9040  -13.7194 O   0  0  0  0  0  0  0  0  0  0  0  0
   24.1892  -19.7828  -14.2825 O   0  0  0  0  0  0  0  0  0  0  0  0
   24.2459  -21.3019   -8.3607 N   0  0  0  0  0  0  0  0  0  0  0  0
   19.3198  -21.3534  -14.8433 C   0  0  0  0  0  0  0  0  0  0  0  0
   19.7233  -22.4493  -14.0145 O   0  0  0  0  0  0  0  0  0  0  0  0
   18.8407  -23.2572  -13.6700 C   0  0  0  0  0  0  0  0  0  0  0  0
   21.1200  -22.5774  -13.6130 C   0  0  2  0  0  0  0  0  0  0  0  0
   22.0416  -21.5125  -14.1155 N   0  0  0  0  0  0  0  0  0  0  0  0
   23.3781  -21.8696  -13.6234 C   0  0  0  0  0  0  0  0  0  0  0  0
   21.7426  -20.1609  -13.5935 O   0  0  0  0  0  0  0  0  0  0  0  0
   21.0331  -19.2707  -14.3941 O   0  0  0  0  0  0  0  0  0  0  0  0
  2  3  2  0
  2  1  1  0
  4  2  1  0
  5  6  1  0
  5  4  1  0
  7  6  1  0
  8 10  1  0
  8  7  1  0
  8  9  1  6
 10 11  2  0
 12 13  1  0
 12 10  1  0
 13 14  1  6
 14 15  1  0
 16 20  1  0
 16 15  1  0
 17 16  2  0
 18 19  2  0
 18 13  1  0
 21 22  1  0
 22 23  2  0
 22 24  1  0
 25 24  1  6
 25 26  1  0
 26 18  1  0
 27 25  1  0
 27 28  1  0
 29 27  2  0
M  END
$$$$
