REN.pdb
     RDKit          3D

 29 28  0  0  1  0  0  0  0  0999 V2000
   18.7853  -15.1189  -15.3043 N   0  0  0  0  0  0  0  0  0  0  0  0
   19.1807  -15.9315  -16.3866 C   0  0  0  0  0  0  0  0  0  0  0  0
   18.3939  -16.8894  -16.7481 N   0  0  0  0  0  0  0  0  0  0  0  0
   20.4057  -15.7168  -17.0733 N   0  0  0  0  0  0  0  0  0  0  0  0
   21.2840  -14.6353  -16.7391 C   0  0  0  0  0  0  0  0  0  0  0  0
   20.9967  -13.3824  -17.5366 C   0  0  0  0  0  0  0  0  0  0  0  0
   22.2472  -12.6826  -17.9803 C   0  0  0  0  0  0  0  0  0  0  0  0
   22.8130  -11.7278  -16.9928 C   0  0  2  0  0  0  0  0  0  0  0  0
   22.6951  -12.2353  -15.6274 N   0  0  0  0  0  0  0  0  0  0  0  0
   22.1421  -10.4207  -17.0730 C   0  0  0  0  0  0  0  0  0  0  0  0
   22.1826   -9.7314  -18.1042 O   0  0  0  0  0  0  0  0  0  0  0  0
   18.5526  -17.5231  -17.5342 N   0  0  0  0  0  0  0  0  0  0  0  0
   21.4262   -9.9147  -15.9549 C   0  0  1  0  0  0  0  0  0  0  0  0
   20.7004   -8.6950  -16.0524 C   0  0  0  0  0  0  0  0  0  0  0  0
   19.2909   -8.8000  -15.5876 C   0  0  0  0  0  0  0  0  0  0  0  0
   18.4274   -7.6104  -15.7330 C   0  0  0  0  0  0  0  0  0  0  0  0
   17.0434   -7.7111  -15.2566 O   0  0  0  0  0  0  0  0  0  0  0  0
   16.6290   -8.6334  -14.5430 C   0  0  0  0  0  0  0  0  0  0  0  0
   21.4595   -7.6559  -15.2896 O   0  0  0  0  0  0  0  0  0  0  0  0
   22.2531   -7.9685  -14.3449 O   0  0  0  0  0  0  0  0  0  0  0  0
   16.1301   -6.7108  -15.6266 N   0  0  0  0  0  0  0  0  0  0  0  0
   22.4782   -1.5970  -15.8576 C   0  0  0  0  0  0  0  0  0  0  0  0
   22.5614   -2.8495  -15.1684 O   0  0  0  0  0  0  0  0  0  0  0  0
   23.1997   -2.8696  -14.0996 C   0  0  0  0  0  0  0  0  0  0  0  0
   21.9111   -4.0290  -15.7292 C   0  0  1  0  0  0  0  0  0  0  0  0
   22.0087   -5.2767  -14.9108 N   0  0  0  0  0  0  0  0  0  0  0  0
   21.2673   -6.3050  -15.6516 C   0  0  0  0  0  0  0  0  0  0  0  0
   21.3768   -5.1738  -13.5771 O   0  0  0  0  0  0  0  0  0  0  0  0
   22.1891   -5.0471  -12.4541 O   0  0  0  0  0  0  0  0  0  0  0  0
  2  3  2  0
  2  1  1  0
  4  2  1  0
  5  6  1  0
  5  4  1  0
  7  6  1  0
  8 10  1  0
  8  7  1  0
  8  9  1  1
 10 11  2  0
 12 13  1  0
 12 10  1  0
 13 14  1  6
 14 15  1  0
 16 20  1  0
 16 15  1  0
 17 16  2  0
 18 19  2  0
 18 13  1  0
 21 22  1  0
 22 23  2  0
 22 24  1  0
 25 24  1  6
 25 26  1  0
 26 18  1  0
 27 25  1  0
 27 28  1  0
 29 27  2  0
M  END
$$$$
