REN.pdb
     RDKit          3D

 29 28  0  0  1  0  0  0  0  0999 V2000
   30.4541  -22.6392   -9.5981 N   0  0  0  0  0  0  0  0  0  0  0  0
   29.7529  -21.4723   -9.2310 C   0  0  0  0  0  0  0  0  0  0  0  0
   29.6565  -21.1898   -7.9748 N   0  0  0  0  0  0  0  0  0  0  0  0
   29.1637  -20.6186  -10.2016 N   0  0  0  0  0  0  0  0  0  0  0  0
   27.8148  -20.7964  -10.6505 C   0  0  0  0  0  0  0  0  0  0  0  0
   27.5938  -22.1353  -11.3188 C   0  0  0  0  0  0  0  0  0  0  0  0
   26.1802  -22.3198  -11.7857 C   0  0  0  0  0  0  0  0  0  0  0  0
   25.9043  -21.8179  -13.1565 C   0  0  2  0  0  0  0  0  0  0  0  0
   27.0989  -21.2370  -13.7658 N   0  0  0  0  0  0  0  0  0  0  0  0
   24.8364  -20.8057  -13.1467 C   0  0  0  0  0  0  0  0  0  0  0  0
   25.0626  -19.6251  -12.8380 O   0  0  0  0  0  0  0  0  0  0  0  0
   29.2077  -20.3577   -7.5864 N   0  0  0  0  0  0  0  0  0  0  0  0
   23.5066  -21.1659  -13.4938 C   0  0  1  0  0  0  0  0  0  0  0  0
   22.5764  -20.1765  -13.9180 C   0  0  0  0  0  0  0  0  0  0  0  0
   22.8869  -19.5983  -15.2533 C   0  0  0  0  0  0  0  0  0  0  0  0
   22.0117  -18.5205  -15.7574 C   0  0  0  0  0  0  0  0  0  0  0  0
   22.2401  -18.0414  -17.1252 O   0  0  0  0  0  0  0  0  0  0  0  0
   21.5509  -17.1703  -17.6710 C   0  0  0  0  0  0  0  0  0  0  0  0
   21.2142  -20.7938  -13.8846 O   0  0  0  0  0  0  0  0  0  0  0  0
   21.0261  -22.0124  -14.2002 O   0  0  0  0  0  0  0  0  0  0  0  0
   23.2963  -18.5970  -17.8651 N   0  0  0  0  0  0  0  0  0  0  0  0
   18.0788  -23.2587  -13.1984 C   0  0  0  0  0  0  0  0  0  0  0  0
   18.1358  -22.4359  -12.0278 O   0  0  0  0  0  0  0  0  0  0  0  0
   17.8766  -22.9788  -10.9376 C   0  0  0  0  0  0  0  0  0  0  0  0
   18.4870  -21.0252  -12.1508 C   0  0  2  0  0  0  0  0  0  0  0  0
   18.7805  -20.5463  -13.5366 N   0  0  0  0  0  0  0  0  0  0  0  0
   20.1330  -19.9767  -13.4894 C   0  0  0  0  0  0  0  0  0  0  0  0
   17.8809  -19.4694  -14.0054 O   0  0  0  0  0  0  0  0  0  0  0  0
   18.4026  -18.1950  -14.2068 O   0  0  0  0  0  0  0  0  0  0  0  0
  2  3  2  0
  2  1  1  0
  4  2  1  0
  5  6  1  0
  5  4  1  0
  7  6  1  0
  8 10  1  0
  8  7  1  0
  8  9  1  1
 10 11  2  0
 12 13  1  0
 12 10  1  0
 13 14  1  1
 14 15  1  0
 16 20  1  0
 16 15  1  0
 17 16  2  0
 18 19  2  0
 18 13  1  0
 21 22  1  0
 22 23  2  0
 22 24  1  0
 25 24  1  6
 25 26  1  0
 26 18  1  0
 27 25  1  0
 27 28  1  0
 29 27  2  0
M  END
$$$$
