REN.pdb
     RDKit          3D

 29 28  0  0  1  0  0  0  0  0999 V2000
   26.2967  -20.4411   -9.7731 N   0  0  0  0  0  0  0  0  0  0  0  0
   25.1748  -21.0892  -10.3292 C   0  0  0  0  0  0  0  0  0  0  0  0
   24.0052  -20.7709   -9.8843 N   0  0  0  0  0  0  0  0  0  0  0  0
   25.3075  -22.0662  -11.3519 N   0  0  0  0  0  0  0  0  0  0  0  0
   26.2789  -21.9433  -12.3980 C   0  0  0  0  0  0  0  0  0  0  0  0
   25.7324  -22.3405  -13.7514 C   0  0  0  0  0  0  0  0  0  0  0  0
   26.4440  -21.6590  -14.8826 C   0  0  0  0  0  0  0  0  0  0  0  0
   26.1637  -20.2059  -15.0123 C   0  0  2  0  0  0  0  0  0  0  0  0
   26.3269  -19.5120  -13.7365 N   0  0  0  0  0  0  0  0  0  0  0  0
   24.7990  -19.9705  -15.5094 C   0  0  0  0  0  0  0  0  0  0  0  0
   24.4105  -20.4412  -16.5900 O   0  0  0  0  0  0  0  0  0  0  0  0
   23.1269  -21.2219  -10.1484 N   0  0  0  0  0  0  0  0  0  0  0  0
   23.8872  -19.1872  -14.7518 C   0  0  1  0  0  0  0  0  0  0  0  0
   22.5478  -19.0050  -15.1955 C   0  0  0  0  0  0  0  0  0  0  0  0
   21.5368  -19.1335  -14.1115 C   0  0  0  0  0  0  0  0  0  0  0  0
   20.8227  -20.4203  -13.9849 C   0  0  0  0  0  0  0  0  0  0  0  0
   19.7799  -20.5224  -12.9579 O   0  0  0  0  0  0  0  0  0  0  0  0
   19.4768  -19.5973  -12.1937 C   0  0  0  0  0  0  0  0  0  0  0  0
   22.4727  -17.6708  -15.8679 O   0  0  0  0  0  0  0  0  0  0  0  0
   23.0931  -16.6577  -15.4113 O   0  0  0  0  0  0  0  0  0  0  0  0
   19.0820  -21.7337  -12.8258 N   0  0  0  0  0  0  0  0  0  0  0  0
   22.6029  -13.9506  -19.0939 C   0  0  0  0  0  0  0  0  0  0  0  0
   23.5966  -14.9539  -18.8556 O   0  0  0  0  0  0  0  0  0  0  0  0
   24.7640  -14.6916  -19.2002 C   0  0  0  0  0  0  0  0  0  0  0  0
   23.2154  -16.2168  -18.2326 C   0  0  2  0  0  0  0  0  0  0  0  0
   21.7806  -16.3360  -17.8288 N   0  0  0  0  0  0  0  0  0  0  0  0
   21.6851  -17.5676  -17.0350 C   0  0  0  0  0  0  0  0  0  0  0  0
   20.8451  -16.4879  -18.9648 O   0  0  0  0  0  0  0  0  0  0  0  0
   19.6789  -17.2254  -18.7839 O   0  0  0  0  0  0  0  0  0  0  0  0
  2  3  2  0
  2  1  1  0
  4  2  1  0
  5  6  1  0
  5  4  1  0
  7  6  1  0
  8 10  1  0
  8  7  1  0
  8  9  1  1
 10 11  2  0
 12 13  1  0
 12 10  1  0
 13 14  1  6
 14 15  1  0
 16 20  1  0
 16 15  1  0
 17 16  2  0
 18 19  2  0
 18 13  1  0
 21 22  1  0
 22 23  2  0
 22 24  1  0
 25 24  1  1
 25 26  1  0
 26 18  1  0
 27 25  1  0
 27 28  1  0
 29 27  2  0
M  END
$$$$
