REN.pdb
     RDKit          3D

 29 28  0  0  1  0  0  0  0  0999 V2000
   29.9537  -17.0623  -19.7105 N   0  0  0  0  0  0  0  0  0  0  0  0
   29.8289  -17.7987  -18.5147 C   0  0  0  0  0  0  0  0  0  0  0  0
   30.6941  -18.7275  -18.2784 N   0  0  0  0  0  0  0  0  0  0  0  0
   28.7881  -17.5395  -17.5831 N   0  0  0  0  0  0  0  0  0  0  0  0
   27.4054  -17.6849  -17.9295 C   0  0  0  0  0  0  0  0  0  0  0  0
   27.1177  -18.9839  -18.6492 C   0  0  0  0  0  0  0  0  0  0  0  0
   26.1935  -19.8781  -17.8767 C   0  0  0  0  0  0  0  0  0  0  0  0
   25.3934  -19.1940  -16.8285 C   0  0  2  0  0  0  0  0  0  0  0  0
   26.1469  -18.1112  -16.1996 N   0  0  0  0  0  0  0  0  0  0  0  0
   24.9629  -20.1400  -15.7870 C   0  0  0  0  0  0  0  0  0  0  0  0
   24.5642  -21.2808  -16.0695 O   0  0  0  0  0  0  0  0  0  0  0  0
   30.7076  -19.3299  -17.4528 N   0  0  0  0  0  0  0  0  0  0  0  0
   24.9941  -19.7595  -14.4184 C   0  0  1  0  0  0  0  0  0  0  0  0
   24.5322  -20.6497  -13.4094 C   0  0  0  0  0  0  0  0  0  0  0  0
   25.1125  -20.3823  -12.0657 C   0  0  0  0  0  0  0  0  0  0  0  0
   24.6417  -21.2085  -10.9353 C   0  0  0  0  0  0  0  0  0  0  0  0
   25.2850  -21.0095   -9.6319 O   0  0  0  0  0  0  0  0  0  0  0  0
   26.4379  -20.5810   -9.4942 C   0  0  0  0  0  0  0  0  0  0  0  0
   23.0382  -20.5764  -13.3923 O   0  0  0  0  0  0  0  0  0  0  0  0
   22.4224  -19.4740  -13.5519 O   0  0  0  0  0  0  0  0  0  0  0  0
   24.5611  -21.3209   -8.4697 N   0  0  0  0  0  0  0  0  0  0  0  0
   18.1879  -20.9517  -12.5427 C   0  0  0  0  0  0  0  0  0  0  0  0
   19.2167  -20.1560  -11.9436 O   0  0  0  0  0  0  0  0  0  0  0  0
   18.8553  -19.2077  -11.2222 C   0  0  0  0  0  0  0  0  0  0  0  0
   20.6178  -20.4767  -12.1936 C   0  0  1  0  0  0  0  0  0  0  0  0
   20.8684  -21.6982  -13.0189 N   0  0  0  0  0  0  0  0  0  0  0  0
   22.3244  -21.7777  -13.1914 C   0  0  0  0  0  0  0  0  0  0  0  0
   20.2814  -21.6400  -14.3757 O   0  0  0  0  0  0  0  0  0  0  0  0
   21.1151  -21.8000  -15.4784 O   0  0  0  0  0  0  0  0  0  0  0  0
  2  3  2  0
  2  1  1  0
  4  2  1  0
  5  6  1  0
  5  4  1  0
  7  6  1  0
  8 10  1  0
  8  7  1  0
  8  9  1  1
 10 11  2  0
 12 13  1  0
 12 10  1  0
 13 14  1  6
 14 15  1  0
 16 20  1  0
 16 15  1  0
 17 16  2  0
 18 19  2  0
 18 13  1  0
 21 22  1  0
 22 23  2  0
 22 24  1  0
 25 24  1  1
 25 26  1  0
 26 18  1  0
 27 25  1  0
 27 28  1  0
 29 27  2  0
M  END
$$$$
