HRG.pdb
     RDKit          3D

 26 26  0  0  1  0  0  0  0  0999 V2000
    7.9979  -16.6619   19.9087 N   0  0  0  0  0  0  0  0  0  0  0  0
    8.1351  -15.5080   20.7719 C   0  0  1  0  0  0  0  0  0  0  0  0
    7.1618  -14.4717   20.3167 C   0  0  0  0  0  0  0  0  0  0  0  0
    7.6677  -13.9536   18.9992 C   0  0  0  0  0  0  0  0  0  0  0  0
    8.4212  -12.8041   18.7984 C   0  0  0  0  0  0  0  0  0  0  0  0
    8.6747  -12.6834   17.4943 N   0  0  0  0  0  0  0  0  0  0  0  0
    8.1103  -13.7159   16.8465 C   0  0  0  0  0  0  0  0  0  0  0  0
    7.5012  -14.4802   17.7755 N   0  0  0  0  0  0  0  0  0  0  0  0
    8.0431  -15.8748   22.1892 C   0  0  0  0  0  0  0  0  0  0  0  0
    6.9672  -16.3831   22.6211 O   0  0  0  0  0  0  0  0  0  0  0  0
   13.2447  -18.4492   29.0880 N   0  0  0  0  0  0  0  0  0  0  0  0
   11.9068  -18.9470   29.1227 C   0  0  0  0  0  0  0  0  0  0  0  0
   11.6643  -20.0403   29.7561 N   0  0  0  0  0  0  0  0  0  0  0  0
   10.8482  -18.2543   28.4718 N   0  0  0  0  0  0  0  0  0  0  0  0
   10.9692  -17.8834   27.0769 C   0  0  0  0  0  0  0  0  0  0  0  0
    9.7871  -17.0172   26.6260 C   0  0  0  0  0  0  0  0  0  0  0  0
    9.9939  -16.7387   25.1703 C   0  0  0  0  0  0  0  0  0  0  0  0
    8.9266  -15.8946   24.5484 C   0  0  2  0  0  0  0  0  0  0  0  0
    9.0838  -15.7023   23.1330 N   0  0  0  0  0  0  0  0  0  0  0  0
    8.8952  -14.5901   25.2264 C   0  0  0  0  0  0  0  0  0  0  0  0
    9.9298  -13.8809   25.2493 O   0  0  0  0  0  0  0  0  0  0  0  0
   10.7351  -20.4688   29.8717 N   0  0  0  0  0  0  0  0  0  0  0  0
    7.7509  -14.0625   25.8724 C   0  0  0  0  0  0  0  0  0  0  0  0
    7.7436  -12.7599   26.5114 C   0  0  0  0  0  0  0  0  0  0  0  0
    6.4468  -12.4756   27.1583 O   0  0  0  0  0  0  0  0  0  0  0  0
    5.3350  -13.2873   27.0196 O   0  0  0  0  0  0  0  0  0  0  0  0
  2  1  1  6
  3  2  1  0
  4  3  1  0
  5  4  2  0
  6  7  1  0
  6  5  1  0
  7  8  2  0
  8  4  1  0
  9 10  2  0
  9  2  1  0
 11 12  1  0
 12 14  1  0
 13 12  2  0
 14 15  1  0
 16 15  1  0
 17 16  1  0
 18 19  1  0
 18 17  1  1
 19  9  1  0
 20 18  1  0
 21 20  2  0
 22 20  1  0
 23 22  1  0
 24 25  1  0
 24 23  1  0
 26 24  2  0
M  END
$$$$
