HRG.pdb
     RDKit          3D

 26 26  0  0  1  0  0  0  0  0999 V2000
   11.2553  -19.1396   17.7423 N   0  0  0  0  0  0  0  0  0  0  0  0
   10.6400  -19.4041   19.0256 C   0  0  1  0  0  0  0  0  0  0  0  0
   11.4492  -20.4491   19.7197 C   0  0  0  0  0  0  0  0  0  0  0  0
   11.2369  -21.7316   18.9645 C   0  0  0  0  0  0  0  0  0  0  0  0
   10.0384  -22.1861   18.4294 C   0  0  0  0  0  0  0  0  0  0  0  0
   10.2553  -23.3606   17.8353 N   0  0  0  0  0  0  0  0  0  0  0  0
   11.5532  -23.6797   17.9688 C   0  0  0  0  0  0  0  0  0  0  0  0
   12.1376  -22.6790   18.6581 N   0  0  0  0  0  0  0  0  0  0  0  0
   10.4218  -18.1707   19.7889 C   0  0  0  0  0  0  0  0  0  0  0  0
   11.3662  -17.3329   19.8810 O   0  0  0  0  0  0  0  0  0  0  0  0
    7.7989  -13.0357   17.3952 N   0  0  0  0  0  0  0  0  0  0  0  0
    7.7624  -12.7656   18.7969 C   0  0  0  0  0  0  0  0  0  0  0  0
    8.0718  -11.5883   19.2134 N   0  0  0  0  0  0  0  0  0  0  0  0
    7.3907  -13.7734   19.7298 N   0  0  0  0  0  0  0  0  0  0  0  0
    7.8571  -13.7063   21.0995 C   0  0  0  0  0  0  0  0  0  0  0  0
    7.3320  -14.8865   21.9254 C   0  0  0  0  0  0  0  0  0  0  0  0
    7.5823  -16.1189   21.1143 C   0  0  0  0  0  0  0  0  0  0  0  0
    8.9973  -16.6035   21.1531 C   0  0  2  0  0  0  0  0  0  0  0  0
    9.2133  -17.8350   20.4449 N   0  0  0  0  0  0  0  0  0  0  0  0
    9.4096  -16.7584   22.5562 C   0  0  0  0  0  0  0  0  0  0  0  0
    8.8395  -17.6127   23.2766 O   0  0  0  0  0  0  0  0  0  0  0  0
    8.1451  -11.3054   20.2010 N   0  0  0  0  0  0  0  0  0  0  0  0
   10.4309  -15.9926   23.1690 C   0  0  0  0  0  0  0  0  0  0  0  0
   10.7332  -16.0818   24.5853 C   0  0  0  0  0  0  0  0  0  0  0  0
   11.8890  -16.9641   24.8431 O   0  0  0  0  0  0  0  0  0  0  0  0
   12.4361  -17.1512   26.1000 O   0  0  0  0  0  0  0  0  0  0  0  0
  2  1  1  6
  3  2  1  0
  4  3  1  0
  5  4  2  0
  6  7  1  0
  6  5  1  0
  7  8  2  0
  8  4  1  0
  9 10  2  0
  9  2  1  0
 11 12  1  0
 12 14  1  0
 13 12  2  0
 14 15  1  0
 16 15  1  0
 17 16  1  0
 18 19  1  0
 18 17  1  1
 19  9  1  0
 20 18  1  0
 21 20  2  0
 22 20  1  0
 23 22  1  0
 24 25  1  0
 24 23  1  0
 26 24  2  0
M  END
$$$$
