HRG.pdb
     RDKit          3D

 26 26  0  0  1  0  0  0  0  0999 V2000
   17.1956  -22.0487   29.6126 N   0  0  0  0  0  0  0  0  0  0  0  0
   17.5176  -20.6394   29.6868 C   0  0  1  0  0  0  0  0  0  0  0  0
   17.0251  -20.1210   30.9972 C   0  0  0  0  0  0  0  0  0  0  0  0
   15.5252  -20.2161   30.9628 C   0  0  0  0  0  0  0  0  0  0  0  0
   14.6923  -19.7649   29.9469 C   0  0  0  0  0  0  0  0  0  0  0  0
   13.4288  -20.0300   30.2826 N   0  0  0  0  0  0  0  0  0  0  0  0
   13.4178  -20.6369   31.4808 C   0  0  0  0  0  0  0  0  0  0  0  0
   14.7007  -20.7431   31.8821 N   0  0  0  0  0  0  0  0  0  0  0  0
   18.9357  -20.3898   29.4070 C   0  0  0  0  0  0  0  0  0  0  0  0
   19.8103  -20.9622   30.1211 O   0  0  0  0  0  0  0  0  0  0  0  0
   17.7652  -19.8113   22.7804 N   0  0  0  0  0  0  0  0  0  0  0  0
   18.4376  -21.0074   23.1757 C   0  0  0  0  0  0  0  0  0  0  0  0
   17.9889  -22.1405   22.7630 N   0  0  0  0  0  0  0  0  0  0  0  0
   19.5876  -20.9616   24.0120 N   0  0  0  0  0  0  0  0  0  0  0  0
   19.7227  -19.9191   25.0085 C   0  0  0  0  0  0  0  0  0  0  0  0
   21.0731  -20.0089   25.7292 C   0  0  0  0  0  0  0  0  0  0  0  0
   21.1046  -18.8849   26.7166 C   0  0  0  0  0  0  0  0  0  0  0  0
   20.8073  -19.2949   28.1244 C   0  0  2  0  0  0  0  0  0  0  0  0
   19.4149  -19.5420   28.3798 N   0  0  0  0  0  0  0  0  0  0  0  0
   21.3031  -18.2551   29.0384 C   0  0  0  0  0  0  0  0  0  0  0  0
   20.5746  -17.2695   29.3060 O   0  0  0  0  0  0  0  0  0  0  0  0
   18.4014  -23.0592   22.9785 N   0  0  0  0  0  0  0  0  0  0  0  0
   22.5775  -18.2869   29.6549 C   0  0  0  0  0  0  0  0  0  0  0  0
   23.0756  -17.2018   30.4792 C   0  0  0  0  0  0  0  0  0  0  0  0
   22.6233  -17.3269   31.8794 O   0  0  0  0  0  0  0  0  0  0  0  0
   23.0986  -16.5293   32.9052 O   0  0  0  0  0  0  0  0  0  0  0  0
  2  1  1  1
  3  2  1  0
  4  3  1  0
  5  4  2  0
  6  7  1  0
  6  5  1  0
  7  8  2  0
  8  4  1  0
  9 10  2  0
  9  2  1  0
 11 12  1  0
 12 14  1  0
 13 12  2  0
 14 15  1  0
 16 15  1  0
 17 16  1  0
 18 19  1  0
 18 17  1  6
 19  9  1  0
 20 18  1  0
 21 20  2  0
 22 20  1  0
 23 22  1  0
 24 25  1  0
 24 23  1  0
 26 24  2  0
M  END
$$$$
