HRG.pdb
     RDKit          3D

 26 26  0  0  1  0  0  0  0  0999 V2000
    8.6287  -15.8077   21.0446 N   0  0  0  0  0  0  0  0  0  0  0  0
    7.9556  -14.8379   21.8824 C   0  0  1  0  0  0  0  0  0  0  0  0
    6.7026  -14.4178   21.1882 C   0  0  0  0  0  0  0  0  0  0  0  0
    7.1120  -13.8860   19.8430 C   0  0  0  0  0  0  0  0  0  0  0  0
    8.4086  -13.7832   19.3554 C   0  0  0  0  0  0  0  0  0  0  0  0
    8.3619  -13.2652   18.1270 N   0  0  0  0  0  0  0  0  0  0  0  0
    7.0792  -13.0300   17.8051 C   0  0  0  0  0  0  0  0  0  0  0  0
    6.3304  -13.4128   18.8591 N   0  0  0  0  0  0  0  0  0  0  0  0
    7.7779  -15.3323   23.2519 C   0  0  0  0  0  0  0  0  0  0  0  0
    6.6422  -15.2215   23.8000 O   0  0  0  0  0  0  0  0  0  0  0  0
    7.5649  -21.7843   26.9021 N   0  0  0  0  0  0  0  0  0  0  0  0
    6.5706  -20.9399   27.4829 C   0  0  0  0  0  0  0  0  0  0  0  0
    6.0851  -21.2486   28.6337 N   0  0  0  0  0  0  0  0  0  0  0  0
    6.1152  -19.7716   26.8108 N   0  0  0  0  0  0  0  0  0  0  0  0
    6.9898  -19.0716   25.8925 C   0  0  0  0  0  0  0  0  0  0  0  0
    8.2612  -18.5832   26.5968 C   0  0  0  0  0  0  0  0  0  0  0  0
    9.0537  -17.8327   25.5731 C   0  0  0  0  0  0  0  0  0  0  0  0
    8.6095  -16.4189   25.3672 C   0  0  2  0  0  0  0  0  0  0  0  0
    8.7969  -15.9366   24.0266 N   0  0  0  0  0  0  0  0  0  0  0  0
    9.3281  -15.5512   26.3122 C   0  0  0  0  0  0  0  0  0  0  0  0
   10.5414  -15.2981   26.1183 O   0  0  0  0  0  0  0  0  0  0  0  0
    5.3851  -20.6993   29.1522 N   0  0  0  0  0  0  0  0  0  0  0  0
    8.7335  -14.9649   27.4558 C   0  0  0  0  0  0  0  0  0  0  0  0
    9.4696  -14.1133   28.3713 C   0  0  0  0  0  0  0  0  0  0  0  0
   10.1183  -14.8950   29.4431 O   0  0  0  0  0  0  0  0  0  0  0  0
   10.8054  -14.3165   30.4955 O   0  0  0  0  0  0  0  0  0  0  0  0
  2  1  1  6
  3  2  1  0
  4  3  1  0
  5  4  2  0
  6  7  1  0
  6  5  1  0
  7  8  2  0
  8  4  1  0
  9 10  2  0
  9  2  1  0
 11 12  1  0
 12 14  1  0
 13 12  2  0
 14 15  1  0
 16 15  1  0
 17 16  1  0
 18 19  1  0
 18 17  1  6
 19  9  1  0
 20 18  1  0
 21 20  2  0
 22 20  1  0
 23 22  1  0
 24 25  1  0
 24 23  1  0
 26 24  2  0
M  END
$$$$
