HRG.pdb
     RDKit          3D

 26 26  0  0  1  0  0  0  0  0999 V2000
    6.6247  -16.0769   20.9662 N   0  0  0  0  0  0  0  0  0  0  0  0
    7.4447  -15.1979   21.7727 C   0  0  1  0  0  0  0  0  0  0  0  0
    7.2067  -13.7964   21.3171 C   0  0  0  0  0  0  0  0  0  0  0  0
    7.8988  -13.6504   19.9906 C   0  0  0  0  0  0  0  0  0  0  0  0
    8.6171  -14.6331   19.3214 C   0  0  0  0  0  0  0  0  0  0  0  0
    9.0775  -14.1207   18.1790 N   0  0  0  0  0  0  0  0  0  0  0  0
    8.6808  -12.8407   18.0881 C   0  0  0  0  0  0  0  0  0  0  0  0
    7.9646  -12.5689   19.1977 N   0  0  0  0  0  0  0  0  0  0  0  0
    7.2465  -15.4330   23.2070 C   0  0  0  0  0  0  0  0  0  0  0  0
    6.2685  -14.8784   23.7885 O   0  0  0  0  0  0  0  0  0  0  0  0
    4.5441  -21.1785   23.1594 N   0  0  0  0  0  0  0  0  0  0  0  0
    5.4892  -21.7233   24.0808 C   0  0  0  0  0  0  0  0  0  0  0  0
    5.2816  -22.8965   24.5665 N   0  0  0  0  0  0  0  0  0  0  0  0
    6.6474  -20.9913   24.4642 N   0  0  0  0  0  0  0  0  0  0  0  0
    6.8637  -19.6519   23.9571 C   0  0  0  0  0  0  0  0  0  0  0  0
    6.3651  -18.5936   24.9483 C   0  0  0  0  0  0  0  0  0  0  0  0
    7.5789  -18.0370   25.6237 C   0  0  0  0  0  0  0  0  0  0  0  0
    7.8024  -16.5776   25.3812 C   0  0  2  0  0  0  0  0  0  0  0  0
    8.0793  -16.2484   24.0101 N   0  0  0  0  0  0  0  0  0  0  0  0
    8.9068  -16.1162   26.2357 C   0  0  0  0  0  0  0  0  0  0  0  0
   10.0646  -16.0368   25.7592 O   0  0  0  0  0  0  0  0  0  0  0  0
    5.9346  -23.4159   25.1701 N   0  0  0  0  0  0  0  0  0  0  0  0
    8.7535  -15.7452   27.5936 C   0  0  0  0  0  0  0  0  0  0  0  0
    9.8476  -15.2224   28.3905 C   0  0  0  0  0  0  0  0  0  0  0  0
   10.3091  -16.2020   29.3946 O   0  0  0  0  0  0  0  0  0  0  0  0
   11.2489  -15.9078   30.3664 O   0  0  0  0  0  0  0  0  0  0  0  0
  2  1  1  6
  3  2  1  0
  4  3  1  0
  5  4  2  0
  6  7  1  0
  6  5  1  0
  7  8  2  0
  8  4  1  0
  9 10  2  0
  9  2  1  0
 11 12  1  0
 12 14  1  0
 13 12  2  0
 14 15  1  0
 16 15  1  0
 17 16  1  0
 18 19  1  0
 18 17  1  6
 19  9  1  0
 20 18  1  0
 21 20  2  0
 22 20  1  0
 23 22  1  0
 24 25  1  0
 24 23  1  0
 26 24  2  0
M  END
$$$$
