HRG.pdb
     RDKit          3D

 26 26  0  0  1  0  0  0  0  0999 V2000
    6.5235  -15.6208   20.8358 N   0  0  0  0  0  0  0  0  0  0  0  0
    7.4999  -14.9524   21.6698 C   0  0  1  0  0  0  0  0  0  0  0  0
    7.5639  -13.5212   21.2503 C   0  0  0  0  0  0  0  0  0  0  0  0
    8.0797  -13.5079   19.8383 C   0  0  0  0  0  0  0  0  0  0  0  0
    7.7142  -12.6206   18.8340 C   0  0  0  0  0  0  0  0  0  0  0  0
    8.3877  -12.9312   17.7253 N   0  0  0  0  0  0  0  0  0  0  0  0
    9.1755  -13.9889   17.9797 C   0  0  0  0  0  0  0  0  0  0  0  0
    8.9772  -14.3286   19.2695 N   0  0  0  0  0  0  0  0  0  0  0  0
    7.2418  -15.1767   23.0962 C   0  0  0  0  0  0  0  0  0  0  0  0
    6.1643  -14.7421   23.5988 O   0  0  0  0  0  0  0  0  0  0  0  0
    6.7755  -22.6968   25.3845 N   0  0  0  0  0  0  0  0  0  0  0  0
    5.7981  -22.0227   24.5912 C   0  0  0  0  0  0  0  0  0  0  0  0
    4.8852  -22.7147   24.0054 N   0  0  0  0  0  0  0  0  0  0  0  0
    5.8212  -20.6080   24.4426 N   0  0  0  0  0  0  0  0  0  0  0  0
    6.8665  -19.8263   25.0707 C   0  0  0  0  0  0  0  0  0  0  0  0
    6.6073  -18.3230   24.9162 C   0  0  0  0  0  0  0  0  0  0  0  0
    7.7162  -17.6232   25.6372 C   0  0  0  0  0  0  0  0  0  0  0  0
    7.8117  -16.1590   25.3449 C   0  0  2  0  0  0  0  0  0  0  0  0
    8.1201  -15.8551   23.9747 N   0  0  0  0  0  0  0  0  0  0  0  0
    8.8262  -15.5622   26.2265 C   0  0  0  0  0  0  0  0  0  0  0  0
   10.0298  -15.5640   25.8729 O   0  0  0  0  0  0  0  0  0  0  0  0
    4.1861  -22.3432   23.3467 N   0  0  0  0  0  0  0  0  0  0  0  0
    8.5347  -14.9698   27.4792 C   0  0  0  0  0  0  0  0  0  0  0  0
    9.5455  -14.3189   28.2914 C   0  0  0  0  0  0  0  0  0  0  0  0
   10.1612  -15.2559   29.2526 O   0  0  0  0  0  0  0  0  0  0  0  0
   11.0436  -14.8586   30.2414 O   0  0  0  0  0  0  0  0  0  0  0  0
  2  1  1  6
  3  2  1  0
  4  3  1  0
  5  4  2  0
  6  7  1  0
  6  5  1  0
  7  8  2  0
  8  4  1  0
  9 10  2  0
  9  2  1  0
 11 12  1  0
 12 14  1  0
 13 12  2  0
 14 15  1  0
 16 15  1  0
 17 16  1  0
 18 19  1  0
 18 17  1  6
 19  9  1  0
 20 18  1  0
 21 20  2  0
 22 20  1  0
 23 22  1  0
 24 25  1  0
 24 23  1  0
 26 24  2  0
M  END
$$$$
