HRG.pdb
     RDKit          3D

 26 26  0  0  1  0  0  0  0  0999 V2000
    8.4579  -15.7133   19.9611 N   0  0  0  0  0  0  0  0  0  0  0  0
    9.7216  -15.0165   20.0756 C   0  0  1  0  0  0  0  0  0  0  0  0
    9.5226  -13.6165   19.5971 C   0  0  0  0  0  0  0  0  0  0  0  0
    8.5634  -13.6875   18.4417 C   0  0  0  0  0  0  0  0  0  0  0  0
    7.2348  -13.2825   18.4455 C   0  0  0  0  0  0  0  0  0  0  0  0
    6.7183  -13.5046   17.2357 N   0  0  0  0  0  0  0  0  0  0  0  0
    7.6685  -14.0393   16.4512 C   0  0  0  0  0  0  0  0  0  0  0  0
    8.7856  -14.1446   17.1990 N   0  0  0  0  0  0  0  0  0  0  0  0
   10.2933  -15.1440   21.4204 C   0  0  0  0  0  0  0  0  0  0  0  0
   11.3764  -14.5443   21.6842 O   0  0  0  0  0  0  0  0  0  0  0  0
   10.9093  -15.1589   30.7301 N   0  0  0  0  0  0  0  0  0  0  0  0
   10.2664  -14.9635   29.4701 C   0  0  0  0  0  0  0  0  0  0  0  0
    9.5326  -13.9205   29.2996 N   0  0  0  0  0  0  0  0  0  0  0  0
   10.4267  -15.8993   28.4106 N   0  0  0  0  0  0  0  0  0  0  0  0
    9.8349  -15.6406   27.1141 C   0  0  0  0  0  0  0  0  0  0  0  0
   10.0985  -16.7956   26.1408 C   0  0  0  0  0  0  0  0  0  0  0  0
    9.4269  -16.4304   24.8544 C   0  0  0  0  0  0  0  0  0  0  0  0
   10.3692  -16.1616   23.7238 C   0  0  2  0  0  0  0  0  0  0  0  0
    9.7182  -15.9003   22.4696 N   0  0  0  0  0  0  0  0  0  0  0  0
   11.2812  -17.3063   23.5811 C   0  0  0  0  0  0  0  0  0  0  0  0
   10.8156  -18.4342   23.2896 O   0  0  0  0  0  0  0  0  0  0  0  0
    9.0860  -13.6442   28.4137 N   0  0  0  0  0  0  0  0  0  0  0  0
   12.6843  -17.2252   23.7534 C   0  0  0  0  0  0  0  0  0  0  0  0
   13.5164  -18.3956   23.9609 C   0  0  0  0  0  0  0  0  0  0  0  0
   14.4031  -18.6473   22.8071 O   0  0  0  0  0  0  0  0  0  0  0  0
   15.3727  -19.6342   22.7957 O   0  0  0  0  0  0  0  0  0  0  0  0
  2  1  1  1
  3  2  1  0
  4  3  1  0
  5  4  2  0
  6  7  1  0
  6  5  1  0
  7  8  2  0
  8  4  1  0
  9 10  2  0
  9  2  1  0
 11 12  1  0
 12 14  1  0
 13 12  2  0
 14 15  1  0
 16 15  1  0
 17 16  1  0
 18 19  1  0
 18 17  1  1
 19  9  1  0
 20 18  1  0
 21 20  2  0
 22 20  1  0
 23 22  1  0
 24 25  1  0
 24 23  1  0
 26 24  2  0
M  END
$$$$
