HRG.pdb
     RDKit          3D

 26 26  0  0  1  0  0  0  0  0999 V2000
   14.3045  -14.9770   16.3874 N   0  0  0  0  0  0  0  0  0  0  0  0
   13.1482  -15.5594   17.0349 C   0  0  1  0  0  0  0  0  0  0  0  0
   13.4090  -17.0172   17.2232 C   0  0  0  0  0  0  0  0  0  0  0  0
   13.3183  -17.6510   15.8630 C   0  0  0  0  0  0  0  0  0  0  0  0
   12.6085  -17.1664   14.7718 C   0  0  0  0  0  0  0  0  0  0  0  0
   12.7740  -18.0065   13.7489 N   0  0  0  0  0  0  0  0  0  0  0  0
   13.5663  -19.0169   14.1427 C   0  0  0  0  0  0  0  0  0  0  0  0
   13.8895  -18.7869   15.4314 N   0  0  0  0  0  0  0  0  0  0  0  0
   12.7788  -14.8266   18.2507 C   0  0  0  0  0  0  0  0  0  0  0  0
   13.6698  -14.1679   18.8627 O   0  0  0  0  0  0  0  0  0  0  0  0
    6.8685  -15.3954   16.3917 N   0  0  0  0  0  0  0  0  0  0  0  0
    7.2774  -14.1971   17.0519 C   0  0  0  0  0  0  0  0  0  0  0  0
    7.7808  -13.2409   16.3536 N   0  0  0  0  0  0  0  0  0  0  0  0
    7.1354  -14.0489   18.4598 N   0  0  0  0  0  0  0  0  0  0  0  0
    7.6494  -12.8687   19.1238 C   0  0  0  0  0  0  0  0  0  0  0  0
    9.1807  -12.8185   19.0646 C   0  0  0  0  0  0  0  0  0  0  0  0
    9.6787  -13.7532   20.1218 C   0  0  0  0  0  0  0  0  0  0  0  0
   11.1321  -14.0902   20.0093 C   0  0  2  0  0  0  0  0  0  0  0  0
   11.4772  -14.7962   18.8063 N   0  0  0  0  0  0  0  0  0  0  0  0
   11.5295  -14.8834   21.1821 C   0  0  0  0  0  0  0  0  0  0  0  0
   11.3129  -14.4347   22.3334 O   0  0  0  0  0  0  0  0  0  0  0  0
    8.1526  -12.3582   16.7319 N   0  0  0  0  0  0  0  0  0  0  0  0
   12.1557  -16.1510   21.1035 C   0  0  0  0  0  0  0  0  0  0  0  0
   12.5324  -16.9123   22.2799 C   0  0  0  0  0  0  0  0  0  0  0  0
   13.1007  -18.2272   21.9212 O   0  0  0  0  0  0  0  0  0  0  0  0
   13.5010  -19.1628   22.8586 O   0  0  0  0  0  0  0  0  0  0  0  0
  2  1  1  1
  3  2  1  0
  4  3  1  0
  5  4  2  0
  6  7  1  0
  6  5  1  0
  7  8  2  0
  8  4  1  0
  9 10  2  0
  9  2  1  0
 11 12  1  0
 12 14  1  0
 13 12  2  0
 14 15  1  0
 16 15  1  0
 17 16  1  0
 18 19  1  0
 18 17  1  1
 19  9  1  0
 20 18  1  0
 21 20  2  0
 22 20  1  0
 23 22  1  0
 24 25  1  0
 24 23  1  0
 26 24  2  0
M  END
$$$$
