HRG.pdb
     RDKit          3D

 26 26  0  0  1  0  0  0  0  0999 V2000
    6.5369  -15.8595   20.8160 N   0  0  0  0  0  0  0  0  0  0  0  0
    7.4394  -15.0979   21.6532 C   0  0  1  0  0  0  0  0  0  0  0  0
    7.2945  -13.6556   21.2967 C   0  0  0  0  0  0  0  0  0  0  0  0
    7.7905  -13.5079   19.8852 C   0  0  0  0  0  0  0  0  0  0  0  0
    7.0568  -13.0580   18.7950 C   0  0  0  0  0  0  0  0  0  0  0  0
    7.8442  -13.0679   17.7182 N   0  0  0  0  0  0  0  0  0  0  0  0
    9.0612  -13.5090   18.0764 C   0  0  0  0  0  0  0  0  0  0  0  0
    9.0132  -13.7728   19.3978 N   0  0  0  0  0  0  0  0  0  0  0  0
    7.2600  -15.4134   23.0744 C   0  0  0  0  0  0  0  0  0  0  0  0
    6.1296  -15.2128   23.6078 O   0  0  0  0  0  0  0  0  0  0  0  0
    7.3337  -21.3125   23.8052 N   0  0  0  0  0  0  0  0  0  0  0  0
    5.9608  -21.1896   24.1781 C   0  0  0  0  0  0  0  0  0  0  0  0
    5.2020  -22.2268   24.1145 N   0  0  0  0  0  0  0  0  0  0  0  0
    5.4269  -19.9457   24.6158 N   0  0  0  0  0  0  0  0  0  0  0  0
    6.2448  -19.0330   25.3880 C   0  0  0  0  0  0  0  0  0  0  0  0
    7.5541  -18.7063   24.6602 C   0  0  0  0  0  0  0  0  0  0  0  0
    8.3150  -17.7742   25.5500 C   0  0  0  0  0  0  0  0  0  0  0  0
    8.0602  -16.3243   25.2827 C   0  0  2  0  0  0  0  0  0  0  0  0
    8.2715  -15.9358   23.9155 N   0  0  0  0  0  0  0  0  0  0  0  0
    8.9170  -15.5192   26.1660 C   0  0  0  0  0  0  0  0  0  0  0  0
   10.1284  -15.3652   25.8787 O   0  0  0  0  0  0  0  0  0  0  0  0
    4.1940  -22.2418   24.3246 N   0  0  0  0  0  0  0  0  0  0  0  0
    8.4612  -14.8883   27.3489 C   0  0  0  0  0  0  0  0  0  0  0  0
    9.3285  -14.0887   28.1937 C   0  0  0  0  0  0  0  0  0  0  0  0
   10.1046  -14.9273   29.1293 O   0  0  0  0  0  0  0  0  0  0  0  0
   10.9027  -14.4067   30.1325 O   0  0  0  0  0  0  0  0  0  0  0  0
  2  1  1  6
  3  2  1  0
  4  3  1  0
  5  4  2  0
  6  7  1  0
  6  5  1  0
  7  8  2  0
  8  4  1  0
  9 10  2  0
  9  2  1  0
 11 12  1  0
 12 14  1  0
 13 12  2  0
 14 15  1  0
 16 15  1  0
 17 16  1  0
 18 19  1  0
 18 17  1  6
 19  9  1  0
 20 18  1  0
 21 20  2  0
 22 20  1  0
 23 22  1  0
 24 25  1  0
 24 23  1  0
 26 24  2  0
M  END
$$$$
