HRG.pdb
     RDKit          3D

 26 26  0  0  1  0  0  0  0  0999 V2000
    7.6958  -17.7672   26.5430 N   0  0  0  0  0  0  0  0  0  0  0  0
    7.6201  -16.4385   25.9733 C   0  0  1  0  0  0  0  0  0  0  0  0
    8.3134  -15.4972   26.9017 C   0  0  0  0  0  0  0  0  0  0  0  0
    7.4516  -14.2688   26.9936 C   0  0  0  0  0  0  0  0  0  0  0  0
    6.2405  -14.0594   26.3464 C   0  0  0  0  0  0  0  0  0  0  0  0
    5.7826  -12.8517   26.6799 N   0  0  0  0  0  0  0  0  0  0  0  0
    6.6570  -12.2744   27.5203 C   0  0  0  0  0  0  0  0  0  0  0  0
    7.6674  -13.1487   27.7017 N   0  0  0  0  0  0  0  0  0  0  0  0
    8.0949  -16.4138   24.5857 C   0  0  0  0  0  0  0  0  0  0  0  0
    9.0272  -17.1989   24.2438 O   0  0  0  0  0  0  0  0  0  0  0  0
    7.7418  -12.4935   16.8831 N   0  0  0  0  0  0  0  0  0  0  0  0
    8.4569  -13.6780   17.2362 C   0  0  0  0  0  0  0  0  0  0  0  0
    9.7389  -13.6884   17.1273 N   0  0  0  0  0  0  0  0  0  0  0  0
    7.7750  -14.8360   17.7035 N   0  0  0  0  0  0  0  0  0  0  0  0
    7.1795  -14.8478   19.0238 C   0  0  0  0  0  0  0  0  0  0  0  0
    8.1166  -14.2215   20.0633 C   0  0  0  0  0  0  0  0  0  0  0  0
    7.4706  -14.4265   21.3975 C   0  0  0  0  0  0  0  0  0  0  0  0
    8.1662  -15.4226   22.2707 C   0  0  2  0  0  0  0  0  0  0  0  0
    7.5828  -15.5638   23.5763 N   0  0  0  0  0  0  0  0  0  0  0  0
    9.5804  -15.0399   22.3973 C   0  0  0  0  0  0  0  0  0  0  0  0
    9.9203  -14.2146   23.2789 O   0  0  0  0  0  0  0  0  0  0  0  0
   10.3552  -14.4621   17.4137 N   0  0  0  0  0  0  0  0  0  0  0  0
   10.6138  -15.5493   21.5741 C   0  0  0  0  0  0  0  0  0  0  0  0
   11.9957  -15.1252   21.6999 C   0  0  0  0  0  0  0  0  0  0  0  0
   12.8762  -15.8448   20.7577 O   0  0  0  0  0  0  0  0  0  0  0  0
   14.1986  -15.5008   20.5406 O   0  0  0  0  0  0  0  0  0  0  0  0
  2  1  1  1
  3  2  1  0
  4  3  1  0
  5  4  2  0
  6  7  1  0
  6  5  1  0
  7  8  2  0
  8  4  1  0
  9 10  2  0
  9  2  1  0
 11 12  1  0
 12 14  1  0
 13 12  2  0
 14 15  1  0
 16 15  1  0
 17 16  1  0
 18 19  1  0
 18 17  1  6
 19  9  1  0
 20 18  1  0
 21 20  2  0
 22 20  1  0
 23 22  1  0
 24 25  1  0
 24 23  1  0
 26 24  2  0
M  END
$$$$
