LLT.pdb
     RDKit          3D

 24 23  0  0  1  0  0  0  0  0999 V2000
   26.7262  -18.4019  -17.8619 C   0  0  0  0  0  0  0  0  0  0  0  0
   26.0793  -19.6004  -18.4758 C   0  0  2  0  0  0  0  0  0  0  0  0
   25.1136  -19.1914  -19.5388 C   0  0  0  0  0  0  0  0  0  0  0  0
   25.3841  -20.3924  -17.3766 C   0  0  0  0  0  0  0  0  0  0  0  0
   26.4582  -20.8325  -16.4068 C   0  0  2  0  0  0  0  0  0  0  0  0
   27.3073  -21.8295  -17.0287 N   0  0  0  0  0  0  0  0  0  0  0  0
   25.8841  -21.3674  -15.1512 C   0  0  0  0  0  0  0  0  0  0  0  0
   25.6720  -22.5980  -14.9663 O   0  0  0  0  0  0  0  0  0  0  0  0
   25.7099  -22.0059   -9.9299 C   0  0  0  0  0  0  0  0  0  0  0  0
   25.2437  -20.5756  -10.3416 C   0  0  1  0  0  0  0  0  0  0  0  0
   25.8199  -19.6948   -9.2547 C   0  0  0  0  0  0  0  0  0  0  0  0
   25.7295  -20.3025  -11.7210 C   0  0  0  0  0  0  0  0  0  0  0  0
   24.9872  -20.9020  -12.8171 C   0  0  2  0  0  0  0  0  0  0  0  0
   25.5579  -20.4894  -14.1183 N   0  0  0  0  0  0  0  0  0  0  0  0
   23.5483  -20.7155  -12.9412 C   0  0  0  0  0  0  0  0  0  0  0  0
   22.7064  -20.7120  -12.0006 O   0  0  0  0  0  0  0  0  0  0  0  0
   21.6410  -17.8777  -14.5781 C   0  0  0  0  0  0  0  0  0  0  0  0
   21.2183  -19.1457  -15.2621 C   0  0  1  0  0  0  0  0  0  0  0  0
   21.9347  -19.3328  -16.4532 O   0  0  0  0  0  0  0  0  0  0  0  0
   21.5236  -20.3071  -14.3315 C   0  0  2  0  0  0  0  0  0  0  0  0
   22.9500  -20.5079  -14.2407 N   0  0  0  0  0  0  0  0  0  0  0  0
   20.9279  -21.5462  -14.8950 C   0  0  0  0  0  0  0  0  0  0  0  0
   21.6469  -22.5187  -15.2187 O   0  0  0  0  0  0  0  0  0  0  0  0
   19.5521  -21.6887  -15.0904 O   0  0  0  0  0  0  0  0  0  0  0  0
  2  1  1  1
  2  3  1  0
  4  2  1  0
  4  5  1  0
  5  7  1  0
  5  6  1  6
  7  8  2  0
 10  9  1  1
 10 12  1  0
 11 10  1  0
 13 12  1  1
 14 13  1  0
 14  7  1  0
 15 16  2  0
 15 13  1  0
 18 17  1  1
 18 20  1  0
 19 18  1  0
 20 21  1  6
 21 15  1  0
 22 20  1  0
 22 24  1  0
 23 22  2  0
M  END
$$$$
