LLT.pdb
     RDKit          3D

 24 23  0  0  1  0  0  0  0  0999 V2000
   16.2941  -11.9089  -17.4133 C   0  0  0  0  0  0  0  0  0  0  0  0
   17.0118  -12.8863  -16.5408 C   0  0  2  0  0  0  0  0  0  0  0  0
   16.0400  -13.7080  -15.7596 C   0  0  0  0  0  0  0  0  0  0  0  0
   17.9473  -12.1165  -15.6182 C   0  0  0  0  0  0  0  0  0  0  0  0
   18.9227  -11.3731  -16.5037 C   0  0  2  0  0  0  0  0  0  0  0  0
   19.6537  -12.3124  -17.3313 N   0  0  0  0  0  0  0  0  0  0  0  0
   19.8677  -10.5494  -15.7158 C   0  0  0  0  0  0  0  0  0  0  0  0
   19.5229   -9.9159  -14.6798 O   0  0  0  0  0  0  0  0  0  0  0  0
   25.8246  -10.9492  -14.6910 C   0  0  0  0  0  0  0  0  0  0  0  0
   24.6797   -9.8908  -14.7312 C   0  0  1  0  0  0  0  0  0  0  0  0
   25.3090   -8.7242  -15.4608 C   0  0  0  0  0  0  0  0  0  0  0  0
   23.4962  -10.5043  -15.3916 C   0  0  0  0  0  0  0  0  0  0  0  0
   22.2560   -9.7471  -15.3681 C   0  0  2  0  0  0  0  0  0  0  0  0
   21.1988  -10.4578  -16.1205 N   0  0  0  0  0  0  0  0  0  0  0  0
   22.2091   -8.3672  -15.8308 C   0  0  0  0  0  0  0  0  0  0  0  0
   22.4016   -7.9625  -17.0109 O   0  0  0  0  0  0  0  0  0  0  0  0
   20.5260   -3.9155  -15.6211 C   0  0  0  0  0  0  0  0  0  0  0  0
   20.4937   -5.3501  -15.1794 C   0  0  1  0  0  0  0  0  0  0  0  0
   19.5781   -6.0872  -15.9443 O   0  0  0  0  0  0  0  0  0  0  0  0
   21.8782   -5.9390  -15.3901 C   0  0  2  0  0  0  0  0  0  0  0  0
   21.9186   -7.2971  -14.9031 N   0  0  0  0  0  0  0  0  0  0  0  0
   22.8629   -5.1488  -14.6067 C   0  0  0  0  0  0  0  0  0  0  0  0
   22.9981   -5.3250  -13.3746 O   0  0  0  0  0  0  0  0  0  0  0  0
   23.6785   -4.1803  -15.1968 O   0  0  0  0  0  0  0  0  0  0  0  0
  2  1  1  1
  2  3  1  0
  4  2  1  0
  4  5  1  0
  5  7  1  0
  5  6  1  1
  7  8  2  0
 10  9  1  6
 10 12  1  0
 11 10  1  0
 13 12  1  6
 14 13  1  0
 14  7  1  0
 15 16  2  0
 15 13  1  0
 18 17  1  6
 18 20  1  0
 19 18  1  0
 20 21  1  1
 21 15  1  0
 22 20  1  0
 22 24  1  0
 23 22  2  0
M  END
$$$$
