LLT.pdb
     RDKit          3D

 24 23  0  0  1  0  0  0  0  0999 V2000
   20.4751  -23.7886  -14.9065 C   0  0  0  0  0  0  0  0  0  0  0  0
   20.2999  -22.5086  -15.6565 C   0  0  2  0  0  0  0  0  0  0  0  0
   20.3129  -22.7548  -17.1293 C   0  0  0  0  0  0  0  0  0  0  0  0
   21.4125  -21.5520  -15.2493 C   0  0  0  0  0  0  0  0  0  0  0  0
   21.2593  -21.3079  -13.7643 C   0  0  2  0  0  0  0  0  0  0  0  0
   20.0829  -20.4981  -13.5154 N   0  0  0  0  0  0  0  0  0  0  0  0
   22.4556  -20.6558  -13.1847 C   0  0  0  0  0  0  0  0  0  0  0  0
   22.7423  -19.4443  -13.3932 O   0  0  0  0  0  0  0  0  0  0  0  0
   25.9095  -19.2958   -9.5866 C   0  0  0  0  0  0  0  0  0  0  0  0
   26.0180  -20.8403   -9.7750 C   0  0  1  0  0  0  0  0  0  0  0  0
   26.2158  -21.3505   -8.3644 C   0  0  0  0  0  0  0  0  0  0  0  0
   24.7909  -21.3158  -10.4688 C   0  0  0  0  0  0  0  0  0  0  0  0
   24.6064  -20.9020  -11.8496 C   0  0  2  0  0  0  0  0  0  0  0  0
   23.3132  -21.3959  -12.3718 N   0  0  0  0  0  0  0  0  0  0  0  0
   25.5932  -21.2268  -12.8699 C   0  0  0  0  0  0  0  0  0  0  0  0
   26.1905  -22.3295  -13.0148 O   0  0  0  0  0  0  0  0  0  0  0  0
   26.2003  -22.9304  -14.8124 C   0  0  0  0  0  0  0  0  0  0  0  0
   26.3913  -21.7433  -15.7117 C   0  0  1  0  0  0  0  0  0  0  0  0
   25.1707  -21.3411  -16.2731 O   0  0  0  0  0  0  0  0  0  0  0  0
   26.9333  -20.5989  -14.8723 C   0  0  2  0  0  0  0  0  0  0  0  0
   25.9792  -20.2379  -13.8512 N   0  0  0  0  0  0  0  0  0  0  0  0
   27.1319  -19.4126  -15.7447 C   0  0  0  0  0  0  0  0  0  0  0  0
   26.4575  -18.3706  -15.5807 O   0  0  0  0  0  0  0  0  0  0  0  0
   28.0695  -19.3985  -16.7801 O   0  0  0  0  0  0  0  0  0  0  0  0
  2  1  1  1
  2  3  1  0
  4  2  1  0
  4  5  1  0
  5  7  1  0
  5  6  1  6
  7  8  2  0
 10  9  1  1
 10 12  1  0
 11 10  1  0
 13 12  1  1
 14 13  1  0
 14  7  1  0
 15 16  2  0
 15 13  1  0
 18 17  1  1
 18 20  1  0
 19 18  1  0
 20 21  1  1
 21 15  1  0
 22 20  1  0
 22 24  1  0
 23 22  2  0
M  END
$$$$
