LLT.pdb
     RDKit          3D

 24 23  0  0  1  0  0  0  0  0999 V2000
   28.1054  -19.0516  -18.0380 C   0  0  0  0  0  0  0  0  0  0  0  0
   28.6284  -18.5703  -16.7241 C   0  0  2  0  0  0  0  0  0  0  0  0
   30.0443  -18.1145  -16.8554 C   0  0  0  0  0  0  0  0  0  0  0  0
   28.5063  -19.7002  -15.7105 C   0  0  0  0  0  0  0  0  0  0  0  0
   27.0420  -20.0739  -15.6445 C   0  0  2  0  0  0  0  0  0  0  0  0
   26.2229  -18.8815  -15.7396 N   0  0  0  0  0  0  0  0  0  0  0  0
   26.7159  -20.8156  -14.4053 C   0  0  0  0  0  0  0  0  0  0  0  0
   27.1910  -21.9560  -14.1460 O   0  0  0  0  0  0  0  0  0  0  0  0
   26.3735  -19.7819   -8.6723 C   0  0  0  0  0  0  0  0  0  0  0  0
   25.9406  -20.8420   -9.7313 C   0  0  1  0  0  0  0  0  0  0  0  0
   24.4942  -21.1147   -9.3805 C   0  0  0  0  0  0  0  0  0  0  0  0
   26.1823  -20.2776  -11.0864 C   0  0  0  0  0  0  0  0  0  0  0  0
   25.4598  -20.8793  -12.1946 C   0  0  2  0  0  0  0  0  0  0  0  0
   25.8490  -20.2458  -13.4737 N   0  0  0  0  0  0  0  0  0  0  0  0
   24.0045  -20.9273  -12.2054 C   0  0  0  0  0  0  0  0  0  0  0  0
   23.2470  -21.0090  -11.1989 O   0  0  0  0  0  0  0  0  0  0  0  0
   21.5674  -18.4853  -13.8209 C   0  0  0  0  0  0  0  0  0  0  0  0
   21.3016  -19.8436  -14.4029 C   0  0  1  0  0  0  0  0  0  0  0  0
   21.9609  -19.9978  -15.6311 O   0  0  0  0  0  0  0  0  0  0  0  0
   21.8402  -20.8840  -13.4356 C   0  0  2  0  0  0  0  0  0  0  0  0
   23.2833  -20.8812  -13.4575 N   0  0  0  0  0  0  0  0  0  0  0  0
   21.3844  -22.2294  -13.8713 C   0  0  0  0  0  0  0  0  0  0  0  0
   22.2021  -23.0914  -14.2660 O   0  0  0  0  0  0  0  0  0  0  0  0
   20.0370  -22.5978  -13.8633 O   0  0  0  0  0  0  0  0  0  0  0  0
  2  1  1  6
  2  3  1  0
  4  2  1  0
  4  5  1  0
  5  7  1  0
  5  6  1  1
  7  8  2  0
 10  9  1  1
 10 12  1  0
 11 10  1  0
 13 12  1  1
 14 13  1  0
 14  7  1  0
 15 16  2  0
 15 13  1  0
 18 17  1  1
 18 20  1  0
 19 18  1  0
 20 21  1  6
 21 15  1  0
 22 20  1  0
 22 24  1  0
 23 22  2  0
M  END
$$$$
