LLT.pdb
     RDKit          3D

 24 23  0  0  1  0  0  0  0  0999 V2000
   21.1815  -11.4373  -21.7417 C   0  0  0  0  0  0  0  0  0  0  0  0
   20.2345  -12.2233  -20.8949 C   0  0  2  0  0  0  0  0  0  0  0  0
   19.2372  -12.9391  -21.7449 C   0  0  0  0  0  0  0  0  0  0  0  0
   19.5477  -11.2715  -19.9247 C   0  0  0  0  0  0  0  0  0  0  0  0
   20.6169  -10.7516  -18.9894 C   0  0  2  0  0  0  0  0  0  0  0  0
   21.2634  -11.8593  -18.3134 N   0  0  0  0  0  0  0  0  0  0  0  0
   20.0677   -9.8018  -17.9952 C   0  0  0  0  0  0  0  0  0  0  0  0
   19.4352   -8.7594  -18.3223 O   0  0  0  0  0  0  0  0  0  0  0  0
   17.3715  -11.4344  -13.6143 C   0  0  0  0  0  0  0  0  0  0  0  0
   17.7976  -10.5267  -14.8089 C   0  0  1  0  0  0  0  0  0  0  0  0
   16.6563   -9.5397  -14.9212 C   0  0  0  0  0  0  0  0  0  0  0  0
   19.1306   -9.9419  -14.5019 C   0  0  0  0  0  0  0  0  0  0  0  0
   19.7728   -9.1667  -15.5501 C   0  0  2  0  0  0  0  0  0  0  0  0
   20.2471  -10.0532  -16.6355 N   0  0  0  0  0  0  0  0  0  0  0  0
   20.8871   -8.2779  -15.2521 C   0  0  0  0  0  0  0  0  0  0  0  0
   22.0985   -8.6079  -15.1213 O   0  0  0  0  0  0  0  0  0  0  0  0
   22.6987   -3.7437  -14.9599 C   0  0  0  0  0  0  0  0  0  0  0  0
   21.5732   -4.6341  -15.4015 C   0  0  1  0  0  0  0  0  0  0  0  0
   21.5682   -4.7772  -16.7966 O   0  0  0  0  0  0  0  0  0  0  0  0
   21.7847   -6.0039  -14.7796 C   0  0  2  0  0  0  0  0  0  0  0  0
   20.6614   -6.8610  -15.0745 N   0  0  0  0  0  0  0  0  0  0  0  0
   21.8650   -5.8564  -13.3033 C   0  0  0  0  0  0  0  0  0  0  0  0
   20.8741   -6.0945  -12.5760 O   0  0  0  0  0  0  0  0  0  0  0  0
   23.0353   -5.4496  -12.6583 O   0  0  0  0  0  0  0  0  0  0  0  0
  2  1  1  6
  2  3  1  0
  4  2  1  0
  4  5  1  0
  5  7  1  0
  5  6  1  1
  7  8  2  0
 10  9  1  1
 10 12  1  0
 11 10  1  0
 13 12  1  1
 14 13  1  0
 14  7  1  0
 15 16  2  0
 15 13  1  0
 18 17  1  6
 18 20  1  0
 19 18  1  0
 20 21  1  1
 21 15  1  0
 22 20  1  0
 22 24  1  0
 23 22  2  0
M  END
$$$$
