LLT.pdb
     RDKit          3D

 24 23  0  0  1  0  0  0  0  0999 V2000
   18.3897  -12.2238  -21.1115 C   0  0  0  0  0  0  0  0  0  0  0  0
   17.2230  -12.4875  -20.2166 C   0  0  2  0  0  0  0  0  0  0  0  0
   15.9571  -12.0061  -20.8453 C   0  0  0  0  0  0  0  0  0  0  0  0
   17.4707  -11.7981  -18.8816 C   0  0  0  0  0  0  0  0  0  0  0  0
   18.7131  -12.4246  -18.2883 C   0  0  2  0  0  0  0  0  0  0  0  0
   18.4545  -13.8103  -17.9499 N   0  0  0  0  0  0  0  0  0  0  0  0
   19.1855  -11.6903  -17.0925 C   0  0  0  0  0  0  0  0  0  0  0  0
   18.6898  -11.8626  -15.9443 O   0  0  0  0  0  0  0  0  0  0  0  0
   21.9516   -9.7503  -13.2820 C   0  0  0  0  0  0  0  0  0  0  0  0
   22.7731   -9.7629  -14.6078 C   0  0  1  0  0  0  0  0  0  0  0  0
   24.1020  -10.3526  -14.1889 C   0  0  0  0  0  0  0  0  0  0  0  0
   22.0125  -10.5392  -15.6239 C   0  0  0  0  0  0  0  0  0  0  0  0
   20.7694   -9.9616  -16.1065 C   0  0  2  0  0  0  0  0  0  0  0  0
   20.2211  -10.7655  -17.2210 N   0  0  0  0  0  0  0  0  0  0  0  0
   20.7071   -8.5766  -16.5519 C   0  0  0  0  0  0  0  0  0  0  0  0
   21.3807   -8.0549  -17.4832 O   0  0  0  0  0  0  0  0  0  0  0  0
   18.0634   -6.7776  -18.1532 C   0  0  0  0  0  0  0  0  0  0  0  0
   18.2997   -6.0087  -16.8853 C   0  0  1  0  0  0  0  0  0  0  0  0
   17.4100   -6.4169  -15.8811 O   0  0  0  0  0  0  0  0  0  0  0  0
   19.7160   -6.2964  -16.4171 C   0  0  2  0  0  0  0  0  0  0  0  0
   19.8064   -7.6450  -15.9108 N   0  0  0  0  0  0  0  0  0  0  0  0
   20.0531   -5.3723  -15.3034 C   0  0  0  0  0  0  0  0  0  0  0  0
   20.2399   -4.1519  -15.5114 O   0  0  0  0  0  0  0  0  0  0  0  0
   20.1774   -5.8116  -13.9832 O   0  0  0  0  0  0  0  0  0  0  0  0
  2  1  1  6
  2  3  1  0
  4  2  1  0
  4  5  1  0
  5  7  1  0
  5  6  1  1
  7  8  2  0
 10  9  1  1
 10 12  1  0
 11 10  1  0
 13 12  1  6
 14 13  1  0
 14  7  1  0
 15 16  2  0
 15 13  1  0
 18 17  1  6
 18 20  1  0
 19 18  1  0
 20 21  1  1
 21 15  1  0
 22 20  1  0
 22 24  1  0
 23 22  2  0
M  END
$$$$
