LLT.pdb
     RDKit          3D

 24 23  0  0  1  0  0  0  0  0999 V2000
   27.3093  -19.1502  -17.9998 C   0  0  0  0  0  0  0  0  0  0  0  0
   26.4005  -18.5361  -16.9855 C   0  0  2  0  0  0  0  0  0  0  0  0
   27.1887  -17.8637  -15.9102 C   0  0  0  0  0  0  0  0  0  0  0  0
   25.5070  -19.6275  -16.4115 C   0  0  0  0  0  0  0  0  0  0  0  0
   26.3890  -20.5137  -15.5601 C   0  0  2  0  0  0  0  0  0  0  0  0
   26.9195  -21.5992  -16.3615 N   0  0  0  0  0  0  0  0  0  0  0  0
   25.6626  -21.0559  -14.3894 C   0  0  0  0  0  0  0  0  0  0  0  0
   24.9434  -22.0916  -14.4506 O   0  0  0  0  0  0  0  0  0  0  0  0
   25.1154  -22.0319   -9.0672 C   0  0  0  0  0  0  0  0  0  0  0  0
   25.0147  -20.5225   -9.4470 C   0  0  1  0  0  0  0  0  0  0  0  0
   25.6374  -19.8219   -8.2592 C   0  0  0  0  0  0  0  0  0  0  0  0
   25.7019  -20.3196  -10.7508 C   0  0  0  0  0  0  0  0  0  0  0  0
   25.0208  -20.7990  -11.9417 C   0  0  2  0  0  0  0  0  0  0  0  0
   25.7655  -20.4081  -13.1590 N   0  0  0  0  0  0  0  0  0  0  0  0
   23.6304  -20.4538  -12.2026 C   0  0  0  0  0  0  0  0  0  0  0  0
   23.1592  -19.2925  -12.3536 O   0  0  0  0  0  0  0  0  0  0  0  0
   21.4479  -21.0703  -15.0062 C   0  0  0  0  0  0  0  0  0  0  0  0
   20.7759  -21.7649  -13.8571 C   0  0  1  0  0  0  0  0  0  0  0  0
   21.1180  -23.1247  -13.8271 O   0  0  0  0  0  0  0  0  0  0  0  0
   21.2596  -21.1203  -12.5693 C   0  0  2  0  0  0  0  0  0  0  0  0
   22.6305  -21.4921  -12.3133 N   0  0  0  0  0  0  0  0  0  0  0  0
   20.4365  -21.6235  -11.4392 C   0  0  0  0  0  0  0  0  0  0  0  0
   20.9570  -22.2591  -10.4944 O   0  0  0  0  0  0  0  0  0  0  0  0
   19.0566  -21.4163  -11.3730 O   0  0  0  0  0  0  0  0  0  0  0  0
  2  1  1  6
  2  3  1  0
  4  2  1  0
  4  5  1  0
  5  7  1  0
  5  6  1  6
  7  8  2  0
 10  9  1  1
 10 12  1  0
 11 10  1  0
 13 12  1  1
 14 13  1  0
 14  7  1  0
 15 16  2  0
 15 13  1  0
 18 17  1  6
 18 20  1  0
 19 18  1  0
 20 21  1  1
 21 15  1  0
 22 20  1  0
 22 24  1  0
 23 22  2  0
M  END
$$$$
