LLT.pdb
     RDKit          3D

 24 23  0  0  1  0  0  0  0  0999 V2000
   24.4278  -13.5714  -15.9694 C   0  0  0  0  0  0  0  0  0  0  0  0
   24.3731  -13.3914  -17.4514 C   0  0  2  0  0  0  0  0  0  0  0  0
   25.6752  -13.7701  -18.0766 C   0  0  0  0  0  0  0  0  0  0  0  0
   24.0208  -11.9405  -17.7507 C   0  0  0  0  0  0  0  0  0  0  0  0
   22.7198  -11.6488  -17.0363 C   0  0  2  0  0  0  0  0  0  0  0  0
   21.6981  -12.5816  -17.4696 N   0  0  0  0  0  0  0  0  0  0  0  0
   22.2649  -10.2579  -17.2618 C   0  0  0  0  0  0  0  0  0  0  0  0
   22.9973   -9.2544  -17.0381 O   0  0  0  0  0  0  0  0  0  0  0  0
   20.1233   -6.5680  -20.2255 C   0  0  0  0  0  0  0  0  0  0  0  0
   18.9717   -7.4909  -19.7208 C   0  0  1  0  0  0  0  0  0  0  0  0
   18.0640   -7.6062  -20.9257 C   0  0  0  0  0  0  0  0  0  0  0  0
   19.5690   -8.7646  -19.2366 C   0  0  0  0  0  0  0  0  0  0  0  0
   20.4301   -8.6920  -18.0682 C   0  0  2  0  0  0  0  0  0  0  0  0
   20.9760  -10.0277  -17.7413 N   0  0  0  0  0  0  0  0  0  0  0  0
   19.9437   -8.1462  -16.8088 C   0  0  0  0  0  0  0  0  0  0  0  0
   19.0723   -8.6591  -16.0532 O   0  0  0  0  0  0  0  0  0  0  0  0
   20.9707   -8.0237  -13.6312 C   0  0  0  0  0  0  0  0  0  0  0  0
   20.9197   -6.5567  -13.9468 C   0  0  1  0  0  0  0  0  0  0  0  0
   22.1750   -6.0926  -14.3658 O   0  0  0  0  0  0  0  0  0  0  0  0
   19.9300   -6.3531  -15.0812 C   0  0  2  0  0  0  0  0  0  0  0  0
   20.4643   -6.8938  -16.3082 N   0  0  0  0  0  0  0  0  0  0  0  0
   19.7206   -4.8960  -15.2832 C   0  0  0  0  0  0  0  0  0  0  0  0
   20.0430   -4.3404  -16.3578 O   0  0  0  0  0  0  0  0  0  0  0  0
   19.1602   -4.0807  -14.2970 O   0  0  0  0  0  0  0  0  0  0  0  0
  2  1  1  1
  2  3  1  0
  4  2  1  0
  4  5  1  0
  5  7  1  0
  5  6  1  6
  7  8  2  0
 10  9  1  6
 10 12  1  0
 11 10  1  0
 13 12  1  6
 14 13  1  0
 14  7  1  0
 15 16  2  0
 15 13  1  0
 18 17  1  6
 18 20  1  0
 19 18  1  0
 20 21  1  6
 21 15  1  0
 22 20  1  0
 22 24  1  0
 23 22  2  0
M  END
$$$$
