LLT.pdb
     RDKit          3D

 24 23  0  0  1  0  0  0  0  0999 V2000
   20.7553  -31.0784   -9.6573 C   0  0  0  0  0  0  0  0  0  0  0  0
   21.8827  -30.4029  -10.3674 C   0  0  2  0  0  0  0  0  0  0  0  0
   23.1820  -30.6961   -9.6923 C   0  0  0  0  0  0  0  0  0  0  0  0
   21.6064  -28.9058  -10.4014 C   0  0  0  0  0  0  0  0  0  0  0  0
   20.3300  -28.7131  -11.1900 C   0  0  2  0  0  0  0  0  0  0  0  0
   20.3893  -29.4773  -12.4206 N   0  0  0  0  0  0  0  0  0  0  0  0
   20.0761  -27.2859  -11.4912 C   0  0  0  0  0  0  0  0  0  0  0  0
   20.0227  -26.3973  -10.5961 O   0  0  0  0  0  0  0  0  0  0  0  0
   21.3741  -23.3433  -14.7353 C   0  0  0  0  0  0  0  0  0  0  0  0
   20.0289  -23.9702  -15.2150 C   0  0  1  0  0  0  0  0  0  0  0  0
   20.1111  -23.8609  -16.7218 C   0  0  0  0  0  0  0  0  0  0  0  0
   19.9344  -25.3516  -14.6708 C   0  0  0  0  0  0  0  0  0  0  0  0
   19.6811  -25.4881  -13.2463 C   0  0  2  0  0  0  0  0  0  0  0  0
   19.8857  -26.8881  -12.8139 N   0  0  0  0  0  0  0  0  0  0  0  0
   18.4097  -25.0784  -12.6665 C   0  0  0  0  0  0  0  0  0  0  0  0
   17.3012  -25.6696  -12.7902 O   0  0  0  0  0  0  0  0  0  0  0  0
   17.1543  -24.9371   -9.3351 C   0  0  0  0  0  0  0  0  0  0  0  0
   17.1126  -23.5062   -9.7880 C   0  0  1  0  0  0  0  0  0  0  0  0
   18.2681  -22.8214   -9.3847 O   0  0  0  0  0  0  0  0  0  0  0  0
   17.0535  -23.4942  -11.3060 C   0  0  2  0  0  0  0  0  0  0  0  0
   18.3300  -23.8846  -11.8550 N   0  0  0  0  0  0  0  0  0  0  0  0
   16.7677  -22.1108  -11.7668 C   0  0  0  0  0  0  0  0  0  0  0  0
   17.5979  -21.4755  -12.4557 O   0  0  0  0  0  0  0  0  0  0  0  0
   15.5729  -21.4556  -11.4593 O   0  0  0  0  0  0  0  0  0  0  0  0
  2  1  1  1
  2  3  1  0
  4  2  1  0
  4  5  1  0
  5  7  1  0
  5  6  1  6
  7  8  2  0
 10  9  1  1
 10 12  1  0
 11 10  1  0
 13 12  1  6
 14 13  1  0
 14  7  1  0
 15 16  2  0
 15 13  1  0
 18 17  1  6
 18 20  1  0
 19 18  1  0
 20 21  1  6
 21 15  1  0
 22 20  1  0
 22 24  1  0
 23 22  2  0
M  END
$$$$
