LLT.pdb
     RDKit          3D

 24 23  0  0  1  0  0  0  0  0999 V2000
   11.0066  -22.4770    0.9312 C   0  0  0  0  0  0  0  0  0  0  0  0
   11.9404  -23.6414    0.9922 C   0  0  2  0  0  0  0  0  0  0  0  0
   11.2564  -24.8356    1.5717 C   0  0  0  0  0  0  0  0  0  0  0  0
   13.1542  -23.2463    1.8225 C   0  0  0  0  0  0  0  0  0  0  0  0
   13.8794  -22.1652    1.0521 C   0  0  2  0  0  0  0  0  0  0  0  0
   14.2426  -22.6547   -0.2633 N   0  0  0  0  0  0  0  0  0  0  0  0
   15.0859  -21.6910    1.7676 C   0  0  0  0  0  0  0  0  0  0  0  0
   16.1550  -22.3599    1.8231 O   0  0  0  0  0  0  0  0  0  0  0  0
   19.1099  -18.7822    3.1271 C   0  0  0  0  0  0  0  0  0  0  0  0
   17.8073  -17.9283    3.0452 C   0  0  1  0  0  0  0  0  0  0  0  0
   18.2495  -16.6887    2.2988 C   0  0  0  0  0  0  0  0  0  0  0  0
   16.7537  -18.7420    2.3809 C   0  0  0  0  0  0  0  0  0  0  0  0
   16.2065  -19.8597    3.1313 C   0  0  2  0  0  0  0  0  0  0  0  0
   15.0583  -20.4554    2.4131 N   0  0  0  0  0  0  0  0  0  0  0  0
   15.7670  -19.6963    4.5099 C   0  0  0  0  0  0  0  0  0  0  0  0
   14.7707  -19.0313    4.9080 O   0  0  0  0  0  0  0  0  0  0  0  0
   14.4448  -22.0681    6.9670 C   0  0  0  0  0  0  0  0  0  0  0  0
   15.7359  -21.5580    7.5391 C   0  0  1  0  0  0  0  0  0  0  0  0
   16.7999  -22.4084    7.2052 O   0  0  0  0  0  0  0  0  0  0  0  0
   16.0091  -20.1896    6.9384 C   0  0  2  0  0  0  0  0  0  0  0  0
   16.4949  -20.3296    5.5865 N   0  0  0  0  0  0  0  0  0  0  0  0
   17.0700  -19.5173    7.7323 C   0  0  0  0  0  0  0  0  0  0  0  0
   16.8583  -19.1464    8.9092 O   0  0  0  0  0  0  0  0  0  0  0  0
   18.3426  -19.2674    7.2134 O   0  0  0  0  0  0  0  0  0  0  0  0
  2  1  1  1
  2  3  1  0
  4  2  1  0
  4  5  1  0
  5  7  1  0
  5  6  1  6
  7  8  2  0
 10  9  1  6
 10 12  1  0
 11 10  1  0
 13 12  1  6
 14 13  1  0
 14  7  1  0
 15 16  2  0
 15 13  1  0
 18 17  1  6
 18 20  1  0
 19 18  1  0
 20 21  1  6
 21 15  1  0
 22 20  1  0
 22 24  1  0
 23 22  2  0
M  END
$$$$
