LLT.pdb
     RDKit          3D

 24 23  0  0  1  0  0  0  0  0999 V2000
   15.4390   -9.1632  -18.0947 C   0  0  0  0  0  0  0  0  0  0  0  0
   15.7797  -10.2883  -17.1730 C   0  0  2  0  0  0  0  0  0  0  0  0
   14.5423  -10.8754  -16.5782 C   0  0  0  0  0  0  0  0  0  0  0  0
   16.7138   -9.7627  -16.0912 C   0  0  0  0  0  0  0  0  0  0  0  0
   17.8865   -9.1204  -16.7985 C   0  0  2  0  0  0  0  0  0  0  0  0
   18.6293  -10.1240  -17.5352 N   0  0  0  0  0  0  0  0  0  0  0  0
   18.7840   -8.4169  -15.8541 C   0  0  0  0  0  0  0  0  0  0  0  0
   18.3550   -7.6767  -14.9259 O   0  0  0  0  0  0  0  0  0  0  0  0
   23.5332  -10.9201  -14.3762 C   0  0  0  0  0  0  0  0  0  0  0  0
   22.1721  -10.1621  -14.3020 C   0  0  1  0  0  0  0  0  0  0  0  0
   21.8762  -10.1214  -12.8187 C   0  0  0  0  0  0  0  0  0  0  0  0
   22.3340   -8.8405  -14.9657 C   0  0  0  0  0  0  0  0  0  0  0  0
   21.1582   -7.9904  -15.0479 C   0  0  2  0  0  0  0  0  0  0  0  0
   20.1645   -8.5666  -15.9803 N   0  0  0  0  0  0  0  0  0  0  0  0
   21.2709   -6.5848  -15.4114 C   0  0  0  0  0  0  0  0  0  0  0  0
   21.6005   -6.1236  -16.5393 O   0  0  0  0  0  0  0  0  0  0  0  0
   19.0084   -3.9370  -15.9112 C   0  0  0  0  0  0  0  0  0  0  0  0
   19.8438   -3.4417  -14.7662 C   0  0  1  0  0  0  0  0  0  0  0  0
   19.2228   -3.7175  -13.5394 O   0  0  0  0  0  0  0  0  0  0  0  0
   21.1755   -4.1719  -14.8044 C   0  0  2  0  0  0  0  0  0  0  0  0
   20.9930   -5.5553  -14.4353 N   0  0  0  0  0  0  0  0  0  0  0  0
   22.0920   -3.5562  -13.8100 C   0  0  0  0  0  0  0  0  0  0  0  0
   22.5000   -4.2049  -12.8199 O   0  0  0  0  0  0  0  0  0  0  0  0
   22.5404   -2.2384  -13.9268 O   0  0  0  0  0  0  0  0  0  0  0  0
  2  1  1  6
  2  3  1  0
  4  2  1  0
  4  5  1  0
  5  7  1  0
  5  6  1  1
  7  8  2  0
 10  9  1  1
 10 12  1  0
 11 10  1  0
 13 12  1  6
 14 13  1  0
 14  7  1  0
 15 16  2  0
 15 13  1  0
 18 17  1  6
 18 20  1  0
 19 18  1  0
 20 21  1  1
 21 15  1  0
 22 20  1  0
 22 24  1  0
 23 22  2  0
M  END
$$$$
