KQV.pdb
     RDKit          3D

 26 25  0  0  1  0  0  0  0  0999 V2000
    8.9501  -16.6430   19.9967 N   0  0  0  0  0  0  0  0  0  0  0  0
    8.4741  -15.3477   20.3851 C   0  0  1  0  0  0  0  0  0  0  0  0
    7.5421  -14.7289   19.4009 C   0  0  0  0  0  0  0  0  0  0  0  0
    7.8690  -14.9190   17.9693 C   0  0  0  0  0  0  0  0  0  0  0  0
    7.9142  -13.7223   17.1001 C   0  0  0  0  0  0  0  0  0  0  0  0
    8.1961  -13.9790   15.6501 C   0  0  0  0  0  0  0  0  0  0  0  0
    8.1666  -12.8294   14.8137 N   0  0  0  0  0  0  0  0  0  0  0  0
    7.8698  -15.4564   21.7460 C   0  0  0  0  0  0  0  0  0  0  0  0
    7.1666  -14.4881   22.2103 O   0  0  0  0  0  0  0  0  0  0  0  0
    8.4339  -20.5458   25.5618 N   0  0  0  0  0  0  0  0  0  0  0  0
    7.5325  -19.7336   26.2790 C   0  0  0  0  0  0  0  0  0  0  0  0
    7.0812  -20.1223   27.3700 O   0  0  0  0  0  0  0  0  0  0  0  0
    7.1321  -18.4261   25.7255 C   0  0  0  0  0  0  0  0  0  0  0  0
    7.6797  -18.1143   24.3883 C   0  0  0  0  0  0  0  0  0  0  0  0
    7.3500  -16.7563   23.8588 C   0  0  2  0  0  0  0  0  0  0  0  0
    8.0409  -16.5960   22.5603 N   0  0  0  0  0  0  0  0  0  0  0  0
    7.9234  -15.7079   24.7298 C   0  0  0  0  0  0  0  0  0  0  0  0
    9.1792  -15.4510   24.7347 O   0  0  0  0  0  0  0  0  0  0  0  0
    6.1804  -12.1956   25.5370 C   0  0  0  0  0  0  0  0  0  0  0  0
    6.7030  -12.8842   26.7898 C   0  0  2  0  0  0  0  0  0  0  0  0
    7.3160  -11.7694   27.6462 C   0  0  0  0  0  0  0  0  0  0  0  0
    7.8038  -13.8630   26.4026 C   0  0  2  0  0  0  0  0  0  0  0  0
    7.1614  -14.9039   25.6158 N   0  0  0  0  0  0  0  0  0  0  0  0
    8.3738  -14.3864   27.6590 C   0  0  0  0  0  0  0  0  0  0  0  0
    9.2876  -13.5949   28.3397 O   0  0  0  0  0  0  0  0  0  0  0  0
    8.0954  -15.5023   28.1671 O   0  0  0  0  0  0  0  0  0  0  0  0
  2  1  1  6
  3  2  1  0
  4  3  1  0
  5  4  1  0
  5  6  1  0
  7  6  1  0
  8  9  2  0
  8  2  1  0
 10 11  1  0
 11 12  2  0
 11 13  1  0
 13 14  1  0
 15 14  1  1
 15 16  1  0
 16  8  1  0
 17 15  1  0
 18 17  2  0
 20 19  1  6
 20 22  1  0
 21 20  1  0
 22 23  1  6
 22 24  1  0
 23 17  1  0
 24 25  1  0
 26 24  2  0
M  END
$$$$
