KQV.pdb
     RDKit          3D

 26 25  0  0  1  0  0  0  0  0999 V2000
    7.9008  -17.9350   19.0275 N   0  0  0  0  0  0  0  0  0  0  0  0
    8.4351  -16.7911   19.7069 C   0  0  1  0  0  0  0  0  0  0  0  0
    8.0542  -15.4907   19.0872 C   0  0  0  0  0  0  0  0  0  0  0  0
    8.4191  -15.3030   17.6646 C   0  0  0  0  0  0  0  0  0  0  0  0
    8.2278  -13.9629   17.0671 C   0  0  0  0  0  0  0  0  0  0  0  0
    8.5765  -13.8401   15.6141 C   0  0  0  0  0  0  0  0  0  0  0  0
    8.3589  -12.5555   15.0446 N   0  0  0  0  0  0  0  0  0  0  0  0
    8.0404  -16.8703   21.1446 C   0  0  0  0  0  0  0  0  0  0  0  0
    6.8730  -17.2993   21.4623 O   0  0  0  0  0  0  0  0  0  0  0  0
   12.3301  -18.4282   25.3861 N   0  0  0  0  0  0  0  0  0  0  0  0
   12.0498  -17.4934   24.3691 C   0  0  0  0  0  0  0  0  0  0  0  0
   12.7913  -16.5084   24.2111 O   0  0  0  0  0  0  0  0  0  0  0  0
   10.8750  -17.6941   23.4997 C   0  0  0  0  0  0  0  0  0  0  0  0
    9.5674  -17.6476   24.1877 C   0  0  0  0  0  0  0  0  0  0  0  0
    8.5733  -16.6896   23.6159 C   0  0  2  0  0  0  0  0  0  0  0  0
    8.9081  -16.4866   22.1891 N   0  0  0  0  0  0  0  0  0  0  0  0
    8.7224  -15.3563   24.2377 C   0  0  0  0  0  0  0  0  0  0  0  0
    9.6186  -14.5282   23.8452 O   0  0  0  0  0  0  0  0  0  0  0  0
    7.0556  -11.4060   26.3766 C   0  0  0  0  0  0  0  0  0  0  0  0
    6.8741  -12.7788   25.7447 C   0  0  2  0  0  0  0  0  0  0  0  0
    5.7798  -13.4690   26.5682 C   0  0  0  0  0  0  0  0  0  0  0  0
    8.1661  -13.5724   25.8883 C   0  0  2  0  0  0  0  0  0  0  0  0
    7.9088  -14.8753   25.2954 N   0  0  0  0  0  0  0  0  0  0  0  0
    8.4544  -13.6650   27.3326 C   0  0  0  0  0  0  0  0  0  0  0  0
    8.3531  -14.9087   27.9390 O   0  0  0  0  0  0  0  0  0  0  0  0
    8.7875  -12.6986   28.0646 O   0  0  0  0  0  0  0  0  0  0  0  0
  2  1  1  6
  3  2  1  0
  4  3  1  0
  5  4  1  0
  5  6  1  0
  7  6  1  0
  8  9  2  0
  8  2  1  0
 10 11  1  0
 11 12  2  0
 11 13  1  0
 13 14  1  0
 15 14  1  1
 15 16  1  0
 16  8  1  0
 17 15  1  0
 18 17  2  0
 20 19  1  1
 20 22  1  0
 21 20  1  0
 22 23  1  1
 22 24  1  0
 23 17  1  0
 24 25  1  0
 26 24  2  0
M  END
$$$$
