KQV.pdb
     RDKit          3D

 26 25  0  0  1  0  0  0  0  0999 V2000
    8.2580  -15.9682   19.7133 N   0  0  0  0  0  0  0  0  0  0  0  0
    7.9916  -14.6926   20.3111 C   0  0  1  0  0  0  0  0  0  0  0  0
    7.0569  -13.8416   19.5222 C   0  0  0  0  0  0  0  0  0  0  0  0
    7.5197  -13.4168   18.1815 C   0  0  0  0  0  0  0  0  0  0  0  0
    8.0439  -14.4532   17.2646 C   0  0  0  0  0  0  0  0  0  0  0  0
    8.6029  -13.9538   15.9661 C   0  0  0  0  0  0  0  0  0  0  0  0
    9.0235  -14.9642   15.0583 N   0  0  0  0  0  0  0  0  0  0  0  0
    7.5112  -14.9177   21.7067 C   0  0  0  0  0  0  0  0  0  0  0  0
    6.9744  -13.9515   22.3596 O   0  0  0  0  0  0  0  0  0  0  0  0
    7.9685  -20.4526   24.8666 N   0  0  0  0  0  0  0  0  0  0  0  0
    7.2620  -19.6427   25.7786 C   0  0  0  0  0  0  0  0  0  0  0  0
    6.9332  -20.0990   26.8870 O   0  0  0  0  0  0  0  0  0  0  0  0
    6.9185  -18.2570   25.4068 C   0  0  0  0  0  0  0  0  0  0  0  0
    7.3601  -17.8389   24.0595 C   0  0  0  0  0  0  0  0  0  0  0  0
    7.0346  -16.4294   23.6844 C   0  0  2  0  0  0  0  0  0  0  0  0
    7.6237  -16.1670   22.3528 N   0  0  0  0  0  0  0  0  0  0  0  0
    7.7110  -15.4818   24.5960 C   0  0  0  0  0  0  0  0  0  0  0  0
    8.9759  -15.2823   24.5401 O   0  0  0  0  0  0  0  0  0  0  0  0
    6.0306  -12.0518   25.7927 C   0  0  0  0  0  0  0  0  0  0  0  0
    6.7206  -12.7828   26.9357 C   0  0  2  0  0  0  0  0  0  0  0  0
    7.4291  -11.6944   27.7514 C   0  0  0  0  0  0  0  0  0  0  0  0
    7.7712  -13.7270   26.3662 C   0  0  2  0  0  0  0  0  0  0  0  0
    7.0450  -14.7193   25.5896 N   0  0  0  0  0  0  0  0  0  0  0  0
    8.4770  -14.3266   27.5150 C   0  0  0  0  0  0  0  0  0  0  0  0
    9.4996  -13.5974   28.1045 O   0  0  0  0  0  0  0  0  0  0  0  0
    8.2238  -15.4555   28.0073 O   0  0  0  0  0  0  0  0  0  0  0  0
  2  1  1  6
  3  2  1  0
  4  3  1  0
  5  4  1  0
  5  6  1  0
  7  6  1  0
  8  9  2  0
  8  2  1  0
 10 11  1  0
 11 12  2  0
 11 13  1  0
 13 14  1  0
 15 14  1  1
 15 16  1  0
 16  8  1  0
 17 15  1  0
 18 17  2  0
 20 19  1  6
 20 22  1  0
 21 20  1  0
 22 23  1  1
 22 24  1  0
 23 17  1  0
 24 25  1  0
 26 24  2  0
M  END
$$$$
