KQV.pdb
     RDKit          3D

 26 25  0  0  1  0  0  0  0  0999 V2000
    6.8483  -20.1701   16.5986 N   0  0  0  0  0  0  0  0  0  0  0  0
    6.3644  -19.4766   17.7562 C   0  0  1  0  0  0  0  0  0  0  0  0
    5.7398  -20.3674   18.7743 C   0  0  0  0  0  0  0  0  0  0  0  0
    5.5932  -21.7938   18.4053 C   0  0  0  0  0  0  0  0  0  0  0  0
    5.9029  -22.8143   19.4311 C   0  0  0  0  0  0  0  0  0  0  0  0
    5.6426  -24.2370   19.0361 C   0  0  0  0  0  0  0  0  0  0  0  0
    5.9783  -25.2100   20.0172 N   0  0  0  0  0  0  0  0  0  0  0  0
    7.4839  -18.6672   18.3227 C   0  0  0  0  0  0  0  0  0  0  0  0
    8.6990  -19.0108   18.0920 O   0  0  0  0  0  0  0  0  0  0  0  0
    6.7784  -12.6328   19.9490 N   0  0  0  0  0  0  0  0  0  0  0  0
    8.1727  -12.8062   20.0600 C   0  0  0  0  0  0  0  0  0  0  0  0
    8.9058  -11.8223   20.2587 O   0  0  0  0  0  0  0  0  0  0  0  0
    8.7500  -14.1584   19.9386 C   0  0  0  0  0  0  0  0  0  0  0  0
    7.7937  -15.2193   19.5577 C   0  0  0  0  0  0  0  0  0  0  0  0
    8.3543  -16.6036   19.5091 C   0  0  2  0  0  0  0  0  0  0  0  0
    7.2626  -17.5214   19.1158 N   0  0  0  0  0  0  0  0  0  0  0  0
    8.7584  -17.0461   20.8609 C   0  0  0  0  0  0  0  0  0  0  0  0
    7.8922  -17.3580   21.7528 O   0  0  0  0  0  0  0  0  0  0  0  0
   12.0322  -19.2247   21.6385 C   0  0  0  0  0  0  0  0  0  0  0  0
   11.8698  -18.0661   22.6121 C   0  0  2  0  0  0  0  0  0  0  0  0
   12.2342  -18.6326   23.9899 C   0  0  0  0  0  0  0  0  0  0  0  0
   10.4107  -17.6299   22.6345 C   0  0  2  0  0  0  0  0  0  0  0  0
   10.1051  -17.1700   21.2891 N   0  0  0  0  0  0  0  0  0  0  0  0
   10.3018  -16.5472   23.6313 C   0  0  0  0  0  0  0  0  0  0  0  0
    9.8766  -16.8786   24.9096 O   0  0  0  0  0  0  0  0  0  0  0  0
   10.5659  -15.3375   23.4132 O   0  0  0  0  0  0  0  0  0  0  0  0
  2  1  1  6
  3  2  1  0
  4  3  1  0
  5  4  1  0
  5  6  1  0
  7  6  1  0
  8  9  2  0
  8  2  1  0
 10 11  1  0
 11 12  2  0
 11 13  1  0
 13 14  1  0
 15 14  1  1
 15 16  1  0
 16  8  1  0
 17 15  1  0
 18 17  2  0
 20 19  1  6
 20 22  1  0
 21 20  1  0
 22 23  1  6
 22 24  1  0
 23 17  1  0
 24 25  1  0
 26 24  2  0
M  END
$$$$
