KQV.pdb
     RDKit          3D

 26 25  0  0  1  0  0  0  0  0999 V2000
    4.9992  -18.1212   23.7427 N   0  0  0  0  0  0  0  0  0  0  0  0
    6.1632  -18.9177   23.4855 C   0  0  1  0  0  0  0  0  0  0  0  0
    5.9160  -20.0666   22.5694 C   0  0  0  0  0  0  0  0  0  0  0  0
    4.5081  -20.3156   22.1845 C   0  0  0  0  0  0  0  0  0  0  0  0
    4.2172  -21.4838   21.3242 C   0  0  0  0  0  0  0  0  0  0  0  0
    2.7906  -21.6342   20.8881 C   0  0  0  0  0  0  0  0  0  0  0  0
    2.5162  -22.7836   20.0972 N   0  0  0  0  0  0  0  0  0  0  0  0
    7.2476  -18.0201   22.9880 C   0  0  0  0  0  0  0  0  0  0  0  0
    8.3840  -18.5166   22.6566 O   0  0  0  0  0  0  0  0  0  0  0  0
    7.5535  -12.0141   19.4001 N   0  0  0  0  0  0  0  0  0  0  0  0
    8.0603  -13.3292   19.3903 C   0  0  0  0  0  0  0  0  0  0  0  0
    8.1140  -13.9648   18.3235 O   0  0  0  0  0  0  0  0  0  0  0  0
    8.5231  -13.9403   20.6508 C   0  0  0  0  0  0  0  0  0  0  0  0
    7.5875  -14.9078   21.2621 C   0  0  0  0  0  0  0  0  0  0  0  0
    8.1505  -15.7330   22.3734 C   0  0  2  0  0  0  0  0  0  0  0  0
    7.0770  -16.6249   22.8646 N   0  0  0  0  0  0  0  0  0  0  0  0
    8.4967  -14.8778   23.5290 C   0  0  0  0  0  0  0  0  0  0  0  0
    9.4458  -14.0184   23.4685 O   0  0  0  0  0  0  0  0  0  0  0  0
    6.4094  -12.5567   25.3530 C   0  0  0  0  0  0  0  0  0  0  0  0
    7.0438  -13.4087   26.4432 C   0  0  2  0  0  0  0  0  0  0  0  0
    7.4757  -12.4232   27.5360 C   0  0  0  0  0  0  0  0  0  0  0  0
    8.2847  -14.0940   25.8863 C   0  0  2  0  0  0  0  0  0  0  0  0
    7.8286  -14.9200   24.7796 N   0  0  0  0  0  0  0  0  0  0  0  0
    8.8585  -14.8987   26.9822 C   0  0  0  0  0  0  0  0  0  0  0  0
    8.8405  -16.2801   26.8548 O   0  0  0  0  0  0  0  0  0  0  0  0
    9.3670  -14.4288   28.0316 O   0  0  0  0  0  0  0  0  0  0  0  0
  2  1  1  6
  3  2  1  0
  4  3  1  0
  5  4  1  0
  5  6  1  0
  7  6  1  0
  8  9  2  0
  8  2  1  0
 10 11  1  0
 11 12  2  0
 11 13  1  0
 13 14  1  0
 15 14  1  6
 15 16  1  0
 16  8  1  0
 17 15  1  0
 18 17  2  0
 20 19  1  6
 20 22  1  0
 21 20  1  0
 22 23  1  6
 22 24  1  0
 23 17  1  0
 24 25  1  0
 26 24  2  0
M  END
$$$$
