KQV.pdb
     RDKit          3D

 26 25  0  0  1  0  0  0  0  0999 V2000
    6.7400  -17.0502   19.6382 N   0  0  0  0  0  0  0  0  0  0  0  0
    7.5386  -16.0609   20.3008 C   0  0  1  0  0  0  0  0  0  0  0  0
    7.1011  -14.6607   20.0399 C   0  0  0  0  0  0  0  0  0  0  0  0
    7.3418  -14.1349   18.6768 C   0  0  0  0  0  0  0  0  0  0  0  0
    8.2124  -12.9471   18.5318 C   0  0  0  0  0  0  0  0  0  0  0  0
    8.3296  -12.3890   17.1452 C   0  0  0  0  0  0  0  0  0  0  0  0
    8.5916  -13.3459   16.1265 N   0  0  0  0  0  0  0  0  0  0  0  0
    7.5715  -16.3814   21.7587 C   0  0  0  0  0  0  0  0  0  0  0  0
    6.4767  -16.6275   22.3820 O   0  0  0  0  0  0  0  0  0  0  0  0
   12.7059  -18.2250   26.0715 N   0  0  0  0  0  0  0  0  0  0  0  0
   11.4095  -18.7515   25.9024 C   0  0  0  0  0  0  0  0  0  0  0  0
   11.2253  -19.9789   25.9700 O   0  0  0  0  0  0  0  0  0  0  0  0
   10.2804  -17.8374   25.6455 C   0  0  0  0  0  0  0  0  0  0  0  0
   10.0133  -17.5520   24.2199 C   0  0  0  0  0  0  0  0  0  0  0  0
    8.8065  -16.7140   23.9468 C   0  0  2  0  0  0  0  0  0  0  0  0
    8.7737  -16.4255   22.4961 N   0  0  0  0  0  0  0  0  0  0  0  0
    8.9361  -15.3924   24.5973 C   0  0  0  0  0  0  0  0  0  0  0  0
    9.8447  -14.5581   24.2489 O   0  0  0  0  0  0  0  0  0  0  0  0
    7.0827  -11.5175   26.7652 C   0  0  0  0  0  0  0  0  0  0  0  0
    6.9630  -12.8866   26.1110 C   0  0  2  0  0  0  0  0  0  0  0  0
    5.9156  -13.6458   26.9348 C   0  0  0  0  0  0  0  0  0  0  0  0
    8.2953  -13.6158   26.2251 C   0  0  2  0  0  0  0  0  0  0  0  0
    8.0891  -14.9298   25.6369 N   0  0  0  0  0  0  0  0  0  0  0  0
    8.6199  -13.6938   27.6625 C   0  0  0  0  0  0  0  0  0  0  0  0
    8.5582  -14.9356   28.2781 O   0  0  0  0  0  0  0  0  0  0  0  0
    8.9509  -12.7165   28.3808 O   0  0  0  0  0  0  0  0  0  0  0  0
  2  1  1  6
  3  2  1  0
  4  3  1  0
  5  4  1  0
  5  6  1  0
  7  6  1  0
  8  9  2  0
  8  2  1  0
 10 11  1  0
 11 12  2  0
 11 13  1  0
 13 14  1  0
 15 14  1  6
 15 16  1  0
 16  8  1  0
 17 15  1  0
 18 17  2  0
 20 19  1  1
 20 22  1  0
 21 20  1  0
 22 23  1  1
 22 24  1  0
 23 17  1  0
 24 25  1  0
 26 24  2  0
M  END
$$$$
