KQV.pdb
     RDKit          3D

 26 25  0  0  1  0  0  0  0  0999 V2000
    7.1863  -17.5632   19.8747 N   0  0  0  0  0  0  0  0  0  0  0  0
    8.0783  -16.6385   20.5107 C   0  0  1  0  0  0  0  0  0  0  0  0
    7.9349  -15.2357   20.0294 C   0  0  0  0  0  0  0  0  0  0  0  0
    8.3368  -14.9719   18.6289 C   0  0  0  0  0  0  0  0  0  0  0  0
    8.3642  -13.5671   18.1648 C   0  0  0  0  0  0  0  0  0  0  0  0
    8.5522  -13.3703   16.6904 C   0  0  0  0  0  0  0  0  0  0  0  0
    8.5367  -12.0176   16.2522 N   0  0  0  0  0  0  0  0  0  0  0  0
    7.8982  -16.7511   21.9886 C   0  0  0  0  0  0  0  0  0  0  0  0
    6.7177  -16.8639   22.4800 O   0  0  0  0  0  0  0  0  0  0  0  0
   12.1665  -19.0762   25.9107 N   0  0  0  0  0  0  0  0  0  0  0  0
   11.2221  -18.5706   26.8266 C   0  0  0  0  0  0  0  0  0  0  0  0
   11.3951  -18.7305   28.0471 O   0  0  0  0  0  0  0  0  0  0  0  0
   10.0334  -17.8546   26.3258 C   0  0  0  0  0  0  0  0  0  0  0  0
    9.9531  -17.7191   24.8560 C   0  0  0  0  0  0  0  0  0  0  0  0
    8.8149  -16.8953   24.3471 C   0  0  2  0  0  0  0  0  0  0  0  0
    8.9869  -16.7376   22.8861 N   0  0  0  0  0  0  0  0  0  0  0  0
    8.8858  -15.5222   24.8916 C   0  0  0  0  0  0  0  0  0  0  0  0
    9.7734  -14.6870   24.4947 O   0  0  0  0  0  0  0  0  0  0  0  0
    5.9580  -12.9680   25.5394 C   0  0  0  0  0  0  0  0  0  0  0  0
    6.7959  -13.1726   26.7935 C   0  0  2  0  0  0  0  0  0  0  0  0
    6.9301  -11.7836   27.4295 C   0  0  0  0  0  0  0  0  0  0  0  0
    8.1821  -13.6632   26.3966 C   0  0  2  0  0  0  0  0  0  0  0  0
    8.0011  -15.0083   25.8741 N   0  0  0  0  0  0  0  0  0  0  0  0
    9.0090  -13.6472   27.6187 C   0  0  0  0  0  0  0  0  0  0  0  0
    9.6055  -12.4497   27.9864 O   0  0  0  0  0  0  0  0  0  0  0  0
    9.2184  -14.6405   28.3605 O   0  0  0  0  0  0  0  0  0  0  0  0
  2  1  1  6
  3  2  1  0
  4  3  1  0
  5  4  1  0
  5  6  1  0
  7  6  1  0
  8  9  2  0
  8  2  1  0
 10 11  1  0
 11 12  2  0
 11 13  1  0
 13 14  1  0
 15 14  1  1
 15 16  1  0
 16  8  1  0
 17 15  1  0
 18 17  2  0
 20 19  1  6
 20 22  1  0
 21 20  1  0
 22 23  1  1
 22 24  1  0
 23 17  1  0
 24 25  1  0
 26 24  2  0
M  END
$$$$
