KQV.pdb
     RDKit          3D

 26 25  0  0  1  0  0  0  0  0999 V2000
    4.7425  -18.7005   21.0496 N   0  0  0  0  0  0  0  0  0  0  0  0
    5.9097  -17.9657   21.4408 C   0  0  1  0  0  0  0  0  0  0  0  0
    6.1204  -16.7120   20.6635 C   0  0  0  0  0  0  0  0  0  0  0  0
    7.1145  -16.7714   19.5678 C   0  0  0  0  0  0  0  0  0  0  0  0
    8.5478  -16.8351   19.9302 C   0  0  0  0  0  0  0  0  0  0  0  0
    9.5063  -16.9538   18.7835 C   0  0  0  0  0  0  0  0  0  0  0  0
   10.8830  -16.9211   19.1379 N   0  0  0  0  0  0  0  0  0  0  0  0
    5.8378  -17.7150   22.9109 C   0  0  0  0  0  0  0  0  0  0  0  0
    4.7523  -17.2658   23.4284 O   0  0  0  0  0  0  0  0  0  0  0  0
    9.0069  -20.6808   27.3832 N   0  0  0  0  0  0  0  0  0  0  0  0
    8.6344  -19.5126   28.0783 C   0  0  0  0  0  0  0  0  0  0  0  0
    8.9343  -19.3828   29.2775 O   0  0  0  0  0  0  0  0  0  0  0  0
    7.8896  -18.4523   27.3731 C   0  0  0  0  0  0  0  0  0  0  0  0
    7.6153  -18.7189   25.9452 C   0  0  0  0  0  0  0  0  0  0  0  0
    6.8853  -17.6369   25.2174 C   0  0  2  0  0  0  0  0  0  0  0  0
    6.9294  -17.9527   23.7727 N   0  0  0  0  0  0  0  0  0  0  0  0
    7.6010  -16.3498   25.3503 C   0  0  0  0  0  0  0  0  0  0  0  0
    8.6974  -16.1231   24.7262 O   0  0  0  0  0  0  0  0  0  0  0  0
    6.0071  -12.6654   25.5688 C   0  0  0  0  0  0  0  0  0  0  0  0
    6.9838  -12.9584   26.6988 C   0  0  2  0  0  0  0  0  0  0  0  0
    7.7765  -11.6616   26.9036 C   0  0  0  0  0  0  0  0  0  0  0  0
    7.9462  -14.0539   26.2592 C   0  0  2  0  0  0  0  0  0  0  0  0
    7.1548  -15.2696   26.1540 N   0  0  0  0  0  0  0  0  0  0  0  0
    8.9861  -14.1549   27.3013 C   0  0  0  0  0  0  0  0  0  0  0  0
    9.9794  -13.1866   27.3270 O   0  0  0  0  0  0  0  0  0  0  0  0
    9.0450  -15.0563   28.1759 O   0  0  0  0  0  0  0  0  0  0  0  0
  2  1  1  6
  3  2  1  0
  4  3  1  0
  5  4  1  0
  5  6  1  0
  7  6  1  0
  8  9  2  0
  8  2  1  0
 10 11  1  0
 11 12  2  0
 11 13  1  0
 13 14  1  0
 15 14  1  1
 15 16  1  0
 16  8  1  0
 17 15  1  0
 18 17  2  0
 20 19  1  6
 20 22  1  0
 21 20  1  0
 22 23  1  1
 22 24  1  0
 23 17  1  0
 24 25  1  0
 26 24  2  0
M  END
$$$$
