KQV.pdb
     RDKit          3D

 26 25  0  0  1  0  0  0  0  0999 V2000
    6.4997  -16.5415   19.9293 N   0  0  0  0  0  0  0  0  0  0  0  0
    7.3191  -15.6547   20.7023 C   0  0  1  0  0  0  0  0  0  0  0  0
    6.9144  -14.2239   20.6060 C   0  0  0  0  0  0  0  0  0  0  0  0
    7.1391  -13.5585   19.3025 C   0  0  0  0  0  0  0  0  0  0  0  0
    8.5290  -13.4484   18.8068 C   0  0  0  0  0  0  0  0  0  0  0  0
    8.6975  -12.7669   17.4820 C   0  0  0  0  0  0  0  0  0  0  0  0
   10.0021  -12.8447   16.9216 N   0  0  0  0  0  0  0  0  0  0  0  0
    7.3409  -16.1431   22.1130 C   0  0  0  0  0  0  0  0  0  0  0  0
    6.2362  -16.3478   22.7338 O   0  0  0  0  0  0  0  0  0  0  0  0
   11.6135  -19.9165   24.3580 N   0  0  0  0  0  0  0  0  0  0  0  0
   12.0020  -18.6044   24.0204 C   0  0  0  0  0  0  0  0  0  0  0  0
   13.1943  -18.3552   23.7732 O   0  0  0  0  0  0  0  0  0  0  0  0
   10.9859  -17.5363   23.9642 C   0  0  0  0  0  0  0  0  0  0  0  0
    9.6073  -17.9612   24.2865 C   0  0  0  0  0  0  0  0  0  0  0  0
    8.5676  -16.8912   24.2009 C   0  0  2  0  0  0  0  0  0  0  0  0
    8.5432  -16.3932   22.8079 N   0  0  0  0  0  0  0  0  0  0  0  0
    8.9587  -15.7229   25.0186 C   0  0  0  0  0  0  0  0  0  0  0  0
    9.8859  -14.9208   24.6442 O   0  0  0  0  0  0  0  0  0  0  0  0
    6.6736  -13.0878   26.2089 C   0  0  0  0  0  0  0  0  0  0  0  0
    7.4857  -13.5020   27.4277 C   0  0  2  0  0  0  0  0  0  0  0  0
    7.8499  -12.1951   28.1427 C   0  0  0  0  0  0  0  0  0  0  0  0
    8.7695  -14.1808   26.9686 C   0  0  2  0  0  0  0  0  0  0  0  0
    8.3603  -15.3825   26.2588 N   0  0  0  0  0  0  0  0  0  0  0  0
    9.5494  -14.4896   28.1827 C   0  0  0  0  0  0  0  0  0  0  0  0
   10.2286  -13.4508   28.8027 O   0  0  0  0  0  0  0  0  0  0  0  0
    9.6488  -15.6288   28.7052 O   0  0  0  0  0  0  0  0  0  0  0  0
  2  1  1  6
  3  2  1  0
  4  3  1  0
  5  4  1  0
  5  6  1  0
  7  6  1  0
  8  9  2  0
  8  2  1  0
 10 11  1  0
 11 12  2  0
 11 13  1  0
 13 14  1  0
 15 14  1  6
 15 16  1  0
 16  8  1  0
 17 15  1  0
 18 17  2  0
 20 19  1  6
 20 22  1  0
 21 20  1  0
 22 23  1  1
 22 24  1  0
 23 17  1  0
 24 25  1  0
 26 24  2  0
M  END
$$$$
