KQV.pdb
     RDKit          3D

 26 25  0  0  1  0  0  0  0  0999 V2000
    9.9160  -17.7525   18.3545 N   0  0  0  0  0  0  0  0  0  0  0  0
   10.5689  -16.8699   19.2765 C   0  0  1  0  0  0  0  0  0  0  0  0
   10.2388  -15.4317   19.0696 C   0  0  0  0  0  0  0  0  0  0  0  0
    8.9622  -15.1380   18.3794 C   0  0  0  0  0  0  0  0  0  0  0  0
    8.6074  -13.7209   18.1439 C   0  0  0  0  0  0  0  0  0  0  0  0
    7.2585  -13.4780   17.5362 C   0  0  0  0  0  0  0  0  0  0  0  0
    6.9471  -12.1152   17.2758 N   0  0  0  0  0  0  0  0  0  0  0  0
   10.2617  -17.3272   20.6642 C   0  0  0  0  0  0  0  0  0  0  0  0
    9.0534  -17.6163   20.9872 O   0  0  0  0  0  0  0  0  0  0  0  0
   14.3922  -19.8753   24.7000 N   0  0  0  0  0  0  0  0  0  0  0  0
   13.3155  -19.5729   25.5578 C   0  0  0  0  0  0  0  0  0  0  0  0
   13.4084  -19.8064   26.7751 O   0  0  0  0  0  0  0  0  0  0  0  0
   12.0848  -18.9805   25.0002 C   0  0  0  0  0  0  0  0  0  0  0  0
   12.1784  -18.5452   23.5906 C   0  0  0  0  0  0  0  0  0  0  0  0
   10.9533  -17.8938   23.0358 C   0  0  2  0  0  0  0  0  0  0  0  0
   11.2576  -17.4572   21.6553 N   0  0  0  0  0  0  0  0  0  0  0  0
   10.6500  -16.6486   23.7734 C   0  0  0  0  0  0  0  0  0  0  0  0
   11.5441  -15.7526   23.9755 O   0  0  0  0  0  0  0  0  0  0  0  0
    7.7337  -14.1882   23.3055 C   0  0  0  0  0  0  0  0  0  0  0  0
    7.7862  -14.6179   24.7648 C   0  0  2  0  0  0  0  0  0  0  0  0
    7.5178  -13.3456   25.5779 C   0  0  0  0  0  0  0  0  0  0  0  0
    9.1872  -15.1184   25.0907 C   0  0  2  0  0  0  0  0  0  0  0  0
    9.3758  -16.3306   24.3095 N   0  0  0  0  0  0  0  0  0  0  0  0
    9.2222  -15.3806   26.5424 C   0  0  0  0  0  0  0  0  0  0  0  0
    9.3841  -14.2991   27.3963 O   0  0  0  0  0  0  0  0  0  0  0  0
    9.1162  -16.5156   27.0728 O   0  0  0  0  0  0  0  0  0  0  0  0
  2  1  1  6
  3  2  1  0
  4  3  1  0
  5  4  1  0
  5  6  1  0
  7  6  1  0
  8  9  2  0
  8  2  1  0
 10 11  1  0
 11 12  2  0
 11 13  1  0
 13 14  1  0
 15 14  1  1
 15 16  1  0
 16  8  1  0
 17 15  1  0
 18 17  2  0
 20 19  1  6
 20 22  1  0
 21 20  1  0
 22 23  1  6
 22 24  1  0
 23 17  1  0
 24 25  1  0
 26 24  2  0
M  END
$$$$
