YAI.pdb
     RDKit          3D

 26 26  0  0  1  0  0  0  0  0999 V2000
    9.5754  -11.9018   18.6030 O   0  0  0  0  0  0  0  0  0  0  0  0
    8.6735  -12.7864   19.1841 C   0  0  0  0  0  0  0  0  0  0  0  0
    7.8913  -13.6132   18.3890 C   0  0  0  0  0  0  0  0  0  0  0  0
    6.9904  -14.4982   18.9384 C   0  0  0  0  0  0  0  0  0  0  0  0
    6.8706  -14.5567   20.2993 C   0  0  0  0  0  0  0  0  0  0  0  0
    5.9458  -15.4601   20.9710 C   0  0  0  0  0  0  0  0  0  0  0  0
    6.3986  -16.8825   21.0567 C   0  0  2  0  0  0  0  0  0  0  0  0
    5.4528  -17.8165   20.4803 N   0  0  0  0  0  0  0  0  0  0  0  0
    6.5108  -17.2213   22.5006 C   0  0  0  0  0  0  0  0  0  0  0  0
    5.4362  -17.4277   23.1209 O   0  0  0  0  0  0  0  0  0  0  0  0
    7.6522  -13.7298   21.1095 C   0  0  0  0  0  0  0  0  0  0  0  0
    8.5526  -12.8455   20.5553 C   0  0  0  0  0  0  0  0  0  0  0  0
    7.9851  -19.1058   24.8814 C   0  0  0  0  0  0  0  0  0  0  0  0
    7.7310  -17.6395   24.6039 C   0  0  2  0  0  0  0  0  0  0  0  0
    7.7233  -17.3260   23.2140 N   0  0  0  0  0  0  0  0  0  0  0  0
    8.7103  -16.8018   25.3701 C   0  0  0  0  0  0  0  0  0  0  0  0
    9.9361  -17.0511   25.2902 O   0  0  0  0  0  0  0  0  0  0  0  0
    6.9014  -11.8142   26.9108 C   0  0  0  0  0  0  0  0  0  0  0  0
    7.7513  -12.9047   26.2767 C   0  0  0  0  0  0  0  0  0  0  0  0
    8.4114  -13.6554   27.4095 C   0  0  2  0  0  0  0  0  0  0  0  0
    9.3809  -12.7201   28.0740 C   0  0  0  0  0  0  0  0  0  0  0  0
    9.1711  -14.8670   26.9154 C   0  0  2  0  0  0  0  0  0  0  0  0
    8.2579  -15.7330   26.1812 N   0  0  0  0  0  0  0  0  0  0  0  0
    9.6398  -15.6041   28.1087 C   0  0  0  0  0  0  0  0  0  0  0  0
   10.7167  -15.2741   28.6581 O   0  0  0  0  0  0  0  0  0  0  0  0
    8.9347  -16.6632   28.6623 O   0  0  0  0  0  0  0  0  0  0  0  0
  1  2  1  0
  2 12  2  0
  3  4  2  0
  3  2  1  0
  4  5  1  0
  5  6  1  0
  5 11  2  0
  6  7  1  0
  7  9  1  0
  7  8  1  1
  9 10  2  0
  9 15  1  0
 12 11  1  0
 14 13  1  6
 14 16  1  0
 15 14  1  0
 16 17  2  0
 18 19  1  0
 19 20  1  0
 20 22  1  0
 20 21  1  6
 22 24  1  0
 23 16  1  0
 22 23  1  1
 24 25  2  0
 24 26  1  0
M  END
$$$$
