YAI.pdb
     RDKit          3D

 26 26  0  0  1  0  0  0  0  0999 V2000
    9.0489  -13.9643   15.2449 O   0  0  0  0  0  0  0  0  0  0  0  0
    8.6421  -14.2170   16.5504 C   0  0  0  0  0  0  0  0  0  0  0  0
    7.8411  -13.3048   17.2242 C   0  0  0  0  0  0  0  0  0  0  0  0
    7.4241  -13.5303   18.5172 C   0  0  0  0  0  0  0  0  0  0  0  0
    7.8131  -14.6819   19.1436 C   0  0  0  0  0  0  0  0  0  0  0  0
    7.4223  -15.0071   20.5089 C   0  0  0  0  0  0  0  0  0  0  0  0
    6.9228  -16.4020   20.7104 C   0  0  2  0  0  0  0  0  0  0  0  0
    5.6419  -16.6446   20.0781 N   0  0  0  0  0  0  0  0  0  0  0  0
    6.7225  -16.5898   22.1721 C   0  0  0  0  0  0  0  0  0  0  0  0
    5.8872  -15.8347   22.7328 O   0  0  0  0  0  0  0  0  0  0  0  0
    8.6189  -15.6071   18.4759 C   0  0  0  0  0  0  0  0  0  0  0  0
    9.0339  -15.3773   17.1817 C   0  0  0  0  0  0  0  0  0  0  0  0
    7.5309  -18.8997   25.0034 C   0  0  0  0  0  0  0  0  0  0  0  0
    7.2601  -17.5460   24.3822 C   0  0  2  0  0  0  0  0  0  0  0  0
    7.3956  -17.5439   22.9638 N   0  0  0  0  0  0  0  0  0  0  0  0
    8.1202  -16.5070   25.0368 C   0  0  0  0  0  0  0  0  0  0  0  0
    9.3018  -16.3464   24.6506 O   0  0  0  0  0  0  0  0  0  0  0  0
    5.7133  -12.0797   27.2073 C   0  0  0  0  0  0  0  0  0  0  0  0
    6.6599  -12.9782   26.4261 C   0  0  0  0  0  0  0  0  0  0  0  0
    7.5043  -13.7092   27.4435 C   0  0  2  0  0  0  0  0  0  0  0  0
    8.3505  -12.6902   28.1520 C   0  0  0  0  0  0  0  0  0  0  0  0
    8.4166  -14.7257   26.7926 C   0  0  2  0  0  0  0  0  0  0  0  0
    7.6051  -15.7085   26.0865 N   0  0  0  0  0  0  0  0  0  0  0  0
    9.1369  -15.4238   27.8793 C   0  0  0  0  0  0  0  0  0  0  0  0
    8.6117  -16.4181   28.4327 O   0  0  0  0  0  0  0  0  0  0  0  0
   10.3890  -15.0269   28.3265 O   0  0  0  0  0  0  0  0  0  0  0  0
  1  2  1  0
  2 12  2  0
  3  4  2  0
  3  2  1  0
  4  5  1  0
  5  6  1  0
  5 11  2  0
  6  7  1  0
  7  9  1  0
  7  8  1  6
  9 10  2  0
  9 15  1  0
 12 11  1  0
 14 13  1  1
 14 16  1  0
 15 14  1  0
 16 17  2  0
 18 19  1  0
 19 20  1  0
 20 22  1  0
 20 21  1  6
 22 24  1  0
 23 16  1  0
 22 23  1  1
 24 25  2  0
 24 26  1  0
M  END
$$$$
