YAI.pdb
     RDKit          3D

 26 26  0  0  1  0  0  0  0  0999 V2000
    8.6337  -13.7518   15.1780 O   0  0  0  0  0  0  0  0  0  0  0  0
    8.3364  -14.0582   16.5015 C   0  0  0  0  0  0  0  0  0  0  0  0
    7.4372  -13.2786   17.2166 C   0  0  0  0  0  0  0  0  0  0  0  0
    7.1250  -13.5597   18.5282 C   0  0  0  0  0  0  0  0  0  0  0  0
    7.7194  -14.6334   19.1313 C   0  0  0  0  0  0  0  0  0  0  0  0
    7.4522  -15.0086   20.5136 C   0  0  0  0  0  0  0  0  0  0  0  0
    7.1125  -16.4492   20.7253 C   0  0  2  0  0  0  0  0  0  0  0  0
    5.8381  -16.8244   20.1471 N   0  0  0  0  0  0  0  0  0  0  0  0
    6.9976  -16.6622   22.1927 C   0  0  0  0  0  0  0  0  0  0  0  0
    5.9502  -16.2412   22.7476 O   0  0  0  0  0  0  0  0  0  0  0  0
    8.6256  -15.4250   18.4220 C   0  0  0  0  0  0  0  0  0  0  0  0
    8.9352  -15.1400   17.1094 C   0  0  0  0  0  0  0  0  0  0  0  0
    8.2648  -18.5560   25.0791 C   0  0  0  0  0  0  0  0  0  0  0  0
    7.8897  -17.2471   24.4176 C   0  0  2  0  0  0  0  0  0  0  0  0
    7.9692  -17.2956   22.9958 N   0  0  0  0  0  0  0  0  0  0  0  0
    8.7113  -16.1338   24.9951 C   0  0  0  0  0  0  0  0  0  0  0  0
    9.8951  -15.9746   24.6152 O   0  0  0  0  0  0  0  0  0  0  0  0
    6.3528  -11.5075   26.9730 C   0  0  0  0  0  0  0  0  0  0  0  0
    6.8670  -12.9368   27.0506 C   0  0  0  0  0  0  0  0  0  0  0  0
    8.2868  -12.9168   26.5344 C   0  0  2  0  0  0  0  0  0  0  0  0
    8.2389  -12.5490   25.0789 C   0  0  0  0  0  0  0  0  0  0  0  0
    8.9544  -14.2679   26.6692 C   0  0  2  0  0  0  0  0  0  0  0  0
    8.1574  -15.2637   25.9651 N   0  0  0  0  0  0  0  0  0  0  0  0
    8.9518  -14.6139   28.1070 C   0  0  0  0  0  0  0  0  0  0  0  0
    9.6997  -13.9906   28.8962 O   0  0  0  0  0  0  0  0  0  0  0  0
    8.1481  -15.6127   28.6378 O   0  0  0  0  0  0  0  0  0  0  0  0
  1  2  1  0
  2 12  2  0
  3  4  2  0
  3  2  1  0
  4  5  1  0
  5  6  1  0
  5 11  2  0
  6  7  1  0
  7  9  1  0
  7  8  1  6
  9 10  2  0
  9 15  1  0
 12 11  1  0
 14 13  1  1
 14 16  1  0
 15 14  1  0
 16 17  2  0
 18 19  1  0
 19 20  1  0
 20 22  1  0
 20 21  1  6
 22 24  1  0
 23 16  1  0
 22 23  1  6
 24 25  2  0
 24 26  1  0
M  END
$$$$
