YAI.pdb
     RDKit          3D

 26 26  0  0  1  0  0  0  0  0999 V2000
    5.4360  -10.0810   25.8746 O   0  0  0  0  0  0  0  0  0  0  0  0
    5.9082  -11.3882   25.8299 C   0  0  0  0  0  0  0  0  0  0  0  0
    6.9800  -11.7189   25.0116 C   0  0  0  0  0  0  0  0  0  0  0  0
    7.4673  -13.0054   24.9484 C   0  0  0  0  0  0  0  0  0  0  0  0
    6.8754  -13.9725   25.7128 C   0  0  0  0  0  0  0  0  0  0  0  0
    7.3207  -15.3597   25.7124 C   0  0  0  0  0  0  0  0  0  0  0  0
    7.0655  -16.1072   24.4428 C   0  0  2  0  0  0  0  0  0  0  0  0
    5.9381  -17.0128   24.5325 N   0  0  0  0  0  0  0  0  0  0  0  0
    8.2669  -16.9423   24.1759 C   0  0  0  0  0  0  0  0  0  0  0  0
    8.3270  -18.0545   24.7604 O   0  0  0  0  0  0  0  0  0  0  0  0
    5.7965  -13.6517   26.5399 C   0  0  0  0  0  0  0  0  0  0  0  0
    5.3119  -12.3628   26.6000 C   0  0  0  0  0  0  0  0  0  0  0  0
   11.5298  -16.9074   22.2883 C   0  0  0  0  0  0  0  0  0  0  0  0
   10.6213  -17.1637   23.4718 C   0  0  2  0  0  0  0  0  0  0  0  0
    9.3305  -16.5787   23.3235 N   0  0  0  0  0  0  0  0  0  0  0  0
   11.3006  -16.7287   24.7355 C   0  0  0  0  0  0  0  0  0  0  0  0
   12.1239  -15.7841   24.7040 O   0  0  0  0  0  0  0  0  0  0  0  0
    8.7794  -14.3717   28.1463 C   0  0  0  0  0  0  0  0  0  0  0  0
   10.0009  -14.8744   27.3921 C   0  0  0  0  0  0  0  0  0  0  0  0
   10.3492  -16.2227   27.9780 C   0  0  2  0  0  0  0  0  0  0  0  0
   10.7562  -16.0084   29.4080 C   0  0  0  0  0  0  0  0  0  0  0  0
   11.4978  -16.8772   27.2421 C   0  0  2  0  0  0  0  0  0  0  0  0
   11.0170  -17.3783   25.9612 N   0  0  0  0  0  0  0  0  0  0  0  0
   11.9311  -18.0358   28.0525 C   0  0  0  0  0  0  0  0  0  0  0  0
   12.6841  -17.8563   29.0381 O   0  0  0  0  0  0  0  0  0  0  0  0
   11.5393  -19.3370   27.7724 O   0  0  0  0  0  0  0  0  0  0  0  0
  1  2  1  0
  2 12  2  0
  3  4  2  0
  3  2  1  0
  4  5  1  0
  5  6  1  0
  5 11  2  0
  6  7  1  0
  7  9  1  0
  7  8  1  1
  9 10  2  0
  9 15  1  0
 12 11  1  0
 14 13  1  6
 14 16  1  0
 15 14  1  0
 16 17  2  0
 18 19  1  0
 19 20  1  0
 20 22  1  0
 20 21  1  1
 22 24  1  0
 23 16  1  0
 22 23  1  6
 24 25  2  0
 24 26  1  0
M  END
$$$$
