YAI.pdb
     RDKit          3D

 26 26  0  0  1  0  0  0  0  0999 V2000
    6.6392  -13.9922   16.9181 O   0  0  0  0  0  0  0  0  0  0  0  0
    7.6835  -13.9332   17.8345 C   0  0  0  0  0  0  0  0  0  0  0  0
    7.5427  -13.2120   19.0125 C   0  0  0  0  0  0  0  0  0  0  0  0
    8.5608  -13.1370   19.9369 C   0  0  0  0  0  0  0  0  0  0  0  0
    9.7337  -13.7913   19.6797 C   0  0  0  0  0  0  0  0  0  0  0  0
   10.8656  -13.7698   20.5968 C   0  0  0  0  0  0  0  0  0  0  0  0
   11.3257  -15.1123   21.0677 C   0  0  2  0  0  0  0  0  0  0  0  0
   11.0601  -16.1713   20.1152 N   0  0  0  0  0  0  0  0  0  0  0  0
   10.5518  -15.4356   22.2960 C   0  0  0  0  0  0  0  0  0  0  0  0
   10.5049  -14.5497   23.1877 O   0  0  0  0  0  0  0  0  0  0  0  0
    9.8871  -14.5200   18.4980 C   0  0  0  0  0  0  0  0  0  0  0  0
    8.8654  -14.5924   17.5756 C   0  0  0  0  0  0  0  0  0  0  0  0
    8.4062  -18.1827   23.7584 C   0  0  0  0  0  0  0  0  0  0  0  0
    9.1817  -16.8827   23.7509 C   0  0  2  0  0  0  0  0  0  0  0  0
    9.8750  -16.6515   22.5278 N   0  0  0  0  0  0  0  0  0  0  0  0
   10.0936  -16.8299   24.9398 C   0  0  0  0  0  0  0  0  0  0  0  0
   11.2505  -17.3048   24.8561 O   0  0  0  0  0  0  0  0  0  0  0  0
    9.2066  -12.8174   28.5561 C   0  0  0  0  0  0  0  0  0  0  0  0
    9.8379  -13.7787   27.5607 C   0  0  0  0  0  0  0  0  0  0  0  0
    9.9687  -15.1093   28.2643 C   0  0  2  0  0  0  0  0  0  0  0  0
   10.9374  -14.9333   29.3987 C   0  0  0  0  0  0  0  0  0  0  0  0
   10.4970  -16.1853   27.3410 C   0  0  2  0  0  0  0  0  0  0  0  0
    9.6549  -16.2474   26.1536 N   0  0  0  0  0  0  0  0  0  0  0  0
   10.3731  -17.4734   28.0569 C   0  0  0  0  0  0  0  0  0  0  0  0
   11.2965  -17.8532   28.8143 O   0  0  0  0  0  0  0  0  0  0  0  0
    9.2654  -18.2993   27.9308 O   0  0  0  0  0  0  0  0  0  0  0  0
  1  2  1  0
  2 12  2  0
  3  4  2  0
  3  2  1  0
  4  5  1  0
  5  6  1  0
  5 11  2  0
  6  7  1  0
  7  9  1  0
  7  8  1  6
  9 10  2  0
  9 15  1  0
 12 11  1  0
 14 13  1  6
 14 16  1  0
 15 14  1  0
 16 17  2  0
 18 19  1  0
 19 20  1  0
 20 22  1  0
 20 21  1  1
 22 24  1  0
 23 16  1  0
 22 23  1  6
 24 25  2  0
 24 26  1  0
M  END
$$$$
