YAI.pdb
     RDKit          3D

 26 26  0  0  1  0  0  0  0  0999 V2000
   10.9219  -13.9753   31.1186 O   0  0  0  0  0  0  0  0  0  0  0  0
   10.5634  -14.6915   29.9817 C   0  0  0  0  0  0  0  0  0  0  0  0
   11.3239  -15.7770   29.5681 C   0  0  0  0  0  0  0  0  0  0  0  0
   10.9913  -16.5033   28.4463 C   0  0  0  0  0  0  0  0  0  0  0  0
    9.8849  -16.1394   27.7299 C   0  0  0  0  0  0  0  0  0  0  0  0
    9.4548  -16.8465   26.5308 C   0  0  0  0  0  0  0  0  0  0  0  0
    8.7901  -18.1633   26.7752 C   0  0  2  0  0  0  0  0  0  0  0  0
    9.6578  -19.1276   27.4206 N   0  0  0  0  0  0  0  0  0  0  0  0
    8.4334  -18.7285   25.4466 C   0  0  0  0  0  0  0  0  0  0  0  0
    9.3865  -19.0354   24.6852 O   0  0  0  0  0  0  0  0  0  0  0  0
    9.1120  -15.0492   28.1362 C   0  0  0  0  0  0  0  0  0  0  0  0
    9.4486  -14.3250   29.2597 C   0  0  0  0  0  0  0  0  0  0  0  0
    5.5851  -19.5634   23.1743 C   0  0  0  0  0  0  0  0  0  0  0  0
    6.7787  -18.7439   23.6163 C   0  0  2  0  0  0  0  0  0  0  0  0
    7.1171  -18.9417   24.9862 N   0  0  0  0  0  0  0  0  0  0  0  0
    6.5496  -17.2985   23.2905 C   0  0  0  0  0  0  0  0  0  0  0  0
    5.3937  -16.8202   23.3696 O   0  0  0  0  0  0  0  0  0  0  0  0
    7.6188  -13.1910   25.7198 C   0  0  0  0  0  0  0  0  0  0  0  0
    6.9831  -14.1082   24.6863 C   0  0  0  0  0  0  0  0  0  0  0  0
    7.9251  -14.1521   23.5059 C   0  0  2  0  0  0  0  0  0  0  0  0
    7.9929  -12.7693   22.9234 C   0  0  0  0  0  0  0  0  0  0  0  0
    7.4414  -15.1042   22.4341 C   0  0  2  0  0  0  0  0  0  0  0  0
    7.6302  -16.4735   22.8950 N   0  0  0  0  0  0  0  0  0  0  0  0
    8.3008  -14.8986   21.2483 C   0  0  0  0  0  0  0  0  0  0  0  0
    7.9494  -14.0863   20.3611 O   0  0  0  0  0  0  0  0  0  0  0  0
    9.4999  -15.5720   21.0639 O   0  0  0  0  0  0  0  0  0  0  0  0
  1  2  1  0
  2 12  2  0
  3  4  2  0
  3  2  1  0
  4  5  1  0
  5  6  1  0
  5 11  2  0
  6  7  1  0
  7  9  1  0
  7  8  1  6
  9 10  2  0
  9 15  1  0
 12 11  1  0
 14 13  1  1
 14 16  1  0
 15 14  1  0
 16 17  2  0
 18 19  1  0
 19 20  1  0
 20 22  1  0
 20 21  1  6
 22 24  1  0
 23 16  1  0
 22 23  1  1
 24 25  2  0
 24 26  1  0
M  END
$$$$
