YAI.pdb
     RDKit          3D

 26 26  0  0  1  0  0  0  0  0999 V2000
    8.3697  -13.3362   16.0361 O   0  0  0  0  0  0  0  0  0  0  0  0
    8.0639  -13.7392   17.3314 C   0  0  0  0  0  0  0  0  0  0  0  0
    7.4241  -12.8690   18.2038 C   0  0  0  0  0  0  0  0  0  0  0  0
    7.1097  -13.2426   19.4915 C   0  0  0  0  0  0  0  0  0  0  0  0
    7.4392  -14.5015   19.9114 C   0  0  0  0  0  0  0  0  0  0  0  0
    7.1476  -14.9861   21.2541 C   0  0  0  0  0  0  0  0  0  0  0  0
    7.0690  -16.4732   21.3885 C   0  0  2  0  0  0  0  0  0  0  0  0
    5.7825  -17.0127   20.9974 N   0  0  0  0  0  0  0  0  0  0  0  0
    7.2490  -16.7940   22.8296 C   0  0  0  0  0  0  0  0  0  0  0  0
    6.4299  -16.2784   23.6330 O   0  0  0  0  0  0  0  0  0  0  0  0
    8.0831  -15.3858   19.0427 C   0  0  0  0  0  0  0  0  0  0  0  0
    8.3959  -15.0077   17.7547 C   0  0  0  0  0  0  0  0  0  0  0  0
    9.0302  -19.1111   25.1461 C   0  0  0  0  0  0  0  0  0  0  0  0
    8.4352  -17.7743   24.7582 C   0  0  2  0  0  0  0  0  0  0  0  0
    8.2616  -17.6258   23.3518 N   0  0  0  0  0  0  0  0  0  0  0  0
    9.2521  -16.6652   25.3502 C   0  0  0  0  0  0  0  0  0  0  0  0
   10.2701  -16.2536   24.7458 O   0  0  0  0  0  0  0  0  0  0  0  0
    7.4466  -12.0560   26.6163 C   0  0  0  0  0  0  0  0  0  0  0  0
    8.3818  -13.1895   26.2238 C   0  0  0  0  0  0  0  0  0  0  0  0
    8.8308  -13.8471   27.5078 C   0  0  2  0  0  0  0  0  0  0  0  0
    9.6447  -12.8442   28.2747 C   0  0  0  0  0  0  0  0  0  0  0  0
    9.6881  -15.0661   27.2466 C   0  0  2  0  0  0  0  0  0  0  0  0
    8.8798  -16.0823   26.5857 N   0  0  0  0  0  0  0  0  0  0  0  0
   10.1031  -15.5972   28.5630 C   0  0  0  0  0  0  0  0  0  0  0  0
   11.0095  -15.0192   29.2072 O   0  0  0  0  0  0  0  0  0  0  0  0
    9.5294  -16.7248   29.1328 O   0  0  0  0  0  0  0  0  0  0  0  0
  1  2  1  0
  2 12  2  0
  3  4  2  0
  3  2  1  0
  4  5  1  0
  5  6  1  0
  5 11  2  0
  6  7  1  0
  7  9  1  0
  7  8  1  1
  9 10  2  0
  9 15  1  0
 12 11  1  0
 14 13  1  6
 14 16  1  0
 15 14  1  0
 16 17  2  0
 18 19  1  0
 19 20  1  0
 20 22  1  0
 20 21  1  1
 22 24  1  0
 23 16  1  0
 22 23  1  1
 24 25  2  0
 24 26  1  0
M  END
$$$$
