YAI.pdb
     RDKit          3D

 26 26  0  0  1  0  0  0  0  0999 V2000
    8.7889  -13.7755   15.6427 O   0  0  0  0  0  0  0  0  0  0  0  0
    8.3685  -14.1377   16.9177 C   0  0  0  0  0  0  0  0  0  0  0  0
    8.4177  -15.4652   17.3215 C   0  0  0  0  0  0  0  0  0  0  0  0
    8.0076  -15.8510   18.5783 C   0  0  0  0  0  0  0  0  0  0  0  0
    7.5428  -14.8976   19.4413 C   0  0  0  0  0  0  0  0  0  0  0  0
    7.0874  -15.2097   20.7896 C   0  0  0  0  0  0  0  0  0  0  0  0
    6.8598  -16.6623   21.0617 C   0  0  2  0  0  0  0  0  0  0  0  0
    5.6114  -17.1547   20.5155 N   0  0  0  0  0  0  0  0  0  0  0  0
    6.7764  -16.8247   22.5377 C   0  0  0  0  0  0  0  0  0  0  0  0
    5.9525  -16.0929   23.1442 O   0  0  0  0  0  0  0  0  0  0  0  0
    7.4886  -13.5589   19.0463 C   0  0  0  0  0  0  0  0  0  0  0  0
    7.9001  -13.1771   17.7874 C   0  0  0  0  0  0  0  0  0  0  0  0
    7.8279  -19.0443   25.3482 C   0  0  0  0  0  0  0  0  0  0  0  0
    7.5231  -17.7012   24.7199 C   0  0  2  0  0  0  0  0  0  0  0  0
    7.5472  -17.7311   23.2956 N   0  0  0  0  0  0  0  0  0  0  0  0
    8.4423  -16.6586   25.2820 C   0  0  0  0  0  0  0  0  0  0  0  0
    9.6053  -16.5467   24.8280 O   0  0  0  0  0  0  0  0  0  0  0  0
    6.8090  -11.7059   26.4326 C   0  0  0  0  0  0  0  0  0  0  0  0
    7.6259  -12.9147   26.0027 C   0  0  0  0  0  0  0  0  0  0  0  0
    8.1173  -13.5795   27.2672 C   0  0  2  0  0  0  0  0  0  0  0  0
    9.0304  -12.6132   27.9664 C   0  0  0  0  0  0  0  0  0  0  0  0
    8.8894  -14.8472   26.9739 C   0  0  2  0  0  0  0  0  0  0  0  0
    8.0038  -15.8021   26.3207 N   0  0  0  0  0  0  0  0  0  0  0  0
    9.2986  -15.4192   28.2748 C   0  0  0  0  0  0  0  0  0  0  0  0
    8.5230  -16.1929   28.8835 O   0  0  0  0  0  0  0  0  0  0  0  0
   10.5211  -15.1380   28.8678 O   0  0  0  0  0  0  0  0  0  0  0  0
  1  2  1  0
  2 12  2  0
  3  4  2  0
  3  2  1  0
  4  5  1  0
  5  6  1  0
  5 11  2  0
  6  7  1  0
  7  9  1  0
  7  8  1  6
  9 10  2  0
  9 15  1  0
 12 11  1  0
 14 13  1  1
 14 16  1  0
 15 14  1  0
 16 17  2  0
 18 19  1  0
 19 20  1  0
 20 22  1  0
 20 21  1  6
 22 24  1  0
 23 16  1  0
 22 23  1  1
 24 25  2  0
 24 26  1  0
M  END
$$$$
