YAI.pdb
     RDKit          3D

 26 26  0  0  1  0  0  0  0  0999 V2000
    7.7797  -13.2978   14.8610 O   0  0  0  0  0  0  0  0  0  0  0  0
    7.7437  -13.5292   16.2318 C   0  0  0  0  0  0  0  0  0  0  0  0
    8.9092  -13.8334   16.9222 C   0  0  0  0  0  0  0  0  0  0  0  0
    8.9018  -14.0669   18.2794 C   0  0  0  0  0  0  0  0  0  0  0  0
    7.7144  -13.9953   18.9538 C   0  0  0  0  0  0  0  0  0  0  0  0
    7.6076  -14.2265   20.3883 C   0  0  0  0  0  0  0  0  0  0  0  0
    8.4855  -15.3126   20.9226 C   0  0  2  0  0  0  0  0  0  0  0  0
    8.3524  -16.5602   20.1980 N   0  0  0  0  0  0  0  0  0  0  0  0
    8.0525  -15.5796   22.3202 C   0  0  0  0  0  0  0  0  0  0  0  0
    7.8253  -14.5776   23.0459 O   0  0  0  0  0  0  0  0  0  0  0  0
    6.5353  -13.6900   18.2699 C   0  0  0  0  0  0  0  0  0  0  0  0
    6.5474  -13.4570   16.9115 C   0  0  0  0  0  0  0  0  0  0  0  0
    7.3037  -18.4561   24.6546 C   0  0  0  0  0  0  0  0  0  0  0  0
    7.6070  -17.0235   24.2708 C   0  0  2  0  0  0  0  0  0  0  0  0
    7.8810  -16.8623   22.8818 N   0  0  0  0  0  0  0  0  0  0  0  0
    8.7116  -16.4908   25.1334 C   0  0  0  0  0  0  0  0  0  0  0  0
    9.9008  -16.5886   24.7497 O   0  0  0  0  0  0  0  0  0  0  0  0
    6.8766  -12.5118   27.9603 C   0  0  0  0  0  0  0  0  0  0  0  0
    7.9612  -13.1234   27.0869 C   0  0  0  0  0  0  0  0  0  0  0  0
    8.7355  -14.0812   27.9620 C   0  0  2  0  0  0  0  0  0  0  0  0
    9.7846  -13.2896   28.6894 C   0  0  0  0  0  0  0  0  0  0  0  0
    9.4204  -15.1584   27.1498 C   0  0  2  0  0  0  0  0  0  0  0  0
    8.4181  -15.8794   26.3763 N   0  0  0  0  0  0  0  0  0  0  0  0
   10.0276  -16.1071   28.1081 C   0  0  0  0  0  0  0  0  0  0  0  0
    9.3702  -17.1000   28.4987 O   0  0  0  0  0  0  0  0  0  0  0  0
   11.3130  -15.9516   28.6068 O   0  0  0  0  0  0  0  0  0  0  0  0
  1  2  1  0
  2 12  2  0
  3  4  2  0
  3  2  1  0
  4  5  1  0
  5  6  1  0
  5 11  2  0
  6  7  1  0
  7  9  1  0
  7  8  1  6
  9 10  2  0
  9 15  1  0
 12 11  1  0
 14 13  1  6
 14 16  1  0
 15 14  1  0
 16 17  2  0
 18 19  1  0
 19 20  1  0
 20 22  1  0
 20 21  1  6
 22 24  1  0
 23 16  1  0
 22 23  1  1
 24 25  2  0
 24 26  1  0
M  END
$$$$
