WEF.pdb
     RDKit          3D

 35 37  0  0  1  0  0  0  0  0999 V2000
   21.0822  -20.1330  -15.8897 N   0  0  0  0  0  0  0  0  0  0  0  0
   22.1331  -19.3698  -15.2708 C   0  0  1  0  0  0  0  0  0  0  0  0
   21.5974  -18.4112  -14.2606 C   0  0  0  0  0  0  0  0  0  0  0  0
   20.5462  -17.5453  -14.8376 C   0  0  0  0  0  0  0  0  0  0  0  0
   19.2083  -17.5164  -14.4173 C   0  0  0  0  0  0  0  0  0  0  0  0
   18.5290  -16.6145  -15.1109 N   0  0  0  0  0  0  0  0  0  0  0  0
   19.3754  -16.0464  -15.9771 C   0  0  0  0  0  0  0  0  0  0  0  0
   19.1966  -15.0598  -16.9354 C   0  0  0  0  0  0  0  0  0  0  0  0
   20.2070  -14.6173  -17.7392 C   0  0  0  0  0  0  0  0  0  0  0  0
   21.4429  -15.1867  -17.5751 C   0  0  0  0  0  0  0  0  0  0  0  0
   21.6615  -16.1796  -16.6234 C   0  0  0  0  0  0  0  0  0  0  0  0
   20.6350  -16.6038  -15.8314 C   0  0  0  0  0  0  0  0  0  0  0  0
   23.1085  -20.3321  -14.6754 C   0  0  0  0  0  0  0  0  0  0  0  0
   22.6933  -21.4138  -14.1916 O   0  0  0  0  0  0  0  0  0  0  0  0
   24.4887  -20.0982  -14.6213 N   0  0  0  0  0  0  0  0  0  0  0  0
   25.4684  -21.0403  -14.0537 C   0  0  1  0  0  0  0  0  0  0  0  0
   26.6621  -20.9424  -14.9744 C   0  0  0  0  0  0  0  0  0  0  0  0
   27.8398  -21.7598  -14.5564 C   0  0  0  0  0  0  0  0  0  0  0  0
   28.8253  -21.6979  -15.6947 C   0  0  0  0  0  0  0  0  0  0  0  0
   28.5849  -21.0830  -16.7629 O   0  0  0  0  0  0  0  0  0  0  0  0
   25.8053  -20.6455  -12.6631 C   0  0  0  0  0  0  0  0  0  0  0  0
   26.0339  -19.4506  -12.3744 O   0  0  0  0  0  0  0  0  0  0  0  0
   30.0553  -22.3455  -15.5669 O   0  0  0  0  0  0  0  0  0  0  0  0
   25.8748  -21.6081  -11.6402 N   0  0  0  0  0  0  0  0  0  0  0  0
   26.2002  -21.3122  -10.2512 C   0  0  1  0  0  0  0  0  0  0  0  0
   27.1884  -20.1956  -10.1472 C   0  0  0  0  0  0  0  0  0  0  0  0
   27.6084  -19.8517   -8.7774 C   0  0  0  0  0  0  0  0  0  0  0  0
   26.8666  -18.9455   -8.0491 C   0  0  0  0  0  0  0  0  0  0  0  0
   27.1791  -18.5804   -6.7653 C   0  0  0  0  0  0  0  0  0  0  0  0
   28.2805  -19.1255   -6.1429 C   0  0  0  0  0  0  0  0  0  0  0  0
   29.0390  -20.0308   -6.8430 C   0  0  0  0  0  0  0  0  0  0  0  0
   28.7072  -20.3950   -8.1550 C   0  0  0  0  0  0  0  0  0  0  0  0
   24.9986  -21.0315   -9.4565 C   0  0  0  0  0  0  0  0  0  0  0  0
   24.9330  -21.4241   -8.2633 O   0  0  0  0  0  0  0  0  0  0  0  0
   23.9193  -20.3415   -9.9712 O   0  0  0  0  0  0  0  0  0  0  0  0
  2  1  1  1
  2 13  1  0
  3  4  1  0
  3  2  1  0
  4  5  2  0
  5  6  1  0
  7  6  1  0
  8  7  2  0
  9  8  1  0
 10 11  1  0
 10  9  2  0
 11 12  2  0
 12  4  1  0
 12  7  1  0
 13 14  2  0
 15 16  1  0
 15 13  1  0
 16 17  1  6
 18 17  1  0
 19 18  1  0
 20 19  2  0
 21 22  2  0
 21 16  1  0
 23 19  1  0
 24 21  1  0
 25 24  1  0
 25 26  1  6
 27 26  1  0
 28 27  2  0
 29 28  1  0
 30 31  1  0
 30 29  2  0
 31 32  2  0
 32 27  1  0
 33 25  1  0
 33 35  1  0
 34 33  2  0
M  END
$$$$
