WEF.pdb
     RDKit          3D

 35 37  0  0  1  0  0  0  0  0999 V2000
   27.6404  -22.1781  -12.5411 N   0  0  0  0  0  0  0  0  0  0  0  0
   26.6144  -21.3858  -11.9169 C   0  0  1  0  0  0  0  0  0  0  0  0
   27.1781  -20.1680  -11.2644 C   0  0  0  0  0  0  0  0  0  0  0  0
   28.0958  -20.5196  -10.1590 C   0  0  0  0  0  0  0  0  0  0  0  0
   29.3454  -21.1369  -10.3173 C   0  0  0  0  0  0  0  0  0  0  0  0
   29.9344  -21.2885   -9.1400 N   0  0  0  0  0  0  0  0  0  0  0  0
   29.1135  -20.7914   -8.2081 C   0  0  0  0  0  0  0  0  0  0  0  0
   29.2257  -20.6991   -6.8288 C   0  0  0  0  0  0  0  0  0  0  0  0
   28.2529  -20.1536   -6.0421 C   0  0  0  0  0  0  0  0  0  0  0  0
   27.1252  -19.6835   -6.6633 C   0  0  0  0  0  0  0  0  0  0  0  0
   26.9762  -19.7582   -8.0459 C   0  0  0  0  0  0  0  0  0  0  0  0
   27.9640  -20.3073   -8.8101 C   0  0  0  0  0  0  0  0  0  0  0  0
   25.5978  -21.0496  -12.9587 C   0  0  0  0  0  0  0  0  0  0  0  0
   25.9336  -20.3552  -13.9494 O   0  0  0  0  0  0  0  0  0  0  0  0
   24.2626  -21.4696  -12.8984 N   0  0  0  0  0  0  0  0  0  0  0  0
   23.2620  -21.2073  -13.9470 C   0  0  1  0  0  0  0  0  0  0  0  0
   23.6537  -22.1270  -15.0797 C   0  0  0  0  0  0  0  0  0  0  0  0
   24.6417  -23.1841  -14.7103 C   0  0  0  0  0  0  0  0  0  0  0  0
   25.0241  -23.8751  -15.9938 C   0  0  0  0  0  0  0  0  0  0  0  0
   24.4833  -23.6028  -17.0939 O   0  0  0  0  0  0  0  0  0  0  0  0
   21.9008  -21.5044  -13.4353 C   0  0  0  0  0  0  0  0  0  0  0  0
   21.6447  -22.6042  -12.8982 O   0  0  0  0  0  0  0  0  0  0  0  0
   26.0162  -24.8568  -15.9695 O   0  0  0  0  0  0  0  0  0  0  0  0
   20.8695  -20.5545  -13.5442 N   0  0  0  0  0  0  0  0  0  0  0  0
   19.7114  -20.4910  -12.6624 C   0  0  1  0  0  0  0  0  0  0  0  0
   19.9506  -19.5673  -11.5118 C   0  0  0  0  0  0  0  0  0  0  0  0
   20.8822  -20.0676  -10.4857 C   0  0  0  0  0  0  0  0  0  0  0  0
   20.4121  -20.9018   -9.4934 C   0  0  0  0  0  0  0  0  0  0  0  0
   21.2126  -21.4220   -8.5095 C   0  0  0  0  0  0  0  0  0  0  0  0
   22.5555  -21.1169   -8.4811 C   0  0  0  0  0  0  0  0  0  0  0  0
   23.0530  -20.2882   -9.4563 C   0  0  0  0  0  0  0  0  0  0  0  0
   22.2227  -19.7639  -10.4563 C   0  0  0  0  0  0  0  0  0  0  0  0
   18.4902  -20.1253  -13.3900 C   0  0  0  0  0  0  0  0  0  0  0  0
   17.3701  -20.2468  -12.8309 O   0  0  0  0  0  0  0  0  0  0  0  0
   18.5193  -19.6437  -14.6834 O   0  0  0  0  0  0  0  0  0  0  0  0
  2  1  1  6
  2 13  1  0
  3  4  1  0
  3  2  1  0
  4  5  2  0
  5  6  1  0
  7  6  1  0
  8  7  2  0
  9  8  1  0
 10 11  1  0
 10  9  2  0
 11 12  2  0
 12  4  1  0
 12  7  1  0
 13 14  2  0
 15 16  1  0
 15 13  1  0
 16 17  1  6
 18 17  1  0
 19 18  1  0
 20 19  2  0
 21 22  2  0
 21 16  1  0
 23 19  1  0
 24 21  1  0
 25 24  1  0
 25 26  1  1
 27 26  1  0
 28 27  2  0
 29 28  1  0
 30 31  1  0
 30 29  2  0
 31 32  2  0
 32 27  1  0
 33 25  1  0
 33 35  1  0
 34 33  2  0
M  END
$$$$
