WEF.pdb
     RDKit          3D

 35 37  0  0  1  0  0  0  0  0999 V2000
   17.7781  -25.0420  -18.4001 N   0  0  0  0  0  0  0  0  0  0  0  0
   18.9088  -24.1528  -18.3724 C   0  0  1  0  0  0  0  0  0  0  0  0
   18.5140  -22.7483  -18.6854 C   0  0  0  0  0  0  0  0  0  0  0  0
   19.2179  -22.2403  -19.8830 C   0  0  0  0  0  0  0  0  0  0  0  0
   19.3100  -22.9165  -21.1085 C   0  0  0  0  0  0  0  0  0  0  0  0
   19.9782  -22.1838  -21.9874 N   0  0  0  0  0  0  0  0  0  0  0  0
   20.3316  -21.0447  -21.3817 C   0  0  0  0  0  0  0  0  0  0  0  0
   21.0412  -19.9397  -21.8278 C   0  0  0  0  0  0  0  0  0  0  0  0
   21.3076  -18.8617  -21.0343 C   0  0  0  0  0  0  0  0  0  0  0  0
   20.8446  -18.8943  -19.7447 C   0  0  0  0  0  0  0  0  0  0  0  0
   20.1281  -19.9859  -19.2605 C   0  0  0  0  0  0  0  0  0  0  0  0
   19.8741  -21.0509  -20.0744 C   0  0  0  0  0  0  0  0  0  0  0  0
   19.5533  -24.2729  -17.0300 C   0  0  0  0  0  0  0  0  0  0  0  0
   18.8689  -24.6483  -16.0466 O   0  0  0  0  0  0  0  0  0  0  0  0
   20.9042  -23.9863  -16.7938 N   0  0  0  0  0  0  0  0  0  0  0  0
   21.5299  -23.9784  -15.4604 C   0  0  1  0  0  0  0  0  0  0  0  0
   23.0111  -24.0817  -15.7390 C   0  0  0  0  0  0  0  0  0  0  0  0
   23.5283  -25.4783  -15.8484 C   0  0  0  0  0  0  0  0  0  0  0  0
   24.9901  -25.3638  -16.1960 C   0  0  0  0  0  0  0  0  0  0  0  0
   25.4417  -25.6750  -17.3256 O   0  0  0  0  0  0  0  0  0  0  0  0
   21.1850  -22.7242  -14.7454 C   0  0  0  0  0  0  0  0  0  0  0  0
   20.8818  -21.6893  -15.3782 O   0  0  0  0  0  0  0  0  0  0  0  0
   25.8847  -24.8949  -15.2323 O   0  0  0  0  0  0  0  0  0  0  0  0
   21.1925  -22.6735  -13.3400 N   0  0  0  0  0  0  0  0  0  0  0  0
   20.9808  -21.4624  -12.5581 C   0  0  1  0  0  0  0  0  0  0  0  0
   21.4547  -21.6308  -11.1505 C   0  0  0  0  0  0  0  0  0  0  0  0
   22.9176  -21.6774  -10.9799 C   0  0  0  0  0  0  0  0  0  0  0  0
   23.5694  -20.5957  -10.4259 C   0  0  0  0  0  0  0  0  0  0  0  0
   24.9243  -20.5618  -10.2199 C   0  0  0  0  0  0  0  0  0  0  0  0
   25.7017  -21.6431  -10.5717 C   0  0  0  0  0  0  0  0  0  0  0  0
   25.0810  -22.7352  -11.1259 C   0  0  0  0  0  0  0  0  0  0  0  0
   23.6946  -22.7559  -11.3305 C   0  0  0  0  0  0  0  0  0  0  0  0
   21.5994  -20.2902  -13.1885 C   0  0  0  0  0  0  0  0  0  0  0  0
   22.5933  -20.4394  -13.9448 O   0  0  0  0  0  0  0  0  0  0  0  0
   21.1278  -19.0089  -12.9844 O   0  0  0  0  0  0  0  0  0  0  0  0
  2  1  1  1
  2 13  1  0
  3  4  1  0
  3  2  1  0
  4  5  2  0
  5  6  1  0
  7  6  1  0
  8  7  2  0
  9  8  1  0
 10 11  1  0
 10  9  2  0
 11 12  2  0
 12  4  1  0
 12  7  1  0
 13 14  2  0
 15 16  1  0
 15 13  1  0
 16 17  1  6
 18 17  1  0
 19 18  1  0
 20 19  2  0
 21 22  2  0
 21 16  1  0
 23 19  1  0
 24 21  1  0
 25 24  1  0
 25 26  1  1
 27 26  1  0
 28 27  2  0
 29 28  1  0
 30 31  1  0
 30 29  2  0
 31 32  2  0
 32 27  1  0
 33 25  1  0
 33 35  1  0
 34 33  2  0
M  END
$$$$
