WEF.pdb
     RDKit          3D

 35 37  0  0  1  0  0  0  0  0999 V2000
   22.3090   -8.6609  -17.2683 N   0  0  0  0  0  0  0  0  0  0  0  0
   22.3735   -8.7010  -15.8316 C   0  0  1  0  0  0  0  0  0  0  0  0
   23.5012   -7.8768  -15.3067 C   0  0  0  0  0  0  0  0  0  0  0  0
   24.8126   -8.4461  -15.6861 C   0  0  0  0  0  0  0  0  0  0  0  0
   25.8156   -7.7583  -16.3850 C   0  0  0  0  0  0  0  0  0  0  0  0
   26.8789   -8.5333  -16.5421 N   0  0  0  0  0  0  0  0  0  0  0  0
   26.6104   -9.7123  -15.9698 C   0  0  0  0  0  0  0  0  0  0  0  0
   27.3574  -10.8745  -15.8483 C   0  0  0  0  0  0  0  0  0  0  0  0
   26.8889  -11.9930  -15.2219 C   0  0  0  0  0  0  0  0  0  0  0  0
   25.6233  -11.9429  -14.6982 C   0  0  0  0  0  0  0  0  0  0  0  0
   24.8431  -10.7939  -14.8000 C   0  0  0  0  0  0  0  0  0  0  0  0
   25.3350   -9.6885  -15.4303 C   0  0  0  0  0  0  0  0  0  0  0  0
   21.0509   -8.2528  -15.3008 C   0  0  0  0  0  0  0  0  0  0  0  0
   20.5357   -7.1944  -15.7376 O   0  0  0  0  0  0  0  0  0  0  0  0
   20.3330   -8.9548  -14.3239 N   0  0  0  0  0  0  0  0  0  0  0  0
   19.0199   -8.5403  -13.8010 C   0  0  1  0  0  0  0  0  0  0  0  0
   18.1789   -9.7939  -13.8584 C   0  0  0  0  0  0  0  0  0  0  0  0
   17.7332  -10.1826  -15.2296 C   0  0  0  0  0  0  0  0  0  0  0  0
   18.1838  -11.6059  -15.4352 C   0  0  0  0  0  0  0  0  0  0  0  0
   18.3614  -12.4021  -14.4805 O   0  0  0  0  0  0  0  0  0  0  0  0
   19.1638   -8.0305  -12.4144 C   0  0  0  0  0  0  0  0  0  0  0  0
   19.9553   -8.5722  -11.6122 O   0  0  0  0  0  0  0  0  0  0  0  0
   18.4153  -12.0665  -16.7324 O   0  0  0  0  0  0  0  0  0  0  0  0
   18.4119   -6.9270  -11.9734 N   0  0  0  0  0  0  0  0  0  0  0  0
   18.5212   -6.3324  -10.6477 C   0  0  1  0  0  0  0  0  0  0  0  0
   19.0297   -4.9285  -10.7187 C   0  0  0  0  0  0  0  0  0  0  0  0
   18.1431   -3.9714  -11.4035 C   0  0  0  0  0  0  0  0  0  0  0  0
   18.2376   -3.8198  -12.7709 C   0  0  0  0  0  0  0  0  0  0  0  0
   17.4430   -2.9624  -13.4869 C   0  0  0  0  0  0  0  0  0  0  0  0
   16.4945   -2.2006  -12.8408 C   0  0  0  0  0  0  0  0  0  0  0  0
   16.3769   -2.3296  -11.4790 C   0  0  0  0  0  0  0  0  0  0  0  0
   17.1960   -3.2106  -10.7599 C   0  0  0  0  0  0  0  0  0  0  0  0
   17.2526   -6.3994   -9.9126 C   0  0  0  0  0  0  0  0  0  0  0  0
   17.2214   -6.0978   -8.6919 O   0  0  0  0  0  0  0  0  0  0  0  0
   16.0714   -6.7844  -10.5147 O   0  0  0  0  0  0  0  0  0  0  0  0
  2  1  1  6
  2 13  1  0
  3  4  1  0
  3  2  1  0
  4  5  2  0
  5  6  1  0
  7  6  1  0
  8  7  2  0
  9  8  1  0
 10 11  1  0
 10  9  2  0
 11 12  2  0
 12  4  1  0
 12  7  1  0
 13 14  2  0
 15 16  1  0
 15 13  1  0
 16 17  1  1
 18 17  1  0
 19 18  1  0
 20 19  2  0
 21 22  2  0
 21 16  1  0
 23 19  1  0
 24 21  1  0
 25 24  1  0
 25 26  1  6
 27 26  1  0
 28 27  2  0
 29 28  1  0
 30 31  1  0
 30 29  2  0
 31 32  2  0
 32 27  1  0
 33 25  1  0
 33 35  1  0
 34 33  2  0
M  END
$$$$
