WEF.pdb
     RDKit          3D

 35 37  0  0  1  0  0  0  0  0999 V2000
   27.7141  -18.7537  -16.5661 N   0  0  0  0  0  0  0  0  0  0  0  0
   26.6064  -19.6714  -16.5428 C   0  0  1  0  0  0  0  0  0  0  0  0
   26.9389  -20.9187  -15.7942 C   0  0  0  0  0  0  0  0  0  0  0  0
   28.0225  -21.6770  -16.4565 C   0  0  0  0  0  0  0  0  0  0  0  0
   29.0390  -22.3756  -15.7886 C   0  0  0  0  0  0  0  0  0  0  0  0
   29.8345  -22.9746  -16.6628 N   0  0  0  0  0  0  0  0  0  0  0  0
   29.3765  -22.6937  -17.8878 C   0  0  0  0  0  0  0  0  0  0  0  0
   29.8261  -23.0527  -19.1498 C   0  0  0  0  0  0  0  0  0  0  0  0
   29.2097  -22.6471  -20.2980 C   0  0  0  0  0  0  0  0  0  0  0  0
   28.1007  -21.8511  -20.1747 C   0  0  0  0  0  0  0  0  0  0  0  0
   27.6190  -21.4699  -18.9248 C   0  0  0  0  0  0  0  0  0  0  0  0
   28.2528  -21.8897  -17.7920 C   0  0  0  0  0  0  0  0  0  0  0  0
   25.4319  -18.9572  -15.9577 C   0  0  0  0  0  0  0  0  0  0  0  0
   25.5725  -18.3019  -14.8959 O   0  0  0  0  0  0  0  0  0  0  0  0
   24.1542  -18.9730  -16.5321 N   0  0  0  0  0  0  0  0  0  0  0  0
   22.9367  -18.4860  -15.8611 C   0  0  1  0  0  0  0  0  0  0  0  0
   21.9782  -18.1880  -16.9901 C   0  0  0  0  0  0  0  0  0  0  0  0
   20.6286  -17.7205  -16.5543 C   0  0  0  0  0  0  0  0  0  0  0  0
   19.6617  -18.8183  -16.9159 C   0  0  0  0  0  0  0  0  0  0  0  0
   18.4881  -18.8577  -16.4709 O   0  0  0  0  0  0  0  0  0  0  0  0
   22.4101  -19.5289  -14.9456 C   0  0  0  0  0  0  0  0  0  0  0  0
   22.4069  -20.7333  -15.2817 O   0  0  0  0  0  0  0  0  0  0  0  0
   20.0766  -19.8350  -17.7778 O   0  0  0  0  0  0  0  0  0  0  0  0
   21.9030  -19.1839  -13.6801 N   0  0  0  0  0  0  0  0  0  0  0  0
   21.4160  -20.1438  -12.6981 C   0  0  1  0  0  0  0  0  0  0  0  0
   21.1339  -19.4871  -11.3852 C   0  0  0  0  0  0  0  0  0  0  0  0
   19.7884  -18.9017  -11.2501 C   0  0  0  0  0  0  0  0  0  0  0  0
   18.8199  -19.5859  -10.5462 C   0  0  0  0  0  0  0  0  0  0  0  0
   17.5485  -19.1076  -10.3616 C   0  0  0  0  0  0  0  0  0  0  0  0
   17.1876  -17.8884  -10.8915 C   0  0  0  0  0  0  0  0  0  0  0  0
   18.1307  -17.1836  -11.5979 C   0  0  0  0  0  0  0  0  0  0  0  0
   19.4270  -17.6850  -11.7784 C   0  0  0  0  0  0  0  0  0  0  0  0
   20.2421  -20.8770  -13.1864 C   0  0  0  0  0  0  0  0  0  0  0  0
   19.5003  -20.3581  -14.0596 O   0  0  0  0  0  0  0  0  0  0  0  0
   19.9127  -22.1344  -12.7214 O   0  0  0  0  0  0  0  0  0  0  0  0
  2  1  1  1
  2 13  1  0
  3  4  1  0
  3  2  1  0
  4  5  2  0
  5  6  1  0
  7  6  1  0
  8  7  2  0
  9  8  1  0
 10 11  1  0
 10  9  2  0
 11 12  2  0
 12  4  1  0
 12  7  1  0
 13 14  2  0
 15 16  1  0
 15 13  1  0
 16 17  1  6
 18 17  1  0
 19 18  1  0
 20 19  2  0
 21 22  2  0
 21 16  1  0
 23 19  1  0
 24 21  1  0
 25 24  1  0
 25 26  1  1
 27 26  1  0
 28 27  2  0
 29 28  1  0
 30 31  1  0
 30 29  2  0
 31 32  2  0
 32 27  1  0
 33 25  1  0
 33 35  1  0
 34 33  2  0
M  END
$$$$
