WEF.pdb
     RDKit          3D

 35 37  0  0  1  0  0  0  0  0999 V2000
   26.2802  -22.5927  -11.7355 N   0  0  0  0  0  0  0  0  0  0  0  0
   25.9116  -21.2727  -11.2976 C   0  0  1  0  0  0  0  0  0  0  0  0
   27.1021  -20.3829  -11.1648 C   0  0  0  0  0  0  0  0  0  0  0  0
   27.9992  -20.8345  -10.0790 C   0  0  0  0  0  0  0  0  0  0  0  0
   29.1073  -21.6774  -10.2501 C   0  0  0  0  0  0  0  0  0  0  0  0
   29.7213  -21.8685   -9.0915 N   0  0  0  0  0  0  0  0  0  0  0  0
   29.0539  -21.1790   -8.1595 C   0  0  0  0  0  0  0  0  0  0  0  0
   29.2542  -21.0324   -6.7949 C   0  0  0  0  0  0  0  0  0  0  0  0
   28.4386  -20.2757   -6.0044 C   0  0  0  0  0  0  0  0  0  0  0  0
   27.3823  -19.6426   -6.6063 C   0  0  0  0  0  0  0  0  0  0  0  0
   27.1489  -19.7655   -7.9737 C   0  0  0  0  0  0  0  0  0  0  0  0
   27.9797  -20.5272   -8.7422 C   0  0  0  0  0  0  0  0  0  0  0  0
   24.9076  -20.7333  -12.2633 C   0  0  0  0  0  0  0  0  0  0  0  0
   24.5281  -19.5409  -12.1596 O   0  0  0  0  0  0  0  0  0  0  0  0
   24.3498  -21.4913  -13.3011 N   0  0  0  0  0  0  0  0  0  0  0  0
   23.3189  -20.9959  -14.2292 C   0  0  1  0  0  0  0  0  0  0  0  0
   23.5332  -21.7965  -15.4922 C   0  0  0  0  0  0  0  0  0  0  0  0
   24.7729  -21.4475  -16.2480 C   0  0  0  0  0  0  0  0  0  0  0  0
   24.6978  -19.9685  -16.5271 C   0  0  0  0  0  0  0  0  0  0  0  0
   25.5307  -19.1511  -16.0635 O   0  0  0  0  0  0  0  0  0  0  0  0
   21.9689  -21.2172  -13.6531 C   0  0  0  0  0  0  0  0  0  0  0  0
   21.6070  -22.3576  -13.2901 O   0  0  0  0  0  0  0  0  0  0  0  0
   23.6669  -19.4783  -17.3306 O   0  0  0  0  0  0  0  0  0  0  0  0
   21.0677  -20.1479  -13.5039 N   0  0  0  0  0  0  0  0  0  0  0  0
   19.7280  -20.2715  -12.9449 C   0  0  1  0  0  0  0  0  0  0  0  0
   19.3256  -19.0331  -12.2108 C   0  0  0  0  0  0  0  0  0  0  0  0
   17.9246  -18.9978  -11.7559 C   0  0  0  0  0  0  0  0  0  0  0  0
   16.9706  -18.3941  -12.5478 C   0  0  0  0  0  0  0  0  0  0  0  0
   15.6445  -18.3291  -12.2063 C   0  0  0  0  0  0  0  0  0  0  0  0
   15.2102  -18.8830  -11.0222 C   0  0  0  0  0  0  0  0  0  0  0  0
   16.1372  -19.4911  -10.2123 C   0  0  0  0  0  0  0  0  0  0  0  0
   17.4898  -19.5503  -10.5745 C   0  0  0  0  0  0  0  0  0  0  0  0
   18.7387  -20.6243  -13.9701 C   0  0  0  0  0  0  0  0  0  0  0  0
   18.8115  -20.1047  -15.1133 O   0  0  0  0  0  0  0  0  0  0  0  0
   17.7151  -21.5188  -13.7296 O   0  0  0  0  0  0  0  0  0  0  0  0
  2  1  1  6
  2 13  1  0
  3  4  1  0
  3  2  1  0
  4  5  2  0
  5  6  1  0
  7  6  1  0
  8  7  2  0
  9  8  1  0
 10 11  1  0
 10  9  2  0
 11 12  2  0
 12  4  1  0
 12  7  1  0
 13 14  2  0
 15 16  1  0
 15 13  1  0
 16 17  1  6
 18 17  1  0
 19 18  1  0
 20 19  2  0
 21 22  2  0
 21 16  1  0
 23 19  1  0
 24 21  1  0
 25 24  1  0
 25 26  1  6
 27 26  1  0
 28 27  2  0
 29 28  1  0
 30 31  1  0
 30 29  2  0
 31 32  2  0
 32 27  1  0
 33 25  1  0
 33 35  1  0
 34 33  2  0
M  END
$$$$
