WEF.pdb
     RDKit          3D

 35 37  0  0  1  0  0  0  0  0999 V2000
   28.3479  -20.4363   -9.4845 N   0  0  0  0  0  0  0  0  0  0  0  0
   27.1968  -21.2984   -9.4425 C   0  0  1  0  0  0  0  0  0  0  0  0
   26.5036  -21.2293   -8.1229 C   0  0  0  0  0  0  0  0  0  0  0  0
   27.0903  -20.1849   -7.2552 C   0  0  0  0  0  0  0  0  0  0  0  0
   27.1181  -18.8145   -7.5533 C   0  0  0  0  0  0  0  0  0  0  0  0
   27.6837  -18.1411   -6.5620 N   0  0  0  0  0  0  0  0  0  0  0  0
   28.0313  -19.0230   -5.6182 C   0  0  0  0  0  0  0  0  0  0  0  0
   28.6547  -18.8669   -4.3891 C   0  0  0  0  0  0  0  0  0  0  0  0
   28.9328  -19.9163   -3.5620 C   0  0  0  0  0  0  0  0  0  0  0  0
   28.5720  -21.1692   -3.9847 C   0  0  0  0  0  0  0  0  0  0  0  0
   27.9441  -21.3659   -5.2121 C   0  0  0  0  0  0  0  0  0  0  0  0
   27.6761  -20.2999   -6.0202 C   0  0  0  0  0  0  0  0  0  0  0  0
   26.2982  -20.9184  -10.5737 C   0  0  0  0  0  0  0  0  0  0  0  0
   25.8263  -19.7560  -10.6252 O   0  0  0  0  0  0  0  0  0  0  0  0
   25.9403  -21.7974  -11.6042 N   0  0  0  0  0  0  0  0  0  0  0  0
   25.0746  -21.4362  -12.7399 C   0  0  1  0  0  0  0  0  0  0  0  0
   25.3050  -22.5331  -13.7527 C   0  0  0  0  0  0  0  0  0  0  0  0
   24.4951  -22.4083  -15.0010 C   0  0  0  0  0  0  0  0  0  0  0  0
   25.2149  -21.4156  -15.8770 C   0  0  0  0  0  0  0  0  0  0  0  0
   26.4642  -21.4091  -16.0039 O   0  0  0  0  0  0  0  0  0  0  0  0
   23.6586  -21.3750  -12.2992 C   0  0  0  0  0  0  0  0  0  0  0  0
   23.2068  -22.2045  -11.4798 O   0  0  0  0  0  0  0  0  0  0  0  0
   24.4739  -20.4628  -16.5782 O   0  0  0  0  0  0  0  0  0  0  0  0
   22.7945  -20.3823  -12.7947 N   0  0  0  0  0  0  0  0  0  0  0  0
   21.3747  -20.2938  -12.4798 C   0  0  1  0  0  0  0  0  0  0  0  0
   21.0160  -18.9436  -11.9480 C   0  0  0  0  0  0  0  0  0  0  0  0
   19.5845  -18.7381  -11.6654 C   0  0  0  0  0  0  0  0  0  0  0  0
   19.0607  -19.1782  -10.4681 C   0  0  0  0  0  0  0  0  0  0  0  0
   17.7446  -19.0155  -10.1205 C   0  0  0  0  0  0  0  0  0  0  0  0
   16.8765  -18.3866  -10.9855 C   0  0  0  0  0  0  0  0  0  0  0  0
   17.3690  -17.9374  -12.1858 C   0  0  0  0  0  0  0  0  0  0  0  0
   18.7171  -18.1105  -12.5278 C   0  0  0  0  0  0  0  0  0  0  0  0
   20.5366  -20.6491  -13.6312 C   0  0  0  0  0  0  0  0  0  0  0  0
   19.3621  -21.0593  -13.4458 O   0  0  0  0  0  0  0  0  0  0  0  0
   20.9897  -20.5488  -14.9314 O   0  0  0  0  0  0  0  0  0  0  0  0
  2  1  1  1
  2 13  1  0
  3  4  1  0
  3  2  1  0
  4  5  2  0
  5  6  1  0
  7  6  1  0
  8  7  2  0
  9  8  1  0
 10 11  1  0
 10  9  2  0
 11 12  2  0
 12  4  1  0
 12  7  1  0
 13 14  2  0
 15 16  1  0
 15 13  1  0
 16 17  1  6
 18 17  1  0
 19 18  1  0
 20 19  2  0
 21 22  2  0
 21 16  1  0
 23 19  1  0
 24 21  1  0
 25 24  1  0
 25 26  1  6
 27 26  1  0
 28 27  2  0
 29 28  1  0
 30 31  1  0
 30 29  2  0
 31 32  2  0
 32 27  1  0
 33 25  1  0
 33 35  1  0
 34 33  2  0
M  END
$$$$
