WEF.pdb
     RDKit          3D

 35 37  0  0  1  0  0  0  0  0999 V2000
   23.4569  -18.8990  -17.9673 N   0  0  0  0  0  0  0  0  0  0  0  0
   24.2372  -18.2330  -16.9586 C   0  0  1  0  0  0  0  0  0  0  0  0
   23.3749  -17.4773  -16.0036 C   0  0  0  0  0  0  0  0  0  0  0  0
   22.5551  -16.4613  -16.6991 C   0  0  0  0  0  0  0  0  0  0  0  0
   21.1678  -16.3120  -16.5552 C   0  0  0  0  0  0  0  0  0  0  0  0
   20.7380  -15.2940  -17.2864 N   0  0  0  0  0  0  0  0  0  0  0  0
   21.7971  -14.7657  -17.9098 C   0  0  0  0  0  0  0  0  0  0  0  0
   21.9177  -13.7015  -18.7910 C   0  0  0  0  0  0  0  0  0  0  0  0
   23.1114  -13.3204  -19.3320 C   0  0  0  0  0  0  0  0  0  0  0  0
   24.2255  -14.0345  -18.9752 C   0  0  0  0  0  0  0  0  0  0  0  0
   24.1445  -15.1090  -18.0931 C   0  0  0  0  0  0  0  0  0  0  0  0
   22.9392  -15.4694  -17.5652 C   0  0  0  0  0  0  0  0  0  0  0  0
   25.0733  -19.2630  -16.2718 C   0  0  0  0  0  0  0  0  0  0  0  0
   24.6099  -20.4159  -16.0912 O   0  0  0  0  0  0  0  0  0  0  0  0
   26.3715  -19.0180  -15.8056 N   0  0  0  0  0  0  0  0  0  0  0  0
   27.2050  -20.0133  -15.1098 C   0  0  1  0  0  0  0  0  0  0  0  0
   28.5828  -19.8306  -15.7018 C   0  0  0  0  0  0  0  0  0  0  0  0
   28.6885  -20.1740  -17.1512 C   0  0  0  0  0  0  0  0  0  0  0  0
   28.9089  -21.6632  -17.2199 C   0  0  0  0  0  0  0  0  0  0  0  0
   29.0122  -22.3782  -16.1928 O   0  0  0  0  0  0  0  0  0  0  0  0
   27.1894  -19.7556  -13.6482 C   0  0  0  0  0  0  0  0  0  0  0  0
   27.5333  -18.6439  -13.1905 O   0  0  0  0  0  0  0  0  0  0  0  0
   29.0032  -22.2811  -18.4681 O   0  0  0  0  0  0  0  0  0  0  0  0
   26.7876  -20.7573  -12.7465 N   0  0  0  0  0  0  0  0  0  0  0  0
   26.7413  -20.5930  -11.2996 C   0  0  1  0  0  0  0  0  0  0  0  0
   25.8599  -19.4513  -10.9071 C   0  0  0  0  0  0  0  0  0  0  0  0
   24.4358  -19.6077  -11.2516 C   0  0  0  0  0  0  0  0  0  0  0  0
   24.0451  -19.5219  -12.5714 C   0  0  0  0  0  0  0  0  0  0  0  0
   22.7445  -19.6684  -12.9793 C   0  0  0  0  0  0  0  0  0  0  0  0
   21.7555  -19.9138  -12.0525 C   0  0  0  0  0  0  0  0  0  0  0  0
   22.1139  -20.0044  -10.7302 C   0  0  0  0  0  0  0  0  0  0  0  0
   23.4478  -19.8527  -10.3277 C   0  0  0  0  0  0  0  0  0  0  0  0
   26.3376  -21.8307  -10.6219 C   0  0  0  0  0  0  0  0  0  0  0  0
   26.2574  -21.8581   -9.3670 O   0  0  0  0  0  0  0  0  0  0  0  0
   26.0353  -22.9856  -11.3153 O   0  0  0  0  0  0  0  0  0  0  0  0
  2  1  1  6
  2 13  1  0
  3  4  1  0
  3  2  1  0
  4  5  2  0
  5  6  1  0
  7  6  1  0
  8  7  2  0
  9  8  1  0
 10 11  1  0
 10  9  2  0
 11 12  2  0
 12  4  1  0
 12  7  1  0
 13 14  2  0
 15 16  1  0
 15 13  1  0
 16 17  1  6
 18 17  1  0
 19 18  1  0
 20 19  2  0
 21 22  2  0
 21 16  1  0
 23 19  1  0
 24 21  1  0
 25 24  1  0
 25 26  1  6
 27 26  1  0
 28 27  2  0
 29 28  1  0
 30 31  1  0
 30 29  2  0
 31 32  2  0
 32 27  1  0
 33 25  1  0
 33 35  1  0
 34 33  2  0
M  END
$$$$
