PRW.pdb
     RDKit          3D

 33 35  0  0  1  0  0  0  0  0999 V2000
    9.6257  -14.1799   18.7611 N   0  0  0  0  0  0  0  0  0  0  0  0
    9.1148  -13.5659   17.5566 C   0  0  0  0  0  0  0  0  0  0  0  0
    7.7624  -13.0056   17.8506 C   0  0  0  0  0  0  0  0  0  0  0  0
    7.5503  -13.2326   19.3250 C   0  0  0  0  0  0  0  0  0  0  0  0
    8.9123  -13.6014   19.8779 C   0  0  1  0  0  0  0  0  0  0  0  0
    8.7858  -14.6422   20.9291 C   0  0  0  0  0  0  0  0  0  0  0  0
    8.0032  -14.4654   21.9162 O   0  0  0  0  0  0  0  0  0  0  0  0
   11.7650  -18.7957   17.7238 N   0  0  0  0  0  0  0  0  0  0  0  0
   10.8114  -19.8156   17.4822 C   0  0  0  0  0  0  0  0  0  0  0  0
   10.5324  -20.2278   16.2926 N   0  0  0  0  0  0  0  0  0  0  0  0
   10.1165  -20.4322   18.5589 N   0  0  0  0  0  0  0  0  0  0  0  0
   10.2887  -19.9459   19.8850 C   0  0  0  0  0  0  0  0  0  0  0  0
    9.7096  -18.5487   20.0904 C   0  0  0  0  0  0  0  0  0  0  0  0
    9.8909  -18.2167   21.5364 C   0  0  0  0  0  0  0  0  0  0  0  0
    9.3972  -16.8655   21.9304 C   0  0  2  0  0  0  0  0  0  0  0  0
    9.4935  -15.8573   20.9166 N   0  0  0  0  0  0  0  0  0  0  0  0
   10.0176  -16.4027   23.2204 C   0  0  0  0  0  0  0  0  0  0  0  0
   10.8859  -15.4684   23.2133 O   0  0  0  0  0  0  0  0  0  0  0  0
    9.7667  -20.9588   16.2045 N   0  0  0  0  0  0  0  0  0  0  0  0
    9.6937  -16.9513   24.4809 C   0  0  1  0  0  0  0  0  0  0  0  0
   10.0819  -16.3557   25.7538 C   0  0  0  0  0  0  0  0  0  0  0  0
    9.4973  -14.9857   25.7937 C   0  0  0  0  0  0  0  0  0  0  0  0
    8.0383  -14.8918   25.9756 C   0  0  0  0  0  0  0  0  0  0  0  0
    7.0917  -15.8863   25.6780 N   0  0  0  0  0  0  0  0  0  0  0  0
    5.8683  -15.4392   25.9467 C   0  0  0  0  0  0  0  0  0  0  0  0
    5.9431  -14.1625   26.4227 C   0  0  0  0  0  0  0  0  0  0  0  0
    4.9732  -13.2868   26.8454 C   0  0  0  0  0  0  0  0  0  0  0  0
    5.3319  -12.0432   27.3003 C   0  0  0  0  0  0  0  0  0  0  0  0
    6.6669  -11.7109   27.3179 C   0  0  0  0  0  0  0  0  0  0  0  0
    7.6265  -12.5701   26.9018 C   0  0  0  0  0  0  0  0  0  0  0  0
    7.2916  -13.8282   26.4386 C   0  0  0  0  0  0  0  0  0  0  0  0
    9.8386  -17.2352   26.8780 O   0  0  0  0  0  0  0  0  0  0  0  0
   10.2180  -16.9137   28.0566 O   0  0  0  0  0  0  0  0  0  0  0  0
  2  1  1  0
  3  2  1  0
  4  3  1  0
  4  5  1  0
  5  1  1  0
  5  6  1  1
  6  7  2  0
  8  9  1  0
  9 11  1  0
 10  9  2  0
 11 12  1  0
 12 13  1  0
 13 14  1  0
 15 14  1  6
 15 16  1  0
 16  6  1  0
 17 15  1  0
 18 17  2  0
 19 17  1  0
 20 21  1  6
 20 19  1  0
 21 22  1  0
 22 23  2  0
 23 24  1  0
 25 26  2  0
 25 24  1  0
 27 26  1  0
 28 27  2  0
 29 28  1  0
 29 30  2  0
 30 22  1  0
 30 25  1  0
 31 33  1  0
 31 20  1  0
 32 31  2  0
M  END
$$$$
