PRW.pdb
     RDKit          3D

 33 35  0  0  1  0  0  0  0  0999 V2000
    5.4698  -18.8154   21.8432 N   0  0  0  0  0  0  0  0  0  0  0  0
    4.4238  -19.5747   21.1965 C   0  0  0  0  0  0  0  0  0  0  0  0
    4.8459  -21.0058   21.1411 C   0  0  0  0  0  0  0  0  0  0  0  0
    6.1544  -21.0631   21.8860 C   0  0  0  0  0  0  0  0  0  0  0  0
    6.2590  -19.7429   22.6228 C   0  0  1  0  0  0  0  0  0  0  0  0
    7.6620  -19.2573   22.6295 C   0  0  0  0  0  0  0  0  0  0  0  0
    8.5537  -19.8810   23.2884 O   0  0  0  0  0  0  0  0  0  0  0  0
    9.6501  -13.5202   16.7053 N   0  0  0  0  0  0  0  0  0  0  0  0
    8.3671  -13.7159   17.2741 C   0  0  0  0  0  0  0  0  0  0  0  0
    7.3960  -12.8897   17.0802 N   0  0  0  0  0  0  0  0  0  0  0  0
    8.0983  -14.8479   18.0917 N   0  0  0  0  0  0  0  0  0  0  0  0
    9.1101  -15.3565   18.9532 C   0  0  0  0  0  0  0  0  0  0  0  0
    8.6755  -16.6056   19.7153 C   0  0  0  0  0  0  0  0  0  0  0  0
    9.8359  -17.0176   20.5625 C   0  0  0  0  0  0  0  0  0  0  0  0
    9.4643  -17.6931   21.8393 C   0  0  2  0  0  0  0  0  0  0  0  0
    8.0981  -18.1146   21.9355 N   0  0  0  0  0  0  0  0  0  0  0  0
    9.8690  -16.8772   23.0366 C   0  0  0  0  0  0  0  0  0  0  0  0
   10.3538  -15.7079   22.8793 O   0  0  0  0  0  0  0  0  0  0  0  0
    6.4659  -13.1259   17.5356 N   0  0  0  0  0  0  0  0  0  0  0  0
    9.7451  -17.3333   24.3675 C   0  0  1  0  0  0  0  0  0  0  0  0
   10.2356  -16.6018   25.5295 C   0  0  0  0  0  0  0  0  0  0  0  0
    9.7557  -15.1973   25.3985 C   0  0  0  0  0  0  0  0  0  0  0  0
    8.3628  -14.9319   25.7982 C   0  0  0  0  0  0  0  0  0  0  0  0
    7.3126  -15.8640   25.8433 N   0  0  0  0  0  0  0  0  0  0  0  0
    6.1905  -15.2608   26.2252 C   0  0  0  0  0  0  0  0  0  0  0  0
    6.4362  -13.9368   26.4459 C   0  0  0  0  0  0  0  0  0  0  0  0
    5.6197  -12.9125   26.8587 C   0  0  0  0  0  0  0  0  0  0  0  0
    6.1380  -11.6524   27.0184 C   0  0  0  0  0  0  0  0  0  0  0  0
    7.4741  -11.4544   26.7562 C   0  0  0  0  0  0  0  0  0  0  0  0
    8.2828  -12.4604   26.3486 C   0  0  0  0  0  0  0  0  0  0  0  0
    7.7854  -13.7385   26.1797 C   0  0  0  0  0  0  0  0  0  0  0  0
    9.9817  -17.2972   26.7738 O   0  0  0  0  0  0  0  0  0  0  0  0
    9.2272  -18.3298   26.8061 O   0  0  0  0  0  0  0  0  0  0  0  0
  2  1  1  0
  3  2  1  0
  4  3  1  0
  4  5  1  0
  5  1  1  0
  5  6  1  6
  6  7  2  0
  8  9  1  0
  9 11  1  0
 10  9  2  0
 11 12  1  0
 12 13  1  0
 13 14  1  0
 15 14  1  6
 15 16  1  0
 16  6  1  0
 17 15  1  0
 18 17  2  0
 19 17  1  0
 20 21  1  6
 20 19  1  0
 21 22  1  0
 22 23  2  0
 23 24  1  0
 25 26  2  0
 25 24  1  0
 27 26  1  0
 28 27  2  0
 29 28  1  0
 29 30  2  0
 30 22  1  0
 30 25  1  0
 31 33  1  0
 31 20  1  0
 32 31  2  0
M  END
$$$$
