PRW.pdb
     RDKit          3D

 33 35  0  0  1  0  0  0  0  0999 V2000
    9.2898  -14.0263   18.4272 N   0  0  0  0  0  0  0  0  0  0  0  0
    8.8550  -13.4108   17.1939 C   0  0  0  0  0  0  0  0  0  0  0  0
    7.4089  -13.0631   17.3252 C   0  0  0  0  0  0  0  0  0  0  0  0
    7.0433  -13.4137   18.7443 C   0  0  0  0  0  0  0  0  0  0  0  0
    8.3614  -13.6265   19.4611 C   0  0  1  0  0  0  0  0  0  0  0  0
    8.2529  -14.7416   20.4354 C   0  0  0  0  0  0  0  0  0  0  0  0
    7.4257  -14.6733   21.3993 O   0  0  0  0  0  0  0  0  0  0  0  0
    9.6491  -23.2372   22.1200 N   0  0  0  0  0  0  0  0  0  0  0  0
    8.4812  -22.4632   22.3319 C   0  0  0  0  0  0  0  0  0  0  0  0
    7.9899  -22.2682   23.5082 N   0  0  0  0  0  0  0  0  0  0  0  0
    7.7973  -21.8633   21.2389 N   0  0  0  0  0  0  0  0  0  0  0  0
    8.3831  -20.7617   20.5546 C   0  0  0  0  0  0  0  0  0  0  0  0
    8.5773  -19.5378   21.4458 C   0  0  0  0  0  0  0  0  0  0  0  0
    8.7359  -18.3636   20.5347 C   0  0  0  0  0  0  0  0  0  0  0  0
    8.8550  -17.0494   21.2298 C   0  0  2  0  0  0  0  0  0  0  0  0
    9.0259  -15.9146   20.3715 N   0  0  0  0  0  0  0  0  0  0  0  0
    9.9071  -17.0837   22.3045 C   0  0  0  0  0  0  0  0  0  0  0  0
   10.4723  -18.1853   22.6110 O   0  0  0  0  0  0  0  0  0  0  0  0
    7.2217  -21.5396   23.5935 N   0  0  0  0  0  0  0  0  0  0  0  0
   10.3251  -15.9411   23.0217 C   0  0  2  0  0  0  0  0  0  0  0  0
    9.7013  -15.4794   24.2560 C   0  0  0  0  0  0  0  0  0  0  0  0
    8.5280  -14.6462   23.8697 C   0  0  0  0  0  0  0  0  0  0  0  0
    7.5599  -14.3292   24.9340 C   0  0  0  0  0  0  0  0  0  0  0  0
    6.7023  -15.2336   25.5824 N   0  0  0  0  0  0  0  0  0  0  0  0
    5.9514  -14.5865   26.4689 C   0  0  0  0  0  0  0  0  0  0  0  0
    6.2666  -13.2589   26.4517 C   0  0  0  0  0  0  0  0  0  0  0  0
    5.7874  -12.1966   27.1785 C   0  0  0  0  0  0  0  0  0  0  0  0
    6.3012  -10.9421   26.9681 C   0  0  0  0  0  0  0  0  0  0  0  0
    7.2908  -10.7882   26.0247 C   0  0  0  0  0  0  0  0  0  0  0  0
    7.7661  -11.8317   25.3054 C   0  0  0  0  0  0  0  0  0  0  0  0
    7.2650  -13.1051   25.4978 C   0  0  0  0  0  0  0  0  0  0  0  0
    9.4953  -16.5487   25.2103 O   0  0  0  0  0  0  0  0  0  0  0  0
    9.8795  -16.4275   26.4244 O   0  0  0  0  0  0  0  0  0  0  0  0
  2  1  1  0
  3  2  1  0
  4  3  1  0
  4  5  1  0
  5  1  1  0
  5  6  1  1
  6  7  2  0
  8  9  1  0
  9 11  1  0
 10  9  2  0
 11 12  1  0
 12 13  1  0
 13 14  1  0
 15 14  1  6
 15 16  1  0
 16  6  1  0
 17 15  1  0
 18 17  2  0
 19 17  1  0
 20 21  1  6
 20 19  1  0
 21 22  1  0
 22 23  2  0
 23 24  1  0
 25 26  2  0
 25 24  1  0
 27 26  1  0
 28 27  2  0
 29 28  1  0
 29 30  2  0
 30 22  1  0
 30 25  1  0
 31 33  1  0
 31 20  1  0
 32 31  2  0
M  END
$$$$
