PRW.pdb
     RDKit          3D

 33 35  0  0  1  0  0  0  0  0999 V2000
    6.5197  -19.9331   22.2227 N   0  0  0  0  0  0  0  0  0  0  0  0
    5.4501  -20.7860   21.7564 C   0  0  0  0  0  0  0  0  0  0  0  0
    5.7090  -21.1271   20.3261 C   0  0  0  0  0  0  0  0  0  0  0  0
    7.0470  -20.5119   20.0069 C   0  0  0  0  0  0  0  0  0  0  0  0
    7.6509  -20.1391   21.3458 C   0  0  1  0  0  0  0  0  0  0  0  0
    8.3927  -18.8569   21.2463 C   0  0  0  0  0  0  0  0  0  0  0  0
    9.5126  -18.8085   20.6450 O   0  0  0  0  0  0  0  0  0  0  0  0
    8.0693  -14.9068   17.1141 N   0  0  0  0  0  0  0  0  0  0  0  0
    8.2259  -13.5754   17.5732 C   0  0  0  0  0  0  0  0  0  0  0  0
    7.5926  -12.5860   17.0413 N   0  0  0  0  0  0  0  0  0  0  0  0
    9.1001  -13.2763   18.6542 N   0  0  0  0  0  0  0  0  0  0  0  0
    9.2710  -14.2163   19.7087 C   0  0  0  0  0  0  0  0  0  0  0  0
    8.3368  -13.9677   20.8898 C   0  0  0  0  0  0  0  0  0  0  0  0
    7.6519  -15.2649   21.1765 C   0  0  0  0  0  0  0  0  0  0  0  0
    8.5637  -16.3719   21.5859 C   0  0  2  0  0  0  0  0  0  0  0  0
    7.9335  -17.6430   21.7879 N   0  0  0  0  0  0  0  0  0  0  0  0
    9.4066  -15.9867   22.7709 C   0  0  0  0  0  0  0  0  0  0  0  0
   10.2684  -15.0521   22.6658 O   0  0  0  0  0  0  0  0  0  0  0  0
    7.8192  -11.6161   17.4104 N   0  0  0  0  0  0  0  0  0  0  0  0
    9.3059  -16.6107   24.0338 C   0  0  1  0  0  0  0  0  0  0  0  0
   10.2198  -16.3613   25.1422 C   0  0  0  0  0  0  0  0  0  0  0  0
    9.8851  -15.0179   25.6930 C   0  0  0  0  0  0  0  0  0  0  0  0
    8.4585  -14.7321   25.9244 C   0  0  0  0  0  0  0  0  0  0  0  0
    7.4130  -15.6695   25.9675 N   0  0  0  0  0  0  0  0  0  0  0  0
    6.2563  -15.0458   26.1712 C   0  0  0  0  0  0  0  0  0  0  0  0
    6.4733  -13.7022   26.2705 C   0  0  0  0  0  0  0  0  0  0  0  0
    5.6157  -12.6519   26.4890 C   0  0  0  0  0  0  0  0  0  0  0  0
    6.1103  -11.3744   26.5612 C   0  0  0  0  0  0  0  0  0  0  0  0
    7.4648  -11.1857   26.4104 C   0  0  0  0  0  0  0  0  0  0  0  0
    8.3140  -12.2173   26.1944 C   0  0  0  0  0  0  0  0  0  0  0  0
    7.8412  -13.5134   26.1169 C   0  0  0  0  0  0  0  0  0  0  0  0
   10.2978  -17.4767   26.0621 O   0  0  0  0  0  0  0  0  0  0  0  0
    9.5735  -18.5177   25.8939 O   0  0  0  0  0  0  0  0  0  0  0  0
  2  1  1  0
  3  2  1  0
  4  3  1  0
  4  5  1  0
  5  1  1  0
  5  6  1  6
  6  7  2  0
  8  9  1  0
  9 11  1  0
 10  9  2  0
 11 12  1  0
 12 13  1  0
 13 14  1  0
 15 14  1  1
 15 16  1  0
 16  6  1  0
 17 15  1  0
 18 17  2  0
 19 17  1  0
 20 21  1  1
 20 19  1  0
 21 22  1  0
 22 23  2  0
 23 24  1  0
 25 26  2  0
 25 24  1  0
 27 26  1  0
 28 27  2  0
 29 28  1  0
 29 30  2  0
 30 22  1  0
 30 25  1  0
 31 33  1  0
 31 20  1  0
 32 31  2  0
M  END
$$$$
