PRW.pdb
     RDKit          3D

 33 35  0  0  1  0  0  0  0  0999 V2000
    7.3689  -19.4036   21.5980 N   0  0  0  0  0  0  0  0  0  0  0  0
    6.2337  -20.1273   21.0721 C   0  0  0  0  0  0  0  0  0  0  0  0
    6.2489  -20.0105   19.5837 C   0  0  0  0  0  0  0  0  0  0  0  0
    7.5166  -19.2645   19.2567 C   0  0  0  0  0  0  0  0  0  0  0  0
    8.3370  -19.2825   20.5307 C   0  0  1  0  0  0  0  0  0  0  0  0
    9.0557  -17.9955   20.7083 C   0  0  0  0  0  0  0  0  0  0  0  0
   10.1489  -17.7811   20.0942 O   0  0  0  0  0  0  0  0  0  0  0  0
    8.9019  -12.4885   16.8142 N   0  0  0  0  0  0  0  0  0  0  0  0
    7.9029  -13.4506   17.1041 C   0  0  0  0  0  0  0  0  0  0  0  0
    7.7083  -14.4852   16.3592 N   0  0  0  0  0  0  0  0  0  0  0  0
    7.0653  -13.3094   18.2446 N   0  0  0  0  0  0  0  0  0  0  0  0
    7.6445  -13.1813   19.5380 C   0  0  0  0  0  0  0  0  0  0  0  0
    8.6730  -14.2669   19.8438 C   0  0  0  0  0  0  0  0  0  0  0  0
    8.6342  -14.4918   21.3209 C   0  0  0  0  0  0  0  0  0  0  0  0
    9.3180  -15.7359   21.7783 C   0  0  2  0  0  0  0  0  0  0  0  0
    8.6023  -16.9537   21.5369 N   0  0  0  0  0  0  0  0  0  0  0  0
    9.7521  -15.6341   23.2151 C   0  0  0  0  0  0  0  0  0  0  0  0
   10.5240  -14.6881   23.5843 O   0  0  0  0  0  0  0  0  0  0  0  0
    6.9728  -15.1795   16.6836 N   0  0  0  0  0  0  0  0  0  0  0  0
    9.3503  -16.5455   24.2163 C   0  0  1  0  0  0  0  0  0  0  0  0
    9.8661  -16.5389   25.5800 C   0  0  0  0  0  0  0  0  0  0  0  0
    8.6895  -16.5338   26.4942 C   0  0  0  0  0  0  0  0  0  0  0  0
    7.6196  -15.5668   26.1932 C   0  0  0  0  0  0  0  0  0  0  0  0
    6.3715  -15.8521   25.6147 N   0  0  0  0  0  0  0  0  0  0  0  0
    5.6748  -14.7287   25.4688 C   0  0  0  0  0  0  0  0  0  0  0  0
    6.4069  -13.6740   25.9312 C   0  0  0  0  0  0  0  0  0  0  0  0
    6.1270  -12.3317   26.0089 C   0  0  0  0  0  0  0  0  0  0  0  0
    7.0545  -11.4739   26.5437 C   0  0  0  0  0  0  0  0  0  0  0  0
    8.2482  -11.9930   26.9892 C   0  0  0  0  0  0  0  0  0  0  0  0
    8.5292  -13.3150   26.9142 C   0  0  0  0  0  0  0  0  0  0  0  0
    7.6123  -14.1999   26.3795 C   0  0  0  0  0  0  0  0  0  0  0  0
   10.8921  -17.5383   25.7926 O   0  0  0  0  0  0  0  0  0  0  0  0
   11.2382  -18.3335   24.8523 O   0  0  0  0  0  0  0  0  0  0  0  0
  2  1  1  0
  3  2  1  0
  4  3  1  0
  4  5  1  0
  5  1  1  0
  5  6  1  1
  6  7  2  0
  8  9  1  0
  9 11  1  0
 10  9  2  0
 11 12  1  0
 12 13  1  0
 13 14  1  0
 15 14  1  1
 15 16  1  0
 16  6  1  0
 17 15  1  0
 18 17  2  0
 19 17  1  0
 20 21  1  6
 20 19  1  0
 21 22  1  0
 22 23  2  0
 23 24  1  0
 25 26  2  0
 25 24  1  0
 27 26  1  0
 28 27  2  0
 29 28  1  0
 29 30  2  0
 30 22  1  0
 30 25  1  0
 31 33  1  0
 31 20  1  0
 32 31  2  0
M  END
$$$$
