DFH.pdb
     RDKit          3D

 30 31  0  0  1  0  0  0  0  0999 V2000
    8.6406  -17.3376   19.8907 N   0  0  0  0  0  0  0  0  0  0  0  0
   10.0203  -17.1468   20.4074 C   0  0  1  0  0  0  0  0  0  0  0  0
   10.8112  -16.6814   19.2370 C   0  0  0  0  0  0  0  0  0  0  0  0
   10.7323  -17.4527   18.0142 C   0  0  0  0  0  0  0  0  0  0  0  0
   11.2715  -18.5696   17.9071 O   0  0  0  0  0  0  0  0  0  0  0  0
    9.9809  -16.2159   21.5572 C   0  0  0  0  0  0  0  0  0  0  0  0
   11.0202  -15.6812   21.9925 O   0  0  0  0  0  0  0  0  0  0  0  0
   10.0422  -16.9514   16.9219 O   0  0  0  0  0  0  0  0  0  0  0  0
    8.7581  -15.8821   22.2257 N   0  0  0  0  0  0  0  0  0  0  0  0
    8.7251  -15.0886   23.4501 C   0  0  1  0  0  0  0  0  0  0  0  0
    7.4254  -14.3669   23.6029 C   0  0  0  0  0  0  0  0  0  0  0  0
    7.2843  -13.5864   24.8443 C   0  0  0  0  0  0  0  0  0  0  0  0
    8.0317  -12.4450   25.0121 C   0  0  0  0  0  0  0  0  0  0  0  0
    7.9226  -11.6769   26.1724 C   0  0  0  0  0  0  0  0  0  0  0  0
    7.0543  -12.0593   27.1742 C   0  0  0  0  0  0  0  0  0  0  0  0
    6.3203  -13.2035   26.9802 C   0  0  0  0  0  0  0  0  0  0  0  0
    6.4153  -13.9740   25.8406 C   0  0  0  0  0  0  0  0  0  0  0  0
    8.9700  -16.0099   24.5823 C   0  0  0  0  0  0  0  0  0  0  0  0
    8.1615  -16.9435   24.8435 O   0  0  0  0  0  0  0  0  0  0  0  0
   10.1125  -15.8837   25.4135 N   0  0  0  0  0  0  0  0  0  0  0  0
   10.3293  -16.8629   26.4695 C   0  0  1  0  0  0  0  0  0  0  0  0
   11.7608  -17.3646   26.4078 C   0  0  0  0  0  0  0  0  0  0  0  0
   12.0310  -18.1951   25.2202 C   0  0  0  0  0  0  0  0  0  0  0  0
   11.1833  -18.7049   24.2824 C   0  0  0  0  0  0  0  0  0  0  0  0
   11.9330  -19.4084   23.4045 N   0  0  0  0  0  0  0  0  0  0  0  0
   13.2090  -19.3425   23.7791 C   0  0  0  0  0  0  0  0  0  0  0  0
   13.2855  -18.6012   24.8922 N   0  0  0  0  0  0  0  0  0  0  0  0
   10.0640  -16.2430   27.7902 C   0  0  0  0  0  0  0  0  0  0  0  0
    9.7907  -15.0277   27.9357 O   0  0  0  0  0  0  0  0  0  0  0  0
   10.1075  -17.0052   28.9651 O   0  0  0  0  0  0  0  0  0  0  0  0
  2  1  1  6
  2  3  1  0
  4  5  2  0
  4  3  1  0
  6  2  1  0
  6  7  2  0
  8  4  1  0
  9  6  1  0
 10  9  1  0
 11 12  1  0
 10 11  1  1
 12 17  2  0
 13 14  2  0
 13 12  1  0
 14 15  1  0
 15 16  2  0
 17 16  1  0
 18 10  1  0
 18 19  2  0
 20 18  1  0
 21 20  1  0
 21 28  1  0
 21 22  1  1
 23 22  1  0
 24 23  2  0
 25 24  1  0
 26 25  1  0
 26 27  2  0
 27 23  1  0
 28 30  1  0
 29 28  2  0
M  END
$$$$
