DFH.pdb
     RDKit          3D

 30 31  0  0  1  0  0  0  0  0999 V2000
   10.4961  -16.7617   19.8050 N   0  0  0  0  0  0  0  0  0  0  0  0
    9.5043  -17.2637   20.7906 C   0  0  1  0  0  0  0  0  0  0  0  0
    9.8554  -18.6938   20.9992 C   0  0  0  0  0  0  0  0  0  0  0  0
    9.7807  -19.5844   19.8601 C   0  0  0  0  0  0  0  0  0  0  0  0
    8.7761  -19.6280   19.1262 O   0  0  0  0  0  0  0  0  0  0  0  0
    9.5549  -16.4147   22.0018 C   0  0  0  0  0  0  0  0  0  0  0  0
   10.6425  -16.0515   22.4922 O   0  0  0  0  0  0  0  0  0  0  0  0
   10.8461  -20.4189   19.5618 O   0  0  0  0  0  0  0  0  0  0  0  0
    8.3679  -15.9686   22.6695 N   0  0  0  0  0  0  0  0  0  0  0  0
    8.4084  -15.1642   23.8866 C   0  0  1  0  0  0  0  0  0  0  0  0
    7.1445  -14.3894   24.0759 C   0  0  0  0  0  0  0  0  0  0  0  0
    7.0723  -13.6026   25.3193 C   0  0  0  0  0  0  0  0  0  0  0  0
    7.9555  -12.5678   25.5150 C   0  0  0  0  0  0  0  0  0  0  0  0
    7.9156  -11.7971   26.6781 C   0  0  0  0  0  0  0  0  0  0  0  0
    6.9791  -12.0688   27.6542 C   0  0  0  0  0  0  0  0  0  0  0  0
    6.1093  -13.1080   27.4327 C   0  0  0  0  0  0  0  0  0  0  0  0
    6.1345  -13.8794   26.2900 C   0  0  0  0  0  0  0  0  0  0  0  0
    8.6544  -16.0851   25.0188 C   0  0  0  0  0  0  0  0  0  0  0  0
    7.7747  -16.9148   25.3812 O   0  0  0  0  0  0  0  0  0  0  0  0
    9.8774  -16.0743   25.7374 N   0  0  0  0  0  0  0  0  0  0  0  0
   10.0145  -16.9255   26.9111 C   0  0  1  0  0  0  0  0  0  0  0  0
   11.0895  -17.9671   26.6577 C   0  0  0  0  0  0  0  0  0  0  0  0
   10.6346  -19.0666   25.7875 C   0  0  0  0  0  0  0  0  0  0  0  0
    9.4052  -19.3319   25.2621 C   0  0  0  0  0  0  0  0  0  0  0  0
    9.5148  -20.4693   24.5397 N   0  0  0  0  0  0  0  0  0  0  0  0
   10.7715  -20.9036   24.6095 C   0  0  0  0  0  0  0  0  0  0  0  0
   11.4714  -20.0533   25.3720 N   0  0  0  0  0  0  0  0  0  0  0  0
   10.3735  -16.1004   28.0898 C   0  0  0  0  0  0  0  0  0  0  0  0
   10.4418  -16.5602   29.2545 O   0  0  0  0  0  0  0  0  0  0  0  0
   10.6600  -14.7356   27.9529 O   0  0  0  0  0  0  0  0  0  0  0  0
  2  1  1  6
  2  3  1  0
  4  5  2  0
  4  3  1  0
  6  2  1  0
  6  7  2  0
  8  4  1  0
  9  6  1  0
 10  9  1  0
 11 12  1  0
 10 11  1  1
 12 17  2  0
 13 14  2  0
 13 12  1  0
 14 15  1  0
 15 16  2  0
 17 16  1  0
 18 10  1  0
 18 19  2  0
 20 18  1  0
 21 20  1  0
 21 28  1  0
 21 22  1  6
 23 22  1  0
 24 23  2  0
 25 24  1  0
 26 25  1  0
 26 27  2  0
 27 23  1  0
 28 30  1  0
 29 28  2  0
M  END
$$$$
