DFH.pdb
     RDKit          3D

 30 31  0  0  1  0  0  0  0  0999 V2000
    9.3276  -15.8396   18.9867 N   0  0  0  0  0  0  0  0  0  0  0  0
    9.7797  -16.7537   20.0671 C   0  0  1  0  0  0  0  0  0  0  0  0
   11.0954  -17.2741   19.6086 C   0  0  0  0  0  0  0  0  0  0  0  0
   11.1365  -18.0155   18.3657 C   0  0  0  0  0  0  0  0  0  0  0  0
   10.1580  -18.6685   17.9586 O   0  0  0  0  0  0  0  0  0  0  0  0
    9.8017  -16.0134   21.3484 C   0  0  0  0  0  0  0  0  0  0  0  0
   10.8489  -15.4852   21.7724 O   0  0  0  0  0  0  0  0  0  0  0  0
   12.2874  -18.0108   17.5936 O   0  0  0  0  0  0  0  0  0  0  0  0
    8.6318  -15.8651   22.1627 N   0  0  0  0  0  0  0  0  0  0  0  0
    8.6145  -15.0417   23.3675 C   0  0  1  0  0  0  0  0  0  0  0  0
    7.2879  -14.3822   23.5638 C   0  0  0  0  0  0  0  0  0  0  0  0
    7.1658  -13.5726   24.7885 C   0  0  0  0  0  0  0  0  0  0  0  0
    6.2935  -13.9681   25.7744 C   0  0  0  0  0  0  0  0  0  0  0  0
    6.1531  -13.2296   26.9506 C   0  0  0  0  0  0  0  0  0  0  0  0
    6.8963  -12.0822   27.1379 C   0  0  0  0  0  0  0  0  0  0  0  0
    7.7595  -11.7104   26.1368 C   0  0  0  0  0  0  0  0  0  0  0  0
    7.9109  -12.4278   24.9690 C   0  0  0  0  0  0  0  0  0  0  0  0
    8.9580  -15.9189   24.5091 C   0  0  0  0  0  0  0  0  0  0  0  0
    8.4445  -17.0667   24.6207 O   0  0  0  0  0  0  0  0  0  0  0  0
    9.8699  -15.5107   25.5160 N   0  0  0  0  0  0  0  0  0  0  0  0
   10.1211  -16.3980   26.6432 C   0  0  1  0  0  0  0  0  0  0  0  0
   11.0002  -15.6896   27.6582 C   0  0  0  0  0  0  0  0  0  0  0  0
   11.1311  -16.4307   28.9258 C   0  0  0  0  0  0  0  0  0  0  0  0
   10.1865  -17.0275   29.7064 C   0  0  0  0  0  0  0  0  0  0  0  0
   10.8256  -17.5634   30.7703 N   0  0  0  0  0  0  0  0  0  0  0  0
   12.1284  -17.3112   30.6611 C   0  0  0  0  0  0  0  0  0  0  0  0
   12.3319  -16.6165   29.5339 N   0  0  0  0  0  0  0  0  0  0  0  0
    8.8352  -16.7896   27.2694 C   0  0  0  0  0  0  0  0  0  0  0  0
    8.6810  -17.8556   27.9116 O   0  0  0  0  0  0  0  0  0  0  0  0
    7.7058  -15.9663   27.1699 O   0  0  0  0  0  0  0  0  0  0  0  0
  2  1  1  6
  2  3  1  0
  4  5  2  0
  4  3  1  0
  6  2  1  0
  6  7  2  0
  8  4  1  0
  9  6  1  0
 10  9  1  0
 11 12  1  0
 10 11  1  1
 12 17  2  0
 13 14  2  0
 13 12  1  0
 14 15  1  0
 15 16  2  0
 17 16  1  0
 18 10  1  0
 18 19  2  0
 20 18  1  0
 21 20  1  0
 21 28  1  0
 21 22  1  1
 23 22  1  0
 24 23  2  0
 25 24  1  0
 26 25  1  0
 26 27  2  0
 27 23  1  0
 28 30  1  0
 29 28  2  0
M  END
$$$$
