DFH.pdb
     RDKit          3D

 30 31  0  0  1  0  0  0  0  0999 V2000
    7.4364  -16.1068   20.2319 N   0  0  0  0  0  0  0  0  0  0  0  0
    8.5725  -16.8432   20.8435 C   0  0  1  0  0  0  0  0  0  0  0  0
    9.7326  -16.5747   19.9525 C   0  0  0  0  0  0  0  0  0  0  0  0
    9.7335  -17.1811   18.6377 C   0  0  0  0  0  0  0  0  0  0  0  0
   10.7145  -17.0948   17.8761 O   0  0  0  0  0  0  0  0  0  0  0  0
    8.7347  -16.4017   22.2468 C   0  0  0  0  0  0  0  0  0  0  0  0
    9.8403  -16.0228   22.6820 O   0  0  0  0  0  0  0  0  0  0  0  0
    8.6217  -17.8808   18.1965 O   0  0  0  0  0  0  0  0  0  0  0  0
    7.6402  -16.3859   23.1717 N   0  0  0  0  0  0  0  0  0  0  0  0
    7.7821  -15.9164   24.5463 C   0  0  1  0  0  0  0  0  0  0  0  0
    6.5229  -15.2837   25.0440 C   0  0  0  0  0  0  0  0  0  0  0  0
    6.6520  -13.8778   25.4646 C   0  0  0  0  0  0  0  0  0  0  0  0
    7.8844  -13.2708   25.4199 C   0  0  0  0  0  0  0  0  0  0  0  0
    8.0457  -11.9392   25.8063 C   0  0  0  0  0  0  0  0  0  0  0  0
    6.9582  -11.2103   26.2419 C   0  0  0  0  0  0  0  0  0  0  0  0
    5.7393  -11.8417   26.2766 C   0  0  0  0  0  0  0  0  0  0  0  0
    5.5617  -13.1558   25.8986 C   0  0  0  0  0  0  0  0  0  0  0  0
    8.1681  -17.0805   25.3749 C   0  0  0  0  0  0  0  0  0  0  0  0
    7.3651  -18.0363   25.5623 O   0  0  0  0  0  0  0  0  0  0  0  0
    9.4445  -17.1703   25.9872 N   0  0  0  0  0  0  0  0  0  0  0  0
    9.7417  -18.3159   26.8358 C   0  0  1  0  0  0  0  0  0  0  0  0
   10.9488  -19.0536   26.2850 C   0  0  0  0  0  0  0  0  0  0  0  0
   10.7381  -19.5673   24.9195 C   0  0  0  0  0  0  0  0  0  0  0  0
    9.6525  -19.4876   24.0991 C   0  0  0  0  0  0  0  0  0  0  0  0
    9.9679  -20.1316   22.9531 N   0  0  0  0  0  0  0  0  0  0  0  0
   11.2103  -20.6002   23.0510 C   0  0  0  0  0  0  0  0  0  0  0  0
   11.6966  -20.2620   24.2525 N   0  0  0  0  0  0  0  0  0  0  0  0
   10.0134  -17.8576   28.2197 C   0  0  0  0  0  0  0  0  0  0  0  0
   10.2390  -18.6430   29.1710 O   0  0  0  0  0  0  0  0  0  0  0  0
   10.0312  -16.4927   28.5358 O   0  0  0  0  0  0  0  0  0  0  0  0
  2  1  1  6
  2  3  1  0
  4  5  2  0
  4  3  1  0
  6  2  1  0
  6  7  2  0
  8  4  1  0
  9  6  1  0
 10  9  1  0
 11 12  1  0
 10 11  1  1
 12 17  2  0
 13 14  2  0
 13 12  1  0
 14 15  1  0
 15 16  2  0
 17 16  1  0
 18 10  1  0
 18 19  2  0
 20 18  1  0
 21 20  1  0
 21 28  1  0
 21 22  1  6
 23 22  1  0
 24 23  2  0
 25 24  1  0
 26 25  1  0
 26 27  2  0
 27 23  1  0
 28 30  1  0
 29 28  2  0
M  END
$$$$
