DFH.pdb
     RDKit          3D

 30 31  0  0  1  0  0  0  0  0999 V2000
    9.8759  -16.5925   19.5644 N   0  0  0  0  0  0  0  0  0  0  0  0
    9.6765  -17.3286   20.8394 C   0  0  1  0  0  0  0  0  0  0  0  0
   10.7530  -18.3543   20.8667 C   0  0  0  0  0  0  0  0  0  0  0  0
   11.0905  -19.0176   19.6248 C   0  0  0  0  0  0  0  0  0  0  0  0
   10.8884  -18.4824   18.5191 O   0  0  0  0  0  0  0  0  0  0  0  0
    9.6908  -16.3636   21.9614 C   0  0  0  0  0  0  0  0  0  0  0  0
   10.7576  -15.8645   22.3717 O   0  0  0  0  0  0  0  0  0  0  0  0
   11.6549  -20.2831   19.6460 O   0  0  0  0  0  0  0  0  0  0  0  0
    8.4910  -15.9548   22.6300 N   0  0  0  0  0  0  0  0  0  0  0  0
    8.5053  -15.1060   23.8171 C   0  0  1  0  0  0  0  0  0  0  0  0
    7.1876  -14.4332   24.0280 C   0  0  0  0  0  0  0  0  0  0  0  0
    7.0977  -13.5965   25.2372 C   0  0  0  0  0  0  0  0  0  0  0  0
    7.7917  -12.4112   25.2904 C   0  0  0  0  0  0  0  0  0  0  0  0
    7.7283  -11.5895   26.4169 C   0  0  0  0  0  0  0  0  0  0  0  0
    6.9602  -11.9624   27.5008 C   0  0  0  0  0  0  0  0  0  0  0  0
    6.2777  -13.1513   27.4206 C   0  0  0  0  0  0  0  0  0  0  0  0
    6.3288  -13.9750   26.3159 C   0  0  0  0  0  0  0  0  0  0  0  0
    8.8680  -15.9612   24.9694 C   0  0  0  0  0  0  0  0  0  0  0  0
    8.1399  -16.9357   25.3066 O   0  0  0  0  0  0  0  0  0  0  0  0
   10.0378  -15.7240   25.7358 N   0  0  0  0  0  0  0  0  0  0  0  0
   10.2700  -16.5182   26.9342 C   0  0  1  0  0  0  0  0  0  0  0  0
   11.6340  -17.1789   26.8466 C   0  0  0  0  0  0  0  0  0  0  0  0
   11.6650  -18.3180   25.9114 C   0  0  0  0  0  0  0  0  0  0  0  0
   10.6492  -19.0245   25.3396 C   0  0  0  0  0  0  0  0  0  0  0  0
   11.2113  -19.9800   24.5659 N   0  0  0  0  0  0  0  0  0  0  0  0
   12.5362  -19.8768   24.6495 C   0  0  0  0  0  0  0  0  0  0  0  0
   12.8304  -18.8611   25.4718 N   0  0  0  0  0  0  0  0  0  0  0  0
   10.2022  -15.6483   28.1332 C   0  0  0  0  0  0  0  0  0  0  0  0
   10.0353  -14.4069   28.0721 O   0  0  0  0  0  0  0  0  0  0  0  0
   10.3246  -16.1866   29.4211 O   0  0  0  0  0  0  0  0  0  0  0  0
  2  1  1  6
  2  3  1  0
  4  5  2  0
  4  3  1  0
  6  2  1  0
  6  7  2  0
  8  4  1  0
  9  6  1  0
 10  9  1  0
 11 12  1  0
 10 11  1  1
 12 17  2  0
 13 14  2  0
 13 12  1  0
 14 15  1  0
 15 16  2  0
 17 16  1  0
 18 10  1  0
 18 19  2  0
 20 18  1  0
 21 20  1  0
 21 28  1  0
 21 22  1  6
 23 22  1  0
 24 23  2  0
 25 24  1  0
 26 25  1  0
 26 27  2  0
 27 23  1  0
 28 30  1  0
 29 28  2  0
M  END
$$$$
