DFH.pdb
     RDKit          3D

 30 31  0  0  1  0  0  0  0  0999 V2000
   10.6274  -16.7240   19.5981 N   0  0  0  0  0  0  0  0  0  0  0  0
    9.5777  -17.1898   20.5407 C   0  0  1  0  0  0  0  0  0  0  0  0
    9.8438  -18.6408   20.7302 C   0  0  0  0  0  0  0  0  0  0  0  0
    9.3305  -19.5606   19.7368 C   0  0  0  0  0  0  0  0  0  0  0  0
    8.7524  -19.1609   18.7092 O   0  0  0  0  0  0  0  0  0  0  0  0
    9.6340  -16.3684   21.7705 C   0  0  0  0  0  0  0  0  0  0  0  0
   10.7228  -16.0784   22.3053 O   0  0  0  0  0  0  0  0  0  0  0  0
    9.4768  -20.9269   19.9162 O   0  0  0  0  0  0  0  0  0  0  0  0
    8.4518  -15.8670   22.4065 N   0  0  0  0  0  0  0  0  0  0  0  0
    8.4980  -15.0519   23.6162 C   0  0  1  0  0  0  0  0  0  0  0  0
    7.2334  -14.2786   23.8069 C   0  0  0  0  0  0  0  0  0  0  0  0
    7.1696  -13.4763   25.0408 C   0  0  0  0  0  0  0  0  0  0  0  0
    6.2756  -13.8233   26.0255 C   0  0  0  0  0  0  0  0  0  0  0  0
    6.1886  -13.0901   27.2101 C   0  0  0  0  0  0  0  0  0  0  0  0
    7.0077  -11.9975   27.4073 C   0  0  0  0  0  0  0  0  0  0  0  0
    7.8911  -11.6734   26.4072 C   0  0  0  0  0  0  0  0  0  0  0  0
    7.9906  -12.3863   25.2311 C   0  0  0  0  0  0  0  0  0  0  0  0
    8.7536  -15.9623   24.7549 C   0  0  0  0  0  0  0  0  0  0  0  0
    7.9428  -16.8872   25.0386 O   0  0  0  0  0  0  0  0  0  0  0  0
    9.9094  -15.8349   25.5673 N   0  0  0  0  0  0  0  0  0  0  0  0
   10.0926  -16.7521   26.6835 C   0  0  1  0  0  0  0  0  0  0  0  0
   11.4031  -17.4995   26.5141 C   0  0  0  0  0  0  0  0  0  0  0  0
   11.3837  -18.4517   25.3888 C   0  0  0  0  0  0  0  0  0  0  0  0
   10.9203  -19.7315   25.3173 C   0  0  0  0  0  0  0  0  0  0  0  0
   11.1483  -20.1708   24.0593 N   0  0  0  0  0  0  0  0  0  0  0  0
   11.7356  -19.1987   23.3642 C   0  0  0  0  0  0  0  0  0  0  0  0
   11.8869  -18.1368   24.1666 N   0  0  0  0  0  0  0  0  0  0  0  0
   10.1001  -15.9950   27.9586 C   0  0  0  0  0  0  0  0  0  0  0  0
   10.0515  -14.7431   28.0138 O   0  0  0  0  0  0  0  0  0  0  0  0
   10.1631  -16.6598   29.1904 O   0  0  0  0  0  0  0  0  0  0  0  0
  2  1  1  6
  2  3  1  0
  4  5  2  0
  4  3  1  0
  6  2  1  0
  6  7  2  0
  8  4  1  0
  9  6  1  0
 10  9  1  0
 11 12  1  0
 10 11  1  1
 12 17  2  0
 13 14  2  0
 13 12  1  0
 14 15  1  0
 15 16  2  0
 17 16  1  0
 18 10  1  0
 18 19  2  0
 20 18  1  0
 21 20  1  0
 21 28  1  0
 21 22  1  6
 23 22  1  0
 24 23  2  0
 25 24  1  0
 26 25  1  0
 26 27  2  0
 27 23  1  0
 28 30  1  0
 29 28  2  0
M  END
$$$$
