DFH.pdb
     RDKit          3D

 30 31  0  0  1  0  0  0  0  0999 V2000
    8.8027  -16.0607   19.2514 N   0  0  0  0  0  0  0  0  0  0  0  0
    9.5056  -16.8939   20.2607 C   0  0  1  0  0  0  0  0  0  0  0  0
   10.8388  -17.1792   19.6667 C   0  0  0  0  0  0  0  0  0  0  0  0
   10.8816  -17.8636   18.3916 C   0  0  0  0  0  0  0  0  0  0  0  0
   10.1007  -17.5757   17.4659 O   0  0  0  0  0  0  0  0  0  0  0  0
    9.5277  -16.1717   21.5523 C   0  0  0  0  0  0  0  0  0  0  0  0
   10.5904  -16.0093   22.1844 O   0  0  0  0  0  0  0  0  0  0  0  0
   11.8100  -18.8697   18.1758 O   0  0  0  0  0  0  0  0  0  0  0  0
    8.3404  -15.6253   22.1400 N   0  0  0  0  0  0  0  0  0  0  0  0
    8.3387  -14.9816   23.4498 C   0  0  1  0  0  0  0  0  0  0  0  0
    7.2825  -13.9285   23.5436 C   0  0  0  0  0  0  0  0  0  0  0  0
    7.1479  -13.2921   24.8654 C   0  0  0  0  0  0  0  0  0  0  0  0
    6.0689  -13.6043   25.6577 C   0  0  0  0  0  0  0  0  0  0  0  0
    5.9090  -13.0252   26.9176 C   0  0  0  0  0  0  0  0  0  0  0  0
    6.8422  -12.1233   27.3861 C   0  0  0  0  0  0  0  0  0  0  0  0
    7.9098  -11.8296   26.5739 C   0  0  0  0  0  0  0  0  0  0  0  0
    8.0835  -12.3922   25.3270 C   0  0  0  0  0  0  0  0  0  0  0  0
    8.1396  -16.0408   24.4643 C   0  0  0  0  0  0  0  0  0  0  0  0
    7.4504  -17.0657   24.2032 O   0  0  0  0  0  0  0  0  0  0  0  0
    8.7096  -15.9498   25.7600 N   0  0  0  0  0  0  0  0  0  0  0  0
    9.2899  -17.1423   26.3617 C   0  0  1  0  0  0  0  0  0  0  0  0
   10.4371  -17.6368   25.4991 C   0  0  0  0  0  0  0  0  0  0  0  0
   10.0243  -18.6574   24.5187 C   0  0  0  0  0  0  0  0  0  0  0  0
    8.8154  -19.2524   24.3129 C   0  0  0  0  0  0  0  0  0  0  0  0
    8.9683  -20.1299   23.2960 N   0  0  0  0  0  0  0  0  0  0  0  0
   10.2316  -20.0872   22.8774 C   0  0  0  0  0  0  0  0  0  0  0  0
   10.8926  -19.1880   23.6183 N   0  0  0  0  0  0  0  0  0  0  0  0
    9.7781  -16.8285   27.7263 C   0  0  0  0  0  0  0  0  0  0  0  0
   10.2376  -15.7075   28.0501 O   0  0  0  0  0  0  0  0  0  0  0  0
    9.7477  -17.7938   28.7416 O   0  0  0  0  0  0  0  0  0  0  0  0
  2  1  1  6
  2  3  1  0
  4  5  2  0
  4  3  1  0
  6  2  1  0
  6  7  2  0
  8  4  1  0
  9  6  1  0
 10  9  1  0
 11 12  1  0
 10 11  1  6
 12 17  2  0
 13 14  2  0
 13 12  1  0
 14 15  1  0
 15 16  2  0
 17 16  1  0
 18 10  1  0
 18 19  2  0
 20 18  1  0
 21 20  1  0
 21 28  1  0
 21 22  1  6
 23 22  1  0
 24 23  2  0
 25 24  1  0
 26 25  1  0
 26 27  2  0
 27 23  1  0
 28 30  1  0
 29 28  2  0
M  END
$$$$
