DFH.pdb
     RDKit          3D

 30 31  0  0  1  0  0  0  0  0999 V2000
    9.2208  -18.3761   19.9974 N   0  0  0  0  0  0  0  0  0  0  0  0
   10.4524  -17.5457   19.9689 C   0  0  1  0  0  0  0  0  0  0  0  0
   10.4748  -16.9326   18.6141 C   0  0  0  0  0  0  0  0  0  0  0  0
   10.6837  -17.8048   17.4775 C   0  0  0  0  0  0  0  0  0  0  0  0
   10.3169  -18.9944   17.4873 O   0  0  0  0  0  0  0  0  0  0  0  0
   10.4162  -16.5893   21.0977 C   0  0  0  0  0  0  0  0  0  0  0  0
   11.3472  -15.7826   21.2922 O   0  0  0  0  0  0  0  0  0  0  0  0
   11.3071  -17.3213   16.3382 O   0  0  0  0  0  0  0  0  0  0  0  0
    9.3196  -16.5394   22.0190 N   0  0  0  0  0  0  0  0  0  0  0  0
    9.2526  -15.5680   23.1062 C   0  0  1  0  0  0  0  0  0  0  0  0
    7.9737  -14.7954   23.0754 C   0  0  0  0  0  0  0  0  0  0  0  0
    7.6438  -14.1814   21.7775 C   0  0  0  0  0  0  0  0  0  0  0  0
    8.2190  -12.9814   21.4334 C   0  0  0  0  0  0  0  0  0  0  0  0
    7.9343  -12.3706   20.2109 C   0  0  0  0  0  0  0  0  0  0  0  0
    7.0630  -12.9713   19.3257 C   0  0  0  0  0  0  0  0  0  0  0  0
    6.5028  -14.1693   19.6952 C   0  0  0  0  0  0  0  0  0  0  0  0
    6.7727  -14.7867   20.8983 C   0  0  0  0  0  0  0  0  0  0  0  0
    9.4057  -16.3126   24.3762 C   0  0  0  0  0  0  0  0  0  0  0  0
    9.2810  -15.7281   25.4881 O   0  0  0  0  0  0  0  0  0  0  0  0
    9.6961  -17.7009   24.3971 N   0  0  0  0  0  0  0  0  0  0  0  0
    9.8301  -18.3751   25.6810 C   0  0  1  0  0  0  0  0  0  0  0  0
    8.9527  -19.6139   25.6956 C   0  0  0  0  0  0  0  0  0  0  0  0
    7.5669  -19.3452   25.2710 C   0  0  0  0  0  0  0  0  0  0  0  0
    6.6294  -18.5000   25.7853 C   0  0  0  0  0  0  0  0  0  0  0  0
    5.5125  -18.6363   25.0359 N   0  0  0  0  0  0  0  0  0  0  0  0
    5.7414  -19.5374   24.0829 C   0  0  0  0  0  0  0  0  0  0  0  0
    6.9982  -19.9819   24.2139 N   0  0  0  0  0  0  0  0  0  0  0  0
   11.2468  -18.7525   25.9037 C   0  0  0  0  0  0  0  0  0  0  0  0
   12.0638  -18.9340   24.9697 O   0  0  0  0  0  0  0  0  0  0  0  0
   11.7500  -18.9278   27.1996 O   0  0  0  0  0  0  0  0  0  0  0  0
  2  1  1  6
  2  3  1  0
  4  5  2  0
  4  3  1  0
  6  2  1  0
  6  7  2  0
  8  4  1  0
  9  6  1  0
 10  9  1  0
 11 12  1  0
 10 11  1  1
 12 17  2  0
 13 14  2  0
 13 12  1  0
 14 15  1  0
 15 16  2  0
 17 16  1  0
 18 10  1  0
 18 19  2  0
 20 18  1  0
 21 20  1  0
 21 28  1  0
 21 22  1  6
 23 22  1  0
 24 23  2  0
 25 24  1  0
 26 25  1  0
 26 27  2  0
 27 23  1  0
 28 30  1  0
 29 28  2  0
M  END
$$$$
