DFH.pdb
     RDKit          3D

 30 31  0  0  1  0  0  0  0  0999 V2000
   10.1896  -16.1051   19.1813 N   0  0  0  0  0  0  0  0  0  0  0  0
    9.0368  -16.4881   20.0366 C   0  0  1  0  0  0  0  0  0  0  0  0
    9.0545  -17.9749   20.0673 C   0  0  0  0  0  0  0  0  0  0  0  0
    8.7757  -18.6828   18.8355 C   0  0  0  0  0  0  0  0  0  0  0  0
    7.7006  -18.5383   18.2247 O   0  0  0  0  0  0  0  0  0  0  0  0
    9.1706  -15.8245   21.3527 C   0  0  0  0  0  0  0  0  0  0  0  0
   10.2078  -15.9439   22.0349 O   0  0  0  0  0  0  0  0  0  0  0  0
    9.7183  -19.5495   18.3056 O   0  0  0  0  0  0  0  0  0  0  0  0
    8.1254  -15.0168   21.9083 N   0  0  0  0  0  0  0  0  0  0  0  0
    8.1989  -14.4562   23.2538 C   0  0  1  0  0  0  0  0  0  0  0  0
    7.1028  -13.4705   23.4996 C   0  0  0  0  0  0  0  0  0  0  0  0
    7.0256  -12.9494   24.8753 C   0  0  0  0  0  0  0  0  0  0  0  0
    7.9915  -12.0797   25.3224 C   0  0  0  0  0  0  0  0  0  0  0  0
    7.9501  -11.5615   26.6178 C   0  0  0  0  0  0  0  0  0  0  0  0
    6.9284  -11.9208   27.4726 C   0  0  0  0  0  0  0  0  0  0  0  0
    5.9772  -12.7911   26.9999 C   0  0  0  0  0  0  0  0  0  0  0  0
    6.0024  -13.3124   25.7236 C   0  0  0  0  0  0  0  0  0  0  0  0
    8.1366  -15.5854   24.2087 C   0  0  0  0  0  0  0  0  0  0  0  0
    7.3035  -16.5207   24.0515 O   0  0  0  0  0  0  0  0  0  0  0  0
    9.0021  -15.6634   25.3298 N   0  0  0  0  0  0  0  0  0  0  0  0
    9.5923  -16.9483   25.6784 C   0  0  1  0  0  0  0  0  0  0  0  0
   10.4027  -17.4677   24.5044 C   0  0  0  0  0  0  0  0  0  0  0  0
   11.0634  -18.7556   24.7834 C   0  0  0  0  0  0  0  0  0  0  0  0
   11.0528  -19.5343   25.9020 C   0  0  0  0  0  0  0  0  0  0  0  0
   11.8298  -20.6111   25.6483 N   0  0  0  0  0  0  0  0  0  0  0  0
   12.3122  -20.5114   24.4113 C   0  0  0  0  0  0  0  0  0  0  0  0
   11.8508  -19.3776   23.8673 N   0  0  0  0  0  0  0  0  0  0  0  0
   10.4629  -16.7938   26.8688 C   0  0  0  0  0  0  0  0  0  0  0  0
   11.0036  -17.7621   27.4541 O   0  0  0  0  0  0  0  0  0  0  0  0
   10.7279  -15.5277   27.4075 O   0  0  0  0  0  0  0  0  0  0  0  0
  2  1  1  6
  2  3  1  0
  4  5  2  0
  4  3  1  0
  6  2  1  0
  6  7  2  0
  8  4  1  0
  9  6  1  0
 10  9  1  0
 11 12  1  0
 10 11  1  1
 12 17  2  0
 13 14  2  0
 13 12  1  0
 14 15  1  0
 15 16  2  0
 17 16  1  0
 18 10  1  0
 18 19  2  0
 20 18  1  0
 21 20  1  0
 21 28  1  0
 21 22  1  6
 23 22  1  0
 24 23  2  0
 25 24  1  0
 26 25  1  0
 26 27  2  0
 27 23  1  0
 28 30  1  0
 29 28  2  0
M  END
$$$$
