MNI.pdb
     RDKit          3D

 25 24  0  0  1  0  0  0  0  0999 V2000
    8.1377  -11.9593   19.6401 C   0  0  0  0  0  0  0  0  0  0  0  0
    6.6706  -12.7425   18.9159 S   0  0  0  0  0  0  0  0  0  0  0  0
    6.4193  -14.3764   19.6625 C   0  0  0  0  0  0  0  0  0  0  0  0
    7.7867  -14.9684   19.9625 C   0  0  0  0  0  0  0  0  0  0  0  0
    7.5463  -16.2822   20.7194 C   0  0  2  0  0  0  0  0  0  0  0  0
    6.5087  -16.0534   21.6969 N   0  0  0  0  0  0  0  0  0  0  0  0
    8.8048  -16.6173   21.4255 C   0  0  0  0  0  0  0  0  0  0  0  0
    9.2922  -17.7881   21.4146 O   0  0  0  0  0  0  0  0  0  0  0  0
   12.6167  -14.3073   20.2012 N   0  0  0  0  0  0  0  0  0  0  0  0
   12.3153  -15.4764   20.9538 C   0  0  0  0  0  0  0  0  0  0  0  0
   12.2961  -16.5681   20.3529 O   0  0  0  0  0  0  0  0  0  0  0  0
   12.0433  -15.3343   22.4075 C   0  0  0  0  0  0  0  0  0  0  0  0
   10.7993  -16.0056   22.7956 C   0  0  2  0  0  0  0  0  0  0  0  0
    9.5761  -15.6836   22.1703 N   0  0  0  0  0  0  0  0  0  0  0  0
   10.6601  -15.8403   24.2944 C   0  0  0  0  0  0  0  0  0  0  0  0
   11.6683  -15.8460   25.0512 O   0  0  0  0  0  0  0  0  0  0  0  0
    6.5907  -12.7242   25.8966 C   0  0  0  0  0  0  0  0  0  0  0  0
    7.9733  -13.3528   25.7433 C   0  0  0  0  0  0  0  0  0  0  0  0
    8.1848  -14.4782   26.7164 C   0  0  2  0  0  0  0  0  0  0  0  0
    8.4232  -13.9578   28.1284 C   0  0  0  0  0  0  0  0  0  0  0  0
    9.3007  -15.3296   26.3408 C   0  0  2  0  0  0  0  0  0  0  0  0
    9.4310  -15.6718   24.9513 N   0  0  0  0  0  0  0  0  0  0  0  0
    9.3249  -16.6033   27.0860 C   0  0  0  0  0  0  0  0  0  0  0  0
    9.9537  -16.6968   28.3551 O   0  0  0  0  0  0  0  0  0  0  0  0
    8.8231  -17.6893   26.7089 O   0  0  0  0  0  0  0  0  0  0  0  0
  2  1  1  0
  3  2  1  0
  4  3  1  0
  5  4  1  0
  5  6  1  1
  7  5  1  0
  8  7  2  0
 10  9  1  0
 11 10  2  0
 13 12  1  6
 12 10  1  0
 13 14  1  0
 14  7  1  0
 15 13  1  0
 15 16  2  0
 17 18  1  0
 18 19  1  0
 19 21  1  0
 19 20  1  1
 21 22  1  6
 22 15  1  0
 23 21  1  0
 24 23  1  0
 25 23  2  0
M  END
$$$$
