MNI.pdb
     RDKit          3D

 25 24  0  0  1  0  0  0  0  0999 V2000
    8.4697  -11.9728   19.5749 C   0  0  0  0  0  0  0  0  0  0  0  0
    8.2563  -12.7115   17.9320 S   0  0  0  0  0  0  0  0  0  0  0  0
    8.3739  -14.5173   18.0544 C   0  0  0  0  0  0  0  0  0  0  0  0
    8.2525  -14.8951   19.5217 C   0  0  0  0  0  0  0  0  0  0  0  0
    8.3990  -16.4212   19.6017 C   0  0  2  0  0  0  0  0  0  0  0  0
    7.7470  -16.9955   18.4486 N   0  0  0  0  0  0  0  0  0  0  0  0
    7.6900  -16.8655   20.8243 C   0  0  0  0  0  0  0  0  0  0  0  0
    6.6815  -17.6330   20.7769 O   0  0  0  0  0  0  0  0  0  0  0  0
    6.3924  -17.8135   25.6660 N   0  0  0  0  0  0  0  0  0  0  0  0
    6.8818  -18.8559   24.8306 C   0  0  0  0  0  0  0  0  0  0  0  0
    6.8059  -20.0261   25.2528 O   0  0  0  0  0  0  0  0  0  0  0  0
    7.4519  -18.4959   23.5066 C   0  0  0  0  0  0  0  0  0  0  0  0
    7.4832  -17.0443   23.3051 C   0  0  2  0  0  0  0  0  0  0  0  0
    8.0581  -16.4857   22.1440 N   0  0  0  0  0  0  0  0  0  0  0  0
    8.1372  -16.4445   24.5322 C   0  0  0  0  0  0  0  0  0  0  0  0
    9.2717  -16.8291   24.9247 O   0  0  0  0  0  0  0  0  0  0  0  0
    5.9817  -11.7248   27.3021 C   0  0  0  0  0  0  0  0  0  0  0  0
    6.3884  -13.1212   26.8387 C   0  0  0  0  0  0  0  0  0  0  0  0
    7.7045  -13.1065   26.1136 C   0  0  2  0  0  0  0  0  0  0  0  0
    7.5610  -12.5361   24.7080 C   0  0  0  0  0  0  0  0  0  0  0  0
    8.2971  -14.4298   26.0194 C   0  0  2  0  0  0  0  0  0  0  0  0
    7.5523  -15.4376   25.3161 N   0  0  0  0  0  0  0  0  0  0  0  0
    8.6290  -15.0034   27.3381 C   0  0  0  0  0  0  0  0  0  0  0  0
    9.5742  -14.3768   28.1918 O   0  0  0  0  0  0  0  0  0  0  0  0
    8.1446  -16.0501   27.8313 O   0  0  0  0  0  0  0  0  0  0  0  0
  2  1  1  0
  3  2  1  0
  4  3  1  0
  5  4  1  0
  5  6  1  6
  7  5  1  0
  8  7  2  0
 10  9  1  0
 11 10  2  0
 13 12  1  6
 12 10  1  0
 13 14  1  0
 14  7  1  0
 15 13  1  0
 15 16  2  0
 17 18  1  0
 18 19  1  0
 19 21  1  0
 19 20  1  6
 21 22  1  1
 22 15  1  0
 23 21  1  0
 24 23  1  0
 25 23  2  0
M  END
$$$$
