MNI.pdb
     RDKit          3D

 25 24  0  0  1  0  0  0  0  0999 V2000
    8.5353  -11.6857   20.4173 C   0  0  0  0  0  0  0  0  0  0  0  0
    7.9495  -12.3486   18.8338 S   0  0  0  0  0  0  0  0  0  0  0  0
    8.1451  -14.1517   18.8167 C   0  0  0  0  0  0  0  0  0  0  0  0
    8.0265  -14.6482   20.2484 C   0  0  0  0  0  0  0  0  0  0  0  0
    8.3076  -16.1572   20.2207 C   0  0  2  0  0  0  0  0  0  0  0  0
    7.2439  -16.7982   19.4843 N   0  0  0  0  0  0  0  0  0  0  0  0
    8.2754  -16.6343   21.6228 C   0  0  0  0  0  0  0  0  0  0  0  0
    7.2013  -17.0118   22.1815 O   0  0  0  0  0  0  0  0  0  0  0  0
   12.6040  -18.1902   24.7744 N   0  0  0  0  0  0  0  0  0  0  0  0
   11.5822  -18.2145   23.7849 C   0  0  0  0  0  0  0  0  0  0  0  0
   11.9262  -18.1411   22.5892 O   0  0  0  0  0  0  0  0  0  0  0  0
   10.1683  -18.3274   24.2272 C   0  0  0  0  0  0  0  0  0  0  0  0
    9.3714  -17.1738   23.7993 C   0  0  2  0  0  0  0  0  0  0  0  0
    9.4175  -16.7152   22.4657 N   0  0  0  0  0  0  0  0  0  0  0  0
    9.7088  -16.0344   24.7379 C   0  0  0  0  0  0  0  0  0  0  0  0
   10.6341  -15.2198   24.4743 O   0  0  0  0  0  0  0  0  0  0  0  0
    6.1187  -12.6519   26.4844 C   0  0  0  0  0  0  0  0  0  0  0  0
    7.3994  -13.3565   26.0449 C   0  0  0  0  0  0  0  0  0  0  0  0
    8.1920  -13.8561   27.2198 C   0  0  2  0  0  0  0  0  0  0  0  0
    8.7150  -12.7051   28.0703 C   0  0  0  0  0  0  0  0  0  0  0  0
    9.3164  -14.6826   26.8152 C   0  0  2  0  0  0  0  0  0  0  0  0
    9.0395  -15.7947   25.9484 N   0  0  0  0  0  0  0  0  0  0  0  0
   10.0681  -15.2277   27.9625 C   0  0  0  0  0  0  0  0  0  0  0  0
   10.9773  -14.4184   28.6927 O   0  0  0  0  0  0  0  0  0  0  0  0
    9.9973  -16.4004   28.4018 O   0  0  0  0  0  0  0  0  0  0  0  0
  2  1  1  0
  3  2  1  0
  4  3  1  0
  5  4  1  0
  5  6  1  6
  7  5  1  0
  8  7  2  0
 10  9  1  0
 11 10  2  0
 13 12  1  6
 12 10  1  0
 13 14  1  0
 14  7  1  0
 15 13  1  0
 15 16  2  0
 17 18  1  0
 18 19  1  0
 19 21  1  0
 19 20  1  6
 21 22  1  1
 22 15  1  0
 23 21  1  0
 24 23  1  0
 25 23  2  0
M  END
$$$$
