MNI.pdb
     RDKit          3D

 25 24  0  0  1  0  0  0  0  0999 V2000
    7.0588  -11.9153   19.0052 C   0  0  0  0  0  0  0  0  0  0  0  0
    7.0957  -13.2346   17.7609 S   0  0  0  0  0  0  0  0  0  0  0  0
    8.0140  -14.6587   18.4079 C   0  0  0  0  0  0  0  0  0  0  0  0
    8.7121  -14.2230   19.6859 C   0  0  0  0  0  0  0  0  0  0  0  0
    9.3856  -15.4716   20.2727 C   0  0  2  0  0  0  0  0  0  0  0  0
    9.1336  -16.5784   19.3806 N   0  0  0  0  0  0  0  0  0  0  0  0
    8.7361  -15.7481   21.5752 C   0  0  0  0  0  0  0  0  0  0  0  0
    8.4218  -14.8210   22.3815 O   0  0  0  0  0  0  0  0  0  0  0  0
    7.4425  -19.6259   26.1032 N   0  0  0  0  0  0  0  0  0  0  0  0
    6.9843  -18.7194   25.1072 C   0  0  0  0  0  0  0  0  0  0  0  0
    6.0070  -17.9963   25.3817 O   0  0  0  0  0  0  0  0  0  0  0  0
    7.6925  -18.6819   23.8016 C   0  0  0  0  0  0  0  0  0  0  0  0
    7.8967  -17.3078   23.3336 C   0  0  2  0  0  0  0  0  0  0  0  0
    8.4073  -17.0495   22.0439 N   0  0  0  0  0  0  0  0  0  0  0  0
    8.7598  -16.6154   24.3674 C   0  0  0  0  0  0  0  0  0  0  0  0
    9.9518  -16.2913   24.1157 O   0  0  0  0  0  0  0  0  0  0  0  0
    7.5120  -11.4515   26.5020 C   0  0  0  0  0  0  0  0  0  0  0  0
    8.3685  -12.6796   26.7985 C   0  0  0  0  0  0  0  0  0  0  0  0
    7.8318  -13.9098   26.1224 C   0  0  2  0  0  0  0  0  0  0  0  0
    6.4194  -14.2340   26.5930 C   0  0  0  0  0  0  0  0  0  0  0  0
    8.6736  -15.0730   26.3448 C   0  0  2  0  0  0  0  0  0  0  0  0
    8.3192  -16.2848   25.6585 N   0  0  0  0  0  0  0  0  0  0  0  0
    8.7971  -15.4255   27.7726 C   0  0  0  0  0  0  0  0  0  0  0  0
    8.4367  -16.7157   28.2417 O   0  0  0  0  0  0  0  0  0  0  0  0
    9.2102  -14.6719   28.6863 O   0  0  0  0  0  0  0  0  0  0  0  0
  2  1  1  0
  3  2  1  0
  4  3  1  0
  5  4  1  0
  5  6  1  6
  7  5  1  0
  8  7  2  0
 10  9  1  0
 11 10  2  0
 13 12  1  1
 12 10  1  0
 13 14  1  0
 14  7  1  0
 15 13  1  0
 15 16  2  0
 17 18  1  0
 18 19  1  0
 19 21  1  0
 19 20  1  1
 21 22  1  6
 22 15  1  0
 23 21  1  0
 24 23  1  0
 25 23  2  0
M  END
$$$$
