QKK.pdb
     RDKit          3D

 28 27  0  0  1  0  0  0  0  0999 V2000
   19.3580  -13.2358  -15.6867 N   0  0  0  0  0  0  0  0  0  0  0  0
   18.3395  -14.2266  -15.4404 C   0  0  0  0  0  0  0  0  0  0  0  0
   18.5734  -15.3703  -15.8720 O   0  0  0  0  0  0  0  0  0  0  0  0
   17.1183  -13.8314  -14.7099 C   0  0  0  0  0  0  0  0  0  0  0  0
   17.1266  -12.4191  -14.2373 C   0  0  0  0  0  0  0  0  0  0  0  0
   15.9080  -12.1283  -13.4254 C   0  0  2  0  0  0  0  0  0  0  0  0
   14.7744  -12.7714  -14.0935 N   0  0  0  0  0  0  0  0  0  0  0  0
   15.6122  -10.6758  -13.3500 C   0  0  0  0  0  0  0  0  0  0  0  0
   15.1402  -10.0893  -14.3715 O   0  0  0  0  0  0  0  0  0  0  0  0
   15.8589   -9.9774  -12.1537 N   0  0  0  0  0  0  0  0  0  0  0  0
   15.4741   -8.5369  -12.0813 C   0  0  1  0  0  0  0  0  0  0  0  0
   14.7768   -8.3580  -10.7559 C   0  0  0  0  0  0  0  0  0  0  0  0
   13.3807   -8.8549  -10.7250 C   0  0  0  0  0  0  0  0  0  0  0  0
   12.6728   -8.4909   -9.4465 C   0  0  0  0  0  0  0  0  0  0  0  0
   11.2633   -9.0178   -9.4059 C   0  0  0  0  0  0  0  0  0  0  0  0
   10.5445   -8.5912   -8.2404 N   0  0  0  0  0  0  0  0  0  0  0  0
   16.7063   -7.7603  -12.2490 C   0  0  0  0  0  0  0  0  0  0  0  0
   17.6760   -7.9677  -11.4639 O   0  0  0  0  0  0  0  0  0  0  0  0
   16.8973   -6.7879  -13.2379 N   0  0  0  0  0  0  0  0  0  0  0  0
   18.1688   -6.0710  -13.3896 C   0  0  1  0  0  0  0  0  0  0  0  0
   18.8443   -6.6737  -14.5922 C   0  0  0  0  0  0  0  0  0  0  0  0
   20.1630   -6.0381  -14.9253 C   0  0  0  0  0  0  0  0  0  0  0  0
   20.8104   -6.7101  -16.1042 C   0  0  0  0  0  0  0  0  0  0  0  0
   22.1785   -6.1315  -16.3991 C   0  0  0  0  0  0  0  0  0  0  0  0
   22.7523   -6.7919  -17.5495 N   0  0  0  0  0  0  0  0  0  0  0  0
   17.8734   -4.6417  -13.5247 C   0  0  0  0  0  0  0  0  0  0  0  0
   18.8671   -3.7114  -13.2933 O   0  0  0  0  0  0  0  0  0  0  0  0
   16.7372   -4.2516  -13.8456 O   0  0  0  0  0  0  0  0  0  0  0  0
  2  1  1  0
  3  2  2  0
  4  2  1  0
  5  4  1  0
  6  8  1  0
  6  5  1  0
  6  7  1  6
  8  9  2  0
 10 11  1  0
 10  8  1  0
 12 13  1  0
 11 12  1  1
 13 14  1  0
 14 15  1  0
 15 16  1  0
 17 18  2  0
 17 11  1  0
 19 17  1  0
 20 26  1  0
 20 19  1  0
 20 21  1  6
 22 21  1  0
 23 24  1  0
 23 22  1  0
 25 24  1  0
 26 27  1  0
 28 26  2  0
M  END
$$$$
