QKK.pdb
     RDKit          3D

 28 27  0  0  1  0  0  0  0  0999 V2000
   25.1872  -25.6054  -15.0820 N   0  0  0  0  0  0  0  0  0  0  0  0
   25.1743  -24.1642  -15.0338 C   0  0  0  0  0  0  0  0  0  0  0  0
   26.2833  -23.6045  -15.1115 O   0  0  0  0  0  0  0  0  0  0  0  0
   23.8808  -23.4641  -14.9010 C   0  0  0  0  0  0  0  0  0  0  0  0
   22.7078  -24.3757  -14.7946 C   0  0  0  0  0  0  0  0  0  0  0  0
   21.4507  -23.5953  -14.5966 C   0  0  2  0  0  0  0  0  0  0  0  0
   21.8072  -22.3660  -13.8849 N   0  0  0  0  0  0  0  0  0  0  0  0
   20.4609  -24.3201  -13.7610 C   0  0  0  0  0  0  0  0  0  0  0  0
   20.0451  -25.4560  -14.1444 O   0  0  0  0  0  0  0  0  0  0  0  0
   20.0030  -23.7385  -12.5645 N   0  0  0  0  0  0  0  0  0  0  0  0
   18.9676  -24.4666  -11.7731 C   0  0  1  0  0  0  0  0  0  0  0  0
   19.3833  -24.3419  -10.3286 C   0  0  0  0  0  0  0  0  0  0  0  0
   18.4297  -24.9363   -9.3621 C   0  0  0  0  0  0  0  0  0  0  0  0
   18.8888  -24.7795   -7.9364 C   0  0  0  0  0  0  0  0  0  0  0  0
   17.9220  -25.3885   -6.9564 C   0  0  0  0  0  0  0  0  0  0  0  0
   18.3593  -25.2656   -5.5959 N   0  0  0  0  0  0  0  0  0  0  0  0
   17.6753  -23.8593  -12.1061 C   0  0  0  0  0  0  0  0  0  0  0  0
   17.5635  -22.5997  -12.0846 O   0  0  0  0  0  0  0  0  0  0  0  0
   16.5308  -24.5843  -12.4590 N   0  0  0  0  0  0  0  0  0  0  0  0
   15.2660  -23.9239  -12.8020 C   0  0  1  0  0  0  0  0  0  0  0  0
   14.6719  -24.7248  -13.9295 C   0  0  0  0  0  0  0  0  0  0  0  0
   13.3070  -24.2590  -14.3468 C   0  0  0  0  0  0  0  0  0  0  0  0
   12.7259  -25.1526  -15.4071 C   0  0  0  0  0  0  0  0  0  0  0  0
   11.3982  -24.6311  -15.9155 C   0  0  0  0  0  0  0  0  0  0  0  0
   10.9504  -25.4346  -17.0302 N   0  0  0  0  0  0  0  0  0  0  0  0
   14.4325  -23.8803  -11.5970 C   0  0  0  0  0  0  0  0  0  0  0  0
   13.4570  -22.9112  -11.4728 O   0  0  0  0  0  0  0  0  0  0  0  0
   14.5907  -24.7056  -10.6805 O   0  0  0  0  0  0  0  0  0  0  0  0
  2  1  1  0
  3  2  2  0
  4  2  1  0
  5  4  1  0
  6  8  1  0
  6  5  1  0
  6  7  1  1
  8  9  2  0
 10 11  1  0
 10  8  1  0
 12 13  1  0
 11 12  1  1
 13 14  1  0
 14 15  1  0
 15 16  1  0
 17 18  2  0
 17 11  1  0
 19 17  1  0
 20 26  1  0
 20 19  1  0
 20 21  1  6
 22 21  1  0
 23 24  1  0
 23 22  1  0
 25 24  1  0
 26 27  1  0
 28 26  2  0
M  END
$$$$
