QKK.pdb
     RDKit          3D

 28 27  0  0  1  0  0  0  0  0999 V2000
   24.8773  -20.7801   -9.4811 N   0  0  0  0  0  0  0  0  0  0  0  0
   26.3064  -20.8736   -9.6506 C   0  0  0  0  0  0  0  0  0  0  0  0
   26.9447  -21.3163   -8.6781 O   0  0  0  0  0  0  0  0  0  0  0  0
   26.9041  -20.4512  -10.9333 C   0  0  0  0  0  0  0  0  0  0  0  0
   25.9212  -19.8969  -11.9052 C   0  0  0  0  0  0  0  0  0  0  0  0
   25.2580  -20.9955  -12.6680 C   0  0  2  0  0  0  0  0  0  0  0  0
   26.2841  -21.6337  -13.4956 N   0  0  0  0  0  0  0  0  0  0  0  0
   24.2019  -20.4922  -13.5814 C   0  0  0  0  0  0  0  0  0  0  0  0
   23.2351  -19.8273  -13.0983 O   0  0  0  0  0  0  0  0  0  0  0  0
   24.2901  -20.7593  -14.9600 N   0  0  0  0  0  0  0  0  0  0  0  0
   23.2120  -20.2410  -15.8531 C   0  0  1  0  0  0  0  0  0  0  0  0
   23.8323  -20.1092  -17.2217 C   0  0  0  0  0  0  0  0  0  0  0  0
   22.9221  -19.5670  -18.2583 C   0  0  0  0  0  0  0  0  0  0  0  0
   23.4517  -18.3008  -18.8780 C   0  0  0  0  0  0  0  0  0  0  0  0
   22.4950  -17.7143  -19.8814 C   0  0  0  0  0  0  0  0  0  0  0  0
   22.9658  -16.4810  -20.4423 N   0  0  0  0  0  0  0  0  0  0  0  0
   22.0951  -21.1864  -15.7616 C   0  0  0  0  0  0  0  0  0  0  0  0
   22.2857  -22.3964  -16.0766 O   0  0  0  0  0  0  0  0  0  0  0  0
   20.8053  -20.8447  -15.3376 N   0  0  0  0  0  0  0  0  0  0  0  0
   19.7284  -21.8370  -15.2432 C   0  0  1  0  0  0  0  0  0  0  0  0
   19.3276  -21.8781  -13.7930 C   0  0  0  0  0  0  0  0  0  0  0  0
   18.1870  -22.8119  -13.5083 C   0  0  0  0  0  0  0  0  0  0  0  0
   17.7509  -22.7190  -12.0725 C   0  0  0  0  0  0  0  0  0  0  0  0
   16.5482  -23.5958  -11.7928 C   0  0  0  0  0  0  0  0  0  0  0  0
   16.2055  -23.5249  -10.3905 N   0  0  0  0  0  0  0  0  0  0  0  0
   18.6508  -21.4285  -16.1490 C   0  0  0  0  0  0  0  0  0  0  0  0
   17.8138  -22.3824  -16.6930 O   0  0  0  0  0  0  0  0  0  0  0  0
   18.4776  -20.2314  -16.4369 O   0  0  0  0  0  0  0  0  0  0  0  0
  2  1  1  0
  3  2  2  0
  4  2  1  0
  5  4  1  0
  6  8  1  0
  6  5  1  0
  6  7  1  6
  8  9  2  0
 10 11  1  0
 10  8  1  0
 12 13  1  0
 11 12  1  6
 13 14  1  0
 14 15  1  0
 15 16  1  0
 17 18  2  0
 17 11  1  0
 19 17  1  0
 20 26  1  0
 20 19  1  0
 20 21  1  1
 22 21  1  0
 23 24  1  0
 23 22  1  0
 25 24  1  0
 26 27  1  0
 28 26  2  0
M  END
$$$$
