QKK.pdb
     RDKit          3D

 28 27  0  0  1  0  0  0  0  0999 V2000
   27.9629  -10.9098  -16.5474 N   0  0  0  0  0  0  0  0  0  0  0  0
   27.6435  -12.2196  -16.0355 C   0  0  0  0  0  0  0  0  0  0  0  0
   28.6105  -12.9208  -15.6857 O   0  0  0  0  0  0  0  0  0  0  0  0
   26.2277  -12.6326  -15.9595 C   0  0  0  0  0  0  0  0  0  0  0  0
   25.2628  -11.5500  -16.2986 C   0  0  0  0  0  0  0  0  0  0  0  0
   23.8576  -12.0367  -16.1671 C   0  0  2  0  0  0  0  0  0  0  0  0
   23.6176  -12.9790  -17.2623 N   0  0  0  0  0  0  0  0  0  0  0  0
   22.8651  -10.9411  -16.2995 C   0  0  0  0  0  0  0  0  0  0  0  0
   22.6330  -10.4555  -17.4487 O   0  0  0  0  0  0  0  0  0  0  0  0
   22.2018  -10.4621  -15.1548 N   0  0  0  0  0  0  0  0  0  0  0  0
   21.1714   -9.3957  -15.3266 C   0  0  1  0  0  0  0  0  0  0  0  0
   20.0806   -9.7065  -14.3324 C   0  0  0  0  0  0  0  0  0  0  0  0
   19.0330   -8.6634  -14.2247 C   0  0  0  0  0  0  0  0  0  0  0  0
   17.7219   -9.1070  -14.8180 C   0  0  0  0  0  0  0  0  0  0  0  0
   16.6466   -8.0644  -14.6671 C   0  0  0  0  0  0  0  0  0  0  0  0
   15.4155   -8.4410  -15.2993 N   0  0  0  0  0  0  0  0  0  0  0  0
   21.8522   -8.1127  -15.1266 C   0  0  0  0  0  0  0  0  0  0  0  0
   22.6985   -8.0040  -14.1931 O   0  0  0  0  0  0  0  0  0  0  0  0
   21.6352   -6.9740  -15.9117 N   0  0  0  0  0  0  0  0  0  0  0  0
   22.2937   -5.6941  -15.6257 C   0  0  1  0  0  0  0  0  0  0  0  0
   22.1947   -4.8844  -16.8907 C   0  0  0  0  0  0  0  0  0  0  0  0
   22.8509   -3.5373  -16.7979 C   0  0  0  0  0  0  0  0  0  0  0  0
   22.7906   -2.8092  -18.1119 C   0  0  0  0  0  0  0  0  0  0  0  0
   23.4448   -1.4459  -18.0292 C   0  0  0  0  0  0  0  0  0  0  0  0
   23.4651   -0.8318  -19.3374 N   0  0  0  0  0  0  0  0  0  0  0  0
   21.6246   -5.0843  -14.4728 C   0  0  0  0  0  0  0  0  0  0  0  0
   22.3382   -4.2665  -13.6195 O   0  0  0  0  0  0  0  0  0  0  0  0
   20.4192   -5.2927  -14.2498 O   0  0  0  0  0  0  0  0  0  0  0  0
  2  1  1  0
  3  2  2  0
  4  2  1  0
  5  4  1  0
  6  8  1  0
  6  5  1  0
  6  7  1  6
  8  9  2  0
 10 11  1  0
 10  8  1  0
 12 13  1  0
 11 12  1  1
 13 14  1  0
 14 15  1  0
 15 16  1  0
 17 18  2  0
 17 11  1  0
 19 17  1  0
 20 26  1  0
 20 19  1  0
 20 21  1  6
 22 21  1  0
 23 24  1  0
 23 22  1  0
 25 24  1  0
 26 27  1  0
 28 26  2  0
M  END
$$$$
