QKK.pdb
     RDKit          3D

 28 27  0  0  1  0  0  0  0  0999 V2000
   16.6831  -16.5998  -15.6296 N   0  0  0  0  0  0  0  0  0  0  0  0
   17.8124  -16.9307  -16.4632 C   0  0  0  0  0  0  0  0  0  0  0  0
   17.8604  -18.1029  -16.8789 O   0  0  0  0  0  0  0  0  0  0  0  0
   18.8111  -15.8850  -16.7634 C   0  0  0  0  0  0  0  0  0  0  0  0
   18.4832  -14.5519  -16.1862 C   0  0  0  0  0  0  0  0  0  0  0  0
   19.0625  -13.4591  -17.0221 C   0  0  2  0  0  0  0  0  0  0  0  0
   19.6996  -14.0872  -18.1817 N   0  0  0  0  0  0  0  0  0  0  0  0
   20.1096  -12.6915  -16.3028 C   0  0  0  0  0  0  0  0  0  0  0  0
   19.8104  -12.1120  -15.2143 O   0  0  0  0  0  0  0  0  0  0  0  0
   21.4092  -12.6198  -16.8371 N   0  0  0  0  0  0  0  0  0  0  0  0
   22.3844  -11.6817  -16.2065 C   0  0  1  0  0  0  0  0  0  0  0  0
   23.7181  -11.9745  -16.8472 C   0  0  0  0  0  0  0  0  0  0  0  0
   24.8480  -11.1869  -16.2996 C   0  0  0  0  0  0  0  0  0  0  0  0
   26.1673  -11.5797  -16.9104 C   0  0  0  0  0  0  0  0  0  0  0  0
   27.3079  -10.7497  -16.3849 C   0  0  0  0  0  0  0  0  0  0  0  0
   28.5479  -11.0250  -17.0511 N   0  0  0  0  0  0  0  0  0  0  0  0
   21.8703  -10.3262  -16.4251 C   0  0  0  0  0  0  0  0  0  0  0  0
   21.7290   -9.9051  -17.6092 O   0  0  0  0  0  0  0  0  0  0  0  0
   21.5109   -9.4441  -15.3990 N   0  0  0  0  0  0  0  0  0  0  0  0
   21.1140   -8.0572  -15.6681 C   0  0  1  0  0  0  0  0  0  0  0  0
   19.6089   -8.0454  -15.6518 C   0  0  0  0  0  0  0  0  0  0  0  0
   19.0021   -7.0973  -16.6452 C   0  0  0  0  0  0  0  0  0  0  0  0
   17.5091   -7.0206  -16.4847 C   0  0  0  0  0  0  0  0  0  0  0  0
   16.8777   -6.1207  -17.5262 C   0  0  0  0  0  0  0  0  0  0  0  0
   17.0369   -6.7037  -18.8391 N   0  0  0  0  0  0  0  0  0  0  0  0
   21.7287   -7.2008  -14.6496 C   0  0  0  0  0  0  0  0  0  0  0  0
   21.8562   -5.8454  -14.8795 O   0  0  0  0  0  0  0  0  0  0  0  0
   22.1393   -7.6775  -13.5771 O   0  0  0  0  0  0  0  0  0  0  0  0
  2  1  1  0
  3  2  2  0
  4  2  1  0
  5  4  1  0
  6  8  1  0
  6  5  1  0
  6  7  1  6
  8  9  2  0
 10 11  1  0
 10  8  1  0
 12 13  1  0
 11 12  1  6
 13 14  1  0
 14 15  1  0
 15 16  1  0
 17 18  2  0
 17 11  1  0
 19 17  1  0
 20 26  1  0
 20 19  1  0
 20 21  1  1
 22 21  1  0
 23 24  1  0
 23 22  1  0
 25 24  1  0
 26 27  1  0
 28 26  2  0
M  END
$$$$
