GMC.pdb
     RDKit          3D

 19 18  0  0  1  0  0  0  0  0999 V2000
    7.9153  -14.7443   19.2916 N   0  0  0  0  0  0  0  0  0  0  0  0
    6.9849  -14.8844   20.3919 C   0  0  0  0  0  0  0  0  0  0  0  0
    7.6560  -14.6063   21.7019 C   0  0  0  0  0  0  0  0  0  0  0  0
    8.9073  -14.3610   21.7456 O   0  0  0  0  0  0  0  0  0  0  0  0
    8.2995  -11.8632   28.4141 C   0  0  0  0  0  0  0  0  0  0  0  0
    7.4577  -12.0466   26.8172 S   0  0  0  0  0  0  0  0  0  0  0  0
    7.0729  -13.8138   26.5213 C   0  0  0  0  0  0  0  0  0  0  0  0
    6.4856  -13.9463   25.1661 C   0  0  0  0  0  0  0  0  0  0  0  0
    7.4601  -14.4799   24.1793 C   0  0  2  0  0  0  0  0  0  0  0  0
    6.8415  -14.6306   22.8632 N   0  0  0  0  0  0  0  0  0  0  0  0
    8.1537  -15.7200   24.5473 C   0  0  0  0  0  0  0  0  0  0  0  0
    7.5738  -16.8125   24.6456 O   0  0  0  0  0  0  0  0  0  0  0  0
    9.5677  -15.7597   24.8226 N   0  0  0  0  0  0  0  0  0  0  0  0
   10.2723  -16.9498   25.2220 C   0  0  1  0  0  0  0  0  0  0  0  0
   11.7340  -16.7498   24.8006 C   0  0  0  0  0  0  0  0  0  0  0  0
   11.8964  -16.5512   23.0187 S   0  0  0  0  0  0  0  0  0  0  0  0
   10.2571  -17.1888   26.6581 C   0  0  0  0  0  0  0  0  0  0  0  0
   10.8895  -18.2927   27.1932 O   0  0  0  0  0  0  0  0  0  0  0  0
    9.6727  -16.4007   27.4303 O   0  0  0  0  0  0  0  0  0  0  0  0
  2  1  1  0
  2  3  1  0
  3  4  2  0
  5  6  1  0
  7  6  1  0
  7  8  1  0
  9  8  1  1
  9 11  1  0
 10  3  1  0
 10  9  1  0
 11 12  2  0
 13 14  1  0
 13 11  1  0
 14 17  1  0
 14 15  1  1
 16 15  1  0
 17 19  2  0
 17 18  1  0
M  END
$$$$
