GMC.pdb
     RDKit          3D

 19 18  0  0  1  0  0  0  0  0999 V2000
    9.0996  -16.6384   19.8096 N   0  0  0  0  0  0  0  0  0  0  0  0
    8.0532  -16.5454   20.8057 C   0  0  0  0  0  0  0  0  0  0  0  0
    8.5688  -15.9307   22.0708 C   0  0  0  0  0  0  0  0  0  0  0  0
    9.8242  -15.8108   22.2639 O   0  0  0  0  0  0  0  0  0  0  0  0
    6.8549  -10.9547   27.7855 C   0  0  0  0  0  0  0  0  0  0  0  0
    6.2801  -11.9333   26.3697 S   0  0  0  0  0  0  0  0  0  0  0  0
    7.4329  -13.3268   26.0735 C   0  0  0  0  0  0  0  0  0  0  0  0
    6.9695  -14.0745   24.8797 C   0  0  0  0  0  0  0  0  0  0  0  0
    8.0510  -14.8927   24.2722 C   0  0  2  0  0  0  0  0  0  0  0  0
    7.6056  -15.5000   23.0191 N   0  0  0  0  0  0  0  0  0  0  0  0
    8.6607  -15.9151   25.1307 C   0  0  0  0  0  0  0  0  0  0  0  0
    8.0799  -16.9662   25.4432 O   0  0  0  0  0  0  0  0  0  0  0  0
    9.9868  -15.7726   25.6765 N   0  0  0  0  0  0  0  0  0  0  0  0
   10.6183  -16.7591   26.5133 C   0  0  1  0  0  0  0  0  0  0  0  0
   12.1242  -16.4695   26.4635 C   0  0  0  0  0  0  0  0  0  0  0  0
   13.0686  -17.9169   25.9595 S   0  0  0  0  0  0  0  0  0  0  0  0
   10.2047  -16.6999   27.9080 C   0  0  0  0  0  0  0  0  0  0  0  0
    9.5841  -15.5737   28.4094 O   0  0  0  0  0  0  0  0  0  0  0  0
   10.4036  -17.6652   28.6744 O   0  0  0  0  0  0  0  0  0  0  0  0
  2  1  1  0
  2  3  1  0
  3  4  2  0
  5  6  1  0
  7  6  1  0
  7  8  1  0
  9  8  1  1
  9 11  1  0
 10  3  1  0
 10  9  1  0
 11 12  2  0
 13 14  1  0
 13 11  1  0
 14 17  1  0
 14 15  1  1
 16 15  1  0
 17 19  2  0
 17 18  1  0
M  END
$$$$
