GMC.pdb
     RDKit          3D

 19 18  0  0  1  0  0  0  0  0999 V2000
    7.6070  -19.8981   19.1566 N   0  0  0  0  0  0  0  0  0  0  0  0
    6.9022  -19.1034   20.1401 C   0  0  0  0  0  0  0  0  0  0  0  0
    7.7009  -17.8972   20.5288 C   0  0  0  0  0  0  0  0  0  0  0  0
    8.9263  -17.7985   20.1878 O   0  0  0  0  0  0  0  0  0  0  0  0
    7.2200  -12.1555   19.5195 C   0  0  0  0  0  0  0  0  0  0  0  0
    8.4152  -12.9039   20.6613 S   0  0  0  0  0  0  0  0  0  0  0  0
    7.5836  -13.3200   22.2405 C   0  0  0  0  0  0  0  0  0  0  0  0
    6.8626  -14.6042   22.0678 C   0  0  0  0  0  0  0  0  0  0  0  0
    7.7807  -15.7268   21.7432 C   0  0  2  0  0  0  0  0  0  0  0  0
    7.0339  -16.8950   21.2795 N   0  0  0  0  0  0  0  0  0  0  0  0
    8.7255  -16.1256   22.7932 C   0  0  0  0  0  0  0  0  0  0  0  0
    8.3831  -16.3168   23.9704 O   0  0  0  0  0  0  0  0  0  0  0  0
   10.1285  -16.3261   22.5320 N   0  0  0  0  0  0  0  0  0  0  0  0
   11.1093  -16.5558   23.5603 C   0  0  1  0  0  0  0  0  0  0  0  0
   11.0893  -18.0626   23.8492 C   0  0  0  0  0  0  0  0  0  0  0  0
    9.9547  -18.4736   25.1852 S   0  0  0  0  0  0  0  0  0  0  0  0
   12.4661  -16.2007   23.1695 C   0  0  0  0  0  0  0  0  0  0  0  0
   12.7328  -15.7415   21.8956 O   0  0  0  0  0  0  0  0  0  0  0  0
   13.4115  -16.3051   23.9784 O   0  0  0  0  0  0  0  0  0  0  0  0
  2  1  1  0
  2  3  1  0
  3  4  2  0
  5  6  1  0
  7  6  1  0
  7  8  1  0
  9  8  1  1
  9 11  1  0
 10  3  1  0
 10  9  1  0
 11 12  2  0
 13 14  1  0
 13 11  1  0
 14 17  1  0
 14 15  1  6
 16 15  1  0
 17 19  2  0
 17 18  1  0
M  END
$$$$
