GMC.pdb
     RDKit          3D

 19 18  0  0  1  0  0  0  0  0999 V2000
    8.8931  -15.7281   19.5017 N   0  0  0  0  0  0  0  0  0  0  0  0
    7.8804  -15.7913   20.5343 C   0  0  0  0  0  0  0  0  0  0  0  0
    8.4178  -15.3034   21.8447 C   0  0  0  0  0  0  0  0  0  0  0  0
    9.6628  -15.0593   21.9798 O   0  0  0  0  0  0  0  0  0  0  0  0
    6.8357  -10.8033   26.7952 C   0  0  0  0  0  0  0  0  0  0  0  0
    6.2068  -12.4804   27.0857 S   0  0  0  0  0  0  0  0  0  0  0  0
    7.3664  -13.7069   26.3721 C   0  0  0  0  0  0  0  0  0  0  0  0
    6.9533  -13.9874   24.9758 C   0  0  0  0  0  0  0  0  0  0  0  0
    7.9696  -14.7795   24.2356 C   0  0  2  0  0  0  0  0  0  0  0  0
    7.4868  -15.1322   22.9014 N   0  0  0  0  0  0  0  0  0  0  0  0
    8.4863  -15.9766   24.9096 C   0  0  0  0  0  0  0  0  0  0  0  0
    7.8000  -16.9932   25.0971 O   0  0  0  0  0  0  0  0  0  0  0  0
    9.8368  -16.0595   25.4055 N   0  0  0  0  0  0  0  0  0  0  0  0
   10.3731  -17.2138   26.0779 C   0  0  1  0  0  0  0  0  0  0  0  0
   11.8480  -17.3089   25.6657 C   0  0  0  0  0  0  0  0  0  0  0  0
   12.0465  -17.2850   23.8765 S   0  0  0  0  0  0  0  0  0  0  0  0
   10.3272  -17.1233   27.5303 C   0  0  0  0  0  0  0  0  0  0  0  0
   10.8210  -18.1465   28.3139 O   0  0  0  0  0  0  0  0  0  0  0  0
    9.8408  -16.1200   28.0923 O   0  0  0  0  0  0  0  0  0  0  0  0
  2  1  1  0
  2  3  1  0
  3  4  2  0
  5  6  1  0
  7  6  1  0
  7  8  1  0
  9  8  1  1
  9 11  1  0
 10  3  1  0
 10  9  1  0
 11 12  2  0
 13 14  1  0
 13 11  1  0
 14 17  1  0
 14 15  1  1
 16 15  1  0
 17 19  2  0
 17 18  1  0
M  END
$$$$
