GMC.pdb
     RDKit          3D

 19 18  0  0  1  0  0  0  0  0999 V2000
    5.0849  -19.3291   21.8356 N   0  0  0  0  0  0  0  0  0  0  0  0
    5.3889  -19.0683   23.2268 C   0  0  0  0  0  0  0  0  0  0  0  0
    6.3259  -17.9075   23.3636 C   0  0  0  0  0  0  0  0  0  0  0  0
    7.2512  -17.7217   22.5051 O   0  0  0  0  0  0  0  0  0  0  0  0
    6.4671  -11.2852   25.3951 C   0  0  0  0  0  0  0  0  0  0  0  0
    6.6855  -12.5130   26.7130 S   0  0  0  0  0  0  0  0  0  0  0  0
    7.5861  -13.9685   26.0581 C   0  0  0  0  0  0  0  0  0  0  0  0
    6.5988  -15.0287   25.7416 C   0  0  0  0  0  0  0  0  0  0  0  0
    7.1333  -16.0276   24.7800 C   0  0  2  0  0  0  0  0  0  0  0  0
    6.1311  -17.0474   24.4749 N   0  0  0  0  0  0  0  0  0  0  0  0
    8.4027  -16.6705   25.1399 C   0  0  0  0  0  0  0  0  0  0  0  0
    8.4774  -17.6078   25.9496 O   0  0  0  0  0  0  0  0  0  0  0  0
    9.6629  -16.2579   24.5757 N   0  0  0  0  0  0  0  0  0  0  0  0
   10.9108  -16.9302   24.8266 C   0  0  1  0  0  0  0  0  0  0  0  0
   11.9671  -16.2156   23.9737 C   0  0  0  0  0  0  0  0  0  0  0  0
   13.5887  -16.9807   24.1355 S   0  0  0  0  0  0  0  0  0  0  0  0
   11.3468  -16.8634   26.2141 C   0  0  0  0  0  0  0  0  0  0  0  0
   12.0059  -17.9277   26.7953 O   0  0  0  0  0  0  0  0  0  0  0  0
   11.1327  -15.8438   26.9022 O   0  0  0  0  0  0  0  0  0  0  0  0
  2  1  1  0
  2  3  1  0
  3  4  2  0
  5  6  1  0
  7  6  1  0
  7  8  1  0
  9  8  1  1
  9 11  1  0
 10  3  1  0
 10  9  1  0
 11 12  2  0
 13 14  1  0
 13 11  1  0
 14 17  1  0
 14 15  1  6
 16 15  1  0
 17 19  2  0
 17 18  1  0
M  END
$$$$
