GMC.pdb
     RDKit          3D

 19 18  0  0  1  0  0  0  0  0999 V2000
    5.2036  -18.9463   21.8046 N   0  0  0  0  0  0  0  0  0  0  0  0
    5.1669  -18.3538   23.1250 C   0  0  0  0  0  0  0  0  0  0  0  0
    6.2660  -17.3503   23.2944 C   0  0  0  0  0  0  0  0  0  0  0  0
    7.2070  -17.2742   22.4362 O   0  0  0  0  0  0  0  0  0  0  0  0
    5.5935  -12.2667   26.9946 C   0  0  0  0  0  0  0  0  0  0  0  0
    7.4072  -12.2233   26.9573 S   0  0  0  0  0  0  0  0  0  0  0  0
    8.0355  -13.5742   25.8903 C   0  0  0  0  0  0  0  0  0  0  0  0
    6.9263  -14.5241   25.6327 C   0  0  0  0  0  0  0  0  0  0  0  0
    7.3431  -15.6548   24.7632 C   0  0  2  0  0  0  0  0  0  0  0  0
    6.2032  -16.5097   24.4355 N   0  0  0  0  0  0  0  0  0  0  0  0
    8.4583  -16.4774   25.2468 C   0  0  0  0  0  0  0  0  0  0  0  0
    8.3178  -17.3701   26.0970 O   0  0  0  0  0  0  0  0  0  0  0  0
    9.8062  -16.3078   24.7662 N   0  0  0  0  0  0  0  0  0  0  0  0
   10.9020  -17.1646   25.1369 C   0  0  1  0  0  0  0  0  0  0  0  0
   12.0235  -16.8962   24.1247 C   0  0  0  0  0  0  0  0  0  0  0  0
   11.4757  -17.1651   22.4310 S   0  0  0  0  0  0  0  0  0  0  0  0
   11.4350  -16.8973   26.4652 C   0  0  0  0  0  0  0  0  0  0  0  0
   10.8846  -15.9102   27.2573 O   0  0  0  0  0  0  0  0  0  0  0  0
   12.3980  -17.5552   26.9109 O   0  0  0  0  0  0  0  0  0  0  0  0
  2  1  1  0
  2  3  1  0
  3  4  2  0
  5  6  1  0
  7  6  1  0
  7  8  1  0
  9  8  1  1
  9 11  1  0
 10  3  1  0
 10  9  1  0
 11 12  2  0
 13 14  1  0
 13 11  1  0
 14 17  1  0
 14 15  1  6
 16 15  1  0
 17 19  2  0
 17 18  1  0
M  END
$$$$
