GMC.pdb
     RDKit          3D

 19 18  0  0  1  0  0  0  0  0999 V2000
    6.2261  -19.1670   24.3719 N   0  0  0  0  0  0  0  0  0  0  0  0
    6.2689  -17.9665   25.1799 C   0  0  0  0  0  0  0  0  0  0  0  0
    7.3634  -17.0509   24.7243 C   0  0  0  0  0  0  0  0  0  0  0  0
    8.2104  -17.4422   23.8541 O   0  0  0  0  0  0  0  0  0  0  0  0
    4.3587  -11.4615   25.9702 C   0  0  0  0  0  0  0  0  0  0  0  0
    6.0749  -11.9443   26.3081 S   0  0  0  0  0  0  0  0  0  0  0  0
    6.6526  -13.1128   25.0200 C   0  0  0  0  0  0  0  0  0  0  0  0
    8.0805  -13.4229   25.2732 C   0  0  0  0  0  0  0  0  0  0  0  0
    8.4350  -14.8101   24.8754 C   0  0  2  0  0  0  0  0  0  0  0  0
    7.4040  -15.7553   25.3010 N   0  0  0  0  0  0  0  0  0  0  0  0
    9.7561  -15.2947   25.2927 C   0  0  0  0  0  0  0  0  0  0  0  0
   10.7619  -15.2150   24.5704 O   0  0  0  0  0  0  0  0  0  0  0  0
    9.9833  -15.9016   26.5798 N   0  0  0  0  0  0  0  0  0  0  0  0
   11.2598  -16.4076   27.0121 C   0  0  1  0  0  0  0  0  0  0  0  0
   11.8190  -15.3807   28.0055 C   0  0  0  0  0  0  0  0  0  0  0  0
   10.5182  -14.6355   29.0023 S   0  0  0  0  0  0  0  0  0  0  0  0
   11.1830  -17.6885   27.6998 C   0  0  0  0  0  0  0  0  0  0  0  0
    9.9730  -18.3362   27.8455 O   0  0  0  0  0  0  0  0  0  0  0  0
   12.2088  -18.2234   28.1696 O   0  0  0  0  0  0  0  0  0  0  0  0
  2  1  1  0
  2  3  1  0
  3  4  2  0
  5  6  1  0
  7  6  1  0
  7  8  1  0
  9  8  1  1
  9 11  1  0
 10  3  1  0
 10  9  1  0
 11 12  2  0
 13 14  1  0
 13 11  1  0
 14 17  1  0
 14 15  1  1
 16 15  1  0
 17 19  2  0
 17 18  1  0
M  END
$$$$
