GMC.pdb
     RDKit          3D

 19 18  0  0  1  0  0  0  0  0999 V2000
    8.8359  -18.9301   21.5095 N   0  0  0  0  0  0  0  0  0  0  0  0
    7.9819  -18.3018   22.4952 C   0  0  0  0  0  0  0  0  0  0  0  0
    8.5429  -16.9824   22.9295 C   0  0  0  0  0  0  0  0  0  0  0  0
    9.6963  -16.6101   22.5310 O   0  0  0  0  0  0  0  0  0  0  0  0
    5.0783  -11.7447   26.4915 C   0  0  0  0  0  0  0  0  0  0  0  0
    6.8385  -12.1497   26.6653 S   0  0  0  0  0  0  0  0  0  0  0  0
    7.5175  -12.6622   25.0422 C   0  0  0  0  0  0  0  0  0  0  0  0
    7.1123  -14.0653   24.7851 C   0  0  0  0  0  0  0  0  0  0  0  0
    8.2190  -14.8759   24.2138 C   0  0  2  0  0  0  0  0  0  0  0  0
    7.7387  -16.1894   23.7881 N   0  0  0  0  0  0  0  0  0  0  0  0
    9.4166  -15.0311   25.0481 C   0  0  0  0  0  0  0  0  0  0  0  0
   10.3898  -14.2645   24.9788 O   0  0  0  0  0  0  0  0  0  0  0  0
    9.5503  -16.0912   26.0149 N   0  0  0  0  0  0  0  0  0  0  0  0
   10.4284  -16.0298   27.1539 C   0  0  1  0  0  0  0  0  0  0  0  0
    9.8295  -14.9871   28.1070 C   0  0  0  0  0  0  0  0  0  0  0  0
   11.0231  -14.4422   29.3396 S   0  0  0  0  0  0  0  0  0  0  0  0
   10.5336  -17.2847   27.8845 C   0  0  0  0  0  0  0  0  0  0  0  0
    9.6099  -18.2912   27.6885 O   0  0  0  0  0  0  0  0  0  0  0  0
   11.4599  -17.4728   28.7004 O   0  0  0  0  0  0  0  0  0  0  0  0
  2  1  1  0
  2  3  1  0
  3  4  2  0
  5  6  1  0
  7  6  1  0
  7  8  1  0
  9  8  1  1
  9 11  1  0
 10  3  1  0
 10  9  1  0
 11 12  2  0
 13 14  1  0
 13 11  1  0
 14 17  1  0
 14 15  1  1
 16 15  1  0
 17 19  2  0
 17 18  1  0
M  END
$$$$
