GMC.pdb
     RDKit          3D

 19 18  0  0  1  0  0  0  0  0999 V2000
    4.3405  -19.4849   23.4104 N   0  0  0  0  0  0  0  0  0  0  0  0
    5.5000  -19.3729   24.2699 C   0  0  0  0  0  0  0  0  0  0  0  0
    6.2790  -18.1310   23.9621 C   0  0  0  0  0  0  0  0  0  0  0  0
    6.8370  -17.9858   22.8240 O   0  0  0  0  0  0  0  0  0  0  0  0
    5.6756  -11.8902   26.6178 C   0  0  0  0  0  0  0  0  0  0  0  0
    7.3526  -12.5154   26.9163 S   0  0  0  0  0  0  0  0  0  0  0  0
    7.7944  -13.7390   25.6255 C   0  0  0  0  0  0  0  0  0  0  0  0
    6.9496  -14.9435   25.8110 C   0  0  0  0  0  0  0  0  0  0  0  0
    7.2440  -15.9985   24.8067 C   0  0  2  0  0  0  0  0  0  0  0  0
    6.3595  -17.1491   24.9830 N   0  0  0  0  0  0  0  0  0  0  0  0
    8.6374  -16.4515   24.7206 C   0  0  0  0  0  0  0  0  0  0  0  0
    9.1736  -17.1509   25.5941 O   0  0  0  0  0  0  0  0  0  0  0  0
    9.4898  -16.1154   23.6083 N   0  0  0  0  0  0  0  0  0  0  0  0
   10.8038  -16.6693   23.4109 C   0  0  1  0  0  0  0  0  0  0  0  0
   11.1092  -16.5368   21.9131 C   0  0  0  0  0  0  0  0  0  0  0  0
   10.8489  -14.8563   21.3223 S   0  0  0  0  0  0  0  0  0  0  0  0
   11.8531  -15.9689   24.1376 C   0  0  0  0  0  0  0  0  0  0  0  0
   13.1541  -16.4288   24.1097 O   0  0  0  0  0  0  0  0  0  0  0  0
   11.5954  -14.9412   24.7983 O   0  0  0  0  0  0  0  0  0  0  0  0
  2  1  1  0
  2  3  1  0
  3  4  2  0
  5  6  1  0
  7  6  1  0
  7  8  1  0
  9  8  1  1
  9 11  1  0
 10  3  1  0
 10  9  1  0
 11 12  2  0
 13 14  1  0
 13 11  1  0
 14 17  1  0
 14 15  1  6
 16 15  1  0
 17 19  2  0
 17 18  1  0
M  END
$$$$
