AKA.pdb
     RDKit          3D

 20 19  0  0  1  0  0  0  0  0999 V2000
    9.5297  -18.5163   16.1167 C   0  0  0  0  0  0  0  0  0  0  0  0
    9.6351  -18.9989   17.5383 C   0  0  2  0  0  0  0  0  0  0  0  0
    8.3789  -19.5848   17.9522 N   0  0  0  0  0  0  0  0  0  0  0  0
   10.0517  -17.9112   18.4637 C   0  0  0  0  0  0  0  0  0  0  0  0
   11.2006  -17.4297   18.3041 O   0  0  0  0  0  0  0  0  0  0  0  0
    9.2321  -17.4074   19.4896 N   0  0  0  0  0  0  0  0  0  0  0  0
    9.6238  -16.2635   20.2753 C   0  0  1  0  0  0  0  0  0  0  0  0
    8.5041  -15.2640   20.4009 C   0  0  0  0  0  0  0  0  0  0  0  0
    8.2609  -14.4838   19.1282 C   0  0  0  0  0  0  0  0  0  0  0  0
    7.1477  -13.4983   19.2533 C   0  0  0  0  0  0  0  0  0  0  0  0
    6.9090  -12.7226   17.9756 C   0  0  0  0  0  0  0  0  0  0  0  0
    5.7822  -11.8415   18.0512 N   0  0  0  0  0  0  0  0  0  0  0  0
    9.9663  -16.6905   21.6625 C   0  0  0  0  0  0  0  0  0  0  0  0
    9.0784  -17.0294   22.4736 O   0  0  0  0  0  0  0  0  0  0  0  0
   12.1791  -18.5765   23.3836 C   0  0  0  0  0  0  0  0  0  0  0  0
   11.7068  -17.1310   23.4031 C   0  0  2  0  0  0  0  0  0  0  0  0
   11.3207  -16.7137   22.0716 N   0  0  0  0  0  0  0  0  0  0  0  0
   12.8110  -16.2584   23.9155 C   0  0  0  0  0  0  0  0  0  0  0  0
   13.4523  -15.5371   23.1233 O   0  0  0  0  0  0  0  0  0  0  0  0
   13.1245  -16.2442   25.2473 O   0  0  0  0  0  0  0  0  0  0  0  0
  2  1  1  6
  2  3  1  0
  2  4  1  0
  4  6  1  0
  5  4  2  0
  6  7  1  0
  7 13  1  0
  7  8  1  1
  9  8  1  0
 10 11  1  0
 10  9  1  0
 12 11  1  0
 13 17  1  0
 13 14  2  0
 16 15  1  6
 17 16  1  0
 18 16  1  0
 18 20  1  0
 19 18  2  0
M  END
$$$$
