AKA.pdb
     RDKit          3D

 20 19  0  0  1  0  0  0  0  0999 V2000
    8.2073  -12.0063   19.6460 C   0  0  0  0  0  0  0  0  0  0  0  0
    8.0876  -13.2424   18.7959 C   0  0  2  0  0  0  0  0  0  0  0  0
    6.7959  -13.2675   18.1452 N   0  0  0  0  0  0  0  0  0  0  0  0
    8.3161  -14.4824   19.5852 C   0  0  0  0  0  0  0  0  0  0  0  0
    7.3017  -15.0825   20.0191 O   0  0  0  0  0  0  0  0  0  0  0  0
    9.5930  -15.0031   19.8622 N   0  0  0  0  0  0  0  0  0  0  0  0
    9.7629  -16.2637   20.5414 C   0  0  1  0  0  0  0  0  0  0  0  0
   10.6293  -17.2095   19.7520 C   0  0  0  0  0  0  0  0  0  0  0  0
   10.8021  -18.5542   20.4225 C   0  0  0  0  0  0  0  0  0  0  0  0
   11.6397  -19.4981   19.6266 C   0  0  0  0  0  0  0  0  0  0  0  0
   11.8248  -20.8345   20.3129 C   0  0  0  0  0  0  0  0  0  0  0  0
   12.7428  -21.6977   19.6316 N   0  0  0  0  0  0  0  0  0  0  0  0
   10.4508  -16.0509   21.8473 C   0  0  0  0  0  0  0  0  0  0  0  0
   11.5919  -15.5452   21.9032 O   0  0  0  0  0  0  0  0  0  0  0  0
    9.4097  -16.2527   25.4440 C   0  0  0  0  0  0  0  0  0  0  0  0
   10.4502  -16.2971   24.3358 C   0  0  2  0  0  0  0  0  0  0  0  0
    9.8025  -16.4272   23.0475 N   0  0  0  0  0  0  0  0  0  0  0  0
   11.3694  -17.4564   24.5686 C   0  0  0  0  0  0  0  0  0  0  0  0
   12.1412  -17.4508   25.5501 O   0  0  0  0  0  0  0  0  0  0  0  0
   11.3713  -18.5245   23.7135 O   0  0  0  0  0  0  0  0  0  0  0  0
  2  1  1  1
  2  3  1  0
  2  4  1  0
  4  6  1  0
  5  4  2  0
  6  7  1  0
  7 13  1  0
  7  8  1  6
  9  8  1  0
 10 11  1  0
 10  9  1  0
 12 11  1  0
 13 17  1  0
 13 14  2  0
 16 15  1  1
 17 16  1  0
 18 16  1  0
 18 20  1  0
 19 18  2  0
M  END
$$$$
