AKA.pdb
     RDKit          3D

 20 19  0  0  1  0  0  0  0  0999 V2000
    8.1922  -12.3978   20.6324 C   0  0  0  0  0  0  0  0  0  0  0  0
    8.3283  -13.8889   20.4803 C   0  0  2  0  0  0  0  0  0  0  0  0
    7.4655  -14.3546   19.4166 N   0  0  0  0  0  0  0  0  0  0  0  0
    8.0458  -14.6042   21.7537 C   0  0  0  0  0  0  0  0  0  0  0  0
    6.8428  -14.8435   22.0236 O   0  0  0  0  0  0  0  0  0  0  0  0
    9.0464  -15.0167   22.6518 N   0  0  0  0  0  0  0  0  0  0  0  0
    8.7235  -15.7025   23.8784 C   0  0  1  0  0  0  0  0  0  0  0  0
    8.9768  -17.1833   23.7722 C   0  0  0  0  0  0  0  0  0  0  0  0
   10.3482  -17.5120   23.2255 C   0  0  0  0  0  0  0  0  0  0  0  0
   10.5970  -18.9795   23.1215 C   0  0  0  0  0  0  0  0  0  0  0  0
   11.9436  -19.3009   22.5096 C   0  0  0  0  0  0  0  0  0  0  0  0
   12.1815  -20.7068   22.3728 N   0  0  0  0  0  0  0  0  0  0  0  0
    9.5901  -15.2040   24.9850 C   0  0  0  0  0  0  0  0  0  0  0  0
   10.8155  -15.0263   24.8179 O   0  0  0  0  0  0  0  0  0  0  0  0
    8.9838  -13.3382   28.0944 C   0  0  0  0  0  0  0  0  0  0  0  0
    9.8003  -14.3712   27.3334 C   0  0  2  0  0  0  0  0  0  0  0  0
    9.0179  -14.9259   26.2489 N   0  0  0  0  0  0  0  0  0  0  0  0
   10.2193  -15.4588   28.2740 C   0  0  0  0  0  0  0  0  0  0  0  0
    9.7256  -16.6004   28.1642 O   0  0  0  0  0  0  0  0  0  0  0  0
   11.1406  -15.2125   29.2552 O   0  0  0  0  0  0  0  0  0  0  0  0
  2  1  1  1
  2  3  1  0
  2  4  1  0
  4  6  1  0
  5  4  2  0
  6  7  1  0
  7 13  1  0
  7  8  1  6
  9  8  1  0
 10 11  1  0
 10  9  1  0
 12 11  1  0
 13 17  1  0
 13 14  2  0
 16 15  1  1
 17 16  1  0
 18 16  1  0
 18 20  1  0
 19 18  2  0
M  END
$$$$
