AKA.pdb
     RDKit          3D

 20 19  0  0  1  0  0  0  0  0999 V2000
    7.9136  -12.2050   20.9452 C   0  0  0  0  0  0  0  0  0  0  0  0
    7.9923  -13.6789   20.6507 C   0  0  2  0  0  0  0  0  0  0  0  0
    6.9140  -14.0608   19.7652 N   0  0  0  0  0  0  0  0  0  0  0  0
    7.9804  -14.4942   21.8948 C   0  0  0  0  0  0  0  0  0  0  0  0
    6.8593  -14.7908   22.3768 O   0  0  0  0  0  0  0  0  0  0  0  0
    9.1464  -14.9394   22.5433 N   0  0  0  0  0  0  0  0  0  0  0  0
    9.0856  -15.8008   23.6981 C   0  0  1  0  0  0  0  0  0  0  0  0
    9.7868  -17.1111   23.4534 C   0  0  0  0  0  0  0  0  0  0  0  0
    9.0382  -18.0143   22.4987 C   0  0  0  0  0  0  0  0  0  0  0  0
    9.7188  -19.3243   22.2823 C   0  0  0  0  0  0  0  0  0  0  0  0
    8.9174  -20.2597   21.4026 C   0  0  0  0  0  0  0  0  0  0  0  0
    9.5488  -21.5303   21.2055 N   0  0  0  0  0  0  0  0  0  0  0  0
    9.7806  -15.1586   24.8507 C   0  0  0  0  0  0  0  0  0  0  0  0
   10.7897  -14.4417   24.6806 O   0  0  0  0  0  0  0  0  0  0  0  0
    9.2580  -13.6118   27.8545 C   0  0  0  0  0  0  0  0  0  0  0  0
    9.9818  -14.8389   27.3226 C   0  0  2  0  0  0  0  0  0  0  0  0
    9.2914  -15.3624   26.1627 N   0  0  0  0  0  0  0  0  0  0  0  0
   10.0432  -15.8799   28.3977 C   0  0  0  0  0  0  0  0  0  0  0  0
    9.3697  -16.9257   28.2900 O   0  0  0  0  0  0  0  0  0  0  0  0
   10.8326  -15.6949   29.4999 O   0  0  0  0  0  0  0  0  0  0  0  0
  2  1  1  1
  2  3  1  0
  2  4  1  0
  4  6  1  0
  5  4  2  0
  6  7  1  0
  7 13  1  0
  7  8  1  6
  9  8  1  0
 10 11  1  0
 10  9  1  0
 12 11  1  0
 13 17  1  0
 13 14  2  0
 16 15  1  1
 17 16  1  0
 18 16  1  0
 18 20  1  0
 19 18  2  0
M  END
$$$$
