DAP.pdb
     RDKit          3D

 21 21  0  0  1  0  0  0  0  0999 V2000
    8.8550  -18.3214   14.4597 N   0  0  0  0  0  0  0  0  0  0  0  0
    9.2220  -18.6074   15.8512 C   0  0  1  0  0  0  0  0  0  0  0  0
   10.7257  -18.5960   15.8779 C   0  0  0  0  0  0  0  0  0  0  0  0
   11.3605  -19.8388   15.4178 C   0  0  0  0  0  0  0  0  0  0  0  0
   10.7222  -20.8350   15.0184 O   0  0  0  0  0  0  0  0  0  0  0  0
    8.6178  -17.5318   16.7055 C   0  0  0  0  0  0  0  0  0  0  0  0
    8.6463  -16.3341   16.4114 O   0  0  0  0  0  0  0  0  0  0  0  0
   12.7740  -19.8836   15.4383 O   0  0  0  0  0  0  0  0  0  0  0  0
    6.4410  -17.7704   19.7240 C   0  0  0  0  0  0  0  0  0  0  0  0
    7.2764  -16.9584   18.7642 C   0  0  2  0  0  0  0  0  0  0  0  0
    7.9777  -17.8982   17.9166 N   0  0  0  0  0  0  0  0  0  0  0  0
    8.3225  -16.1812   19.5129 C   0  0  0  0  0  0  0  0  0  0  0  0
    9.4983  -16.6639   19.6586 O   0  0  0  0  0  0  0  0  0  0  0  0
    8.0645  -14.9160   20.0760 N   0  0  0  0  0  0  0  0  0  0  0  0
    6.8823  -14.1149   19.8692 C   0  0  0  0  0  0  0  0  0  0  0  0
    7.5232  -12.7183   19.8385 C   0  0  0  0  0  0  0  0  0  0  0  0
    8.3746  -12.7932   21.0858 C   0  0  0  0  0  0  0  0  0  0  0  0
    8.9517  -14.2026   20.9629 C   0  0  1  0  0  0  0  0  0  0  0  0
    8.9444  -14.7628   22.3369 C   0  0  0  0  0  0  0  0  0  0  0  0
    7.9800  -15.5114   22.6405 O   0  0  0  0  0  0  0  0  0  0  0  0
    9.9130  -14.5203   23.2906 O   0  0  0  0  0  0  0  0  0  0  0  0
  2  1  1  6
  3  2  1  0
  3  4  1  0
  4  8  1  0
  5  4  2  0
  6  2  1  0
  7  6  2  0
 10  9  1  1
 10 12  1  0
 10 11  1  0
 11  6  1  0
 12 14  1  0
 13 12  2  0
 14 15  1  0
 14 18  1  0
 15 16  1  0
 16 17  1  0
 18 17  1  0
 18 19  1  1
 19 21  1  0
 20 19  2  0
M  END
$$$$
