DAP.pdb
     RDKit          3D

 21 21  0  0  1  0  0  0  0  0999 V2000
    9.9859  -17.1956   19.9612 N   0  0  0  0  0  0  0  0  0  0  0  0
   10.4696  -16.8109   21.2919 C   0  0  1  0  0  0  0  0  0  0  0  0
   11.7541  -16.0667   21.0501 C   0  0  0  0  0  0  0  0  0  0  0  0
   12.9476  -16.9164   20.9365 C   0  0  0  0  0  0  0  0  0  0  0  0
   13.1902  -17.8742   21.7002 O   0  0  0  0  0  0  0  0  0  0  0  0
    9.4123  -15.9541   21.9241 C   0  0  0  0  0  0  0  0  0  0  0  0
    9.0677  -14.8579   21.4754 O   0  0  0  0  0  0  0  0  0  0  0  0
   13.8562  -16.6116   19.8964 O   0  0  0  0  0  0  0  0  0  0  0  0
    6.7148  -16.6893   24.2635 C   0  0  0  0  0  0  0  0  0  0  0  0
    7.7281  -15.6791   23.7828 C   0  0  2  0  0  0  0  0  0  0  0  0
    8.7679  -16.4176   23.0992 N   0  0  0  0  0  0  0  0  0  0  0  0
    8.3766  -14.9943   24.9529 C   0  0  0  0  0  0  0  0  0  0  0  0
    9.5544  -15.3314   25.3213 O   0  0  0  0  0  0  0  0  0  0  0  0
    7.7343  -13.9741   25.6817 N   0  0  0  0  0  0  0  0  0  0  0  0
    6.4465  -13.3946   25.3851 C   0  0  0  0  0  0  0  0  0  0  0  0
    6.7318  -11.9328   25.7642 C   0  0  0  0  0  0  0  0  0  0  0  0
    7.3566  -12.1324   27.1265 C   0  0  0  0  0  0  0  0  0  0  0  0
    8.2653  -13.3314   26.8596 C   0  0  1  0  0  0  0  0  0  0  0  0
    8.1632  -14.1912   28.0646 C   0  0  0  0  0  0  0  0  0  0  0  0
    7.3725  -15.1676   28.0010 O   0  0  0  0  0  0  0  0  0  0  0  0
    8.8693  -13.9931   29.2347 O   0  0  0  0  0  0  0  0  0  0  0  0
  2  1  1  6
  3  2  1  0
  3  4  1  0
  4  8  1  0
  5  4  2  0
  6  2  1  0
  7  6  2  0
 10  9  1  1
 10 12  1  0
 10 11  1  0
 11  6  1  0
 12 14  1  0
 13 12  2  0
 14 15  1  0
 14 18  1  0
 15 16  1  0
 16 17  1  0
 18 17  1  0
 18 19  1  1
 19 21  1  0
 20 19  2  0
M  END
$$$$
