DAP.pdb
     RDKit          3D

 21 21  0  0  1  0  0  0  0  0999 V2000
    9.8372  -18.3212   21.5432 N   0  0  0  0  0  0  0  0  0  0  0  0
   10.4189  -16.9743   21.5303 C   0  0  1  0  0  0  0  0  0  0  0  0
   10.4317  -16.5587   20.0849 C   0  0  0  0  0  0  0  0  0  0  0  0
   11.5329  -17.1207   19.2908 C   0  0  0  0  0  0  0  0  0  0  0  0
   12.2139  -18.1037   19.6507 O   0  0  0  0  0  0  0  0  0  0  0  0
    9.5441  -16.0987   22.3787 C   0  0  0  0  0  0  0  0  0  0  0  0
    9.5277  -14.8681   22.2938 O   0  0  0  0  0  0  0  0  0  0  0  0
   11.8173  -16.4955   18.0545 O   0  0  0  0  0  0  0  0  0  0  0  0
    6.8081  -16.9336   24.7679 C   0  0  0  0  0  0  0  0  0  0  0  0
    7.8150  -15.9567   24.2108 C   0  0  2  0  0  0  0  0  0  0  0  0
    8.6867  -16.7053   23.3315 N   0  0  0  0  0  0  0  0  0  0  0  0
    8.6750  -15.4086   25.3148 C   0  0  0  0  0  0  0  0  0  0  0  0
    9.8497  -15.8781   25.5059 O   0  0  0  0  0  0  0  0  0  0  0  0
    8.2396  -14.3777   26.1704 N   0  0  0  0  0  0  0  0  0  0  0  0
    6.9360  -13.7588   26.1662 C   0  0  0  0  0  0  0  0  0  0  0  0
    7.3413  -12.3095   26.4780 C   0  0  0  0  0  0  0  0  0  0  0  0
    8.2440  -12.5401   27.6688 C   0  0  0  0  0  0  0  0  0  0  0  0
    9.0356  -13.7619   27.2046 C   0  0  1  0  0  0  0  0  0  0  0  0
    9.1751  -14.6301   28.3998 C   0  0  0  0  0  0  0  0  0  0  0  0
    9.9688  -14.2416   29.2952 O   0  0  0  0  0  0  0  0  0  0  0  0
    8.5004  -15.8196   28.5912 O   0  0  0  0  0  0  0  0  0  0  0  0
  2  1  1  6
  3  2  1  0
  3  4  1  0
  4  8  1  0
  5  4  2  0
  6  2  1  0
  7  6  2  0
 10  9  1  1
 10 12  1  0
 10 11  1  0
 11  6  1  0
 12 14  1  0
 13 12  2  0
 14 15  1  0
 14 18  1  0
 15 16  1  0
 16 17  1  0
 18 17  1  0
 18 19  1  1
 19 21  1  0
 20 19  2  0
M  END
$$$$
