DAP.pdb
     RDKit          3D

 21 21  0  0  1  0  0  0  0  0999 V2000
   11.6247  -16.4675   20.3532 N   0  0  0  0  0  0  0  0  0  0  0  0
   10.7785  -16.9657   21.4435 C   0  0  1  0  0  0  0  0  0  0  0  0
   11.7071  -17.7154   22.3589 C   0  0  0  0  0  0  0  0  0  0  0  0
   12.0324  -19.0809   21.9245 C   0  0  0  0  0  0  0  0  0  0  0  0
   13.0524  -19.6998   22.2935 O   0  0  0  0  0  0  0  0  0  0  0  0
   10.1486  -15.7746   22.1038 C   0  0  0  0  0  0  0  0  0  0  0  0
   10.7964  -14.8316   22.5652 O   0  0  0  0  0  0  0  0  0  0  0  0
   11.1239  -19.7068   21.0395 O   0  0  0  0  0  0  0  0  0  0  0  0
    6.5850  -14.7213   22.3722 C   0  0  0  0  0  0  0  0  0  0  0  0
    8.0245  -14.6118   22.8130 C   0  0  2  0  0  0  0  0  0  0  0  0
    8.7356  -15.7178   22.2090 N   0  0  0  0  0  0  0  0  0  0  0  0
    8.1282  -14.7874   24.3020 C   0  0  0  0  0  0  0  0  0  0  0  0
    8.7218  -15.8116   24.7873 O   0  0  0  0  0  0  0  0  0  0  0  0
    7.5900  -13.8560   25.2116 N   0  0  0  0  0  0  0  0  0  0  0  0
    6.8897  -12.6404   24.8740 C   0  0  0  0  0  0  0  0  0  0  0  0
    7.4167  -11.7246   25.9900 C   0  0  0  0  0  0  0  0  0  0  0  0
    7.1851  -12.6142   27.1905 C   0  0  0  0  0  0  0  0  0  0  0  0
    7.6520  -13.9647   26.6493 C   0  0  1  0  0  0  0  0  0  0  0  0
    6.6935  -14.9653   27.1801 C   0  0  0  0  0  0  0  0  0  0  0  0
    5.7284  -15.2784   26.4364 O   0  0  0  0  0  0  0  0  0  0  0  0
    6.7901  -15.5672   28.4191 O   0  0  0  0  0  0  0  0  0  0  0  0
  2  1  1  6
  3  2  1  0
  3  4  1  0
  4  8  1  0
  5  4  2  0
  6  2  1  0
  7  6  2  0
 10  9  1  6
 10 12  1  0
 10 11  1  0
 11  6  1  0
 12 14  1  0
 13 12  2  0
 14 15  1  0
 14 18  1  0
 15 16  1  0
 16 17  1  0
 18 17  1  0
 18 19  1  1
 19 21  1  0
 20 19  2  0
M  END
$$$$
