DAP.pdb
     RDKit          3D

 21 21  0  0  1  0  0  0  0  0999 V2000
    8.4625  -13.2244   18.5210 N   0  0  0  0  0  0  0  0  0  0  0  0
    9.0684  -13.8844   19.6830 C   0  0  1  0  0  0  0  0  0  0  0  0
   10.4518  -13.3049   19.7949 C   0  0  0  0  0  0  0  0  0  0  0  0
   11.4979  -14.0661   19.0981 C   0  0  0  0  0  0  0  0  0  0  0  0
   11.4948  -14.2796   17.8677 O   0  0  0  0  0  0  0  0  0  0  0  0
    8.2105  -13.5736   20.8743 C   0  0  0  0  0  0  0  0  0  0  0  0
    7.8142  -12.4381   21.1488 O   0  0  0  0  0  0  0  0  0  0  0  0
   12.5557  -14.5744   19.8873 O   0  0  0  0  0  0  0  0  0  0  0  0
    6.1125  -15.6905   22.9943 C   0  0  0  0  0  0  0  0  0  0  0  0
    6.9691  -14.4522   22.8876 C   0  0  2  0  0  0  0  0  0  0  0  0
    7.8284  -14.6319   21.7374 N   0  0  0  0  0  0  0  0  0  0  0  0
    7.8657  -14.3340   24.0880 C   0  0  0  0  0  0  0  0  0  0  0  0
    9.0594  -14.7925   24.0445 O   0  0  0  0  0  0  0  0  0  0  0  0
    7.4451  -13.7282   25.2881 N   0  0  0  0  0  0  0  0  0  0  0  0
    6.1164  -13.2480   25.5817 C   0  0  0  0  0  0  0  0  0  0  0  0
    6.4728  -11.9923   26.3928 C   0  0  0  0  0  0  0  0  0  0  0  0
    7.4710  -12.5818   27.3635 C   0  0  0  0  0  0  0  0  0  0  0  0
    8.2844  -13.4837   26.4363 C   0  0  1  0  0  0  0  0  0  0  0  0
    8.5536  -14.7205   27.2106 C   0  0  0  0  0  0  0  0  0  0  0  0
    9.4362  -14.6509   28.1044 O   0  0  0  0  0  0  0  0  0  0  0  0
    7.9079  -15.9257   27.0176 O   0  0  0  0  0  0  0  0  0  0  0  0
  2  1  1  6
  3  2  1  0
  3  4  1  0
  4  8  1  0
  5  4  2  0
  6  2  1  0
  7  6  2  0
 10  9  1  1
 10 12  1  0
 10 11  1  0
 11  6  1  0
 12 14  1  0
 13 12  2  0
 14 15  1  0
 14 18  1  0
 15 16  1  0
 16 17  1  0
 18 17  1  0
 18 19  1  1
 19 21  1  0
 20 19  2  0
M  END
$$$$
