DAP.pdb
     RDKit          3D

 21 21  0  0  1  0  0  0  0  0999 V2000
    8.5470  -17.1686   19.9116 N   0  0  0  0  0  0  0  0  0  0  0  0
    9.3045  -16.7893   21.1095 C   0  0  1  0  0  0  0  0  0  0  0  0
   10.4212  -15.9117   20.6144 C   0  0  0  0  0  0  0  0  0  0  0  0
   11.7027  -16.6007   20.4088 C   0  0  0  0  0  0  0  0  0  0  0  0
   12.1202  -17.5194   21.1445 O   0  0  0  0  0  0  0  0  0  0  0  0
    8.3621  -16.0676   22.0275 C   0  0  0  0  0  0  0  0  0  0  0  0
    7.7174  -15.0706   21.6928 O   0  0  0  0  0  0  0  0  0  0  0  0
   12.4881  -16.1813   19.3099 O   0  0  0  0  0  0  0  0  0  0  0  0
    6.7050  -17.0816   25.1232 C   0  0  0  0  0  0  0  0  0  0  0  0
    7.2842  -15.9524   24.3060 C   0  0  2  0  0  0  0  0  0  0  0  0
    8.1950  -16.5469   23.3516 N   0  0  0  0  0  0  0  0  0  0  0  0
    8.1007  -15.0423   25.1799 C   0  0  0  0  0  0  0  0  0  0  0  0
    9.3710  -15.1817   25.2413 O   0  0  0  0  0  0  0  0  0  0  0  0
    7.5208  -14.0182   25.9540 N   0  0  0  0  0  0  0  0  0  0  0  0
    6.1202  -13.6742   26.0024 C   0  0  0  0  0  0  0  0  0  0  0  0
    6.2371  -12.1459   26.1148 C   0  0  0  0  0  0  0  0  0  0  0  0
    7.2471  -12.0419   27.2352 C   0  0  0  0  0  0  0  0  0  0  0  0
    8.2408  -13.1320   26.8365 C   0  0  1  0  0  0  0  0  0  0  0  0
    8.6382  -13.7980   28.1016 C   0  0  0  0  0  0  0  0  0  0  0  0
    8.1068  -14.9110   28.3494 O   0  0  0  0  0  0  0  0  0  0  0  0
    9.5404  -13.2837   29.0117 O   0  0  0  0  0  0  0  0  0  0  0  0
  2  1  1  6
  3  2  1  0
  3  4  1  0
  4  8  1  0
  5  4  2  0
  6  2  1  0
  7  6  2  0
 10  9  1  1
 10 12  1  0
 10 11  1  0
 11  6  1  0
 12 14  1  0
 13 12  2  0
 14 15  1  0
 14 18  1  0
 15 16  1  0
 16 17  1  0
 18 17  1  0
 18 19  1  1
 19 21  1  0
 20 19  2  0
M  END
$$$$
