DAP.pdb
     RDKit          3D

 21 21  0  0  1  0  0  0  0  0999 V2000
    9.7806  -17.3793   20.2462 N   0  0  0  0  0  0  0  0  0  0  0  0
   10.4168  -17.1163   21.5419 C   0  0  1  0  0  0  0  0  0  0  0  0
   11.6936  -16.3896   21.2195 C   0  0  0  0  0  0  0  0  0  0  0  0
   12.8844  -17.2457   21.1270 C   0  0  0  0  0  0  0  0  0  0  0  0
   12.9568  -18.2533   20.3929 O   0  0  0  0  0  0  0  0  0  0  0  0
    9.4639  -16.2853   22.3500 C   0  0  0  0  0  0  0  0  0  0  0  0
    9.1414  -15.1336   22.0475 O   0  0  0  0  0  0  0  0  0  0  0  0
   13.9965  -16.8869   21.9237 O   0  0  0  0  0  0  0  0  0  0  0  0
    7.0283  -17.1755   24.9530 C   0  0  0  0  0  0  0  0  0  0  0  0
    7.9535  -16.1374   24.3658 C   0  0  2  0  0  0  0  0  0  0  0  0
    8.8975  -16.8414   23.5251 N   0  0  0  0  0  0  0  0  0  0  0  0
    8.7492  -15.4735   25.4543 C   0  0  0  0  0  0  0  0  0  0  0  0
    9.9713  -15.8001   25.6457 O   0  0  0  0  0  0  0  0  0  0  0  0
    8.2011  -14.4848   26.2948 N   0  0  0  0  0  0  0  0  0  0  0  0
    6.8156  -14.0852   26.3513 C   0  0  0  0  0  0  0  0  0  0  0  0
    6.9951  -12.5757   26.5778 C   0  0  0  0  0  0  0  0  0  0  0  0
    7.9911  -12.5978   27.7151 C   0  0  0  0  0  0  0  0  0  0  0  0
    8.9440  -13.6977   27.2492 C   0  0  1  0  0  0  0  0  0  0  0  0
    9.2934  -14.4711   28.4664 C   0  0  0  0  0  0  0  0  0  0  0  0
    8.7292  -15.5859   28.6130 O   0  0  0  0  0  0  0  0  0  0  0  0
   10.1848  -14.0537   29.4349 O   0  0  0  0  0  0  0  0  0  0  0  0
  2  1  1  6
  3  2  1  0
  3  4  1  0
  4  8  1  0
  5  4  2  0
  6  2  1  0
  7  6  2  0
 10  9  1  1
 10 12  1  0
 10 11  1  0
 11  6  1  0
 12 14  1  0
 13 12  2  0
 14 15  1  0
 14 18  1  0
 15 16  1  0
 16 17  1  0
 18 17  1  0
 18 19  1  1
 19 21  1  0
 20 19  2  0
M  END
$$$$
