DAP.pdb
     RDKit          3D

 21 21  0  0  1  0  0  0  0  0999 V2000
   10.5689  -16.2522   16.1627 N   0  0  0  0  0  0  0  0  0  0  0  0
    9.4463  -16.7261   16.9800 C   0  0  1  0  0  0  0  0  0  0  0  0
    9.7011  -18.1925   17.1965 C   0  0  0  0  0  0  0  0  0  0  0  0
    9.5612  -19.0271   15.9952 C   0  0  0  0  0  0  0  0  0  0  0  0
    8.5196  -19.0825   15.3087 O   0  0  0  0  0  0  0  0  0  0  0  0
    9.4575  -15.9398   18.2580 C   0  0  0  0  0  0  0  0  0  0  0  0
   10.4620  -15.7979   18.9599 O   0  0  0  0  0  0  0  0  0  0  0  0
   10.6830  -19.8009   15.6168 O   0  0  0  0  0  0  0  0  0  0  0  0
    6.8483  -13.7709   19.8117 C   0  0  0  0  0  0  0  0  0  0  0  0
    8.1667  -14.5026   19.8813 C   0  0  2  0  0  0  0  0  0  0  0  0
    8.2570  -15.3226   18.6926 N   0  0  0  0  0  0  0  0  0  0  0  0
    8.1824  -15.4371   21.0583 C   0  0  0  0  0  0  0  0  0  0  0  0
    8.1676  -16.7029   20.8724 O   0  0  0  0  0  0  0  0  0  0  0  0
    8.2130  -14.9756   22.3888 N   0  0  0  0  0  0  0  0  0  0  0  0
    8.2999  -13.5989   22.8126 C   0  0  0  0  0  0  0  0  0  0  0  0
    9.2080  -13.7676   24.0410 C   0  0  0  0  0  0  0  0  0  0  0  0
    8.4930  -14.9004   24.7421 C   0  0  0  0  0  0  0  0  0  0  0  0
    8.1630  -15.8138   23.5624 C   0  0  1  0  0  0  0  0  0  0  0  0
    6.7986  -16.3345   23.8247 C   0  0  0  0  0  0  0  0  0  0  0  0
    5.8583  -15.8239   23.1631 O   0  0  0  0  0  0  0  0  0  0  0  0
    6.4973  -17.3291   24.7341 O   0  0  0  0  0  0  0  0  0  0  0  0
  2  1  1  6
  3  2  1  0
  3  4  1  0
  4  8  1  0
  5  4  2  0
  6  2  1  0
  7  6  2  0
 10  9  1  6
 10 12  1  0
 10 11  1  0
 11  6  1  0
 12 14  1  0
 13 12  2  0
 14 15  1  0
 14 18  1  0
 15 16  1  0
 16 17  1  0
 18 17  1  0
 18 19  1  1
 19 21  1  0
 20 19  2  0
M  END
$$$$
