DAP.pdb
     RDKit          3D

 21 21  0  0  1  0  0  0  0  0999 V2000
    8.8641  -17.0091   19.7692 N   0  0  0  0  0  0  0  0  0  0  0  0
    9.4146  -17.1048   21.1259 C   0  0  1  0  0  0  0  0  0  0  0  0
   10.8546  -16.6885   21.0028 C   0  0  0  0  0  0  0  0  0  0  0  0
   11.7231  -17.6629   20.3279 C   0  0  0  0  0  0  0  0  0  0  0  0
   12.7650  -17.3520   19.7135 O   0  0  0  0  0  0  0  0  0  0  0  0
    8.6164  -16.1833   22.0008 C   0  0  0  0  0  0  0  0  0  0  0  0
    8.4918  -14.9759   21.7810 O   0  0  0  0  0  0  0  0  0  0  0  0
   11.3354  -19.0215   20.3924 O   0  0  0  0  0  0  0  0  0  0  0  0
    6.2927  -16.8789   24.8213 C   0  0  0  0  0  0  0  0  0  0  0  0
    7.1666  -15.9205   24.0492 C   0  0  2  0  0  0  0  0  0  0  0  0
    7.9665  -16.7160   23.1431 N   0  0  0  0  0  0  0  0  0  0  0  0
    8.1216  -15.2233   24.9770 C   0  0  0  0  0  0  0  0  0  0  0  0
    9.3444  -15.5949   25.0365 O   0  0  0  0  0  0  0  0  0  0  0  0
    7.7257  -14.1545   25.8047 N   0  0  0  0  0  0  0  0  0  0  0  0
    6.4002  -13.5914   25.8958 C   0  0  0  0  0  0  0  0  0  0  0  0
    6.7649  -12.1086   26.0696 C   0  0  0  0  0  0  0  0  0  0  0  0
    7.7931  -12.2190   27.1727 C   0  0  0  0  0  0  0  0  0  0  0  0
    8.5914  -13.4364   26.7088 C   0  0  1  0  0  0  0  0  0  0  0  0
    8.8922  -14.2134   27.9366 C   0  0  0  0  0  0  0  0  0  0  0  0
    8.1911  -15.2363   28.1481 O   0  0  0  0  0  0  0  0  0  0  0  0
    9.8774  -13.8923   28.8493 O   0  0  0  0  0  0  0  0  0  0  0  0
  2  1  1  6
  3  2  1  0
  3  4  1  0
  4  8  1  0
  5  4  2  0
  6  2  1  0
  7  6  2  0
 10  9  1  1
 10 12  1  0
 10 11  1  0
 11  6  1  0
 12 14  1  0
 13 12  2  0
 14 15  1  0
 14 18  1  0
 15 16  1  0
 16 17  1  0
 18 17  1  0
 18 19  1  1
 19 21  1  0
 20 19  2  0
M  END
$$$$
