DAP.pdb
     RDKit          3D

 21 21  0  0  1  0  0  0  0  0999 V2000
    9.6766  -17.2660   14.1606 N   0  0  0  0  0  0  0  0  0  0  0  0
   10.0945  -17.4539   15.5545 C   0  0  1  0  0  0  0  0  0  0  0  0
   11.5717  -17.1709   15.5700 C   0  0  0  0  0  0  0  0  0  0  0  0
   12.4287  -18.3645   15.5621 C   0  0  0  0  0  0  0  0  0  0  0  0
   11.9896  -19.5311   15.4875 O   0  0  0  0  0  0  0  0  0  0  0  0
    9.3095  -16.4884   16.3931 C   0  0  0  0  0  0  0  0  0  0  0  0
    9.3752  -15.2637   16.2608 O   0  0  0  0  0  0  0  0  0  0  0  0
   13.8248  -18.1531   15.6444 O   0  0  0  0  0  0  0  0  0  0  0  0
    6.5254  -17.0619   18.7944 C   0  0  0  0  0  0  0  0  0  0  0  0
    7.5861  -16.1629   18.2071 C   0  0  2  0  0  0  0  0  0  0  0  0
    8.4431  -16.9979   17.3935 N   0  0  0  0  0  0  0  0  0  0  0  0
    8.4451  -15.5887   19.2986 C   0  0  0  0  0  0  0  0  0  0  0  0
    9.5387  -16.1667   19.6251 O   0  0  0  0  0  0  0  0  0  0  0  0
    8.0956  -14.4162   19.9967 N   0  0  0  0  0  0  0  0  0  0  0  0
    6.9277  -13.6010   19.7647 C   0  0  0  0  0  0  0  0  0  0  0  0
    7.5366  -12.2102   20.0032 C   0  0  0  0  0  0  0  0  0  0  0  0
    8.2392  -12.4538   21.3197 C   0  0  0  0  0  0  0  0  0  0  0  0
    8.8578  -13.8288   21.0721 C   0  0  1  0  0  0  0  0  0  0  0  0
    8.7038  -14.5757   22.3449 C   0  0  0  0  0  0  0  0  0  0  0  0
    7.7619  -15.4074   22.4056 O   0  0  0  0  0  0  0  0  0  0  0  0
    9.5151  -14.4204   23.4514 O   0  0  0  0  0  0  0  0  0  0  0  0
  2  1  1  6
  3  2  1  0
  3  4  1  0
  4  8  1  0
  5  4  2  0
  6  2  1  0
  7  6  2  0
 10  9  1  1
 10 12  1  0
 10 11  1  0
 11  6  1  0
 12 14  1  0
 13 12  2  0
 14 15  1  0
 14 18  1  0
 15 16  1  0
 16 17  1  0
 18 17  1  0
 18 19  1  1
 19 21  1  0
 20 19  2  0
M  END
$$$$
