DAP.pdb
     RDKit          3D

 21 21  0  0  1  0  0  0  0  0999 V2000
    9.3025  -16.8806   19.8276 N   0  0  0  0  0  0  0  0  0  0  0  0
    9.8280  -16.8321   21.1967 C   0  0  1  0  0  0  0  0  0  0  0  0
   11.1645  -16.1508   21.0874 C   0  0  0  0  0  0  0  0  0  0  0  0
   12.3018  -17.0548   20.8671 C   0  0  0  0  0  0  0  0  0  0  0  0
   12.1998  -18.2989   20.8305 O   0  0  0  0  0  0  0  0  0  0  0  0
    8.8474  -16.0573   22.0272 C   0  0  0  0  0  0  0  0  0  0  0  0
    8.4072  -14.9513   21.7037 O   0  0  0  0  0  0  0  0  0  0  0  0
   13.5716  -16.4577   20.6896 O   0  0  0  0  0  0  0  0  0  0  0  0
    6.7099  -17.0757   24.8601 C   0  0  0  0  0  0  0  0  0  0  0  0
    7.4166  -15.9769   24.1040 C   0  0  2  0  0  0  0  0  0  0  0  0
    8.3953  -16.6148   23.2502 N   0  0  0  0  0  0  0  0  0  0  0  0
    8.1759  -15.0951   25.0552 C   0  0  0  0  0  0  0  0  0  0  0  0
    9.4344  -15.2597   25.2165 O   0  0  0  0  0  0  0  0  0  0  0  0
    7.5538  -14.0712   25.7959 N   0  0  0  0  0  0  0  0  0  0  0  0
    6.1726  -13.6652   25.6973 C   0  0  0  0  0  0  0  0  0  0  0  0
    6.3395  -12.1483   25.8796 C   0  0  0  0  0  0  0  0  0  0  0  0
    7.2167  -12.1271   27.1109 C   0  0  0  0  0  0  0  0  0  0  0  0
    8.2034  -13.2481   26.7875 C   0  0  1  0  0  0  0  0  0  0  0  0
    8.4238  -13.9723   28.0636 C   0  0  0  0  0  0  0  0  0  0  0  0
    9.1424  -13.4018   28.9243 O   0  0  0  0  0  0  0  0  0  0  0  0
    7.8990  -15.2136   28.3647 O   0  0  0  0  0  0  0  0  0  0  0  0
  2  1  1  6
  3  2  1  0
  3  4  1  0
  4  8  1  0
  5  4  2  0
  6  2  1  0
  7  6  2  0
 10  9  1  1
 10 12  1  0
 10 11  1  0
 11  6  1  0
 12 14  1  0
 13 12  2  0
 14 15  1  0
 14 18  1  0
 15 16  1  0
 16 17  1  0
 18 17  1  0
 18 19  1  1
 19 21  1  0
 20 19  2  0
M  END
$$$$
