DAP.pdb
     RDKit          3D

 21 21  0  0  1  0  0  0  0  0999 V2000
   11.4503  -16.4322   20.2286 N   0  0  0  0  0  0  0  0  0  0  0  0
   10.8576  -16.9227   21.4780 C   0  0  1  0  0  0  0  0  0  0  0  0
   12.0167  -17.3983   22.3100 C   0  0  0  0  0  0  0  0  0  0  0  0
   12.6775  -18.6122   21.8111 C   0  0  0  0  0  0  0  0  0  0  0  0
   12.4419  -19.1190   20.6943 O   0  0  0  0  0  0  0  0  0  0  0  0
   10.1228  -15.7758   22.1075 C   0  0  0  0  0  0  0  0  0  0  0  0
   10.6370  -14.6753   22.3229 O   0  0  0  0  0  0  0  0  0  0  0  0
   13.6290  -19.2213   22.6620 O   0  0  0  0  0  0  0  0  0  0  0  0
    6.5063  -15.2902   22.7946 C   0  0  0  0  0  0  0  0  0  0  0  0
    7.9446  -14.8967   23.0290 C   0  0  2  0  0  0  0  0  0  0  0  0
    8.7657  -15.9533   22.4786 N   0  0  0  0  0  0  0  0  0  0  0  0
    8.2358  -14.8402   24.5023 C   0  0  0  0  0  0  0  0  0  0  0  0
    8.9794  -15.7295   25.0437 O   0  0  0  0  0  0  0  0  0  0  0  0
    7.7167  -13.8309   25.3366 N   0  0  0  0  0  0  0  0  0  0  0  0
    6.9734  -12.6699   24.9103 C   0  0  0  0  0  0  0  0  0  0  0  0
    7.5278  -11.6344   25.9015 C   0  0  0  0  0  0  0  0  0  0  0  0
    7.3710  -12.4004   27.1958 C   0  0  0  0  0  0  0  0  0  0  0  0
    7.8453  -13.7901   26.7734 C   0  0  1  0  0  0  0  0  0  0  0  0
    6.9354  -14.7490   27.4475 C   0  0  0  0  0  0  0  0  0  0  0  0
    5.9571  -15.1708   26.7785 O   0  0  0  0  0  0  0  0  0  0  0  0
    7.0900  -15.2028   28.7425 O   0  0  0  0  0  0  0  0  0  0  0  0
  2  1  1  6
  3  2  1  0
  3  4  1  0
  4  8  1  0
  5  4  2  0
  6  2  1  0
  7  6  2  0
 10  9  1  1
 10 12  1  0
 10 11  1  0
 11  6  1  0
 12 14  1  0
 13 12  2  0
 14 15  1  0
 14 18  1  0
 15 16  1  0
 16 17  1  0
 18 17  1  0
 18 19  1  1
 19 21  1  0
 20 19  2  0
M  END
$$$$
