GPT.pdb
     RDKit          3D

 19 19  0  0  1  0  0  0  0  0999 V2000
   17.5745  -11.9315  -15.4654 N   0  0  0  0  0  0  0  0  0  0  0  0
   18.4853  -10.8099  -15.5980 C   0  0  0  0  0  0  0  0  0  0  0  0
   18.6856  -10.1008  -14.3191 C   0  0  0  0  0  0  0  0  0  0  0  0
   18.0650  -10.4888  -13.3083 O   0  0  0  0  0  0  0  0  0  0  0  0
   19.5592   -9.0112  -14.2509 N   0  0  0  0  0  0  0  0  0  0  0  0
   20.3738   -8.5120  -15.3627 C   0  0  0  0  0  0  0  0  0  0  0  0
   21.6597   -8.1184  -14.6181 C   0  0  0  0  0  0  0  0  0  0  0  0
   21.0943   -7.4104  -13.4132 C   0  0  0  0  0  0  0  0  0  0  0  0
   19.8298   -8.1875  -13.1161 C   0  0  1  0  0  0  0  0  0  0  0  0
   18.7532   -7.1927  -12.8570 C   0  0  0  0  0  0  0  0  0  0  0  0
   18.0207   -6.8006  -13.8029 O   0  0  0  0  0  0  0  0  0  0  0  0
   16.2648   -7.1962   -9.5500 C   0  0  0  0  0  0  0  0  0  0  0  0
   16.8900   -5.8528   -9.8718 C   0  0  1  0  0  0  0  0  0  0  0  0
   17.8803   -5.5070   -8.9745 O   0  0  0  0  0  0  0  0  0  0  0  0
   17.3505   -5.7852  -11.3090 C   0  0  2  0  0  0  0  0  0  0  0  0
   18.4765   -6.6303  -11.5775 N   0  0  0  0  0  0  0  0  0  0  0  0
   17.7434   -4.3770  -11.5687 C   0  0  0  0  0  0  0  0  0  0  0  0
   18.9434   -4.0631  -11.7824 O   0  0  0  0  0  0  0  0  0  0  0  0
   16.7794   -3.3523  -11.5827 O   0  0  0  0  0  0  0  0  0  0  0  0
  2  1  1  0
  3  2  1  0
  3  4  2  0
  5  3  1  0
  6  5  1  0
  7  8  1  0
  7  6  1  0
  8  9  1  0
  9 10  1  6
  9  5  1  0
 10 11  2  0
 13 12  1  1
 13 15  1  0
 13 14  1  0
 15 16  1  1
 16 10  1  0
 17 15  1  0
 17 19  1  0
 18 17  2  0
M  END
$$$$
