GPT.pdb
     RDKit          3D

 19 19  0  0  1  0  0  0  0  0999 V2000
   21.3050  -12.9622  -18.0630 N   0  0  0  0  0  0  0  0  0  0  0  0
   22.6167  -12.3804  -17.8480 C   0  0  0  0  0  0  0  0  0  0  0  0
   22.6184  -11.4043  -16.7411 C   0  0  0  0  0  0  0  0  0  0  0  0
   21.5422  -11.1362  -16.1689 O   0  0  0  0  0  0  0  0  0  0  0  0
   23.8127  -10.7934  -16.3468 N   0  0  0  0  0  0  0  0  0  0  0  0
   25.1232  -11.0282  -16.9604 C   0  0  0  0  0  0  0  0  0  0  0  0
   26.0303  -10.9782  -15.7204 C   0  0  0  0  0  0  0  0  0  0  0  0
   25.4782   -9.7726  -15.0031 C   0  0  0  0  0  0  0  0  0  0  0  0
   23.9945   -9.8452  -15.2945 C   0  0  1  0  0  0  0  0  0  0  0  0
   23.5532   -8.4746  -15.6720 C   0  0  0  0  0  0  0  0  0  0  0  0
   23.8202   -8.0227  -16.8163 O   0  0  0  0  0  0  0  0  0  0  0  0
   20.4840   -7.0565  -16.7506 C   0  0  0  0  0  0  0  0  0  0  0  0
   20.8309   -6.3310  -15.4651 C   0  0  1  0  0  0  0  0  0  0  0  0
   20.1084   -6.8006  -14.3867 O   0  0  0  0  0  0  0  0  0  0  0  0
   22.3208   -6.3256  -15.2160 C   0  0  2  0  0  0  0  0  0  0  0  0
   22.8262   -7.6039  -14.8099 N   0  0  0  0  0  0  0  0  0  0  0  0
   22.5707   -5.3498  -14.1249 C   0  0  0  0  0  0  0  0  0  0  0  0
   22.9329   -5.7289  -12.9807 O   0  0  0  0  0  0  0  0  0  0  0  0
   22.4080   -3.9695  -14.3434 O   0  0  0  0  0  0  0  0  0  0  0  0
  2  1  1  0
  3  2  1  0
  3  4  2  0
  5  3  1  0
  6  5  1  0
  7  8  1  0
  7  6  1  0
  8  9  1  0
  9 10  1  6
  9  5  1  0
 10 11  2  0
 13 12  1  6
 13 15  1  0
 13 14  1  0
 15 16  1  1
 16 10  1  0
 17 15  1  0
 17 19  1  0
 18 17  2  0
M  END
$$$$
