GPT.pdb
     RDKit          3D

 19 19  0  0  1  0  0  0  0  0999 V2000
   17.8471  -12.6926  -16.4666 N   0  0  0  0  0  0  0  0  0  0  0  0
   18.6149  -11.7767  -17.2893 C   0  0  0  0  0  0  0  0  0  0  0  0
   19.5365  -10.9476  -16.4884 C   0  0  0  0  0  0  0  0  0  0  0  0
   19.5424  -11.0757  -15.2471 O   0  0  0  0  0  0  0  0  0  0  0  0
   20.3865  -10.0344  -17.1199 N   0  0  0  0  0  0  0  0  0  0  0  0
   20.3925   -9.7413  -18.5563 C   0  0  0  0  0  0  0  0  0  0  0  0
   21.8988   -9.5580  -18.8022 C   0  0  0  0  0  0  0  0  0  0  0  0
   22.2863   -8.7069  -17.6197 C   0  0  0  0  0  0  0  0  0  0  0  0
   21.3946   -9.2258  -16.5121 C   0  0  1  0  0  0  0  0  0  0  0  0
   20.8343   -8.0404  -15.8072 C   0  0  0  0  0  0  0  0  0  0  0  0
   19.7324   -7.5551  -16.1748 O   0  0  0  0  0  0  0  0  0  0  0  0
   19.5474   -7.6537  -12.3207 C   0  0  0  0  0  0  0  0  0  0  0  0
   20.6663   -6.6482  -12.5110 C   0  0  1  0  0  0  0  0  0  0  0  0
   21.8312   -7.0342  -11.8791 O   0  0  0  0  0  0  0  0  0  0  0  0
   20.8722   -6.3170  -13.9705 C   0  0  2  0  0  0  0  0  0  0  0  0
   21.4692   -7.3897  -14.7102 N   0  0  0  0  0  0  0  0  0  0  0  0
   21.7814   -5.1441  -14.0211 C   0  0  0  0  0  0  0  0  0  0  0  0
   21.4302   -4.0259  -13.5625 O   0  0  0  0  0  0  0  0  0  0  0  0
   23.0653   -5.2534  -14.5860 O   0  0  0  0  0  0  0  0  0  0  0  0
  2  1  1  0
  3  2  1  0
  3  4  2  0
  5  3  1  0
  6  5  1  0
  7  8  1  0
  7  6  1  0
  8  9  1  0
  9 10  1  6
  9  5  1  0
 10 11  2  0
 13 12  1  6
 13 15  1  0
 13 14  1  0
 15 16  1  6
 16 10  1  0
 17 15  1  0
 17 19  1  0
 18 17  2  0
M  END
$$$$
