GPT.pdb
     RDKit          3D

 19 19  0  0  1  0  0  0  0  0999 V2000
   24.3528  -20.7174   -9.4843 N   0  0  0  0  0  0  0  0  0  0  0  0
   25.5289  -20.9279  -10.3075 C   0  0  0  0  0  0  0  0  0  0  0  0
   25.4869  -20.1355  -11.5519 C   0  0  0  0  0  0  0  0  0  0  0  0
   24.5396  -19.3438  -11.7336 O   0  0  0  0  0  0  0  0  0  0  0  0
   26.4977  -20.2770  -12.5076 N   0  0  0  0  0  0  0  0  0  0  0  0
   27.6342  -21.1970  -12.4039 C   0  0  0  0  0  0  0  0  0  0  0  0
   28.7490  -20.3426  -13.0286 C   0  0  0  0  0  0  0  0  0  0  0  0
   28.0429  -19.7785  -14.2353 C   0  0  0  0  0  0  0  0  0  0  0  0
   26.6263  -19.5727  -13.7433 C   0  0  1  0  0  0  0  0  0  0  0  0
   25.7145  -20.0916  -14.7994 C   0  0  0  0  0  0  0  0  0  0  0  0
   25.5315  -21.3317  -14.9159 O   0  0  0  0  0  0  0  0  0  0  0  0
   21.9774  -19.9751  -15.3312 C   0  0  0  0  0  0  0  0  0  0  0  0
   22.6695  -19.2549  -16.4720 C   0  0  1  0  0  0  0  0  0  0  0  0
   22.6175  -17.8824  -16.3339 O   0  0  0  0  0  0  0  0  0  0  0  0
   24.0735  -19.7709  -16.6832 C   0  0  2  0  0  0  0  0  0  0  0  0
   25.0074  -19.2659  -15.7203 N   0  0  0  0  0  0  0  0  0  0  0  0
   24.4977  -19.3224  -18.0338 C   0  0  0  0  0  0  0  0  0  0  0  0
   25.4139  -18.4721  -18.1812 O   0  0  0  0  0  0  0  0  0  0  0  0
   23.8831  -19.8392  -19.1891 O   0  0  0  0  0  0  0  0  0  0  0  0
  2  1  1  0
  3  2  1  0
  3  4  2  0
  5  3  1  0
  6  5  1  0
  7  8  1  0
  7  6  1  0
  8  9  1  0
  9 10  1  6
  9  5  1  0
 10 11  2  0
 13 12  1  1
 13 15  1  0
 13 14  1  0
 15 16  1  1
 16 10  1  0
 17 15  1  0
 17 19  1  0
 18 17  2  0
M  END
$$$$
