GPT.pdb
     RDKit          3D

 19 19  0  0  1  0  0  0  0  0999 V2000
   28.5570  -23.4723  -16.4062 N   0  0  0  0  0  0  0  0  0  0  0  0
   28.3879  -22.0312  -16.4148 C   0  0  0  0  0  0  0  0  0  0  0  0
   27.2882  -21.5942  -15.5329 C   0  0  0  0  0  0  0  0  0  0  0  0
   26.6331  -22.4548  -14.9104 O   0  0  0  0  0  0  0  0  0  0  0  0
   26.9915  -20.2339  -15.4036 N   0  0  0  0  0  0  0  0  0  0  0  0
   27.6789  -19.1495  -16.1110 C   0  0  0  0  0  0  0  0  0  0  0  0
   27.7052  -18.0692  -15.0177 C   0  0  0  0  0  0  0  0  0  0  0  0
   26.2994  -18.1623  -14.4813 C   0  0  0  0  0  0  0  0  0  0  0  0
   25.9886  -19.6406  -14.5779 C   0  0  1  0  0  0  0  0  0  0  0  0
   24.6213  -19.7656  -15.1531 C   0  0  0  0  0  0  0  0  0  0  0  0
   24.4343  -19.5477  -16.3789 O   0  0  0  0  0  0  0  0  0  0  0  0
   22.6437  -22.4922  -16.1271 C   0  0  0  0  0  0  0  0  0  0  0  0
   21.7896  -21.7771  -15.0984 C   0  0  1  0  0  0  0  0  0  0  0  0
   21.7758  -22.4307  -13.8826 O   0  0  0  0  0  0  0  0  0  0  0  0
   22.1706  -20.3202  -14.9772 C   0  0  2  0  0  0  0  0  0  0  0  0
   23.4675  -20.1259  -14.3989 N   0  0  0  0  0  0  0  0  0  0  0  0
   21.1594  -19.6833  -14.0959 C   0  0  0  0  0  0  0  0  0  0  0  0
   21.4745  -19.2225  -12.9678 O   0  0  0  0  0  0  0  0  0  0  0  0
   19.8162  -19.5781  -14.5013 O   0  0  0  0  0  0  0  0  0  0  0  0
  2  1  1  0
  3  2  1  0
  3  4  2  0
  5  3  1  0
  6  5  1  0
  7  8  1  0
  7  6  1  0
  8  9  1  0
  9 10  1  6
  9  5  1  0
 10 11  2  0
 13 12  1  6
 13 15  1  0
 13 14  1  0
 15 16  1  1
 16 10  1  0
 17 15  1  0
 17 19  1  0
 18 17  2  0
M  END
$$$$
