GPT.pdb
     RDKit          3D

 19 19  0  0  1  0  0  0  0  0999 V2000
   28.6505  -21.1884  -15.6621 N   0  0  0  0  0  0  0  0  0  0  0  0
   28.1364  -20.6818  -14.4034 C   0  0  0  0  0  0  0  0  0  0  0  0
   26.8048  -21.2320  -14.0838 C   0  0  0  0  0  0  0  0  0  0  0  0
   26.2017  -21.8988  -14.9493 O   0  0  0  0  0  0  0  0  0  0  0  0
   26.2350  -21.0038  -12.8275 N   0  0  0  0  0  0  0  0  0  0  0  0
   26.8301  -20.1847  -11.7673 C   0  0  0  0  0  0  0  0  0  0  0  0
   26.4325  -20.9968  -10.5242 C   0  0  0  0  0  0  0  0  0  0  0  0
   24.9920  -21.3169  -10.8330 C   0  0  0  0  0  0  0  0  0  0  0  0
   24.9938  -21.5095  -12.3344 C   0  0  1  0  0  0  0  0  0  0  0  0
   23.8174  -20.7735  -12.8732 C   0  0  0  0  0  0  0  0  0  0  0  0
   23.8414  -19.5166  -12.9414 O   0  0  0  0  0  0  0  0  0  0  0  0
   22.3412  -20.4782  -16.2557 C   0  0  0  0  0  0  0  0  0  0  0  0
   21.2651  -21.0407  -15.3476 C   0  0  1  0  0  0  0  0  0  0  0  0
   21.0688  -22.3931  -15.5425 O   0  0  0  0  0  0  0  0  0  0  0  0
   21.5194  -20.6870  -13.9011 C   0  0  2  0  0  0  0  0  0  0  0  0
   22.6250  -21.4020  -13.3348 N   0  0  0  0  0  0  0  0  0  0  0  0
   20.2900  -21.0440  -13.1487 C   0  0  0  0  0  0  0  0  0  0  0  0
   20.2848  -21.9892  -12.3177 O   0  0  0  0  0  0  0  0  0  0  0  0
   19.0933  -20.3310  -13.3465 O   0  0  0  0  0  0  0  0  0  0  0  0
  2  1  1  0
  3  2  1  0
  3  4  2  0
  5  3  1  0
  6  5  1  0
  7  8  1  0
  7  6  1  0
  8  9  1  0
  9 10  1  6
  9  5  1  0
 10 11  2  0
 13 12  1  6
 13 15  1  0
 13 14  1  0
 15 16  1  1
 16 10  1  0
 17 15  1  0
 17 19  1  0
 18 17  2  0
M  END
$$$$
