GPT.pdb
     RDKit          3D

 19 19  0  0  1  0  0  0  0  0999 V2000
   24.9861  -18.5674  -18.0745 N   0  0  0  0  0  0  0  0  0  0  0  0
   26.1562  -18.6474  -17.2202 C   0  0  0  0  0  0  0  0  0  0  0  0
   25.9523  -19.5631  -16.0808 C   0  0  0  0  0  0  0  0  0  0  0  0
   24.8375  -20.1032  -15.9303 O   0  0  0  0  0  0  0  0  0  0  0  0
   26.9985  -19.8150  -15.1880 N   0  0  0  0  0  0  0  0  0  0  0  0
   28.3272  -19.1987  -15.2496 C   0  0  0  0  0  0  0  0  0  0  0  0
   29.2094  -20.3828  -14.8221 C   0  0  0  0  0  0  0  0  0  0  0  0
   28.4257  -20.9238  -13.6534 C   0  0  0  0  0  0  0  0  0  0  0  0
   26.9870  -20.7004  -14.0676 C   0  0  1  0  0  0  0  0  0  0  0  0
   26.2743  -20.1310  -12.8912 C   0  0  0  0  0  0  0  0  0  0  0  0
   26.3568  -18.8993  -12.6438 O   0  0  0  0  0  0  0  0  0  0  0  0
   22.6646  -19.7384  -12.0989 C   0  0  0  0  0  0  0  0  0  0  0  0
   23.2751  -20.5407  -10.9663 C   0  0  1  0  0  0  0  0  0  0  0  0
   22.9212  -21.8739  -11.0181 O   0  0  0  0  0  0  0  0  0  0  0  0
   24.7690  -20.3328  -10.8817 C   0  0  2  0  0  0  0  0  0  0  0  0
   25.4776  -20.8973  -11.9923 N   0  0  0  0  0  0  0  0  0  0  0  0
   25.2266  -21.0035   -9.6384 C   0  0  0  0  0  0  0  0  0  0  0  0
   25.9765  -22.0135   -9.6798 O   0  0  0  0  0  0  0  0  0  0  0  0
   24.8316  -20.5246   -8.3758 O   0  0  0  0  0  0  0  0  0  0  0  0
  2  1  1  0
  3  2  1  0
  3  4  2  0
  5  3  1  0
  6  5  1  0
  7  8  1  0
  7  6  1  0
  8  9  1  0
  9 10  1  1
  9  5  1  0
 10 11  2  0
 13 12  1  6
 13 15  1  0
 13 14  1  0
 15 16  1  6
 16 10  1  0
 17 15  1  0
 17 19  1  0
 18 17  2  0
M  END
$$$$
