GPT.pdb
     RDKit          3D

 19 19  0  0  1  0  0  0  0  0999 V2000
   18.7156  -12.6022  -16.9967 N   0  0  0  0  0  0  0  0  0  0  0  0
   20.0645  -12.0704  -17.0526 C   0  0  0  0  0  0  0  0  0  0  0  0
   20.3617  -11.1847  -15.9100 C   0  0  0  0  0  0  0  0  0  0  0  0
   19.4211  -10.7820  -15.1956 O   0  0  0  0  0  0  0  0  0  0  0  0
   21.6808  -10.8073  -15.6401 N   0  0  0  0  0  0  0  0  0  0  0  0
   22.8650  -11.3258  -16.3313 C   0  0  0  0  0  0  0  0  0  0  0  0
   23.8635  -11.4023  -15.1651 C   0  0  0  0  0  0  0  0  0  0  0  0
   23.6185  -10.0800  -14.4836 C   0  0  0  0  0  0  0  0  0  0  0  0
   22.1304   -9.8683  -14.6625 C   0  0  1  0  0  0  0  0  0  0  0  0
   21.9356   -8.4555  -15.0890 C   0  0  0  0  0  0  0  0  0  0  0  0
   22.0067   -8.1531  -16.3090 O   0  0  0  0  0  0  0  0  0  0  0  0
   19.9068   -4.0892  -14.8426 C   0  0  0  0  0  0  0  0  0  0  0  0
   20.0482   -5.5547  -14.4800 C   0  0  1  0  0  0  0  0  0  0  0  0
   19.1542   -6.3529  -15.1650 O   0  0  0  0  0  0  0  0  0  0  0  0
   21.4776   -6.0242  -14.6156 C   0  0  2  0  0  0  0  0  0  0  0  0
   21.6647   -7.3811  -14.1933 N   0  0  0  0  0  0  0  0  0  0  0  0
   22.3034   -5.1422  -13.7525 C   0  0  0  0  0  0  0  0  0  0  0  0
   22.6293   -3.9847  -14.1244 O   0  0  0  0  0  0  0  0  0  0  0  0
   22.7451   -5.5799  -12.4904 O   0  0  0  0  0  0  0  0  0  0  0  0
  2  1  1  0
  3  2  1  0
  3  4  2  0
  5  3  1  0
  6  5  1  0
  7  8  1  0
  7  6  1  0
  8  9  1  0
  9 10  1  6
  9  5  1  0
 10 11  2  0
 13 12  1  6
 13 15  1  0
 13 14  1  0
 15 16  1  1
 16 10  1  0
 17 15  1  0
 17 19  1  0
 18 17  2  0
M  END
$$$$
