PST.pdb
     RDKit          3D

 21 21  0  0  1  0  0  0  0  0999 V2000
    8.9262  -14.8572   19.2746 N   0  0  0  0  0  0  0  0  0  0  0  0
    8.6922  -14.4473   17.9018 C   0  0  0  0  0  0  0  0  0  0  0  0
    7.4045  -13.6313   18.0782 C   0  0  0  0  0  0  0  0  0  0  0  0
    7.8215  -12.7451   19.2493 C   0  0  0  0  0  0  0  0  0  0  0  0
    8.7784  -13.6390   20.0084 C   0  0  1  0  0  0  0  0  0  0  0  0
    8.1969  -13.8496   21.3574 C   0  0  0  0  0  0  0  0  0  0  0  0
    7.9408  -12.8317   22.0458 O   0  0  0  0  0  0  0  0  0  0  0  0
    8.5394  -17.2664   23.8514 O   0  0  0  0  0  0  0  0  0  0  0  0
    7.2607  -16.8723   23.4604 C   0  0  0  0  0  0  0  0  0  0  0  0
    7.2764  -15.3987   23.1163 C   0  0  2  0  0  0  0  0  0  0  0  0
    7.9308  -15.1269   21.8740 N   0  0  0  0  0  0  0  0  0  0  0  0
    7.9957  -14.7009   24.2043 C   0  0  0  0  0  0  0  0  0  0  0  0
    9.2135  -14.4412   24.0779 O   0  0  0  0  0  0  0  0  0  0  0  0
    6.5184  -11.5940   26.1545 C   0  0  0  0  0  0  0  0  0  0  0  0
    6.8777  -12.7293   27.0559 C   0  0  1  0  0  0  0  0  0  0  0  0
    5.7504  -13.5102   27.2692 O   0  0  0  0  0  0  0  0  0  0  0  0
    7.9272  -13.6187   26.4075 C   0  0  2  0  0  0  0  0  0  0  0  0
    7.2493  -14.3542   25.3622 N   0  0  0  0  0  0  0  0  0  0  0  0
    8.4364  -14.6299   27.3843 C   0  0  0  0  0  0  0  0  0  0  0  0
    8.1984  -15.8606   27.3032 O   0  0  0  0  0  0  0  0  0  0  0  0
    9.2160  -14.1901   28.4415 O   0  0  0  0  0  0  0  0  0  0  0  0
  1  2  1  0
  3  2  1  0
  4  5  1  0
  4  3  1  0
  5  1  1  0
  6 11  1  0
  5  6  1  1
  7  6  2  0
 10  9  1  1
  9  8  1  0
 10 12  1  0
 10 11  1  0
 12 18  1  0
 13 12  2  0
 15 16  1  0
 15 14  1  6
 17 19  1  0
 17 15  1  0
 17 18  1  6
 19 21  1  0
 20 19  2  0
M  END
$$$$
