PST.pdb
     RDKit          3D

 21 21  0  0  1  0  0  0  0  0999 V2000
    7.1351  -14.7553   19.7488 N   0  0  0  0  0  0  0  0  0  0  0  0
    6.5463  -13.8324   18.7954 C   0  0  0  0  0  0  0  0  0  0  0  0
    7.2110  -12.5226   19.2401 C   0  0  0  0  0  0  0  0  0  0  0  0
    8.6653  -12.9826   19.3045 C   0  0  0  0  0  0  0  0  0  0  0  0
    8.5283  -14.4396   19.6908 C   0  0  1  0  0  0  0  0  0  0  0  0
    9.2087  -14.6068   20.9990 C   0  0  0  0  0  0  0  0  0  0  0  0
   10.4583  -14.4912   21.0238 O   0  0  0  0  0  0  0  0  0  0  0  0
    6.9426  -15.2021   24.4683 O   0  0  0  0  0  0  0  0  0  0  0  0
    8.1442  -14.5042   24.5783 C   0  0  0  0  0  0  0  0  0  0  0  0
    9.0891  -14.9633   23.4889 C   0  0  2  0  0  0  0  0  0  0  0  0
    8.5097  -14.8845   22.1837 N   0  0  0  0  0  0  0  0  0  0  0  0
    9.4417  -16.3706   23.7771 C   0  0  0  0  0  0  0  0  0  0  0  0
    8.6826  -17.2914   23.3999 O   0  0  0  0  0  0  0  0  0  0  0  0
   12.0347  -18.4104   22.6826 C   0  0  0  0  0  0  0  0  0  0  0  0
   12.2441  -18.3420   24.1598 C   0  0  1  0  0  0  0  0  0  0  0  0
   13.1686  -17.3451   24.4387 O   0  0  0  0  0  0  0  0  0  0  0  0
   10.9513  -17.9702   24.8691 C   0  0  2  0  0  0  0  0  0  0  0  0
   10.6512  -16.6085   24.4831 N   0  0  0  0  0  0  0  0  0  0  0  0
   11.1472  -17.9641   26.3515 C   0  0  0  0  0  0  0  0  0  0  0  0
   11.0953  -16.9270   27.0583 O   0  0  0  0  0  0  0  0  0  0  0  0
   11.4007  -19.1683   26.9873 O   0  0  0  0  0  0  0  0  0  0  0  0
  1  2  1  0
  3  2  1  0
  4  5  1  0
  4  3  1  0
  5  1  1  0
  6 11  1  0
  5  6  1  1
  7  6  2  0
 10  9  1  1
  9  8  1  0
 10 12  1  0
 10 11  1  0
 12 18  1  0
 13 12  2  0
 15 16  1  0
 15 14  1  6
 17 19  1  0
 17 15  1  0
 17 18  1  6
 19 21  1  0
 20 19  2  0
M  END
$$$$
