PST.pdb
     RDKit          3D

 21 21  0  0  1  0  0  0  0  0999 V2000
    7.8959  -14.9254   18.5472 N   0  0  0  0  0  0  0  0  0  0  0  0
    8.0093  -13.8679   17.5591 C   0  0  0  0  0  0  0  0  0  0  0  0
    7.5953  -12.6582   18.4080 C   0  0  0  0  0  0  0  0  0  0  0  0
    8.4863  -12.8840   19.6270 C   0  0  0  0  0  0  0  0  0  0  0  0
    8.5931  -14.3930   19.6763 C   0  0  1  0  0  0  0  0  0  0  0  0
    8.0065  -14.8268   20.9686 C   0  0  0  0  0  0  0  0  0  0  0  0
    6.7553  -14.8257   21.0691 O   0  0  0  0  0  0  0  0  0  0  0  0
   10.2985  -16.9099   23.7232 O   0  0  0  0  0  0  0  0  0  0  0  0
    8.9100  -17.0328   23.7154 C   0  0  0  0  0  0  0  0  0  0  0  0
    8.2946  -15.7115   23.3085 C   0  0  2  0  0  0  0  0  0  0  0  0
    8.7940  -15.2296   22.0579 N   0  0  0  0  0  0  0  0  0  0  0  0
    8.6177  -14.7312   24.3680 C   0  0  0  0  0  0  0  0  0  0  0  0
    9.6452  -14.0237   24.2680 O   0  0  0  0  0  0  0  0  0  0  0  0
    6.4301  -11.9553   25.7237 C   0  0  0  0  0  0  0  0  0  0  0  0
    6.7295  -12.9450   26.8015 C   0  0  1  0  0  0  0  0  0  0  0  0
    5.7158  -13.8922   26.8384 O   0  0  0  0  0  0  0  0  0  0  0  0
    8.0266  -13.6827   26.5084 C   0  0  2  0  0  0  0  0  0  0  0  0
    7.7242  -14.6424   25.4688 N   0  0  0  0  0  0  0  0  0  0  0  0
    8.4677  -14.4667   27.7029 C   0  0  0  0  0  0  0  0  0  0  0  0
    8.4844  -15.7220   27.7467 O   0  0  0  0  0  0  0  0  0  0  0  0
    8.8829  -13.7745   28.8285 O   0  0  0  0  0  0  0  0  0  0  0  0
  1  2  1  0
  3  2  1  0
  4  5  1  0
  4  3  1  0
  5  1  1  0
  6 11  1  0
  5  6  1  1
  7  6  2  0
 10  9  1  1
  9  8  1  0
 10 12  1  0
 10 11  1  0
 12 18  1  0
 13 12  2  0
 15 16  1  0
 15 14  1  6
 17 19  1  0
 17 15  1  0
 17 18  1  6
 19 21  1  0
 20 19  2  0
M  END
$$$$
