PST.pdb
     RDKit          3D

 21 21  0  0  1  0  0  0  0  0999 V2000
    9.0926  -14.7842   19.3615 N   0  0  0  0  0  0  0  0  0  0  0  0
    8.8683  -14.4533   17.9660 C   0  0  0  0  0  0  0  0  0  0  0  0
    7.4267  -13.9320   18.0392 C   0  0  0  0  0  0  0  0  0  0  0  0
    7.5649  -12.9608   19.2090 C   0  0  0  0  0  0  0  0  0  0  0  0
    8.6384  -13.6167   20.0507 C   0  0  1  0  0  0  0  0  0  0  0  0
    8.0269  -13.9293   21.3661 C   0  0  0  0  0  0  0  0  0  0  0  0
    7.4636  -12.9925   21.9831 O   0  0  0  0  0  0  0  0  0  0  0  0
    6.8202  -17.3938   24.5751 O   0  0  0  0  0  0  0  0  0  0  0  0
    7.5849  -17.0739   23.4544 C   0  0  0  0  0  0  0  0  0  0  0  0
    7.4515  -15.5945   23.1653 C   0  0  2  0  0  0  0  0  0  0  0  0
    8.0597  -15.2148   21.9278 N   0  0  0  0  0  0  0  0  0  0  0  0
    8.1131  -14.8689   24.2716 C   0  0  0  0  0  0  0  0  0  0  0  0
    9.3573  -14.7337   24.2701 O   0  0  0  0  0  0  0  0  0  0  0  0
    6.7187  -11.5184   26.0411 C   0  0  0  0  0  0  0  0  0  0  0  0
    6.8862  -12.6896   26.9527 C   0  0  1  0  0  0  0  0  0  0  0  0
    5.6817  -13.3743   27.0333 O   0  0  0  0  0  0  0  0  0  0  0  0
    7.9200  -13.6578   26.3990 C   0  0  2  0  0  0  0  0  0  0  0  0
    7.2823  -14.3519   25.3014 N   0  0  0  0  0  0  0  0  0  0  0  0
    8.2696  -14.6943   27.4187 C   0  0  0  0  0  0  0  0  0  0  0  0
    8.0009  -15.9150   27.2938 O   0  0  0  0  0  0  0  0  0  0  0  0
    8.9275  -14.2910   28.5689 O   0  0  0  0  0  0  0  0  0  0  0  0
  1  2  1  0
  3  2  1  0
  4  5  1  0
  4  3  1  0
  5  1  1  0
  6 11  1  0
  5  6  1  1
  7  6  2  0
 10  9  1  1
  9  8  1  0
 10 12  1  0
 10 11  1  0
 12 18  1  0
 13 12  2  0
 15 16  1  0
 15 14  1  6
 17 19  1  0
 17 15  1  0
 17 18  1  6
 19 21  1  0
 20 19  2  0
M  END
$$$$
