PST.pdb
     RDKit          3D

 21 21  0  0  1  0  0  0  0  0999 V2000
    9.0933  -14.8075   19.1898 N   0  0  0  0  0  0  0  0  0  0  0  0
    8.8782  -14.4444   17.8008 C   0  0  0  0  0  0  0  0  0  0  0  0
    7.5138  -13.7503   17.9102 C   0  0  0  0  0  0  0  0  0  0  0  0
    7.7983  -12.8094   19.0784 C   0  0  0  0  0  0  0  0  0  0  0  0
    8.8027  -13.5966   19.8923 C   0  0  1  0  0  0  0  0  0  0  0  0
    8.1889  -13.8385   21.2216 C   0  0  0  0  0  0  0  0  0  0  0  0
    7.8078  -12.8381   21.8770 O   0  0  0  0  0  0  0  0  0  0  0  0
    8.5443  -17.3955   23.6125 O   0  0  0  0  0  0  0  0  0  0  0  0
    7.2842  -16.9243   23.2479 C   0  0  0  0  0  0  0  0  0  0  0  0
    7.3651  -15.4362   22.9850 C   0  0  2  0  0  0  0  0  0  0  0  0
    8.0260  -15.1260   21.7551 N   0  0  0  0  0  0  0  0  0  0  0  0
    8.1196  -14.8323   24.1048 C   0  0  0  0  0  0  0  0  0  0  0  0
    9.3457  -14.6134   23.9818 O   0  0  0  0  0  0  0  0  0  0  0  0
    6.7405  -11.7299   25.9922 C   0  0  0  0  0  0  0  0  0  0  0  0
    7.0544  -12.8457   26.9341 C   0  0  1  0  0  0  0  0  0  0  0  0
    5.9010  -13.5838   27.1595 O   0  0  0  0  0  0  0  0  0  0  0  0
    8.0821  -13.7880   26.3270 C   0  0  2  0  0  0  0  0  0  0  0  0
    7.3962  -14.5254   25.2883 N   0  0  0  0  0  0  0  0  0  0  0  0
    8.5380  -14.7914   27.3377 C   0  0  0  0  0  0  0  0  0  0  0  0
    8.3016  -16.0224   27.2552 O   0  0  0  0  0  0  0  0  0  0  0  0
    9.2630  -14.3436   28.4297 O   0  0  0  0  0  0  0  0  0  0  0  0
  1  2  1  0
  3  2  1  0
  4  5  1  0
  4  3  1  0
  5  1  1  0
  6 11  1  0
  5  6  1  1
  7  6  2  0
 10  9  1  1
  9  8  1  0
 10 12  1  0
 10 11  1  0
 12 18  1  0
 13 12  2  0
 15 16  1  0
 15 14  1  6
 17 19  1  0
 17 15  1  0
 17 18  1  6
 19 21  1  0
 20 19  2  0
M  END
$$$$
