PST.pdb
     RDKit          3D

 21 21  0  0  1  0  0  0  0  0999 V2000
    7.8801  -14.8203   18.6553 N   0  0  0  0  0  0  0  0  0  0  0  0
    7.9954  -13.7480   17.6836 C   0  0  0  0  0  0  0  0  0  0  0  0
    7.5884  -12.5501   18.5522 C   0  0  0  0  0  0  0  0  0  0  0  0
    8.4814  -12.7985   19.7653 C   0  0  0  0  0  0  0  0  0  0  0  0
    8.5821  -14.3085   19.7908 C   0  0  1  0  0  0  0  0  0  0  0  0
    7.9970  -14.7601   21.0776 C   0  0  0  0  0  0  0  0  0  0  0  0
    6.7574  -14.6331   21.2293 O   0  0  0  0  0  0  0  0  0  0  0  0
   10.2309  -16.9920   23.8660 O   0  0  0  0  0  0  0  0  0  0  0  0
    8.8400  -17.0695   23.8170 C   0  0  0  0  0  0  0  0  0  0  0  0
    8.2809  -15.7319   23.3832 C   0  0  2  0  0  0  0  0  0  0  0  0
    8.7733  -15.3130   22.1074 N   0  0  0  0  0  0  0  0  0  0  0  0
    8.6772  -14.7378   24.4044 C   0  0  0  0  0  0  0  0  0  0  0  0
    9.7040  -14.0437   24.2308 O   0  0  0  0  0  0  0  0  0  0  0  0
    6.6287  -11.9378   25.7470 C   0  0  0  0  0  0  0  0  0  0  0  0
    6.9726  -12.8523   26.8765 C   0  0  1  0  0  0  0  0  0  0  0  0
    5.9396  -13.7627   27.0504 O   0  0  0  0  0  0  0  0  0  0  0  0
    8.2284  -13.6492   26.5593 C   0  0  2  0  0  0  0  0  0  0  0  0
    7.8524  -14.6205   25.5551 N   0  0  0  0  0  0  0  0  0  0  0  0
    8.6783  -14.4218   27.7580 C   0  0  0  0  0  0  0  0  0  0  0  0
    8.6248  -15.6740   27.8420 O   0  0  0  0  0  0  0  0  0  0  0  0
    9.1842  -13.7217   28.8409 O   0  0  0  0  0  0  0  0  0  0  0  0
  1  2  1  0
  3  2  1  0
  4  5  1  0
  4  3  1  0
  5  1  1  0
  6 11  1  0
  5  6  1  1
  7  6  2  0
 10  9  1  1
  9  8  1  0
 10 12  1  0
 10 11  1  0
 12 18  1  0
 13 12  2  0
 15 16  1  0
 15 14  1  6
 17 19  1  0
 17 15  1  0
 17 18  1  6
 19 21  1  0
 20 19  2  0
M  END
$$$$
