PST.pdb
     RDKit          3D

 21 21  0  0  1  0  0  0  0  0999 V2000
    8.6268  -15.0468   19.0838 N   0  0  0  0  0  0  0  0  0  0  0  0
    8.3962  -14.5847   17.7271 C   0  0  0  0  0  0  0  0  0  0  0  0
    7.2382  -13.6065   17.9670 C   0  0  0  0  0  0  0  0  0  0  0  0
    7.8168  -12.8055   19.1308 C   0  0  0  0  0  0  0  0  0  0  0  0
    8.6737  -13.8332   19.8383 C   0  0  1  0  0  0  0  0  0  0  0  0
    8.1228  -13.9880   21.2075 C   0  0  0  0  0  0  0  0  0  0  0  0
    8.0710  -12.9648   21.9328 O   0  0  0  0  0  0  0  0  0  0  0  0
    7.7788  -17.6294   23.5033 O   0  0  0  0  0  0  0  0  0  0  0  0
    6.6515  -16.8625   23.2133 C   0  0  0  0  0  0  0  0  0  0  0  0
    7.0704  -15.4261   22.9866 C   0  0  2  0  0  0  0  0  0  0  0  0
    7.6678  -15.2192   21.7037 N   0  0  0  0  0  0  0  0  0  0  0  0
    8.0526  -15.0834   24.0381 C   0  0  0  0  0  0  0  0  0  0  0  0
    9.2764  -15.1057   23.7768 O   0  0  0  0  0  0  0  0  0  0  0  0
    7.7359  -11.9253   26.2405 C   0  0  0  0  0  0  0  0  0  0  0  0
    7.7985  -13.1609   27.0771 C   0  0  1  0  0  0  0  0  0  0  0  0
    6.5061  -13.5809   27.3589 O   0  0  0  0  0  0  0  0  0  0  0  0
    8.4847  -14.2877   26.3207 C   0  0  2  0  0  0  0  0  0  0  0  0
    7.5436  -14.7390   25.3189 N   0  0  0  0  0  0  0  0  0  0  0  0
    8.7403  -15.4501   27.2259 C   0  0  0  0  0  0  0  0  0  0  0  0
    8.2153  -16.5813   27.0748 O   0  0  0  0  0  0  0  0  0  0  0  0
    9.6046  -15.2756   28.2941 O   0  0  0  0  0  0  0  0  0  0  0  0
  1  2  1  0
  3  2  1  0
  4  5  1  0
  4  3  1  0
  5  1  1  0
  6 11  1  0
  5  6  1  1
  7  6  2  0
 10  9  1  1
  9  8  1  0
 10 12  1  0
 10 11  1  0
 12 18  1  0
 13 12  2  0
 15 16  1  0
 15 14  1  6
 17 19  1  0
 17 15  1  0
 17 18  1  6
 19 21  1  0
 20 19  2  0
M  END
$$$$
