PST.pdb
     RDKit          3D

 21 21  0  0  1  0  0  0  0  0999 V2000
    7.1760  -14.9186   20.1420 N   0  0  0  0  0  0  0  0  0  0  0  0
    6.7264  -14.0419   19.0759 C   0  0  0  0  0  0  0  0  0  0  0  0
    7.4906  -12.7611   19.4375 C   0  0  0  0  0  0  0  0  0  0  0  0
    8.8891  -13.3428   19.6283 C   0  0  0  0  0  0  0  0  0  0  0  0
    8.5943  -14.7375   20.1369 C   0  0  1  0  0  0  0  0  0  0  0  0
    9.1898  -14.8393   21.4924 C   0  0  0  0  0  0  0  0  0  0  0  0
   10.4411  -14.7967   21.5827 O   0  0  0  0  0  0  0  0  0  0  0  0
    6.6959  -14.9488   24.8377 O   0  0  0  0  0  0  0  0  0  0  0  0
    7.9487  -14.3536   24.9766 C   0  0  0  0  0  0  0  0  0  0  0  0
    8.9107  -14.9807   23.9910 C   0  0  2  0  0  0  0  0  0  0  0  0
    8.4106  -14.9787   22.6510 N   0  0  0  0  0  0  0  0  0  0  0  0
    9.1328  -16.3782   24.4219 C   0  0  0  0  0  0  0  0  0  0  0  0
    8.2505  -17.2408   24.2131 O   0  0  0  0  0  0  0  0  0  0  0  0
   11.6960  -18.5319   23.3052 C   0  0  0  0  0  0  0  0  0  0  0  0
   11.8832  -18.4808   24.7861 C   0  0  1  0  0  0  0  0  0  0  0  0
   12.8556  -17.5369   25.0856 O   0  0  0  0  0  0  0  0  0  0  0  0
   10.6004  -18.0418   25.4748 C   0  0  2  0  0  0  0  0  0  0  0  0
   10.3644  -16.6745   25.0649 N   0  0  0  0  0  0  0  0  0  0  0  0
   10.7805  -18.0211   26.9592 C   0  0  0  0  0  0  0  0  0  0  0  0
   10.8584  -16.9672   27.6383 O   0  0  0  0  0  0  0  0  0  0  0  0
   10.8670  -19.2303   27.6291 O   0  0  0  0  0  0  0  0  0  0  0  0
  1  2  1  0
  3  2  1  0
  4  5  1  0
  4  3  1  0
  5  1  1  0
  6 11  1  0
  5  6  1  1
  7  6  2  0
 10  9  1  1
  9  8  1  0
 10 12  1  0
 10 11  1  0
 12 18  1  0
 13 12  2  0
 15 16  1  0
 15 14  1  6
 17 19  1  0
 17 15  1  0
 17 18  1  6
 19 21  1  0
 20 19  2  0
M  END
$$$$
