PST.pdb
     RDKit          3D

 21 21  0  0  1  0  0  0  0  0999 V2000
    8.3924  -15.0695   19.4521 N   0  0  0  0  0  0  0  0  0  0  0  0
    7.9546  -14.3472   18.2714 C   0  0  0  0  0  0  0  0  0  0  0  0
    6.9657  -13.3612   18.9079 C   0  0  0  0  0  0  0  0  0  0  0  0
    7.8313  -12.8308   20.0481 C   0  0  0  0  0  0  0  0  0  0  0  0
    8.7015  -14.0246   20.3778 C   0  0  1  0  0  0  0  0  0  0  0  0
    8.4086  -14.3993   21.7835 C   0  0  0  0  0  0  0  0  0  0  0  0
    8.5802  -13.5239   22.6666 O   0  0  0  0  0  0  0  0  0  0  0  0
    6.1028  -17.5620   24.6506 O   0  0  0  0  0  0  0  0  0  0  0  0
    6.7660  -17.3890   23.4368 C   0  0  0  0  0  0  0  0  0  0  0  0
    7.4659  -16.0473   23.4376 C   0  0  2  0  0  0  0  0  0  0  0  0
    7.9550  -15.6768   22.1457 N   0  0  0  0  0  0  0  0  0  0  0  0
    8.6053  -16.1465   24.3756 C   0  0  0  0  0  0  0  0  0  0  0  0
    9.6987  -16.6086   23.9789 O   0  0  0  0  0  0  0  0  0  0  0  0
    9.6423  -13.3297   26.7839 C   0  0  0  0  0  0  0  0  0  0  0  0
    9.4015  -14.5888   27.5501 C   0  0  1  0  0  0  0  0  0  0  0  0
    8.1131  -14.5639   28.0655 O   0  0  0  0  0  0  0  0  0  0  0  0
    9.4991  -15.8006   26.6365 C   0  0  2  0  0  0  0  0  0  0  0  0
    8.3939  -15.7018   25.7081 N   0  0  0  0  0  0  0  0  0  0  0  0
    9.2975  -17.0627   27.4128 C   0  0  0  0  0  0  0  0  0  0  0  0
    8.3111  -17.8256   27.2611 O   0  0  0  0  0  0  0  0  0  0  0  0
   10.2497  -17.4159   28.3546 O   0  0  0  0  0  0  0  0  0  0  0  0
  1  2  1  0
  3  2  1  0
  4  5  1  0
  4  3  1  0
  5  1  1  0
  6 11  1  0
  5  6  1  1
  7  6  2  0
 10  9  1  6
  9  8  1  0
 10 12  1  0
 10 11  1  0
 12 18  1  0
 13 12  2  0
 15 16  1  0
 15 14  1  6
 17 19  1  0
 17 15  1  0
 17 18  1  6
 19 21  1  0
 20 19  2  0
M  END
$$$$
