QTC.pdb
     RDKit          3D

 23 22  0  0  1  0  0  0  0  0999 V2000
   23.3692  -20.4207  -11.5499 N   0  0  0  0  0  0  0  0  0  0  0  0
   22.9963  -20.8443  -10.2289 C   0  0  0  0  0  0  0  0  0  0  0  0
   21.8371  -21.1861   -9.9391 O   0  0  0  0  0  0  0  0  0  0  0  0
   24.0879  -20.8496   -9.2221 C   0  0  0  0  0  0  0  0  0  0  0  0
   25.2893  -20.1751   -9.8340 C   0  0  0  0  0  0  0  0  0  0  0  0
   25.8409  -21.0378  -10.9767 C   0  0  2  0  0  0  0  0  0  0  0  0
   27.0399  -21.7212  -10.5369 N   0  0  0  0  0  0  0  0  0  0  0  0
   26.1518  -20.2344  -12.1589 C   0  0  0  0  0  0  0  0  0  0  0  0
   26.8526  -19.1762  -12.0326 O   0  0  0  0  0  0  0  0  0  0  0  0
   28.2490  -20.5525  -14.8554 C   0  0  0  0  0  0  0  0  0  0  0  0
   26.9197  -20.3389  -15.5002 C   0  0  1  0  0  0  0  0  0  0  0  0
   26.2962  -21.5907  -15.7401 O   0  0  0  0  0  0  0  0  0  0  0  0
   25.9199  -19.5960  -14.6080 C   0  0  2  0  0  0  0  0  0  0  0  0
   25.7414  -20.5198  -13.4730 N   0  0  0  0  0  0  0  0  0  0  0  0
   24.6401  -19.3232  -15.2643 C   0  0  0  0  0  0  0  0  0  0  0  0
   23.6219  -20.0058  -14.8946 O   0  0  0  0  0  0  0  0  0  0  0  0
   24.3839  -18.3792  -16.2757 N   0  0  0  0  0  0  0  0  0  0  0  0
   23.0674  -18.1634  -16.8523 C   0  0  1  0  0  0  0  0  0  0  0  0
   22.8988  -16.6418  -16.9472 C   0  0  0  0  0  0  0  0  0  0  0  0
   21.3346  -16.2541  -17.7604 S   0  0  0  0  0  0  0  0  0  0  0  0
   23.0023  -18.7818  -18.1855 C   0  0  0  0  0  0  0  0  0  0  0  0
   24.0148  -18.8194  -18.9079 O   0  0  0  0  0  0  0  0  0  0  0  0
   21.8198  -19.3207  -18.6370 O   0  0  0  0  0  0  0  0  0  0  0  0
  2  1  1  0
  2  4  1  0
  3  2  2  0
  5  4  1  0
  6  7  1  1
  6  5  1  0
  8  6  1  0
  9  8  2  0
 11 10  1  1
 11 13  1  0
 12 11  1  0
 13 14  1  1
 13 15  1  0
 14  8  1  0
 15 17  1  0
 16 15  2  0
 17 18  1  0
 18 19  1  6
 18 21  1  0
 20 19  1  0
 21 22  2  0
 21 23  1  0
M  END
$$$$
