QTC.pdb
     RDKit          3D

 23 22  0  0  1  0  0  0  0  0999 V2000
   24.8489  -20.4317   -8.2787 N   0  0  0  0  0  0  0  0  0  0  0  0
   26.2635  -20.3437   -8.5123 C   0  0  0  0  0  0  0  0  0  0  0  0
   27.0646  -19.9815   -7.6339 O   0  0  0  0  0  0  0  0  0  0  0  0
   26.7152  -20.7144   -9.8776 C   0  0  0  0  0  0  0  0  0  0  0  0
   25.4916  -20.9884  -10.7146 C   0  0  0  0  0  0  0  0  0  0  0  0
   25.9153  -21.4761  -12.1062 C   0  0  2  0  0  0  0  0  0  0  0  0
   27.3409  -21.7321  -12.1203 N   0  0  0  0  0  0  0  0  0  0  0  0
   25.5926  -20.4966  -13.1437 C   0  0  0  0  0  0  0  0  0  0  0  0
   26.4502  -19.6050  -13.4541 O   0  0  0  0  0  0  0  0  0  0  0  0
   26.4712  -19.8887  -15.8125 C   0  0  0  0  0  0  0  0  0  0  0  0
   25.0087  -20.0029  -16.0894 C   0  0  1  0  0  0  0  0  0  0  0  0
   24.6456  -21.3706  -16.1930 O   0  0  0  0  0  0  0  0  0  0  0  0
   24.1282  -19.4747  -14.9521 C   0  0  2  0  0  0  0  0  0  0  0  0
   24.3862  -20.4341  -13.8629 N   0  0  0  0  0  0  0  0  0  0  0  0
   22.7033  -19.4350  -15.2853 C   0  0  0  0  0  0  0  0  0  0  0  0
   21.9977  -20.4686  -15.0148 O   0  0  0  0  0  0  0  0  0  0  0  0
   21.9952  -18.3745  -15.8800 N   0  0  0  0  0  0  0  0  0  0  0  0
   20.5677  -18.4186  -16.1493 C   0  0  1  0  0  0  0  0  0  0  0  0
   20.1677  -16.9827  -16.5109 C   0  0  0  0  0  0  0  0  0  0  0  0
   20.3742  -15.9142  -15.0707 S   0  0  0  0  0  0  0  0  0  0  0  0
   20.3024  -19.3341  -17.2697 C   0  0  0  0  0  0  0  0  0  0  0  0
   21.2327  -19.7059  -18.0079 O   0  0  0  0  0  0  0  0  0  0  0  0
   19.0228  -19.7820  -17.5042 O   0  0  0  0  0  0  0  0  0  0  0  0
  2  1  1  0
  2  4  1  0
  3  2  2  0
  5  4  1  0
  6  7  1  1
  6  5  1  0
  8  6  1  0
  9  8  2  0
 11 10  1  1
 11 13  1  0
 12 11  1  0
 13 14  1  1
 13 15  1  0
 14  8  1  0
 15 17  1  0
 16 15  2  0
 17 18  1  0
 18 19  1  6
 18 21  1  0
 20 19  1  0
 21 22  2  0
 21 23  1  0
M  END
$$$$
