QTC.pdb
     RDKit          3D

 23 22  0  0  1  0  0  0  0  0999 V2000
   16.1969  -21.9352  -17.1769 N   0  0  0  0  0  0  0  0  0  0  0  0
   15.8214  -21.1794  -16.0144 C   0  0  0  0  0  0  0  0  0  0  0  0
   14.6775  -20.7198  -15.8570 O   0  0  0  0  0  0  0  0  0  0  0  0
   16.8907  -20.9785  -15.0037 C   0  0  0  0  0  0  0  0  0  0  0  0
   18.1512  -21.6202  -15.5254 C   0  0  0  0  0  0  0  0  0  0  0  0
   19.2747  -21.4694  -14.4914 C   0  0  2  0  0  0  0  0  0  0  0  0
   18.8147  -21.9363  -13.1997 N   0  0  0  0  0  0  0  0  0  0  0  0
   19.7157  -20.0798  -14.3711 C   0  0  0  0  0  0  0  0  0  0  0  0
   19.4281  -19.4185  -13.3190 O   0  0  0  0  0  0  0  0  0  0  0  0
   23.3185  -18.9912  -15.0462 C   0  0  0  0  0  0  0  0  0  0  0  0
   22.3756  -18.0849  -15.7661 C   0  0  1  0  0  0  0  0  0  0  0  0
   22.1209  -18.5927  -17.0663 O   0  0  0  0  0  0  0  0  0  0  0  0
   20.9871  -18.0115  -15.1225 C   0  0  2  0  0  0  0  0  0  0  0  0
   20.4535  -19.3694  -15.3342 N   0  0  0  0  0  0  0  0  0  0  0  0
   20.1127  -17.0071  -15.7305 C   0  0  0  0  0  0  0  0  0  0  0  0
   18.9888  -17.4003  -16.2014 O   0  0  0  0  0  0  0  0  0  0  0  0
   20.3602  -15.6284  -15.8636 N   0  0  0  0  0  0  0  0  0  0  0  0
   19.4324  -14.7079  -16.4993 C   0  0  1  0  0  0  0  0  0  0  0  0
   18.2761  -14.5309  -15.5072 C   0  0  0  0  0  0  0  0  0  0  0  0
   17.2281  -13.1592  -16.0351 S   0  0  0  0  0  0  0  0  0  0  0  0
   20.1041  -13.4244  -16.7552 C   0  0  0  0  0  0  0  0  0  0  0  0
   21.0502  -13.0586  -16.0343 O   0  0  0  0  0  0  0  0  0  0  0  0
   19.6870  -12.6245  -17.7938 O   0  0  0  0  0  0  0  0  0  0  0  0
  2  1  1  0
  2  4  1  0
  3  2  2  0
  5  4  1  0
  6  7  1  1
  6  5  1  0
  8  6  1  0
  9  8  2  0
 11 10  1  1
 11 13  1  0
 12 11  1  0
 13 14  1  6
 13 15  1  0
 14  8  1  0
 15 17  1  0
 16 15  2  0
 17 18  1  0
 18 19  1  1
 18 21  1  0
 20 19  1  0
 21 22  2  0
 21 23  1  0
M  END
$$$$
