QTC.pdb
     RDKit          3D

 23 22  0  0  1  0  0  0  0  0999 V2000
   32.4555  -35.0531  -15.7331 N   0  0  0  0  0  0  0  0  0  0  0  0
   33.5175  -34.6669  -16.6199 C   0  0  0  0  0  0  0  0  0  0  0  0
   34.2074  -35.4960  -17.2372 O   0  0  0  0  0  0  0  0  0  0  0  0
   33.7436  -33.2054  -16.7559 C   0  0  0  0  0  0  0  0  0  0  0  0
   32.6727  -32.4932  -15.9693 C   0  0  0  0  0  0  0  0  0  0  0  0
   31.5384  -32.0651  -16.9095 C   0  0  2  0  0  0  0  0  0  0  0  0
   31.9540  -30.9124  -17.6820 N   0  0  0  0  0  0  0  0  0  0  0  0
   30.3197  -31.7346  -16.1710 C   0  0  0  0  0  0  0  0  0  0  0  0
   30.1380  -30.5405  -15.7612 O   0  0  0  0  0  0  0  0  0  0  0  0
   27.1995  -31.0087  -17.2210 C   0  0  0  0  0  0  0  0  0  0  0  0
   27.0257  -32.1916  -16.3270 C   0  0  1  0  0  0  0  0  0  0  0  0
   27.2784  -33.3835  -17.0542 O   0  0  0  0  0  0  0  0  0  0  0  0
   28.0365  -32.2422  -15.1768 C   0  0  2  0  0  0  0  0  0  0  0  0
   29.2865  -32.6336  -15.8535 N   0  0  0  0  0  0  0  0  0  0  0  0
   27.6859  -33.2054  -14.1315 C   0  0  0  0  0  0  0  0  0  0  0  0
   28.1258  -34.4020  -14.2503 O   0  0  0  0  0  0  0  0  0  0  0  0
   26.9068  -32.9726  -12.9832 N   0  0  0  0  0  0  0  0  0  0  0  0
   26.5365  -34.0178  -12.0438 C   0  0  1  0  0  0  0  0  0  0  0  0
   25.8100  -33.3069  -10.8951 C   0  0  0  0  0  0  0  0  0  0  0  0
   25.4240  -34.4959   -9.5929 S   0  0  0  0  0  0  0  0  0  0  0  0
   25.6489  -34.9871  -12.7046 C   0  0  0  0  0  0  0  0  0  0  0  0
   25.8412  -36.2085  -12.5643 O   0  0  0  0  0  0  0  0  0  0  0  0
   24.6026  -34.5444  -13.4806 O   0  0  0  0  0  0  0  0  0  0  0  0
  2  1  1  0
  2  4  1  0
  3  2  2  0
  5  4  1  0
  6  7  1  1
  6  5  1  0
  8  6  1  0
  9  8  2  0
 11 10  1  6
 11 13  1  0
 12 11  1  0
 13 14  1  6
 13 15  1  0
 14  8  1  0
 15 17  1  0
 16 15  2  0
 17 18  1  0
 18 19  1  1
 18 21  1  0
 20 19  1  0
 21 22  2  0
 21 23  1  0
M  END
$$$$
