QTC.pdb
     RDKit          3D

 23 22  0  0  1  0  0  0  0  0999 V2000
   17.4693  -13.8762  -13.9409 N   0  0  0  0  0  0  0  0  0  0  0  0
   16.1525  -14.0263  -14.4950 C   0  0  0  0  0  0  0  0  0  0  0  0
   15.3254  -14.8360  -14.0423 O   0  0  0  0  0  0  0  0  0  0  0  0
   15.8361  -13.1489  -15.6505 C   0  0  0  0  0  0  0  0  0  0  0  0
   17.0153  -12.2381  -15.8805 C   0  0  0  0  0  0  0  0  0  0  0  0
   16.7886  -11.4090  -17.1514 C   0  0  2  0  0  0  0  0  0  0  0  0
   16.7386  -12.2859  -18.3034 N   0  0  0  0  0  0  0  0  0  0  0  0
   17.8474  -10.4188  -17.3468 C   0  0  0  0  0  0  0  0  0  0  0  0
   18.9019  -10.7447  -17.9860 O   0  0  0  0  0  0  0  0  0  0  0  0
   18.0643   -7.8719  -19.5664 C   0  0  0  0  0  0  0  0  0  0  0  0
   18.2114   -7.2080  -18.2374 C   0  0  1  0  0  0  0  0  0  0  0  0
   16.9298   -6.9287  -17.6963 O   0  0  0  0  0  0  0  0  0  0  0  0
   18.8705   -8.0984  -17.1790 C   0  0  2  0  0  0  0  0  0  0  0  0
   17.8215   -9.0914  -16.8842 N   0  0  0  0  0  0  0  0  0  0  0  0
   19.2601   -7.3760  -15.9668 C   0  0  0  0  0  0  0  0  0  0  0  0
   18.4198   -7.3320  -15.0018 O   0  0  0  0  0  0  0  0  0  0  0  0
   20.4747   -6.7084  -15.7245 N   0  0  0  0  0  0  0  0  0  0  0  0
   20.7667   -6.0052  -14.4866 C   0  0  1  0  0  0  0  0  0  0  0  0
   22.2531   -6.2580  -14.2048 C   0  0  0  0  0  0  0  0  0  0  0  0
   22.7615   -5.3244  -12.7459 S   0  0  0  0  0  0  0  0  0  0  0  0
   20.5032   -4.5682  -14.6584 C   0  0  0  0  0  0  0  0  0  0  0  0
   20.6895   -4.0254  -15.7626 O   0  0  0  0  0  0  0  0  0  0  0  0
   20.0494   -3.8200  -13.5967 O   0  0  0  0  0  0  0  0  0  0  0  0
  2  1  1  0
  2  4  1  0
  3  2  2  0
  5  4  1  0
  6  7  1  6
  6  5  1  0
  8  6  1  0
  9  8  2  0
 11 10  1  6
 11 13  1  0
 12 11  1  0
 13 14  1  1
 13 15  1  0
 14  8  1  0
 15 17  1  0
 16 15  2  0
 17 18  1  0
 18 19  1  6
 18 21  1  0
 20 19  1  0
 21 22  2  0
 21 23  1  0
M  END
$$$$
