QTC.pdb
     RDKit          3D

 23 22  0  0  1  0  0  0  0  0999 V2000
   17.9026   -8.3732  -15.8969 N   0  0  0  0  0  0  0  0  0  0  0  0
   18.4886   -9.6204  -15.4910 C   0  0  0  0  0  0  0  0  0  0  0  0
   19.2506  -10.2712  -16.2260 O   0  0  0  0  0  0  0  0  0  0  0  0
   18.1262  -10.0893  -14.1293 C   0  0  0  0  0  0  0  0  0  0  0  0
   17.2835   -9.0223  -13.4782 C   0  0  0  0  0  0  0  0  0  0  0  0
   16.8208   -9.5004  -12.0956 C   0  0  2  0  0  0  0  0  0  0  0  0
   16.1145  -10.7584  -12.2256 N   0  0  0  0  0  0  0  0  0  0  0  0
   15.9452   -8.5222  -11.4504 C   0  0  0  0  0  0  0  0  0  0  0  0
   14.6886   -8.5662  -11.6650 O   0  0  0  0  0  0  0  0  0  0  0  0
   14.8222   -8.1409   -8.1916 C   0  0  0  0  0  0  0  0  0  0  0  0
   15.4716   -6.8349   -8.5101 C   0  0  1  0  0  0  0  0  0  0  0  0
   16.8530   -6.8959   -8.1918 O   0  0  0  0  0  0  0  0  0  0  0  0
   15.4539   -6.4916  -10.0032 C   0  0  2  0  0  0  0  0  0  0  0  0
   16.3625   -7.4972  -10.5833 N   0  0  0  0  0  0  0  0  0  0  0  0
   15.9207   -5.1357  -10.2974 C   0  0  0  0  0  0  0  0  0  0  0  0
   17.0578   -5.0071  -10.8719 O   0  0  0  0  0  0  0  0  0  0  0  0
   15.2573   -3.9260  -10.0212 N   0  0  0  0  0  0  0  0  0  0  0  0
   15.8178   -2.6200  -10.3252 C   0  0  1  0  0  0  0  0  0  0  0  0
   15.8935   -2.5452  -11.8553 C   0  0  0  0  0  0  0  0  0  0  0  0
   16.3653   -0.8772  -12.3589 S   0  0  0  0  0  0  0  0  0  0  0  0
   14.9396   -1.5670   -9.7921 C   0  0  0  0  0  0  0  0  0  0  0  0
   15.4013   -0.4426   -9.5257 O   0  0  0  0  0  0  0  0  0  0  0  0
   13.6036   -1.8238   -9.5868 O   0  0  0  0  0  0  0  0  0  0  0  0
  2  1  1  0
  2  4  1  0
  3  2  2  0
  5  4  1  0
  6  7  1  6
  6  5  1  0
  8  6  1  0
  9  8  2  0
 11 10  1  6
 11 13  1  0
 12 11  1  0
 13 14  1  6
 13 15  1  0
 14  8  1  0
 15 17  1  0
 16 15  2  0
 17 18  1  0
 18 19  1  6
 18 21  1  0
 20 19  1  0
 21 22  2  0
 21 23  1  0
M  END
$$$$
