QTC.pdb
     RDKit          3D

 23 22  0  0  1  0  0  0  0  0999 V2000
   12.0528   -9.2565   -7.4800 N   0  0  0  0  0  0  0  0  0  0  0  0
   11.9432   -7.9632   -8.0956 C   0  0  0  0  0  0  0  0  0  0  0  0
   10.9304   -7.2522   -7.9808 O   0  0  0  0  0  0  0  0  0  0  0  0
   13.1223   -7.5230   -8.8838 C   0  0  0  0  0  0  0  0  0  0  0  0
   14.2006   -8.5655   -8.7306 C   0  0  0  0  0  0  0  0  0  0  0  0
   14.4722   -9.2320  -10.0856 C   0  0  2  0  0  0  0  0  0  0  0  0
   14.0343  -10.6122  -10.0468 N   0  0  0  0  0  0  0  0  0  0  0  0
   15.8920   -9.1880  -10.4348 C   0  0  0  0  0  0  0  0  0  0  0  0
   16.7367   -9.8108   -9.7099 O   0  0  0  0  0  0  0  0  0  0  0  0
   17.3289  -10.7355  -13.2374 C   0  0  0  0  0  0  0  0  0  0  0  0
   17.7467   -9.3045  -13.3171 C   0  0  1  0  0  0  0  0  0  0  0  0
   16.7540   -8.5522  -13.9967 O   0  0  0  0  0  0  0  0  0  0  0  0
   17.8525   -8.6216  -11.9496 C   0  0  2  0  0  0  0  0  0  0  0  0
   16.4440   -8.5023  -11.5310 N   0  0  0  0  0  0  0  0  0  0  0  0
   18.4945   -7.3069  -12.0002 C   0  0  0  0  0  0  0  0  0  0  0  0
   17.7771   -6.3050  -12.3483 O   0  0  0  0  0  0  0  0  0  0  0  0
   19.8356   -7.0002  -11.7051 N   0  0  0  0  0  0  0  0  0  0  0  0
   20.3914   -5.6617  -11.8128 C   0  0  1  0  0  0  0  0  0  0  0  0
   21.1320   -5.4111  -10.4932 C   0  0  0  0  0  0  0  0  0  0  0  0
   19.9470   -5.3590   -9.1325 S   0  0  0  0  0  0  0  0  0  0  0  0
   21.3181   -5.5996  -12.9536 C   0  0  0  0  0  0  0  0  0  0  0  0
   21.5316   -6.6139  -13.6422 O   0  0  0  0  0  0  0  0  0  0  0  0
   21.9516   -4.4179  -13.2619 O   0  0  0  0  0  0  0  0  0  0  0  0
  2  1  1  0
  2  4  1  0
  3  2  2  0
  5  4  1  0
  6  7  1  1
  6  5  1  0
  8  6  1  0
  9  8  2  0
 11 10  1  1
 11 13  1  0
 12 11  1  0
 13 14  1  6
 13 15  1  0
 14  8  1  0
 15 17  1  0
 16 15  2  0
 17 18  1  0
 18 19  1  1
 18 21  1  0
 20 19  1  0
 21 22  2  0
 21 23  1  0
M  END
$$$$
