TQH.pdb
     RDKit          3D

 27 27  0  0  1  0  0  0  0  0999 V2000
    9.6391  -13.5691   17.4792 C   0  0  0  0  0  0  0  0  0  0  0  0
    9.4856  -14.2133   18.8540 C   0  0  1  0  0  0  0  0  0  0  0  0
   10.5165  -13.7208   19.6401 O   0  0  0  0  0  0  0  0  0  0  0  0
    8.1850  -13.7381   19.4307 C   0  0  2  0  0  0  0  0  0  0  0  0
    8.1390  -12.2937   19.3713 N   0  0  0  0  0  0  0  0  0  0  0  0
    7.9193  -14.1923   20.7862 C   0  0  0  0  0  0  0  0  0  0  0  0
    8.1521  -13.3802   21.7457 O   0  0  0  0  0  0  0  0  0  0  0  0
    5.3925  -19.9636   22.0668 N   0  0  0  0  0  0  0  0  0  0  0  0
    5.9996  -19.0526   21.1759 C   0  0  0  0  0  0  0  0  0  0  0  0
    5.5540  -18.9724   20.0069 O   0  0  0  0  0  0  0  0  0  0  0  0
    7.1592  -18.2128   21.6647 C   0  0  0  0  0  0  0  0  0  0  0  0
    6.5437  -17.1472   22.5270 C   0  0  0  0  0  0  0  0  0  0  0  0
    7.3032  -15.8415   22.5533 C   0  0  2  0  0  0  0  0  0  0  0  0
    7.4199  -15.4710   21.1294 N   0  0  0  0  0  0  0  0  0  0  0  0
    8.6806  -15.9463   23.0527 C   0  0  0  0  0  0  0  0  0  0  0  0
    9.5921  -15.1238   22.6792 O   0  0  0  0  0  0  0  0  0  0  0  0
    9.1387  -16.9307   23.9730 N   0  0  0  0  0  0  0  0  0  0  0  0
    9.4354  -16.6165   25.3825 C   0  0  1  0  0  0  0  0  0  0  0  0
    8.3551  -15.7740   25.9687 C   0  0  0  0  0  0  0  0  0  0  0  0
    8.8982  -14.8391   26.9664 C   0  0  0  0  0  0  0  0  0  0  0  0
   10.1910  -14.7168   27.4395 C   0  0  0  0  0  0  0  0  0  0  0  0
   10.2806  -13.7546   28.3695 N   0  0  0  0  0  0  0  0  0  0  0  0
    9.0261  -13.2589   28.4886 C   0  0  0  0  0  0  0  0  0  0  0  0
    8.1959  -13.8967   27.6587 N   0  0  0  0  0  0  0  0  0  0  0  0
    9.6871  -17.8299   26.1517 C   0  0  0  0  0  0  0  0  0  0  0  0
   10.8984  -18.0764   26.7825 O   0  0  0  0  0  0  0  0  0  0  0  0
    8.8028  -18.7039   26.2697 O   0  0  0  0  0  0  0  0  0  0  0  0
  2  1  1  6
  2  4  1  0
  3  2  1  0
  4  6  1  0
  4  5  1  1
  6  7  2  0
  6 14  1  0
  8  9  1  0
  9 10  2  0
 11  9  1  0
 12 11  1  0
 13 15  1  0
 13 12  1  6
 14 13  1  0
 15 16  2  0
 17 18  1  0
 17 15  1  0
 18 19  1  1
 20 19  1  0
 21 20  2  0
 22 21  1  0
 23 22  1  0
 23 24  2  0
 24 20  1  0
 25 18  1  0
 26 25  1  0
 27 25  2  0
M  END
$$$$
