TQH.pdb
     RDKit          3D

 27 27  0  0  1  0  0  0  0  0999 V2000
   11.1904  -19.7311   15.9316 C   0  0  0  0  0  0  0  0  0  0  0  0
   11.7343  -18.5353   16.7080 C   0  0  1  0  0  0  0  0  0  0  0  0
   13.1169  -18.6045   16.6257 O   0  0  0  0  0  0  0  0  0  0  0  0
   11.2816  -17.2941   15.9976 C   0  0  2  0  0  0  0  0  0  0  0  0
   11.8361  -17.2828   14.6618 N   0  0  0  0  0  0  0  0  0  0  0  0
   11.6000  -16.0515   16.6824 C   0  0  0  0  0  0  0  0  0  0  0  0
   12.5520  -15.3378   16.2151 O   0  0  0  0  0  0  0  0  0  0  0  0
    7.7773  -12.7889   19.8142 N   0  0  0  0  0  0  0  0  0  0  0  0
    7.7102  -13.1555   18.4527 C   0  0  0  0  0  0  0  0  0  0  0  0
    6.6082  -13.0637   17.8624 O   0  0  0  0  0  0  0  0  0  0  0  0
    8.9655  -13.6424   17.7628 C   0  0  0  0  0  0  0  0  0  0  0  0
   10.0312  -13.6337   18.8221 C   0  0  0  0  0  0  0  0  0  0  0  0
   11.3379  -14.2679   18.4063 C   0  0  2  0  0  0  0  0  0  0  0  0
   10.9346  -15.5668   17.8333 N   0  0  0  0  0  0  0  0  0  0  0  0
   12.2433  -14.5859   19.5184 C   0  0  0  0  0  0  0  0  0  0  0  0
   12.9349  -13.6745   20.0996 O   0  0  0  0  0  0  0  0  0  0  0  0
   12.4436  -15.8883   20.0564 N   0  0  0  0  0  0  0  0  0  0  0  0
   13.3629  -16.1457   21.1799 C   0  0  1  0  0  0  0  0  0  0  0  0
   12.8414  -17.2450   22.0403 C   0  0  0  0  0  0  0  0  0  0  0  0
   11.5358  -16.8889   22.6172 C   0  0  0  0  0  0  0  0  0  0  0  0
   10.8298  -15.7046   22.5219 C   0  0  0  0  0  0  0  0  0  0  0  0
    9.6819  -15.7645   23.2129 N   0  0  0  0  0  0  0  0  0  0  0  0
    9.6589  -17.0053   23.7548 C   0  0  0  0  0  0  0  0  0  0  0  0
   10.7566  -17.6825   23.4070 N   0  0  0  0  0  0  0  0  0  0  0  0
   14.7195  -16.3935   20.7053 C   0  0  0  0  0  0  0  0  0  0  0  0
   15.7706  -16.6804   21.5649 O   0  0  0  0  0  0  0  0  0  0  0  0
   14.9845  -16.3547   19.4854 O   0  0  0  0  0  0  0  0  0  0  0  0
  2  1  1  6
  2  4  1  0
  3  2  1  0
  4  6  1  0
  4  5  1  6
  6  7  2  0
  6 14  1  0
  8  9  1  0
  9 10  2  0
 11  9  1  0
 12 11  1  0
 13 15  1  0
 13 12  1  1
 14 13  1  0
 15 16  2  0
 17 18  1  0
 17 15  1  0
 18 19  1  6
 20 19  1  0
 21 20  2  0
 22 21  1  0
 23 22  1  0
 23 24  2  0
 24 20  1  0
 25 18  1  0
 26 25  1  0
 27 25  2  0
M  END
$$$$
