TQH.pdb
     RDKit          3D

 27 27  0  0  1  0  0  0  0  0999 V2000
    8.1392  -12.4069   20.3722 C   0  0  0  0  0  0  0  0  0  0  0  0
    7.4831  -12.9504   19.1062 C   0  0  1  0  0  0  0  0  0  0  0  0
    7.1581  -11.8517   18.3249 O   0  0  0  0  0  0  0  0  0  0  0  0
    8.5147  -13.7588   18.3765 C   0  0  2  0  0  0  0  0  0  0  0  0
    7.9732  -14.1818   17.1037 N   0  0  0  0  0  0  0  0  0  0  0  0
    9.0191  -14.9071   19.1125 C   0  0  0  0  0  0  0  0  0  0  0  0
    8.4847  -16.0457   18.8843 O   0  0  0  0  0  0  0  0  0  0  0  0
   14.1313  -16.4828   18.3739 N   0  0  0  0  0  0  0  0  0  0  0  0
   14.0798  -15.6170   19.4875 C   0  0  0  0  0  0  0  0  0  0  0  0
   15.1564  -15.2862   20.0380 O   0  0  0  0  0  0  0  0  0  0  0  0
   12.7333  -15.1246   19.9706 C   0  0  0  0  0  0  0  0  0  0  0  0
   11.8798  -16.3551   20.0935 C   0  0  0  0  0  0  0  0  0  0  0  0
   10.5159  -16.1179   20.6985 C   0  0  2  0  0  0  0  0  0  0  0  0
   10.0620  -14.8631   20.0677 N   0  0  0  0  0  0  0  0  0  0  0  0
   10.5262  -15.8570   22.1440 C   0  0  0  0  0  0  0  0  0  0  0  0
   11.1008  -14.8187   22.6323 O   0  0  0  0  0  0  0  0  0  0  0  0
    9.9209  -16.6920   23.1249 N   0  0  0  0  0  0  0  0  0  0  0  0
   10.0080  -16.4053   24.5684 C   0  0  1  0  0  0  0  0  0  0  0  0
    8.6511  -16.4084   25.1845 C   0  0  0  0  0  0  0  0  0  0  0  0
    7.9286  -15.1648   24.8752 C   0  0  0  0  0  0  0  0  0  0  0  0
    8.3441  -14.0699   24.1412 C   0  0  0  0  0  0  0  0  0  0  0  0
    7.3991  -13.1188   24.1072 N   0  0  0  0  0  0  0  0  0  0  0  0
    6.3685  -13.6174   24.8303 C   0  0  0  0  0  0  0  0  0  0  0  0
    6.6726  -14.8336   25.2917 N   0  0  0  0  0  0  0  0  0  0  0  0
   10.9331  -17.3166   25.2324 C   0  0  0  0  0  0  0  0  0  0  0  0
   11.2385  -17.2179   26.5825 O   0  0  0  0  0  0  0  0  0  0  0  0
   11.4916  -18.2335   24.5944 O   0  0  0  0  0  0  0  0  0  0  0  0
  2  1  1  1
  2  4  1  0
  3  2  1  0
  4  6  1  0
  4  5  1  6
  6  7  2  0
  6 14  1  0
  8  9  1  0
  9 10  2  0
 11  9  1  0
 12 11  1  0
 13 15  1  0
 13 12  1  6
 14 13  1  0
 15 16  2  0
 17 18  1  0
 17 15  1  0
 18 19  1  1
 20 19  1  0
 21 20  2  0
 22 21  1  0
 23 22  1  0
 23 24  2  0
 24 20  1  0
 25 18  1  0
 26 25  1  0
 27 25  2  0
M  END
$$$$
