TQH.pdb
     RDKit          3D

 27 27  0  0  1  0  0  0  0  0999 V2000
    9.0328  -12.5311   19.4341 C   0  0  0  0  0  0  0  0  0  0  0  0
    8.2755  -13.2658   18.3318 C   0  0  1  0  0  0  0  0  0  0  0  0
    7.5347  -12.3092   17.6540 O   0  0  0  0  0  0  0  0  0  0  0  0
    9.2937  -13.8304   17.3860 C   0  0  2  0  0  0  0  0  0  0  0  0
    8.6190  -14.3487   16.2162 N   0  0  0  0  0  0  0  0  0  0  0  0
   10.1562  -14.8509   17.9598 C   0  0  0  0  0  0  0  0  0  0  0  0
    9.7699  -16.0676   17.8927 O   0  0  0  0  0  0  0  0  0  0  0  0
   15.7165  -14.5117   16.8067 N   0  0  0  0  0  0  0  0  0  0  0  0
   15.4275  -14.1044   18.1269 C   0  0  0  0  0  0  0  0  0  0  0  0
   16.3800  -13.7806   18.8748 O   0  0  0  0  0  0  0  0  0  0  0  0
   13.9860  -14.0747   18.5851 C   0  0  0  0  0  0  0  0  0  0  0  0
   13.5638  -15.5146   18.6656 C   0  0  0  0  0  0  0  0  0  0  0  0
   12.1546  -15.7309   19.1655 C   0  0  2  0  0  0  0  0  0  0  0  0
   11.3978  -14.6015   18.5909 N   0  0  0  0  0  0  0  0  0  0  0  0
   11.9990  -15.6161   20.6216 C   0  0  0  0  0  0  0  0  0  0  0  0
   12.3552  -14.5559   21.2509 O   0  0  0  0  0  0  0  0  0  0  0  0
   11.4541  -16.6265   21.4629 N   0  0  0  0  0  0  0  0  0  0  0  0
   11.4054  -16.4908   22.9301 C   0  0  1  0  0  0  0  0  0  0  0  0
   10.1211  -17.0277   23.4622 C   0  0  0  0  0  0  0  0  0  0  0  0
    8.9775  -16.2445   22.9691 C   0  0  0  0  0  0  0  0  0  0  0  0
    8.9644  -15.0114   22.3452 C   0  0  0  0  0  0  0  0  0  0  0  0
    7.7122  -14.6186   22.0684 N   0  0  0  0  0  0  0  0  0  0  0  0
    6.9189  -15.6172   22.5234 C   0  0  0  0  0  0  0  0  0  0  0  0
    7.6609  -16.5892   23.0610 N   0  0  0  0  0  0  0  0  0  0  0  0
   12.5749  -17.0980   23.5552 C   0  0  0  0  0  0  0  0  0  0  0  0
   12.7980  -17.0528   24.9241 O   0  0  0  0  0  0  0  0  0  0  0  0
   13.4306  -17.6901   22.8646 O   0  0  0  0  0  0  0  0  0  0  0  0
  2  1  1  1
  2  4  1  0
  3  2  1  0
  4  6  1  0
  4  5  1  6
  6  7  2  0
  6 14  1  0
  8  9  1  0
  9 10  2  0
 11  9  1  0
 12 11  1  0
 13 15  1  0
 13 12  1  1
 14 13  1  0
 15 16  2  0
 17 18  1  0
 17 15  1  0
 18 19  1  1
 20 19  1  0
 21 20  2  0
 22 21  1  0
 23 22  1  0
 23 24  2  0
 24 20  1  0
 25 18  1  0
 26 25  1  0
 27 25  2  0
M  END
$$$$
