TQH.pdb
     RDKit          3D

 27 27  0  0  1  0  0  0  0  0999 V2000
   10.8136  -19.0928   17.2229 C   0  0  0  0  0  0  0  0  0  0  0  0
   11.6829  -18.3905   16.1838 C   0  0  1  0  0  0  0  0  0  0  0  0
   11.4787  -19.0530   14.9827 O   0  0  0  0  0  0  0  0  0  0  0  0
   11.1696  -16.9882   16.0416 C   0  0  2  0  0  0  0  0  0  0  0  0
   11.8255  -16.3541   14.9192 N   0  0  0  0  0  0  0  0  0  0  0  0
   11.3092  -16.1662   17.2329 C   0  0  0  0  0  0  0  0  0  0  0  0
   12.4543  -15.6514   17.4736 O   0  0  0  0  0  0  0  0  0  0  0  0
    6.9249  -13.3245   20.1277 N   0  0  0  0  0  0  0  0  0  0  0  0
    7.5915  -12.7216   19.0394 C   0  0  0  0  0  0  0  0  0  0  0  0
    7.0183  -11.7880   18.4300 O   0  0  0  0  0  0  0  0  0  0  0  0
    8.9653  -13.2236   18.6530 C   0  0  0  0  0  0  0  0  0  0  0  0
    9.2647  -14.3421   19.6108 C   0  0  0  0  0  0  0  0  0  0  0  0
   10.5621  -15.0690   19.3447 C   0  0  2  0  0  0  0  0  0  0  0  0
   10.2705  -15.8893   18.1529 N   0  0  0  0  0  0  0  0  0  0  0  0
   10.9573  -16.0169   20.3949 C   0  0  0  0  0  0  0  0  0  0  0  0
   10.2557  -17.0600   20.6530 O   0  0  0  0  0  0  0  0  0  0  0  0
   12.1182  -15.8910   21.2085 N   0  0  0  0  0  0  0  0  0  0  0  0
   12.4716  -16.8841   22.2393 C   0  0  1  0  0  0  0  0  0  0  0  0
   13.9166  -17.2373   22.1509 C   0  0  0  0  0  0  0  0  0  0  0  0
   14.1902  -18.0424   20.9504 C   0  0  0  0  0  0  0  0  0  0  0  0
   13.3045  -18.6855   20.1065 C   0  0  0  0  0  0  0  0  0  0  0  0
   13.9499  -19.3405   19.1302 N   0  0  0  0  0  0  0  0  0  0  0  0
   15.2647  -19.1099   19.3577 C   0  0  0  0  0  0  0  0  0  0  0  0
   15.4190  -18.3390   20.4378 N   0  0  0  0  0  0  0  0  0  0  0  0
   12.0809  -16.4270   23.5681 C   0  0  0  0  0  0  0  0  0  0  0  0
   12.2618  -17.1996   24.7066 O   0  0  0  0  0  0  0  0  0  0  0  0
   11.5605  -15.3030   23.7273 O   0  0  0  0  0  0  0  0  0  0  0  0
  2  1  1  1
  2  4  1  0
  3  2  1  0
  4  6  1  0
  4  5  1  6
  6  7  2  0
  6 14  1  0
  8  9  1  0
  9 10  2  0
 11  9  1  0
 12 11  1  0
 13 15  1  0
 13 12  1  1
 14 13  1  0
 15 16  2  0
 17 18  1  0
 17 15  1  0
 18 19  1  1
 20 19  1  0
 21 20  2  0
 22 21  1  0
 23 22  1  0
 23 24  2  0
 24 20  1  0
 25 18  1  0
 26 25  1  0
 27 25  2  0
M  END
$$$$
