TQH.pdb
     RDKit          3D

 27 27  0  0  1  0  0  0  0  0999 V2000
   17.8232  -17.0050   17.5555 C   0  0  0  0  0  0  0  0  0  0  0  0
   16.6519  -16.8351   16.5923 C   0  0  1  0  0  0  0  0  0  0  0  0
   17.1992  -16.6106   15.3380 O   0  0  0  0  0  0  0  0  0  0  0  0
   15.9074  -18.1369   16.5554 C   0  0  2  0  0  0  0  0  0  0  0  0
   14.8867  -18.0711   15.5328 N   0  0  0  0  0  0  0  0  0  0  0  0
   15.3202  -18.5373   17.8240 C   0  0  0  0  0  0  0  0  0  0  0  0
   14.0452  -18.5591   17.9126 O   0  0  0  0  0  0  0  0  0  0  0  0
   17.2960  -22.5735   21.7845 N   0  0  0  0  0  0  0  0  0  0  0  0
   18.0868  -21.4043   21.7851 C   0  0  0  0  0  0  0  0  0  0  0  0
   19.2355  -21.4596   22.2840 O   0  0  0  0  0  0  0  0  0  0  0  0
   17.5194  -20.1362   21.1862 C   0  0  0  0  0  0  0  0  0  0  0  0
   16.1467  -20.5053   20.6988 C   0  0  0  0  0  0  0  0  0  0  0  0
   15.3278  -19.3447   20.1840 C   0  0  2  0  0  0  0  0  0  0  0  0
   16.0540  -18.9072   18.9759 N   0  0  0  0  0  0  0  0  0  0  0  0
   15.2957  -18.1774   21.0752 C   0  0  0  0  0  0  0  0  0  0  0  0
   16.1315  -17.2125   20.9441 O   0  0  0  0  0  0  0  0  0  0  0  0
   14.3683  -17.9922   22.1388 N   0  0  0  0  0  0  0  0  0  0  0  0
   14.3989  -16.8075   23.0158 C   0  0  1  0  0  0  0  0  0  0  0  0
   13.1517  -16.7258   23.8274 C   0  0  0  0  0  0  0  0  0  0  0  0
   12.0328  -16.2091   23.0241 C   0  0  0  0  0  0  0  0  0  0  0  0
   12.0338  -15.7268   21.7289 C   0  0  0  0  0  0  0  0  0  0  0  0
   10.8096  -15.3235   21.3580 N   0  0  0  0  0  0  0  0  0  0  0  0
   10.0199  -15.5532   22.4338 C   0  0  0  0  0  0  0  0  0  0  0  0
   10.7370  -16.0798   23.4303 N   0  0  0  0  0  0  0  0  0  0  0  0
   15.6075  -16.7862   23.8318 C   0  0  0  0  0  0  0  0  0  0  0  0
   16.0438  -15.6454   24.4905 O   0  0  0  0  0  0  0  0  0  0  0  0
   16.3029  -17.8148   23.9668 O   0  0  0  0  0  0  0  0  0  0  0  0
  2  1  1  1
  2  4  1  0
  3  2  1  0
  4  6  1  0
  4  5  1  6
  6  7  2  0
  6 14  1  0
  8  9  1  0
  9 10  2  0
 11  9  1  0
 12 11  1  0
 13 15  1  0
 13 12  1  1
 14 13  1  0
 15 16  2  0
 17 18  1  0
 17 15  1  0
 18 19  1  1
 20 19  1  0
 21 20  2  0
 22 21  1  0
 23 22  1  0
 23 24  2  0
 24 20  1  0
 25 18  1  0
 26 25  1  0
 27 25  2  0
M  END
$$$$
