TQH.pdb
     RDKit          3D

 27 27  0  0  1  0  0  0  0  0999 V2000
    8.5578  -12.2744   19.3958 C   0  0  0  0  0  0  0  0  0  0  0  0
    7.7388  -13.1514   18.4532 C   0  0  1  0  0  0  0  0  0  0  0  0
    7.2378  -12.3143   17.4675 O   0  0  0  0  0  0  0  0  0  0  0  0
    8.6824  -14.1242   17.8103 C   0  0  2  0  0  0  0  0  0  0  0  0
    7.9468  -14.9588   16.8859 N   0  0  0  0  0  0  0  0  0  0  0  0
    9.4323  -14.9502   18.7429 C   0  0  0  0  0  0  0  0  0  0  0  0
    8.8689  -16.0053   19.1941 O   0  0  0  0  0  0  0  0  0  0  0  0
   15.1881  -14.6186   17.8260 N   0  0  0  0  0  0  0  0  0  0  0  0
   14.9047  -14.5012   19.2038 C   0  0  0  0  0  0  0  0  0  0  0  0
   15.8502  -14.6079   20.0199 O   0  0  0  0  0  0  0  0  0  0  0  0
   13.4774  -14.2523   19.6392 C   0  0  0  0  0  0  0  0  0  0  0  0
   12.8402  -15.6113   19.7115 C   0  0  0  0  0  0  0  0  0  0  0  0
   11.3916  -15.6057   20.1404 C   0  0  2  0  0  0  0  0  0  0  0  0
   10.7454  -14.6764   19.1934 N   0  0  0  0  0  0  0  0  0  0  0  0
   11.1527  -15.0443   21.4766 C   0  0  0  0  0  0  0  0  0  0  0  0
   11.0092  -13.7817   21.6558 O   0  0  0  0  0  0  0  0  0  0  0  0
   11.0539  -15.8081   22.6734 N   0  0  0  0  0  0  0  0  0  0  0  0
   10.2006  -15.3983   23.8037 C   0  0  1  0  0  0  0  0  0  0  0  0
    8.8076  -15.1421   23.3406 C   0  0  0  0  0  0  0  0  0  0  0  0
    7.9574  -14.6884   24.4523 C   0  0  0  0  0  0  0  0  0  0  0  0
    8.3049  -14.3949   25.7573 C   0  0  0  0  0  0  0  0  0  0  0  0
    7.2327  -14.0346   26.4779 N   0  0  0  0  0  0  0  0  0  0  0  0
    6.1891  -14.1004   25.6175 C   0  0  0  0  0  0  0  0  0  0  0  0
    6.6088  -14.4881   24.4100 N   0  0  0  0  0  0  0  0  0  0  0  0
   10.2661  -16.3666   24.8924 C   0  0  0  0  0  0  0  0  0  0  0  0
   10.2065  -15.9939   26.2278 O   0  0  0  0  0  0  0  0  0  0  0  0
   10.3804  -17.5870   24.6530 O   0  0  0  0  0  0  0  0  0  0  0  0
  2  1  1  1
  2  4  1  0
  3  2  1  0
  4  6  1  0
  4  5  1  6
  6  7  2  0
  6 14  1  0
  8  9  1  0
  9 10  2  0
 11  9  1  0
 12 11  1  0
 13 15  1  0
 13 12  1  6
 14 13  1  0
 15 16  2  0
 17 18  1  0
 17 15  1  0
 18 19  1  6
 20 19  1  0
 21 20  2  0
 22 21  1  0
 23 22  1  0
 23 24  2  0
 24 20  1  0
 25 18  1  0
 26 25  1  0
 27 25  2  0
M  END
$$$$
