TQH.pdb
     RDKit          3D

 27 27  0  0  1  0  0  0  0  0999 V2000
    9.9157  -12.7643   19.9386 C   0  0  0  0  0  0  0  0  0  0  0  0
    8.4569  -13.0982   20.2370 C   0  0  1  0  0  0  0  0  0  0  0  0
    7.8111  -11.8911   20.4587 O   0  0  0  0  0  0  0  0  0  0  0  0
    7.8770  -13.7230   19.0027 C   0  0  2  0  0  0  0  0  0  0  0  0
    6.4532  -13.9010   19.1849 N   0  0  0  0  0  0  0  0  0  0  0  0
    8.4929  -14.9808   18.6115 C   0  0  0  0  0  0  0  0  0  0  0  0
    8.0044  -16.0606   19.0906 O   0  0  0  0  0  0  0  0  0  0  0  0
   10.8932  -17.6624   13.7900 N   0  0  0  0  0  0  0  0  0  0  0  0
    9.8153  -16.7511   13.8071 C   0  0  0  0  0  0  0  0  0  0  0  0
    9.1342  -16.6110   12.7641 O   0  0  0  0  0  0  0  0  0  0  0  0
    9.5259  -15.9830   15.0780 C   0  0  0  0  0  0  0  0  0  0  0  0
   10.6077  -16.3838   16.0408 C   0  0  0  0  0  0  0  0  0  0  0  0
   10.1745  -16.4402   17.4871 C   0  0  2  0  0  0  0  0  0  0  0  0
    9.5979  -15.1047   17.7364 N   0  0  0  0  0  0  0  0  0  0  0  0
   11.2753  -16.5857   18.4489 C   0  0  0  0  0  0  0  0  0  0  0  0
   12.0453  -17.6121   18.4339 O   0  0  0  0  0  0  0  0  0  0  0  0
   11.5997  -15.6402   19.4619 N   0  0  0  0  0  0  0  0  0  0  0  0
   12.6637  -15.8797   20.4540 C   0  0  1  0  0  0  0  0  0  0  0  0
   13.6156  -14.7336   20.4862 C   0  0  0  0  0  0  0  0  0  0  0  0
   14.5250  -14.7709   19.3304 C   0  0  0  0  0  0  0  0  0  0  0  0
   15.1374  -15.8560   18.7324 C   0  0  0  0  0  0  0  0  0  0  0  0
   15.9178  -15.4734   17.7110 N   0  0  0  0  0  0  0  0  0  0  0  0
   15.7991  -14.1255   17.6599 C   0  0  0  0  0  0  0  0  0  0  0  0
   14.9732  -13.6971   18.6185 N   0  0  0  0  0  0  0  0  0  0  0  0
   12.1030  -16.1868   21.7650 C   0  0  0  0  0  0  0  0  0  0  0  0
   12.8957  -16.4675   22.8689 O   0  0  0  0  0  0  0  0  0  0  0  0
   10.8666  -16.2074   21.9398 O   0  0  0  0  0  0  0  0  0  0  0  0
  2  1  1  6
  2  4  1  0
  3  2  1  0
  4  6  1  0
  4  5  1  1
  6  7  2  0
  6 14  1  0
  8  9  1  0
  9 10  2  0
 11  9  1  0
 12 11  1  0
 13 15  1  0
 13 12  1  6
 14 13  1  0
 15 16  2  0
 17 18  1  0
 17 15  1  0
 18 19  1  1
 20 19  1  0
 21 20  2  0
 22 21  1  0
 23 22  1  0
 23 24  2  0
 24 20  1  0
 25 18  1  0
 26 25  1  0
 27 25  2  0
M  END
$$$$
