WVI.pdb
     RDKit          3D

 30 31  0  0  1  0  0  0  0  0999 V2000
   28.1678  -22.3487  -13.4278 N   0  0  0  0  0  0  0  0  0  0  0  0
   27.0709  -21.6103  -12.7971 C   0  0  1  0  0  0  0  0  0  0  0  0
   27.5778  -20.2578  -12.3365 C   0  0  0  0  0  0  0  0  0  0  0  0
   28.3815  -20.4954  -11.1087 C   0  0  0  0  0  0  0  0  0  0  0  0
   29.7090  -20.8095  -10.9823 C   0  0  0  0  0  0  0  0  0  0  0  0
   29.9636  -20.9469   -9.6800 N   0  0  0  0  0  0  0  0  0  0  0  0
   28.8373  -20.7264   -8.9575 C   0  0  0  0  0  0  0  0  0  0  0  0
   28.5706  -20.7433   -7.5924 C   0  0  0  0  0  0  0  0  0  0  0  0
   27.2876  -20.4682   -7.1086 C   0  0  0  0  0  0  0  0  0  0  0  0
   26.2975  -20.1814   -8.0172 C   0  0  0  0  0  0  0  0  0  0  0  0
   26.5782  -20.1711   -9.3768 C   0  0  0  0  0  0  0  0  0  0  0  0
   27.8331  -20.4418   -9.8336 C   0  0  0  0  0  0  0  0  0  0  0  0
   25.9849  -21.5329  -13.8026 C   0  0  0  0  0  0  0  0  0  0  0  0
   26.2312  -21.0429  -14.8864 O   0  0  0  0  0  0  0  0  0  0  0  0
   24.4140  -24.1328  -15.5728 C   0  0  0  0  0  0  0  0  0  0  0  0
   23.2576  -23.4682  -14.8710 C   0  0  1  0  0  0  0  0  0  0  0  0
   23.1341  -24.2183  -13.5337 C   0  0  0  0  0  0  0  0  0  0  0  0
   23.5744  -22.0313  -14.4645 C   0  0  2  0  0  0  0  0  0  0  0  0
   24.6917  -22.0156  -13.5501 N   0  0  0  0  0  0  0  0  0  0  0  0
   22.4083  -21.5461  -13.6860 C   0  0  0  0  0  0  0  0  0  0  0  0
   22.3758  -21.6792  -12.4090 O   0  0  0  0  0  0  0  0  0  0  0  0
   19.4803  -16.5369  -13.0337 C   0  0  0  0  0  0  0  0  0  0  0  0
   19.4119  -17.9949  -12.7768 C   0  0  0  0  0  0  0  0  0  0  0  0
   20.2862  -18.8863  -13.5705 C   0  0  2  0  0  0  0  0  0  0  0  0
   20.0896  -18.5237  -15.0456 C   0  0  0  0  0  0  0  0  0  0  0  0
   20.2046  -20.3378  -13.3298 C   0  0  2  0  0  0  0  0  0  0  0  0
   21.2656  -20.9140  -14.2302 N   0  0  0  0  0  0  0  0  0  0  0  0
   18.9636  -20.9822  -13.7156 C   0  0  0  0  0  0  0  0  0  0  0  0
   18.7663  -21.5079  -14.8740 O   0  0  0  0  0  0  0  0  0  0  0  0
   17.8594  -21.1033  -12.8646 O   0  0  0  0  0  0  0  0  0  0  0  0
  2  1  1  6
  2 13  1  0
  2  3  1  0
  3  4  1  0
  4  5  2  0
  4 12  1  0
  5  6  1  0
  6  7  1  0
  7  8  2  0
  8  9  1  0
 10  9  2  0
 11 10  1  0
 12 11  2  0
 12  7  1  0
 13 19  1  0
 14 13  2  0
 16 15  1  6
 16 18  1  0
 17 16  1  0
 18 20  1  0
 18 19  1  1
 20 21  2  0
 20 27  1  0
 23 22  1  0
 23 24  1  0
 24 26  1  0
 24 25  1  6
 26 28  1  0
 26 27  1  6
 28 30  1  0
 29 28  2  0
M  END
$$$$
