WVI.pdb
     RDKit          3D

 30 31  0  0  1  0  0  0  0  0999 V2000
   27.7724  -22.4502  -14.3188 N   0  0  0  0  0  0  0  0  0  0  0  0
   26.6949  -21.5557  -13.8888 C   0  0  1  0  0  0  0  0  0  0  0  0
   27.2683  -20.1810  -13.6064 C   0  0  0  0  0  0  0  0  0  0  0  0
   27.9834  -20.2723  -12.3063 C   0  0  0  0  0  0  0  0  0  0  0  0
   29.3279  -20.3448  -12.0534 C   0  0  0  0  0  0  0  0  0  0  0  0
   29.4802  -20.4354  -10.7312 N   0  0  0  0  0  0  0  0  0  0  0  0
   28.2703  -20.4197  -10.1189 C   0  0  0  0  0  0  0  0  0  0  0  0
   27.8846  -20.4848   -8.7840 C   0  0  0  0  0  0  0  0  0  0  0  0
   26.5338  -20.4432   -8.4246 C   0  0  0  0  0  0  0  0  0  0  0  0
   25.5976  -20.3370   -9.4248 C   0  0  0  0  0  0  0  0  0  0  0  0
   25.9976  -20.2759  -10.7528 C   0  0  0  0  0  0  0  0  0  0  0  0
   27.3177  -20.3181  -11.0880 C   0  0  0  0  0  0  0  0  0  0  0  0
   25.6804  -21.5719  -14.9690 C   0  0  0  0  0  0  0  0  0  0  0  0
   26.0599  -21.5354  -16.1222 O   0  0  0  0  0  0  0  0  0  0  0  0
   22.9714  -23.8908  -14.4238 C   0  0  0  0  0  0  0  0  0  0  0  0
   22.6455  -23.1264  -15.6813 C   0  0  1  0  0  0  0  0  0  0  0  0
   21.1259  -22.8977  -15.6119 C   0  0  0  0  0  0  0  0  0  0  0  0
   23.2351  -21.7184  -15.6733 C   0  0  2  0  0  0  0  0  0  0  0  0
   24.3038  -21.6400  -14.7055 N   0  0  0  0  0  0  0  0  0  0  0  0
   22.1686  -20.8172  -15.1715 C   0  0  0  0  0  0  0  0  0  0  0  0
   21.9443  -20.7108  -13.9114 O   0  0  0  0  0  0  0  0  0  0  0  0
   22.2517  -15.9576  -16.9503 C   0  0  0  0  0  0  0  0  0  0  0  0
   21.9981  -17.1463  -16.1024 C   0  0  0  0  0  0  0  0  0  0  0  0
   20.6591  -17.7729  -16.1595 C   0  0  2  0  0  0  0  0  0  0  0  0
   19.6285  -16.6741  -15.8835 C   0  0  0  0  0  0  0  0  0  0  0  0
   20.4216  -18.9849  -15.3557 C   0  0  2  0  0  0  0  0  0  0  0  0
   21.3274  -20.0150  -15.9778 N   0  0  0  0  0  0  0  0  0  0  0  0
   19.0841  -19.5429  -15.4181 C   0  0  0  0  0  0  0  0  0  0  0  0
   18.6533  -20.2468  -16.4061 O   0  0  0  0  0  0  0  0  0  0  0  0
   18.1308  -19.3780  -14.4070 O   0  0  0  0  0  0  0  0  0  0  0  0
  2  1  1  6
  2 13  1  0
  2  3  1  0
  3  4  1  0
  4  5  2  0
  4 12  1  0
  5  6  1  0
  6  7  1  0
  7  8  2  0
  8  9  1  0
 10  9  2  0
 11 10  1  0
 12 11  2  0
 12  7  1  0
 13 19  1  0
 14 13  2  0
 16 15  1  1
 16 18  1  0
 17 16  1  0
 18 20  1  0
 18 19  1  1
 20 21  2  0
 20 27  1  0
 23 22  1  0
 23 24  1  0
 24 26  1  0
 24 25  1  1
 26 28  1  0
 26 27  1  6
 28 30  1  0
 29 28  2  0
M  END
$$$$
