WVI.pdb
     RDKit          3D

 30 31  0  0  1  0  0  0  0  0999 V2000
   25.1697  -22.0109  -12.5880 N   0  0  0  0  0  0  0  0  0  0  0  0
   25.8921  -20.8632  -12.0338 C   0  0  1  0  0  0  0  0  0  0  0  0
   24.9077  -19.7505  -11.7318 C   0  0  0  0  0  0  0  0  0  0  0  0
   24.5175  -19.1559  -13.0372 C   0  0  0  0  0  0  0  0  0  0  0  0
   23.3182  -19.2108  -13.6971 C   0  0  0  0  0  0  0  0  0  0  0  0
   23.4633  -18.5441  -14.8434 N   0  0  0  0  0  0  0  0  0  0  0  0
   24.7240  -18.0546  -14.9433 C   0  0  0  0  0  0  0  0  0  0  0  0
   25.3729  -17.3036  -15.9180 C   0  0  0  0  0  0  0  0  0  0  0  0
   26.7091  -16.9229  -15.7591 C   0  0  0  0  0  0  0  0  0  0  0  0
   27.3643  -17.3107  -14.6152 C   0  0  0  0  0  0  0  0  0  0  0  0
   26.7044  -18.0625  -13.6526 C   0  0  0  0  0  0  0  0  0  0  0  0
   25.4022  -18.4266  -13.8214 C   0  0  0  0  0  0  0  0  0  0  0  0
   26.6186  -21.3609  -10.8418 C   0  0  0  0  0  0  0  0  0  0  0  0
   26.0310  -22.0868  -10.0651 O   0  0  0  0  0  0  0  0  0  0  0  0
   31.1390  -21.5947   -8.6286 C   0  0  0  0  0  0  0  0  0  0  0  0
   30.2469  -21.2551   -9.7949 C   0  0  1  0  0  0  0  0  0  0  0  0
   30.5721  -22.3222  -10.8541 C   0  0  0  0  0  0  0  0  0  0  0  0
   28.7702  -21.4802   -9.4803 C   0  0  2  0  0  0  0  0  0  0  0  0
   27.9593  -21.0333  -10.5883 N   0  0  0  0  0  0  0  0  0  0  0  0
   28.4381  -20.5809   -8.3480 C   0  0  0  0  0  0  0  0  0  0  0  0
   28.0680  -19.3702   -8.5637 O   0  0  0  0  0  0  0  0  0  0  0  0
   25.8268  -22.2661   -3.9392 C   0  0  0  0  0  0  0  0  0  0  0  0
   26.3549  -21.4098   -5.0274 C   0  0  0  0  0  0  0  0  0  0  0  0
   27.6368  -20.7060   -4.8034 C   0  0  2  0  0  0  0  0  0  0  0  0
   27.4921  -19.8930   -3.5134 C   0  0  0  0  0  0  0  0  0  0  0  0
   28.1995  -19.9131   -5.9107 C   0  0  2  0  0  0  0  0  0  0  0  0
   28.4850  -20.9354   -6.9792 N   0  0  0  0  0  0  0  0  0  0  0  0
   29.4630  -19.2511   -5.6468 C   0  0  0  0  0  0  0  0  0  0  0  0
   30.5936  -19.8658   -5.6126 O   0  0  0  0  0  0  0  0  0  0  0  0
   29.5801  -17.8768   -5.4105 O   0  0  0  0  0  0  0  0  0  0  0  0
  2  1  1  1
  2 13  1  0
  2  3  1  0
  3  4  1  0
  4  5  2  0
  4 12  1  0
  5  6  1  0
  6  7  1  0
  7  8  2  0
  8  9  1  0
 10  9  2  0
 11 10  1  0
 12 11  2  0
 12  7  1  0
 13 19  1  0
 14 13  2  0
 16 15  1  1
 16 18  1  0
 17 16  1  0
 18 20  1  0
 18 19  1  6
 20 21  2  0
 20 27  1  0
 23 22  1  0
 23 24  1  0
 24 26  1  0
 24 25  1  1
 26 28  1  0
 26 27  1  6
 28 30  1  0
 29 28  2  0
M  END
$$$$
