WVI.pdb
     RDKit          3D

 30 31  0  0  1  0  0  0  0  0999 V2000
   24.6418  -19.4040  -10.5946 N   0  0  0  0  0  0  0  0  0  0  0  0
   25.8295  -20.2020  -10.9089 C   0  0  1  0  0  0  0  0  0  0  0  0
   25.8883  -21.3990   -9.9805 C   0  0  0  0  0  0  0  0  0  0  0  0
   26.1743  -20.8737   -8.6195 C   0  0  0  0  0  0  0  0  0  0  0  0
   25.3069  -20.4387   -7.6524 C   0  0  0  0  0  0  0  0  0  0  0  0
   26.0390  -20.0406   -6.6107 N   0  0  0  0  0  0  0  0  0  0  0  0
   27.3584  -20.2095   -6.8745 C   0  0  0  0  0  0  0  0  0  0  0  0
   28.5105  -19.9584   -6.1365 C   0  0  0  0  0  0  0  0  0  0  0  0
   29.7753  -20.2376   -6.6637 C   0  0  0  0  0  0  0  0  0  0  0  0
   29.8501  -20.7659   -7.9299 C   0  0  0  0  0  0  0  0  0  0  0  0
   28.6916  -21.0084   -8.6555 C   0  0  0  0  0  0  0  0  0  0  0  0
   27.4659  -20.7306   -8.1290 C   0  0  0  0  0  0  0  0  0  0  0  0
   25.7264  -20.5601  -12.3433 C   0  0  0  0  0  0  0  0  0  0  0  0
   24.6389  -20.8686  -12.7878 O   0  0  0  0  0  0  0  0  0  0  0  0
   29.2348  -21.2120  -14.7656 C   0  0  0  0  0  0  0  0  0  0  0  0
   28.2105  -20.1854  -15.1761 C   0  0  1  0  0  0  0  0  0  0  0  0
   28.0829  -20.3542  -16.6998 C   0  0  0  0  0  0  0  0  0  0  0  0
   26.8167  -20.5131  -14.6468 C   0  0  2  0  0  0  0  0  0  0  0  0
   26.8351  -20.5429  -13.2033 N   0  0  0  0  0  0  0  0  0  0  0  0
   26.5180  -21.9015  -15.0759 C   0  0  0  0  0  0  0  0  0  0  0  0
   27.2771  -22.8729  -14.7157 O   0  0  0  0  0  0  0  0  0  0  0  0
   21.8862  -23.9563  -14.2865 C   0  0  0  0  0  0  0  0  0  0  0  0
   23.3281  -23.7677  -14.5723 C   0  0  0  0  0  0  0  0  0  0  0  0
   23.8006  -23.9859  -15.9572 C   0  0  2  0  0  0  0  0  0  0  0  0
   23.3483  -25.3873  -16.3787 C   0  0  0  0  0  0  0  0  0  0  0  0
   25.2219  -23.7372  -16.2563 C   0  0  2  0  0  0  0  0  0  0  0  0
   25.4230  -22.2923  -15.8819 N   0  0  0  0  0  0  0  0  0  0  0  0
   25.6114  -23.8443  -17.6495 C   0  0  0  0  0  0  0  0  0  0  0  0
   25.2866  -22.9799  -18.5465 O   0  0  0  0  0  0  0  0  0  0  0  0
   26.3856  -24.8941  -18.1563 O   0  0  0  0  0  0  0  0  0  0  0  0
  2  1  1  1
  2 13  1  0
  2  3  1  0
  3  4  1  0
  4  5  2  0
  4 12  1  0
  5  6  1  0
  6  7  1  0
  7  8  2  0
  8  9  1  0
 10  9  2  0
 11 10  1  0
 12 11  2  0
 12  7  1  0
 13 19  1  0
 14 13  2  0
 16 15  1  1
 16 18  1  0
 17 16  1  0
 18 20  1  0
 18 19  1  1
 20 21  2  0
 20 27  1  0
 23 22  1  0
 23 24  1  0
 24 26  1  0
 24 25  1  1
 26 28  1  0
 26 27  1  6
 28 30  1  0
 29 28  2  0
M  END
$$$$
