DAH.pdb
     RDKit          3D

 24 24  0  0  1  0  0  0  0  0999 V2000
   18.8813  -13.0995  -15.8715 N   0  0  0  0  0  0  0  0  0  0  0  0
   17.8305  -12.1077  -15.8277 C   0  0  1  0  0  0  0  0  0  0  0  0
   16.5484  -12.8171  -15.4848 C   0  0  0  0  0  0  0  0  0  0  0  0
   16.0725  -13.5396  -16.6790 C   0  0  0  0  0  0  0  0  0  0  0  0
   16.2723  -13.0497  -17.8108 O   0  0  0  0  0  0  0  0  0  0  0  0
   18.1636  -11.0386  -14.8655 C   0  0  0  0  0  0  0  0  0  0  0  0
   18.4635  -11.3458  -13.6832 O   0  0  0  0  0  0  0  0  0  0  0  0
   15.4067  -14.7506  -16.5972 O   0  0  0  0  0  0  0  0  0  0  0  0
   18.5737   -7.2672  -15.0912 C   0  0  0  0  0  0  0  0  0  0  0  0
   18.4286   -8.5870  -14.3470 C   0  0  2  0  0  0  0  0  0  0  0  0
   18.1573   -9.6789  -15.2274 N   0  0  0  0  0  0  0  0  0  0  0  0
   17.2737   -8.4252  -13.4247 C   0  0  0  0  0  0  0  0  0  0  0  0
   16.0985   -8.6707  -13.8077 O   0  0  0  0  0  0  0  0  0  0  0  0
   17.4247   -7.9935  -12.0856 N   0  0  0  0  0  0  0  0  0  0  0  0
   16.2885   -7.6530  -11.2227 C   0  0  1  0  0  0  0  0  0  0  0  0
   16.7636   -7.9527   -9.8179 C   0  0  0  0  0  0  0  0  0  0  0  0
   15.7205   -7.6323   -8.8366 C   0  0  0  0  0  0  0  0  0  0  0  0
   14.5654   -8.3797   -8.7029 C   0  0  0  0  0  0  0  0  0  0  0  0
   13.8523   -7.8090   -7.7280 N   0  0  0  0  0  0  0  0  0  0  0  0
   14.5249   -6.7428   -7.2605 C   0  0  0  0  0  0  0  0  0  0  0  0
   15.6731   -6.6400   -7.9468 N   0  0  0  0  0  0  0  0  0  0  0  0
   15.9556   -6.2256  -11.3041 C   0  0  0  0  0  0  0  0  0  0  0  0
   16.8514   -5.2016  -11.4043 O   0  0  0  0  0  0  0  0  0  0  0  0
   14.7208   -5.9070  -11.2790 O   0  0  0  0  0  0  0  0  0  0  0  0
  2  1  1  1
  2  3  1  0
  3  4  1  0
  4  8  1  0
  5  4  2  0
  6 11  1  0
  6  2  1  0
  7  6  2  0
 10  9  1  6
 10 12  1  0
 10 11  1  0
 12 14  1  0
 13 12  2  0
 14 15  1  0
 15 22  1  0
 15 16  1  1
 17 16  1  0
 17 18  2  0
 19 18  1  0
 20 19  1  0
 21 20  2  0
 21 17  1  0
 22 23  1  0
 24 22  2  0
M  END
$$$$
