DAH.pdb
     RDKit          3D

 24 24  0  0  1  0  0  0  0  0999 V2000
   16.0488   -9.5191  -18.6793 N   0  0  0  0  0  0  0  0  0  0  0  0
   16.5361   -8.1732  -18.4773 C   0  0  1  0  0  0  0  0  0  0  0  0
   15.5408   -7.4539  -17.6074 C   0  0  0  0  0  0  0  0  0  0  0  0
   14.3073   -7.2302  -18.3839 C   0  0  0  0  0  0  0  0  0  0  0  0
   14.3892   -6.9892  -19.6070 O   0  0  0  0  0  0  0  0  0  0  0  0
   17.8920   -8.1927  -17.8935 C   0  0  0  0  0  0  0  0  0  0  0  0
   18.0888   -8.8080  -16.8142 O   0  0  0  0  0  0  0  0  0  0  0  0
   13.0493   -7.2767  -17.8078 O   0  0  0  0  0  0  0  0  0  0  0  0
   21.2887   -6.8576  -18.9581 C   0  0  0  0  0  0  0  0  0  0  0  0
   20.2964   -7.4421  -17.9629 C   0  0  2  0  0  0  0  0  0  0  0  0
   18.9790   -7.5426  -18.5064 N   0  0  0  0  0  0  0  0  0  0  0  0
   20.2608   -6.5084  -16.8065 C   0  0  0  0  0  0  0  0  0  0  0  0
   19.4630   -5.5330  -16.7847 O   0  0  0  0  0  0  0  0  0  0  0  0
   21.1065   -6.6582  -15.6819 N   0  0  0  0  0  0  0  0  0  0  0  0
   21.1309   -5.7046  -14.5676 C   0  0  1  0  0  0  0  0  0  0  0  0
   21.5424   -6.5237  -13.3638 C   0  0  0  0  0  0  0  0  0  0  0  0
   20.4432   -7.3914  -12.9248 C   0  0  0  0  0  0  0  0  0  0  0  0
   19.1981   -7.3816  -13.5250 C   0  0  0  0  0  0  0  0  0  0  0  0
   18.4557   -8.2845  -12.8782 N   0  0  0  0  0  0  0  0  0  0  0  0
   19.1969   -8.8457  -11.9069 C   0  0  0  0  0  0  0  0  0  0  0  0
   20.4183   -8.2917  -11.9413 N   0  0  0  0  0  0  0  0  0  0  0  0
   22.1338   -4.6532  -14.7767 C   0  0  0  0  0  0  0  0  0  0  0  0
   22.9394   -4.5247  -15.8701 O   0  0  0  0  0  0  0  0  0  0  0  0
   22.2698   -3.7787  -13.8582 O   0  0  0  0  0  0  0  0  0  0  0  0
  2  1  1  1
  2  3  1  0
  3  4  1  0
  4  8  1  0
  5  4  2  0
  6 11  1  0
  6  2  1  0
  7  6  2  0
 10  9  1  6
 10 12  1  0
 10 11  1  0
 12 14  1  0
 13 12  2  0
 14 15  1  0
 15 22  1  0
 15 16  1  1
 17 16  1  0
 17 18  2  0
 19 18  1  0
 20 19  1  0
 21 20  2  0
 21 17  1  0
 22 23  1  0
 24 22  2  0
M  END
$$$$
