DAH.pdb
     RDKit          3D

 24 24  0  0  1  0  0  0  0  0999 V2000
   19.0854  -13.1027  -16.7896 N   0  0  0  0  0  0  0  0  0  0  0  0
   18.4447  -11.8231  -16.5843 C   0  0  1  0  0  0  0  0  0  0  0  0
   17.5002  -11.9678  -15.4218 C   0  0  0  0  0  0  0  0  0  0  0  0
   16.1559  -12.2829  -15.9396 C   0  0  0  0  0  0  0  0  0  0  0  0
   15.9509  -12.2484  -17.1716 O   0  0  0  0  0  0  0  0  0  0  0  0
   19.4518  -10.7650  -16.3705 C   0  0  0  0  0  0  0  0  0  0  0  0
   20.3192  -10.9133  -15.4717 O   0  0  0  0  0  0  0  0  0  0  0  0
   15.1006  -12.6189  -15.1088 O   0  0  0  0  0  0  0  0  0  0  0  0
   20.2178   -7.4291  -18.0325 C   0  0  0  0  0  0  0  0  0  0  0  0
   20.3829   -8.4999  -16.9636 C   0  0  2  0  0  0  0  0  0  0  0  0
   19.4754   -9.5887  -17.1422 N   0  0  0  0  0  0  0  0  0  0  0  0
   20.0854   -7.8451  -15.6623 C   0  0  0  0  0  0  0  0  0  0  0  0
   18.9099   -7.8060  -15.2097 O   0  0  0  0  0  0  0  0  0  0  0  0
   21.0882   -7.2379  -14.8698 N   0  0  0  0  0  0  0  0  0  0  0  0
   20.7992   -6.5378  -13.6136 C   0  0  1  0  0  0  0  0  0  0  0  0
   21.6496   -7.2359  -12.5750 C   0  0  0  0  0  0  0  0  0  0  0  0
   21.4540   -6.6325  -11.2516 C   0  0  0  0  0  0  0  0  0  0  0  0
   20.2460   -6.0972  -10.8456 C   0  0  0  0  0  0  0  0  0  0  0  0
   20.4286   -5.6423   -9.6029 N   0  0  0  0  0  0  0  0  0  0  0  0
   21.6996   -5.8779   -9.2330 C   0  0  0  0  0  0  0  0  0  0  0  0
   22.3246   -6.4871  -10.2519 N   0  0  0  0  0  0  0  0  0  0  0  0
   21.2058   -5.1285  -13.6734 C   0  0  0  0  0  0  0  0  0  0  0  0
   20.6999   -4.1188  -12.9082 O   0  0  0  0  0  0  0  0  0  0  0  0
   22.1119   -4.8126  -14.5136 O   0  0  0  0  0  0  0  0  0  0  0  0
  2  1  1  1
  2  3  1  0
  3  4  1  0
  4  8  1  0
  5  4  2  0
  6 11  1  0
  6  2  1  0
  7  6  2  0
 10  9  1  6
 10 12  1  0
 10 11  1  0
 12 14  1  0
 13 12  2  0
 14 15  1  0
 15 22  1  0
 15 16  1  1
 17 16  1  0
 17 18  2  0
 19 18  1  0
 20 19  1  0
 21 20  2  0
 21 17  1  0
 22 23  1  0
 24 22  2  0
M  END
$$$$
