DAH.pdb
     RDKit          3D

 24 24  0  0  1  0  0  0  0  0999 V2000
   20.0897  -12.8779  -16.9557 N   0  0  0  0  0  0  0  0  0  0  0  0
   19.2386  -11.8782  -16.3505 C   0  0  1  0  0  0  0  0  0  0  0  0
   18.2126  -12.5973  -15.5170 C   0  0  0  0  0  0  0  0  0  0  0  0
   17.5112  -13.5757  -16.3687 C   0  0  0  0  0  0  0  0  0  0  0  0
   16.8536  -14.4930  -15.8331 O   0  0  0  0  0  0  0  0  0  0  0  0
   20.0399  -10.9197  -15.5638 C   0  0  0  0  0  0  0  0  0  0  0  0
   19.4732  -10.2162  -14.6885 O   0  0  0  0  0  0  0  0  0  0  0  0
   17.5518  -13.5194  -17.7514 O   0  0  0  0  0  0  0  0  0  0  0  0
   23.7406  -10.0719  -15.3557 C   0  0  0  0  0  0  0  0  0  0  0  0
   22.2663   -9.8615  -15.0415 C   0  0  2  0  0  0  0  0  0  0  0  0
   21.4244  -10.7645  -15.7605 N   0  0  0  0  0  0  0  0  0  0  0  0
   21.9400   -8.4736  -15.4634 C   0  0  0  0  0  0  0  0  0  0  0  0
   21.4263   -8.2422  -16.5907 O   0  0  0  0  0  0  0  0  0  0  0  0
   22.1834   -7.3507  -14.6373 N   0  0  0  0  0  0  0  0  0  0  0  0
   21.7902   -5.9867  -15.0067 C   0  0  1  0  0  0  0  0  0  0  0  0
   20.2788   -6.0206  -15.0671 C   0  0  0  0  0  0  0  0  0  0  0  0
   19.7449   -4.7136  -15.4677 C   0  0  0  0  0  0  0  0  0  0  0  0
   20.5530   -3.6712  -15.8814 C   0  0  0  0  0  0  0  0  0  0  0  0
   19.7415   -2.6487  -16.1649 N   0  0  0  0  0  0  0  0  0  0  0  0
   18.4699   -3.0239  -15.9411 C   0  0  0  0  0  0  0  0  0  0  0  0
   18.4794   -4.2952  -15.5125 N   0  0  0  0  0  0  0  0  0  0  0  0
   22.1908   -5.0123  -13.9843 C   0  0  0  0  0  0  0  0  0  0  0  0
   22.3796   -3.6764  -14.1856 O   0  0  0  0  0  0  0  0  0  0  0  0
   22.3815   -5.4465  -12.8003 O   0  0  0  0  0  0  0  0  0  0  0  0
  2  1  1  1
  2  3  1  0
  3  4  1  0
  4  8  1  0
  5  4  2  0
  6 11  1  0
  6  2  1  0
  7  6  2  0
 10  9  1  6
 10 12  1  0
 10 11  1  0
 12 14  1  0
 13 12  2  0
 14 15  1  0
 15 22  1  0
 15 16  1  1
 17 16  1  0
 17 18  2  0
 19 18  1  0
 20 19  1  0
 21 20  2  0
 21 17  1  0
 22 23  1  0
 24 22  2  0
M  END
$$$$
