DAH.pdb
     RDKit          3D

 24 24  0  0  1  0  0  0  0  0999 V2000
   22.8517   -7.7486  -18.7185 N   0  0  0  0  0  0  0  0  0  0  0  0
   22.9102   -8.5656  -17.5274 C   0  0  1  0  0  0  0  0  0  0  0  0
   24.1721   -9.3824  -17.5965 C   0  0  0  0  0  0  0  0  0  0  0  0
   24.0857  -10.2910  -18.7548 C   0  0  0  0  0  0  0  0  0  0  0  0
   23.9533   -9.8110  -19.9007 O   0  0  0  0  0  0  0  0  0  0  0  0
   22.8428   -7.7248  -16.3157 C   0  0  0  0  0  0  0  0  0  0  0  0
   22.9053   -8.2700  -15.1838 O   0  0  0  0  0  0  0  0  0  0  0  0
   24.1459  -11.6679  -18.6239 O   0  0  0  0  0  0  0  0  0  0  0  0
   22.9404   -4.0315  -15.5516 C   0  0  0  0  0  0  0  0  0  0  0  0
   22.4978   -5.4597  -15.2670 C   0  0  2  0  0  0  0  0  0  0  0  0
   22.7101   -6.3257  -16.3833 N   0  0  0  0  0  0  0  0  0  0  0  0
   21.0391   -5.4001  -14.9857 C   0  0  0  0  0  0  0  0  0  0  0  0
   20.5677   -4.5515  -14.1820 O   0  0  0  0  0  0  0  0  0  0  0  0
   20.1109   -6.2781  -15.5939 N   0  0  0  0  0  0  0  0  0  0  0  0
   18.6595   -6.1474  -15.4269 C   0  0  1  0  0  0  0  0  0  0  0  0
   18.2177   -5.2446  -16.5578 C   0  0  0  0  0  0  0  0  0  0  0  0
   17.5744   -4.0334  -16.0353 C   0  0  0  0  0  0  0  0  0  0  0  0
   16.6301   -4.0647  -15.0264 C   0  0  0  0  0  0  0  0  0  0  0  0
   16.2644   -2.7988  -14.8066 N   0  0  0  0  0  0  0  0  0  0  0  0
   16.9471   -1.9949  -15.6406 C   0  0  0  0  0  0  0  0  0  0  0  0
   17.7510   -2.7610  -16.3935 N   0  0  0  0  0  0  0  0  0  0  0  0
   17.9791   -7.4399  -15.5739 C   0  0  0  0  0  0  0  0  0  0  0  0
   16.9226   -7.8750  -14.8287 O   0  0  0  0  0  0  0  0  0  0  0  0
   18.4091   -8.2319  -16.4765 O   0  0  0  0  0  0  0  0  0  0  0  0
  2  1  1  6
  2  3  1  0
  3  4  1  0
  4  8  1  0
  5  4  2  0
  6 11  1  0
  6  2  1  0
  7  6  2  0
 10  9  1  6
 10 12  1  0
 10 11  1  0
 12 14  1  0
 13 12  2  0
 14 15  1  0
 15 22  1  0
 15 16  1  6
 17 16  1  0
 17 18  2  0
 19 18  1  0
 20 19  1  0
 21 20  2  0
 21 17  1  0
 22 23  1  0
 24 22  2  0
M  END
$$$$
