DAH.pdb
     RDKit          3D

 24 24  0  0  1  0  0  0  0  0999 V2000
   26.8687  -34.9128   -2.5290 N   0  0  0  0  0  0  0  0  0  0  0  0
   28.1387  -35.3625   -3.0530 C   0  0  1  0  0  0  0  0  0  0  0  0
   28.6337  -34.3130   -4.0112 C   0  0  0  0  0  0  0  0  0  0  0  0
   27.6824  -34.2091   -5.1332 C   0  0  0  0  0  0  0  0  0  0  0  0
   27.9349  -33.4340   -6.0799 O   0  0  0  0  0  0  0  0  0  0  0  0
   29.0910  -35.6251   -1.9558 C   0  0  0  0  0  0  0  0  0  0  0  0
   29.2549  -34.7558   -1.0616 O   0  0  0  0  0  0  0  0  0  0  0  0
   26.5092  -34.9425   -5.1816 O   0  0  0  0  0  0  0  0  0  0  0  0
   31.1496  -38.6247   -0.8712 C   0  0  0  0  0  0  0  0  0  0  0  0
   30.7527  -37.1556   -0.8397 C   0  0  2  0  0  0  0  0  0  0  0  0
   29.8264  -36.8219   -1.8749 N   0  0  0  0  0  0  0  0  0  0  0  0
   32.0015  -36.3776   -1.0540 C   0  0  0  0  0  0  0  0  0  0  0  0
   32.0773  -35.5111   -1.9658 O   0  0  0  0  0  0  0  0  0  0  0  0
   33.1580  -36.5620   -0.2597 N   0  0  0  0  0  0  0  0  0  0  0  0
   34.3616  -35.7350   -0.3965 C   0  0  1  0  0  0  0  0  0  0  0  0
   33.9229  -34.3416   -0.0027 C   0  0  0  0  0  0  0  0  0  0  0  0
   35.0694  -33.4263    0.0341 C   0  0  0  0  0  0  0  0  0  0  0  0
   36.2222  -33.6427   -0.6972 C   0  0  0  0  0  0  0  0  0  0  0  0
   37.0431  -32.6245   -0.4257 N   0  0  0  0  0  0  0  0  0  0  0  0
   36.4387  -31.7943    0.4423 C   0  0  0  0  0  0  0  0  0  0  0  0
   35.2250  -32.2936    0.7208 N   0  0  0  0  0  0  0  0  0  0  0  0
   35.4210  -36.1643    0.5247 C   0  0  0  0  0  0  0  0  0  0  0  0
   36.7481  -36.2622    0.2247 O   0  0  0  0  0  0  0  0  0  0  0  0
   35.0770  -36.4753    1.7129 O   0  0  0  0  0  0  0  0  0  0  0  0
  2  1  1  1
  2  3  1  0
  3  4  1  0
  4  8  1  0
  5  4  2  0
  6 11  1  0
  6  2  1  0
  7  6  2  0
 10  9  1  6
 10 12  1  0
 10 11  1  0
 12 14  1  0
 13 12  2  0
 14 15  1  0
 15 22  1  0
 15 16  1  1
 17 16  1  0
 17 18  2  0
 19 18  1  0
 20 19  1  0
 21 20  2  0
 21 17  1  0
 22 23  1  0
 24 22  2  0
M  END
$$$$
