DAH.pdb
     RDKit          3D

 24 24  0  0  1  0  0  0  0  0999 V2000
   16.6972  -15.4529  -14.0960 N   0  0  0  0  0  0  0  0  0  0  0  0
   15.9653  -14.2785  -14.5144 C   0  0  1  0  0  0  0  0  0  0  0  0
   14.5772  -14.3786  -13.9419 C   0  0  0  0  0  0  0  0  0  0  0  0
   13.8896  -15.5254  -14.5638 C   0  0  0  0  0  0  0  0  0  0  0  0
   13.7410  -16.5787  -13.9086 O   0  0  0  0  0  0  0  0  0  0  0  0
   16.6671  -13.0501  -14.0924 C   0  0  0  0  0  0  0  0  0  0  0  0
   16.9094  -12.8679  -12.8717 O   0  0  0  0  0  0  0  0  0  0  0  0
   13.3969  -15.4828  -15.8569 O   0  0  0  0  0  0  0  0  0  0  0  0
   18.1338  -10.0534  -15.9240 C   0  0  0  0  0  0  0  0  0  0  0  0
   17.7896  -10.8745  -14.6895 C   0  0  2  0  0  0  0  0  0  0  0  0
   17.0771  -12.0694  -15.0144 N   0  0  0  0  0  0  0  0  0  0  0  0
   16.9159  -10.0181  -13.8446 C   0  0  0  0  0  0  0  0  0  0  0  0
   15.6668  -10.0019  -14.0114 O   0  0  0  0  0  0  0  0  0  0  0  0
   17.4276   -9.1854  -12.8213 N   0  0  0  0  0  0  0  0  0  0  0  0
   16.5787   -8.3189  -11.9968 C   0  0  1  0  0  0  0  0  0  0  0  0
   16.9175   -8.6873  -10.5690 C   0  0  0  0  0  0  0  0  0  0  0  0
   16.0920   -7.9246   -9.6252 C   0  0  0  0  0  0  0  0  0  0  0  0
   15.1095   -7.0430  -10.0350 C   0  0  0  0  0  0  0  0  0  0  0  0
   14.5671   -6.5336   -8.9256 N   0  0  0  0  0  0  0  0  0  0  0  0
   15.1785   -7.0683   -7.8541 C   0  0  0  0  0  0  0  0  0  0  0  0
   16.1154   -7.9230   -8.2918 N   0  0  0  0  0  0  0  0  0  0  0  0
   16.8976   -6.8999  -12.1968 C   0  0  0  0  0  0  0  0  0  0  0  0
   17.9819   -6.4122  -12.8655 O   0  0  0  0  0  0  0  0  0  0  0  0
   16.0938   -6.0410  -11.7037 O   0  0  0  0  0  0  0  0  0  0  0  0
  2  1  1  1
  2  3  1  0
  3  4  1  0
  4  8  1  0
  5  4  2  0
  6 11  1  0
  6  2  1  0
  7  6  2  0
 10  9  1  6
 10 12  1  0
 10 11  1  0
 12 14  1  0
 13 12  2  0
 14 15  1  0
 15 22  1  0
 15 16  1  1
 17 16  1  0
 17 18  2  0
 19 18  1  0
 20 19  1  0
 21 20  2  0
 21 17  1  0
 22 23  1  0
 24 22  2  0
M  END
$$$$
