DAH.pdb
     RDKit          3D

 24 24  0  0  1  0  0  0  0  0999 V2000
   16.8463  -15.2348  -16.2064 N   0  0  0  0  0  0  0  0  0  0  0  0
   16.4756  -14.3045  -15.1639 C   0  0  1  0  0  0  0  0  0  0  0  0
   17.3701  -14.5643  -13.9820 C   0  0  0  0  0  0  0  0  0  0  0  0
   16.9012  -15.7797  -13.2909 C   0  0  0  0  0  0  0  0  0  0  0  0
   15.6741  -15.9747  -13.1604 O   0  0  0  0  0  0  0  0  0  0  0  0
   16.5665  -12.9137  -15.6509 C   0  0  0  0  0  0  0  0  0  0  0  0
   17.5721  -12.5597  -16.3184 O   0  0  0  0  0  0  0  0  0  0  0  0
   17.7733  -16.7233  -12.7754 O   0  0  0  0  0  0  0  0  0  0  0  0
   14.2627   -9.8890  -15.5219 C   0  0  0  0  0  0  0  0  0  0  0  0
   15.5570  -10.6146  -15.8612 C   0  0  2  0  0  0  0  0  0  0  0  0
   15.5608  -11.9642  -15.3927 N   0  0  0  0  0  0  0  0  0  0  0  0
   16.6476   -9.8728  -15.1749 C   0  0  0  0  0  0  0  0  0  0  0  0
   17.4664  -10.4699  -14.4257 O   0  0  0  0  0  0  0  0  0  0  0  0
   16.8265   -8.4767  -15.3207 N   0  0  0  0  0  0  0  0  0  0  0  0
   17.9342   -7.7437  -14.6985 C   0  0  1  0  0  0  0  0  0  0  0  0
   19.1629   -8.1627  -15.4756 C   0  0  0  0  0  0  0  0  0  0  0  0
   20.3580   -7.4795  -14.9670 C   0  0  0  0  0  0  0  0  0  0  0  0
   21.1519   -8.0079  -13.9664 C   0  0  0  0  0  0  0  0  0  0  0  0
   22.1378   -7.1308  -13.7583 N   0  0  0  0  0  0  0  0  0  0  0  0
   21.9786   -6.0876  -14.5914 C   0  0  0  0  0  0  0  0  0  0  0  0
   20.8819   -6.3087  -15.3320 N   0  0  0  0  0  0  0  0  0  0  0  0
   17.7698   -6.2918  -14.8403 C   0  0  0  0  0  0  0  0  0  0  0  0
   17.2312   -5.6510  -15.9174 O   0  0  0  0  0  0  0  0  0  0  0  0
   18.1637   -5.5579  -13.8743 O   0  0  0  0  0  0  0  0  0  0  0  0
  2  1  1  6
  2  3  1  0
  3  4  1  0
  4  8  1  0
  5  4  2  0
  6 11  1  0
  6  2  1  0
  7  6  2  0
 10  9  1  1
 10 12  1  0
 10 11  1  0
 12 14  1  0
 13 12  2  0
 14 15  1  0
 15 22  1  0
 15 16  1  6
 17 16  1  0
 17 18  2  0
 19 18  1  0
 20 19  1  0
 21 20  2  0
 21 17  1  0
 22 23  1  0
 24 22  2  0
M  END
$$$$
