DAH.pdb
     RDKit          3D

 24 24  0  0  1  0  0  0  0  0999 V2000
   24.2366  -16.6690  -20.4808 N   0  0  0  0  0  0  0  0  0  0  0  0
   24.4870  -16.4900  -19.0683 C   0  0  1  0  0  0  0  0  0  0  0  0
   23.9140  -15.1571  -18.6692 C   0  0  0  0  0  0  0  0  0  0  0  0
   24.6879  -14.0909  -19.3318 C   0  0  0  0  0  0  0  0  0  0  0  0
   25.9353  -14.1594  -19.3473 O   0  0  0  0  0  0  0  0  0  0  0  0
   23.9167  -17.6094  -18.2927 C   0  0  0  0  0  0  0  0  0  0  0  0
   22.7829  -18.0579  -18.6018 O   0  0  0  0  0  0  0  0  0  0  0  0
   24.0834  -13.0061  -19.9436 O   0  0  0  0  0  0  0  0  0  0  0  0
   25.1936  -19.9175  -15.5715 C   0  0  0  0  0  0  0  0  0  0  0  0
   24.0964  -19.2429  -16.3826 C   0  0  2  0  0  0  0  0  0  0  0  0
   24.6019  -18.1958  -17.2127 N   0  0  0  0  0  0  0  0  0  0  0  0
   23.1496  -18.6522  -15.4003 C   0  0  0  0  0  0  0  0  0  0  0  0
   23.1993  -17.4275  -15.1072 O   0  0  0  0  0  0  0  0  0  0  0  0
   22.1541  -19.4180  -14.7484 N   0  0  0  0  0  0  0  0  0  0  0  0
   21.0401  -18.8162  -14.0079 C   0  0  1  0  0  0  0  0  0  0  0  0
   20.6344  -17.6109  -14.8276 C   0  0  0  0  0  0  0  0  0  0  0  0
   19.5090  -16.9094  -14.1990 C   0  0  0  0  0  0  0  0  0  0  0  0
   19.3069  -16.8954  -12.8316 C   0  0  0  0  0  0  0  0  0  0  0  0
   18.2045  -16.1724  -12.6162 N   0  0  0  0  0  0  0  0  0  0  0  0
   17.7245  -15.7439  -13.7967 C   0  0  0  0  0  0  0  0  0  0  0  0
   18.5318  -16.2008  -14.7660 N   0  0  0  0  0  0  0  0  0  0  0  0
   19.8915  -19.7266  -13.9238 C   0  0  0  0  0  0  0  0  0  0  0  0
   18.9795  -19.7692  -12.9102 O   0  0  0  0  0  0  0  0  0  0  0  0
   19.7256  -20.5544  -14.8798 O   0  0  0  0  0  0  0  0  0  0  0  0
  2  1  1  6
  2  3  1  0
  3  4  1  0
  4  8  1  0
  5  4  2  0
  6 11  1  0
  6  2  1  0
  7  6  2  0
 10  9  1  1
 10 12  1  0
 10 11  1  0
 12 14  1  0
 13 12  2  0
 14 15  1  0
 15 22  1  0
 15 16  1  6
 17 16  1  0
 17 18  2  0
 19 18  1  0
 20 19  1  0
 21 20  2  0
 21 17  1  0
 22 23  1  0
 24 22  2  0
M  END
$$$$
