HWS.pdb
     RDKit          3D

 31 33  0  0  1  0  0  0  0  0999 V2000
   23.9582  -18.6323  -20.7570 N   0  0  0  0  0  0  0  0  0  0  0  0
   22.6591  -19.3226  -20.7199 C   0  0  1  0  0  0  0  0  0  0  0  0
   22.8654  -20.7878  -20.5442 C   0  0  0  0  0  0  0  0  0  0  0  0
   23.5541  -21.4222  -21.6825 C   0  0  0  0  0  0  0  0  0  0  0  0
   24.8778  -21.9055  -21.6171 C   0  0  0  0  0  0  0  0  0  0  0  0
   25.1999  -22.4185  -22.8111 N   0  0  0  0  0  0  0  0  0  0  0  0
   24.1497  -22.2913  -23.6470 C   0  0  0  0  0  0  0  0  0  0  0  0
   23.1808  -21.6903  -22.9387 N   0  0  0  0  0  0  0  0  0  0  0  0
   21.8723  -18.7759  -19.5754 C   0  0  0  0  0  0  0  0  0  0  0  0
   22.3225  -18.7648  -18.4286 O   0  0  0  0  0  0  0  0  0  0  0  0
   20.5659  -18.2481  -19.7916 N   0  0  0  0  0  0  0  0  0  0  0  0
   19.8119  -17.6477  -18.6788 C   0  0  1  0  0  0  0  0  0  0  0  0
   19.1684  -16.3739  -19.2421 C   0  0  0  0  0  0  0  0  0  0  0  0
   20.1677  -15.3002  -19.2672 C   0  0  0  0  0  0  0  0  0  0  0  0
   21.5433  -15.3855  -19.2520 C   0  0  0  0  0  0  0  0  0  0  0  0
   22.0823  -14.1658  -19.2856 N   0  0  0  0  0  0  0  0  0  0  0  0
   21.0775  -13.2498  -19.3237 C   0  0  0  0  0  0  0  0  0  0  0  0
   21.0981  -11.8680  -19.3673 C   0  0  0  0  0  0  0  0  0  0  0  0
   19.8953  -11.1908  -19.3996 C   0  0  0  0  0  0  0  0  0  0  0  0
   18.6938  -11.8762  -19.3889 C   0  0  0  0  0  0  0  0  0  0  0  0
   18.6900  -13.2458  -19.3456 C   0  0  0  0  0  0  0  0  0  0  0  0
   19.8894  -13.9305  -19.3129 C   0  0  0  0  0  0  0  0  0  0  0  0
   18.7012  -18.5328  -18.2651 C   0  0  0  0  0  0  0  0  0  0  0  0
   17.8869  -18.9773  -19.1131 O   0  0  0  0  0  0  0  0  0  0  0  0
   17.8963  -19.3905  -14.1874 O   0  0  0  0  0  0  0  0  0  0  0  0
   17.5460  -20.3246  -15.1301 C   0  0  0  0  0  0  0  0  0  0  0  0
   17.3598  -19.7401  -16.5132 C   0  0  2  0  0  0  0  0  0  0  0  0
   18.4851  -18.9307  -16.9141 N   0  0  0  0  0  0  0  0  0  0  0  0
   16.1650  -18.8560  -16.4917 C   0  0  0  0  0  0  0  0  0  0  0  0
   14.8715  -19.3512  -16.5613 O   0  0  0  0  0  0  0  0  0  0  0  0
   16.3645  -17.6173  -16.4068 O   0  0  0  0  0  0  0  0  0  0  0  0
  2  1  1  1
  2  3  1  0
  3  4  1  0
  4  5  2  0
  6  5  1  0
  7  6  1  0
  8  7  2  0
  8  4  1  0
  9  2  1  0
 10  9  2  0
 11  9  1  0
 12 11  1  0
 12 13  1  6
 14 13  1  0
 14 22  1  0
 15 16  1  0
 15 14  2  0
 16 17  1  0
 17 18  2  0
 17 22  1  0
 18 19  1  0
 19 20  2  0
 21 20  1  0
 22 21  2  0
 23 12  1  0
 23 28  1  0
 24 23  2  0
 26 25  1  0
 27 28  1  0
 27 26  1  1
 29 27  1  0
 29 30  1  0
 31 29  2  0
M  END
$$$$
