HWS.pdb
     RDKit          3D

 31 33  0  0  1  0  0  0  0  0999 V2000
   17.1203  -12.0482  -15.2215 N   0  0  0  0  0  0  0  0  0  0  0  0
   16.3409  -10.8160  -15.0215 C   0  0  1  0  0  0  0  0  0  0  0  0
   14.8932  -11.1441  -14.8922 C   0  0  0  0  0  0  0  0  0  0  0  0
   14.3099  -11.7112  -16.1213 C   0  0  0  0  0  0  0  0  0  0  0  0
   13.8343  -10.9228  -17.1899 C   0  0  0  0  0  0  0  0  0  0  0  0
   13.3720  -11.7395  -18.1448 N   0  0  0  0  0  0  0  0  0  0  0  0
   13.5248  -13.0187  -17.7471 C   0  0  0  0  0  0  0  0  0  0  0  0
   14.0895  -12.9655  -16.5306 N   0  0  0  0  0  0  0  0  0  0  0  0
   16.8282  -10.1520  -13.7767 C   0  0  0  0  0  0  0  0  0  0  0  0
   17.0192  -10.7868  -12.7382 O   0  0  0  0  0  0  0  0  0  0  0  0
   17.0857   -8.7500  -13.7667 N   0  0  0  0  0  0  0  0  0  0  0  0
   17.6723   -8.1093  -12.5780 C   0  0  1  0  0  0  0  0  0  0  0  0
   18.6676   -7.0681  -13.1063 C   0  0  0  0  0  0  0  0  0  0  0  0
   19.9095   -7.7441  -13.4973 C   0  0  0  0  0  0  0  0  0  0  0  0
   20.4421   -7.9364  -14.7539 C   0  0  0  0  0  0  0  0  0  0  0  0
   21.5941   -8.6037  -14.6704 N   0  0  0  0  0  0  0  0  0  0  0  0
   21.8478   -8.8664  -13.3602 C   0  0  0  0  0  0  0  0  0  0  0  0
   22.8970   -9.5225  -12.7434 C   0  0  0  0  0  0  0  0  0  0  0  0
   22.8850   -9.6388  -11.3677 C   0  0  0  0  0  0  0  0  0  0  0  0
   21.8478   -9.1119  -10.6192 C   0  0  0  0  0  0  0  0  0  0  0  0
   20.8151   -8.4645  -11.2453 C   0  0  0  0  0  0  0  0  0  0  0  0
   20.8199   -8.3440  -12.6215 C   0  0  0  0  0  0  0  0  0  0  0  0
   16.6402   -7.3619  -11.8269 C   0  0  0  0  0  0  0  0  0  0  0  0
   15.6817   -6.8144  -12.4279 O   0  0  0  0  0  0  0  0  0  0  0  0
   15.5629   -8.1885   -7.8953 O   0  0  0  0  0  0  0  0  0  0  0  0
   15.6745   -6.8539   -8.1958 C   0  0  0  0  0  0  0  0  0  0  0  0
   15.6014   -6.5651   -9.6792 C   0  0  2  0  0  0  0  0  0  0  0  0
   16.6621   -7.2159  -10.4096 N   0  0  0  0  0  0  0  0  0  0  0  0
   15.7602   -5.1008   -9.8804 C   0  0  0  0  0  0  0  0  0  0  0  0
   14.8426   -4.1796   -9.3982 O   0  0  0  0  0  0  0  0  0  0  0  0
   16.7736   -4.7116  -10.5152 O   0  0  0  0  0  0  0  0  0  0  0  0
  2  1  1  1
  2  3  1  0
  3  4  1  0
  4  5  2  0
  6  5  1  0
  7  6  1  0
  8  7  2  0
  8  4  1  0
  9  2  1  0
 10  9  2  0
 11  9  1  0
 12 11  1  0
 12 13  1  6
 14 13  1  0
 14 22  1  0
 15 16  1  0
 15 14  2  0
 16 17  1  0
 17 18  2  0
 17 22  1  0
 18 19  1  0
 19 20  2  0
 21 20  1  0
 22 21  2  0
 23 12  1  0
 23 28  1  0
 24 23  2  0
 26 25  1  0
 27 28  1  0
 27 26  1  1
 29 27  1  0
 29 30  1  0
 31 29  2  0
M  END
$$$$
