HWS.pdb
     RDKit          3D

 31 33  0  0  1  0  0  0  0  0999 V2000
   28.7979  -22.5448  -16.1747 N   0  0  0  0  0  0  0  0  0  0  0  0
   28.0095  -21.3518  -15.8272 C   0  0  1  0  0  0  0  0  0  0  0  0
   27.2990  -20.8415  -17.0334 C   0  0  0  0  0  0  0  0  0  0  0  0
   28.2042  -20.2776  -18.0508 C   0  0  0  0  0  0  0  0  0  0  0  0
   28.7577  -21.0364  -19.1033 C   0  0  0  0  0  0  0  0  0  0  0  0
   29.5293  -20.2315  -19.8443 N   0  0  0  0  0  0  0  0  0  0  0  0
   29.5031  -18.9882  -19.3235 C   0  0  0  0  0  0  0  0  0  0  0  0
   28.6999  -19.0512  -18.2499 N   0  0  0  0  0  0  0  0  0  0  0  0
   27.0221  -21.7346  -14.7755 C   0  0  0  0  0  0  0  0  0  0  0  0
   26.4366  -22.8183  -14.8027 O   0  0  0  0  0  0  0  0  0  0  0  0
   26.7342  -20.8398  -13.7037 N   0  0  0  0  0  0  0  0  0  0  0  0
   25.7575  -21.2104  -12.6664 C   0  0  1  0  0  0  0  0  0  0  0  0
   26.0710  -20.3241  -11.4539 C   0  0  0  0  0  0  0  0  0  0  0  0
   27.2376  -20.8670  -10.7493 C   0  0  0  0  0  0  0  0  0  0  0  0
   28.3336  -21.5319  -11.2558 C   0  0  0  0  0  0  0  0  0  0  0  0
   29.1715  -21.8588  -10.2708 N   0  0  0  0  0  0  0  0  0  0  0  0
   28.6494  -21.4184   -9.0946 C   0  0  0  0  0  0  0  0  0  0  0  0
   29.1168  -21.5015   -7.7960 C   0  0  0  0  0  0  0  0  0  0  0  0
   28.3549  -20.9520   -6.7841 C   0  0  0  0  0  0  0  0  0  0  0  0
   27.1498  -20.3310   -7.0594 C   0  0  0  0  0  0  0  0  0  0  0  0
   26.7002  -20.2567   -8.3516 C   0  0  0  0  0  0  0  0  0  0  0  0
   27.4568  -20.8042   -9.3696 C   0  0  0  0  0  0  0  0  0  0  0  0
   24.3850  -20.8651  -13.0966 C   0  0  0  0  0  0  0  0  0  0  0  0
   24.1288  -19.7286  -13.5685 O   0  0  0  0  0  0  0  0  0  0  0  0
   21.1331  -23.6177  -12.8499 O   0  0  0  0  0  0  0  0  0  0  0  0
   21.2063  -22.7190  -13.8848 C   0  0  0  0  0  0  0  0  0  0  0  0
   21.9834  -21.4678  -13.5387 C   0  0  2  0  0  0  0  0  0  0  0  0
   23.2901  -21.7725  -13.0077 N   0  0  0  0  0  0  0  0  0  0  0  0
   21.2392  -20.7300  -12.4844 C   0  0  0  0  0  0  0  0  0  0  0  0
   21.7516  -20.5336  -11.2108 O   0  0  0  0  0  0  0  0  0  0  0  0
   20.1051  -20.2782  -12.7868 O   0  0  0  0  0  0  0  0  0  0  0  0
  2  1  1  6
  2  3  1  0
  3  4  1  0
  4  5  2  0
  6  5  1  0
  7  6  1  0
  8  7  2  0
  8  4  1  0
  9  2  1  0
 10  9  2  0
 11  9  1  0
 12 11  1  0
 12 13  1  1
 14 13  1  0
 14 22  1  0
 15 16  1  0
 15 14  2  0
 16 17  1  0
 17 18  2  0
 17 22  1  0
 18 19  1  0
 19 20  2  0
 21 20  1  0
 22 21  2  0
 23 12  1  0
 23 28  1  0
 24 23  2  0
 26 25  1  0
 27 28  1  0
 27 26  1  1
 29 27  1  0
 29 30  1  0
 31 29  2  0
M  END
$$$$
