HWS.pdb
     RDKit          3D

 31 33  0  0  1  0  0  0  0  0999 V2000
   26.4206  -25.2499  -15.6426 N   0  0  0  0  0  0  0  0  0  0  0  0
   25.9882  -23.8619  -15.8708 C   0  0  1  0  0  0  0  0  0  0  0  0
   24.9167  -23.8256  -16.9056 C   0  0  0  0  0  0  0  0  0  0  0  0
   25.4352  -23.8389  -18.2853 C   0  0  0  0  0  0  0  0  0  0  0  0
   25.3896  -24.9748  -19.1206 C   0  0  0  0  0  0  0  0  0  0  0  0
   25.9380  -24.6549  -20.2993 N   0  0  0  0  0  0  0  0  0  0  0  0
   26.3367  -23.3673  -20.2688 C   0  0  0  0  0  0  0  0  0  0  0  0
   26.0204  -22.9085  -19.0477 N   0  0  0  0  0  0  0  0  0  0  0  0
   25.4726  -23.3153  -14.5812 C   0  0  0  0  0  0  0  0  0  0  0  0
   24.9037  -24.0327  -13.7568 O   0  0  0  0  0  0  0  0  0  0  0  0
   25.6318  -21.9322  -14.2750 N   0  0  0  0  0  0  0  0  0  0  0  0
   25.0638  -21.3736  -13.0369 C   0  0  1  0  0  0  0  0  0  0  0  0
   25.8637  -20.0980  -12.7422 C   0  0  0  0  0  0  0  0  0  0  0  0
   26.9859  -20.4270  -11.8564 C   0  0  0  0  0  0  0  0  0  0  0  0
   28.2728  -20.8015  -12.1779 C   0  0  0  0  0  0  0  0  0  0  0  0
   28.9836  -21.0114  -11.0688 N   0  0  0  0  0  0  0  0  0  0  0  0
   28.1843  -20.7809   -9.9926 C   0  0  0  0  0  0  0  0  0  0  0  0
   28.4316  -20.8562   -8.6344 C   0  0  0  0  0  0  0  0  0  0  0  0
   27.4057  -20.5591   -7.7595 C   0  0  0  0  0  0  0  0  0  0  0  0
   26.1563  -20.1937   -8.2277 C   0  0  0  0  0  0  0  0  0  0  0  0
   25.9270  -20.1237   -9.5767 C   0  0  0  0  0  0  0  0  0  0  0  0
   26.9484  -20.4195  -10.4585 C   0  0  0  0  0  0  0  0  0  0  0  0
   23.6624  -20.9516  -13.2512 C   0  0  0  0  0  0  0  0  0  0  0  0
   23.3082  -20.4377  -14.3422 O   0  0  0  0  0  0  0  0  0  0  0  0
   20.7850  -20.6165  -10.1399 O   0  0  0  0  0  0  0  0  0  0  0  0
   20.3718  -21.1158  -11.3499 C   0  0  0  0  0  0  0  0  0  0  0  0
   21.2729  -20.7227  -12.5000 C   0  0  2  0  0  0  0  0  0  0  0  0
   22.6466  -21.0951  -12.2623 N   0  0  0  0  0  0  0  0  0  0  0  0
   21.2343  -19.2435  -12.6417 C   0  0  0  0  0  0  0  0  0  0  0  0
   22.3672  -18.4539  -12.5137 O   0  0  0  0  0  0  0  0  0  0  0  0
   20.1195  -18.7156  -12.8865 O   0  0  0  0  0  0  0  0  0  0  0  0
  2  1  1  1
  2  3  1  0
  3  4  1  0
  4  5  2  0
  6  5  1  0
  7  6  1  0
  8  7  2  0
  8  4  1  0
  9  2  1  0
 10  9  2  0
 11  9  1  0
 12 11  1  0
 12 13  1  6
 14 13  1  0
 14 22  1  0
 15 16  1  0
 15 14  2  0
 16 17  1  0
 17 18  2  0
 17 22  1  0
 18 19  1  0
 19 20  2  0
 21 20  1  0
 22 21  2  0
 23 12  1  0
 23 28  1  0
 24 23  2  0
 26 25  1  0
 27 28  1  0
 27 26  1  1
 29 27  1  0
 29 30  1  0
 31 29  2  0
M  END
$$$$
