HWS.pdb
     RDKit          3D

 31 33  0  0  1  0  0  0  0  0999 V2000
   27.9009  -22.1171  -15.5557 N   0  0  0  0  0  0  0  0  0  0  0  0
   27.5474  -20.8661  -14.8661 C   0  0  1  0  0  0  0  0  0  0  0  0
   26.7147  -20.0105  -15.7577 C   0  0  0  0  0  0  0  0  0  0  0  0
   27.4556  -19.4764  -16.9146 C   0  0  0  0  0  0  0  0  0  0  0  0
   28.2857  -18.3379  -16.8460 C   0  0  0  0  0  0  0  0  0  0  0  0
   28.8068  -18.1209  -18.0601 N   0  0  0  0  0  0  0  0  0  0  0  0
   28.3549  -19.0632  -18.9120 C   0  0  0  0  0  0  0  0  0  0  0  0
   27.5478  -19.8590  -18.1930 N   0  0  0  0  0  0  0  0  0  0  0  0
   26.7841  -21.2131  -13.6313 C   0  0  0  0  0  0  0  0  0  0  0  0
   25.8870  -22.0575  -13.6422 O   0  0  0  0  0  0  0  0  0  0  0  0
   27.0839  -20.5643  -12.3980 N   0  0  0  0  0  0  0  0  0  0  0  0
   26.2924  -20.8561  -11.1915 C   0  0  1  0  0  0  0  0  0  0  0  0
   26.9264  -20.0357  -10.0606 C   0  0  0  0  0  0  0  0  0  0  0  0
   26.3193  -20.4262   -8.7835 C   0  0  0  0  0  0  0  0  0  0  0  0
   25.1043  -21.0305   -8.5415 C   0  0  0  0  0  0  0  0  0  0  0  0
   24.9322  -21.2136   -7.2315 N   0  0  0  0  0  0  0  0  0  0  0  0
   26.0266  -20.7358   -6.5804 C   0  0  0  0  0  0  0  0  0  0  0  0
   26.3438  -20.6858   -5.2356 C   0  0  0  0  0  0  0  0  0  0  0  0
   27.5523  -20.1317   -4.8629 C   0  0  0  0  0  0  0  0  0  0  0  0
   28.4292  -19.6364   -5.8111 C   0  0  0  0  0  0  0  0  0  0  0  0
   28.1003  -19.6932   -7.1401 C   0  0  0  0  0  0  0  0  0  0  0  0
   26.8930  -20.2461   -7.5210 C   0  0  0  0  0  0  0  0  0  0  0  0
   24.9071  -20.3608  -11.3453 C   0  0  0  0  0  0  0  0  0  0  0  0
   24.6645  -19.1275  -11.3460 O   0  0  0  0  0  0  0  0  0  0  0  0
   21.8812  -23.0738  -11.7088 O   0  0  0  0  0  0  0  0  0  0  0  0
   21.4971  -21.8287  -12.1401 C   0  0  0  0  0  0  0  0  0  0  0  0
   22.4472  -20.7289  -11.7195 C   0  0  2  0  0  0  0  0  0  0  0  0
   23.7843  -21.2246  -11.4990 N   0  0  0  0  0  0  0  0  0  0  0  0
   21.9681  -20.1622  -10.4315 C   0  0  0  0  0  0  0  0  0  0  0  0
   20.7278  -19.5556  -10.3010 O   0  0  0  0  0  0  0  0  0  0  0  0
   22.7369  -20.2502   -9.4402 O   0  0  0  0  0  0  0  0  0  0  0  0
  2  1  1  6
  2  3  1  0
  3  4  1  0
  4  5  2  0
  6  5  1  0
  7  6  1  0
  8  7  2  0
  8  4  1  0
  9  2  1  0
 10  9  2  0
 11  9  1  0
 12 11  1  0
 12 13  1  1
 14 13  1  0
 14 22  1  0
 15 16  1  0
 15 14  2  0
 16 17  1  0
 17 18  2  0
 17 22  1  0
 18 19  1  0
 19 20  2  0
 21 20  1  0
 22 21  2  0
 23 12  1  0
 23 28  1  0
 24 23  2  0
 26 25  1  0
 27 28  1  0
 27 26  1  1
 29 27  1  0
 29 30  1  0
 31 29  2  0
M  END
$$$$
