KAI.pdb
     RDKit          3D

 23 22  0  0  1  0  0  0  0  0999 V2000
    8.2622  -19.3895   20.3296 N   0  0  0  0  0  0  0  0  0  0  0  0
    8.1181  -17.9822   20.1336 C   0  0  1  0  0  0  0  0  0  0  0  0
    7.3344  -17.5986   18.9089 C   0  0  0  0  0  0  0  0  0  0  0  0
    7.8908  -18.0884   17.6271 C   0  0  0  0  0  0  0  0  0  0  0  0
    9.2502  -17.6092   17.2737 C   0  0  0  0  0  0  0  0  0  0  0  0
    9.7454  -18.0875   15.9352 C   0  0  0  0  0  0  0  0  0  0  0  0
   11.1091  -17.5564   15.7878 N   0  0  0  0  0  0  0  0  0  0  0  0
    7.5891  -17.3500   21.3627 C   0  0  0  0  0  0  0  0  0  0  0  0
    7.2005  -16.1317   21.3767 O   0  0  0  0  0  0  0  0  0  0  0  0
    6.4898  -18.4744   24.8129 C   0  0  0  0  0  0  0  0  0  0  0  0
    6.8838  -17.4507   23.7888 C   0  0  2  0  0  0  0  0  0  0  0  0
    7.4743  -18.0372   22.6017 N   0  0  0  0  0  0  0  0  0  0  0  0
    7.7303  -16.3668   24.3440 C   0  0  0  0  0  0  0  0  0  0  0  0
    8.9814  -16.4170   24.1793 O   0  0  0  0  0  0  0  0  0  0  0  0
    6.8643  -10.8716   26.9783 C   0  0  0  0  0  0  0  0  0  0  0  0
    7.8994  -11.9245   26.6504 C   0  0  0  0  0  0  0  0  0  0  0  0
    7.1880  -13.1060   26.0439 C   0  0  2  0  0  0  0  0  0  0  0  0
    6.1177  -13.6499   26.9740 C   0  0  0  0  0  0  0  0  0  0  0  0
    8.0783  -14.2240   25.6356 C   0  0  2  0  0  0  0  0  0  0  0  0
    7.2066  -15.2657   25.0570 N   0  0  0  0  0  0  0  0  0  0  0  0
    8.8319  -14.7459   26.7781 C   0  0  0  0  0  0  0  0  0  0  0  0
    8.5053  -15.9400   27.3676 O   0  0  0  0  0  0  0  0  0  0  0  0
    9.7982  -14.0877   27.2306 O   0  0  0  0  0  0  0  0  0  0  0  0
  2  1  1  1
  2  3  1  0
  3  4  1  0
  5  4  1  0
  6  7  1  0
  6  5  1  0
  8  2  1  0
  9  8  2  0
 11 10  1  1
 11 13  1  0
 11 12  1  0
 12  8  1  0
 13 20  1  0
 14 13  2  0
 16 15  1  0
 17 16  1  0
 17 18  1  1
 19 17  1  0
 19 21  1  0
 19 20  1  1
 21 23  2  0
 21 22  1  0
M  END
$$$$
