KAI.pdb
     RDKit          3D

 23 22  0  0  1  0  0  0  0  0999 V2000
    8.7627  -17.4674   18.7734 N   0  0  0  0  0  0  0  0  0  0  0  0
    8.3229  -16.1412   19.0690 C   0  0  1  0  0  0  0  0  0  0  0  0
    7.4000  -15.5452   18.0423 C   0  0  0  0  0  0  0  0  0  0  0  0
    7.9876  -15.3705   16.6944 C   0  0  0  0  0  0  0  0  0  0  0  0
    7.7945  -16.4921   15.7418 C   0  0  0  0  0  0  0  0  0  0  0  0
    8.2561  -16.1982   14.3397 C   0  0  0  0  0  0  0  0  0  0  0  0
    7.8407  -17.3474   13.5209 N   0  0  0  0  0  0  0  0  0  0  0  0
    7.7569  -16.0869   20.4354 C   0  0  0  0  0  0  0  0  0  0  0  0
    7.1461  -15.0500   20.8679 O   0  0  0  0  0  0  0  0  0  0  0  0
    7.0458  -18.5117   23.2529 C   0  0  0  0  0  0  0  0  0  0  0  0
    7.2486  -17.1408   22.6769 C   0  0  2  0  0  0  0  0  0  0  0  0
    7.8473  -17.1656   21.3568 N   0  0  0  0  0  0  0  0  0  0  0  0
    7.9744  -16.2260   23.5912 C   0  0  0  0  0  0  0  0  0  0  0  0
    9.2306  -16.1331   23.4998 O   0  0  0  0  0  0  0  0  0  0  0  0
    6.7315  -11.1781   26.7133 C   0  0  0  0  0  0  0  0  0  0  0  0
    7.7844  -12.2440   26.5073 C   0  0  0  0  0  0  0  0  0  0  0  0
    7.1721  -13.3545   25.6938 C   0  0  2  0  0  0  0  0  0  0  0  0
    5.8898  -13.8669   26.3261 C   0  0  0  0  0  0  0  0  0  0  0  0
    8.0737  -14.5089   25.4411 C   0  0  2  0  0  0  0  0  0  0  0  0
    7.3287  -15.4419   24.5726 N   0  0  0  0  0  0  0  0  0  0  0  0
    8.4668  -15.1586   26.6936 C   0  0  0  0  0  0  0  0  0  0  0  0
    9.4878  -14.6681   27.4664 O   0  0  0  0  0  0  0  0  0  0  0  0
    7.8583  -16.1879   27.0705 O   0  0  0  0  0  0  0  0  0  0  0  0
  2  1  1  6
  2  3  1  0
  3  4  1  0
  5  4  1  0
  6  7  1  0
  6  5  1  0
  8  2  1  0
  9  8  2  0
 11 10  1  1
 11 13  1  0
 11 12  1  0
 12  8  1  0
 13 20  1  0
 14 13  2  0
 16 15  1  0
 17 16  1  0
 17 18  1  1
 19 17  1  0
 19 21  1  0
 19 20  1  6
 21 23  2  0
 21 22  1  0
M  END
$$$$
