KAI.pdb
     RDKit          3D

 23 22  0  0  1  0  0  0  0  0999 V2000
    9.1831  -16.5666   18.9972 N   0  0  0  0  0  0  0  0  0  0  0  0
    8.7762  -15.2627   19.4142 C   0  0  1  0  0  0  0  0  0  0  0  0
    7.9587  -14.5093   18.4016 C   0  0  0  0  0  0  0  0  0  0  0  0
    8.5281  -14.4724   17.0352 C   0  0  0  0  0  0  0  0  0  0  0  0
    7.7783  -13.6777   16.0309 C   0  0  0  0  0  0  0  0  0  0  0  0
    8.4173  -13.6426   14.6686 C   0  0  0  0  0  0  0  0  0  0  0  0
    7.5027  -12.8800   13.8051 N   0  0  0  0  0  0  0  0  0  0  0  0
    8.1109  -15.3364   20.7341 C   0  0  0  0  0  0  0  0  0  0  0  0
    7.6082  -14.3007   21.2909 O   0  0  0  0  0  0  0  0  0  0  0  0
    7.0612  -18.0179   23.2131 C   0  0  0  0  0  0  0  0  0  0  0  0
    7.3848  -16.6145   22.7915 C   0  0  2  0  0  0  0  0  0  0  0  0
    7.9817  -16.5444   21.4721 N   0  0  0  0  0  0  0  0  0  0  0  0
    8.1864  -15.8743   23.7960 C   0  0  0  0  0  0  0  0  0  0  0  0
    9.4408  -15.8165   23.6615 O   0  0  0  0  0  0  0  0  0  0  0  0
    5.9058  -12.1975   27.5746 C   0  0  0  0  0  0  0  0  0  0  0  0
    6.3488  -13.4844   26.9150 C   0  0  0  0  0  0  0  0  0  0  0  0
    7.6348  -13.2133   26.1784 C   0  0  2  0  0  0  0  0  0  0  0  0
    7.3905  -12.4305   24.9000 C   0  0  0  0  0  0  0  0  0  0  0  0
    8.4301  -14.4255   25.8508 C   0  0  2  0  0  0  0  0  0  0  0  0
    7.6158  -15.2212   24.9108 N   0  0  0  0  0  0  0  0  0  0  0  0
    8.7425  -15.1963   27.0565 C   0  0  0  0  0  0  0  0  0  0  0  0
    9.6497  -14.7457   27.9808 O   0  0  0  0  0  0  0  0  0  0  0  0
    8.1696  -16.2943   27.2508 O   0  0  0  0  0  0  0  0  0  0  0  0
  2  1  1  6
  2  3  1  0
  3  4  1  0
  5  4  1  0
  6  7  1  0
  6  5  1  0
  8  2  1  0
  9  8  2  0
 11 10  1  1
 11 13  1  0
 11 12  1  0
 12  8  1  0
 13 20  1  0
 14 13  2  0
 16 15  1  0
 17 16  1  0
 17 18  1  6
 19 17  1  0
 19 21  1  0
 19 20  1  6
 21 23  2  0
 21 22  1  0
M  END
$$$$
