KAI.pdb
     RDKit          3D

 23 22  0  0  1  0  0  0  0  0999 V2000
    8.5739  -15.9378   18.3729 N   0  0  0  0  0  0  0  0  0  0  0  0
    8.2777  -14.7584   19.1219 C   0  0  1  0  0  0  0  0  0  0  0  0
    7.1667  -13.9194   18.5536 C   0  0  0  0  0  0  0  0  0  0  0  0
    6.9864  -14.0241   17.0876 C   0  0  0  0  0  0  0  0  0  0  0  0
    8.1883  -13.7653   16.2564 C   0  0  0  0  0  0  0  0  0  0  0  0
    7.9412  -13.8370   14.7734 C   0  0  0  0  0  0  0  0  0  0  0  0
    9.2204  -13.5063   14.1271 N   0  0  0  0  0  0  0  0  0  0  0  0
    8.0535  -15.1030   20.5436 C   0  0  0  0  0  0  0  0  0  0  0  0
    7.5893  -14.2500   21.3756 O   0  0  0  0  0  0  0  0  0  0  0  0
    8.3247  -18.2065   22.7402 C   0  0  0  0  0  0  0  0  0  0  0  0
    8.0011  -16.7716   22.4427 C   0  0  2  0  0  0  0  0  0  0  0  0
    8.3325  -16.3876   21.0846 N   0  0  0  0  0  0  0  0  0  0  0  0
    8.5720  -15.8278   23.4342 C   0  0  0  0  0  0  0  0  0  0  0  0
    9.7780  -15.4706   23.3209 O   0  0  0  0  0  0  0  0  0  0  0  0
    6.8390  -11.0206   26.4659 C   0  0  0  0  0  0  0  0  0  0  0  0
    7.9041  -12.0942   26.4886 C   0  0  0  0  0  0  0  0  0  0  0  0
    7.4464  -13.2250   25.6044 C   0  0  2  0  0  0  0  0  0  0  0  0
    6.1154  -13.7911   26.0674 C   0  0  0  0  0  0  0  0  0  0  0  0
    8.4189  -14.3411   25.4706 C   0  0  2  0  0  0  0  0  0  0  0  0
    7.8303  -15.2991   24.5137 N   0  0  0  0  0  0  0  0  0  0  0  0
    8.6730  -14.9806   26.7637 C   0  0  0  0  0  0  0  0  0  0  0  0
    8.1609  -16.2162   27.0657 O   0  0  0  0  0  0  0  0  0  0  0  0
    9.3740  -14.3869   27.6168 O   0  0  0  0  0  0  0  0  0  0  0  0
  2  1  1  6
  2  3  1  0
  3  4  1  0
  5  4  1  0
  6  7  1  0
  6  5  1  0
  8  2  1  0
  9  8  2  0
 11 10  1  1
 11 13  1  0
 11 12  1  0
 12  8  1  0
 13 20  1  0
 14 13  2  0
 16 15  1  0
 17 16  1  0
 17 18  1  1
 19 17  1  0
 19 21  1  0
 19 20  1  6
 21 23  2  0
 21 22  1  0
M  END
$$$$
