KAI.pdb
     RDKit          3D

 23 22  0  0  1  0  0  0  0  0999 V2000
    6.1167  -16.5490   20.2793 N   0  0  0  0  0  0  0  0  0  0  0  0
    6.9618  -15.6216   20.9616 C   0  0  1  0  0  0  0  0  0  0  0  0
    6.6673  -14.1761   20.6702 C   0  0  0  0  0  0  0  0  0  0  0  0
    6.7227  -13.7989   19.2394 C   0  0  0  0  0  0  0  0  0  0  0  0
    8.0544  -13.8779   18.5890 C   0  0  0  0  0  0  0  0  0  0  0  0
    8.0345  -13.6171   17.1068 C   0  0  0  0  0  0  0  0  0  0  0  0
    8.9460  -12.4858   16.8763 N   0  0  0  0  0  0  0  0  0  0  0  0
    6.9696  -15.9144   22.4123 C   0  0  0  0  0  0  0  0  0  0  0  0
    6.4156  -15.1310   23.2578 O   0  0  0  0  0  0  0  0  0  0  0  0
    7.6732  -18.8602   24.6520 C   0  0  0  0  0  0  0  0  0  0  0  0
    7.5525  -17.3890   24.3818 C   0  0  2  0  0  0  0  0  0  0  0  0
    7.5835  -17.0697   22.9680 N   0  0  0  0  0  0  0  0  0  0  0  0
    8.5250  -16.5738   25.1496 C   0  0  0  0  0  0  0  0  0  0  0  0
    9.6679  -16.3550   24.6590 O   0  0  0  0  0  0  0  0  0  0  0  0
    7.1134  -12.0297   27.1075 C   0  0  0  0  0  0  0  0  0  0  0  0
    7.9411  -13.1330   26.4869 C   0  0  0  0  0  0  0  0  0  0  0  0
    8.5024  -13.9787   27.6003 C   0  0  2  0  0  0  0  0  0  0  0  0
    9.4228  -13.1742   28.5016 C   0  0  0  0  0  0  0  0  0  0  0  0
    9.2221  -15.1990   27.1507 C   0  0  2  0  0  0  0  0  0  0  0  0
    8.2389  -16.0207   26.4173 N   0  0  0  0  0  0  0  0  0  0  0  0
    9.7775  -15.9362   28.2881 C   0  0  0  0  0  0  0  0  0  0  0  0
    9.2010  -17.0944   28.7425 O   0  0  0  0  0  0  0  0  0  0  0  0
   10.8031  -15.5005   28.8624 O   0  0  0  0  0  0  0  0  0  0  0  0
  2  1  1  6
  2  3  1  0
  3  4  1  0
  5  4  1  0
  6  7  1  0
  6  5  1  0
  8  2  1  0
  9  8  2  0
 11 10  1  6
 11 13  1  0
 11 12  1  0
 12  8  1  0
 13 20  1  0
 14 13  2  0
 16 15  1  0
 17 16  1  0
 17 18  1  6
 19 17  1  0
 19 21  1  0
 19 20  1  1
 21 23  2  0
 21 22  1  0
M  END
$$$$
