KAI.pdb
     RDKit          3D

 23 22  0  0  1  0  0  0  0  0999 V2000
    8.7421  -17.2744   18.9357 N   0  0  0  0  0  0  0  0  0  0  0  0
    9.4164  -17.5772   20.1577 C   0  0  1  0  0  0  0  0  0  0  0  0
   10.8581  -17.1518   20.1982 C   0  0  0  0  0  0  0  0  0  0  0  0
   11.8127  -18.1056   19.5883 C   0  0  0  0  0  0  0  0  0  0  0  0
   12.4854  -19.0479   20.5168 C   0  0  0  0  0  0  0  0  0  0  0  0
   13.5762  -19.8679   19.8818 C   0  0  0  0  0  0  0  0  0  0  0  0
   14.1195  -20.7244   20.9470 N   0  0  0  0  0  0  0  0  0  0  0  0
    8.6424  -17.0570   21.3069 C   0  0  0  0  0  0  0  0  0  0  0  0
    8.3350  -15.8195   21.4037 O   0  0  0  0  0  0  0  0  0  0  0  0
    6.6369  -18.4584   24.1921 C   0  0  0  0  0  0  0  0  0  0  0  0
    7.4131  -17.3812   23.4925 C   0  0  2  0  0  0  0  0  0  0  0  0
    8.1887  -17.8796   22.3737 N   0  0  0  0  0  0  0  0  0  0  0  0
    8.2416  -16.5673   24.4149 C   0  0  0  0  0  0  0  0  0  0  0  0
    9.4819  -16.7927   24.4897 O   0  0  0  0  0  0  0  0  0  0  0  0
    6.3842  -11.6555   25.9222 C   0  0  0  0  0  0  0  0  0  0  0  0
    7.2297  -12.7840   25.3753 C   0  0  0  0  0  0  0  0  0  0  0  0
    7.7793  -13.5636   26.5415 C   0  0  2  0  0  0  0  0  0  0  0  0
    8.6407  -12.6918   27.4385 C   0  0  0  0  0  0  0  0  0  0  0  0
    8.5541  -14.7758   26.1681 C   0  0  2  0  0  0  0  0  0  0  0  0
    7.7120  -15.5392   25.2257 N   0  0  0  0  0  0  0  0  0  0  0  0
    8.8821  -15.5796   27.3479 C   0  0  0  0  0  0  0  0  0  0  0  0
   10.0439  -15.3831   28.0492 O   0  0  0  0  0  0  0  0  0  0  0  0
    8.0848  -16.4694   27.7276 O   0  0  0  0  0  0  0  0  0  0  0  0
  2  1  1  6
  2  3  1  0
  3  4  1  0
  5  4  1  0
  6  7  1  0
  6  5  1  0
  8  2  1  0
  9  8  2  0
 11 10  1  1
 11 13  1  0
 11 12  1  0
 12  8  1  0
 13 20  1  0
 14 13  2  0
 16 15  1  0
 17 16  1  0
 17 18  1  6
 19 17  1  0
 19 21  1  0
 19 20  1  6
 21 23  2  0
 21 22  1  0
M  END
$$$$
