KAI.pdb
     RDKit          3D

 23 22  0  0  1  0  0  0  0  0999 V2000
    8.7979  -17.0924   19.5821 N   0  0  0  0  0  0  0  0  0  0  0  0
    8.6465  -15.7673   20.0929 C   0  0  1  0  0  0  0  0  0  0  0  0
    7.8849  -14.8337   19.1932 C   0  0  0  0  0  0  0  0  0  0  0  0
    8.1661  -14.9847   17.7473 C   0  0  0  0  0  0  0  0  0  0  0  0
    7.7392  -13.8638   16.8732 C   0  0  0  0  0  0  0  0  0  0  0  0
    8.0362  -14.0719   15.4124 C   0  0  0  0  0  0  0  0  0  0  0  0
    7.4839  -12.9034   14.7102 N   0  0  0  0  0  0  0  0  0  0  0  0
    8.0874  -15.8120   21.4625 C   0  0  0  0  0  0  0  0  0  0  0  0
    7.7480  -14.7470   22.0837 O   0  0  0  0  0  0  0  0  0  0  0  0
    7.0667  -18.4734   23.9889 C   0  0  0  0  0  0  0  0  0  0  0  0
    7.3461  -17.0740   23.5243 C   0  0  2  0  0  0  0  0  0  0  0  0
    7.8882  -17.0224   22.1807 N   0  0  0  0  0  0  0  0  0  0  0  0
    8.1729  -16.2971   24.4795 C   0  0  0  0  0  0  0  0  0  0  0  0
    9.4286  -16.2919   24.3444 O   0  0  0  0  0  0  0  0  0  0  0  0
    6.0592  -11.6959   26.2705 C   0  0  0  0  0  0  0  0  0  0  0  0
    6.9832  -12.7352   25.6759 C   0  0  0  0  0  0  0  0  0  0  0  0
    7.5707  -13.5395   26.8064 C   0  0  2  0  0  0  0  0  0  0  0  0
    8.3353  -12.6584   27.7788 C   0  0  0  0  0  0  0  0  0  0  0  0
    8.4531  -14.6570   26.3801 C   0  0  2  0  0  0  0  0  0  0  0  0
    7.6254  -15.5519   25.5471 N   0  0  0  0  0  0  0  0  0  0  0  0
    8.9986  -15.3723   27.5361 C   0  0  0  0  0  0  0  0  0  0  0  0
    8.4765  -16.5709   27.9497 O   0  0  0  0  0  0  0  0  0  0  0  0
    9.9648  -14.8797   28.1649 O   0  0  0  0  0  0  0  0  0  0  0  0
  2  1  1  6
  2  3  1  0
  3  4  1  0
  5  4  1  0
  6  7  1  0
  6  5  1  0
  8  2  1  0
  9  8  2  0
 11 10  1  1
 11 13  1  0
 11 12  1  0
 12  8  1  0
 13 20  1  0
 14 13  2  0
 16 15  1  0
 17 16  1  0
 17 18  1  1
 19 17  1  0
 19 21  1  0
 19 20  1  6
 21 23  2  0
 21 22  1  0
M  END
$$$$
