KAI.pdb
     RDKit          3D

 23 22  0  0  1  0  0  0  0  0999 V2000
    7.7348  -12.9240   18.7326 N   0  0  0  0  0  0  0  0  0  0  0  0
    7.7021  -14.3280   18.9922 C   0  0  1  0  0  0  0  0  0  0  0  0
    8.9061  -15.0828   18.5005 C   0  0  0  0  0  0  0  0  0  0  0  0
   10.1964  -14.3705   18.6429 C   0  0  0  0  0  0  0  0  0  0  0  0
   11.3919  -15.0582   18.0948 C   0  0  0  0  0  0  0  0  0  0  0  0
   11.0771  -16.1712   17.1317 C   0  0  0  0  0  0  0  0  0  0  0  0
   12.3695  -16.7557   16.7423 N   0  0  0  0  0  0  0  0  0  0  0  0
    7.4299  -14.5728   20.4262 C   0  0  0  0  0  0  0  0  0  0  0  0
    7.4514  -13.6251   21.2845 O   0  0  0  0  0  0  0  0  0  0  0  0
    6.2312  -17.4984   22.5499 C   0  0  0  0  0  0  0  0  0  0  0  0
    6.6496  -16.0788   22.3014 C   0  0  2  0  0  0  0  0  0  0  0  0
    7.1286  -15.8591   20.9508 N   0  0  0  0  0  0  0  0  0  0  0  0
    7.6067  -15.5678   23.3126 C   0  0  0  0  0  0  0  0  0  0  0  0
    8.8463  -15.6825   23.1004 O   0  0  0  0  0  0  0  0  0  0  0  0
    6.2159  -11.7397   27.2665 C   0  0  0  0  0  0  0  0  0  0  0  0
    6.4025  -13.1163   26.6684 C   0  0  0  0  0  0  0  0  0  0  0  0
    7.7324  -13.1418   25.9608 C   0  0  2  0  0  0  0  0  0  0  0  0
    7.7422  -12.2136   24.7588 C   0  0  0  0  0  0  0  0  0  0  0  0
    8.1780  -14.4913   25.5252 C   0  0  2  0  0  0  0  0  0  0  0  0
    7.2021  -14.9511   24.5172 N   0  0  0  0  0  0  0  0  0  0  0  0
    8.2407  -15.4197   26.6564 C   0  0  0  0  0  0  0  0  0  0  0  0
    9.2045  -15.3059   27.6250 O   0  0  0  0  0  0  0  0  0  0  0  0
    7.3955  -16.3414   26.7437 O   0  0  0  0  0  0  0  0  0  0  0  0
  2  1  1  1
  2  3  1  0
  3  4  1  0
  5  4  1  0
  6  7  1  0
  6  5  1  0
  8  2  1  0
  9  8  2  0
 11 10  1  1
 11 13  1  0
 11 12  1  0
 12  8  1  0
 13 20  1  0
 14 13  2  0
 16 15  1  0
 17 16  1  0
 17 18  1  6
 19 17  1  0
 19 21  1  0
 19 20  1  6
 21 23  2  0
 21 22  1  0
M  END
$$$$
