KAI.pdb
     RDKit          3D

 23 22  0  0  1  0  0  0  0  0999 V2000
    9.0488  -16.4258   19.0465 N   0  0  0  0  0  0  0  0  0  0  0  0
    8.7618  -15.1401   19.5982 C   0  0  1  0  0  0  0  0  0  0  0  0
    7.9900  -14.2267   18.6865 C   0  0  0  0  0  0  0  0  0  0  0  0
    7.9138  -14.6653   17.2742 C   0  0  0  0  0  0  0  0  0  0  0  0
    7.6629  -13.6036   16.2680 C   0  0  0  0  0  0  0  0  0  0  0  0
    7.4661  -14.1151   14.8661 C   0  0  0  0  0  0  0  0  0  0  0  0
    7.2259  -12.9314   14.0267 N   0  0  0  0  0  0  0  0  0  0  0  0
    8.1200  -15.2882   20.9234 C   0  0  0  0  0  0  0  0  0  0  0  0
    7.7126  -14.2749   21.5886 O   0  0  0  0  0  0  0  0  0  0  0  0
    6.9713  -18.1276   23.1828 C   0  0  0  0  0  0  0  0  0  0  0  0
    7.2948  -16.7000   22.8520 C   0  0  2  0  0  0  0  0  0  0  0  0
    7.9105  -16.5476   21.5484 N   0  0  0  0  0  0  0  0  0  0  0  0
    8.0784  -16.0194   23.9115 C   0  0  0  0  0  0  0  0  0  0  0  0
    9.3390  -16.0106   23.8354 O   0  0  0  0  0  0  0  0  0  0  0  0
    6.0058  -11.6247   26.1598 C   0  0  0  0  0  0  0  0  0  0  0  0
    6.8786  -12.6584   25.4837 C   0  0  0  0  0  0  0  0  0  0  0  0
    7.4481  -13.5582   26.5495 C   0  0  2  0  0  0  0  0  0  0  0  0
    8.2499  -12.7725   27.5724 C   0  0  0  0  0  0  0  0  0  0  0  0
    8.2888  -14.6720   26.0377 C   0  0  2  0  0  0  0  0  0  0  0  0
    7.4838  -15.3715   25.0167 N   0  0  0  0  0  0  0  0  0  0  0  0
    8.6746  -15.5841   27.1169 C   0  0  0  0  0  0  0  0  0  0  0  0
    9.8558  -15.4321   27.7965 O   0  0  0  0  0  0  0  0  0  0  0  0
    7.9099  -16.5273   27.4285 O   0  0  0  0  0  0  0  0  0  0  0  0
  2  1  1  6
  2  3  1  0
  3  4  1  0
  5  4  1  0
  6  7  1  0
  6  5  1  0
  8  2  1  0
  9  8  2  0
 11 10  1  1
 11 13  1  0
 11 12  1  0
 12  8  1  0
 13 20  1  0
 14 13  2  0
 16 15  1  0
 17 16  1  0
 17 18  1  1
 19 17  1  0
 19 21  1  0
 19 20  1  6
 21 23  2  0
 21 22  1  0
M  END
$$$$
