TIY.pdb
     RDKit          3D

 28 28  0  0  1  0  0  0  0  0999 V2000
   20.6533   -8.4136  -20.6944 C   0  0  0  0  0  0  0  0  0  0  0  0
   20.1333   -9.8326  -20.7553 C   0  0  1  0  0  0  0  0  0  0  0  0
   20.3042  -10.3617  -22.0091 O   0  0  0  0  0  0  0  0  0  0  0  0
   20.7474  -10.6620  -19.6448 C   0  0  2  0  0  0  0  0  0  0  0  0
   20.2136  -12.0077  -19.8086 N   0  0  0  0  0  0  0  0  0  0  0  0
   20.4507  -10.1204  -18.3035 C   0  0  0  0  0  0  0  0  0  0  0  0
   19.2746  -10.1298  -17.8062 O   0  0  0  0  0  0  0  0  0  0  0  0
   23.5800  -11.1199  -14.0296 C   0  0  0  0  0  0  0  0  0  0  0  0
   22.5137  -10.7258  -14.9921 C   0  0  0  0  0  0  0  0  0  0  0  0
   22.3686   -9.2763  -15.2690 C   0  0  2  0  0  0  0  0  0  0  0  0
   22.1591   -8.5677  -13.9340 C   0  0  0  0  0  0  0  0  0  0  0  0
   21.3359   -8.8891  -16.2737 C   0  0  2  0  0  0  0  0  0  0  0  0
   21.5103   -9.5712  -17.5413 N   0  0  0  0  0  0  0  0  0  0  0  0
   21.1703   -7.4351  -16.4387 C   0  0  0  0  0  0  0  0  0  0  0  0
   22.1490   -6.7413  -16.7877 O   0  0  0  0  0  0  0  0  0  0  0  0
   14.0511   -6.6597  -18.8943 O   0  0  0  0  0  0  0  0  0  0  0  0
   15.3685   -6.2693  -18.6336 C   0  0  0  0  0  0  0  0  0  0  0  0
   16.4142   -7.0944  -18.9666 C   0  0  0  0  0  0  0  0  0  0  0  0
   17.7173   -6.7176  -18.7132 C   0  0  0  0  0  0  0  0  0  0  0  0
   18.0257   -5.5049  -18.1190 C   0  0  0  0  0  0  0  0  0  0  0  0
   19.4352   -5.1318  -17.8566 C   0  0  0  0  0  0  0  0  0  0  0  0
   19.8493   -5.3477  -16.4126 C   0  0  2  0  0  0  0  0  0  0  0  0
   19.9306   -6.7884  -16.2165 N   0  0  0  0  0  0  0  0  0  0  0  0
   18.8589   -4.8198  -15.4566 C   0  0  0  0  0  0  0  0  0  0  0  0
   18.0683   -5.6028  -14.6284 O   0  0  0  0  0  0  0  0  0  0  0  0
   16.9815   -4.6751  -17.7836 C   0  0  0  0  0  0  0  0  0  0  0  0
   15.6633   -5.0595  -18.0415 C   0  0  0  0  0  0  0  0  0  0  0  0
   18.7021   -3.5763  -15.3686 O   0  0  0  0  0  0  0  0  0  0  0  0
  2  1  1  6
  2  3  1  0
  4  5  1  1
  4  2  1  0
  6  4  1  0
  7  6  2  0
  9  8  1  0
 10  9  1  0
 10 11  1  1
 12 10  1  0
 12 13  1  6
 13  6  1  0
 14 12  1  0
 15 14  2  0
 16 17  1  0
 17 18  2  0
 18 19  1  0
 20 21  1  0
 20 19  2  0
 22 21  1  6
 22 24  1  0
 22 23  1  0
 23 14  1  0
 24 25  1  0
 26 20  1  0
 27 26  2  0
 27 17  1  0
 28 24  2  0
M  END
$$$$
