TIY.pdb
     RDKit          3D

 28 28  0  0  1  0  0  0  0  0999 V2000
   21.0172   -8.9381  -20.2116 C   0  0  0  0  0  0  0  0  0  0  0  0
   20.2722  -10.2534  -20.2624 C   0  0  1  0  0  0  0  0  0  0  0  0
   20.3432  -10.8065  -21.5155 O   0  0  0  0  0  0  0  0  0  0  0  0
   20.7529  -11.1690  -19.1539 C   0  0  2  0  0  0  0  0  0  0  0  0
   19.9630  -12.3876  -19.2710 N   0  0  0  0  0  0  0  0  0  0  0  0
   20.6145  -10.5593  -17.8161 C   0  0  0  0  0  0  0  0  0  0  0  0
   19.4771  -10.3280  -17.2836 O   0  0  0  0  0  0  0  0  0  0  0  0
   21.4268   -9.5038  -12.6069 C   0  0  0  0  0  0  0  0  0  0  0  0
   22.6251   -9.3889  -13.4841 C   0  0  0  0  0  0  0  0  0  0  0  0
   22.5708  -10.1017  -14.7833 C   0  0  2  0  0  0  0  0  0  0  0  0
   24.0050  -10.4078  -15.2046 C   0  0  0  0  0  0  0  0  0  0  0  0
   21.7980   -9.4409  -15.8749 C   0  0  2  0  0  0  0  0  0  0  0  0
   21.7867  -10.2196  -17.0980 N   0  0  0  0  0  0  0  0  0  0  0  0
   22.1677   -8.0349  -16.1100 C   0  0  0  0  0  0  0  0  0  0  0  0
   23.0906   -7.7681  -16.9088 O   0  0  0  0  0  0  0  0  0  0  0  0
   21.9619    0.0980  -18.7782 O   0  0  0  0  0  0  0  0  0  0  0  0
   21.7839   -1.2332  -18.3880 C   0  0  0  0  0  0  0  0  0  0  0  0
   22.8470   -1.9662  -17.9215 C   0  0  0  0  0  0  0  0  0  0  0  0
   22.6809   -3.2803  -17.5341 C   0  0  0  0  0  0  0  0  0  0  0  0
   21.4495   -3.9114  -17.5975 C   0  0  0  0  0  0  0  0  0  0  0  0
   21.3055   -5.3250  -17.1779 C   0  0  0  0  0  0  0  0  0  0  0  0
   21.8856   -5.6000  -15.8028 C   0  0  2  0  0  0  0  0  0  0  0  0
   21.5083   -6.9641  -15.4599 N   0  0  0  0  0  0  0  0  0  0  0  0
   21.3322   -4.7076  -14.7681 C   0  0  0  0  0  0  0  0  0  0  0  0
   20.2938   -5.0431  -13.9116 O   0  0  0  0  0  0  0  0  0  0  0  0
   20.3817   -3.1812  -18.0641 C   0  0  0  0  0  0  0  0  0  0  0  0
   20.5531   -1.8510  -18.4555 C   0  0  0  0  0  0  0  0  0  0  0  0
   21.8190   -3.5570  -14.6341 O   0  0  0  0  0  0  0  0  0  0  0  0
  2  1  1  6
  2  3  1  0
  4  5  1  1
  4  2  1  0
  6  4  1  0
  7  6  2  0
  9  8  1  0
 10  9  1  0
 10 11  1  6
 12 10  1  0
 12 13  1  6
 13  6  1  0
 14 12  1  0
 15 14  2  0
 16 17  1  0
 17 18  2  0
 18 19  1  0
 20 21  1  0
 20 19  2  0
 22 21  1  6
 22 24  1  0
 22 23  1  0
 23 14  1  0
 24 25  1  0
 26 20  1  0
 27 26  2  0
 27 17  1  0
 28 24  2  0
M  END
$$$$
