TIY.pdb
     RDKit          3D

 28 28  0  0  1  0  0  0  0  0999 V2000
   30.7389  -30.4585  -17.6267 C   0  0  0  0  0  0  0  0  0  0  0  0
   29.5894  -30.7582  -16.6905 C   0  0  1  0  0  0  0  0  0  0  0  0
   28.4248  -30.2012  -17.1536 O   0  0  0  0  0  0  0  0  0  0  0  0
   29.5019  -32.2493  -16.4315 C   0  0  2  0  0  0  0  0  0  0  0  0
   28.4499  -32.4217  -15.4384 N   0  0  0  0  0  0  0  0  0  0  0  0
   30.7830  -32.8197  -15.9692 C   0  0  0  0  0  0  0  0  0  0  0  0
   31.3192  -32.4875  -14.8588 O   0  0  0  0  0  0  0  0  0  0  0  0
   33.9776  -38.0469  -16.9844 C   0  0  0  0  0  0  0  0  0  0  0  0
   33.9546  -36.6140  -16.5781 C   0  0  0  0  0  0  0  0  0  0  0  0
   32.7186  -35.8542  -16.8844 C   0  0  2  0  0  0  0  0  0  0  0  0
   32.4515  -35.9869  -18.3808 C   0  0  0  0  0  0  0  0  0  0  0  0
   32.6811  -34.4321  -16.4353 C   0  0  2  0  0  0  0  0  0  0  0  0
   31.4400  -33.7703  -16.7876 N   0  0  0  0  0  0  0  0  0  0  0  0
   33.8643  -33.6457  -16.8230 C   0  0  0  0  0  0  0  0  0  0  0  0
   33.8472  -32.9962  -17.8902 O   0  0  0  0  0  0  0  0  0  0  0  0
   41.5252  -29.2287  -16.2602 O   0  0  0  0  0  0  0  0  0  0  0  0
   40.3712  -29.9744  -15.9992 C   0  0  0  0  0  0  0  0  0  0  0  0
   40.4592  -31.3210  -15.7460 C   0  0  0  0  0  0  0  0  0  0  0  0
   39.3259  -32.0649  -15.4874 C   0  0  0  0  0  0  0  0  0  0  0  0
   38.0640  -31.4938  -15.4719 C   0  0  0  0  0  0  0  0  0  0  0  0
   36.8666  -32.3212  -15.1951 C   0  0  0  0  0  0  0  0  0  0  0  0
   36.1391  -32.7555  -16.4541 C   0  0  2  0  0  0  0  0  0  0  0  0
   35.0309  -33.5960  -16.0224 N   0  0  0  0  0  0  0  0  0  0  0  0
   36.9907  -33.5603  -17.3488 C   0  0  0  0  0  0  0  0  0  0  0  0
   37.6242  -33.0729  -18.4825 O   0  0  0  0  0  0  0  0  0  0  0  0
   37.9709  -30.1453  -15.7251 C   0  0  0  0  0  0  0  0  0  0  0  0
   39.1201  -29.3950  -15.9865 C   0  0  0  0  0  0  0  0  0  0  0  0
   37.1697  -34.7760  -17.0863 O   0  0  0  0  0  0  0  0  0  0  0  0
  2  1  1  6
  2  3  1  0
  4  5  1  1
  4  2  1  0
  6  4  1  0
  7  6  2  0
  9  8  1  0
 10  9  1  0
 10 11  1  6
 12 10  1  0
 12 13  1  6
 13  6  1  0
 14 12  1  0
 15 14  2  0
 16 17  1  0
 17 18  2  0
 18 19  1  0
 20 21  1  0
 20 19  2  0
 22 21  1  1
 22 24  1  0
 22 23  1  0
 23 14  1  0
 24 25  1  0
 26 20  1  0
 27 26  2  0
 27 17  1  0
 28 24  2  0
M  END
$$$$
