TIY.pdb
     RDKit          3D

 28 28  0  0  1  0  0  0  0  0999 V2000
   28.6266  -21.6377  -14.3373 C   0  0  0  0  0  0  0  0  0  0  0  0
   28.3509  -20.8111  -15.5735 C   0  0  1  0  0  0  0  0  0  0  0  0
   29.1016  -21.2522  -16.6332 O   0  0  0  0  0  0  0  0  0  0  0  0
   26.8608  -20.7634  -15.8482 C   0  0  2  0  0  0  0  0  0  0  0  0
   26.7007  -19.9500  -17.0463 N   0  0  0  0  0  0  0  0  0  0  0  0
   26.0931  -20.2138  -14.7128 C   0  0  0  0  0  0  0  0  0  0  0  0
   25.9831  -18.9587  -14.5045 O   0  0  0  0  0  0  0  0  0  0  0  0
   21.0298  -21.0013  -13.9714 C   0  0  0  0  0  0  0  0  0  0  0  0
   22.4592  -20.5901  -13.8923 C   0  0  0  0  0  0  0  0  0  0  0  0
   23.2497  -21.1408  -12.7650 C   0  0  2  0  0  0  0  0  0  0  0  0
   22.4815  -20.8567  -11.4775 C   0  0  0  0  0  0  0  0  0  0  0  0
   24.6733  -20.7046  -12.6725 C   0  0  2  0  0  0  0  0  0  0  0  0
   25.4555  -21.1123  -13.8233 N   0  0  0  0  0  0  0  0  0  0  0  0
   25.3285  -21.0499  -11.3996 C   0  0  0  0  0  0  0  0  0  0  0  0
   25.5207  -22.2510  -11.1141 O   0  0  0  0  0  0  0  0  0  0  0  0
   29.5053  -20.2780   -3.6146 O   0  0  0  0  0  0  0  0  0  0  0  0
   28.9413  -20.0442   -4.8729 C   0  0  0  0  0  0  0  0  0  0  0  0
   29.4155  -20.7064   -5.9782 C   0  0  0  0  0  0  0  0  0  0  0  0
   28.8653  -20.4823   -7.2238 C   0  0  0  0  0  0  0  0  0  0  0  0
   27.8227  -19.5902   -7.4130 C   0  0  0  0  0  0  0  0  0  0  0  0
   27.2569  -19.3690   -8.7642 C   0  0  0  0  0  0  0  0  0  0  0  0
   26.3384  -20.4894   -9.2159 C   0  0  2  0  0  0  0  0  0  0  0  0
   25.7548  -20.0619  -10.4797 N   0  0  0  0  0  0  0  0  0  0  0  0
   25.2336  -20.7295   -8.2698 C   0  0  0  0  0  0  0  0  0  0  0  0
   23.9929  -20.1126   -8.3343 O   0  0  0  0  0  0  0  0  0  0  0  0
   27.3444  -18.9245   -6.3087 C   0  0  0  0  0  0  0  0  0  0  0  0
   27.9036  -19.1537   -5.0491 C   0  0  0  0  0  0  0  0  0  0  0  0
   25.4047  -21.5461   -7.3303 O   0  0  0  0  0  0  0  0  0  0  0  0
  2  1  1  1
  2  3  1  0
  4  5  1  6
  4  2  1  0
  6  4  1  0
  7  6  2  0
  9  8  1  0
 10  9  1  0
 10 11  1  1
 12 10  1  0
 12 13  1  6
 13  6  1  0
 14 12  1  0
 15 14  2  0
 16 17  1  0
 17 18  2  0
 18 19  1  0
 20 21  1  0
 20 19  2  0
 22 21  1  1
 22 24  1  0
 22 23  1  0
 23 14  1  0
 24 25  1  0
 26 20  1  0
 27 26  2  0
 27 17  1  0
 28 24  2  0
M  END
$$$$
