TIY.pdb
     RDKit          3D

 28 28  0  0  1  0  0  0  0  0999 V2000
   30.7539  -20.0271  -12.7408 C   0  0  0  0  0  0  0  0  0  0  0  0
   29.6973  -20.5029  -11.7689 C   0  0  1  0  0  0  0  0  0  0  0  0
   28.8155  -21.3542  -12.3847 O   0  0  0  0  0  0  0  0  0  0  0  0
   30.3504  -21.0798  -10.5285 C   0  0  2  0  0  0  0  0  0  0  0  0
   31.1014  -22.2450  -10.9770 N   0  0  0  0  0  0  0  0  0  0  0  0
   29.3681  -21.4363   -9.4852 C   0  0  0  0  0  0  0  0  0  0  0  0
   28.9158  -22.6225   -9.3475 O   0  0  0  0  0  0  0  0  0  0  0  0
   28.8984  -19.3756   -4.3962 C   0  0  0  0  0  0  0  0  0  0  0  0
   28.8029  -20.1307   -5.6766 C   0  0  0  0  0  0  0  0  0  0  0  0
   27.6961  -19.7567   -6.5899 C   0  0  2  0  0  0  0  0  0  0  0  0
   26.3888  -19.8953   -5.8153 C   0  0  0  0  0  0  0  0  0  0  0  0
   27.6449  -20.4657   -7.9015 C   0  0  2  0  0  0  0  0  0  0  0  0
   28.9119  -20.4249   -8.6054 N   0  0  0  0  0  0  0  0  0  0  0  0
   26.5154  -20.0677   -8.7586 C   0  0  0  0  0  0  0  0  0  0  0  0
   26.4453  -18.8918   -9.1750 O   0  0  0  0  0  0  0  0  0  0  0  0
   20.7058  -20.2236  -15.2792 O   0  0  0  0  0  0  0  0  0  0  0  0
   21.6934  -20.4698  -14.3201 C   0  0  0  0  0  0  0  0  0  0  0  0
   21.6366  -21.5993  -13.5416 C   0  0  0  0  0  0  0  0  0  0  0  0
   22.6066  -21.8506  -12.5927 C   0  0  0  0  0  0  0  0  0  0  0  0
   23.6684  -20.9855  -12.3853 C   0  0  0  0  0  0  0  0  0  0  0  0
   24.6911  -21.2821  -11.3554 C   0  0  0  0  0  0  0  0  0  0  0  0
   24.4653  -20.5285  -10.0577 C   0  0  2  0  0  0  0  0  0  0  0  0
   25.4975  -20.9773   -9.1336 N   0  0  0  0  0  0  0  0  0  0  0  0
   23.1566  -20.8309   -9.4499 C   0  0  0  0  0  0  0  0  0  0  0  0
   21.9552  -20.2581   -9.8408 O   0  0  0  0  0  0  0  0  0  0  0  0
   23.7294  -19.8527  -13.1627 C   0  0  0  0  0  0  0  0  0  0  0  0
   22.7458  -19.6012  -14.1225 C   0  0  0  0  0  0  0  0  0  0  0  0
   23.1008  -21.6625   -8.5097 O   0  0  0  0  0  0  0  0  0  0  0  0
  2  1  1  6
  2  3  1  0
  4  5  1  6
  4  2  1  0
  6  4  1  0
  7  6  2  0
  9  8  1  0
 10  9  1  0
 10 11  1  1
 12 10  1  0
 12 13  1  6
 13  6  1  0
 14 12  1  0
 15 14  2  0
 16 17  1  0
 17 18  2  0
 18 19  1  0
 20 21  1  0
 20 19  2  0
 22 21  1  6
 22 24  1  0
 22 23  1  0
 23 14  1  0
 24 25  1  0
 26 20  1  0
 27 26  2  0
 27 17  1  0
 28 24  2  0
M  END
$$$$
