TIY.pdb
     RDKit          3D

 28 28  0  0  1  0  0  0  0  0999 V2000
   22.0783  -12.7495  -22.0161 C   0  0  0  0  0  0  0  0  0  0  0  0
   21.8107  -12.3889  -20.5719 C   0  0  1  0  0  0  0  0  0  0  0  0
   21.1467  -13.4031  -19.9304 O   0  0  0  0  0  0  0  0  0  0  0  0
   23.0980  -11.9652  -19.8923 C   0  0  2  0  0  0  0  0  0  0  0  0
   23.9562  -13.1426  -19.8916 N   0  0  0  0  0  0  0  0  0  0  0  0
   22.8749  -11.4558  -18.5244 C   0  0  0  0  0  0  0  0  0  0  0  0
   21.7504  -11.5633  -17.9288 O   0  0  0  0  0  0  0  0  0  0  0  0
   27.4493  -10.9964  -15.1805 C   0  0  0  0  0  0  0  0  0  0  0  0
   26.3517  -10.5338  -16.0749 C   0  0  0  0  0  0  0  0  0  0  0  0
   24.9655  -10.8053  -15.6239 C   0  0  2  0  0  0  0  0  0  0  0  0
   24.8466  -12.3047  -15.3670 C   0  0  0  0  0  0  0  0  0  0  0  0
   23.8680  -10.3010  -16.4997 C   0  0  2  0  0  0  0  0  0  0  0  0
   23.9481  -10.8255  -17.8491 N   0  0  0  0  0  0  0  0  0  0  0  0
   23.7022   -8.8379  -16.4768 C   0  0  0  0  0  0  0  0  0  0  0  0
   24.2728   -8.1417  -17.3434 O   0  0  0  0  0  0  0  0  0  0  0  0
   21.2198   -0.6698  -16.8796 O   0  0  0  0  0  0  0  0  0  0  0  0
   21.4616   -2.0469  -16.8465 C   0  0  0  0  0  0  0  0  0  0  0  0
   20.4900   -2.9103  -16.4042 C   0  0  0  0  0  0  0  0  0  0  0  0
   20.7195   -4.2706  -16.3682 C   0  0  0  0  0  0  0  0  0  0  0  0
   21.9255   -4.8198  -16.7715 C   0  0  0  0  0  0  0  0  0  0  0  0
   22.1417   -6.2844  -16.7164 C   0  0  0  0  0  0  0  0  0  0  0  0
   22.8942   -6.7289  -15.4758 C   0  0  2  0  0  0  0  0  0  0  0  0
   22.9109   -8.1848  -15.5014 N   0  0  0  0  0  0  0  0  0  0  0  0
   22.2264   -6.3095  -14.2302 C   0  0  0  0  0  0  0  0  0  0  0  0
   22.4942   -5.1299  -13.5513 O   0  0  0  0  0  0  0  0  0  0  0  0
   22.9018   -3.9589  -17.2152 C   0  0  0  0  0  0  0  0  0  0  0  0
   22.6663   -2.5822  -17.2506 C   0  0  0  0  0  0  0  0  0  0  0  0
   21.3497   -7.0573  -13.7292 O   0  0  0  0  0  0  0  0  0  0  0  0
  2  1  1  6
  2  3  1  0
  4  5  1  1
  4  2  1  0
  6  4  1  0
  7  6  2  0
  9  8  1  0
 10  9  1  0
 10 11  1  6
 12 10  1  0
 12 13  1  6
 13  6  1  0
 14 12  1  0
 15 14  2  0
 16 17  1  0
 17 18  2  0
 18 19  1  0
 20 21  1  0
 20 19  2  0
 22 21  1  6
 22 24  1  0
 22 23  1  0
 23 14  1  0
 24 25  1  0
 26 20  1  0
 27 26  2  0
 27 17  1  0
 28 24  2  0
M  END
$$$$
