ATN.pdb
     RDKit          3D

 21 20  0  0  1  0  0  0  0  0999 V2000
    9.0266  -18.1921   16.8831 C   0  0  0  0  0  0  0  0  0  0  0  0
    8.4973  -16.7601   16.7515 C   0  0  2  0  0  0  0  0  0  0  0  0
    8.8582  -16.2103   15.4638 N   0  0  0  0  0  0  0  0  0  0  0  0
    9.1077  -15.9829   17.8563 C   0  0  0  0  0  0  0  0  0  0  0  0
   10.2766  -15.5543   17.6976 O   0  0  0  0  0  0  0  0  0  0  0  0
    7.3805  -13.0103   19.7310 C   0  0  0  0  0  0  0  0  0  0  0  0
    7.8991  -14.0464   20.6982 C   0  0  1  0  0  0  0  0  0  0  0  0
    6.8529  -14.8780   21.0842 O   0  0  0  0  0  0  0  0  0  0  0  0
    9.0246  -14.8660   20.1233 C   0  0  2  0  0  0  0  0  0  0  0  0
    8.4458  -15.7040   19.0658 N   0  0  0  0  0  0  0  0  0  0  0  0
    9.7226  -15.7017   21.1030 C   0  0  0  0  0  0  0  0  0  0  0  0
    9.4322  -16.9283   21.1791 O   0  0  0  0  0  0  0  0  0  0  0  0
   14.0850  -14.7589   21.3344 N   0  0  0  0  0  0  0  0  0  0  0  0
   13.5504  -15.8893   22.0023 C   0  0  0  0  0  0  0  0  0  0  0  0
   13.7426  -17.0482   21.5642 O   0  0  0  0  0  0  0  0  0  0  0  0
   12.7571  -15.7112   23.2282 C   0  0  0  0  0  0  0  0  0  0  0  0
   11.3011  -16.0733   23.0306 C   0  0  2  0  0  0  0  0  0  0  0  0
   10.7194  -15.2374   21.9925 N   0  0  0  0  0  0  0  0  0  0  0  0
   10.5165  -16.0307   24.2765 C   0  0  0  0  0  0  0  0  0  0  0  0
   10.7734  -16.8674   25.3512 O   0  0  0  0  0  0  0  0  0  0  0  0
    9.5665  -15.2148   24.4075 O   0  0  0  0  0  0  0  0  0  0  0  0
  2  1  1  6
  2  4  1  0
  3  2  1  0
  4  5  2  0
  7  6  1  6
  7  9  1  0
  8  7  1  0
  9 11  1  0
 10  4  1  0
  9 10  1  6
 11 12  2  0
 13 14  1  0
 14 16  1  0
 14 15  2  0
 17 16  1  1
 17 19  1  0
 18 17  1  0
 18 11  1  0
 19 21  2  0
 19 20  1  0
M  END
$$$$
