ATN.pdb
     RDKit          3D

 21 20  0  0  1  0  0  0  0  0999 V2000
    8.9893  -17.1476   15.2234 C   0  0  0  0  0  0  0  0  0  0  0  0
    8.3318  -15.7680   15.3353 C   0  0  2  0  0  0  0  0  0  0  0  0
    8.3978  -15.0785   14.0661 N   0  0  0  0  0  0  0  0  0  0  0  0
    9.0757  -15.0315   16.3848 C   0  0  0  0  0  0  0  0  0  0  0  0
   10.1515  -14.4725   16.0601 O   0  0  0  0  0  0  0  0  0  0  0  0
    7.4598  -12.6674   19.0998 C   0  0  0  0  0  0  0  0  0  0  0  0
    8.3919  -13.6705   19.7344 C   0  0  1  0  0  0  0  0  0  0  0  0
    7.6443  -14.7038   20.2901 O   0  0  0  0  0  0  0  0  0  0  0  0
    9.3970  -14.2270   18.7603 C   0  0  2  0  0  0  0  0  0  0  0  0
    8.6382  -14.9290   17.7178 N   0  0  0  0  0  0  0  0  0  0  0  0
   10.3819  -15.1297   19.3608 C   0  0  0  0  0  0  0  0  0  0  0  0
   10.2050  -16.3768   19.2699 O   0  0  0  0  0  0  0  0  0  0  0  0
   14.6955  -13.9320   18.6013 N   0  0  0  0  0  0  0  0  0  0  0  0
   14.2710  -15.1572   19.1743 C   0  0  0  0  0  0  0  0  0  0  0  0
   14.2383  -16.2103   18.4947 O   0  0  0  0  0  0  0  0  0  0  0  0
   13.8609  -15.2049   20.5862 C   0  0  0  0  0  0  0  0  0  0  0  0
   12.4193  -15.6336   20.7538 C   0  0  2  0  0  0  0  0  0  0  0  0
   11.5431  -14.7102   20.0507 N   0  0  0  0  0  0  0  0  0  0  0  0
   12.0231  -15.8051   22.1621 C   0  0  0  0  0  0  0  0  0  0  0  0
   12.6366  -16.7175   23.0060 O   0  0  0  0  0  0  0  0  0  0  0  0
   11.0939  -15.1129   22.6548 O   0  0  0  0  0  0  0  0  0  0  0  0
  2  1  1  6
  2  4  1  0
  3  2  1  0
  4  5  2  0
  7  6  1  6
  7  9  1  0
  8  7  1  0
  9 11  1  0
 10  4  1  0
  9 10  1  6
 11 12  2  0
 13 14  1  0
 14 16  1  0
 14 15  2  0
 17 16  1  1
 17 19  1  0
 18 17  1  0
 18 11  1  0
 19 21  2  0
 19 20  1  0
M  END
$$$$
