ATN.pdb
     RDKit          3D

 21 20  0  0  1  0  0  0  0  0999 V2000
    9.5594  -19.1066   18.9502 C   0  0  0  0  0  0  0  0  0  0  0  0
    9.4083  -17.6553   18.4825 C   0  0  2  0  0  0  0  0  0  0  0  0
   10.3769  -17.3594   17.4505 N   0  0  0  0  0  0  0  0  0  0  0  0
    9.6209  -16.8040   19.6772 C   0  0  0  0  0  0  0  0  0  0  0  0
   10.8019  -16.5968   20.0486 O   0  0  0  0  0  0  0  0  0  0  0  0
    7.8178  -13.3706   20.4560 C   0  0  0  0  0  0  0  0  0  0  0  0
    7.7007  -14.3429   21.6043 C   0  0  1  0  0  0  0  0  0  0  0  0
    6.4532  -14.9569   21.5602 O   0  0  0  0  0  0  0  0  0  0  0  0
    8.7889  -15.3843   21.5971 C   0  0  2  0  0  0  0  0  0  0  0  0
    8.5715  -16.2211   20.4104 N   0  0  0  0  0  0  0  0  0  0  0  0
    8.8326  -16.2182   22.8004 C   0  0  0  0  0  0  0  0  0  0  0  0
    8.1727  -17.2948   22.8237 O   0  0  0  0  0  0  0  0  0  0  0  0
   12.1113  -18.1384   23.0999 N   0  0  0  0  0  0  0  0  0  0  0  0
   11.6596  -18.0119   24.4377 C   0  0  0  0  0  0  0  0  0  0  0  0
   12.4671  -17.8091   25.3750 O   0  0  0  0  0  0  0  0  0  0  0  0
   10.2242  -18.1187   24.7416 C   0  0  0  0  0  0  0  0  0  0  0  0
    9.6156  -16.7876   25.1260 C   0  0  2  0  0  0  0  0  0  0  0  0
    9.5707  -15.9104   23.9669 N   0  0  0  0  0  0  0  0  0  0  0  0
   10.2852  -16.1510   26.2731 C   0  0  0  0  0  0  0  0  0  0  0  0
   10.9439  -14.9355   26.1747 O   0  0  0  0  0  0  0  0  0  0  0  0
   10.2802  -16.7032   27.4047 O   0  0  0  0  0  0  0  0  0  0  0  0
  2  1  1  1
  2  4  1  0
  3  2  1  0
  4  5  2  0
  7  6  1  6
  7  9  1  0
  8  7  1  0
  9 11  1  0
 10  4  1  0
  9 10  1  6
 11 12  2  0
 13 14  1  0
 14 16  1  0
 14 15  2  0
 17 16  1  6
 17 19  1  0
 18 17  1  0
 18 11  1  0
 19 21  2  0
 19 20  1  0
M  END
$$$$
