ATN.pdb
     RDKit          3D

 21 20  0  0  1  0  0  0  0  0999 V2000
    9.6739  -17.4318   15.1729 C   0  0  0  0  0  0  0  0  0  0  0  0
    9.2093  -15.9717   15.1884 C   0  0  2  0  0  0  0  0  0  0  0  0
    9.6279  -15.3013   13.9776 N   0  0  0  0  0  0  0  0  0  0  0  0
    9.8218  -15.3482   16.3856 C   0  0  0  0  0  0  0  0  0  0  0  0
   11.0440  -15.0662   16.3411 O   0  0  0  0  0  0  0  0  0  0  0  0
    7.7827  -12.7025   18.6866 C   0  0  0  0  0  0  0  0  0  0  0  0
    8.5409  -13.7428   19.4744 C   0  0  1  0  0  0  0  0  0  0  0  0
    7.6637  -14.7467   19.8718 O   0  0  0  0  0  0  0  0  0  0  0  0
    9.6877  -14.3368   18.6992 C   0  0  2  0  0  0  0  0  0  0  0  0
    9.1055  -15.0590   17.5612 N   0  0  0  0  0  0  0  0  0  0  0  0
   10.5427  -15.2334   19.4807 C   0  0  0  0  0  0  0  0  0  0  0  0
   10.2920  -16.4711   19.4827 O   0  0  0  0  0  0  0  0  0  0  0  0
   14.5882  -13.6741   19.3212 N   0  0  0  0  0  0  0  0  0  0  0  0
   14.4694  -14.9986   19.8124 C   0  0  0  0  0  0  0  0  0  0  0  0
   14.8639  -15.9762   19.1338 O   0  0  0  0  0  0  0  0  0  0  0  0
   13.8761  -15.2407   21.1365 C   0  0  0  0  0  0  0  0  0  0  0  0
   12.4498  -15.7383   21.0470 C   0  0  2  0  0  0  0  0  0  0  0  0
   11.6530  -14.8177   20.2517 N   0  0  0  0  0  0  0  0  0  0  0  0
   11.8408  -15.9994   22.3625 C   0  0  0  0  0  0  0  0  0  0  0  0
   10.7120  -15.3311   22.8102 O   0  0  0  0  0  0  0  0  0  0  0  0
   12.3375  -16.8569   23.1393 O   0  0  0  0  0  0  0  0  0  0  0  0
  2  1  1  6
  2  4  1  0
  3  2  1  0
  4  5  2  0
  7  6  1  6
  7  9  1  0
  8  7  1  0
  9 11  1  0
 10  4  1  0
  9 10  1  6
 11 12  2  0
 13 14  1  0
 14 16  1  0
 14 15  2  0
 17 16  1  1
 17 19  1  0
 18 17  1  0
 18 11  1  0
 19 21  2  0
 19 20  1  0
M  END
$$$$
