ATN.pdb
     RDKit          3D

 21 20  0  0  1  0  0  0  0  0999 V2000
    9.1339  -17.2347   15.5570 C   0  0  0  0  0  0  0  0  0  0  0  0
    8.5786  -15.8250   15.7855 C   0  0  2  0  0  0  0  0  0  0  0  0
    8.8444  -14.9905   14.6351 N   0  0  0  0  0  0  0  0  0  0  0  0
    9.2520  -15.2988   16.9967 C   0  0  0  0  0  0  0  0  0  0  0  0
   10.4456  -14.9254   16.8900 O   0  0  0  0  0  0  0  0  0  0  0  0
    7.3977  -12.7195   19.2071 C   0  0  0  0  0  0  0  0  0  0  0  0
    8.0592  -13.7615   20.0756 C   0  0  1  0  0  0  0  0  0  0  0  0
    7.1080  -14.6923   20.4806 O   0  0  0  0  0  0  0  0  0  0  0  0
    9.1997  -14.4581   19.3808 C   0  0  2  0  0  0  0  0  0  0  0  0
    8.6236  -15.1981   18.2511 N   0  0  0  0  0  0  0  0  0  0  0  0
    9.9645  -15.3652   20.2397 C   0  0  0  0  0  0  0  0  0  0  0  0
    9.7236  -16.6039   20.1904 O   0  0  0  0  0  0  0  0  0  0  0  0
   14.1841  -14.3061   20.2089 N   0  0  0  0  0  0  0  0  0  0  0  0
   13.8100  -15.5241   20.8305 C   0  0  0  0  0  0  0  0  0  0  0  0
   14.0535  -16.6273   20.2870 O   0  0  0  0  0  0  0  0  0  0  0  0
   13.1257  -15.5044   22.1325 C   0  0  0  0  0  0  0  0  0  0  0  0
   11.6658  -15.8874   22.0225 C   0  0  2  0  0  0  0  0  0  0  0  0
   10.9753  -14.9589   21.1417 N   0  0  0  0  0  0  0  0  0  0  0  0
   10.9961  -16.0094   23.3287 C   0  0  0  0  0  0  0  0  0  0  0  0
   11.3709  -16.9485   24.2767 O   0  0  0  0  0  0  0  0  0  0  0  0
   10.0407  -15.2475   23.6322 O   0  0  0  0  0  0  0  0  0  0  0  0
  2  1  1  6
  2  4  1  0
  3  2  1  0
  4  5  2  0
  7  6  1  6
  7  9  1  0
  8  7  1  0
  9 11  1  0
 10  4  1  0
  9 10  1  6
 11 12  2  0
 13 14  1  0
 14 16  1  0
 14 15  2  0
 17 16  1  1
 17 19  1  0
 18 17  1  0
 18 11  1  0
 19 21  2  0
 19 20  1  0
M  END
$$$$
