ATN.pdb
     RDKit          3D

 21 20  0  0  1  0  0  0  0  0999 V2000
    9.1327  -16.8697   15.2713 C   0  0  0  0  0  0  0  0  0  0  0  0
    8.3288  -15.6061   15.5953 C   0  0  2  0  0  0  0  0  0  0  0  0
    8.2023  -14.7782   14.4167 N   0  0  0  0  0  0  0  0  0  0  0  0
    9.0686  -14.9008   16.6689 C   0  0  0  0  0  0  0  0  0  0  0  0
   10.0911  -14.2479   16.3470 O   0  0  0  0  0  0  0  0  0  0  0  0
    7.6644  -12.4779   19.4075 C   0  0  0  0  0  0  0  0  0  0  0  0
    8.4064  -13.6420   20.0174 C   0  0  1  0  0  0  0  0  0  0  0  0
    7.4924  -14.6165   20.4048 O   0  0  0  0  0  0  0  0  0  0  0  0
    9.4272  -14.2349   19.0818 C   0  0  2  0  0  0  0  0  0  0  0  0
    8.6837  -14.9271   18.0217 N   0  0  0  0  0  0  0  0  0  0  0  0
   10.3675  -15.1573   19.7224 C   0  0  0  0  0  0  0  0  0  0  0  0
   10.0967  -16.3906   19.7442 O   0  0  0  0  0  0  0  0  0  0  0  0
   14.6053  -13.7845   18.9299 N   0  0  0  0  0  0  0  0  0  0  0  0
   14.3219  -15.0782   19.4357 C   0  0  0  0  0  0  0  0  0  0  0  0
   14.4145  -16.0918   18.7037 O   0  0  0  0  0  0  0  0  0  0  0  0
   13.9125  -15.2450   20.8387 C   0  0  0  0  0  0  0  0  0  0  0  0
   12.4822  -15.7218   20.9693 C   0  0  2  0  0  0  0  0  0  0  0  0
   11.5835  -14.7718   20.3332 N   0  0  0  0  0  0  0  0  0  0  0  0
   12.0884  -16.0070   22.3596 C   0  0  0  0  0  0  0  0  0  0  0  0
   12.6912  -16.9969   23.1199 O   0  0  0  0  0  0  0  0  0  0  0  0
   11.1713  -15.3459   22.9140 O   0  0  0  0  0  0  0  0  0  0  0  0
  2  1  1  6
  2  4  1  0
  3  2  1  0
  4  5  2  0
  7  6  1  6
  7  9  1  0
  8  7  1  0
  9 11  1  0
 10  4  1  0
  9 10  1  6
 11 12  2  0
 13 14  1  0
 14 16  1  0
 14 15  2  0
 17 16  1  1
 17 19  1  0
 18 17  1  0
 18 11  1  0
 19 21  2  0
 19 20  1  0
M  END
$$$$
