ATN.pdb
     RDKit          3D

 21 20  0  0  1  0  0  0  0  0999 V2000
    7.4157  -12.2280   19.1542 C   0  0  0  0  0  0  0  0  0  0  0  0
    8.7456  -12.9706   19.3205 C   0  0  2  0  0  0  0  0  0  0  0  0
    9.1520  -13.5558   18.0623 N   0  0  0  0  0  0  0  0  0  0  0  0
    8.5190  -14.0140   20.3487 C   0  0  0  0  0  0  0  0  0  0  0  0
    8.0165  -13.6610   21.4434 O   0  0  0  0  0  0  0  0  0  0  0  0
    6.7101  -17.3274   19.7163 C   0  0  0  0  0  0  0  0  0  0  0  0
    8.0241  -17.6049   20.4048 C   0  0  1  0  0  0  0  0  0  0  0  0
    8.9571  -18.0230   19.4615 O   0  0  0  0  0  0  0  0  0  0  0  0
    8.5500  -16.4100   21.1562 C   0  0  2  0  0  0  0  0  0  0  0  0
    8.8372  -15.3711   20.1593 N   0  0  0  0  0  0  0  0  0  0  0  0
    9.7444  -16.6814   21.9594 C   0  0  0  0  0  0  0  0  0  0  0  0
   10.8771  -16.3660   21.4984 O   0  0  0  0  0  0  0  0  0  0  0  0
   11.9149  -18.3831   27.3554 N   0  0  0  0  0  0  0  0  0  0  0  0
   12.0350  -17.6000   26.1798 C   0  0  0  0  0  0  0  0  0  0  0  0
   13.1546  -17.1981   25.7837 O   0  0  0  0  0  0  0  0  0  0  0  0
   10.8347  -17.2479   25.4058 C   0  0  0  0  0  0  0  0  0  0  0  0
   10.9501  -17.6451   23.9501 C   0  0  2  0  0  0  0  0  0  0  0  0
    9.7342  -17.2818   23.2399 N   0  0  0  0  0  0  0  0  0  0  0  0
   11.2964  -19.0640   23.7597 C   0  0  0  0  0  0  0  0  0  0  0  0
   12.6056  -19.5189   23.7445 O   0  0  0  0  0  0  0  0  0  0  0  0
   10.3942  -19.9278   23.6011 O   0  0  0  0  0  0  0  0  0  0  0  0
  2  1  1  6
  2  4  1  0
  3  2  1  0
  4  5  2  0
  7  6  1  6
  7  9  1  0
  8  7  1  0
  9 11  1  0
 10  4  1  0
  9 10  1  6
 11 12  2  0
 13 14  1  0
 14 16  1  0
 14 15  2  0
 17 16  1  1
 17 19  1  0
 18 17  1  0
 18 11  1  0
 19 21  2  0
 19 20  1  0
M  END
$$$$
