ATN.pdb
     RDKit          3D

 21 20  0  0  1  0  0  0  0  0999 V2000
    2.6232  -20.2137   14.1719 C   0  0  0  0  0  0  0  0  0  0  0  0
    3.4964  -19.2851   15.0223 C   0  0  2  0  0  0  0  0  0  0  0  0
    4.6840  -18.9062   14.2897 N   0  0  0  0  0  0  0  0  0  0  0  0
    3.8420  -20.0404   16.2500 C   0  0  0  0  0  0  0  0  0  0  0  0
    3.3122  -21.1661   16.4161 O   0  0  0  0  0  0  0  0  0  0  0  0
    6.9132  -21.6167   17.0089 C   0  0  0  0  0  0  0  0  0  0  0  0
    6.6632  -20.6381   18.1302 C   0  0  1  0  0  0  0  0  0  0  0  0
    7.3218  -19.4446   17.8529 O   0  0  0  0  0  0  0  0  0  0  0  0
    5.1972  -20.3776   18.3580 C   0  0  2  0  0  0  0  0  0  0  0  0
    4.7284  -19.5610   17.2314 N   0  0  0  0  0  0  0  0  0  0  0  0
    4.8940  -19.7089   19.6254 C   0  0  0  0  0  0  0  0  0  0  0  0
    5.1702  -18.4831   19.7525 O   0  0  0  0  0  0  0  0  0  0  0  0
    1.6898  -18.8489   20.9295 N   0  0  0  0  0  0  0  0  0  0  0  0
    1.6180  -19.7251   22.0416 C   0  0  0  0  0  0  0  0  0  0  0  0
    0.5122  -20.1137   22.4866 O   0  0  0  0  0  0  0  0  0  0  0  0
    2.8532  -20.1914   22.6904 C   0  0  0  0  0  0  0  0  0  0  0  0
    4.0970  -19.6566   22.0144 C   0  0  2  0  0  0  0  0  0  0  0  0
    4.3029  -20.3374   20.7460 N   0  0  0  0  0  0  0  0  0  0  0  0
    5.2943  -19.7124   22.8705 C   0  0  0  0  0  0  0  0  0  0  0  0
    5.5603  -18.7657   23.8473 O   0  0  0  0  0  0  0  0  0  0  0  0
    6.1328  -20.6424   22.7391 O   0  0  0  0  0  0  0  0  0  0  0  0
  2  1  1  6
  2  4  1  0
  3  2  1  0
  4  5  2  0
  7  6  1  6
  7  9  1  0
  8  7  1  0
  9 11  1  0
 10  4  1  0
  9 10  1  6
 11 12  2  0
 13 14  1  0
 14 16  1  0
 14 15  2  0
 17 16  1  1
 17 19  1  0
 18 17  1  0
 18 11  1  0
 19 21  2  0
 19 20  1  0
M  END
$$$$
