ATN.pdb
     RDKit          3D

 21 20  0  0  1  0  0  0  0  0999 V2000
    9.9128  -13.9860   16.9638 C   0  0  0  0  0  0  0  0  0  0  0  0
    8.4767  -13.9769   17.4983 C   0  0  2  0  0  0  0  0  0  0  0  0
    7.8188  -12.7396   17.1421 N   0  0  0  0  0  0  0  0  0  0  0  0
    8.5746  -14.1278   18.9696 C   0  0  0  0  0  0  0  0  0  0  0  0
    8.9549  -13.1359   19.6382 O   0  0  0  0  0  0  0  0  0  0  0  0
    5.7603  -15.3793   21.1990 C   0  0  0  0  0  0  0  0  0  0  0  0
    7.0111  -16.1692   21.4980 C   0  0  1  0  0  0  0  0  0  0  0  0
    6.9514  -17.3911   20.8358 O   0  0  0  0  0  0  0  0  0  0  0  0
    8.2682  -15.4344   21.1127 C   0  0  2  0  0  0  0  0  0  0  0  0
    8.2645  -15.3199   19.6490 N   0  0  0  0  0  0  0  0  0  0  0  0
    9.5043  -16.0774   21.5645 C   0  0  0  0  0  0  0  0  0  0  0  0
   10.1637  -16.7790   20.7473 O   0  0  0  0  0  0  0  0  0  0  0  0
   13.1335  -17.4103   26.1132 N   0  0  0  0  0  0  0  0  0  0  0  0
   13.0855  -16.5959   24.9539 C   0  0  0  0  0  0  0  0  0  0  0  0
   14.1178  -16.3740   24.2779 O   0  0  0  0  0  0  0  0  0  0  0  0
   11.8107  -15.9974   24.5288 C   0  0  0  0  0  0  0  0  0  0  0  0
   11.2521  -16.6532   23.2847 C   0  0  2  0  0  0  0  0  0  0  0  0
   10.0336  -15.9751   22.8720 N   0  0  0  0  0  0  0  0  0  0  0  0
   11.0519  -18.1050   23.4320 C   0  0  0  0  0  0  0  0  0  0  0  0
    9.8450  -18.6571   23.8316 O   0  0  0  0  0  0  0  0  0  0  0  0
   11.9918  -18.9085   23.1942 O   0  0  0  0  0  0  0  0  0  0  0  0
  2  1  1  6
  2  4  1  0
  3  2  1  0
  4  5  2  0
  7  6  1  6
  7  9  1  0
  8  7  1  0
  9 11  1  0
 10  4  1  0
  9 10  1  6
 11 12  2  0
 13 14  1  0
 14 16  1  0
 14 15  2  0
 17 16  1  1
 17 19  1  0
 18 17  1  0
 18 11  1  0
 19 21  2  0
 19 20  1  0
M  END
$$$$
