QWC.pdb
     RDKit          3D

 30 31  0  0  1  0  0  0  0  0999 V2000
   30.9479  -24.1660  -17.0698 N   0  0  0  0  0  0  0  0  0  0  0  0
   30.5308  -23.2430  -18.0985 C   0  0  0  0  0  0  0  0  0  0  0  0
   31.2695  -23.1640  -19.1026 O   0  0  0  0  0  0  0  0  0  0  0  0
   29.3086  -22.4523  -17.9497 C   0  0  0  0  0  0  0  0  0  0  0  0
   28.5470  -22.6528  -16.7013 C   0  0  0  0  0  0  0  0  0  0  0  0
   27.7792  -21.5179  -16.1455 C   0  0  2  0  0  0  0  0  0  0  0  0
   28.5111  -20.2466  -16.2878 N   0  0  0  0  0  0  0  0  0  0  0  0
   27.1292  -21.6765  -14.8429 C   0  0  0  0  0  0  0  0  0  0  0  0
   26.5038  -22.7681  -14.5742 O   0  0  0  0  0  0  0  0  0  0  0  0
   27.1335  -20.6958  -13.8296 N   0  0  0  0  0  0  0  0  0  0  0  0
   26.4786  -20.9599  -12.5300 C   0  0  1  0  0  0  0  0  0  0  0  0
   27.1993  -20.2195  -11.4586 C   0  0  0  0  0  0  0  0  0  0  0  0
   26.5718  -20.1904  -10.1348 C   0  0  0  0  0  0  0  0  0  0  0  0
   25.2324  -20.0660   -9.7930 C   0  0  0  0  0  0  0  0  0  0  0  0
   25.1048  -20.0532   -8.4542 N   0  0  0  0  0  0  0  0  0  0  0  0
   26.3124  -20.1648   -7.8792 C   0  0  0  0  0  0  0  0  0  0  0  0
   26.7005  -20.1999   -6.5572 C   0  0  0  0  0  0  0  0  0  0  0  0
   28.0571  -20.3254   -6.3026 C   0  0  0  0  0  0  0  0  0  0  0  0
   28.9985  -20.4134   -7.3032 C   0  0  0  0  0  0  0  0  0  0  0  0
   28.5647  -20.3740   -8.5954 C   0  0  0  0  0  0  0  0  0  0  0  0
   27.2316  -20.2507   -8.9025 C   0  0  0  0  0  0  0  0  0  0  0  0
   25.0425  -20.6693  -12.6478 C   0  0  0  0  0  0  0  0  0  0  0  0
   24.6315  -19.5105  -12.9922 O   0  0  0  0  0  0  0  0  0  0  0  0
   24.0368  -21.6096  -12.4087 N   0  0  0  0  0  0  0  0  0  0  0  0
   22.6394  -21.3450  -12.7025 C   0  0  1  0  0  0  0  0  0  0  0  0
   21.9519  -22.5691  -13.2856 C   0  0  0  0  0  0  0  0  0  0  0  0
   22.7317  -22.8475  -14.9092 S   0  0  0  0  0  0  0  0  0  0  0  0
   21.9244  -20.9933  -11.4825 C   0  0  0  0  0  0  0  0  0  0  0  0
   22.5384  -21.0789  -10.3651 O   0  0  0  0  0  0  0  0  0  0  0  0
   20.6178  -20.5749  -11.5160 O   0  0  0  0  0  0  0  0  0  0  0  0
  2  1  1  0
  3  2  2  0
  4  2  1  0
  5  4  1  0
  6  5  1  0
  6  7  1  1
  8  9  2  0
  8  6  1  0
 10  8  1  0
 11 10  1  0
 11 12  1  1
 13 12  1  0
 14 13  2  0
 15 16  1  0
 15 14  1  0
 16 21  2  0
 17 16  1  0
 17 18  2  0
 18 19  1  0
 19 20  2  0
 21 13  1  0
 21 20  1  0
 22 11  1  0
 23 22  2  0
 24 22  1  0
 25 28  1  0
 25 24  1  0
 25 26  1  1
 27 26  1  0
 28 30  1  0
 29 28  2  0
M  END
$$$$
