QWC.pdb
     RDKit          3D

 30 31  0  0  1  0  0  0  0  0999 V2000
   26.4661  -21.4083  -19.0444 N   0  0  0  0  0  0  0  0  0  0  0  0
   27.6130  -22.2122  -19.3941 C   0  0  0  0  0  0  0  0  0  0  0  0
   28.1095  -22.0057  -20.5215 O   0  0  0  0  0  0  0  0  0  0  0  0
   28.1448  -23.2094  -18.4647 C   0  0  0  0  0  0  0  0  0  0  0  0
   27.4793  -23.2999  -17.1502 C   0  0  0  0  0  0  0  0  0  0  0  0
   27.5414  -22.1369  -16.2392 C   0  0  2  0  0  0  0  0  0  0  0  0
   28.9329  -21.7330  -15.9696 N   0  0  0  0  0  0  0  0  0  0  0  0
   26.6880  -22.1266  -15.0492 C   0  0  0  0  0  0  0  0  0  0  0  0
   26.1188  -23.2152  -14.6668 O   0  0  0  0  0  0  0  0  0  0  0  0
   26.4316  -20.9819  -14.2667 N   0  0  0  0  0  0  0  0  0  0  0  0
   25.5815  -21.0755  -13.0600 C   0  0  1  0  0  0  0  0  0  0  0  0
   26.0652  -20.1024  -12.0430 C   0  0  0  0  0  0  0  0  0  0  0  0
   27.2525  -20.4825  -11.2729 C   0  0  0  0  0  0  0  0  0  0  0  0
   28.4926  -20.9198  -11.7170 C   0  0  0  0  0  0  0  0  0  0  0  0
   29.2826  -21.1907  -10.6628 N   0  0  0  0  0  0  0  0  0  0  0  0
   28.6189  -20.9514   -9.5212 C   0  0  0  0  0  0  0  0  0  0  0  0
   28.9906  -21.0741   -8.1996 C   0  0  0  0  0  0  0  0  0  0  0  0
   28.0436  -20.7366   -7.2456 C   0  0  0  0  0  0  0  0  0  0  0  0
   26.7808  -20.2958   -7.5717 C   0  0  0  0  0  0  0  0  0  0  0  0
   26.4608  -20.1913   -8.8931 C   0  0  0  0  0  0  0  0  0  0  0  0
   27.3622  -20.5129   -9.8784 C   0  0  0  0  0  0  0  0  0  0  0  0
   24.1719  -20.9359  -13.4533 C   0  0  0  0  0  0  0  0  0  0  0  0
   23.7931  -19.9866  -14.2185 O   0  0  0  0  0  0  0  0  0  0  0  0
   23.1602  -21.8080  -13.0428 N   0  0  0  0  0  0  0  0  0  0  0  0
   21.7665  -21.6029  -13.3957 C   0  0  1  0  0  0  0  0  0  0  0  0
   20.9158  -22.8074  -13.0262 C   0  0  0  0  0  0  0  0  0  0  0  0
   19.2194  -22.1719  -12.8262 S   0  0  0  0  0  0  0  0  0  0  0  0
   21.2254  -20.4591  -12.6730 C   0  0  0  0  0  0  0  0  0  0  0  0
   21.6407  -20.2307  -11.4864 O   0  0  0  0  0  0  0  0  0  0  0  0
   20.2891  -19.6329  -13.2421 O   0  0  0  0  0  0  0  0  0  0  0  0
  2  1  1  0
  3  2  2  0
  4  2  1  0
  5  4  1  0
  6  5  1  0
  6  7  1  1
  8  9  2  0
  8  6  1  0
 10  8  1  0
 11 10  1  0
 11 12  1  1
 13 12  1  0
 14 13  2  0
 15 16  1  0
 15 14  1  0
 16 21  2  0
 17 16  1  0
 17 18  2  0
 18 19  1  0
 19 20  2  0
 21 13  1  0
 21 20  1  0
 22 11  1  0
 23 22  2  0
 24 22  1  0
 25 28  1  0
 25 24  1  0
 25 26  1  1
 27 26  1  0
 28 30  1  0
 29 28  2  0
M  END
$$$$
