QWC.pdb
     RDKit          3D

 30 31  0  0  1  0  0  0  0  0999 V2000
   25.0773  -18.0536  -20.2529 N   0  0  0  0  0  0  0  0  0  0  0  0
   26.4417  -17.7352  -20.6008 C   0  0  0  0  0  0  0  0  0  0  0  0
   26.5979  -16.9066  -21.5223 O   0  0  0  0  0  0  0  0  0  0  0  0
   27.5630  -18.3631  -19.9012 C   0  0  0  0  0  0  0  0  0  0  0  0
   27.2160  -19.2682  -18.7881 C   0  0  0  0  0  0  0  0  0  0  0  0
   27.1002  -18.7081  -17.4245 C   0  0  2  0  0  0  0  0  0  0  0  0
   28.3195  -17.9791  -17.0325 N   0  0  0  0  0  0  0  0  0  0  0  0
   26.5548  -19.5521  -16.3592 C   0  0  0  0  0  0  0  0  0  0  0  0
   25.7745  -20.5295  -16.6604 O   0  0  0  0  0  0  0  0  0  0  0  0
   26.8244  -19.3707  -14.9871 N   0  0  0  0  0  0  0  0  0  0  0  0
   26.1927  -20.2484  -13.9780 C   0  0  1  0  0  0  0  0  0  0  0  0
   26.9397  -20.1376  -12.6955 C   0  0  0  0  0  0  0  0  0  0  0  0
   26.4286  -20.9112  -11.5609 C   0  0  0  0  0  0  0  0  0  0  0  0
   26.0397  -22.2421  -11.5009 C   0  0  0  0  0  0  0  0  0  0  0  0
   25.6016  -22.5317  -10.2626 N   0  0  0  0  0  0  0  0  0  0  0  0
   25.6812  -21.4418   -9.4835 C   0  0  0  0  0  0  0  0  0  0  0  0
   25.3577  -21.2333   -8.1601 C   0  0  0  0  0  0  0  0  0  0  0  0
   25.5673  -19.9601   -7.6540 C   0  0  0  0  0  0  0  0  0  0  0  0
   26.0740  -18.9299   -8.4136 C   0  0  0  0  0  0  0  0  0  0  0  0
   26.3787  -19.1861   -9.7179 C   0  0  0  0  0  0  0  0  0  0  0  0
   26.1902  -20.4302  -10.2688 C   0  0  0  0  0  0  0  0  0  0  0  0
   24.7569  -19.9415  -13.9058 C   0  0  0  0  0  0  0  0  0  0  0  0
   24.3464  -18.7391  -13.7797 O   0  0  0  0  0  0  0  0  0  0  0  0
   23.7507  -20.9086  -13.9756 N   0  0  0  0  0  0  0  0  0  0  0  0
   22.3449  -20.5808  -13.8168 C   0  0  1  0  0  0  0  0  0  0  0  0
   21.4537  -21.6068  -14.4980 C   0  0  0  0  0  0  0  0  0  0  0  0
   22.0396  -23.2326  -13.9189 S   0  0  0  0  0  0  0  0  0  0  0  0
   21.9846  -20.5714  -12.4049 C   0  0  0  0  0  0  0  0  0  0  0  0
   22.8279  -21.0152  -11.5536 O   0  0  0  0  0  0  0  0  0  0  0  0
   20.7685  -20.0972  -11.9814 O   0  0  0  0  0  0  0  0  0  0  0  0
  2  1  1  0
  3  2  2  0
  4  2  1  0
  5  4  1  0
  6  5  1  0
  6  7  1  1
  8  9  2  0
  8  6  1  0
 10  8  1  0
 11 10  1  0
 11 12  1  1
 13 12  1  0
 14 13  2  0
 15 16  1  0
 15 14  1  0
 16 21  2  0
 17 16  1  0
 17 18  2  0
 18 19  1  0
 19 20  2  0
 21 13  1  0
 21 20  1  0
 22 11  1  0
 23 22  2  0
 24 22  1  0
 25 28  1  0
 25 24  1  0
 25 26  1  6
 27 26  1  0
 28 30  1  0
 29 28  2  0
M  END
$$$$
