QWC.pdb
     RDKit          3D

 30 31  0  0  1  0  0  0  0  0999 V2000
   26.1527  -16.7787  -14.5090 N   0  0  0  0  0  0  0  0  0  0  0  0
   26.7848  -17.2084  -15.7337 C   0  0  0  0  0  0  0  0  0  0  0  0
   26.3936  -16.6528  -16.7818 O   0  0  0  0  0  0  0  0  0  0  0  0
   27.8214  -18.2410  -15.7236 C   0  0  0  0  0  0  0  0  0  0  0  0
   28.2545  -18.7209  -14.3967 C   0  0  0  0  0  0  0  0  0  0  0  0
   28.1985  -20.1705  -14.1107 C   0  0  2  0  0  0  0  0  0  0  0  0
   28.4355  -20.9723  -15.3243 N   0  0  0  0  0  0  0  0  0  0  0  0
   27.1115  -20.6830  -13.2738 C   0  0  0  0  0  0  0  0  0  0  0  0
   26.4519  -21.7198  -13.6545 O   0  0  0  0  0  0  0  0  0  0  0  0
   26.7176  -20.1105  -12.0468 N   0  0  0  0  0  0  0  0  0  0  0  0
   25.6814  -20.7614  -11.2159 C   0  0  1  0  0  0  0  0  0  0  0  0
   25.9149  -20.4212   -9.7858 C   0  0  0  0  0  0  0  0  0  0  0  0
   27.2287  -20.7558   -9.2300 C   0  0  0  0  0  0  0  0  0  0  0  0
   28.2238  -21.5760   -9.7433 C   0  0  0  0  0  0  0  0  0  0  0  0
   29.2579  -21.6268   -8.8849 N   0  0  0  0  0  0  0  0  0  0  0  0
   28.9960  -20.8688   -7.8088 C   0  0  0  0  0  0  0  0  0  0  0  0
   29.7296  -20.6013   -6.6731 C   0  0  0  0  0  0  0  0  0  0  0  0
   29.1539  -19.7580   -5.7360 C   0  0  0  0  0  0  0  0  0  0  0  0
   27.9077  -19.1974   -5.9034 C   0  0  0  0  0  0  0  0  0  0  0  0
   27.2211  -19.4925   -7.0440 C   0  0  0  0  0  0  0  0  0  0  0  0
   27.7460  -20.3224   -8.0043 C   0  0  0  0  0  0  0  0  0  0  0  0
   24.3541  -20.4138  -11.7434 C   0  0  0  0  0  0  0  0  0  0  0  0
   23.9606  -19.1999  -11.7873 O   0  0  0  0  0  0  0  0  0  0  0  0
   23.4424  -21.3521  -12.2342 N   0  0  0  0  0  0  0  0  0  0  0  0
   22.1607  -20.9689  -12.7993 C   0  0  1  0  0  0  0  0  0  0  0  0
   21.6476  -22.0153  -13.7754 C   0  0  0  0  0  0  0  0  0  0  0  0
   22.9262  -22.1561  -15.0665 S   0  0  0  0  0  0  0  0  0  0  0  0
   21.1622  -20.8405  -11.7457 C   0  0  0  0  0  0  0  0  0  0  0  0
   21.4793  -21.1792  -10.5552 O   0  0  0  0  0  0  0  0  0  0  0  0
   19.9023  -20.3651  -12.0102 O   0  0  0  0  0  0  0  0  0  0  0  0
  2  1  1  0
  3  2  2  0
  4  2  1  0
  5  4  1  0
  6  5  1  0
  6  7  1  6
  8  9  2  0
  8  6  1  0
 10  8  1  0
 11 10  1  0
 11 12  1  1
 13 12  1  0
 14 13  2  0
 15 16  1  0
 15 14  1  0
 16 21  2  0
 17 16  1  0
 17 18  2  0
 18 19  1  0
 19 20  2  0
 21 13  1  0
 21 20  1  0
 22 11  1  0
 23 22  2  0
 24 22  1  0
 25 28  1  0
 25 24  1  0
 25 26  1  6
 27 26  1  0
 28 30  1  0
 29 28  2  0
M  END
$$$$
