QWC.pdb
     RDKit          3D

 30 31  0  0  1  0  0  0  0  0999 V2000
   27.0133  -22.8586  -17.8006 N   0  0  0  0  0  0  0  0  0  0  0  0
   28.3449  -22.3011  -17.7975 C   0  0  0  0  0  0  0  0  0  0  0  0
   28.8364  -22.0379  -18.9153 O   0  0  0  0  0  0  0  0  0  0  0  0
   29.0607  -22.0688  -16.5426 C   0  0  0  0  0  0  0  0  0  0  0  0
   28.2901  -22.2773  -15.3011 C   0  0  0  0  0  0  0  0  0  0  0  0
   27.3707  -21.2122  -14.8464 C   0  0  2  0  0  0  0  0  0  0  0  0
   28.0527  -19.9088  -14.7573 N   0  0  0  0  0  0  0  0  0  0  0  0
   26.4790  -21.4846  -13.7172 C   0  0  0  0  0  0  0  0  0  0  0  0
   25.9332  -22.6441  -13.6047 O   0  0  0  0  0  0  0  0  0  0  0  0
   26.1604  -20.5466  -12.7137 N   0  0  0  0  0  0  0  0  0  0  0  0
   25.1893  -20.8878  -11.6516 C   0  0  1  0  0  0  0  0  0  0  0  0
   25.5924  -20.2178  -10.3852 C   0  0  0  0  0  0  0  0  0  0  0  0
   26.8703  -20.6264   -9.7960 C   0  0  0  0  0  0  0  0  0  0  0  0
   27.8725  -21.4277  -10.3248 C   0  0  0  0  0  0  0  0  0  0  0  0
   28.8620  -21.5703   -9.4250 N   0  0  0  0  0  0  0  0  0  0  0  0
   28.5627  -20.8927   -8.3059 C   0  0  0  0  0  0  0  0  0  0  0  0
   29.2448  -20.7327   -7.1190 C   0  0  0  0  0  0  0  0  0  0  0  0
   28.6408  -19.9516   -6.1463 C   0  0  0  0  0  0  0  0  0  0  0  0
   27.4160  -19.3499   -6.3277 C   0  0  0  0  0  0  0  0  0  0  0  0
   26.7805  -19.5382   -7.5194 C   0  0  0  0  0  0  0  0  0  0  0  0
   27.3352  -20.3028   -8.5166 C   0  0  0  0  0  0  0  0  0  0  0  0
   23.8315  -20.5848  -12.1266 C   0  0  0  0  0  0  0  0  0  0  0  0
   23.4702  -19.3835  -12.3645 O   0  0  0  0  0  0  0  0  0  0  0  0
   22.8544  -21.5563  -12.3592 N   0  0  0  0  0  0  0  0  0  0  0  0
   21.5554  -21.2332  -12.9225 C   0  0  1  0  0  0  0  0  0  0  0  0
   20.9933  -22.3941  -13.7270 C   0  0  0  0  0  0  0  0  0  0  0  0
   22.1659  -22.6600  -15.0967 S   0  0  0  0  0  0  0  0  0  0  0  0
   20.6007  -20.9473  -11.8595 C   0  0  0  0  0  0  0  0  0  0  0  0
   20.8566  -21.3601  -10.6776 O   0  0  0  0  0  0  0  0  0  0  0  0
   19.4457  -20.2483  -12.1060 O   0  0  0  0  0  0  0  0  0  0  0  0
  2  1  1  0
  3  2  2  0
  4  2  1  0
  5  4  1  0
  6  5  1  0
  6  7  1  1
  8  9  2  0
  8  6  1  0
 10  8  1  0
 11 10  1  0
 11 12  1  1
 13 12  1  0
 14 13  2  0
 15 16  1  0
 15 14  1  0
 16 21  2  0
 17 16  1  0
 17 18  2  0
 18 19  1  0
 19 20  2  0
 21 13  1  0
 21 20  1  0
 22 11  1  0
 23 22  2  0
 24 22  1  0
 25 28  1  0
 25 24  1  0
 25 26  1  1
 27 26  1  0
 28 30  1  0
 29 28  2  0
M  END
$$$$
