QWC.pdb
     RDKit          3D

 30 31  0  0  1  0  0  0  0  0999 V2000
   28.7285  -16.0324  -19.7948 N   0  0  0  0  0  0  0  0  0  0  0  0
   29.3976  -17.2391  -19.3705 C   0  0  0  0  0  0  0  0  0  0  0  0
   30.3355  -17.6346  -20.0945 O   0  0  0  0  0  0  0  0  0  0  0  0
   28.9810  -17.9442  -18.1580 C   0  0  0  0  0  0  0  0  0  0  0  0
   27.6461  -18.5732  -18.1924 C   0  0  0  0  0  0  0  0  0  0  0  0
   26.6281  -18.1371  -17.2127 C   0  0  2  0  0  0  0  0  0  0  0  0
   26.8729  -16.7582  -16.7537 N   0  0  0  0  0  0  0  0  0  0  0  0
   26.2473  -19.0535  -16.1358 C   0  0  0  0  0  0  0  0  0  0  0  0
   25.9312  -20.2682  -16.4180 O   0  0  0  0  0  0  0  0  0  0  0  0
   26.1963  -18.6977  -14.7722 N   0  0  0  0  0  0  0  0  0  0  0  0
   25.8181  -19.6988  -13.7514 C   0  0  1  0  0  0  0  0  0  0  0  0
   26.4985  -19.3719  -12.4686 C   0  0  0  0  0  0  0  0  0  0  0  0
   26.3799  -20.3521  -11.3859 C   0  0  0  0  0  0  0  0  0  0  0  0
   26.2804  -21.7349  -11.4512 C   0  0  0  0  0  0  0  0  0  0  0  0
   26.1566  -22.2402  -10.2110 N   0  0  0  0  0  0  0  0  0  0  0  0
   26.1690  -21.2461   -9.3094 C   0  0  0  0  0  0  0  0  0  0  0  0
   26.0735  -21.2518   -7.9345 C   0  0  0  0  0  0  0  0  0  0  0  0
   26.1217  -20.0231   -7.2951 C   0  0  0  0  0  0  0  0  0  0  0  0
   26.2582  -18.8338   -7.9747 C   0  0  0  0  0  0  0  0  0  0  0  0
   26.3487  -18.8804   -9.3346 C   0  0  0  0  0  0  0  0  0  0  0  0
   26.3063  -20.0716  -10.0172 C   0  0  0  0  0  0  0  0  0  0  0  0
   24.3523  -19.7903  -13.6880 C   0  0  0  0  0  0  0  0  0  0  0  0
   23.6217  -18.7515  -13.8202 O   0  0  0  0  0  0  0  0  0  0  0  0
   23.6556  -20.9857  -13.4925 N   0  0  0  0  0  0  0  0  0  0  0  0
   22.2096  -21.0312  -13.3669 C   0  0  1  0  0  0  0  0  0  0  0  0
   21.6784  -22.4426  -13.5586 C   0  0  0  0  0  0  0  0  0  0  0  0
   19.8691  -22.3188  -13.3776 S   0  0  0  0  0  0  0  0  0  0  0  0
   21.8043  -20.5987  -12.0357 C   0  0  0  0  0  0  0  0  0  0  0  0
   22.5941  -20.8121  -11.0542 O   0  0  0  0  0  0  0  0  0  0  0  0
   20.6021  -19.9716  -11.8239 O   0  0  0  0  0  0  0  0  0  0  0  0
  2  1  1  0
  3  2  2  0
  4  2  1  0
  5  4  1  0
  6  5  1  0
  6  7  1  1
  8  9  2  0
  8  6  1  0
 10  8  1  0
 11 10  1  0
 11 12  1  1
 13 12  1  0
 14 13  2  0
 15 16  1  0
 15 14  1  0
 16 21  2  0
 17 16  1  0
 17 18  2  0
 18 19  1  0
 19 20  2  0
 21 13  1  0
 21 20  1  0
 22 11  1  0
 23 22  2  0
 24 22  1  0
 25 28  1  0
 25 24  1  0
 25 26  1  1
 27 26  1  0
 28 30  1  0
 29 28  2  0
M  END
$$$$
