ERQ.pdb
     RDKit          3D

 30 29  0  0  1  0  0  0  0  0999 V2000
   24.8299  -21.1905  -10.9743 N   0  0  0  0  0  0  0  0  0  0  0  0
   24.5392  -21.3217  -12.3857 C   0  0  1  0  0  0  0  0  0  0  0  0
   23.0840  -21.5138  -12.6413 C   0  0  0  0  0  0  0  0  0  0  0  0
   22.2488  -21.5894  -11.3891 C   0  0  0  0  0  0  0  0  0  0  0  0
   20.8269  -21.8555  -11.6061 C   0  0  0  0  0  0  0  0  0  0  0  0
   19.9316  -20.9685  -11.7703 O   0  0  0  0  0  0  0  0  0  0  0  0
   25.0737  -20.1293  -13.1519 C   0  0  0  0  0  0  0  0  0  0  0  0
   25.0271  -19.0059  -12.6261 O   0  0  0  0  0  0  0  0  0  0  0  0
   20.3899  -23.1929  -11.6398 O   0  0  0  0  0  0  0  0  0  0  0  0
   29.9741  -24.2768  -15.8047 N   0  0  0  0  0  0  0  0  0  0  0  0
   29.1458  -23.3622  -16.4908 C   0  0  0  0  0  0  0  0  0  0  0  0
   27.9325  -23.6116  -16.7759 N   0  0  0  0  0  0  0  0  0  0  0  0
   29.6692  -22.0981  -16.8945 N   0  0  0  0  0  0  0  0  0  0  0  0
   28.8569  -20.9635  -17.1862 C   0  0  0  0  0  0  0  0  0  0  0  0
   27.7781  -20.7431  -16.1431 C   0  0  0  0  0  0  0  0  0  0  0  0
   26.9544  -19.5430  -16.4034 C   0  0  0  0  0  0  0  0  0  0  0  0
   25.8082  -19.2971  -15.4548 C   0  0  2  0  0  0  0  0  0  0  0  0
   25.6164  -20.2989  -14.4458 N   0  0  0  0  0  0  0  0  0  0  0  0
   24.5774  -19.1191  -16.2395 C   0  0  0  0  0  0  0  0  0  0  0  0
   23.5665  -19.8812  -16.1342 O   0  0  0  0  0  0  0  0  0  0  0  0
   27.2954  -22.9717  -17.2972 N   0  0  0  0  0  0  0  0  0  0  0  0
   21.0007  -14.7922  -15.3771 C   0  0  0  0  0  0  0  0  0  0  0  0
   20.5223  -16.1189  -15.2859 O   0  0  0  0  0  0  0  0  0  0  0  0
   19.3863  -16.3450  -14.8629 C   0  0  0  0  0  0  0  0  0  0  0  0
   21.4629  -17.2039  -15.7270 C   0  0  0  0  0  0  0  0  0  0  0  0
   22.7720  -16.6234  -16.1791 C   0  0  2  0  0  0  0  0  0  0  0  0
   23.2488  -17.3053  -17.4113 N   0  0  0  0  0  0  0  0  0  0  0  0
   24.4714  -18.0642  -17.1646 C   0  0  0  0  0  0  0  0  0  0  0  0
   23.5525  -16.3193  -18.4630 O   0  0  0  0  0  0  0  0  0  0  0  0
   22.7006  -15.5690  -19.0190 O   0  0  0  0  0  0  0  0  0  0  0  0
  2  1  1  1
  3  2  1  0
  3  4  1  0
  5  4  1  0
  5  9  1  0
  6  5  2  0
  7  2  1  0
  7  8  2  0
 10 11  1  0
 11 12  2  0
 13 11  1  0
 13 14  1  0
 14 15  1  0
 16 15  1  0
 17 16  1  6
 17 18  1  0
 18  7  1  0
 19 20  2  0
 19 17  1  0
 22 21  1  0
 22 23  2  0
 24 22  1  0
 25 24  1  0
 26 25  1  1
 26 27  1  0
 27 19  1  0
 28 26  1  0
 29 28  2  0
 30 28  1  0
M  END
$$$$
