ERQ.pdb
     RDKit          3D

 30 29  0  0  1  0  0  0  0  0999 V2000
   25.2717  -15.4298  -19.9419 N   0  0  0  0  0  0  0  0  0  0  0  0
   24.9484  -15.4432  -18.5315 C   0  0  1  0  0  0  0  0  0  0  0  0
   24.0826  -14.2939  -18.1455 C   0  0  0  0  0  0  0  0  0  0  0  0
   24.4818  -12.9876  -18.7823 C   0  0  0  0  0  0  0  0  0  0  0  0
   23.3701  -12.1128  -19.1547 C   0  0  0  0  0  0  0  0  0  0  0  0
   22.1383  -12.4089  -19.0534 O   0  0  0  0  0  0  0  0  0  0  0  0
   24.3084  -16.7608  -18.1451 C   0  0  0  0  0  0  0  0  0  0  0  0
   23.4994  -17.2885  -18.9246 O   0  0  0  0  0  0  0  0  0  0  0  0
   23.6619  -10.8358  -19.6693 O   0  0  0  0  0  0  0  0  0  0  0  0
   27.3443  -20.8851  -11.5583 N   0  0  0  0  0  0  0  0  0  0  0  0
   26.4321  -21.4505  -12.4755 C   0  0  0  0  0  0  0  0  0  0  0  0
   25.7493  -22.4906  -12.2155 N   0  0  0  0  0  0  0  0  0  0  0  0
   26.2518  -20.8496  -13.7567 N   0  0  0  0  0  0  0  0  0  0  0  0
   26.6895  -19.5320  -14.0798 C   0  0  0  0  0  0  0  0  0  0  0  0
   26.4019  -19.1667  -15.5235 C   0  0  0  0  0  0  0  0  0  0  0  0
   25.0826  -19.6427  -15.9918 C   0  0  0  0  0  0  0  0  0  0  0  0
   24.0792  -18.5802  -16.3640 C   0  0  2  0  0  0  0  0  0  0  0  0
   24.6313  -17.3757  -16.9142 N   0  0  0  0  0  0  0  0  0  0  0  0
   23.2578  -18.2739  -15.1834 C   0  0  0  0  0  0  0  0  0  0  0  0
   23.2985  -17.1594  -14.5753 O   0  0  0  0  0  0  0  0  0  0  0  0
   25.0601  -22.9324  -12.8612 N   0  0  0  0  0  0  0  0  0  0  0  0
   18.6664  -17.4350  -17.3760 C   0  0  0  0  0  0  0  0  0  0  0  0
   18.0024  -17.5351  -16.1325 O   0  0  0  0  0  0  0  0  0  0  0  0
   16.8156  -17.2158  -16.0312 C   0  0  0  0  0  0  0  0  0  0  0  0
   18.8153  -18.0429  -14.9759 C   0  0  0  0  0  0  0  0  0  0  0  0
   20.2072  -18.3949  -15.4162 C   0  0  2  0  0  0  0  0  0  0  0  0
   20.9882  -18.9559  -14.2823 N   0  0  0  0  0  0  0  0  0  0  0  0
   22.3683  -19.2349  -14.6685 C   0  0  0  0  0  0  0  0  0  0  0  0
   20.3978  -20.2265  -13.8265 O   0  0  0  0  0  0  0  0  0  0  0  0
   19.3156  -20.3312  -13.1819 O   0  0  0  0  0  0  0  0  0  0  0  0
  2  1  1  6
  3  2  1  0
  3  4  1  0
  5  4  1  0
  5  9  1  0
  6  5  2  0
  7  2  1  0
  7  8  2  0
 10 11  1  0
 11 12  2  0
 13 11  1  0
 13 14  1  0
 14 15  1  0
 16 15  1  0
 17 16  1  1
 17 18  1  0
 18  7  1  0
 19 20  2  0
 19 17  1  0
 22 21  1  0
 22 23  2  0
 24 22  1  0
 25 24  1  0
 26 25  1  1
 26 27  1  0
 27 19  1  0
 28 26  1  0
 29 28  2  0
 30 28  1  0
M  END
$$$$
