ERQ.pdb
     RDKit          3D

 30 29  0  0  1  0  0  0  0  0999 V2000
   20.7966  -20.4290  -13.8415 N   0  0  0  0  0  0  0  0  0  0  0  0
   21.3865  -20.2160  -15.1455 C   0  0  1  0  0  0  0  0  0  0  0  0
   20.4030  -20.4254  -16.2449 C   0  0  0  0  0  0  0  0  0  0  0  0
   18.9819  -20.5888  -15.7702 C   0  0  0  0  0  0  0  0  0  0  0  0
   18.3526  -21.8619  -16.1208 C   0  0  0  0  0  0  0  0  0  0  0  0
   17.7374  -22.6236  -15.3104 O   0  0  0  0  0  0  0  0  0  0  0  0
   22.0105  -18.8382  -15.2285 C   0  0  0  0  0  0  0  0  0  0  0  0
   21.3665  -17.8600  -14.8174 O   0  0  0  0  0  0  0  0  0  0  0  0
   18.4200  -22.3007  -17.4563 O   0  0  0  0  0  0  0  0  0  0  0  0
   28.2448  -20.7032  -13.8498 N   0  0  0  0  0  0  0  0  0  0  0  0
   28.2017  -20.1746  -15.1582 C   0  0  0  0  0  0  0  0  0  0  0  0
   28.2142  -20.9062  -16.1974 N   0  0  0  0  0  0  0  0  0  0  0  0
   28.1433  -18.7622  -15.3497 N   0  0  0  0  0  0  0  0  0  0  0  0
   27.5557  -17.8617  -14.4138 C   0  0  0  0  0  0  0  0  0  0  0  0
   26.0407  -17.8627  -14.4856 C   0  0  0  0  0  0  0  0  0  0  0  0
   25.5225  -17.5427  -15.8330 C   0  0  0  0  0  0  0  0  0  0  0  0
   24.0237  -17.4485  -15.9707 C   0  0  2  0  0  0  0  0  0  0  0  0
   23.3070  -18.6745  -15.7668 N   0  0  0  0  0  0  0  0  0  0  0  0
   23.7066  -16.8838  -17.2908 C   0  0  0  0  0  0  0  0  0  0  0  0
   23.8438  -17.5286  -18.3767 O   0  0  0  0  0  0  0  0  0  0  0  0
   28.2075  -20.5541  -17.1788 N   0  0  0  0  0  0  0  0  0  0  0  0
   19.6684  -12.3869  -17.9142 C   0  0  0  0  0  0  0  0  0  0  0  0
   19.5095  -13.7002  -17.4170 O   0  0  0  0  0  0  0  0  0  0  0  0
   18.4775  -14.0224  -16.8239 C   0  0  0  0  0  0  0  0  0  0  0  0
   20.6488  -14.6503  -17.6534 C   0  0  0  0  0  0  0  0  0  0  0  0
   21.7074  -14.0119  -18.5059 C   0  0  2  0  0  0  0  0  0  0  0  0
   22.8711  -14.9236  -18.6648 N   0  0  0  0  0  0  0  0  0  0  0  0
   23.2239  -15.5668  -17.4025 C   0  0  0  0  0  0  0  0  0  0  0  0
   24.0560  -14.1749  -19.1187 O   0  0  0  0  0  0  0  0  0  0  0  0
   24.1487  -13.5676  -20.2233 O   0  0  0  0  0  0  0  0  0  0  0  0
  2  1  1  1
  3  2  1  0
  3  4  1  0
  5  4  1  0
  5  9  1  0
  6  5  2  0
  7  2  1  0
  7  8  2  0
 10 11  1  0
 11 12  2  0
 13 11  1  0
 13 14  1  0
 14 15  1  0
 16 15  1  0
 17 16  1  6
 17 18  1  0
 18  7  1  0
 19 20  2  0
 19 17  1  0
 22 21  1  0
 22 23  2  0
 24 22  1  0
 25 24  1  0
 26 25  1  6
 26 27  1  0
 27 19  1  0
 28 26  1  0
 29 28  2  0
 30 28  1  0
M  END
$$$$
