ERQ.pdb
     RDKit          3D

 30 29  0  0  1  0  0  0  0  0999 V2000
   28.1707  -23.5099  -17.3225 N   0  0  0  0  0  0  0  0  0  0  0  0
   27.5083  -22.3737  -16.7190 C   0  0  1  0  0  0  0  0  0  0  0  0
   26.9869  -21.4230  -17.7408 C   0  0  0  0  0  0  0  0  0  0  0  0
   25.9368  -22.0144  -18.6457 C   0  0  0  0  0  0  0  0  0  0  0  0
   25.3780  -21.0923  -19.6343 C   0  0  0  0  0  0  0  0  0  0  0  0
   25.5133  -19.8287  -19.6171 O   0  0  0  0  0  0  0  0  0  0  0  0
   26.4040  -22.8337  -15.7897 C   0  0  0  0  0  0  0  0  0  0  0  0
   26.5965  -23.8279  -15.0719 O   0  0  0  0  0  0  0  0  0  0  0  0
   24.6260  -21.6223  -20.6994 O   0  0  0  0  0  0  0  0  0  0  0  0
   24.4677  -20.7435   -8.7882 N   0  0  0  0  0  0  0  0  0  0  0  0
   25.7730  -20.6738   -9.3216 C   0  0  0  0  0  0  0  0  0  0  0  0
   26.8116  -20.9364   -8.6375 N   0  0  0  0  0  0  0  0  0  0  0  0
   25.9621  -20.2929  -10.6833 N   0  0  0  0  0  0  0  0  0  0  0  0
   24.9799  -19.6064  -11.4553 C   0  0  0  0  0  0  0  0  0  0  0  0
   24.2439  -20.5310  -12.4059 C   0  0  0  0  0  0  0  0  0  0  0  0
   25.0719  -20.9656  -13.5514 C   0  0  0  0  0  0  0  0  0  0  0  0
   24.3877  -21.8218  -14.5874 C   0  0  2  0  0  0  0  0  0  0  0  0
   25.1748  -22.1377  -15.7445 N   0  0  0  0  0  0  0  0  0  0  0  0
   23.1327  -21.1669  -14.9853 C   0  0  0  0  0  0  0  0  0  0  0  0
   23.0671  -19.9559  -15.3634 O   0  0  0  0  0  0  0  0  0  0  0  0
   27.7930  -20.8386   -8.9759 N   0  0  0  0  0  0  0  0  0  0  0  0
   20.8134  -23.4948  -17.4011 C   0  0  0  0  0  0  0  0  0  0  0  0
   19.5759  -22.9089  -17.7515 O   0  0  0  0  0  0  0  0  0  0  0  0
   19.1637  -22.9682  -18.9122 C   0  0  0  0  0  0  0  0  0  0  0  0
   18.8177  -22.2295  -16.6469 C   0  0  0  0  0  0  0  0  0  0  0  0
   19.5589  -22.3394  -15.3455 C   0  0  2  0  0  0  0  0  0  0  0  0
   20.6151  -21.2969  -15.2555 N   0  0  0  0  0  0  0  0  0  0  0  0
   21.9204  -21.8808  -14.9613 C   0  0  0  0  0  0  0  0  0  0  0  0
   20.3100  -20.3440  -14.1740 O   0  0  0  0  0  0  0  0  0  0  0  0
   19.7730  -19.2116  -14.3377 O   0  0  0  0  0  0  0  0  0  0  0  0
  2  1  1  6
  3  2  1  0
  3  4  1  0
  5  4  1  0
  5  9  1  0
  6  5  2  0
  7  2  1  0
  7  8  2  0
 10 11  1  0
 11 12  2  0
 13 11  1  0
 13 14  1  0
 14 15  1  0
 16 15  1  0
 17 16  1  1
 17 18  1  0
 18  7  1  0
 19 20  2  0
 19 17  1  0
 22 21  1  0
 22 23  2  0
 24 22  1  0
 25 24  1  0
 26 25  1  6
 26 27  1  0
 27 19  1  0
 28 26  1  0
 29 28  2  0
 30 28  1  0
M  END
$$$$
