ERQ.pdb
     RDKit          3D

 30 29  0  0  1  0  0  0  0  0999 V2000
   25.8058  -20.5861  -18.8644 N   0  0  0  0  0  0  0  0  0  0  0  0
   25.8088  -19.6293  -17.7788 C   0  0  1  0  0  0  0  0  0  0  0  0
   24.6258  -18.7249  -17.8274 C   0  0  0  0  0  0  0  0  0  0  0  0
   24.9650  -17.2926  -18.1510 C   0  0  0  0  0  0  0  0  0  0  0  0
   24.9048  -16.9455  -19.5707 C   0  0  0  0  0  0  0  0  0  0  0  0
   24.6241  -17.7526  -20.5116 O   0  0  0  0  0  0  0  0  0  0  0  0
   25.8962  -20.3399  -16.4438 C   0  0  0  0  0  0  0  0  0  0  0  0
   25.0968  -21.2566  -16.1964 O   0  0  0  0  0  0  0  0  0  0  0  0
   25.1756  -15.6179  -19.9511 O   0  0  0  0  0  0  0  0  0  0  0  0
   32.3722  -21.7210  -10.3771 N   0  0  0  0  0  0  0  0  0  0  0  0
   31.9974  -22.1017  -11.6840 C   0  0  0  0  0  0  0  0  0  0  0  0
   32.5794  -23.0332  -12.3236 N   0  0  0  0  0  0  0  0  0  0  0  0
   30.9244  -21.4265  -12.3379 N   0  0  0  0  0  0  0  0  0  0  0  0
   30.0214  -20.5473  -11.6718 C   0  0  0  0  0  0  0  0  0  0  0  0
   28.5964  -20.7000  -12.1680 C   0  0  0  0  0  0  0  0  0  0  0  0
   28.4257  -20.2938  -13.5795 C   0  0  0  0  0  0  0  0  0  0  0  0
   27.0451  -20.4595  -14.1633 C   0  0  2  0  0  0  0  0  0  0  0  0
   26.8754  -19.9608  -15.4977 N   0  0  0  0  0  0  0  0  0  0  0  0
   26.0719  -19.8339  -13.2556 C   0  0  0  0  0  0  0  0  0  0  0  0
   25.6824  -18.6304  -13.3725 O   0  0  0  0  0  0  0  0  0  0  0  0
   32.3469  -23.3288  -13.2961 N   0  0  0  0  0  0  0  0  0  0  0  0
   20.8741  -21.4796  -13.5608 C   0  0  0  0  0  0  0  0  0  0  0  0
   20.6187  -20.6932  -12.4147 O   0  0  0  0  0  0  0  0  0  0  0  0
   19.4622  -20.3970  -12.1060 C   0  0  0  0  0  0  0  0  0  0  0  0
   21.8160  -20.2555  -11.6200 C   0  0  0  0  0  0  0  0  0  0  0  0
   23.0879  -20.6942  -12.2869 C   0  0  2  0  0  0  0  0  0  0  0  0
   24.2705  -20.2280  -11.5156 N   0  0  0  0  0  0  0  0  0  0  0  0
   25.5190  -20.5693  -12.1910 C   0  0  0  0  0  0  0  0  0  0  0  0
   24.3051  -20.8649  -10.1875 O   0  0  0  0  0  0  0  0  0  0  0  0
   25.0110  -21.8688   -9.8848 O   0  0  0  0  0  0  0  0  0  0  0  0
  2  1  1  6
  3  2  1  0
  3  4  1  0
  5  4  1  0
  5  9  1  0
  6  5  2  0
  7  2  1  0
  7  8  2  0
 10 11  1  0
 11 12  2  0
 13 11  1  0
 13 14  1  0
 14 15  1  0
 16 15  1  0
 17 16  1  1
 17 18  1  0
 18  7  1  0
 19 20  2  0
 19 17  1  0
 22 21  1  0
 22 23  2  0
 24 22  1  0
 25 24  1  0
 26 25  1  6
 26 27  1  0
 27 19  1  0
 28 26  1  0
 29 28  2  0
 30 28  1  0
M  END
$$$$
