ERQ.pdb
     RDKit          3D

 30 29  0  0  1  0  0  0  0  0999 V2000
   19.8758  -16.9871  -17.1924 N   0  0  0  0  0  0  0  0  0  0  0  0
   20.2711  -18.1188  -16.3819 C   0  0  1  0  0  0  0  0  0  0  0  0
   19.3333  -19.2670  -16.5298 C   0  0  0  0  0  0  0  0  0  0  0  0
   18.3501  -19.4025  -15.3956 C   0  0  0  0  0  0  0  0  0  0  0  0
   18.7589  -20.3109  -14.3244 C   0  0  0  0  0  0  0  0  0  0  0  0
   19.2786  -19.9558  -13.2203 O   0  0  0  0  0  0  0  0  0  0  0  0
   21.6927  -18.5322  -16.7029 C   0  0  0  0  0  0  0  0  0  0  0  0
   21.9584  -18.9366  -17.8459 O   0  0  0  0  0  0  0  0  0  0  0  0
   18.5725  -21.6939  -14.5071 O   0  0  0  0  0  0  0  0  0  0  0  0
   28.5845  -17.8624  -18.6986 N   0  0  0  0  0  0  0  0  0  0  0  0
   28.6132  -19.0738  -17.9742 C   0  0  0  0  0  0  0  0  0  0  0  0
   29.2414  -20.1027  -18.3772 N   0  0  0  0  0  0  0  0  0  0  0  0
   27.9137  -19.1747  -16.7351 N   0  0  0  0  0  0  0  0  0  0  0  0
   27.1652  -18.1058  -16.1612 C   0  0  0  0  0  0  0  0  0  0  0  0
   26.4297  -18.5271  -14.9035 C   0  0  0  0  0  0  0  0  0  0  0  0
   25.0162  -18.0931  -14.8838 C   0  0  0  0  0  0  0  0  0  0  0  0
   24.0863  -18.7919  -15.8436 C   0  0  2  0  0  0  0  0  0  0  0  0
   22.6976  -18.4565  -15.7120 N   0  0  0  0  0  0  0  0  0  0  0  0
   24.2769  -20.2439  -15.7112 C   0  0  0  0  0  0  0  0  0  0  0  0
   23.9093  -20.9056  -14.6909 O   0  0  0  0  0  0  0  0  0  0  0  0
   29.2607  -21.0233  -17.8881 N   0  0  0  0  0  0  0  0  0  0  0  0
   23.1832  -24.2774  -19.9754 C   0  0  0  0  0  0  0  0  0  0  0  0
   23.7194  -25.1641  -19.0145 O   0  0  0  0  0  0  0  0  0  0  0  0
   23.5987  -26.3833  -19.1543 C   0  0  0  0  0  0  0  0  0  0  0  0
   24.4267  -24.5400  -17.8454 C   0  0  0  0  0  0  0  0  0  0  0  0
   24.3610  -23.0416  -17.9205 C   0  0  2  0  0  0  0  0  0  0  0  0
   25.0384  -22.4291  -16.7471 N   0  0  0  0  0  0  0  0  0  0  0  0
   24.8927  -20.9764  -16.7427 C   0  0  0  0  0  0  0  0  0  0  0  0
   26.4820  -22.7224  -16.7725 O   0  0  0  0  0  0  0  0  0  0  0  0
   27.3837  -21.8913  -17.0790 O   0  0  0  0  0  0  0  0  0  0  0  0
  2  1  1  6
  3  2  1  0
  3  4  1  0
  5  4  1  0
  5  9  1  0
  6  5  2  0
  7  2  1  0
  7  8  2  0
 10 11  1  0
 11 12  2  0
 13 11  1  0
 13 14  1  0
 14 15  1  0
 16 15  1  0
 17 16  1  1
 17 18  1  0
 18  7  1  0
 19 20  2  0
 19 17  1  0
 22 21  1  0
 22 23  2  0
 24 22  1  0
 25 24  1  0
 26 25  1  1
 26 27  1  0
 27 19  1  0
 28 26  1  0
 29 28  2  0
 30 28  1  0
M  END
$$$$
