ERQ.pdb
     RDKit          3D

 30 29  0  0  1  0  0  0  0  0999 V2000
   24.9423  -20.1765   -7.7570 N   0  0  0  0  0  0  0  0  0  0  0  0
   24.1279  -20.6596   -8.8512 C   0  0  1  0  0  0  0  0  0  0  0  0
   22.6894  -20.3159   -8.6717 C   0  0  0  0  0  0  0  0  0  0  0  0
   22.0500  -20.9703   -7.4741 C   0  0  0  0  0  0  0  0  0  0  0  0
   21.1741  -22.1016   -7.7783 C   0  0  0  0  0  0  0  0  0  0  0  0
   20.5731  -22.8164   -6.9162 O   0  0  0  0  0  0  0  0  0  0  0  0
   24.6511  -20.1386  -10.1740 C   0  0  0  0  0  0  0  0  0  0  0  0
   24.9396  -18.9357  -10.2754 O   0  0  0  0  0  0  0  0  0  0  0  0
   20.9641  -22.4466   -9.1265 O   0  0  0  0  0  0  0  0  0  0  0  0
   26.2837  -24.0846  -17.1826 N   0  0  0  0  0  0  0  0  0  0  0  0
   27.0405  -22.9799  -17.6299 C   0  0  0  0  0  0  0  0  0  0  0  0
   27.2213  -22.7221  -18.8614 N   0  0  0  0  0  0  0  0  0  0  0  0
   27.6405  -22.1012  -16.6798 N   0  0  0  0  0  0  0  0  0  0  0  0
   27.4902  -22.2414  -15.2692 C   0  0  0  0  0  0  0  0  0  0  0  0
   26.3477  -21.4053  -14.7250 C   0  0  0  0  0  0  0  0  0  0  0  0
   26.2610  -21.4301  -13.2490 C   0  0  0  0  0  0  0  0  0  0  0  0
   25.1147  -20.6694  -12.6313 C   0  0  2  0  0  0  0  0  0  0  0  0
   24.8064  -21.0135  -11.2730 N   0  0  0  0  0  0  0  0  0  0  0  0
   23.9272  -20.8338  -13.4829 C   0  0  0  0  0  0  0  0  0  0  0  0
   23.2715  -21.9188  -13.5638 O   0  0  0  0  0  0  0  0  0  0  0  0
   27.7455  -21.9002  -19.2313 N   0  0  0  0  0  0  0  0  0  0  0  0
   21.2746  -16.1323  -16.7753 C   0  0  0  0  0  0  0  0  0  0  0  0
   20.4106  -17.1948  -17.1242 O   0  0  0  0  0  0  0  0  0  0  0  0
   19.4910  -17.0139  -17.9256 C   0  0  0  0  0  0  0  0  0  0  0  0
   20.6802  -18.5213  -16.4730 C   0  0  0  0  0  0  0  0  0  0  0  0
   21.9062  -18.4516  -15.6086 C   0  0  1  0  0  0  0  0  0  0  0  0
   22.2340  -19.7928  -15.0570 N   0  0  0  0  0  0  0  0  0  0  0  0
   23.4592  -19.7608  -14.2636 C   0  0  0  0  0  0  0  0  0  0  0  0
   22.4452  -20.7622  -16.1462 O   0  0  0  0  0  0  0  0  0  0  0  0
   23.5140  -20.8827  -16.8102 O   0  0  0  0  0  0  0  0  0  0  0  0
  2  1  1  1
  3  2  1  0
  3  4  1  0
  5  4  1  0
  5  9  1  0
  6  5  2  0
  7  2  1  0
  7  8  2  0
 10 11  1  0
 11 12  2  0
 13 11  1  0
 13 14  1  0
 14 15  1  0
 16 15  1  0
 17 16  1  6
 17 18  1  0
 18  7  1  0
 19 20  2  0
 19 17  1  0
 22 21  1  0
 22 23  2  0
 24 22  1  0
 25 24  1  0
 26 25  1  1
 26 27  1  0
 27 19  1  0
 28 26  1  0
 29 28  2  0
 30 28  1  0
M  END
$$$$
