ERQ.pdb
     RDKit          3D

 30 29  0  0  1  0  0  0  0  0999 V2000
   18.0579  -12.6850  -15.5515 N   0  0  0  0  0  0  0  0  0  0  0  0
   18.0430  -11.3205  -16.0327 C   0  0  1  0  0  0  0  0  0  0  0  0
   16.7723  -10.6213  -15.6919 C   0  0  0  0  0  0  0  0  0  0  0  0
   15.5420  -11.2764  -16.2650 C   0  0  0  0  0  0  0  0  0  0  0  0
   14.5029  -11.6067  -15.2900 C   0  0  0  0  0  0  0  0  0  0  0  0
   14.3788  -11.0753  -14.1421 O   0  0  0  0  0  0  0  0  0  0  0  0
   19.2418  -10.5580  -15.5071 C   0  0  0  0  0  0  0  0  0  0  0  0
   19.2758  -10.2429  -14.3070 O   0  0  0  0  0  0  0  0  0  0  0  0
   13.5525  -12.5889  -15.6259 O   0  0  0  0  0  0  0  0  0  0  0  0
   26.3170  -11.7624  -15.7980 N   0  0  0  0  0  0  0  0  0  0  0  0
   25.9508  -12.6048  -16.8701 C   0  0  0  0  0  0  0  0  0  0  0  0
   26.2990  -13.8254  -16.9370 N   0  0  0  0  0  0  0  0  0  0  0  0
   25.1583  -12.0883  -17.9378 N   0  0  0  0  0  0  0  0  0  0  0  0
   24.5339  -10.8071  -17.9100 C   0  0  0  0  0  0  0  0  0  0  0  0
   23.3569  -10.7599  -16.9545 C   0  0  0  0  0  0  0  0  0  0  0  0
   22.5929   -9.4965  -17.0355 C   0  0  0  0  0  0  0  0  0  0  0  0
   21.4216   -9.3591  -16.0955 C   0  0  2  0  0  0  0  0  0  0  0  0
   20.3031  -10.2132  -16.3744 N   0  0  0  0  0  0  0  0  0  0  0  0
   20.9977   -7.9513  -16.0739 C   0  0  0  0  0  0  0  0  0  0  0  0
   20.4346   -7.3771  -17.0573 O   0  0  0  0  0  0  0  0  0  0  0  0
   26.0674  -14.4730  -17.7207 N   0  0  0  0  0  0  0  0  0  0  0  0
   18.5389   -4.3146  -16.6275 C   0  0  0  0  0  0  0  0  0  0  0  0
   18.6282   -3.4574  -15.5074 O   0  0  0  0  0  0  0  0  0  0  0  0
   18.2354   -2.2909  -15.5814 C   0  0  0  0  0  0  0  0  0  0  0  0
   19.2160   -4.0458  -14.2565 C   0  0  0  0  0  0  0  0  0  0  0  0
   19.4852   -5.5126  -14.4327 C   0  0  1  0  0  0  0  0  0  0  0  0
   20.8977   -5.7401  -14.8375 N   0  0  0  0  0  0  0  0  0  0  0  0
   21.2067   -7.1642  -14.9265 C   0  0  0  0  0  0  0  0  0  0  0  0
   21.8195   -5.1550  -13.8483 O   0  0  0  0  0  0  0  0  0  0  0  0
   21.9190   -3.9209  -13.5936 O   0  0  0  0  0  0  0  0  0  0  0  0
  2  1  1  1
  3  2  1  0
  3  4  1  0
  5  4  1  0
  5  9  1  0
  6  5  2  0
  7  2  1  0
  7  8  2  0
 10 11  1  0
 11 12  2  0
 13 11  1  0
 13 14  1  0
 14 15  1  0
 16 15  1  0
 17 16  1  6
 17 18  1  0
 18  7  1  0
 19 20  2  0
 19 17  1  0
 22 21  1  0
 22 23  2  0
 24 22  1  0
 25 24  1  0
 26 25  1  6
 26 27  1  0
 27 19  1  0
 28 26  1  0
 29 28  2  0
 30 28  1  0
M  END
$$$$
