ERQ.pdb
     RDKit          3D

 30 29  0  0  1  0  0  0  0  0999 V2000
   18.3373  -28.6932  -11.2112 N   0  0  0  0  0  0  0  0  0  0  0  0
   17.6187  -27.9776  -10.1789 C   0  0  1  0  0  0  0  0  0  0  0  0
   18.4147  -27.8563   -8.9254 C   0  0  0  0  0  0  0  0  0  0  0  0
   18.5344  -29.1435   -8.1508 C   0  0  0  0  0  0  0  0  0  0  0  0
   17.7706  -29.1915   -6.9042 C   0  0  0  0  0  0  0  0  0  0  0  0
   17.0590  -28.2447   -6.4433 O   0  0  0  0  0  0  0  0  0  0  0  0
   17.1823  -26.6165  -10.6806 C   0  0  0  0  0  0  0  0  0  0  0  0
   17.5582  -26.2394  -11.8018 O   0  0  0  0  0  0  0  0  0  0  0  0
   17.8107  -30.3696   -6.1353 O   0  0  0  0  0  0  0  0  0  0  0  0
   13.5441  -20.9798  -11.1480 N   0  0  0  0  0  0  0  0  0  0  0  0
   12.7129  -20.3709  -10.1829 C   0  0  0  0  0  0  0  0  0  0  0  0
   12.0111  -19.3404  -10.4299 N   0  0  0  0  0  0  0  0  0  0  0  0
   12.6411  -20.9144   -8.8659 N   0  0  0  0  0  0  0  0  0  0  0  0
   13.3266  -22.0969   -8.4609 C   0  0  0  0  0  0  0  0  0  0  0  0
   14.2694  -22.6122   -9.5314 C   0  0  0  0  0  0  0  0  0  0  0  0
   14.8982  -23.9035   -9.1794 C   0  0  0  0  0  0  0  0  0  0  0  0
   15.8110  -24.5098  -10.2155 C   0  0  2  0  0  0  0  0  0  0  0  0
   16.3594  -25.7924   -9.8799 N   0  0  0  0  0  0  0  0  0  0  0  0
   16.8885  -23.5540  -10.5111 C   0  0  0  0  0  0  0  0  0  0  0  0
   17.8737  -23.3514   -9.7350 O   0  0  0  0  0  0  0  0  0  0  0  0
   11.4041  -18.8486   -9.7393 N   0  0  0  0  0  0  0  0  0  0  0  0
   20.3147  -25.7659  -13.5982 C   0  0  0  0  0  0  0  0  0  0  0  0
   20.8470  -24.5212  -14.0041 O   0  0  0  0  0  0  0  0  0  0  0  0
   21.9066  -24.4707  -14.6327 C   0  0  0  0  0  0  0  0  0  0  0  0
   20.0578  -23.2990  -13.6299 C   0  0  0  0  0  0  0  0  0  0  0  0
   18.8097  -23.6775  -12.8856 C   0  0  2  0  0  0  0  0  0  0  0  0
   18.0534  -22.4630  -12.4811 N   0  0  0  0  0  0  0  0  0  0  0  0
   16.8669  -22.8055  -11.7023 C   0  0  0  0  0  0  0  0  0  0  0  0
   17.5962  -21.7196  -13.6681 O   0  0  0  0  0  0  0  0  0  0  0  0
   18.1829  -20.7154  -14.1631 O   0  0  0  0  0  0  0  0  0  0  0  0
  2  1  1  6
  3  2  1  0
  3  4  1  0
  5  4  1  0
  5  9  1  0
  6  5  2  0
  7  2  1  0
  7  8  2  0
 10 11  1  0
 11 12  2  0
 13 11  1  0
 13 14  1  0
 14 15  1  0
 16 15  1  0
 17 16  1  1
 17 18  1  0
 18  7  1  0
 19 20  2  0
 19 17  1  0
 22 21  1  0
 22 23  2  0
 24 22  1  0
 25 24  1  0
 26 25  1  1
 26 27  1  0
 27 19  1  0
 28 26  1  0
 29 28  2  0
 30 28  1  0
M  END
$$$$
