ERQ.pdb
     RDKit          3D

 30 29  0  0  1  0  0  0  0  0999 V2000
   25.9806  -18.3902  -17.5130 N   0  0  0  0  0  0  0  0  0  0  0  0
   25.9664  -19.7330  -18.0520 C   0  0  1  0  0  0  0  0  0  0  0  0
   27.2923  -20.1271  -18.6056 C   0  0  0  0  0  0  0  0  0  0  0  0
   28.4024  -19.1619  -18.2778 C   0  0  0  0  0  0  0  0  0  0  0  0
   28.7132  -18.1928  -19.3285 C   0  0  0  0  0  0  0  0  0  0  0  0
   28.0407  -18.0253  -20.3939 O   0  0  0  0  0  0  0  0  0  0  0  0
   25.4982  -20.7218  -17.0043 C   0  0  0  0  0  0  0  0  0  0  0  0
   26.0185  -21.8480  -16.9644 O   0  0  0  0  0  0  0  0  0  0  0  0
   29.8427  -17.3682  -19.1708 O   0  0  0  0  0  0  0  0  0  0  0  0
   24.1527  -19.7913  -10.1919 N   0  0  0  0  0  0  0  0  0  0  0  0
   24.8287  -20.8132   -9.4906 C   0  0  0  0  0  0  0  0  0  0  0  0
   24.6564  -21.0270   -8.2495 N   0  0  0  0  0  0  0  0  0  0  0  0
   25.7515  -21.6544  -10.1803 N   0  0  0  0  0  0  0  0  0  0  0  0
   26.1242  -21.4676  -11.5435 C   0  0  0  0  0  0  0  0  0  0  0  0
   24.9210  -21.3525  -12.4596 C   0  0  0  0  0  0  0  0  0  0  0  0
   25.2876  -21.1888  -13.8828 C   0  0  0  0  0  0  0  0  0  0  0  0
   24.1472  -21.0102  -14.8533 C   0  0  2  0  0  0  0  0  0  0  0  0
   24.4837  -20.3623  -16.0883 N   0  0  0  0  0  0  0  0  0  0  0  0
   23.0609  -20.2873  -14.1755 C   0  0  0  0  0  0  0  0  0  0  0  0
   23.1808  -19.1023  -13.7338 O   0  0  0  0  0  0  0  0  0  0  0  0
   25.1524  -21.7553   -7.6920 N   0  0  0  0  0  0  0  0  0  0  0  0
   18.5379  -17.4805  -17.5608 C   0  0  0  0  0  0  0  0  0  0  0  0
   19.1476  -17.9020  -16.3576 O   0  0  0  0  0  0  0  0  0  0  0  0
   19.7186  -17.0876  -15.6286 C   0  0  0  0  0  0  0  0  0  0  0  0
   19.0556  -19.3662  -16.0349 C   0  0  0  0  0  0  0  0  0  0  0  0
   20.4132  -19.9317  -15.7312 C   0  0  1  0  0  0  0  0  0  0  0  0
   20.5280  -20.2697  -14.2879 N   0  0  0  0  0  0  0  0  0  0  0  0
   21.8092  -20.9014  -13.9860 C   0  0  0  0  0  0  0  0  0  0  0  0
   19.4710  -21.2172  -13.8934 O   0  0  0  0  0  0  0  0  0  0  0  0
   18.3183  -20.8890  -13.4918 O   0  0  0  0  0  0  0  0  0  0  0  0
  2  1  1  1
  3  2  1  0
  3  4  1  0
  5  4  1  0
  5  9  1  0
  6  5  2  0
  7  2  1  0
  7  8  2  0
 10 11  1  0
 11 12  2  0
 13 11  1  0
 13 14  1  0
 14 15  1  0
 16 15  1  0
 17 16  1  1
 17 18  1  0
 18  7  1  0
 19 20  2  0
 19 17  1  0
 22 21  1  0
 22 23  2  0
 24 22  1  0
 25 24  1  0
 26 25  1  1
 26 27  1  0
 27 19  1  0
 28 26  1  0
 29 28  2  0
 30 28  1  0
M  END
$$$$
