CFT.pdb
     RDKit          3D

 25 25  0  0  1  0  0  0  0  0999 V2000
    9.8007  -16.1202   18.8934 N   0  0  0  0  0  0  0  0  0  0  0  0
    8.9843  -16.7950   19.8541 C   0  0  1  0  0  0  0  0  0  0  0  0
    9.4380  -18.2115   20.1120 C   0  0  0  0  0  0  0  0  0  0  0  0
    7.9966  -19.2923   20.3220 S   0  0  0  0  0  0  0  0  0  0  0  0
    9.0566  -16.0615   21.1690 C   0  0  0  0  0  0  0  0  0  0  0  0
   10.1192  -15.4833   21.4968 O   0  0  0  0  0  0  0  0  0  0  0  0
    7.9577  -16.0048   22.0490 N   0  0  0  0  0  0  0  0  0  0  0  0
    8.0302  -15.3672   23.3295 C   0  0  1  0  0  0  0  0  0  0  0  0
    6.7912  -14.6590   23.7638 C   0  0  0  0  0  0  0  0  0  0  0  0
    7.0102  -13.8377   24.9815 C   0  0  0  0  0  0  0  0  0  0  0  0
    6.4643  -14.2800   26.1672 C   0  0  0  0  0  0  0  0  0  0  0  0
    6.6805  -13.5013   27.2845 C   0  0  0  0  0  0  0  0  0  0  0  0
    7.4095  -12.3297   27.2289 C   0  0  0  0  0  0  0  0  0  0  0  0
    7.9453  -11.9013   26.0500 C   0  0  0  0  0  0  0  0  0  0  0  0
    7.7374  -12.6702   24.9226 C   0  0  0  0  0  0  0  0  0  0  0  0
    8.5171  -16.3347   24.3805 C   0  0  0  0  0  0  0  0  0  0  0  0
    7.8053  -17.3197   24.6821 O   0  0  0  0  0  0  0  0  0  0  0  0
   11.5221  -18.1821   24.1313 C   0  0  0  0  0  0  0  0  0  0  0  0
   11.6023  -17.6432   25.5413 C   0  0  1  0  0  0  0  0  0  0  0  0
   12.5040  -16.5805   25.5669 O   0  0  0  0  0  0  0  0  0  0  0  0
   10.2156  -17.1776   25.9311 C   0  0  2  0  0  0  0  0  0  0  0  0
    9.7518  -16.1628   25.0346 N   0  0  0  0  0  0  0  0  0  0  0  0
   10.2540  -16.6425   27.3020 C   0  0  0  0  0  0  0  0  0  0  0  0
   10.5025  -17.4804   28.3772 O   0  0  0  0  0  0  0  0  0  0  0  0
   10.0606  -15.4230   27.4928 O   0  0  0  0  0  0  0  0  0  0  0  0
  2  5  1  0
  2  1  1  6
  3  2  1  0
  4  3  1  0
  5  6  2  0
  7  8  1  0
  7  5  1  0
  8  9  1  1
  9 10  1  0
 10 15  2  0
 11 10  1  0
 11 12  2  0
 12 13  1  0
 13 14  2  0
 15 14  1  0
 16 17  2  0
 16  8  1  0
 19 18  1  6
 19 21  1  0
 20 19  1  0
 21 23  1  0
 21 22  1  6
 22 16  1  0
 23 24  1  0
 25 23  2  0
M  END
$$$$
