CFT.pdb
     RDKit          3D

 25 25  0  0  1  0  0  0  0  0999 V2000
    9.4533  -16.2578   18.6277 N   0  0  0  0  0  0  0  0  0  0  0  0
    8.7905  -16.9462   19.6914 C   0  0  1  0  0  0  0  0  0  0  0  0
    9.3402  -18.3335   19.9194 C   0  0  0  0  0  0  0  0  0  0  0  0
    8.3416  -19.1958   21.1641 S   0  0  0  0  0  0  0  0  0  0  0  0
    8.9823  -16.1785   20.9745 C   0  0  0  0  0  0  0  0  0  0  0  0
   10.1208  -15.7472   21.2727 O   0  0  0  0  0  0  0  0  0  0  0  0
    7.9129  -15.9282   21.8569 N   0  0  0  0  0  0  0  0  0  0  0  0
    8.0705  -15.1661   23.0594 C   0  0  1  0  0  0  0  0  0  0  0  0
    6.9195  -14.2869   23.4164 C   0  0  0  0  0  0  0  0  0  0  0  0
    7.1235  -13.5916   24.7126 C   0  0  0  0  0  0  0  0  0  0  0  0
    6.4035  -14.0303   25.8027 C   0  0  0  0  0  0  0  0  0  0  0  0
    6.6092  -13.3698   26.9955 C   0  0  0  0  0  0  0  0  0  0  0  0
    7.4943  -12.3152   27.1037 C   0  0  0  0  0  0  0  0  0  0  0  0
    8.2018  -11.8892   26.0182 C   0  0  0  0  0  0  0  0  0  0  0  0
    8.0066  -12.5406   24.8170 C   0  0  0  0  0  0  0  0  0  0  0  0
    8.4676  -16.0594   24.2092 C   0  0  0  0  0  0  0  0  0  0  0  0
    7.7020  -16.9880   24.5552 O   0  0  0  0  0  0  0  0  0  0  0  0
   12.1345  -18.2300   26.4190 C   0  0  0  0  0  0  0  0  0  0  0  0
   11.6576  -17.1608   25.4627 C   0  0  1  0  0  0  0  0  0  0  0  0
   11.8732  -17.5962   24.1562 O   0  0  0  0  0  0  0  0  0  0  0  0
   10.1811  -16.9459   25.7183 C   0  0  2  0  0  0  0  0  0  0  0  0
    9.6769  -15.8799   24.9071 N   0  0  0  0  0  0  0  0  0  0  0  0
    9.9801  -16.6197   27.1397 C   0  0  0  0  0  0  0  0  0  0  0  0
    9.9798  -17.6207   28.0977 O   0  0  0  0  0  0  0  0  0  0  0  0
    9.8088  -15.4298   27.4802 O   0  0  0  0  0  0  0  0  0  0  0  0
  2  5  1  0
  2  1  1  6
  3  2  1  0
  4  3  1  0
  5  6  2  0
  7  8  1  0
  7  5  1  0
  8  9  1  1
  9 10  1  0
 10 15  2  0
 11 10  1  0
 11 12  2  0
 12 13  1  0
 13 14  2  0
 15 14  1  0
 16 17  2  0
 16  8  1  0
 19 18  1  1
 19 21  1  0
 20 19  1  0
 21 23  1  0
 21 22  1  6
 22 16  1  0
 23 24  1  0
 25 23  2  0
M  END
$$$$
