CFT.pdb
     RDKit          3D

 25 25  0  0  1  0  0  0  0  0999 V2000
   10.7291  -16.3635   19.4094 N   0  0  0  0  0  0  0  0  0  0  0  0
    9.6089  -16.8210   20.1714 C   0  0  1  0  0  0  0  0  0  0  0  0
    9.6601  -18.3037   20.4501 C   0  0  0  0  0  0  0  0  0  0  0  0
    8.1495  -18.8224   21.3097 S   0  0  0  0  0  0  0  0  0  0  0  0
    9.5978  -16.1206   21.5063 C   0  0  0  0  0  0  0  0  0  0  0  0
   10.6809  -15.8956   22.0954 O   0  0  0  0  0  0  0  0  0  0  0  0
    8.3978  -15.7074   22.1180 N   0  0  0  0  0  0  0  0  0  0  0  0
    8.3695  -15.0548   23.3926 C   0  0  1  0  0  0  0  0  0  0  0  0
    7.2731  -14.0607   23.5795 C   0  0  0  0  0  0  0  0  0  0  0  0
    7.3080  -13.4307   24.9238 C   0  0  0  0  0  0  0  0  0  0  0  0
    6.2653  -13.6896   25.7871 C   0  0  0  0  0  0  0  0  0  0  0  0
    6.3191  -13.0939   27.0296 C   0  0  0  0  0  0  0  0  0  0  0  0
    7.3657  -12.2735   27.4021 C   0  0  0  0  0  0  0  0  0  0  0  0
    8.3925  -12.0241   26.5396 C   0  0  0  0  0  0  0  0  0  0  0  0
    8.3528  -12.6133   25.2920 C   0  0  0  0  0  0  0  0  0  0  0  0
    8.4010  -16.0674   24.5114 C   0  0  0  0  0  0  0  0  0  0  0  0
    7.4116  -16.8141   24.6887 O   0  0  0  0  0  0  0  0  0  0  0  0
   10.2505  -18.8812   24.6629 C   0  0  0  0  0  0  0  0  0  0  0  0
   10.6042  -18.2673   25.9982 C   0  0  1  0  0  0  0  0  0  0  0  0
   11.8502  -17.6509   25.8949 O   0  0  0  0  0  0  0  0  0  0  0  0
    9.5315  -17.2529   26.3323 C   0  0  2  0  0  0  0  0  0  0  0  0
    9.5130  -16.1985   25.3647 N   0  0  0  0  0  0  0  0  0  0  0  0
    9.7978  -16.6911   27.6667 C   0  0  0  0  0  0  0  0  0  0  0  0
    9.8162  -17.5106   28.7839 O   0  0  0  0  0  0  0  0  0  0  0  0
   10.0081  -15.4655   27.7882 O   0  0  0  0  0  0  0  0  0  0  0  0
  2  5  1  0
  2  1  1  6
  3  2  1  0
  4  3  1  0
  5  6  2  0
  7  8  1  0
  7  5  1  0
  8  9  1  6
  9 10  1  0
 10 15  2  0
 11 10  1  0
 11 12  2  0
 12 13  1  0
 13 14  2  0
 15 14  1  0
 16 17  2  0
 16  8  1  0
 19 18  1  6
 19 21  1  0
 20 19  1  0
 21 23  1  0
 21 22  1  6
 22 16  1  0
 23 24  1  0
 25 23  2  0
M  END
$$$$
