CFT.pdb
     RDKit          3D

 25 25  0  0  1  0  0  0  0  0999 V2000
    7.9538  -15.6791   19.1150 N   0  0  0  0  0  0  0  0  0  0  0  0
    7.1769  -16.1842   20.2040 C   0  0  1  0  0  0  0  0  0  0  0  0
    7.2010  -17.6912   20.2873 C   0  0  0  0  0  0  0  0  0  0  0  0
    8.8235  -18.3121   19.7659 S   0  0  0  0  0  0  0  0  0  0  0  0
    7.7408  -15.6609   21.5004 C   0  0  0  0  0  0  0  0  0  0  0  0
    8.9228  -15.2454   21.5374 O   0  0  0  0  0  0  0  0  0  0  0  0
    6.9746  -15.6238   22.6821 N   0  0  0  0  0  0  0  0  0  0  0  0
    7.4908  -15.1149   23.9175 C   0  0  1  0  0  0  0  0  0  0  0  0
    6.4760  -14.5407   24.8480 C   0  0  0  0  0  0  0  0  0  0  0  0
    7.1002  -13.8009   25.9742 C   0  0  0  0  0  0  0  0  0  0  0  0
    7.4604  -14.5145   27.0968 C   0  0  0  0  0  0  0  0  0  0  0  0
    8.0381  -13.8067   28.1296 C   0  0  0  0  0  0  0  0  0  0  0  0
    8.2508  -12.4442   28.0527 C   0  0  0  0  0  0  0  0  0  0  0  0
    7.8904  -11.7478   26.9366 C   0  0  0  0  0  0  0  0  0  0  0  0
    7.3108  -12.4427   25.8943 C   0  0  0  0  0  0  0  0  0  0  0  0
    8.3534  -16.1475   24.6012 C   0  0  0  0  0  0  0  0  0  0  0  0
    7.8521  -17.2502   24.9187 O   0  0  0  0  0  0  0  0  0  0  0  0
   11.4589  -17.5084   23.3117 C   0  0  0  0  0  0  0  0  0  0  0  0
   11.7973  -17.1276   24.7349 C   0  0  1  0  0  0  0  0  0  0  0  0
   12.5228  -15.9374   24.7226 O   0  0  0  0  0  0  0  0  0  0  0  0
   10.4928  -16.9512   25.4823 C   0  0  2  0  0  0  0  0  0  0  0  0
    9.7094  -15.9079   24.8939 N   0  0  0  0  0  0  0  0  0  0  0  0
   10.7827  -16.6163   26.8862 C   0  0  0  0  0  0  0  0  0  0  0  0
   11.4911  -17.4973   27.6875 O   0  0  0  0  0  0  0  0  0  0  0  0
   10.3851  -15.5284   27.3546 O   0  0  0  0  0  0  0  0  0  0  0  0
  2  5  1  0
  2  1  1  6
  3  2  1  0
  4  3  1  0
  5  6  2  0
  7  8  1  0
  7  5  1  0
  8  9  1  1
  9 10  1  0
 10 15  2  0
 11 10  1  0
 11 12  2  0
 12 13  1  0
 13 14  2  0
 15 14  1  0
 16 17  2  0
 16  8  1  0
 19 18  1  6
 19 21  1  0
 20 19  1  0
 21 23  1  0
 21 22  1  6
 22 16  1  0
 23 24  1  0
 25 23  2  0
M  END
$$$$
