CFT.pdb
     RDKit          3D

 25 25  0  0  1  0  0  0  0  0999 V2000
   10.9747  -16.4834   19.8730 N   0  0  0  0  0  0  0  0  0  0  0  0
    9.7251  -16.7775   20.5030 C   0  0  1  0  0  0  0  0  0  0  0  0
    9.5433  -18.2508   20.7773 C   0  0  0  0  0  0  0  0  0  0  0  0
   10.6522  -19.2173   19.7162 S   0  0  0  0  0  0  0  0  0  0  0  0
    9.6610  -16.0693   21.8323 C   0  0  0  0  0  0  0  0  0  0  0  0
   10.7208  -15.8307   22.4574 O   0  0  0  0  0  0  0  0  0  0  0  0
    8.4366  -15.6637   22.3991 N   0  0  0  0  0  0  0  0  0  0  0  0
    8.3622  -14.9517   23.6397 C   0  0  1  0  0  0  0  0  0  0  0  0
    7.1837  -14.0497   23.7912 C   0  0  0  0  0  0  0  0  0  0  0  0
    7.1738  -13.3524   25.1023 C   0  0  0  0  0  0  0  0  0  0  0  0
    6.1294  -13.6093   25.9640 C   0  0  0  0  0  0  0  0  0  0  0  0
    6.1412  -12.9506   27.1754 C   0  0  0  0  0  0  0  0  0  0  0  0
    7.1491  -12.0713   27.5194 C   0  0  0  0  0  0  0  0  0  0  0  0
    8.1781  -11.8245   26.6588 C   0  0  0  0  0  0  0  0  0  0  0  0
    8.1801  -12.4765   25.4421 C   0  0  0  0  0  0  0  0  0  0  0  0
    8.4932  -15.8990   24.8074 C   0  0  0  0  0  0  0  0  0  0  0  0
    7.5687  -16.7097   25.0442 O   0  0  0  0  0  0  0  0  0  0  0  0
   10.7257  -18.4781   24.9989 C   0  0  0  0  0  0  0  0  0  0  0  0
   10.9775  -17.7925   26.3224 C   0  0  1  0  0  0  0  0  0  0  0  0
   12.1279  -17.0127   26.2143 O   0  0  0  0  0  0  0  0  0  0  0  0
    9.7720  -16.9284   26.6251 C   0  0  2  0  0  0  0  0  0  0  0  0
    9.6273  -15.8990   25.6413 N   0  0  0  0  0  0  0  0  0  0  0  0
    9.9375  -16.3184   27.9546 C   0  0  0  0  0  0  0  0  0  0  0  0
   10.0231  -14.9421   28.0911 O   0  0  0  0  0  0  0  0  0  0  0  0
   10.0007  -17.0508   28.9648 O   0  0  0  0  0  0  0  0  0  0  0  0
  2  5  1  0
  2  1  1  1
  3  2  1  0
  4  3  1  0
  5  6  2  0
  7  8  1  0
  7  5  1  0
  8  9  1  1
  9 10  1  0
 10 15  2  0
 11 10  1  0
 11 12  2  0
 12 13  1  0
 13 14  2  0
 15 14  1  0
 16 17  2  0
 16  8  1  0
 19 18  1  6
 19 21  1  0
 20 19  1  0
 21 23  1  0
 21 22  1  6
 22 16  1  0
 23 24  1  0
 25 23  2  0
M  END
$$$$
