CFT.pdb
     RDKit          3D

 25 25  0  0  1  0  0  0  0  0999 V2000
    7.9559  -12.8466   19.3841 N   0  0  0  0  0  0  0  0  0  0  0  0
    7.5365  -14.0142   20.0950 C   0  0  1  0  0  0  0  0  0  0  0  0
    7.9266  -15.2938   19.3956 C   0  0  0  0  0  0  0  0  0  0  0  0
    7.3837  -16.7217   20.3737 S   0  0  0  0  0  0  0  0  0  0  0  0
    8.1957  -14.0329   21.4506 C   0  0  0  0  0  0  0  0  0  0  0  0
    9.4091  -13.7359   21.5522 O   0  0  0  0  0  0  0  0  0  0  0  0
    7.4846  -14.3768   22.6173 N   0  0  0  0  0  0  0  0  0  0  0  0
    8.1029  -14.4254   23.9084 C   0  0  1  0  0  0  0  0  0  0  0  0
    7.2640  -13.9337   25.0396 C   0  0  0  0  0  0  0  0  0  0  0  0
    8.0281  -13.8460   26.3100 C   0  0  0  0  0  0  0  0  0  0  0  0
    8.5806  -12.6302   26.6503 C   0  0  0  0  0  0  0  0  0  0  0  0
    9.2856  -12.5725   27.8339 C   0  0  0  0  0  0  0  0  0  0  0  0
    9.4371  -13.6772   28.6489 C   0  0  0  0  0  0  0  0  0  0  0  0
    8.8860  -14.8757   28.3023 C   0  0  0  0  0  0  0  0  0  0  0  0
    8.1773  -14.9491   27.1201 C   0  0  0  0  0  0  0  0  0  0  0  0
    8.6579  -15.8018   24.1827 C   0  0  0  0  0  0  0  0  0  0  0  0
    7.8770  -16.7799   24.2214 O   0  0  0  0  0  0  0  0  0  0  0  0
   10.8348  -17.7056   22.2021 C   0  0  0  0  0  0  0  0  0  0  0  0
   11.5312  -17.7223   23.5437 C   0  0  1  0  0  0  0  0  0  0  0  0
   12.5693  -16.7922   23.5242 O   0  0  0  0  0  0  0  0  0  0  0  0
   10.5051  -17.3567   24.5949 C   0  0  2  0  0  0  0  0  0  0  0  0
   10.0320  -16.0204   24.3971 N   0  0  0  0  0  0  0  0  0  0  0  0
   11.1192  -17.4687   25.9280 C   0  0  0  0  0  0  0  0  0  0  0  0
   11.6042  -18.6859   26.3789 O   0  0  0  0  0  0  0  0  0  0  0  0
   11.2017  -16.4561   26.6552 O   0  0  0  0  0  0  0  0  0  0  0  0
  2  5  1  0
  2  1  1  6
  3  2  1  0
  4  3  1  0
  5  6  2  0
  7  8  1  0
  7  5  1  0
  8  9  1  1
  9 10  1  0
 10 15  2  0
 11 10  1  0
 11 12  2  0
 12 13  1  0
 13 14  2  0
 15 14  1  0
 16 17  2  0
 16  8  1  0
 19 18  1  6
 19 21  1  0
 20 19  1  0
 21 23  1  0
 21 22  1  6
 22 16  1  0
 23 24  1  0
 25 23  2  0
M  END
$$$$
