CFT.pdb
     RDKit          3D

 25 25  0  0  1  0  0  0  0  0999 V2000
   10.3655  -16.8415   19.8786 N   0  0  0  0  0  0  0  0  0  0  0  0
    9.9591  -17.5415   21.0574 C   0  0  1  0  0  0  0  0  0  0  0  0
   10.9405  -18.6132   21.4662 C   0  0  0  0  0  0  0  0  0  0  0  0
   10.1657  -19.7353   22.6623 S   0  0  0  0  0  0  0  0  0  0  0  0
    9.8647  -16.5680   22.2045 C   0  0  0  0  0  0  0  0  0  0  0  0
   10.8346  -15.8160   22.4587 O   0  0  0  0  0  0  0  0  0  0  0  0
    8.7104  -16.4760   23.0071 N   0  0  0  0  0  0  0  0  0  0  0  0
    8.6150  -15.5749   24.1163 C   0  0  1  0  0  0  0  0  0  0  0  0
    7.3112  -14.8630   24.2534 C   0  0  0  0  0  0  0  0  0  0  0  0
    7.3223  -13.8777   25.3644 C   0  0  0  0  0  0  0  0  0  0  0  0
    7.5425  -12.5534   25.0527 C   0  0  0  0  0  0  0  0  0  0  0  0
    7.5485  -11.6567   26.1002 C   0  0  0  0  0  0  0  0  0  0  0  0
    7.3441  -12.0569   27.4061 C   0  0  0  0  0  0  0  0  0  0  0  0
    7.1271  -13.3703   27.7032 C   0  0  0  0  0  0  0  0  0  0  0  0
    7.1182  -14.2800   26.6651 C   0  0  0  0  0  0  0  0  0  0  0  0
    9.0119  -16.2637   25.3991 C   0  0  0  0  0  0  0  0  0  0  0  0
    8.2799  -17.1697   25.8589 O   0  0  0  0  0  0  0  0  0  0  0  0
   11.9393  -18.1846   26.0910 C   0  0  0  0  0  0  0  0  0  0  0  0
   11.9146  -17.1853   27.2250 C   0  0  1  0  0  0  0  0  0  0  0  0
   12.8407  -16.1781   26.9584 O   0  0  0  0  0  0  0  0  0  0  0  0
   10.5136  -16.6170   27.3017 C   0  0  2  0  0  0  0  0  0  0  0  0
   10.1845  -15.9176   26.0971 N   0  0  0  0  0  0  0  0  0  0  0  0
   10.4295  -15.6936   28.4451 C   0  0  0  0  0  0  0  0  0  0  0  0
   10.6434  -16.1509   29.7355 O   0  0  0  0  0  0  0  0  0  0  0  0
   10.1630  -14.4893   28.2459 O   0  0  0  0  0  0  0  0  0  0  0  0
  2  5  1  0
  2  1  1  6
  3  2  1  0
  4  3  1  0
  5  6  2  0
  7  8  1  0
  7  5  1  0
  8  9  1  1
  9 10  1  0
 10 15  2  0
 11 10  1  0
 11 12  2  0
 12 13  1  0
 13 14  2  0
 15 14  1  0
 16 17  2  0
 16  8  1  0
 19 18  1  6
 19 21  1  0
 20 19  1  0
 21 23  1  0
 21 22  1  6
 22 16  1  0
 23 24  1  0
 25 23  2  0
M  END
$$$$
