CFT.pdb
     RDKit          3D

 25 25  0  0  1  0  0  0  0  0999 V2000
   10.4816  -16.7186   19.2702 N   0  0  0  0  0  0  0  0  0  0  0  0
    9.1658  -16.3394   19.6819 C   0  0  1  0  0  0  0  0  0  0  0  0
    8.1919  -17.4924   19.6551 C   0  0  0  0  0  0  0  0  0  0  0  0
    8.8376  -18.8684   20.6449 S   0  0  0  0  0  0  0  0  0  0  0  0
    9.2160  -15.8362   21.1020 C   0  0  0  0  0  0  0  0  0  0  0  0
   10.2963  -15.8810   21.7359 O   0  0  0  0  0  0  0  0  0  0  0  0
    8.0770  -15.3125   21.7449 N   0  0  0  0  0  0  0  0  0  0  0  0
    8.1191  -14.7874   23.0768 C   0  0  1  0  0  0  0  0  0  0  0  0
    7.0540  -13.7973   23.4093 C   0  0  0  0  0  0  0  0  0  0  0  0
    7.1492  -13.3182   24.8117 C   0  0  0  0  0  0  0  0  0  0  0  0
    6.0438  -13.4636   25.6218 C   0  0  0  0  0  0  0  0  0  0  0  0
    6.1554  -13.0116   26.9197 C   0  0  0  0  0  0  0  0  0  0  0  0
    7.3176  -12.4378   27.3964 C   0  0  0  0  0  0  0  0  0  0  0  0
    8.4058  -12.2989   26.5859 C   0  0  0  0  0  0  0  0  0  0  0  0
    8.3093  -12.7466   25.2838 C   0  0  0  0  0  0  0  0  0  0  0  0
    8.1776  -15.9049   24.0894 C   0  0  0  0  0  0  0  0  0  0  0  0
    7.1808  -16.6478   24.2390 O   0  0  0  0  0  0  0  0  0  0  0  0
    9.8727  -18.8121   23.8715 C   0  0  0  0  0  0  0  0  0  0  0  0
   10.3824  -18.2940   25.1969 C   0  0  1  0  0  0  0  0  0  0  0  0
   11.6192  -17.6831   24.9965 O   0  0  0  0  0  0  0  0  0  0  0  0
    9.3702  -17.2950   25.7158 C   0  0  2  0  0  0  0  0  0  0  0  0
    9.3230  -16.1385   24.8738 N   0  0  0  0  0  0  0  0  0  0  0  0
    9.7449  -16.8939   27.0817 C   0  0  0  0  0  0  0  0  0  0  0  0
    9.8207  -17.8356   28.0953 O   0  0  0  0  0  0  0  0  0  0  0  0
    9.9955  -15.6942   27.3244 O   0  0  0  0  0  0  0  0  0  0  0  0
  2  5  1  0
  2  1  1  1
  3  2  1  0
  4  3  1  0
  5  6  2  0
  7  8  1  0
  7  5  1  0
  8  9  1  1
  9 10  1  0
 10 15  2  0
 11 10  1  0
 11 12  2  0
 12 13  1  0
 13 14  2  0
 15 14  1  0
 16 17  2  0
 16  8  1  0
 19 18  1  6
 19 21  1  0
 20 19  1  0
 21 23  1  0
 21 22  1  6
 22 16  1  0
 23 24  1  0
 25 23  2  0
M  END
$$$$
