GDC.pdb
     RDKit          3D

 19 18  0  0  1  0  0  0  0  0999 V2000
   14.7029  -12.1814  -16.6769 N   0  0  0  0  0  0  0  0  0  0  0  0
   14.5523  -10.7768  -16.8724 C   0  0  0  0  0  0  0  0  0  0  0  0
   15.7495  -10.1510  -17.4920 C   0  0  0  0  0  0  0  0  0  0  0  0
   16.0689  -10.3514  -18.6957 O   0  0  0  0  0  0  0  0  0  0  0  0
   16.6138   -9.2770  -16.7500 N   0  0  0  0  0  0  0  0  0  0  0  0
   17.7523   -8.6089  -17.3319 C   0  0  1  0  0  0  0  0  0  0  0  0
   17.3853   -7.8206  -18.5734 C   0  0  0  0  0  0  0  0  0  0  0  0
   18.5909   -7.2041  -19.1832 C   0  0  0  0  0  0  0  0  0  0  0  0
   18.7959   -5.9732  -19.1995 O   0  0  0  0  0  0  0  0  0  0  0  0
   18.3973   -7.7838  -16.2948 C   0  0  0  0  0  0  0  0  0  0  0  0
   17.8032   -6.8582  -15.6616 O   0  0  0  0  0  0  0  0  0  0  0  0
   19.5255   -8.0494  -19.7618 O   0  0  0  0  0  0  0  0  0  0  0  0
   19.7857   -7.9923  -15.9336 N   0  0  0  0  0  0  0  0  0  0  0  0
   20.4559   -7.2017  -14.9377 C   0  0  1  0  0  0  0  0  0  0  0  0
   21.5426   -8.0599  -14.3325 C   0  0  0  0  0  0  0  0  0  0  0  0
   20.7292   -9.3689  -13.3690 S   0  0  0  0  0  0  0  0  0  0  0  0
   21.0843   -5.9763  -15.5079 C   0  0  0  0  0  0  0  0  0  0  0  0
   21.5626   -4.9190  -14.7762 O   0  0  0  0  0  0  0  0  0  0  0  0
   21.1658   -5.9445  -16.7790 O   0  0  0  0  0  0  0  0  0  0  0  0
  2  1  1  0
  3  5  1  0
  3  2  1  0
  4  3  2  0
  6  7  1  6
  6  5  1  0
  7  8  1  0
  8  9  2  0
  8 12  1  0
 10  6  1  0
 10 11  2  0
 13 10  1  0
 14 13  1  0
 14 15  1  6
 16 15  1  0
 17 14  1  0
 17 18  1  0
 19 17  2  0
M  END
$$$$
