GDC.pdb
     RDKit          3D

 19 18  0  0  1  0  0  0  0  0999 V2000
   19.0155  -12.3713  -15.5979 N   0  0  0  0  0  0  0  0  0  0  0  0
   18.8098  -11.6440  -16.8073 C   0  0  0  0  0  0  0  0  0  0  0  0
   18.8388  -10.1719  -16.6049 C   0  0  0  0  0  0  0  0  0  0  0  0
   19.1106   -9.3678  -17.5380 O   0  0  0  0  0  0  0  0  0  0  0  0
   18.5560   -9.5797  -15.3279 N   0  0  0  0  0  0  0  0  0  0  0  0
   18.4967   -8.1545  -15.1122 C   0  0  1  0  0  0  0  0  0  0  0  0
   17.3502   -7.7565  -14.2041 C   0  0  0  0  0  0  0  0  0  0  0  0
   16.1178   -7.4983  -14.9915 C   0  0  0  0  0  0  0  0  0  0  0  0
   15.9958   -6.5343  -15.7746 O   0  0  0  0  0  0  0  0  0  0  0  0
   19.8080   -7.6958  -14.6200 C   0  0  0  0  0  0  0  0  0  0  0  0
   20.5659   -8.3951  -13.8802 O   0  0  0  0  0  0  0  0  0  0  0  0
   15.0572   -8.3781  -14.8372 O   0  0  0  0  0  0  0  0  0  0  0  0
   20.3154   -6.3824  -14.9650 N   0  0  0  0  0  0  0  0  0  0  0  0
   21.5836   -5.8928  -14.4981 C   0  0  1  0  0  0  0  0  0  0  0  0
   22.6256   -6.2848  -15.5199 C   0  0  0  0  0  0  0  0  0  0  0  0
   24.2231   -5.6359  -14.9449 S   0  0  0  0  0  0  0  0  0  0  0  0
   21.6039   -4.4101  -14.3475 C   0  0  0  0  0  0  0  0  0  0  0  0
   22.3416   -3.7193  -13.4198 O   0  0  0  0  0  0  0  0  0  0  0  0
   20.8647   -3.7675  -15.1625 O   0  0  0  0  0  0  0  0  0  0  0  0
  2  1  1  0
  3  5  1  0
  3  2  1  0
  4  3  2  0
  6  7  1  1
  6  5  1  0
  7  8  1  0
  8  9  2  0
  8 12  1  0
 10  6  1  0
 10 11  2  0
 13 10  1  0
 14 13  1  0
 14 15  1  6
 16 15  1  0
 17 14  1  0
 17 18  1  0
 19 17  2  0
M  END
$$$$
