GDC.pdb
     RDKit          3D

 19 18  0  0  1  0  0  0  0  0999 V2000
   18.0061  -11.6315  -18.1543 N   0  0  0  0  0  0  0  0  0  0  0  0
   18.7626  -11.4243  -16.9632 C   0  0  0  0  0  0  0  0  0  0  0  0
   18.7902   -9.9999  -16.5402 C   0  0  0  0  0  0  0  0  0  0  0  0
   19.1316   -9.0705  -17.3218 O   0  0  0  0  0  0  0  0  0  0  0  0
   18.4264   -9.6001  -15.2101 N   0  0  0  0  0  0  0  0  0  0  0  0
   18.3963   -8.2241  -14.7777 C   0  0  1  0  0  0  0  0  0  0  0  0
   17.2921   -7.9598  -13.7734 C   0  0  0  0  0  0  0  0  0  0  0  0
   15.9565   -8.1117  -14.4047 C   0  0  0  0  0  0  0  0  0  0  0  0
   15.6562   -7.5988  -15.5021 O   0  0  0  0  0  0  0  0  0  0  0  0
   19.7324   -7.8569  -14.2755 C   0  0  0  0  0  0  0  0  0  0  0  0
   20.3626   -8.5243  -13.3989 O   0  0  0  0  0  0  0  0  0  0  0  0
   15.0049   -8.8608  -13.7294 O   0  0  0  0  0  0  0  0  0  0  0  0
   20.4166   -6.6788  -14.7707 N   0  0  0  0  0  0  0  0  0  0  0  0
   21.7734   -6.3627  -14.4168 C   0  0  1  0  0  0  0  0  0  0  0  0
   22.4809   -5.9231  -15.6776 C   0  0  0  0  0  0  0  0  0  0  0  0
   22.4377   -7.3188  -16.8410 S   0  0  0  0  0  0  0  0  0  0  0  0
   21.8618   -5.2610  -13.4168 C   0  0  0  0  0  0  0  0  0  0  0  0
   22.9677   -4.9661  -12.6604 O   0  0  0  0  0  0  0  0  0  0  0  0
   20.8068   -4.5595  -13.2814 O   0  0  0  0  0  0  0  0  0  0  0  0
  2  1  1  0
  3  5  1  0
  3  2  1  0
  4  3  2  0
  6  7  1  1
  6  5  1  0
  7  8  1  0
  8  9  2  0
  8 12  1  0
 10  6  1  0
 10 11  2  0
 13 10  1  0
 14 13  1  0
 14 15  1  6
 16 15  1  0
 17 14  1  0
 17 18  1  0
 19 17  2  0
M  END
$$$$
