GDC.pdb
     RDKit          3D

 19 18  0  0  1  0  0  0  0  0999 V2000
   10.3485  -11.4204   -9.2006 N   0  0  0  0  0  0  0  0  0  0  0  0
   10.9381  -10.1337   -9.0261 C   0  0  0  0  0  0  0  0  0  0  0  0
   11.4507   -9.5590  -10.2972 C   0  0  0  0  0  0  0  0  0  0  0  0
   10.7212   -9.4182  -11.3166 O   0  0  0  0  0  0  0  0  0  0  0  0
   12.8134   -9.1285  -10.4357 N   0  0  0  0  0  0  0  0  0  0  0  0
   13.3393   -8.5426  -11.6446 C   0  0  1  0  0  0  0  0  0  0  0  0
   12.5017   -7.3769  -12.1316 C   0  0  0  0  0  0  0  0  0  0  0  0
   12.9878   -6.8907  -13.4479 C   0  0  0  0  0  0  0  0  0  0  0  0
   13.4106   -5.7316  -13.6354 O   0  0  0  0  0  0  0  0  0  0  0  0
   14.7513   -8.1842  -11.4210 C   0  0  0  0  0  0  0  0  0  0  0  0
   15.1329   -7.3266  -10.5668 O   0  0  0  0  0  0  0  0  0  0  0  0
   12.9625   -7.7780  -14.5131 O   0  0  0  0  0  0  0  0  0  0  0  0
   15.8095   -8.8109  -12.1884 N   0  0  0  0  0  0  0  0  0  0  0  0
   17.1936   -8.4536  -12.0381 C   0  0  1  0  0  0  0  0  0  0  0  0
   17.9720   -9.7314  -11.8258 C   0  0  0  0  0  0  0  0  0  0  0  0
   17.5842  -10.3338  -10.1554 S   0  0  0  0  0  0  0  0  0  0  0  0
   17.7395   -7.7621  -13.2403 C   0  0  0  0  0  0  0  0  0  0  0  0
   18.9244   -7.0721  -13.2861 O   0  0  0  0  0  0  0  0  0  0  0  0
   17.0206   -7.8398  -14.2894 O   0  0  0  0  0  0  0  0  0  0  0  0
  2  1  1  0
  3  5  1  0
  3  2  1  0
  4  3  2  0
  6  7  1  1
  6  5  1  0
  7  8  1  0
  8  9  2  0
  8 12  1  0
 10  6  1  0
 10 11  2  0
 13 10  1  0
 14 13  1  0
 14 15  1  6
 16 15  1  0
 17 14  1  0
 17 18  1  0
 19 17  2  0
M  END
$$$$
