GDC.pdb
     RDKit          3D

 19 18  0  0  1  0  0  0  0  0999 V2000
   14.7748  -12.1189  -14.5235 N   0  0  0  0  0  0  0  0  0  0  0  0
   16.1966  -12.1399  -14.6332 C   0  0  0  0  0  0  0  0  0  0  0  0
   16.8277  -10.8768  -14.1693 C   0  0  0  0  0  0  0  0  0  0  0  0
   17.8870  -10.8638  -13.4845 O   0  0  0  0  0  0  0  0  0  0  0  0
   16.2635   -9.5931  -14.4781 N   0  0  0  0  0  0  0  0  0  0  0  0
   16.8499   -8.3470  -14.0487 C   0  0  1  0  0  0  0  0  0  0  0  0
   16.9240   -7.3288  -15.1690 C   0  0  0  0  0  0  0  0  0  0  0  0
   17.6352   -6.1037  -14.7231 C   0  0  0  0  0  0  0  0  0  0  0  0
   18.6847   -6.1293  -14.0484 O   0  0  0  0  0  0  0  0  0  0  0  0
   16.1098   -7.8568  -12.8721 C   0  0  0  0  0  0  0  0  0  0  0  0
   14.8440   -7.7837  -12.8173 O   0  0  0  0  0  0  0  0  0  0  0  0
   17.0939   -4.8776  -15.0787 O   0  0  0  0  0  0  0  0  0  0  0  0
   16.8101   -7.4189  -11.6808 N   0  0  0  0  0  0  0  0  0  0  0  0
   16.1453   -6.7705  -10.5837 C   0  0  1  0  0  0  0  0  0  0  0  0
   16.6146   -7.4364   -9.3109 C   0  0  0  0  0  0  0  0  0  0  0  0
   15.6967   -6.6857   -7.9334 S   0  0  0  0  0  0  0  0  0  0  0  0
   16.4632   -5.3166  -10.5011 C   0  0  0  0  0  0  0  0  0  0  0  0
   15.5776   -4.3325  -10.1416 O   0  0  0  0  0  0  0  0  0  0  0  0
   17.6622   -5.0014  -10.7952 O   0  0  0  0  0  0  0  0  0  0  0  0
  2  1  1  0
  3  5  1  0
  3  2  1  0
  4  3  2  0
  6  7  1  6
  6  5  1  0
  7  8  1  0
  8  9  2  0
  8 12  1  0
 10  6  1  0
 10 11  2  0
 13 10  1  0
 14 13  1  0
 14 15  1  1
 16 15  1  0
 17 14  1  0
 17 18  1  0
 19 17  2  0
M  END
$$$$
