GDC.pdb
     RDKit          3D

 19 18  0  0  1  0  0  0  0  0999 V2000
   17.4084  -11.5497  -17.1199 N   0  0  0  0  0  0  0  0  0  0  0  0
   18.5904  -11.1843  -16.4104 C   0  0  0  0  0  0  0  0  0  0  0  0
   18.8151   -9.7154  -16.3857 C   0  0  0  0  0  0  0  0  0  0  0  0
   19.7764   -9.1697  -16.9933 O   0  0  0  0  0  0  0  0  0  0  0  0
   17.9441   -8.8304  -15.6650 N   0  0  0  0  0  0  0  0  0  0  0  0
   18.1000   -7.3962  -15.6613 C   0  0  1  0  0  0  0  0  0  0  0  0
   16.7824   -6.6739  -15.4614 C   0  0  0  0  0  0  0  0  0  0  0  0
   16.9654   -5.2037  -15.5627 C   0  0  0  0  0  0  0  0  0  0  0  0
   17.9148   -4.6730  -16.1746 O   0  0  0  0  0  0  0  0  0  0  0  0
   19.1146   -7.0335  -14.6557 C   0  0  0  0  0  0  0  0  0  0  0  0
   18.9935   -7.2738  -13.4154 O   0  0  0  0  0  0  0  0  0  0  0  0
   16.0294   -4.3923  -14.9396 O   0  0  0  0  0  0  0  0  0  0  0  0
   20.3401   -6.3626  -15.0422 N   0  0  0  0  0  0  0  0  0  0  0  0
   21.3627   -6.0080  -14.0964 C   0  0  1  0  0  0  0  0  0  0  0  0
   22.6470   -6.6628  -14.5495 C   0  0  0  0  0  0  0  0  0  0  0  0
   22.5850   -8.4025  -14.0270 S   0  0  0  0  0  0  0  0  0  0  0  0
   21.5845   -4.5362  -14.0189 C   0  0  0  0  0  0  0  0  0  0  0  0
   22.2769   -3.8918  -13.0252 O   0  0  0  0  0  0  0  0  0  0  0  0
   21.0756   -3.8557  -14.9684 O   0  0  0  0  0  0  0  0  0  0  0  0
  2  1  1  0
  3  5  1  0
  3  2  1  0
  4  3  2  0
  6  7  1  1
  6  5  1  0
  7  8  1  0
  8  9  2  0
  8 12  1  0
 10  6  1  0
 10 11  2  0
 13 10  1  0
 14 13  1  0
 14 15  1  6
 16 15  1  0
 17 14  1  0
 17 18  1  0
 19 17  2  0
M  END
$$$$
