QCM.pdb
     RDKit          3D

 24 23  0  0  1  0  0  0  0  0999 V2000
   14.6077  -17.7063   20.3590 N   0  0  0  0  0  0  0  0  0  0  0  0
   14.4210  -18.2617   19.0359 C   0  0  0  0  0  0  0  0  0  0  0  0
   15.4019  -18.8941   18.5760 O   0  0  0  0  0  0  0  0  0  0  0  0
   13.1596  -18.0758   18.3267 C   0  0  0  0  0  0  0  0  0  0  0  0
   12.0845  -17.3595   19.0383 C   0  0  0  0  0  0  0  0  0  0  0  0
   10.8815  -18.1378   19.4372 C   0  0  2  0  0  0  0  0  0  0  0  0
   10.1632  -18.6240   18.2933 N   0  0  0  0  0  0  0  0  0  0  0  0
    9.9401  -17.3582   20.2837 C   0  0  0  0  0  0  0  0  0  0  0  0
    9.6487  -16.1702   19.9946 O   0  0  0  0  0  0  0  0  0  0  0  0
    9.3164  -17.8899   21.4544 N   0  0  0  0  0  0  0  0  0  0  0  0
    8.3308  -17.1423   22.2099 C   0  0  1  0  0  0  0  0  0  0  0  0
    7.2893  -18.1756   22.6607 C   0  0  0  0  0  0  0  0  0  0  0  0
    8.0295  -19.4828   23.6291 S   0  0  0  0  0  0  0  0  0  0  0  0
    8.9337  -16.4661   23.3818 C   0  0  0  0  0  0  0  0  0  0  0  0
   10.0760  -16.7810   23.8102 O   0  0  0  0  0  0  0  0  0  0  0  0
    5.5098  -11.5020   26.2891 C   0  0  0  0  0  0  0  0  0  0  0  0
    7.0014  -11.5836   27.2751 S   0  0  0  0  0  0  0  0  0  0  0  0
    8.0371  -12.9887   26.8892 C   0  0  0  0  0  0  0  0  0  0  0  0
    7.7657  -13.6303   25.5628 C   0  0  0  0  0  0  0  0  0  0  0  0
    8.7260  -14.7621   25.2345 C   0  0  2  0  0  0  0  0  0  0  0  0
    8.2102  -15.4453   24.0324 N   0  0  0  0  0  0  0  0  0  0  0  0
    8.8134  -15.7514   26.3114 C   0  0  0  0  0  0  0  0  0  0  0  0
    9.6734  -15.6366   27.2098 O   0  0  0  0  0  0  0  0  0  0  0  0
    7.9410  -16.8228   26.3424 O   0  0  0  0  0  0  0  0  0  0  0  0
  1  2  1  0
  2  4  1  0
  3  2  2  0
  5  4  1  0
  6  5  1  0
  6  7  1  6
  8 10  1  0
  8  6  1  0
  9  8  2  0
 11 10  1  0
 11 14  1  0
 11 12  1  1
 13 12  1  0
 14 15  2  0
 14 21  1  0
 16 17  1  0
 18 17  1  0
 19 18  1  0
 20 19  1  1
 20 22  1  0
 21 20  1  0
 22 24  1  0
 23 22  2  0
M  END
$$$$
