QCM.pdb
     RDKit          3D

 24 23  0  0  1  0  0  0  0  0999 V2000
   10.3935  -12.3589   18.8716 N   0  0  0  0  0  0  0  0  0  0  0  0
    9.4461  -12.9733   17.9666 C   0  0  0  0  0  0  0  0  0  0  0  0
    9.9417  -13.4694   16.9264 O   0  0  0  0  0  0  0  0  0  0  0  0
    8.0228  -12.9930   18.2868 C   0  0  0  0  0  0  0  0  0  0  0  0
    7.5951  -13.8515   19.4073 C   0  0  0  0  0  0  0  0  0  0  0  0
    7.9959  -15.2834   19.3733 C   0  0  2  0  0  0  0  0  0  0  0  0
    7.2826  -16.0081   18.3598 N   0  0  0  0  0  0  0  0  0  0  0  0
    7.7914  -15.9745   20.6736 C   0  0  0  0  0  0  0  0  0  0  0  0
    6.6343  -16.2480   21.0814 O   0  0  0  0  0  0  0  0  0  0  0  0
    8.8669  -16.3666   21.5292 N   0  0  0  0  0  0  0  0  0  0  0  0
    8.6412  -16.8744   22.8680 C   0  0  1  0  0  0  0  0  0  0  0  0
    9.5435  -18.1093   22.9959 C   0  0  0  0  0  0  0  0  0  0  0  0
   11.2529  -17.7191   22.6489 S   0  0  0  0  0  0  0  0  0  0  0  0
    8.9838  -15.8705   23.9017 C   0  0  0  0  0  0  0  0  0  0  0  0
    9.9358  -15.0600   23.7449 O   0  0  0  0  0  0  0  0  0  0  0  0
    6.1169  -11.1468   26.0045 C   0  0  0  0  0  0  0  0  0  0  0  0
    7.1939  -11.4919   27.3918 S   0  0  0  0  0  0  0  0  0  0  0  0
    7.4037  -13.2373   27.7166 C   0  0  0  0  0  0  0  0  0  0  0  0
    7.2682  -14.1254   26.5177 C   0  0  0  0  0  0  0  0  0  0  0  0
    8.5420  -14.8854   26.1851 C   0  0  2  0  0  0  0  0  0  0  0  0
    8.2252  -15.8220   25.0895 N   0  0  0  0  0  0  0  0  0  0  0  0
    9.0371  -15.6703   27.3187 C   0  0  0  0  0  0  0  0  0  0  0  0
    8.8335  -16.9012   27.3749 O   0  0  0  0  0  0  0  0  0  0  0  0
    9.7368  -15.0526   28.3379 O   0  0  0  0  0  0  0  0  0  0  0  0
  1  2  1  0
  2  4  1  0
  3  2  2  0
  5  4  1  0
  6  5  1  0
  6  7  1  6
  8 10  1  0
  8  6  1  0
  9  8  2  0
 11 10  1  0
 11 14  1  0
 11 12  1  1
 13 12  1  0
 14 15  2  0
 14 21  1  0
 16 17  1  0
 18 17  1  0
 19 18  1  0
 20 19  1  1
 20 22  1  0
 21 20  1  0
 22 24  1  0
 23 22  2  0
M  END
$$$$
