QCM.pdb
     RDKit          3D

 24 23  0  0  1  0  0  0  0  0999 V2000
   10.1864  -16.8774   18.1549 N   0  0  0  0  0  0  0  0  0  0  0  0
    8.8795  -16.2617   18.2362 C   0  0  0  0  0  0  0  0  0  0  0  0
    8.4831  -15.7027   17.1854 O   0  0  0  0  0  0  0  0  0  0  0  0
    8.1115  -16.3164   19.4756 C   0  0  0  0  0  0  0  0  0  0  0  0
    8.6879  -17.0874   20.5931 C   0  0  0  0  0  0  0  0  0  0  0  0
    7.9321  -17.1189   21.8737 C   0  0  2  0  0  0  0  0  0  0  0  0
    6.5149  -17.0578   21.6528 N   0  0  0  0  0  0  0  0  0  0  0  0
    8.3093  -16.0169   22.7976 C   0  0  0  0  0  0  0  0  0  0  0  0
    9.5001  -15.8715   23.1726 O   0  0  0  0  0  0  0  0  0  0  0  0
    7.3700  -15.0700   23.3111 N   0  0  0  0  0  0  0  0  0  0  0  0
    7.7172  -14.1299   24.3583 C   0  0  1  0  0  0  0  0  0  0  0  0
    6.4937  -13.2159   24.5111 C   0  0  0  0  0  0  0  0  0  0  0  0
    6.6528  -12.1265   25.9191 S   0  0  0  0  0  0  0  0  0  0  0  0
    8.0165  -14.8164   25.6362 C   0  0  0  0  0  0  0  0  0  0  0  0
    7.2059  -15.6303   26.1539 O   0  0  0  0  0  0  0  0  0  0  0  0
   13.5406  -17.5600   26.8111 C   0  0  0  0  0  0  0  0  0  0  0  0
   12.6966  -17.8088   28.3698 S   0  0  0  0  0  0  0  0  0  0  0  0
   11.2792  -16.7426   28.5929 C   0  0  0  0  0  0  0  0  0  0  0  0
   10.7902  -16.0699   27.3468 C   0  0  0  0  0  0  0  0  0  0  0  0
    9.5882  -15.1693   27.5816 C   0  0  2  0  0  0  0  0  0  0  0  0
    9.2388  -14.5515   26.2877 N   0  0  0  0  0  0  0  0  0  0  0  0
    9.8740  -14.0917   28.5320 C   0  0  0  0  0  0  0  0  0  0  0  0
    9.7907  -14.2921   29.7619 O   0  0  0  0  0  0  0  0  0  0  0  0
   10.2405  -12.8406   28.0733 O   0  0  0  0  0  0  0  0  0  0  0  0
  1  2  1  0
  2  4  1  0
  3  2  2  0
  5  4  1  0
  6  5  1  0
  6  7  1  6
  8 10  1  0
  8  6  1  0
  9  8  2  0
 11 10  1  0
 11 14  1  0
 11 12  1  1
 13 12  1  0
 14 15  2  0
 14 21  1  0
 16 17  1  0
 18 17  1  0
 19 18  1  0
 20 19  1  6
 20 22  1  0
 21 20  1  0
 22 24  1  0
 23 22  2  0
M  END
$$$$
