QCM.pdb
     RDKit          3D

 24 23  0  0  1  0  0  0  0  0999 V2000
   14.2152  -15.3776   20.7348 N   0  0  0  0  0  0  0  0  0  0  0  0
   14.2652  -14.6742   19.4713 C   0  0  0  0  0  0  0  0  0  0  0  0
   15.4006  -14.6000   18.9428 O   0  0  0  0  0  0  0  0  0  0  0  0
   13.0517  -14.1105   18.8896 C   0  0  0  0  0  0  0  0  0  0  0  0
   11.7927  -14.3085   19.6318 C   0  0  0  0  0  0  0  0  0  0  0  0
   10.9041  -15.4209   19.2017 C   0  0  2  0  0  0  0  0  0  0  0  0
   10.1764  -15.0858   18.0104 N   0  0  0  0  0  0  0  0  0  0  0  0
    9.9278  -15.8221   20.2487 C   0  0  0  0  0  0  0  0  0  0  0  0
    8.7617  -15.3529   20.2540 O   0  0  0  0  0  0  0  0  0  0  0  0
   10.2372  -16.7450   21.2950 N   0  0  0  0  0  0  0  0  0  0  0  0
    9.3023  -17.0427   22.3619 C   0  0  1  0  0  0  0  0  0  0  0  0
    9.3707  -18.5639   22.5547 C   0  0  0  0  0  0  0  0  0  0  0  0
    8.6432  -19.0679   24.1076 S   0  0  0  0  0  0  0  0  0  0  0  0
    9.6596  -16.3427   23.6173 C   0  0  0  0  0  0  0  0  0  0  0  0
   10.8339  -16.3636   24.0735 O   0  0  0  0  0  0  0  0  0  0  0  0
    6.0087  -11.2776   25.6219 C   0  0  0  0  0  0  0  0  0  0  0  0
    6.8677  -11.6720   27.1419 S   0  0  0  0  0  0  0  0  0  0  0  0
    8.0060  -13.0414   26.9846 C   0  0  0  0  0  0  0  0  0  0  0  0
    7.8822  -13.8252   25.7139 C   0  0  0  0  0  0  0  0  0  0  0  0
    8.9468  -14.8999   25.5641 C   0  0  2  0  0  0  0  0  0  0  0  0
    8.6601  -15.6362   24.3176 N   0  0  0  0  0  0  0  0  0  0  0  0
    8.9296  -15.8620   26.6687 C   0  0  0  0  0  0  0  0  0  0  0  0
    8.1804  -16.8604   26.6286 O   0  0  0  0  0  0  0  0  0  0  0  0
    9.7462  -15.6722   27.7674 O   0  0  0  0  0  0  0  0  0  0  0  0
  1  2  1  0
  2  4  1  0
  3  2  2  0
  5  4  1  0
  6  5  1  0
  6  7  1  6
  8 10  1  0
  8  6  1  0
  9  8  2  0
 11 10  1  0
 11 14  1  0
 11 12  1  1
 13 12  1  0
 14 15  2  0
 14 21  1  0
 16 17  1  0
 18 17  1  0
 19 18  1  0
 20 19  1  1
 20 22  1  0
 21 20  1  0
 22 24  1  0
 23 22  2  0
M  END
$$$$
