QCM.pdb
     RDKit          3D

 24 23  0  0  1  0  0  0  0  0999 V2000
    6.0712  -22.0208   21.5739 N   0  0  0  0  0  0  0  0  0  0  0  0
    5.9873  -21.8864   20.1356 C   0  0  0  0  0  0  0  0  0  0  0  0
    6.2909  -22.9131   19.4819 O   0  0  0  0  0  0  0  0  0  0  0  0
    5.5698  -20.6246   19.5334 C   0  0  0  0  0  0  0  0  0  0  0  0
    5.2176  -19.5237   20.4495 C   0  0  0  0  0  0  0  0  0  0  0  0
    6.3098  -18.6164   20.8921 C   0  0  2  0  0  0  0  0  0  0  0  0
    7.5952  -19.2476   20.7905 N   0  0  0  0  0  0  0  0  0  0  0  0
    6.1345  -18.1347   22.2877 C   0  0  0  0  0  0  0  0  0  0  0  0
    5.0900  -17.5258   22.6312 O   0  0  0  0  0  0  0  0  0  0  0  0
    7.1146  -18.3249   23.3103 N   0  0  0  0  0  0  0  0  0  0  0  0
    6.9547  -17.7774   24.6428 C   0  0  1  0  0  0  0  0  0  0  0  0
    6.9836  -18.9857   25.5889 C   0  0  0  0  0  0  0  0  0  0  0  0
    8.6227  -19.6866   25.7179 S   0  0  0  0  0  0  0  0  0  0  0  0
    8.0390  -16.8266   24.9803 C   0  0  0  0  0  0  0  0  0  0  0  0
    9.1362  -16.8296   24.3608 O   0  0  0  0  0  0  0  0  0  0  0  0
    5.4006  -11.9554   27.3980 C   0  0  0  0  0  0  0  0  0  0  0  0
    6.5477  -11.5051   26.1000 S   0  0  0  0  0  0  0  0  0  0  0  0
    7.6988  -12.8069   25.6803 C   0  0  0  0  0  0  0  0  0  0  0  0
    8.1560  -13.6446   26.8351 C   0  0  0  0  0  0  0  0  0  0  0  0
    8.8704  -14.9171   26.4094 C   0  0  2  0  0  0  0  0  0  0  0  0
    7.8368  -15.8960   26.0204 N   0  0  0  0  0  0  0  0  0  0  0  0
    9.6606  -15.5045   27.4942 C   0  0  0  0  0  0  0  0  0  0  0  0
    9.2477  -16.5122   28.1057 O   0  0  0  0  0  0  0  0  0  0  0  0
   10.8740  -14.9468   27.8498 O   0  0  0  0  0  0  0  0  0  0  0  0
  1  2  1  0
  2  4  1  0
  3  2  2  0
  5  4  1  0
  6  5  1  0
  6  7  1  1
  8 10  1  0
  8  6  1  0
  9  8  2  0
 11 10  1  0
 11 14  1  0
 11 12  1  1
 13 12  1  0
 14 15  2  0
 14 21  1  0
 16 17  1  0
 18 17  1  0
 19 18  1  0
 20 19  1  1
 20 22  1  0
 21 20  1  0
 22 24  1  0
 23 22  2  0
M  END
$$$$
