QCM.pdb
     RDKit          3D

 24 23  0  0  1  0  0  0  0  0999 V2000
    9.3285  -19.6807   23.8721 N   0  0  0  0  0  0  0  0  0  0  0  0
    8.4937  -20.7588   23.3875 C   0  0  0  0  0  0  0  0  0  0  0  0
    8.7469  -21.8904   23.8661 O   0  0  0  0  0  0  0  0  0  0  0  0
    7.4404  -20.4980   22.4122 C   0  0  0  0  0  0  0  0  0  0  0  0
    7.1867  -19.0902   22.0531 C   0  0  0  0  0  0  0  0  0  0  0  0
    6.2654  -18.3103   22.9221 C   0  0  2  0  0  0  0  0  0  0  0  0
    4.8909  -18.6238   22.6510 N   0  0  0  0  0  0  0  0  0  0  0  0
    6.4450  -16.8406   22.7872 C   0  0  0  0  0  0  0  0  0  0  0  0
    6.2654  -16.2698   21.6818 O   0  0  0  0  0  0  0  0  0  0  0  0
    6.8242  -15.9953   23.8753 N   0  0  0  0  0  0  0  0  0  0  0  0
    7.6061  -14.7906   23.6795 C   0  0  1  0  0  0  0  0  0  0  0  0
    6.8345  -13.6786   24.4032 C   0  0  0  0  0  0  0  0  0  0  0  0
    6.3605  -14.1688   26.0554 S   0  0  0  0  0  0  0  0  0  0  0  0
    8.9714  -14.9246   24.2379 C   0  0  0  0  0  0  0  0  0  0  0  0
    9.7699  -13.9504   24.2702 O   0  0  0  0  0  0  0  0  0  0  0  0
   11.9459  -13.4245   29.2268 C   0  0  0  0  0  0  0  0  0  0  0  0
   10.3250  -14.1826   29.2675 S   0  0  0  0  0  0  0  0  0  0  0  0
   10.2444  -15.7436   28.4000 C   0  0  0  0  0  0  0  0  0  0  0  0
    9.4744  -15.7152   27.1152 C   0  0  0  0  0  0  0  0  0  0  0  0
   10.2469  -16.2888   25.9383 C   0  0  2  0  0  0  0  0  0  0  0  0
    9.3859  -16.1733   24.7453 N   0  0  0  0  0  0  0  0  0  0  0  0
   10.5744  -17.7050   26.1211 C   0  0  0  0  0  0  0  0  0  0  0  0
    9.9517  -18.5863   25.4923 O   0  0  0  0  0  0  0  0  0  0  0  0
   11.5795  -18.0781   26.9933 O   0  0  0  0  0  0  0  0  0  0  0  0
  1  2  1  0
  2  4  1  0
  3  2  2  0
  5  4  1  0
  6  5  1  0
  6  7  1  6
  8 10  1  0
  8  6  1  0
  9  8  2  0
 11 10  1  0
 11 14  1  0
 11 12  1  1
 13 12  1  0
 14 15  2  0
 14 21  1  0
 16 17  1  0
 18 17  1  0
 19 18  1  0
 20 19  1  1
 20 22  1  0
 21 20  1  0
 22 24  1  0
 23 22  2  0
M  END
$$$$
