QCM.pdb
     RDKit          3D

 24 23  0  0  1  0  0  0  0  0999 V2000
    9.2846  -20.3118   16.5527 N   0  0  0  0  0  0  0  0  0  0  0  0
   10.4885  -19.5971   16.1870 C   0  0  0  0  0  0  0  0  0  0  0  0
   11.1966  -20.1510   15.3121 O   0  0  0  0  0  0  0  0  0  0  0  0
   10.8122  -18.3217   16.8174 C   0  0  0  0  0  0  0  0  0  0  0  0
    9.8827  -17.8235   17.8485 C   0  0  0  0  0  0  0  0  0  0  0  0
   10.4685  -17.2810   19.1033 C   0  0  2  0  0  0  0  0  0  0  0  0
   11.4694  -18.1581   19.6418 N   0  0  0  0  0  0  0  0  0  0  0  0
    9.4509  -17.0297   20.1578 C   0  0  0  0  0  0  0  0  0  0  0  0
    8.4478  -16.3091   19.9244 O   0  0  0  0  0  0  0  0  0  0  0  0
    9.5385  -17.5749   21.4759 N   0  0  0  0  0  0  0  0  0  0  0  0
    8.5332  -17.3132   22.4868 C   0  0  1  0  0  0  0  0  0  0  0  0
    8.1959  -18.6820   23.0938 C   0  0  0  0  0  0  0  0  0  0  0  0
    9.5973  -19.3917   23.9464 S   0  0  0  0  0  0  0  0  0  0  0  0
    9.0318  -16.3894   23.5316 C   0  0  0  0  0  0  0  0  0  0  0  0
   10.2589  -16.3008   23.8035 O   0  0  0  0  0  0  0  0  0  0  0  0
    6.3090  -10.6678   26.0800 C   0  0  0  0  0  0  0  0  0  0  0  0
    6.3557  -11.8724   27.4029 S   0  0  0  0  0  0  0  0  0  0  0  0
    7.4965  -13.2163   27.1056 C   0  0  0  0  0  0  0  0  0  0  0  0
    7.3401  -13.8986   25.7810 C   0  0  0  0  0  0  0  0  0  0  0  0
    8.4906  -14.8344   25.4469 C   0  0  2  0  0  0  0  0  0  0  0  0
    8.1093  -15.5905   24.2383 N   0  0  0  0  0  0  0  0  0  0  0  0
    8.7549  -15.7998   26.5166 C   0  0  0  0  0  0  0  0  0  0  0  0
    9.6019  -15.5512   27.4002 O   0  0  0  0  0  0  0  0  0  0  0  0
    8.0657  -16.9970   26.5572 O   0  0  0  0  0  0  0  0  0  0  0  0
  1  2  1  0
  2  4  1  0
  3  2  2  0
  5  4  1  0
  6  5  1  0
  6  7  1  1
  8 10  1  0
  8  6  1  0
  9  8  2  0
 11 10  1  0
 11 14  1  0
 11 12  1  1
 13 12  1  0
 14 15  2  0
 14 21  1  0
 16 17  1  0
 18 17  1  0
 19 18  1  0
 20 19  1  1
 20 22  1  0
 21 20  1  0
 22 24  1  0
 23 22  2  0
M  END
$$$$
