QCM.pdb
     RDKit          3D

 24 23  0  0  1  0  0  0  0  0999 V2000
    7.7153  -20.9308   22.2679 N   0  0  0  0  0  0  0  0  0  0  0  0
    8.5152  -20.5727   21.1164 C   0  0  0  0  0  0  0  0  0  0  0  0
    9.0066  -21.5378   20.4832 O   0  0  0  0  0  0  0  0  0  0  0  0
    8.7054  -19.1723   20.7541 C   0  0  0  0  0  0  0  0  0  0  0  0
    8.1916  -18.1568   21.6922 C   0  0  0  0  0  0  0  0  0  0  0  0
    8.1685  -16.7417   21.2348 C   0  0  2  0  0  0  0  0  0  0  0  0
    9.0470  -16.5325   20.1188 N   0  0  0  0  0  0  0  0  0  0  0  0
    8.5365  -15.7792   22.3064 C   0  0  0  0  0  0  0  0  0  0  0  0
    9.7235  -15.3873   22.4387 O   0  0  0  0  0  0  0  0  0  0  0  0
    7.5924  -15.2452   23.2369 N   0  0  0  0  0  0  0  0  0  0  0  0
    8.0019  -14.4741   24.3940 C   0  0  1  0  0  0  0  0  0  0  0  0
    6.7595  -13.6786   24.8174 C   0  0  0  0  0  0  0  0  0  0  0  0
    7.0865  -12.6479   26.2406 S   0  0  0  0  0  0  0  0  0  0  0  0
    8.4636  -15.3449   25.4995 C   0  0  0  0  0  0  0  0  0  0  0  0
    7.9907  -15.2416   26.6628 O   0  0  0  0  0  0  0  0  0  0  0  0
   10.6426  -12.5289   29.9564 C   0  0  0  0  0  0  0  0  0  0  0  0
   10.2072  -14.2240   29.5814 S   0  0  0  0  0  0  0  0  0  0  0  0
   10.6196  -14.7152   27.9127 C   0  0  0  0  0  0  0  0  0  0  0  0
   10.1870  -16.0988   27.5345 C   0  0  0  0  0  0  0  0  0  0  0  0
   10.6176  -16.5016   26.1334 C   0  0  2  0  0  0  0  0  0  0  0  0
    9.4567  -16.3125   25.2422 N   0  0  0  0  0  0  0  0  0  0  0  0
   11.0206  -17.9079   26.0548 C   0  0  0  0  0  0  0  0  0  0  0  0
   12.1592  -18.2630   26.4253 O   0  0  0  0  0  0  0  0  0  0  0  0
   10.1402  -18.8563   25.5695 O   0  0  0  0  0  0  0  0  0  0  0  0
  1  2  1  0
  2  4  1  0
  3  2  2  0
  5  4  1  0
  6  5  1  0
  6  7  1  6
  8 10  1  0
  8  6  1  0
  9  8  2  0
 11 10  1  0
 11 14  1  0
 11 12  1  1
 13 12  1  0
 14 15  2  0
 14 21  1  0
 16 17  1  0
 18 17  1  0
 19 18  1  0
 20 19  1  1
 20 22  1  0
 21 20  1  0
 22 24  1  0
 23 22  2  0
M  END
$$$$
