QCM.pdb
     RDKit          3D

 24 23  0  0  1  0  0  0  0  0999 V2000
    8.6210  -18.6534   25.8277 N   0  0  0  0  0  0  0  0  0  0  0  0
    7.6356  -19.3006   26.6668 C   0  0  0  0  0  0  0  0  0  0  0  0
    7.7358  -19.0618   27.8942 O   0  0  0  0  0  0  0  0  0  0  0  0
    6.6131  -20.1599   26.0794 C   0  0  0  0  0  0  0  0  0  0  0  0
    6.6958  -20.4124   24.6287 C   0  0  0  0  0  0  0  0  0  0  0  0
    5.8851  -19.5489   23.7292 C   0  0  2  0  0  0  0  0  0  0  0  0
    5.1793  -20.3232   22.7478 N   0  0  0  0  0  0  0  0  0  0  0  0
    6.6971  -18.5245   23.0208 C   0  0  0  0  0  0  0  0  0  0  0  0
    7.7915  -18.8305   22.4836 O   0  0  0  0  0  0  0  0  0  0  0  0
    6.3016  -17.1562   22.9034 N   0  0  0  0  0  0  0  0  0  0  0  0
    7.2155  -16.1256   22.4523 C   0  0  1  0  0  0  0  0  0  0  0  0
    6.3327  -15.0473   21.8091 C   0  0  0  0  0  0  0  0  0  0  0  0
    7.3032  -13.6818   21.1861 S   0  0  0  0  0  0  0  0  0  0  0  0
    7.9986  -15.5562   23.5732 C   0  0  0  0  0  0  0  0  0  0  0  0
    7.4784  -14.7707   24.4099 O   0  0  0  0  0  0  0  0  0  0  0  0
   10.6038  -14.1381   29.2970 C   0  0  0  0  0  0  0  0  0  0  0  0
    9.0815  -13.9491   28.3747 S   0  0  0  0  0  0  0  0  0  0  0  0
    9.3147  -13.9543   26.6023 C   0  0  0  0  0  0  0  0  0  0  0  0
    9.6886  -15.2815   26.0164 C   0  0  0  0  0  0  0  0  0  0  0  0
   10.2683  -15.1784   24.6150 C   0  0  2  0  0  0  0  0  0  0  0  0
    9.3591  -15.9027   23.7057 N   0  0  0  0  0  0  0  0  0  0  0  0
   11.5932  -15.7948   24.5111 C   0  0  0  0  0  0  0  0  0  0  0  0
   11.7127  -16.9847   24.1509 O   0  0  0  0  0  0  0  0  0  0  0  0
   12.7255  -15.0613   24.8108 O   0  0  0  0  0  0  0  0  0  0  0  0
  1  2  1  0
  2  4  1  0
  3  2  2  0
  5  4  1  0
  6  5  1  0
  6  7  1  6
  8 10  1  0
  8  6  1  0
  9  8  2  0
 11 10  1  0
 11 14  1  0
 11 12  1  1
 13 12  1  0
 14 15  2  0
 14 21  1  0
 16 17  1  0
 18 17  1  0
 19 18  1  0
 20 19  1  1
 20 22  1  0
 21 20  1  0
 22 24  1  0
 23 22  2  0
M  END
$$$$
