QCM.pdb
     RDKit          3D

 24 23  0  0  1  0  0  0  0  0999 V2000
    7.8593  -12.7103   15.3610 N   0  0  0  0  0  0  0  0  0  0  0  0
    7.8939  -14.1386   15.1314 C   0  0  0  0  0  0  0  0  0  0  0  0
    7.8017  -14.4916   13.9311 O   0  0  0  0  0  0  0  0  0  0  0  0
    8.0316  -15.0648   16.2502 C   0  0  0  0  0  0  0  0  0  0  0  0
    8.0478  -14.4865   17.6069 C   0  0  0  0  0  0  0  0  0  0  0  0
    9.1166  -14.9370   18.5378 C   0  0  2  0  0  0  0  0  0  0  0  0
    9.9889  -15.8940   17.9178 N   0  0  0  0  0  0  0  0  0  0  0  0
    8.5821  -15.5342   19.7901 C   0  0  0  0  0  0  0  0  0  0  0  0
    7.3865  -15.3494   20.1311 O   0  0  0  0  0  0  0  0  0  0  0  0
    9.3682  -16.3394   20.6710 N   0  0  0  0  0  0  0  0  0  0  0  0
    8.8475  -16.8422   21.9268 C   0  0  1  0  0  0  0  0  0  0  0  0
    9.6173  -18.1419   22.1990 C   0  0  0  0  0  0  0  0  0  0  0  0
   11.3611  -17.8388   22.4482 S   0  0  0  0  0  0  0  0  0  0  0  0
    9.0496  -15.8768   23.0317 C   0  0  0  0  0  0  0  0  0  0  0  0
    9.9983  -15.0477   23.0187 O   0  0  0  0  0  0  0  0  0  0  0  0
    7.0795  -10.9118   28.1813 C   0  0  0  0  0  0  0  0  0  0  0  0
    7.1439  -11.8305   26.6465 S   0  0  0  0  0  0  0  0  0  0  0  0
    6.9338  -13.5930   26.8596 C   0  0  0  0  0  0  0  0  0  0  0  0
    6.9571  -14.3914   25.5921 C   0  0  0  0  0  0  0  0  0  0  0  0
    8.3216  -14.9839   25.2795 C   0  0  2  0  0  0  0  0  0  0  0  0
    8.1577  -15.8872   24.1240 N   0  0  0  0  0  0  0  0  0  0  0  0
    8.8581  -15.7707   26.3928 C   0  0  0  0  0  0  0  0  0  0  0  0
    8.7065  -17.0100   26.4245 O   0  0  0  0  0  0  0  0  0  0  0  0
    9.5396  -15.1455   27.4197 O   0  0  0  0  0  0  0  0  0  0  0  0
  1  2  1  0
  2  4  1  0
  3  2  2  0
  5  4  1  0
  6  5  1  0
  6  7  1  6
  8 10  1  0
  8  6  1  0
  9  8  2  0
 11 10  1  0
 11 14  1  0
 11 12  1  1
 13 12  1  0
 14 15  2  0
 14 21  1  0
 16 17  1  0
 18 17  1  0
 19 18  1  0
 20 19  1  1
 20 22  1  0
 21 20  1  0
 22 24  1  0
 23 22  2  0
M  END
$$$$
