SWP.pdb
     RDKit          3D

 28 30  0  0  1  0  0  0  0  0999 V2000
   26.8204  -19.7520  -17.9990 O   0  0  0  0  0  0  0  0  0  0  0  0
   28.1017  -19.5281  -17.5254 C   0  0  0  0  0  0  0  0  0  0  0  0
   28.7107  -20.7546  -16.8906 C   0  0  2  0  0  0  0  0  0  0  0  0
   28.8656  -21.8658  -17.7805 N   0  0  0  0  0  0  0  0  0  0  0  0
   27.8819  -21.1382  -15.7227 C   0  0  0  0  0  0  0  0  0  0  0  0
   26.9651  -22.0161  -15.8750 O   0  0  0  0  0  0  0  0  0  0  0  0
   28.0143  -20.6102  -14.4240 N   0  0  0  0  0  0  0  0  0  0  0  0
   27.1672  -20.9936  -13.2944 C   0  0  1  0  0  0  0  0  0  0  0  0
   27.7879  -20.6636  -11.9824 C   0  0  0  0  0  0  0  0  0  0  0  0
   26.8848  -20.6839  -10.8153 C   0  0  0  0  0  0  0  0  0  0  0  0
   25.4866  -20.7163  -10.8853 C   0  0  0  0  0  0  0  0  0  0  0  0
   24.9743  -20.7047   -9.6470 N   0  0  0  0  0  0  0  0  0  0  0  0
   25.9756  -20.6667   -8.7473 C   0  0  0  0  0  0  0  0  0  0  0  0
   25.9918  -20.6503   -7.3736 C   0  0  0  0  0  0  0  0  0  0  0  0
   27.2156  -20.6223   -6.7401 C   0  0  0  0  0  0  0  0  0  0  0  0
   28.4065  -20.6103   -7.4200 C   0  0  0  0  0  0  0  0  0  0  0  0
   28.3656  -20.6267   -8.7946 C   0  0  0  0  0  0  0  0  0  0  0  0
   27.1688  -20.6540   -9.4686 C   0  0  0  0  0  0  0  0  0  0  0  0
   25.7959  -20.5591  -13.5092 C   0  0  0  0  0  0  0  0  0  0  0  0
   25.6118  -19.3328  -13.8258 O   0  0  0  0  0  0  0  0  0  0  0  0
   24.6469  -21.3718  -13.4027 N   0  0  0  0  0  0  0  0  0  0  0  0
   24.5313  -22.7391  -12.9358 C   0  0  0  0  0  0  0  0  0  0  0  0
   23.2996  -23.3314  -13.6077 C   0  0  0  0  0  0  0  0  0  0  0  0
   22.6813  -22.2134  -14.4073 C   0  0  0  0  0  0  0  0  0  0  0  0
   23.3026  -20.9812  -13.7697 C   0  0  1  0  0  0  0  0  0  0  0  0
   22.4559  -20.5669  -12.6402 C   0  0  0  0  0  0  0  0  0  0  0  0
   21.2311  -19.9881  -12.7833 O   0  0  0  0  0  0  0  0  0  0  0  0
   22.9072  -20.7671  -11.4841 O   0  0  0  0  0  0  0  0  0  0  0  0
  2  1  1  0
  3  4  1  6
  3  2  1  0
  5  3  1  0
  6  5  2  0
  7  5  1  0
  8  7  1  0
  9 10  1  0
  8  9  1  1
 10 18  1  0
 11 12  1  0
 11 10  2  0
 12 13  1  0
 13 18  2  0
 13 14  1  0
 14 15  2  0
 15 16  1  0
 17 16  2  0
 18 17  1  0
 19 21  1  0
 19  8  1  0
 20 19  2  0
 21 25  1  0
 22 23  1  0
 22 21  1  0
 23 24  1  0
 24 25  1  0
 25 26  1  1
 26 27  1  0
 28 26  2  0
M  END
$$$$
