SWP.pdb
     RDKit          3D

 28 30  0  0  1  0  0  0  0  0999 V2000
   23.6402  -16.5878  -17.9188 O   0  0  0  0  0  0  0  0  0  0  0  0
   24.7230  -15.7984  -17.5716 C   0  0  0  0  0  0  0  0  0  0  0  0
   26.0451  -16.4900  -17.7992 C   0  0  2  0  0  0  0  0  0  0  0  0
   26.2789  -16.8872  -19.1550 N   0  0  0  0  0  0  0  0  0  0  0  0
   26.1219  -17.6629  -16.8955 C   0  0  0  0  0  0  0  0  0  0  0  0
   25.9836  -18.8346  -17.3879 O   0  0  0  0  0  0  0  0  0  0  0  0
   26.3389  -17.6046  -15.5054 N   0  0  0  0  0  0  0  0  0  0  0  0
   26.3486  -18.7760  -14.6288 C   0  0  1  0  0  0  0  0  0  0  0  0
   27.0734  -18.5238  -13.3534 C   0  0  0  0  0  0  0  0  0  0  0  0
   27.2696  -19.6953  -12.4776 C   0  0  0  0  0  0  0  0  0  0  0  0
   28.2449  -20.6823  -12.6669 C   0  0  0  0  0  0  0  0  0  0  0  0
   28.1350  -21.6123  -11.7082 N   0  0  0  0  0  0  0  0  0  0  0  0
   27.1233  -21.2872  -10.8811 C   0  0  0  0  0  0  0  0  0  0  0  0
   26.6108  -21.8883   -9.7570 C   0  0  0  0  0  0  0  0  0  0  0  0
   25.5530  -21.2762   -9.1198 C   0  0  0  0  0  0  0  0  0  0  0  0
   24.9969  -20.1021   -9.5589 C   0  0  0  0  0  0  0  0  0  0  0  0
   25.5261  -19.5187  -10.6863 C   0  0  0  0  0  0  0  0  0  0  0  0
   26.5800  -20.0934  -11.3545 C   0  0  0  0  0  0  0  0  0  0  0  0
   25.0192  -19.3584  -14.5342 C   0  0  0  0  0  0  0  0  0  0  0  0
   24.0218  -18.5613  -14.6227 O   0  0  0  0  0  0  0  0  0  0  0  0
   24.7296  -20.7282  -14.3562 N   0  0  0  0  0  0  0  0  0  0  0  0
   25.6340  -21.8294  -14.0907 C   0  0  0  0  0  0  0  0  0  0  0  0
   24.9628  -23.0888  -14.6223 C   0  0  0  0  0  0  0  0  0  0  0  0
   23.6072  -22.6604  -15.1229 C   0  0  0  0  0  0  0  0  0  0  0  0
   23.4132  -21.3257  -14.4216 C   0  0  1  0  0  0  0  0  0  0  0  0
   22.7892  -21.5761  -13.1131 C   0  0  0  0  0  0  0  0  0  0  0  0
   21.4869  -21.9416  -12.9517 O   0  0  0  0  0  0  0  0  0  0  0  0
   23.5171  -21.4391  -12.0973 O   0  0  0  0  0  0  0  0  0  0  0  0
  2  1  1  0
  3  4  1  6
  3  2  1  0
  5  3  1  0
  6  5  2  0
  7  5  1  0
  8  7  1  0
  9 10  1  0
  8  9  1  1
 10 18  1  0
 11 12  1  0
 11 10  2  0
 12 13  1  0
 13 18  2  0
 13 14  1  0
 14 15  2  0
 15 16  1  0
 17 16  2  0
 18 17  1  0
 19 21  1  0
 19  8  1  0
 20 19  2  0
 21 25  1  0
 22 23  1  0
 22 21  1  0
 23 24  1  0
 24 25  1  0
 25 26  1  1
 26 27  1  0
 28 26  2  0
M  END
$$$$
