SWP.pdb
     RDKit          3D

 28 30  0  0  1  0  0  0  0  0999 V2000
    9.9884  -19.5869    4.0887 O   0  0  0  0  0  0  0  0  0  0  0  0
   11.3032  -19.9793    3.9054 C   0  0  0  0  0  0  0  0  0  0  0  0
   11.9063  -19.4221    2.6389 C   0  0  2  0  0  0  0  0  0  0  0  0
   12.0009  -20.3645    1.5648 N   0  0  0  0  0  0  0  0  0  0  0  0
   13.2432  -18.8682    2.9609 C   0  0  0  0  0  0  0  0  0  0  0  0
   14.2258  -19.6713    3.1161 O   0  0  0  0  0  0  0  0  0  0  0  0
   13.5399  -17.5005    3.1164 N   0  0  0  0  0  0  0  0  0  0  0  0
   14.8749  -16.9814    3.4152 C   0  0  1  0  0  0  0  0  0  0  0  0
   15.0995  -15.6281    2.8375 C   0  0  0  0  0  0  0  0  0  0  0  0
   16.4738  -15.1001    2.9405 C   0  0  0  0  0  0  0  0  0  0  0  0
   17.5756  -15.5909    2.2290 C   0  0  0  0  0  0  0  0  0  0  0  0
   18.6741  -14.9041    2.5720 N   0  0  0  0  0  0  0  0  0  0  0  0
   18.3520  -13.9696    3.4865 C   0  0  0  0  0  0  0  0  0  0  0  0
   19.0923  -13.0166    4.1433 C   0  0  0  0  0  0  0  0  0  0  0  0
   18.4406  -12.1877    5.0310 C   0  0  0  0  0  0  0  0  0  0  0  0
   17.0954  -12.2755    5.2824 C   0  0  0  0  0  0  0  0  0  0  0  0
   16.3748  -13.2372    4.6137 C   0  0  0  0  0  0  0  0  0  0  0  0
   16.9823  -14.0859    3.7203 C   0  0  0  0  0  0  0  0  0  0  0  0
   15.1950  -17.1653    4.8220 C   0  0  0  0  0  0  0  0  0  0  0  0
   14.2648  -16.9354    5.6704 O   0  0  0  0  0  0  0  0  0  0  0  0
   16.4424  -17.5791    5.3368 N   0  0  0  0  0  0  0  0  0  0  0  0
   17.6558  -17.9314    4.6265 C   0  0  0  0  0  0  0  0  0  0  0  0
   18.4316  -18.8847    5.5258 C   0  0  0  0  0  0  0  0  0  0  0  0
   17.6422  -18.9876    6.8056 C   0  0  0  0  0  0  0  0  0  0  0  0
   16.7592  -17.7522    6.7382 C   0  0  1  0  0  0  0  0  0  0  0  0
   17.4887  -16.6274    7.3440 C   0  0  0  0  0  0  0  0  0  0  0  0
   18.0143  -15.5926    6.6308 O   0  0  0  0  0  0  0  0  0  0  0  0
   17.6242  -16.6409    8.5938 O   0  0  0  0  0  0  0  0  0  0  0  0
  2  1  1  0
  3  4  1  6
  3  2  1  0
  5  3  1  0
  6  5  2  0
  7  5  1  0
  8  7  1  0
  9 10  1  0
  8  9  1  1
 10 18  1  0
 11 12  1  0
 11 10  2  0
 12 13  1  0
 13 18  2  0
 13 14  1  0
 14 15  2  0
 15 16  1  0
 17 16  2  0
 18 17  1  0
 19 21  1  0
 19  8  1  0
 20 19  2  0
 21 25  1  0
 22 23  1  0
 22 21  1  0
 23 24  1  0
 24 25  1  0
 25 26  1  6
 26 27  1  0
 28 26  2  0
M  END
$$$$
