SWP.pdb
     RDKit          3D

 28 30  0  0  1  0  0  0  0  0999 V2000
   25.9345  -19.4060  -19.3045 O   0  0  0  0  0  0  0  0  0  0  0  0
   27.1004  -18.7494  -18.9498 C   0  0  0  0  0  0  0  0  0  0  0  0
   28.1133  -19.6662  -18.3083 C   0  0  2  0  0  0  0  0  0  0  0  0
   28.5284  -20.7593  -19.1350 N   0  0  0  0  0  0  0  0  0  0  0  0
   27.5496  -20.1673  -17.0319 C   0  0  0  0  0  0  0  0  0  0  0  0
   27.1691  -21.3856  -16.9585 O   0  0  0  0  0  0  0  0  0  0  0  0
   27.3893  -19.4041  -15.8594 N   0  0  0  0  0  0  0  0  0  0  0  0
   26.8820  -19.9409  -14.5964 C   0  0  1  0  0  0  0  0  0  0  0  0
   27.3576  -19.1649  -13.4186 C   0  0  0  0  0  0  0  0  0  0  0  0
   26.9781  -19.6980  -12.0958 C   0  0  0  0  0  0  0  0  0  0  0  0
   25.6902  -19.6412  -11.5490 C   0  0  0  0  0  0  0  0  0  0  0  0
   25.6955  -20.1943  -10.3284 N   0  0  0  0  0  0  0  0  0  0  0  0
   26.9382  -20.6217  -10.0345 C   0  0  0  0  0  0  0  0  0  0  0  0
   27.4691  -21.2542   -8.9365 C   0  0  0  0  0  0  0  0  0  0  0  0
   28.8098  -21.5736   -8.9577 C   0  0  0  0  0  0  0  0  0  0  0  0
   29.6271  -21.2878  -10.0211 C   0  0  0  0  0  0  0  0  0  0  0  0
   29.0738  -20.6540  -11.1090 C   0  0  0  0  0  0  0  0  0  0  0  0
   27.7423  -20.3159  -11.1318 C   0  0  0  0  0  0  0  0  0  0  0  0
   25.4546  -20.2049  -14.6864 C   0  0  0  0  0  0  0  0  0  0  0  0
   24.7304  -19.3240  -15.2674 O   0  0  0  0  0  0  0  0  0  0  0  0
   24.7949  -21.3504  -14.1918 N   0  0  0  0  0  0  0  0  0  0  0  0
   25.3302  -22.4556  -13.4216 C   0  0  0  0  0  0  0  0  0  0  0  0
   24.4435  -23.6607  -13.7056 C   0  0  0  0  0  0  0  0  0  0  0  0
   23.3388  -23.1647  -14.6031 C   0  0  0  0  0  0  0  0  0  0  0  0
   23.3942  -21.6621  -14.3797 C   0  0  1  0  0  0  0  0  0  0  0  0
   22.5346  -21.3321  -13.2324 C   0  0  0  0  0  0  0  0  0  0  0  0
   21.1738  -21.3824  -13.2654 O   0  0  0  0  0  0  0  0  0  0  0  0
   23.1089  -20.9856  -12.1690 O   0  0  0  0  0  0  0  0  0  0  0  0
  2  1  1  0
  3  4  1  6
  3  2  1  0
  5  3  1  0
  6  5  2  0
  7  5  1  0
  8  7  1  0
  9 10  1  0
  8  9  1  1
 10 18  1  0
 11 12  1  0
 11 10  2  0
 12 13  1  0
 13 18  2  0
 13 14  1  0
 14 15  2  0
 15 16  1  0
 17 16  2  0
 18 17  1  0
 19 21  1  0
 19  8  1  0
 20 19  2  0
 21 25  1  0
 22 23  1  0
 22 21  1  0
 23 24  1  0
 24 25  1  0
 25 26  1  1
 26 27  1  0
 28 26  2  0
M  END
$$$$
