SWP.pdb
     RDKit          3D

 28 30  0  0  1  0  0  0  0  0999 V2000
   22.2481  -22.5669  -12.9322 O   0  0  0  0  0  0  0  0  0  0  0  0
   21.6171  -21.4597  -12.3917 C   0  0  0  0  0  0  0  0  0  0  0  0
   22.1087  -21.1287  -11.0035 C   0  0  2  0  0  0  0  0  0  0  0  0
   21.2891  -20.1935  -10.2935 N   0  0  0  0  0  0  0  0  0  0  0  0
   23.4991  -20.6246  -11.1066 C   0  0  0  0  0  0  0  0  0  0  0  0
   23.6989  -19.4455  -11.5587 O   0  0  0  0  0  0  0  0  0  0  0  0
   24.6533  -21.3445  -10.7428 N   0  0  0  0  0  0  0  0  0  0  0  0
   26.0178  -20.9071  -11.0385 C   0  0  1  0  0  0  0  0  0  0  0  0
   26.9948  -21.3642  -10.0127 C   0  0  0  0  0  0  0  0  0  0  0  0
   27.0634  -20.5573   -8.7789 C   0  0  0  0  0  0  0  0  0  0  0  0
   26.2369  -19.4644   -8.4898 C   0  0  0  0  0  0  0  0  0  0  0  0
   26.5775  -18.9452   -7.3023 N   0  0  0  0  0  0  0  0  0  0  0  0
   27.6012  -19.6484   -6.7817 C   0  0  0  0  0  0  0  0  0  0  0  0
   28.3033  -19.5377   -5.6060 C   0  0  0  0  0  0  0  0  0  0  0  0
   29.3105  -20.4470   -5.3644 C   0  0  0  0  0  0  0  0  0  0  0  0
   29.6368  -21.4485   -6.2426 C   0  0  0  0  0  0  0  0  0  0  0  0
   28.9206  -21.5396   -7.4132 C   0  0  0  0  0  0  0  0  0  0  0  0
   27.9086  -20.6548   -7.6966 C   0  0  0  0  0  0  0  0  0  0  0  0
   26.3488  -21.1615  -12.4318 C   0  0  0  0  0  0  0  0  0  0  0  0
   25.8663  -22.2199  -12.9657 O   0  0  0  0  0  0  0  0  0  0  0  0
   27.1540  -20.3416  -13.2513 N   0  0  0  0  0  0  0  0  0  0  0  0
   28.0194  -19.2404  -12.8779 C   0  0  0  0  0  0  0  0  0  0  0  0
   28.1202  -18.3278  -14.0930 C   0  0  0  0  0  0  0  0  0  0  0  0
   27.3418  -19.0062  -15.1909 C   0  0  0  0  0  0  0  0  0  0  0  0
   27.2643  -20.4396  -14.6909 C   0  0  1  0  0  0  0  0  0  0  0  0
   28.4552  -21.1612  -15.1656 C   0  0  0  0  0  0  0  0  0  0  0  0
   28.6818  -21.4732  -16.4721 O   0  0  0  0  0  0  0  0  0  0  0  0
   29.3007  -21.5008  -14.2994 O   0  0  0  0  0  0  0  0  0  0  0  0
  2  1  1  0
  3  4  1  6
  3  2  1  0
  5  3  1  0
  6  5  2  0
  7  5  1  0
  8  7  1  0
  9 10  1  0
  8  9  1  1
 10 18  1  0
 11 12  1  0
 11 10  2  0
 12 13  1  0
 13 18  2  0
 13 14  1  0
 14 15  2  0
 15 16  1  0
 17 16  2  0
 18 17  1  0
 19 21  1  0
 19  8  1  0
 20 19  2  0
 21 25  1  0
 22 23  1  0
 22 21  1  0
 23 24  1  0
 24 25  1  0
 25 26  1  1
 26 27  1  0
 28 26  2  0
M  END
$$$$
