SWP.pdb
     RDKit          3D

 28 30  0  0  1  0  0  0  0  0999 V2000
   25.1239  -11.0485  -16.3575 O   0  0  0  0  0  0  0  0  0  0  0  0
   24.4556  -11.4836  -15.2260 C   0  0  0  0  0  0  0  0  0  0  0  0
   23.0457  -11.9352  -15.5196 C   0  0  2  0  0  0  0  0  0  0  0  0
   22.9204  -12.7655  -16.6796 N   0  0  0  0  0  0  0  0  0  0  0  0
   22.1860  -10.7341  -15.6474 C   0  0  0  0  0  0  0  0  0  0  0  0
   21.9104  -10.2905  -16.8143 O   0  0  0  0  0  0  0  0  0  0  0  0
   21.6291  -10.0156  -14.5720 N   0  0  0  0  0  0  0  0  0  0  0  0
   20.7557   -8.8524  -14.7298 C   0  0  1  0  0  0  0  0  0  0  0  0
   19.4423   -9.0334  -14.0531 C   0  0  0  0  0  0  0  0  0  0  0  0
   18.5509  -10.0569  -14.6326 C   0  0  0  0  0  0  0  0  0  0  0  0
   18.5881  -11.4213  -14.3194 C   0  0  0  0  0  0  0  0  0  0  0  0
   17.6621  -12.0724  -15.0368 N   0  0  0  0  0  0  0  0  0  0  0  0
   17.0032  -11.1969  -15.8196 C   0  0  0  0  0  0  0  0  0  0  0  0
   15.9760  -11.3440  -16.7200 C   0  0  0  0  0  0  0  0  0  0  0  0
   15.5108  -10.2169  -17.3625 C   0  0  0  0  0  0  0  0  0  0  0  0
   16.0276   -8.9661  -17.1411 C   0  0  0  0  0  0  0  0  0  0  0  0
   17.0556   -8.8431  -16.2358 C   0  0  0  0  0  0  0  0  0  0  0  0
   17.5518   -9.9390  -15.5723 C   0  0  0  0  0  0  0  0  0  0  0  0
   21.4820   -7.6229  -14.4538 C   0  0  0  0  0  0  0  0  0  0  0  0
   22.4467   -7.6869  -13.6152 O   0  0  0  0  0  0  0  0  0  0  0  0
   21.2196   -6.3624  -15.0321 N   0  0  0  0  0  0  0  0  0  0  0  0
   20.2009   -5.9890  -15.9933 C   0  0  0  0  0  0  0  0  0  0  0  0
   20.7307   -4.7774  -16.7485 C   0  0  0  0  0  0  0  0  0  0  0  0
   22.0546   -4.4356  -16.1142 C   0  0  0  0  0  0  0  0  0  0  0  0
   21.9616   -5.1470  -14.7741 C   0  0  1  0  0  0  0  0  0  0  0  0
   21.3270   -4.2360  -13.8088 C   0  0  0  0  0  0  0  0  0  0  0  0
   21.9450   -3.1446  -13.2773 O   0  0  0  0  0  0  0  0  0  0  0  0
   20.1458   -4.4977  -13.4674 O   0  0  0  0  0  0  0  0  0  0  0  0
  2  1  1  0
  3  4  1  6
  3  2  1  0
  5  3  1  0
  6  5  2  0
  7  5  1  0
  8  7  1  0
  9 10  1  0
  8  9  1  1
 10 18  1  0
 11 12  1  0
 11 10  2  0
 12 13  1  0
 13 18  2  0
 13 14  1  0
 14 15  2  0
 15 16  1  0
 17 16  2  0
 18 17  1  0
 19 21  1  0
 19  8  1  0
 20 19  2  0
 21 25  1  0
 22 23  1  0
 22 21  1  0
 23 24  1  0
 24 25  1  0
 25 26  1  1
 26 27  1  0
 28 26  2  0
M  END
$$$$
