SWP.pdb
     RDKit          3D

 28 30  0  0  1  0  0  0  0  0999 V2000
   25.0605  -16.9460  -18.9509 O   0  0  0  0  0  0  0  0  0  0  0  0
   26.0232  -16.2356  -18.2546 C   0  0  0  0  0  0  0  0  0  0  0  0
   27.2977  -17.0200  -18.0581 C   0  0  2  0  0  0  0  0  0  0  0  0
   27.8683  -17.5333  -19.2671 N   0  0  0  0  0  0  0  0  0  0  0  0
   27.0269  -18.1226  -17.1046 C   0  0  0  0  0  0  0  0  0  0  0  0
   26.6193  -19.2468  -17.5568 O   0  0  0  0  0  0  0  0  0  0  0  0
   27.1810  -18.0443  -15.7071 N   0  0  0  0  0  0  0  0  0  0  0  0
   26.8047  -19.1127  -14.7811 C   0  0  1  0  0  0  0  0  0  0  0  0
   27.5654  -19.0498  -13.5033 C   0  0  0  0  0  0  0  0  0  0  0  0
   27.3255  -20.1522  -12.5519 C   0  0  0  0  0  0  0  0  0  0  0  0
   27.7795  -21.4665  -12.7181 C   0  0  0  0  0  0  0  0  0  0  0  0
   27.3705  -22.2170  -11.6859 N   0  0  0  0  0  0  0  0  0  0  0  0
   26.6595  -21.4566  -10.8318 C   0  0  0  0  0  0  0  0  0  0  0  0
   26.0374  -21.7316   -9.6381 C   0  0  0  0  0  0  0  0  0  0  0  0
   25.3890  -20.7008   -8.9925 C   0  0  0  0  0  0  0  0  0  0  0  0
   25.3405  -19.4236   -9.4895 C   0  0  0  0  0  0  0  0  0  0  0  0
   25.9700  -19.1719  -10.6860 C   0  0  0  0  0  0  0  0  0  0  0  0
   26.6280  -20.1686  -11.3651 C   0  0  0  0  0  0  0  0  0  0  0  0
   25.3576  -19.2268  -14.6885 C   0  0  0  0  0  0  0  0  0  0  0  0
   24.6808  -18.1408  -14.7099 O   0  0  0  0  0  0  0  0  0  0  0  0
   24.6306  -20.4317  -14.5801 N   0  0  0  0  0  0  0  0  0  0  0  0
   25.1180  -21.7962  -14.5421 C   0  0  0  0  0  0  0  0  0  0  0  0
   23.9945  -22.6802  -15.0670 C   0  0  0  0  0  0  0  0  0  0  0  0
   22.8262  -21.7631  -15.3234 C   0  0  0  0  0  0  0  0  0  0  0  0
   23.1900  -20.5409  -14.4959 C   0  0  1  0  0  0  0  0  0  0  0  0
   22.6694  -20.7320  -13.1333 C   0  0  0  0  0  0  0  0  0  0  0  0
   21.3432  -20.7401  -12.8226 O   0  0  0  0  0  0  0  0  0  0  0  0
   23.5141  -20.8954  -12.2165 O   0  0  0  0  0  0  0  0  0  0  0  0
  2  1  1  0
  3  4  1  6
  3  2  1  0
  5  3  1  0
  6  5  2  0
  7  5  1  0
  8  7  1  0
  9 10  1  0
  8  9  1  1
 10 18  1  0
 11 12  1  0
 11 10  2  0
 12 13  1  0
 13 18  2  0
 13 14  1  0
 14 15  2  0
 15 16  1  0
 17 16  2  0
 18 17  1  0
 19 21  1  0
 19  8  1  0
 20 19  2  0
 21 25  1  0
 22 23  1  0
 22 21  1  0
 23 24  1  0
 24 25  1  0
 25 26  1  1
 26 27  1  0
 28 26  2  0
M  END
$$$$
