SWP.pdb
     RDKit          3D

 28 30  0  0  1  0  0  0  0  0999 V2000
   19.5699   -8.0017  -20.2019 O   0  0  0  0  0  0  0  0  0  0  0  0
   19.0746   -7.6349  -18.9623 C   0  0  0  0  0  0  0  0  0  0  0  0
   20.0631   -7.8719  -17.8466 C   0  0  2  0  0  0  0  0  0  0  0  0
   20.1201   -9.2262  -17.3850 N   0  0  0  0  0  0  0  0  0  0  0  0
   19.7346   -6.9568  -16.7273 C   0  0  0  0  0  0  0  0  0  0  0  0
   18.5995   -7.0672  -16.1494 O   0  0  0  0  0  0  0  0  0  0  0  0
   20.5805   -5.9482  -16.2275 N   0  0  0  0  0  0  0  0  0  0  0  0
   20.2499   -5.0935  -15.0869 C   0  0  1  0  0  0  0  0  0  0  0  0
   21.1791   -5.2922  -13.9412 C   0  0  0  0  0  0  0  0  0  0  0  0
   21.1108   -6.6060  -13.2724 C   0  0  0  0  0  0  0  0  0  0  0  0
   21.9347   -7.6990  -13.5683 C   0  0  0  0  0  0  0  0  0  0  0  0
   21.5950   -8.7399  -12.7955 N   0  0  0  0  0  0  0  0  0  0  0  0
   20.5746   -8.3875  -11.9907 C   0  0  0  0  0  0  0  0  0  0  0  0
   19.8746   -9.0676  -11.0237 C   0  0  0  0  0  0  0  0  0  0  0  0
   18.8706   -8.3977  -10.3583 C   0  0  0  0  0  0  0  0  0  0  0  0
   18.5454   -7.0915  -10.6205 C   0  0  0  0  0  0  0  0  0  0  0  0
   19.2593   -6.4309  -11.5928 C   0  0  0  0  0  0  0  0  0  0  0  0
   20.2681   -7.0588  -12.2823 C   0  0  0  0  0  0  0  0  0  0  0  0
   20.0126   -3.7258  -15.5210 C   0  0  0  0  0  0  0  0  0  0  0  0
   20.8177   -3.2372  -16.3877 O   0  0  0  0  0  0  0  0  0  0  0  0
   18.9690   -2.8876  -15.0733 N   0  0  0  0  0  0  0  0  0  0  0  0
   17.9349   -3.1550  -14.0933 C   0  0  0  0  0  0  0  0  0  0  0  0
   16.7531   -2.2613  -14.4450 C   0  0  0  0  0  0  0  0  0  0  0  0
   17.1980   -1.4207  -15.6143 C   0  0  0  0  0  0  0  0  0  0  0  0
   18.7114   -1.5419  -15.5392 C   0  0  1  0  0  0  0  0  0  0  0  0
   19.2181   -0.4808  -14.6550 C   0  0  0  0  0  0  0  0  0  0  0  0
   19.1655    0.8466  -14.9565 O   0  0  0  0  0  0  0  0  0  0  0  0
   19.7254   -0.8410  -13.5626 O   0  0  0  0  0  0  0  0  0  0  0  0
  2  1  1  0
  3  4  1  1
  3  2  1  0
  5  3  1  0
  6  5  2  0
  7  5  1  0
  8  7  1  0
  9 10  1  0
  8  9  1  1
 10 18  1  0
 11 12  1  0
 11 10  2  0
 12 13  1  0
 13 18  2  0
 13 14  1  0
 14 15  2  0
 15 16  1  0
 17 16  2  0
 18 17  1  0
 19 21  1  0
 19  8  1  0
 20 19  2  0
 21 25  1  0
 22 23  1  0
 22 21  1  0
 23 24  1  0
 24 25  1  0
 25 26  1  1
 26 27  1  0
 28 26  2  0
M  END
$$$$
