SWP.pdb
     RDKit          3D

 28 30  0  0  1  0  0  0  0  0999 V2000
   24.8647  -18.1765  -19.6332 O   0  0  0  0  0  0  0  0  0  0  0  0
   25.4984  -17.1119  -19.0157 C   0  0  0  0  0  0  0  0  0  0  0  0
   26.9257  -17.4237  -18.6368 C   0  0  2  0  0  0  0  0  0  0  0  0
   27.7403  -17.8776  -19.7236 N   0  0  0  0  0  0  0  0  0  0  0  0
   26.9122  -18.4273  -17.5456 C   0  0  0  0  0  0  0  0  0  0  0  0
   26.9689  -19.6690  -17.8449 O   0  0  0  0  0  0  0  0  0  0  0  0
   26.8405  -18.1317  -16.1707 N   0  0  0  0  0  0  0  0  0  0  0  0
   26.7349  -19.1445  -15.1202 C   0  0  1  0  0  0  0  0  0  0  0  0
   27.3462  -18.6982  -13.8385 C   0  0  0  0  0  0  0  0  0  0  0  0
   27.3796  -19.6985  -12.7540 C   0  0  0  0  0  0  0  0  0  0  0  0
   28.3317  -20.7184  -12.6343 C   0  0  0  0  0  0  0  0  0  0  0  0
   28.0605  -21.4617  -11.5527 N   0  0  0  0  0  0  0  0  0  0  0  0
   26.9625  -20.9793  -10.9403 C   0  0  0  0  0  0  0  0  0  0  0  0
   26.2836  -21.3633   -9.8092 C   0  0  0  0  0  0  0  0  0  0  0  0
   25.1762  -20.6315   -9.4381 C   0  0  0  0  0  0  0  0  0  0  0  0
   24.7291  -19.5455  -10.1462 C   0  0  0  0  0  0  0  0  0  0  0  0
   25.4242  -19.1799  -11.2751 C   0  0  0  0  0  0  0  0  0  0  0  0
   26.5334  -19.8803  -11.6834 C   0  0  0  0  0  0  0  0  0  0  0  0
   25.3858  -19.6849  -15.0607 C   0  0  0  0  0  0  0  0  0  0  0  0
   24.4204  -18.8808  -15.3046 O   0  0  0  0  0  0  0  0  0  0  0  0
   25.0450  -21.0212  -14.7605 N   0  0  0  0  0  0  0  0  0  0  0  0
   25.9102  -22.1341  -14.4230 C   0  0  0  0  0  0  0  0  0  0  0  0
   25.1741  -23.4036  -14.8302 C   0  0  0  0  0  0  0  0  0  0  0  0
   23.8245  -22.9607  -15.3343 C   0  0  0  0  0  0  0  0  0  0  0  0
   23.7040  -21.5648  -14.7448 C   0  0  1  0  0  0  0  0  0  0  0  0
   23.1049  -21.6773  -13.4058 C   0  0  0  0  0  0  0  0  0  0  0  0
   21.7882  -21.9474  -13.1847 O   0  0  0  0  0  0  0  0  0  0  0  0
   23.8695  -21.5109  -12.4219 O   0  0  0  0  0  0  0  0  0  0  0  0
  2  1  1  0
  3  4  1  6
  3  2  1  0
  5  3  1  0
  6  5  2  0
  7  5  1  0
  8  7  1  0
  9 10  1  0
  8  9  1  1
 10 18  1  0
 11 12  1  0
 11 10  2  0
 12 13  1  0
 13 18  2  0
 13 14  1  0
 14 15  2  0
 15 16  1  0
 17 16  2  0
 18 17  1  0
 19 21  1  0
 19  8  1  0
 20 19  2  0
 21 25  1  0
 22 23  1  0
 22 21  1  0
 23 24  1  0
 24 25  1  0
 25 26  1  1
 26 27  1  0
 28 26  2  0
M  END
$$$$
