SWP.pdb
     RDKit          3D

 28 30  0  0  1  0  0  0  0  0999 V2000
   27.7976  -19.5276  -16.5357 O   0  0  0  0  0  0  0  0  0  0  0  0
   28.3264  -20.7220  -16.9939 C   0  0  0  0  0  0  0  0  0  0  0  0
   29.1315  -21.4445  -15.9413 C   0  0  2  0  0  0  0  0  0  0  0  0
   29.6403  -22.7171  -16.3563 N   0  0  0  0  0  0  0  0  0  0  0  0
   28.2912  -21.5934  -14.7289 C   0  0  0  0  0  0  0  0  0  0  0  0
   27.3570  -22.4662  -14.7257 O   0  0  0  0  0  0  0  0  0  0  0  0
   28.4301  -20.8409  -13.5468 N   0  0  0  0  0  0  0  0  0  0  0  0
   27.5625  -20.9860  -12.3777 C   0  0  1  0  0  0  0  0  0  0  0  0
   28.2350  -20.5685  -11.1171 C   0  0  0  0  0  0  0  0  0  0  0  0
   27.3736  -20.4803   -9.9221 C   0  0  0  0  0  0  0  0  0  0  0  0
   25.9760  -20.5672   -9.9342 C   0  0  0  0  0  0  0  0  0  0  0  0
   25.5061  -20.4259   -8.6872 N   0  0  0  0  0  0  0  0  0  0  0  0
   26.5353  -20.2482   -7.8371 C   0  0  0  0  0  0  0  0  0  0  0  0
   26.5977  -20.0686   -6.4764 C   0  0  0  0  0  0  0  0  0  0  0  0
   27.8404  -19.9251   -5.8979 C   0  0  0  0  0  0  0  0  0  0  0  0
   29.0062  -19.9542   -6.6195 C   0  0  0  0  0  0  0  0  0  0  0  0
   28.9192  -20.1348   -7.9801 C   0  0  0  0  0  0  0  0  0  0  0  0
   27.7019  -20.2815   -8.6000 C   0  0  0  0  0  0  0  0  0  0  0  0
   26.2446  -20.4310  -12.6434 C   0  0  0  0  0  0  0  0  0  0  0  0
   26.1749  -19.1774  -12.8917 O   0  0  0  0  0  0  0  0  0  0  0  0
   25.0324  -21.1538  -12.6552 N   0  0  0  0  0  0  0  0  0  0  0  0
   24.7885  -22.5404  -12.3103 C   0  0  0  0  0  0  0  0  0  0  0  0
   23.5496  -22.9750  -13.0821 C   0  0  0  0  0  0  0  0  0  0  0  0
   23.0599  -21.7498  -13.8107 C   0  0  0  0  0  0  0  0  0  0  0  0
   23.7421  -20.6274  -13.0456 C   0  0  1  0  0  0  0  0  0  0  0  0
   22.8750  -20.2380  -11.9228 C   0  0  0  0  0  0  0  0  0  0  0  0
   23.0826  -20.6275  -10.6341 O   0  0  0  0  0  0  0  0  0  0  0  0
   21.8905  -19.5029  -12.1892 O   0  0  0  0  0  0  0  0  0  0  0  0
  2  1  1  0
  3  4  1  6
  3  2  1  0
  5  3  1  0
  6  5  2  0
  7  5  1  0
  8  7  1  0
  9 10  1  0
  8  9  1  1
 10 18  1  0
 11 12  1  0
 11 10  2  0
 12 13  1  0
 13 18  2  0
 13 14  1  0
 14 15  2  0
 15 16  1  0
 17 16  2  0
 18 17  1  0
 19 21  1  0
 19  8  1  0
 20 19  2  0
 21 25  1  0
 22 23  1  0
 22 21  1  0
 23 24  1  0
 24 25  1  0
 25 26  1  1
 26 27  1  0
 28 26  2  0
M  END
$$$$
