LIA.pdb
     RDKit          3D

 22 21  0  0  1  0  0  0  0  0999 V2000
    8.1194  -12.7608   27.3468 C   0  0  0  0  0  0  0  0  0  0  0  0
    7.1056  -13.3828   26.3824 C   0  0  2  0  0  0  0  0  0  0  0  0
    5.8545  -12.5650   26.4445 C   0  0  0  0  0  0  0  0  0  0  0  0
    6.9235  -14.8164   26.7666 C   0  0  0  0  0  0  0  0  0  0  0  0
    6.3517  -15.6923   25.7082 C   0  0  2  0  0  0  0  0  0  0  0  0
    6.0523  -17.0021   26.2944 N   0  0  0  0  0  0  0  0  0  0  0  0
    7.1506  -15.8143   24.4784 C   0  0  0  0  0  0  0  0  0  0  0  0
    8.0149  -16.6995   24.3563 O   0  0  0  0  0  0  0  0  0  0  0  0
    8.0500  -13.0462   18.9230 C   0  0  0  0  0  0  0  0  0  0  0  0
    8.3379  -14.2477   19.8367 C   0  0  0  0  0  0  0  0  0  0  0  0
    7.6655  -13.9816   21.1362 C   0  0  2  0  0  0  0  0  0  0  0  0
    7.9135  -12.5820   21.6562 C   0  0  0  0  0  0  0  0  0  0  0  0
    7.7580  -15.0404   22.1597 C   0  0  2  0  0  0  0  0  0  0  0  0
    7.0321  -14.9760   23.3450 N   0  0  0  0  0  0  0  0  0  0  0  0
    9.2159  -15.2125   22.4917 C   0  0  0  0  0  0  0  0  0  0  0  0
    9.8049  -14.3938   23.2456 O   0  0  0  0  0  0  0  0  0  0  0  0
   11.7103  -17.9133   22.6495 C   0  0  0  0  0  0  0  0  0  0  0  0
   11.3900  -16.4798   22.3370 C   0  0  2  0  0  0  0  0  0  0  0  0
    9.9890  -16.2833   21.9842 N   0  0  0  0  0  0  0  0  0  0  0  0
   12.2085  -16.1031   21.1370 C   0  0  0  0  0  0  0  0  0  0  0  0
   11.7135  -16.0303   19.9832 O   0  0  0  0  0  0  0  0  0  0  0  0
   13.5587  -15.8200   21.2738 O   0  0  0  0  0  0  0  0  0  0  0  0
  2  1  1  1
  2  3  1  0
  4  2  1  0
  5  4  1  0
  5  7  1  0
  5  6  1  1
  7 14  1  0
  7  8  2  0
  9 10  1  0
 10 11  1  0
 11 12  1  1
 13 11  1  0
 13 14  1  1
 15 13  1  0
 15 16  2  0
 18 17  1  6
 18 19  1  0
 19 15  1  0
 20 18  1  0
 21 20  2  0
 22 20  1  0
M  END
$$$$
