LIA.pdb
     RDKit          3D

 22 21  0  0  1  0  0  0  0  0999 V2000
    6.5303  -18.6297   20.3836 C   0  0  0  0  0  0  0  0  0  0  0  0
    5.8648  -17.2559   20.2637 C   0  0  2  0  0  0  0  0  0  0  0  0
    5.8265  -16.8916   18.8133 C   0  0  0  0  0  0  0  0  0  0  0  0
    6.6294  -16.2970   21.1193 C   0  0  0  0  0  0  0  0  0  0  0  0
    6.7635  -16.6859   22.5494 C   0  0  2  0  0  0  0  0  0  0  0  0
    5.4228  -16.8648   23.1146 N   0  0  0  0  0  0  0  0  0  0  0  0
    7.5916  -15.7963   23.3790 C   0  0  0  0  0  0  0  0  0  0  0  0
    8.7325  -15.4571   23.0200 O   0  0  0  0  0  0  0  0  0  0  0  0
    5.6093  -11.8599   26.8124 C   0  0  0  0  0  0  0  0  0  0  0  0
    6.4639  -12.4972   25.7058 C   0  0  0  0  0  0  0  0  0  0  0  0
    7.3881  -13.4586   26.3640 C   0  0  2  0  0  0  0  0  0  0  0  0
    8.3683  -12.7898   27.3036 C   0  0  0  0  0  0  0  0  0  0  0  0
    7.9781  -14.5043   25.5063 C   0  0  2  0  0  0  0  0  0  0  0  0
    7.2019  -15.2495   24.6242 N   0  0  0  0  0  0  0  0  0  0  0  0
    8.7303  -15.4468   26.4070 C   0  0  0  0  0  0  0  0  0  0  0  0
    8.1141  -16.2365   27.1699 O   0  0  0  0  0  0  0  0  0  0  0  0
   12.2897  -16.6844   26.6545 C   0  0  0  0  0  0  0  0  0  0  0  0
   10.8776  -16.5424   27.1454 C   0  0  2  0  0  0  0  0  0  0  0  0
   10.1438  -15.4954   26.4445 N   0  0  0  0  0  0  0  0  0  0  0  0
   10.9576  -16.1402   28.5889 C   0  0  0  0  0  0  0  0  0  0  0  0
   10.6267  -14.9934   28.9852 O   0  0  0  0  0  0  0  0  0  0  0  0
   11.4076  -17.0419   29.5409 O   0  0  0  0  0  0  0  0  0  0  0  0
  2  1  1  6
  2  3  1  0
  4  2  1  0
  5  4  1  0
  5  7  1  0
  5  6  1  1
  7 14  1  0
  7  8  2  0
  9 10  1  0
 10 11  1  0
 11 12  1  6
 13 11  1  0
 13 14  1  1
 15 13  1  0
 15 16  2  0
 18 17  1  6
 18 19  1  0
 19 15  1  0
 20 18  1  0
 21 20  2  0
 22 20  1  0
M  END
$$$$
