LIA.pdb
     RDKit          3D

 22 21  0  0  1  0  0  0  0  0999 V2000
    8.3695  -12.9839   18.2307 C   0  0  0  0  0  0  0  0  0  0  0  0
    7.7362  -13.7522   19.3941 C   0  0  2  0  0  0  0  0  0  0  0  0
    6.7812  -12.8306   20.0843 C   0  0  0  0  0  0  0  0  0  0  0  0
    8.8397  -14.2607   20.2657 C   0  0  0  0  0  0  0  0  0  0  0  0
    8.4291  -15.2410   21.3072 C   0  0  2  0  0  0  0  0  0  0  0  0
    6.9734  -15.4044   21.2497 N   0  0  0  0  0  0  0  0  0  0  0  0
    8.8927  -14.9538   22.6739 C   0  0  0  0  0  0  0  0  0  0  0  0
   10.0919  -14.7308   22.9144 O   0  0  0  0  0  0  0  0  0  0  0  0
    5.9761  -12.0989   26.5058 C   0  0  0  0  0  0  0  0  0  0  0  0
    6.9785  -12.6254   25.4669 C   0  0  0  0  0  0  0  0  0  0  0  0
    7.6079  -13.8435   26.0427 C   0  0  2  0  0  0  0  0  0  0  0  0
    8.2118  -13.6084   27.4105 C   0  0  0  0  0  0  0  0  0  0  0  0
    8.4453  -14.6498   25.1340 C   0  0  2  0  0  0  0  0  0  0  0  0
    8.0643  -14.9009   23.8195 N   0  0  0  0  0  0  0  0  0  0  0  0
    8.7124  -15.9618   25.8214 C   0  0  0  0  0  0  0  0  0  0  0  0
    7.7613  -16.6857   26.2176 O   0  0  0  0  0  0  0  0  0  0  0  0
   11.5944  -18.3352   26.1666 C   0  0  0  0  0  0  0  0  0  0  0  0
   10.2868  -17.7583   26.6279 C   0  0  2  0  0  0  0  0  0  0  0  0
   10.0219  -16.4438   26.0553 N   0  0  0  0  0  0  0  0  0  0  0  0
   10.3889  -17.5840   28.1148 C   0  0  0  0  0  0  0  0  0  0  0  0
   10.3897  -16.4502   28.6590 O   0  0  0  0  0  0  0  0  0  0  0  0
   10.4870  -18.6919   28.9424 O   0  0  0  0  0  0  0  0  0  0  0  0
  2  1  1  6
  2  3  1  0
  4  2  1  0
  5  4  1  0
  5  7  1  0
  5  6  1  1
  7 14  1  0
  7  8  2  0
  9 10  1  0
 10 11  1  0
 11 12  1  1
 13 11  1  0
 13 14  1  6
 15 13  1  0
 15 16  2  0
 18 17  1  6
 18 19  1  0
 19 15  1  0
 20 18  1  0
 21 20  2  0
 22 20  1  0
M  END
$$$$
