LIA.pdb
     RDKit          3D

 22 21  0  0  1  0  0  0  0  0999 V2000
    5.1064  -17.1508   19.8925 C   0  0  0  0  0  0  0  0  0  0  0  0
    6.5379  -17.6788   19.7632 C   0  0  2  0  0  0  0  0  0  0  0  0
    6.4687  -19.1705   19.6760 C   0  0  0  0  0  0  0  0  0  0  0  0
    7.3252  -17.1660   20.9264 C   0  0  0  0  0  0  0  0  0  0  0  0
    7.3467  -15.6859   21.0789 C   0  0  2  0  0  0  0  0  0  0  0  0
    7.8370  -15.0928   19.8311 N   0  0  0  0  0  0  0  0  0  0  0  0
    8.0760  -15.1742   22.2500 C   0  0  0  0  0  0  0  0  0  0  0  0
    9.2866  -14.8983   22.1857 O   0  0  0  0  0  0  0  0  0  0  0  0
    5.6601  -12.1885   26.3537 C   0  0  0  0  0  0  0  0  0  0  0  0
    6.6023  -12.5834   25.2058 C   0  0  0  0  0  0  0  0  0  0  0  0
    7.4480  -13.7033   25.6980 C   0  0  2  0  0  0  0  0  0  0  0  0
    8.2953  -13.3249   26.8937 C   0  0  0  0  0  0  0  0  0  0  0  0
    8.1527  -14.5008   24.6759 C   0  0  2  0  0  0  0  0  0  0  0  0
    7.5089  -14.9475   23.5261 N   0  0  0  0  0  0  0  0  0  0  0  0
    8.7673  -15.6816   25.3783 C   0  0  0  0  0  0  0  0  0  0  0  0
    8.0443  -16.5263   25.9692 O   0  0  0  0  0  0  0  0  0  0  0  0
   12.1478  -17.3600   25.3563 C   0  0  0  0  0  0  0  0  0  0  0  0
   10.7534  -17.1532   25.8743 C   0  0  2  0  0  0  0  0  0  0  0  0
   10.1645  -15.9021   25.4121 N   0  0  0  0  0  0  0  0  0  0  0  0
   10.8525  -17.0733   27.3694 C   0  0  0  0  0  0  0  0  0  0  0  0
   10.5679  -16.0265   28.0058 O   0  0  0  0  0  0  0  0  0  0  0  0
   11.2688  -18.1746   28.1014 O   0  0  0  0  0  0  0  0  0  0  0  0
  2  1  1  1
  2  3  1  0
  4  2  1  0
  5  4  1  0
  5  7  1  0
  5  6  1  6
  7 14  1  0
  7  8  2  0
  9 10  1  0
 10 11  1  0
 11 12  1  1
 13 11  1  0
 13 14  1  6
 15 13  1  0
 15 16  2  0
 18 17  1  6
 18 19  1  0
 19 15  1  0
 20 18  1  0
 21 20  2  0
 22 20  1  0
M  END
$$$$
