LIA.pdb
     RDKit          3D

 22 21  0  0  1  0  0  0  0  0999 V2000
    9.0437  -21.0188   23.4560 C   0  0  0  0  0  0  0  0  0  0  0  0
    9.3768  -19.7819   22.6170 C   0  0  2  0  0  0  0  0  0  0  0  0
   10.7536  -19.9639   22.0611 C   0  0  0  0  0  0  0  0  0  0  0  0
    9.2192  -18.5774   23.4889 C   0  0  0  0  0  0  0  0  0  0  0  0
    8.4276  -17.4634   22.9001 C   0  0  2  0  0  0  0  0  0  0  0  0
    8.6188  -17.4691   21.4467 N   0  0  0  0  0  0  0  0  0  0  0  0
    8.6701  -16.1318   23.4774 C   0  0  0  0  0  0  0  0  0  0  0  0
    9.6895  -15.4805   23.1903 O   0  0  0  0  0  0  0  0  0  0  0  0
    5.7019  -11.5201   26.4635 C   0  0  0  0  0  0  0  0  0  0  0  0
    6.9761  -12.0091   25.7576 C   0  0  0  0  0  0  0  0  0  0  0  0
    6.7605  -13.4371   25.4026 C   0  0  2  0  0  0  0  0  0  0  0  0
    5.9610  -14.1921   26.4426 C   0  0  0  0  0  0  0  0  0  0  0  0
    7.9254  -14.1720   24.8735 C   0  0  2  0  0  0  0  0  0  0  0  0
    7.8100  -15.4696   24.3846 N   0  0  0  0  0  0  0  0  0  0  0  0
    8.9888  -14.1470   25.9384 C   0  0  0  0  0  0  0  0  0  0  0  0
    9.5226  -13.0618   26.2889 O   0  0  0  0  0  0  0  0  0  0  0  0
    9.7556  -14.5700   28.9146 C   0  0  0  0  0  0  0  0  0  0  0  0
   10.3431  -15.2874   27.7333 C   0  0  2  0  0  0  0  0  0  0  0  0
    9.4377  -15.3194   26.5909 N   0  0  0  0  0  0  0  0  0  0  0  0
   10.5741  -16.7079   28.1583 C   0  0  0  0  0  0  0  0  0  0  0  0
   10.0605  -17.6820   27.5510 O   0  0  0  0  0  0  0  0  0  0  0  0
   11.3764  -16.9871   29.2540 O   0  0  0  0  0  0  0  0  0  0  0  0
  2  1  1  1
  2  3  1  0
  4  2  1  0
  5  4  1  0
  5  7  1  0
  5  6  1  6
  7 14  1  0
  7  8  2  0
  9 10  1  0
 10 11  1  0
 11 12  1  1
 13 11  1  0
 13 14  1  1
 15 13  1  0
 15 16  2  0
 18 17  1  1
 18 19  1  0
 19 15  1  0
 20 18  1  0
 21 20  2  0
 22 20  1  0
M  END
$$$$
