LIA.pdb
     RDKit          3D

 22 21  0  0  1  0  0  0  0  0999 V2000
    8.0698  -14.7929   18.1022 C   0  0  0  0  0  0  0  0  0  0  0  0
    7.4526  -13.7939   19.0849 C   0  0  2  0  0  0  0  0  0  0  0  0
    7.2934  -12.4892   18.3707 C   0  0  0  0  0  0  0  0  0  0  0  0
    8.3325  -13.7314   20.2923 C   0  0  0  0  0  0  0  0  0  0  0  0
    8.2358  -14.8967   21.2126 C   0  0  2  0  0  0  0  0  0  0  0  0
    6.8636  -15.4114   21.1752 N   0  0  0  0  0  0  0  0  0  0  0  0
    8.6935  -14.6625   22.5914 C   0  0  0  0  0  0  0  0  0  0  0  0
    9.8607  -14.3082   22.8317 O   0  0  0  0  0  0  0  0  0  0  0  0
    5.7574  -12.0474   26.4671 C   0  0  0  0  0  0  0  0  0  0  0  0
    6.7187  -12.5889   25.3976 C   0  0  0  0  0  0  0  0  0  0  0  0
    7.3944  -13.7800   25.9776 C   0  0  2  0  0  0  0  0  0  0  0  0
    7.9948  -13.5152   27.3415 C   0  0  0  0  0  0  0  0  0  0  0  0
    8.2569  -14.5606   25.0699 C   0  0  2  0  0  0  0  0  0  0  0  0
    7.8940  -14.8070   23.7495 N   0  0  0  0  0  0  0  0  0  0  0  0
    8.5439  -15.8733   25.7479 C   0  0  0  0  0  0  0  0  0  0  0  0
    7.6042  -16.6063   26.1541 O   0  0  0  0  0  0  0  0  0  0  0  0
   11.4048  -18.2633   25.9523 C   0  0  0  0  0  0  0  0  0  0  0  0
   10.1438  -17.6671   26.5088 C   0  0  2  0  0  0  0  0  0  0  0  0
    9.8603  -16.3458   25.9614 N   0  0  0  0  0  0  0  0  0  0  0  0
   10.3559  -17.5016   27.9850 C   0  0  0  0  0  0  0  0  0  0  0  0
   10.4833  -16.3715   28.5220 O   0  0  0  0  0  0  0  0  0  0  0  0
   10.4179  -18.6137   28.8105 O   0  0  0  0  0  0  0  0  0  0  0  0
  2  1  1  6
  2  3  1  0
  4  2  1  0
  5  4  1  0
  5  7  1  0
  5  6  1  1
  7 14  1  0
  7  8  2  0
  9 10  1  0
 10 11  1  0
 11 12  1  1
 13 11  1  0
 13 14  1  6
 15 13  1  0
 15 16  2  0
 18 17  1  6
 18 19  1  0
 19 15  1  0
 20 18  1  0
 21 20  2  0
 22 20  1  0
M  END
$$$$
