LIA.pdb
     RDKit          3D

 22 21  0  0  1  0  0  0  0  0999 V2000
    8.6965  -14.4458   18.2131 C   0  0  0  0  0  0  0  0  0  0  0  0
    7.5494  -13.7317   18.9333 C   0  0  2  0  0  0  0  0  0  0  0  0
    7.2739  -12.4564   18.2015 C   0  0  0  0  0  0  0  0  0  0  0  0
    7.9465  -13.5475   20.3631 C   0  0  0  0  0  0  0  0  0  0  0  0
    8.1937  -14.8029   21.1229 C   0  0  2  0  0  0  0  0  0  0  0  0
    6.9751  -15.6171   21.0926 N   0  0  0  0  0  0  0  0  0  0  0  0
    8.7019  -14.6315   22.4931 C   0  0  0  0  0  0  0  0  0  0  0  0
    9.8637  -14.2435   22.7060 O   0  0  0  0  0  0  0  0  0  0  0  0
    7.1954  -12.1128   27.6628 C   0  0  0  0  0  0  0  0  0  0  0  0
    8.0687  -13.2558   27.1222 C   0  0  0  0  0  0  0  0  0  0  0  0
    7.4942  -13.6653   25.8131 C   0  0  2  0  0  0  0  0  0  0  0  0
    6.0330  -14.0502   25.9015 C   0  0  0  0  0  0  0  0  0  0  0  0
    8.3153  -14.5658   24.9812 C   0  0  2  0  0  0  0  0  0  0  0  0
    7.9603  -14.8775   23.6725 N   0  0  0  0  0  0  0  0  0  0  0  0
    8.4949  -15.8451   25.7535 C   0  0  0  0  0  0  0  0  0  0  0  0
    7.5032  -16.5626   26.0491 O   0  0  0  0  0  0  0  0  0  0  0  0
   11.1121  -18.3618   26.2257 C   0  0  0  0  0  0  0  0  0  0  0  0
    9.9606  -17.5997   26.8162 C   0  0  2  0  0  0  0  0  0  0  0  0
    9.7638  -16.3021   26.1813 N   0  0  0  0  0  0  0  0  0  0  0  0
   10.3006  -17.3444   28.2553 C   0  0  0  0  0  0  0  0  0  0  0  0
   10.5427  -16.1906   28.6931 O   0  0  0  0  0  0  0  0  0  0  0  0
   10.3575  -18.3965   29.1564 O   0  0  0  0  0  0  0  0  0  0  0  0
  2  1  1  6
  2  3  1  0
  4  2  1  0
  5  4  1  0
  5  7  1  0
  5  6  1  1
  7 14  1  0
  7  8  2  0
  9 10  1  0
 10 11  1  0
 11 12  1  1
 13 11  1  0
 13 14  1  6
 15 13  1  0
 15 16  2  0
 18 17  1  6
 18 19  1  0
 19 15  1  0
 20 18  1  0
 21 20  2  0
 22 20  1  0
M  END
$$$$
