EIA.pdb
     RDKit          3D

 23 22  0  0  1  0  0  0  0  0999 V2000
    8.9875  -18.6177   16.4820 N   0  0  0  0  0  0  0  0  0  0  0  0
    8.1816  -18.4401   17.7163 C   0  0  1  0  0  0  0  0  0  0  0  0
    8.2371  -19.7817   18.3916 C   0  0  0  0  0  0  0  0  0  0  0  0
    8.7959  -20.8154   17.4883 C   0  0  0  0  0  0  0  0  0  0  0  0
    8.8040  -22.1332   18.1589 C   0  0  0  0  0  0  0  0  0  0  0  0
    7.9277  -23.0157   18.0745 O   0  0  0  0  0  0  0  0  0  0  0  0
    8.9167  -17.4534   18.5845 C   0  0  0  0  0  0  0  0  0  0  0  0
   10.1645  -17.3221   18.5777 O   0  0  0  0  0  0  0  0  0  0  0  0
    9.9154  -22.4172   18.9744 O   0  0  0  0  0  0  0  0  0  0  0  0
    7.9771  -11.9572   21.0071 C   0  0  0  0  0  0  0  0  0  0  0  0
    8.8063  -13.1969   20.9705 C   0  0  0  0  0  0  0  0  0  0  0  0
    8.1110  -14.3519   20.3070 C   0  0  2  0  0  0  0  0  0  0  0  0
    6.7861  -14.6263   20.9319 C   0  0  0  0  0  0  0  0  0  0  0  0
    8.9370  -15.6130   20.3029 C   0  0  2  0  0  0  0  0  0  0  0  0
    8.2235  -16.5820   19.4938 N   0  0  0  0  0  0  0  0  0  0  0  0
    9.1519  -16.1772   21.6308 C   0  0  0  0  0  0  0  0  0  0  0  0
    8.2498  -16.7462   22.3042 O   0  0  0  0  0  0  0  0  0  0  0  0
   12.2625  -16.9912   23.5892 C   0  0  0  0  0  0  0  0  0  0  0  0
   10.7778  -16.7104   23.4828 C   0  0  2  0  0  0  0  0  0  0  0  0
   10.4361  -16.0967   22.2243 N   0  0  0  0  0  0  0  0  0  0  0  0
   10.4019  -15.8218   24.6155 C   0  0  0  0  0  0  0  0  0  0  0  0
   10.4391  -16.2664   25.9171 O   0  0  0  0  0  0  0  0  0  0  0  0
   10.0374  -14.6299   24.4050 O   0  0  0  0  0  0  0  0  0  0  0  0
  2  1  1  6
  2  7  1  0
  2  3  1  0
  3  4  1  0
  4  5  1  0
  5  9  1  0
  5  6  2  0
  7  8  2  0
 11 12  1  0
 11 10  1  0
 12 13  1  1
 14 12  1  0
 15  7  1  0
 14 15  1  6
 16 14  1  0
 17 16  2  0
 19 18  1  6
 19 20  1  0
 20 16  1  0
 21 22  1  0
 21 19  1  0
 23 21  2  0
M  END
$$$$
