EIA.pdb
     RDKit          3D

 23 22  0  0  1  0  0  0  0  0999 V2000
    9.9930  -15.8283   20.6136 N   0  0  0  0  0  0  0  0  0  0  0  0
    9.0849  -16.3631   21.6596 C   0  0  1  0  0  0  0  0  0  0  0  0
    9.4666  -17.8121   21.7764 C   0  0  0  0  0  0  0  0  0  0  0  0
    8.8342  -18.6223   20.7085 C   0  0  0  0  0  0  0  0  0  0  0  0
    8.9146  -20.0611   21.0398 C   0  0  0  0  0  0  0  0  0  0  0  0
    7.9674  -20.8029   21.3662 O   0  0  0  0  0  0  0  0  0  0  0  0
    9.4512  -15.6817   22.9516 C   0  0  0  0  0  0  0  0  0  0  0  0
   10.6345  -15.4578   23.3036 O   0  0  0  0  0  0  0  0  0  0  0  0
   10.1914  -20.6502   20.9794 O   0  0  0  0  0  0  0  0  0  0  0  0
    7.0321  -11.8373   27.0759 C   0  0  0  0  0  0  0  0  0  0  0  0
    8.1094  -12.7980   26.6989 C   0  0  0  0  0  0  0  0  0  0  0  0
    7.7915  -13.5832   25.4579 C   0  0  2  0  0  0  0  0  0  0  0  0
    6.4357  -14.1978   25.5305 C   0  0  0  0  0  0  0  0  0  0  0  0
    8.8131  -14.6506   25.1583 C   0  0  2  0  0  0  0  0  0  0  0  0
    8.4503  -15.2355   23.8821 N   0  0  0  0  0  0  0  0  0  0  0  0
    8.8669  -15.7083   26.1614 C   0  0  0  0  0  0  0  0  0  0  0  0
    7.8916  -16.4572   26.4423 O   0  0  0  0  0  0  0  0  0  0  0  0
   11.4694  -17.8369   27.5151 C   0  0  0  0  0  0  0  0  0  0  0  0
   10.2489  -16.9969   27.8308 C   0  0  2  0  0  0  0  0  0  0  0  0
   10.0692  -15.9311   26.8775 N   0  0  0  0  0  0  0  0  0  0  0  0
   10.4197  -16.4466   29.2026 C   0  0  0  0  0  0  0  0  0  0  0  0
   10.5008  -17.2722   30.3003 O   0  0  0  0  0  0  0  0  0  0  0  0
   10.4945  -15.1989   29.3908 O   0  0  0  0  0  0  0  0  0  0  0  0
  2  1  1  6
  2  7  1  0
  2  3  1  0
  3  4  1  0
  4  5  1  0
  5  9  1  0
  5  6  2  0
  7  8  2  0
 11 12  1  0
 11 10  1  0
 12 13  1  1
 14 12  1  0
 15  7  1  0
 14 15  1  6
 16 14  1  0
 17 16  2  0
 19 18  1  6
 19 20  1  0
 20 16  1  0
 21 22  1  0
 21 19  1  0
 23 21  2  0
M  END
$$$$
