EIA.pdb
     RDKit          3D

 23 22  0  0  1  0  0  0  0  0999 V2000
    8.4308  -15.1663   20.5989 N   0  0  0  0  0  0  0  0  0  0  0  0
    7.6766  -15.7155   21.7540 C   0  0  1  0  0  0  0  0  0  0  0  0
    7.7855  -17.2059   21.5931 C   0  0  0  0  0  0  0  0  0  0  0  0
    7.0240  -17.6760   20.4116 C   0  0  0  0  0  0  0  0  0  0  0  0
    7.0889  -19.1499   20.3121 C   0  0  0  0  0  0  0  0  0  0  0  0
    7.7332  -19.9174   21.0535 O   0  0  0  0  0  0  0  0  0  0  0  0
    8.4313  -15.3273   22.9979 C   0  0  0  0  0  0  0  0  0  0  0  0
    9.6803  -15.2171   23.0426 O   0  0  0  0  0  0  0  0  0  0  0  0
    6.3468  -19.7435   19.2739 O   0  0  0  0  0  0  0  0  0  0  0  0
    6.2639  -11.7166   26.1379 C   0  0  0  0  0  0  0  0  0  0  0  0
    7.3394  -12.5264   25.4948 C   0  0  0  0  0  0  0  0  0  0  0  0
    7.6574  -13.7878   26.2468 C   0  0  2  0  0  0  0  0  0  0  0  0
    8.3312  -13.4973   27.5441 C   0  0  0  0  0  0  0  0  0  0  0  0
    8.4956  -14.7539   25.4489 C   0  0  2  0  0  0  0  0  0  0  0  0
    7.7568  -15.0526   24.2375 N   0  0  0  0  0  0  0  0  0  0  0  0
    8.7758  -16.0029   26.1484 C   0  0  0  0  0  0  0  0  0  0  0  0
    7.8880  -16.7163   26.6904 O   0  0  0  0  0  0  0  0  0  0  0  0
   11.7750  -18.2598   26.3738 C   0  0  0  0  0  0  0  0  0  0  0  0
   10.4957  -17.6717   26.9324 C   0  0  2  0  0  0  0  0  0  0  0  0
   10.1114  -16.4672   26.2407 N   0  0  0  0  0  0  0  0  0  0  0  0
   10.7166  -17.3955   28.3776 C   0  0  0  0  0  0  0  0  0  0  0  0
   10.8862  -18.4167   29.2840 O   0  0  0  0  0  0  0  0  0  0  0  0
   10.7537  -16.2073   28.8075 O   0  0  0  0  0  0  0  0  0  0  0  0
  2  1  1  6
  2  7  1  0
  2  3  1  0
  3  4  1  0
  4  5  1  0
  5  9  1  0
  5  6  2  0
  7  8  2  0
 11 12  1  0
 11 10  1  0
 12 13  1  1
 14 12  1  0
 15  7  1  0
 14 15  1  6
 16 14  1  0
 17 16  2  0
 19 18  1  6
 19 20  1  0
 20 16  1  0
 21 22  1  0
 21 19  1  0
 23 21  2  0
M  END
$$$$
