EIA.pdb
     RDKit          3D

 23 22  0  0  1  0  0  0  0  0999 V2000
    9.0828  -16.8451   21.2869 N   0  0  0  0  0  0  0  0  0  0  0  0
    8.6270  -16.9842   22.6932 C   0  0  1  0  0  0  0  0  0  0  0  0
    9.4889  -18.0796   23.2556 C   0  0  0  0  0  0  0  0  0  0  0  0
    9.8868  -19.0443   22.2031 C   0  0  0  0  0  0  0  0  0  0  0  0
   10.5775  -20.2050   22.8049 C   0  0  0  0  0  0  0  0  0  0  0  0
   10.8482  -20.3655   24.0111 O   0  0  0  0  0  0  0  0  0  0  0  0
    8.9842  -15.7039   23.4010 C   0  0  0  0  0  0  0  0  0  0  0  0
    9.9603  -14.9848   23.0782 O   0  0  0  0  0  0  0  0  0  0  0  0
   10.9674  -21.2311   21.9241 O   0  0  0  0  0  0  0  0  0  0  0  0
    5.9177  -11.4441   26.5717 C   0  0  0  0  0  0  0  0  0  0  0  0
    7.1921  -11.9175   25.9571 C   0  0  0  0  0  0  0  0  0  0  0  0
    7.1094  -13.3253   25.4386 C   0  0  2  0  0  0  0  0  0  0  0  0
    6.4286  -14.2280   26.4096 C   0  0  0  0  0  0  0  0  0  0  0  0
    8.4553  -13.8993   25.0755 C   0  0  2  0  0  0  0  0  0  0  0  0
    8.2153  -15.2139   24.5126 N   0  0  0  0  0  0  0  0  0  0  0  0
    9.3612  -14.0328   26.2110 C   0  0  0  0  0  0  0  0  0  0  0  0
    9.7820  -13.0563   26.8895 O   0  0  0  0  0  0  0  0  0  0  0  0
   10.4903  -14.4930   28.8011 C   0  0  0  0  0  0  0  0  0  0  0  0
   10.6520  -15.5644   27.7425 C   0  0  2  0  0  0  0  0  0  0  0  0
    9.8113  -15.3195   26.5978 N   0  0  0  0  0  0  0  0  0  0  0  0
   10.3159  -16.8727   28.3663 C   0  0  0  0  0  0  0  0  0  0  0  0
   11.0013  -17.3395   29.4643 O   0  0  0  0  0  0  0  0  0  0  0  0
    9.3862  -17.5894   27.8974 O   0  0  0  0  0  0  0  0  0  0  0  0
  2  1  1  6
  2  7  1  0
  2  3  1  0
  3  4  1  0
  4  5  1  0
  5  9  1  0
  5  6  2  0
  7  8  2  0
 11 12  1  0
 11 10  1  0
 12 13  1  1
 14 12  1  0
 15  7  1  0
 14 15  1  1
 16 14  1  0
 17 16  2  0
 19 18  1  1
 19 20  1  0
 20 16  1  0
 21 22  1  0
 21 19  1  0
 23 21  2  0
M  END
$$$$
