EIA.pdb
     RDKit          3D

 23 22  0  0  1  0  0  0  0  0999 V2000
    9.9103  -17.7478   16.8193 N   0  0  0  0  0  0  0  0  0  0  0  0
    8.9390  -17.9610   17.9219 C   0  0  1  0  0  0  0  0  0  0  0  0
    9.1512  -19.3914   18.3316 C   0  0  0  0  0  0  0  0  0  0  0  0
    8.5654  -20.3265   17.3420 C   0  0  0  0  0  0  0  0  0  0  0  0
    9.6003  -20.7784   16.3874 C   0  0  0  0  0  0  0  0  0  0  0  0
   10.6484  -21.3942   16.6636 O   0  0  0  0  0  0  0  0  0  0  0  0
    9.3712  -17.0822   19.0659 C   0  0  0  0  0  0  0  0  0  0  0  0
   10.5620  -16.9809   19.4481 O   0  0  0  0  0  0  0  0  0  0  0  0
    9.3764  -20.4820   15.0299 O   0  0  0  0  0  0  0  0  0  0  0  0
    6.9972  -12.2955   19.8761 C   0  0  0  0  0  0  0  0  0  0  0  0
    8.0577  -13.3445   19.9004 C   0  0  0  0  0  0  0  0  0  0  0  0
    7.8947  -14.3218   21.0301 C   0  0  2  0  0  0  0  0  0  0  0  0
    8.0423  -13.6567   22.3557 C   0  0  0  0  0  0  0  0  0  0  0  0
    8.8465  -15.4875   20.9426 C   0  0  2  0  0  0  0  0  0  0  0  0
    8.4299  -16.2880   19.8076 N   0  0  0  0  0  0  0  0  0  0  0  0
    8.8534  -16.3293   22.1339 C   0  0  0  0  0  0  0  0  0  0  0  0
    7.8167  -16.8492   22.6298 O   0  0  0  0  0  0  0  0  0  0  0  0
   10.9726  -18.7048   23.6616 C   0  0  0  0  0  0  0  0  0  0  0  0
   10.1964  -17.4380   23.9572 C   0  0  2  0  0  0  0  0  0  0  0  0
   10.0788  -16.5962   22.7933 N   0  0  0  0  0  0  0  0  0  0  0  0
   10.9019  -16.7189   25.0521 C   0  0  0  0  0  0  0  0  0  0  0  0
   11.4654  -15.4802   24.8485 O   0  0  0  0  0  0  0  0  0  0  0  0
   10.9997  -17.2342   26.2022 O   0  0  0  0  0  0  0  0  0  0  0  0
  2  1  1  6
  2  7  1  0
  2  3  1  0
  3  4  1  0
  4  5  1  0
  5  9  1  0
  5  6  2  0
  7  8  2  0
 11 12  1  0
 11 10  1  0
 12 13  1  1
 14 12  1  0
 15  7  1  0
 14 15  1  6
 16 14  1  0
 17 16  2  0
 19 18  1  6
 19 20  1  0
 20 16  1  0
 21 22  1  0
 21 19  1  0
 23 21  2  0
M  END
$$$$
