EIA.pdb
     RDKit          3D

 23 22  0  0  1  0  0  0  0  0999 V2000
    9.9044  -18.2642   16.8921 N   0  0  0  0  0  0  0  0  0  0  0  0
    9.0170  -18.2831   18.0824 C   0  0  1  0  0  0  0  0  0  0  0  0
    9.1952  -19.6609   18.6558 C   0  0  0  0  0  0  0  0  0  0  0  0
    8.7626  -20.7031   17.6948 C   0  0  0  0  0  0  0  0  0  0  0  0
    8.8878  -22.0454   18.3022 C   0  0  0  0  0  0  0  0  0  0  0  0
    9.3439  -22.3108   19.4316 O   0  0  0  0  0  0  0  0  0  0  0  0
    9.5809  -17.2943   19.0683 C   0  0  0  0  0  0  0  0  0  0  0  0
   10.8059  -17.0436   19.1720 O   0  0  0  0  0  0  0  0  0  0  0  0
    8.4464  -23.1318   17.5238 O   0  0  0  0  0  0  0  0  0  0  0  0
    6.9284  -12.7267   19.9141 C   0  0  0  0  0  0  0  0  0  0  0  0
    7.9921  -13.7642   19.7793 C   0  0  0  0  0  0  0  0  0  0  0  0
    8.2619  -14.5021   21.0601 C   0  0  2  0  0  0  0  0  0  0  0  0
    8.6846  -13.5752   22.1480 C   0  0  0  0  0  0  0  0  0  0  0  0
    9.2866  -15.5968   20.9046 C   0  0  2  0  0  0  0  0  0  0  0  0
    8.7364  -16.5601   19.9708 N   0  0  0  0  0  0  0  0  0  0  0  0
    9.6063  -16.2818   22.1522 C   0  0  0  0  0  0  0  0  0  0  0  0
    8.7573  -16.9048   22.8464 O   0  0  0  0  0  0  0  0  0  0  0  0
   12.8879  -17.0299   23.9054 C   0  0  0  0  0  0  0  0  0  0  0  0
   11.3772  -16.9937   23.7998 C   0  0  2  0  0  0  0  0  0  0  0  0
   10.9376  -16.2640   22.6373 N   0  0  0  0  0  0  0  0  0  0  0  0
   10.8508  -16.3641   25.0409 C   0  0  0  0  0  0  0  0  0  0  0  0
   10.1492  -15.1811   25.0015 O   0  0  0  0  0  0  0  0  0  0  0  0
   11.0381  -16.9066   26.1671 O   0  0  0  0  0  0  0  0  0  0  0  0
  2  1  1  6
  2  7  1  0
  2  3  1  0
  3  4  1  0
  4  5  1  0
  5  9  1  0
  5  6  2  0
  7  8  2  0
 11 12  1  0
 11 10  1  0
 12 13  1  1
 14 12  1  0
 15  7  1  0
 14 15  1  6
 16 14  1  0
 17 16  2  0
 19 18  1  1
 19 20  1  0
 20 16  1  0
 21 22  1  0
 21 19  1  0
 23 21  2  0
M  END
$$$$
