EIA.pdb
     RDKit          3D

 23 22  0  0  1  0  0  0  0  0999 V2000
   10.8214  -17.1618   16.4125 N   0  0  0  0  0  0  0  0  0  0  0  0
    9.9157  -17.4721   17.5475 C   0  0  1  0  0  0  0  0  0  0  0  0
   10.3202  -18.8543   17.9774 C   0  0  0  0  0  0  0  0  0  0  0  0
   11.7809  -18.9374   18.2149 C   0  0  0  0  0  0  0  0  0  0  0  0
   12.1610  -20.3133   18.6005 C   0  0  0  0  0  0  0  0  0  0  0  0
   12.5760  -20.6851   19.7156 O   0  0  0  0  0  0  0  0  0  0  0  0
   10.2628  -16.5201   18.6614 C   0  0  0  0  0  0  0  0  0  0  0  0
   11.3737  -15.9448   18.7580 O   0  0  0  0  0  0  0  0  0  0  0  0
   12.0408  -21.3014   17.6054 O   0  0  0  0  0  0  0  0  0  0  0  0
    6.7552  -12.6777   19.6067 C   0  0  0  0  0  0  0  0  0  0  0  0
    8.0954  -13.3332   19.6031 C   0  0  0  0  0  0  0  0  0  0  0  0
    8.2672  -14.3302   20.7141 C   0  0  2  0  0  0  0  0  0  0  0  0
    8.1719  -13.6813   22.0524 C   0  0  0  0  0  0  0  0  0  0  0  0
    9.5590  -15.1013   20.6190 C   0  0  2  0  0  0  0  0  0  0  0  0
    9.3264  -16.2029   19.7052 N   0  0  0  0  0  0  0  0  0  0  0  0
   10.0162  -15.6386   21.8957 C   0  0  0  0  0  0  0  0  0  0  0  0
   10.3316  -14.9218   22.8844 O   0  0  0  0  0  0  0  0  0  0  0  0
   12.1476  -17.7164   23.2654 C   0  0  0  0  0  0  0  0  0  0  0  0
   10.6336  -17.6687   23.2578 C   0  0  2  0  0  0  0  0  0  0  0  0
   10.1221  -17.0415   22.0653 N   0  0  0  0  0  0  0  0  0  0  0  0
   10.1972  -16.9218   24.4683 C   0  0  0  0  0  0  0  0  0  0  0  0
   10.5164  -17.3593   25.7333 O   0  0  0  0  0  0  0  0  0  0  0  0
    9.5186  -15.8609   24.3602 O   0  0  0  0  0  0  0  0  0  0  0  0
  2  1  1  6
  2  7  1  0
  2  3  1  0
  3  4  1  0
  4  5  1  0
  5  9  1  0
  5  6  2  0
  7  8  2  0
 11 12  1  0
 11 10  1  0
 12 13  1  1
 14 12  1  0
 15  7  1  0
 14 15  1  6
 16 14  1  0
 17 16  2  0
 19 18  1  6
 19 20  1  0
 20 16  1  0
 21 22  1  0
 21 19  1  0
 23 21  2  0
M  END
$$$$
