EIA.pdb
     RDKit          3D

 23 22  0  0  1  0  0  0  0  0999 V2000
   10.8457  -17.8972   17.2103 N   0  0  0  0  0  0  0  0  0  0  0  0
    9.5890  -17.8588   18.0002 C   0  0  1  0  0  0  0  0  0  0  0  0
    9.4375  -19.2593   18.5243 C   0  0  0  0  0  0  0  0  0  0  0  0
    9.1846  -20.2202   17.4246 C   0  0  0  0  0  0  0  0  0  0  0  0
    9.0387  -21.5897   17.9628 C   0  0  0  0  0  0  0  0  0  0  0  0
    9.1914  -21.9427   19.1486 O   0  0  0  0  0  0  0  0  0  0  0  0
    9.8343  -16.9485   19.1745 C   0  0  0  0  0  0  0  0  0  0  0  0
   10.9645  -16.7762   19.6913 O   0  0  0  0  0  0  0  0  0  0  0  0
    8.6919  -22.5945   17.0403 O   0  0  0  0  0  0  0  0  0  0  0  0
    7.0148  -12.3429   19.5455 C   0  0  0  0  0  0  0  0  0  0  0  0
    8.0794  -13.3847   19.6296 C   0  0  0  0  0  0  0  0  0  0  0  0
    7.9731  -14.2382   20.8617 C   0  0  2  0  0  0  0  0  0  0  0  0
    8.0422  -13.4181   22.1043 C   0  0  0  0  0  0  0  0  0  0  0  0
    9.0162  -15.3253   20.9170 C   0  0  2  0  0  0  0  0  0  0  0  0
    8.7695  -16.2043   19.7904 N   0  0  0  0  0  0  0  0  0  0  0  0
    8.9777  -16.1126   22.1443 C   0  0  0  0  0  0  0  0  0  0  0  0
    7.9107  -16.4968   22.6966 O   0  0  0  0  0  0  0  0  0  0  0  0
   10.6900  -18.6778   23.7393 C   0  0  0  0  0  0  0  0  0  0  0  0
   10.2608  -17.2477   23.9944 C   0  0  2  0  0  0  0  0  0  0  0  0
   10.1915  -16.4821   22.7753 N   0  0  0  0  0  0  0  0  0  0  0  0
   11.2401  -16.6414   24.9362 C   0  0  0  0  0  0  0  0  0  0  0  0
   11.9939  -15.5471   24.5790 O   0  0  0  0  0  0  0  0  0  0  0  0
   11.4023  -17.1222   26.0940 O   0  0  0  0  0  0  0  0  0  0  0  0
  2  1  1  6
  2  7  1  0
  2  3  1  0
  3  4  1  0
  4  5  1  0
  5  9  1  0
  5  6  2  0
  7  8  2  0
 11 12  1  0
 11 10  1  0
 12 13  1  1
 14 12  1  0
 15  7  1  0
 14 15  1  6
 16 14  1  0
 17 16  2  0
 19 18  1  6
 19 20  1  0
 20 16  1  0
 21 22  1  0
 21 19  1  0
 23 21  2  0
M  END
$$$$
