MHK.pdb
     RDKit          3D

 28 28  0  0  1  0  0  0  0  0999 V2000
   18.0268  -16.4936  -19.3523 C   0  0  0  0  0  0  0  0  0  0  0  0
   18.1446  -15.0436  -18.2986 S   0  0  0  0  0  0  0  0  0  0  0  0
   19.7600  -14.2044  -18.5291 C   0  0  0  0  0  0  0  0  0  0  0  0
   19.8465  -13.0877  -17.5424 C   0  0  0  0  0  0  0  0  0  0  0  0
   21.1070  -12.3052  -17.6376 C   0  0  2  0  0  0  0  0  0  0  0  0
   22.2240  -13.2312  -17.4329 N   0  0  0  0  0  0  0  0  0  0  0  0
   21.2088  -11.1268  -16.7813 C   0  0  0  0  0  0  0  0  0  0  0  0
   20.7589  -11.0836  -15.6093 O   0  0  0  0  0  0  0  0  0  0  0  0
   21.8426   -9.9259  -17.2425 N   0  0  0  0  0  0  0  0  0  0  0  0
   22.1190   -8.7820  -16.4063 C   0  0  1  0  0  0  0  0  0  0  0  0
   23.5565   -8.3670  -16.3669 C   0  0  0  0  0  0  0  0  0  0  0  0
   24.5051   -9.3344  -15.8496 C   0  0  0  0  0  0  0  0  0  0  0  0
   24.2848  -10.5556  -15.2734 C   0  0  0  0  0  0  0  0  0  0  0  0
   25.5161  -11.0388  -14.9634 N   0  0  0  0  0  0  0  0  0  0  0  0
   26.4588  -10.1538  -15.3321 C   0  0  0  0  0  0  0  0  0  0  0  0
   25.8489   -9.1125  -15.8730 N   0  0  0  0  0  0  0  0  0  0  0  0
   21.3669   -7.6002  -16.9251 C   0  0  0  0  0  0  0  0  0  0  0  0
   21.3247   -7.3779  -18.1448 O   0  0  0  0  0  0  0  0  0  0  0  0
   20.7080   -6.7421  -16.0305 N   0  0  0  0  0  0  0  0  0  0  0  0
   19.8802   -5.5759  -16.5398 C   0  0  1  0  0  0  0  0  0  0  0  0
   18.5499   -5.8018  -15.9371 C   0  0  0  0  0  0  0  0  0  0  0  0
   17.5188   -6.6311  -16.5452 C   0  0  0  0  0  0  0  0  0  0  0  0
   16.2390   -6.9263  -15.8829 C   0  0  0  0  0  0  0  0  0  0  0  0
   15.4212   -7.9830  -16.5882 C   0  0  0  0  0  0  0  0  0  0  0  0
   14.2771   -8.2717  -15.7413 N   0  0  0  0  0  0  0  0  0  0  0  0
   20.6007   -4.4208  -15.9516 C   0  0  0  0  0  0  0  0  0  0  0  0
   20.3127   -3.2181  -16.1080 O   0  0  0  0  0  0  0  0  0  0  0  0
   21.7391   -4.6106  -15.1168 O   0  0  0  0  0  0  0  0  0  0  0  0
  1  2  1  0
  3  4  1  0
  3  2  1  0
  4  5  1  0
  5  6  1  1
  7  9  1  0
  7  5  1  0
  8  7  2  0
 10  9  1  0
 11 12  1  0
 10 11  1  6
 12 16  1  0
 12 13  2  0
 13 14  1  0
 14 15  1  0
 16 15  2  0
 17 19  1  0
 17 10  1  0
 18 17  2  0
 20 19  1  0
 20 26  1  0
 20 21  1  1
 22 23  1  0
 22 21  1  0
 23 24  1  0
 24 25  1  0
 26 28  1  0
 27 26  2  0
M  END
$$$$
