MHK.pdb
     RDKit          3D

 28 28  0  0  1  0  0  0  0  0999 V2000
   27.9985  -18.4747   -6.9347 C   0  0  0  0  0  0  0  0  0  0  0  0
   26.8280  -19.7908   -7.2875 S   0  0  0  0  0  0  0  0  0  0  0  0
   27.5601  -21.0178   -8.4388 C   0  0  0  0  0  0  0  0  0  0  0  0
   27.4035  -20.4986   -9.8295 C   0  0  0  0  0  0  0  0  0  0  0  0
   25.9965  -20.4962  -10.3093 C   0  0  2  0  0  0  0  0  0  0  0  0
   25.4566  -21.8447  -10.1169 N   0  0  0  0  0  0  0  0  0  0  0  0
   25.7713  -20.0047  -11.6659 C   0  0  0  0  0  0  0  0  0  0  0  0
   26.1260  -18.8644  -12.0552 O   0  0  0  0  0  0  0  0  0  0  0  0
   25.1172  -20.8161  -12.6509 N   0  0  0  0  0  0  0  0  0  0  0  0
   24.8742  -20.4012  -14.0122 C   0  0  1  0  0  0  0  0  0  0  0  0
   25.3757  -21.3499  -15.0556 C   0  0  0  0  0  0  0  0  0  0  0  0
   26.6817  -21.0722  -15.6220 C   0  0  0  0  0  0  0  0  0  0  0  0
   27.4966  -19.9862  -15.4537 C   0  0  0  0  0  0  0  0  0  0  0  0
   28.5936  -20.2333  -16.2161 N   0  0  0  0  0  0  0  0  0  0  0  0
   28.4629  -21.4221  -16.8305 C   0  0  0  0  0  0  0  0  0  0  0  0
   27.2994  -21.9386  -16.4724 N   0  0  0  0  0  0  0  0  0  0  0  0
   23.4017  -20.2884  -14.2367 C   0  0  0  0  0  0  0  0  0  0  0  0
   22.6179  -20.9885  -13.5774 O   0  0  0  0  0  0  0  0  0  0  0  0
   22.9065  -19.3893  -15.1943 N   0  0  0  0  0  0  0  0  0  0  0  0
   21.4122  -19.2251  -15.4063 C   0  0  1  0  0  0  0  0  0  0  0  0
   21.3078  -17.9982  -16.2234 C   0  0  0  0  0  0  0  0  0  0  0  0
   20.0427  -17.4282  -16.6654 C   0  0  0  0  0  0  0  0  0  0  0  0
   19.9562  -16.1729  -17.4273 C   0  0  0  0  0  0  0  0  0  0  0  0
   18.5390  -15.7345  -17.7140 C   0  0  0  0  0  0  0  0  0  0  0  0
   18.6210  -14.5161  -18.5004 N   0  0  0  0  0  0  0  0  0  0  0  0
   21.0815  -20.4594  -16.1590 C   0  0  0  0  0  0  0  0  0  0  0  0
   21.8447  -21.0796  -16.9250 O   0  0  0  0  0  0  0  0  0  0  0  0
   19.7950  -21.0620  -16.0564 O   0  0  0  0  0  0  0  0  0  0  0  0
  1  2  1  0
  3  4  1  0
  3  2  1  0
  4  5  1  0
  5  6  1  6
  7  9  1  0
  7  5  1  0
  8  7  2  0
 10  9  1  0
 11 12  1  0
 10 11  1  6
 12 16  1  0
 12 13  2  0
 13 14  1  0
 14 15  1  0
 16 15  2  0
 17 19  1  0
 17 10  1  0
 18 17  2  0
 20 19  1  0
 20 26  1  0
 20 21  1  6
 22 23  1  0
 22 21  1  0
 23 24  1  0
 24 25  1  0
 26 28  1  0
 27 26  2  0
M  END
$$$$
