MHK.pdb
     RDKit          3D

 28 28  0  0  1  0  0  0  0  0999 V2000
   27.1889  -18.6244   -7.0516 C   0  0  0  0  0  0  0  0  0  0  0  0
   28.2737  -20.0195   -7.3731 S   0  0  0  0  0  0  0  0  0  0  0  0
   27.5108  -21.1680   -8.5839 C   0  0  0  0  0  0  0  0  0  0  0  0
   26.6742  -20.3629   -9.5221 C   0  0  0  0  0  0  0  0  0  0  0  0
   26.0117  -21.1755  -10.5760 C   0  0  2  0  0  0  0  0  0  0  0  0
   27.0161  -22.0823  -11.1383 N   0  0  0  0  0  0  0  0  0  0  0  0
   25.2972  -20.4384  -11.6145 C   0  0  0  0  0  0  0  0  0  0  0  0
   24.4046  -19.5894  -11.3690 O   0  0  0  0  0  0  0  0  0  0  0  0
   25.5820  -20.6486  -13.0042 N   0  0  0  0  0  0  0  0  0  0  0  0
   24.8689  -20.0086  -14.0841 C   0  0  1  0  0  0  0  0  0  0  0  0
   25.6233  -19.9317  -15.3746 C   0  0  0  0  0  0  0  0  0  0  0  0
   26.5822  -18.8522  -15.5111 C   0  0  0  0  0  0  0  0  0  0  0  0
   26.8034  -17.7698  -14.7041 C   0  0  0  0  0  0  0  0  0  0  0  0
   27.8061  -17.0721  -15.2987 N   0  0  0  0  0  0  0  0  0  0  0  0
   28.1892  -17.6963  -16.4262 C   0  0  0  0  0  0  0  0  0  0  0  0
   27.4468  -18.7823  -16.5614 N   0  0  0  0  0  0  0  0  0  0  0  0
   23.6279  -20.7847  -14.3823 C   0  0  0  0  0  0  0  0  0  0  0  0
   23.6481  -22.0246  -14.3486 O   0  0  0  0  0  0  0  0  0  0  0  0
   22.4392  -20.1089  -14.7002 N   0  0  0  0  0  0  0  0  0  0  0  0
   21.1663  -20.8779  -15.0059 C   0  0  1  0  0  0  0  0  0  0  0  0
   20.3040  -20.6052  -13.8371 C   0  0  0  0  0  0  0  0  0  0  0  0
   19.0947  -21.3576  -13.5335 C   0  0  0  0  0  0  0  0  0  0  0  0
   18.8022  -21.8910  -12.1943 C   0  0  0  0  0  0  0  0  0  0  0  0
   17.5381  -22.7163  -12.1335 C   0  0  0  0  0  0  0  0  0  0  0  0
   17.3948  -23.1755  -10.7630 N   0  0  0  0  0  0  0  0  0  0  0  0
   20.7033  -20.2058  -16.2442 C   0  0  0  0  0  0  0  0  0  0  0  0
   19.9644  -20.7018  -17.1170 O   0  0  0  0  0  0  0  0  0  0  0  0
   21.0902  -18.8685  -16.5449 O   0  0  0  0  0  0  0  0  0  0  0  0
  1  2  1  0
  3  4  1  0
  3  2  1  0
  4  5  1  0
  5  6  1  6
  7  9  1  0
  7  5  1  0
  8  7  2  0
 10  9  1  0
 11 12  1  0
 10 11  1  6
 12 16  1  0
 12 13  2  0
 13 14  1  0
 14 15  1  0
 16 15  2  0
 17 19  1  0
 17 10  1  0
 18 17  2  0
 20 19  1  0
 20 26  1  0
 20 21  1  1
 22 23  1  0
 22 21  1  0
 23 24  1  0
 24 25  1  0
 26 28  1  0
 27 26  2  0
M  END
$$$$
