MHK.pdb
     RDKit          3D

 28 28  0  0  1  0  0  0  0  0999 V2000
   25.2358  -25.5389  -17.3313 C   0  0  0  0  0  0  0  0  0  0  0  0
   26.5774  -24.8745  -16.3388 S   0  0  0  0  0  0  0  0  0  0  0  0
   28.0804  -25.9144  -16.5012 C   0  0  0  0  0  0  0  0  0  0  0  0
   27.6565  -27.2740  -16.9486 C   0  0  0  0  0  0  0  0  0  0  0  0
   28.7089  -28.3107  -16.7820 C   0  0  2  0  0  0  0  0  0  0  0  0
   29.8211  -27.9651  -17.6712 N   0  0  0  0  0  0  0  0  0  0  0  0
   28.2877  -29.6992  -16.9464 C   0  0  0  0  0  0  0  0  0  0  0  0
   28.0105  -30.2098  -18.0601 O   0  0  0  0  0  0  0  0  0  0  0  0
   28.1644  -30.5766  -15.8187 N   0  0  0  0  0  0  0  0  0  0  0  0
   27.8172  -31.9747  -15.9130 C   0  0  1  0  0  0  0  0  0  0  0  0
   28.8766  -32.9173  -15.4338 C   0  0  0  0  0  0  0  0  0  0  0  0
   29.9142  -33.2754  -16.3818 C   0  0  0  0  0  0  0  0  0  0  0  0
   29.9866  -33.0473  -17.7289 C   0  0  0  0  0  0  0  0  0  0  0  0
   31.1628  -33.5977  -18.1280 N   0  0  0  0  0  0  0  0  0  0  0  0
   31.7917  -34.1437  -17.0724 C   0  0  0  0  0  0  0  0  0  0  0  0
   31.0355  -33.9505  -16.0048 N   0  0  0  0  0  0  0  0  0  0  0  0
   26.6181  -32.2422  -15.0633 C   0  0  0  0  0  0  0  0  0  0  0  0
   26.5710  -31.8085  -13.9020 O   0  0  0  0  0  0  0  0  0  0  0  0
   25.5450  -32.9846  -15.5810 N   0  0  0  0  0  0  0  0  0  0  0  0
   24.2657  -33.1611  -14.7827 C   0  0  1  0  0  0  0  0  0  0  0  0
   23.2057  -32.7452  -15.7247 C   0  0  0  0  0  0  0  0  0  0  0  0
   21.7825  -32.8989  -15.4570 C   0  0  0  0  0  0  0  0  0  0  0  0
   20.7451  -32.5789  -16.4495 C   0  0  0  0  0  0  0  0  0  0  0  0
   19.3400  -32.8569  -15.9685 C   0  0  0  0  0  0  0  0  0  0  0  0
   18.4418  -32.5164  -17.0579 N   0  0  0  0  0  0  0  0  0  0  0  0
   24.2772  -34.6211  -14.5221 C   0  0  0  0  0  0  0  0  0  0  0  0
   23.7045  -35.2039  -13.5807 O   0  0  0  0  0  0  0  0  0  0  0  0
   24.9828  -35.5160  -15.3764 O   0  0  0  0  0  0  0  0  0  0  0  0
  1  2  1  0
  3  4  1  0
  3  2  1  0
  4  5  1  0
  5  6  1  6
  7  9  1  0
  7  5  1  0
  8  7  2  0
 10  9  1  0
 11 12  1  0
 10 11  1  1
 12 16  1  0
 12 13  2  0
 13 14  1  0
 14 15  1  0
 16 15  2  0
 17 19  1  0
 17 10  1  0
 18 17  2  0
 20 19  1  0
 20 26  1  0
 20 21  1  6
 22 23  1  0
 22 21  1  0
 23 24  1  0
 24 25  1  0
 26 28  1  0
 27 26  2  0
M  END
$$$$
