MHK.pdb
     RDKit          3D

 28 28  0  0  1  0  0  0  0  0999 V2000
   19.8643  -12.0706  -23.1241 C   0  0  0  0  0  0  0  0  0  0  0  0
   20.8332  -13.3976  -22.3983 S   0  0  0  0  0  0  0  0  0  0  0  0
   21.9024  -12.7576  -21.0514 C   0  0  0  0  0  0  0  0  0  0  0  0
   21.0653  -11.8954  -20.1659 C   0  0  0  0  0  0  0  0  0  0  0  0
   21.8580  -10.9721  -19.3118 C   0  0  2  0  0  0  0  0  0  0  0  0
   22.7050  -11.7884  -18.4381 N   0  0  0  0  0  0  0  0  0  0  0  0
   21.1056   -9.9691  -18.5634 C   0  0  0  0  0  0  0  0  0  0  0  0
   20.2086   -9.2541  -19.0756 O   0  0  0  0  0  0  0  0  0  0  0  0
   21.3555   -9.7396  -17.1701 N   0  0  0  0  0  0  0  0  0  0  0  0
   20.5294   -8.9123  -16.3233 C   0  0  1  0  0  0  0  0  0  0  0  0
   20.0693   -9.5706  -15.0602 C   0  0  0  0  0  0  0  0  0  0  0  0
   18.9877  -10.5298  -15.1762 C   0  0  0  0  0  0  0  0  0  0  0  0
   18.3044  -10.9497  -16.2847 C   0  0  0  0  0  0  0  0  0  0  0  0
   17.3906  -11.8465  -15.8302 N   0  0  0  0  0  0  0  0  0  0  0  0
   17.5036  -11.9760  -14.4967 C   0  0  0  0  0  0  0  0  0  0  0  0
   18.4755  -11.1759  -14.0920 N   0  0  0  0  0  0  0  0  0  0  0  0
   21.3090   -7.7114  -15.8972 C   0  0  0  0  0  0  0  0  0  0  0  0
   22.5210   -7.8130  -15.6524 O   0  0  0  0  0  0  0  0  0  0  0  0
   20.6684   -6.4683  -15.7747 N   0  0  0  0  0  0  0  0  0  0  0  0
   21.4535   -5.2230  -15.4034 C   0  0  1  0  0  0  0  0  0  0  0  0
   20.5090   -4.1199  -15.6769 C   0  0  0  0  0  0  0  0  0  0  0  0
   20.7426   -2.7395  -15.2760 C   0  0  0  0  0  0  0  0  0  0  0  0
   19.8274   -1.6419  -15.6246 C   0  0  0  0  0  0  0  0  0  0  0  0
   20.3450   -0.2758  -15.2389 C   0  0  0  0  0  0  0  0  0  0  0  0
   19.3851    0.6975  -15.7298 N   0  0  0  0  0  0  0  0  0  0  0  0
   21.6930   -5.4432  -13.9564 C   0  0  0  0  0  0  0  0  0  0  0  0
   20.9947   -6.1392  -13.1937 O   0  0  0  0  0  0  0  0  0  0  0  0
   22.8013   -4.8422  -13.2938 O   0  0  0  0  0  0  0  0  0  0  0  0
  1  2  1  0
  3  4  1  0
  3  2  1  0
  4  5  1  0
  5  6  1  1
  7  9  1  0
  7  5  1  0
  8  7  2  0
 10  9  1  0
 11 12  1  0
 10 11  1  1
 12 16  1  0
 12 13  2  0
 13 14  1  0
 14 15  1  0
 16 15  2  0
 17 19  1  0
 17 10  1  0
 18 17  2  0
 20 19  1  0
 20 26  1  0
 20 21  1  1
 22 23  1  0
 22 21  1  0
 23 24  1  0
 24 25  1  0
 26 28  1  0
 27 26  2  0
M  END
$$$$
