HHL.pdb
     RDKit          3D

 29 30  0  0  1  0  0  0  0  0999 V2000
   14.7489   -9.3364  -11.5689 N   0  0  0  0  0  0  0  0  0  0  0  0
   15.3012   -9.4637  -10.2354 C   0  0  1  0  0  0  0  0  0  0  0  0
   16.0463  -10.7767  -10.1560 C   0  0  0  0  0  0  0  0  0  0  0  0
   15.0783  -11.8700  -10.3818 C   0  0  0  0  0  0  0  0  0  0  0  0
   14.0845  -12.3040   -9.5318 C   0  0  0  0  0  0  0  0  0  0  0  0
   13.4289  -13.3239  -10.1239 N   0  0  0  0  0  0  0  0  0  0  0  0
   14.0226  -13.4962  -11.3096 C   0  0  0  0  0  0  0  0  0  0  0  0
   15.0309  -12.6230  -11.4918 N   0  0  0  0  0  0  0  0  0  0  0  0
   16.2124   -8.3076   -9.9704 C   0  0  0  0  0  0  0  0  0  0  0  0
   16.8334   -8.2411   -8.8782 O   0  0  0  0  0  0  0  0  0  0  0  0
   16.3763   -7.2758  -10.9636 N   0  0  0  0  0  0  0  0  0  0  0  0
   17.0866   -6.0986  -10.5549 C   0  0  1  0  0  0  0  0  0  0  0  0
   18.1651   -5.6698  -11.4989 C   0  0  0  0  0  0  0  0  0  0  0  0
   19.2250   -6.6519  -11.7113 C   0  0  0  0  0  0  0  0  0  0  0  0
   19.4872   -7.8914  -11.2136 C   0  0  0  0  0  0  0  0  0  0  0  0
   20.6158   -8.3856  -11.7762 N   0  0  0  0  0  0  0  0  0  0  0  0
   21.0587   -7.4658  -12.6200 C   0  0  0  0  0  0  0  0  0  0  0  0
   20.2400   -6.4155  -12.5986 N   0  0  0  0  0  0  0  0  0  0  0  0
   16.1692   -4.9613  -10.2772 C   0  0  0  0  0  0  0  0  0  0  0  0
   15.2698   -4.5563  -11.0405 O   0  0  0  0  0  0  0  0  0  0  0  0
   12.6632   -4.1337   -8.3718 C   0  0  0  0  0  0  0  0  0  0  0  0
   13.7906   -4.6072   -7.4447 C   0  0  2  0  0  0  0  0  0  0  0  0
   13.1749   -4.9476   -6.1253 C   0  0  0  0  0  0  0  0  0  0  0  0
   14.8102   -3.5172   -7.3701 C   0  0  0  0  0  0  0  0  0  0  0  0
   15.4292   -3.1497   -8.6979 C   0  0  2  0  0  0  0  0  0  0  0  0
   16.3214   -4.2725   -9.0429 N   0  0  0  0  0  0  0  0  0  0  0  0
   16.1432   -1.8784   -8.7018 C   0  0  0  0  0  0  0  0  0  0  0  0
   15.4767   -0.6775   -8.8231 O   0  0  0  0  0  0  0  0  0  0  0  0
   17.3905   -1.8601   -8.5940 O   0  0  0  0  0  0  0  0  0  0  0  0
  2  3  1  0
  2  1  1  6
  3  4  1  0
  4  8  1  0
  5  4  2  0
  5  6  1  0
  6  7  1  0
  8  7  2  0
  9 10  2  0
  9  2  1  0
 11  9  1  0
 12 11  1  0
 13 14  1  0
 12 13  1  6
 14 18  1  0
 15 14  2  0
 15 16  1  0
 16 17  1  0
 18 17  2  0
 19 12  1  0
 19 26  1  0
 20 19  2  0
 22 21  1  6
 22 23  1  0
 24 22  1  0
 25 26  1  0
 25 24  1  1
 27 28  1  0
 27 25  1  0
 29 27  2  0
M  END
$$$$
