HHL.pdb
     RDKit          3D

 29 30  0  0  1  0  0  0  0  0999 V2000
   27.9473  -19.2667  -19.8410 N   0  0  0  0  0  0  0  0  0  0  0  0
   28.0041  -20.0057  -18.5959 C   0  0  1  0  0  0  0  0  0  0  0  0
   29.3447  -19.7398  -17.9496 C   0  0  0  0  0  0  0  0  0  0  0  0
   30.3877  -20.3942  -18.7664 C   0  0  0  0  0  0  0  0  0  0  0  0
   31.4553  -19.7998  -19.4031 C   0  0  0  0  0  0  0  0  0  0  0  0
   32.1631  -20.7570  -20.0382 N   0  0  0  0  0  0  0  0  0  0  0  0
   31.5274  -21.9058  -19.7843 C   0  0  0  0  0  0  0  0  0  0  0  0
   30.4422  -21.7127  -19.0114 N   0  0  0  0  0  0  0  0  0  0  0  0
   26.8806  -19.5643  -17.7128 C   0  0  0  0  0  0  0  0  0  0  0  0
   27.0071  -18.5243  -17.0161 O   0  0  0  0  0  0  0  0  0  0  0  0
   25.6598  -20.3290  -17.6620 N   0  0  0  0  0  0  0  0  0  0  0  0
   24.6154  -19.8159  -16.8234 C   0  0  1  0  0  0  0  0  0  0  0  0
   23.3095  -19.6063  -17.5224 C   0  0  0  0  0  0  0  0  0  0  0  0
   22.2385  -19.0765  -16.6825 C   0  0  0  0  0  0  0  0  0  0  0  0
   22.1627  -18.6560  -15.3902 C   0  0  0  0  0  0  0  0  0  0  0  0
   20.9065  -18.2300  -15.1162 N   0  0  0  0  0  0  0  0  0  0  0  0
   20.1994  -18.3807  -16.2260 C   0  0  0  0  0  0  0  0  0  0  0  0
   20.9777  -18.8874  -17.1806 N   0  0  0  0  0  0  0  0  0  0  0  0
   24.4158  -20.6489  -15.6075 C   0  0  0  0  0  0  0  0  0  0  0  0
   24.2971  -21.8904  -15.5945 O   0  0  0  0  0  0  0  0  0  0  0  0
   24.1162  -20.6999  -10.1012 C   0  0  0  0  0  0  0  0  0  0  0  0
   25.2834  -21.2418  -10.9370 C   0  0  2  0  0  0  0  0  0  0  0  0
   26.5304  -21.0765  -10.1285 C   0  0  0  0  0  0  0  0  0  0  0  0
   25.3029  -20.4977  -12.2327 C   0  0  0  0  0  0  0  0  0  0  0  0
   24.1023  -20.7480  -13.1144 C   0  0  2  0  0  0  0  0  0  0  0  0
   24.3541  -19.9854  -14.3516 N   0  0  0  0  0  0  0  0  0  0  0  0
   22.8241  -20.3860  -12.5137 C   0  0  0  0  0  0  0  0  0  0  0  0
   21.9429  -21.3448  -12.0607 O   0  0  0  0  0  0  0  0  0  0  0  0
   22.5043  -19.1808  -12.3998 O   0  0  0  0  0  0  0  0  0  0  0  0
  2  3  1  0
  2  1  1  6
  3  4  1  0
  4  8  1  0
  5  4  2  0
  5  6  1  0
  6  7  1  0
  8  7  2  0
  9 10  2  0
  9  2  1  0
 11  9  1  0
 12 11  1  0
 13 14  1  0
 12 13  1  6
 14 18  1  0
 15 14  2  0
 15 16  1  0
 16 17  1  0
 18 17  2  0
 19 12  1  0
 19 26  1  0
 20 19  2  0
 22 21  1  1
 22 23  1  0
 24 22  1  0
 25 26  1  0
 25 24  1  1
 27 28  1  0
 27 25  1  0
 29 27  2  0
M  END
$$$$
