HHL.pdb
     RDKit          3D

 29 30  0  0  1  0  0  0  0  0999 V2000
   28.9340  -26.5725  -17.4013 N   0  0  0  0  0  0  0  0  0  0  0  0
   27.8158  -27.4892  -17.3077 C   0  0  1  0  0  0  0  0  0  0  0  0
   28.3389  -28.8254  -16.8321 C   0  0  0  0  0  0  0  0  0  0  0  0
   29.0960  -29.4445  -17.9398 C   0  0  0  0  0  0  0  0  0  0  0  0
   28.5936  -30.0005  -19.0960 C   0  0  0  0  0  0  0  0  0  0  0  0
   29.6258  -30.4520  -19.8385 N   0  0  0  0  0  0  0  0  0  0  0  0
   30.7280  -30.1695  -19.1359 C   0  0  0  0  0  0  0  0  0  0  0  0
   30.4331  -29.5554  -17.9748 N   0  0  0  0  0  0  0  0  0  0  0  0
   26.8055  -26.9334  -16.3551 C   0  0  0  0  0  0  0  0  0  0  0  0
   27.1736  -26.5298  -15.2217 O   0  0  0  0  0  0  0  0  0  0  0  0
   25.4172  -26.8620  -16.7365 N   0  0  0  0  0  0  0  0  0  0  0  0
   24.5197  -26.2734  -15.7849 C   0  0  1  0  0  0  0  0  0  0  0  0
   23.9059  -24.9842  -16.2312 C   0  0  0  0  0  0  0  0  0  0  0  0
   24.8260  -23.8515  -16.2917 C   0  0  0  0  0  0  0  0  0  0  0  0
   26.1550  -23.6912  -16.0451 C   0  0  0  0  0  0  0  0  0  0  0  0
   26.5172  -22.4080  -16.2831 N   0  0  0  0  0  0  0  0  0  0  0  0
   25.4264  -21.7677  -16.6762 C   0  0  0  0  0  0  0  0  0  0  0  0
   24.3979  -22.6138  -16.6894 N   0  0  0  0  0  0  0  0  0  0  0  0
   23.4581  -27.2233  -15.3572 C   0  0  0  0  0  0  0  0  0  0  0  0
   22.9257  -28.0858  -16.0840 O   0  0  0  0  0  0  0  0  0  0  0  0
   21.7426  -30.5761  -11.8760 C   0  0  0  0  0  0  0  0  0  0  0  0
   21.4455  -29.1955  -11.2754 C   0  0  2  0  0  0  0  0  0  0  0  0
   19.9746  -28.9576  -11.4009 C   0  0  0  0  0  0  0  0  0  0  0  0
   22.2819  -28.1914  -12.0001 C   0  0  0  0  0  0  0  0  0  0  0  0
   22.0443  -28.1405  -13.4908 C   0  0  2  0  0  0  0  0  0  0  0  0
   23.0062  -27.1507  -14.0112 N   0  0  0  0  0  0  0  0  0  0  0  0
   20.6770  -27.8109  -13.8750 C   0  0  0  0  0  0  0  0  0  0  0  0
   19.7827  -28.7853  -14.2647 O   0  0  0  0  0  0  0  0  0  0  0  0
   20.2908  -26.6200  -13.8566 O   0  0  0  0  0  0  0  0  0  0  0  0
  2  3  1  0
  2  1  1  1
  3  4  1  0
  4  8  1  0
  5  4  2  0
  5  6  1  0
  6  7  1  0
  8  7  2  0
  9 10  2  0
  9  2  1  0
 11  9  1  0
 12 11  1  0
 13 14  1  0
 12 13  1  6
 14 18  1  0
 15 14  2  0
 15 16  1  0
 16 17  1  0
 18 17  2  0
 19 12  1  0
 19 26  1  0
 20 19  2  0
 22 21  1  6
 22 23  1  0
 24 22  1  0
 25 26  1  0
 25 24  1  1
 27 28  1  0
 27 25  1  0
 29 27  2  0
M  END
$$$$
