HHL.pdb
     RDKit          3D

 29 30  0  0  1  0  0  0  0  0999 V2000
   15.6029  -13.5718  -16.8259 N   0  0  0  0  0  0  0  0  0  0  0  0
   15.5042  -12.1876  -16.4089 C   0  0  1  0  0  0  0  0  0  0  0  0
   15.1660  -12.1610  -14.9357 C   0  0  0  0  0  0  0  0  0  0  0  0
   13.7760  -12.6352  -14.7735 C   0  0  0  0  0  0  0  0  0  0  0  0
   12.6196  -11.8879  -14.8260 C   0  0  0  0  0  0  0  0  0  0  0  0
   11.5683  -12.7100  -14.6274 N   0  0  0  0  0  0  0  0  0  0  0  0
   12.0895  -13.9299  -14.4588 C   0  0  0  0  0  0  0  0  0  0  0  0
   13.4329  -13.9121  -14.5432 N   0  0  0  0  0  0  0  0  0  0  0  0
   16.8056  -11.5013  -16.6778 C   0  0  0  0  0  0  0  0  0  0  0  0
   17.8857  -12.1224  -16.5024 O   0  0  0  0  0  0  0  0  0  0  0  0
   16.8194  -10.1345  -17.1356 N   0  0  0  0  0  0  0  0  0  0  0  0
   18.0925   -9.6007  -17.5247 C   0  0  1  0  0  0  0  0  0  0  0  0
   18.0152   -8.4703  -18.5015 C   0  0  0  0  0  0  0  0  0  0  0  0
   17.5150   -8.8322  -19.8252 C   0  0  0  0  0  0  0  0  0  0  0  0
   17.6188   -9.9382  -20.6117 C   0  0  0  0  0  0  0  0  0  0  0  0
   16.9300   -9.7524  -21.7630 N   0  0  0  0  0  0  0  0  0  0  0  0
   16.3976   -8.5412  -21.7007 C   0  0  0  0  0  0  0  0  0  0  0  0
   16.7349   -7.9691  -20.5462 N   0  0  0  0  0  0  0  0  0  0  0  0
   18.9146   -9.2052  -16.3501 C   0  0  0  0  0  0  0  0  0  0  0  0
   18.4663   -8.8570  -15.2395 O   0  0  0  0  0  0  0  0  0  0  0  0
   24.3666  -10.7803  -14.4013 C   0  0  0  0  0  0  0  0  0  0  0  0
   23.2945   -9.6942  -14.2402 C   0  0  2  0  0  0  0  0  0  0  0  0
   22.7837   -9.7711  -12.8370 C   0  0  0  0  0  0  0  0  0  0  0  0
   22.2444   -9.9301  -15.2769 C   0  0  0  0  0  0  0  0  0  0  0  0
   21.2004   -8.8423  -15.3665 C   0  0  2  0  0  0  0  0  0  0  0  0
   20.3289   -9.2222  -16.4943 N   0  0  0  0  0  0  0  0  0  0  0  0
   21.7395   -7.4983  -15.5362 C   0  0  0  0  0  0  0  0  0  0  0  0
   22.0098   -6.6878  -14.4540 O   0  0  0  0  0  0  0  0  0  0  0  0
   21.9671   -7.0550  -16.6849 O   0  0  0  0  0  0  0  0  0  0  0  0
  2  3  1  0
  2  1  1  1
  3  4  1  0
  4  8  1  0
  5  4  2  0
  5  6  1  0
  6  7  1  0
  8  7  2  0
  9 10  2  0
  9  2  1  0
 11  9  1  0
 12 11  1  0
 13 14  1  0
 12 13  1  6
 14 18  1  0
 15 14  2  0
 15 16  1  0
 16 17  1  0
 18 17  2  0
 19 12  1  0
 19 26  1  0
 20 19  2  0
 22 21  1  1
 22 23  1  0
 24 22  1  0
 25 26  1  0
 25 24  1  6
 27 28  1  0
 27 25  1  0
 29 27  2  0
M  END
$$$$
