HHL.pdb
     RDKit          3D

 29 30  0  0  1  0  0  0  0  0999 V2000
   17.7799  -11.9280  -18.0577 N   0  0  0  0  0  0  0  0  0  0  0  0
   17.6573  -11.2905  -16.7623 C   0  0  1  0  0  0  0  0  0  0  0  0
   18.3078  -12.1854  -15.7320 C   0  0  0  0  0  0  0  0  0  0  0  0
   17.4325  -13.3569  -15.5208 C   0  0  0  0  0  0  0  0  0  0  0  0
   17.6627  -14.6603  -15.9036 C   0  0  0  0  0  0  0  0  0  0  0  0
   16.6116  -15.4128  -15.5172 N   0  0  0  0  0  0  0  0  0  0  0  0
   15.7664  -14.5711  -14.9127 C   0  0  0  0  0  0  0  0  0  0  0  0
   16.2427  -13.3120  -14.9013 N   0  0  0  0  0  0  0  0  0  0  0  0
   18.3201   -9.9507  -16.8112 C   0  0  0  0  0  0  0  0  0  0  0  0
   19.3082   -9.7715  -17.5692 O   0  0  0  0  0  0  0  0  0  0  0  0
   17.8271   -8.8716  -15.9925 N   0  0  0  0  0  0  0  0  0  0  0  0
   18.4791   -7.6028  -16.1421 C   0  0  1  0  0  0  0  0  0  0  0  0
   17.5459   -6.4450  -16.3057 C   0  0  0  0  0  0  0  0  0  0  0  0
   16.7346   -6.4736  -17.5198 C   0  0  0  0  0  0  0  0  0  0  0  0
   16.9343   -6.0786  -18.8070 C   0  0  0  0  0  0  0  0  0  0  0  0
   15.8394   -6.3619  -19.5521 N   0  0  0  0  0  0  0  0  0  0  0  0
   14.9597   -6.9303  -18.7413 C   0  0  0  0  0  0  0  0  0  0  0  0
   15.4747   -7.0084  -17.5154 N   0  0  0  0  0  0  0  0  0  0  0  0
   19.4376   -7.3339  -15.0370 C   0  0  0  0  0  0  0  0  0  0  0  0
   19.1889   -7.4534  -13.8207 O   0  0  0  0  0  0  0  0  0  0  0  0
   24.3338   -9.5456  -14.2876 C   0  0  0  0  0  0  0  0  0  0  0  0
   23.1354   -8.7363  -13.7740 C   0  0  2  0  0  0  0  0  0  0  0  0
   21.9688   -9.6675  -13.6850 C   0  0  0  0  0  0  0  0  0  0  0  0
   22.9216   -7.5910  -14.7096 C   0  0  0  0  0  0  0  0  0  0  0  0
   21.7665   -6.6905  -14.3402 C   0  0  2  0  0  0  0  0  0  0  0  0
   20.7477   -6.9051  -15.3849 N   0  0  0  0  0  0  0  0  0  0  0  0
   22.1146   -5.2803  -14.2141 C   0  0  0  0  0  0  0  0  0  0  0  0
   22.5072   -4.7395  -13.0081 O   0  0  0  0  0  0  0  0  0  0  0  0
   22.0602   -4.5297  -15.2147 O   0  0  0  0  0  0  0  0  0  0  0  0
  2  3  1  0
  2  1  1  6
  3  4  1  0
  4  8  1  0
  5  4  2  0
  5  6  1  0
  6  7  1  0
  8  7  2  0
  9 10  2  0
  9  2  1  0
 11  9  1  0
 12 11  1  0
 13 14  1  0
 12 13  1  1
 14 18  1  0
 15 14  2  0
 15 16  1  0
 16 17  1  0
 18 17  2  0
 19 12  1  0
 19 26  1  0
 20 19  2  0
 22 21  1  6
 22 23  1  0
 24 22  1  0
 25 26  1  0
 25 24  1  6
 27 28  1  0
 27 25  1  0
 29 27  2  0
M  END
$$$$
