HHL.pdb
     RDKit          3D

 29 30  0  0  1  0  0  0  0  0999 V2000
   18.8810   -9.5964  -14.6256 N   0  0  0  0  0  0  0  0  0  0  0  0
   19.2390   -9.2834  -13.2569 C   0  0  1  0  0  0  0  0  0  0  0  0
   20.2523   -8.1617  -13.2783 C   0  0  0  0  0  0  0  0  0  0  0  0
   21.4896   -8.6707  -13.9056 C   0  0  0  0  0  0  0  0  0  0  0  0
   22.0408   -8.2915  -15.1101 C   0  0  0  0  0  0  0  0  0  0  0  0
   23.1707   -9.0023  -15.3074 N   0  0  0  0  0  0  0  0  0  0  0  0
   23.2920   -9.7939  -14.2365 C   0  0  0  0  0  0  0  0  0  0  0  0
   22.2807   -9.6116  -13.3669 N   0  0  0  0  0  0  0  0  0  0  0  0
   18.0073   -8.8856  -12.5074 C   0  0  0  0  0  0  0  0  0  0  0  0
   17.2156   -8.0468  -13.0100 O   0  0  0  0  0  0  0  0  0  0  0  0
   17.7313   -9.4622  -11.2154 N   0  0  0  0  0  0  0  0  0  0  0  0
   16.4799   -9.1099  -10.6095 C   0  0  1  0  0  0  0  0  0  0  0  0
   15.8063  -10.2333   -9.8868 C   0  0  0  0  0  0  0  0  0  0  0  0
   15.2626  -11.2815  -10.7464 C   0  0  0  0  0  0  0  0  0  0  0  0
   15.1749  -11.4569  -12.0934 C   0  0  0  0  0  0  0  0  0  0  0  0
   14.5838  -12.6445  -12.3668 N   0  0  0  0  0  0  0  0  0  0  0  0
   14.3030  -13.2106  -11.2027 C   0  0  0  0  0  0  0  0  0  0  0  0
   14.7014  -12.4110  -10.2149 N   0  0  0  0  0  0  0  0  0  0  0  0
   16.6062   -7.9293   -9.7136 C   0  0  0  0  0  0  0  0  0  0  0  0
   17.5800   -7.6857   -8.9735 O   0  0  0  0  0  0  0  0  0  0  0  0
   14.6781   -2.8272   -9.0253 C   0  0  0  0  0  0  0  0  0  0  0  0
   16.0904   -3.2929   -9.4036 C   0  0  2  0  0  0  0  0  0  0  0  0
   16.6484   -2.2977  -10.3701 C   0  0  0  0  0  0  0  0  0  0  0  0
   15.9831   -4.6762   -9.9585 C   0  0  0  0  0  0  0  0  0  0  0  0
   15.6549   -5.7360   -8.9336 C   0  0  2  0  0  0  0  0  0  0  0  0
   15.5343   -6.9956   -9.6917 N   0  0  0  0  0  0  0  0  0  0  0  0
   14.4564   -5.4678   -8.1478 C   0  0  0  0  0  0  0  0  0  0  0  0
   14.5050   -4.7180   -6.9917 O   0  0  0  0  0  0  0  0  0  0  0  0
   13.3500   -5.9223   -8.5178 O   0  0  0  0  0  0  0  0  0  0  0  0
  2  3  1  0
  2  1  1  6
  3  4  1  0
  4  8  1  0
  5  4  2  0
  5  6  1  0
  6  7  1  0
  8  7  2  0
  9 10  2  0
  9  2  1  0
 11  9  1  0
 12 11  1  0
 13 14  1  0
 12 13  1  1
 14 18  1  0
 15 14  2  0
 15 16  1  0
 16 17  1  0
 18 17  2  0
 19 12  1  0
 19 26  1  0
 20 19  2  0
 22 21  1  6
 22 23  1  0
 24 22  1  0
 25 26  1  0
 25 24  1  6
 27 28  1  0
 27 25  1  0
 29 27  2  0
M  END
$$$$
