YLP.pdb
     RDKit          3D

 28 29  0  0  1  0  0  0  0  0999 V2000
   26.4891  -14.6113  -21.3885 O   0  0  0  0  0  0  0  0  0  0  0  0
   26.2493  -15.6730  -20.5189 C   0  0  0  0  0  0  0  0  0  0  0  0
   26.1072  -15.4795  -19.1600 C   0  0  0  0  0  0  0  0  0  0  0  0
   25.8694  -16.5309  -18.2953 C   0  0  0  0  0  0  0  0  0  0  0  0
   25.7697  -17.8109  -18.7931 C   0  0  0  0  0  0  0  0  0  0  0  0
   25.5144  -18.9364  -17.8632 C   0  0  0  0  0  0  0  0  0  0  0  0
   26.8389  -19.3219  -17.1994 C   0  0  2  0  0  0  0  0  0  0  0  0
   27.6687  -20.0153  -18.1378 N   0  0  0  0  0  0  0  0  0  0  0  0
   26.4998  -20.2200  -16.0741 C   0  0  0  0  0  0  0  0  0  0  0  0
   26.0685  -21.3719  -16.3694 O   0  0  0  0  0  0  0  0  0  0  0  0
   25.9094  -18.0220  -20.1507 C   0  0  0  0  0  0  0  0  0  0  0  0
   26.1487  -16.9551  -21.0108 C   0  0  0  0  0  0  0  0  0  0  0  0
   25.5277  -20.9603  -10.5001 C   0  0  0  0  0  0  0  0  0  0  0  0
   26.7723  -21.3200  -11.2356 C   0  0  2  0  0  0  0  0  0  0  0  0
   27.9932  -20.9640  -10.3387 C   0  0  0  0  0  0  0  0  0  0  0  0
   27.0471  -20.7233  -12.5361 C   0  0  0  0  0  0  0  0  0  0  0  0
   26.1653  -20.8182  -13.7081 C   0  0  2  0  0  0  0  0  0  0  0  0
   26.6389  -19.8426  -14.7286 N   0  0  0  0  0  0  0  0  0  0  0  0
   24.7491  -20.5651  -13.4791 C   0  0  0  0  0  0  0  0  0  0  0  0
   24.3454  -19.3179  -13.4576 O   0  0  0  0  0  0  0  0  0  0  0  0
   23.6998  -21.4713  -13.2669 N   0  0  0  0  0  0  0  0  0  0  0  0
   23.5551  -22.8909  -13.1166 C   0  0  0  0  0  0  0  0  0  0  0  0
   22.4835  -23.1544  -14.2003 C   0  0  0  0  0  0  0  0  0  0  0  0
   21.4731  -22.0756  -13.8597 C   0  0  0  0  0  0  0  0  0  0  0  0
   22.2721  -21.0209  -13.1383 C   0  0  1  0  0  0  0  0  0  0  0  0
   21.9966  -20.9397  -11.6953 C   0  0  0  0  0  0  0  0  0  0  0  0
   22.7273  -21.4443  -10.8014 O   0  0  0  0  0  0  0  0  0  0  0  0
   20.8590  -20.2684  -11.2207 O   0  0  0  0  0  0  0  0  0  0  0  0
  2  1  1  0
  3  2  2  0
  4  3  1  0
  5  4  2  0
  5 11  1  0
  6  5  1  0
  7  6  1  0
  7  8  1  6
  9 18  1  0
  9  7  1  0
 10  9  2  0
 11 12  2  0
 12  2  1  0
 14 13  1  1
 14 15  1  0
 17 16  1  1
 16 14  1  0
 17 18  1  0
 19 17  1  0
 20 19  2  0
 21 19  1  0
 21 22  1  0
 23 22  1  0
 24 25  1  0
 24 23  1  0
 25 21  1  0
 25 26  1  1
 27 26  2  0
 28 26  1  0
M  END
$$$$
