YLP.pdb
     RDKit          3D

 28 29  0  0  1  0  0  0  0  0999 V2000
   19.7951  -14.7923  -17.1018 O   0  0  0  0  0  0  0  0  0  0  0  0
   19.0860  -13.7052  -16.5958 C   0  0  0  0  0  0  0  0  0  0  0  0
   19.5177  -13.0118  -15.4835 C   0  0  0  0  0  0  0  0  0  0  0  0
   18.8160  -11.9333  -14.9796 C   0  0  0  0  0  0  0  0  0  0  0  0
   17.6528  -11.5309  -15.5969 C   0  0  0  0  0  0  0  0  0  0  0  0
   16.9026  -10.3736  -15.0542 C   0  0  0  0  0  0  0  0  0  0  0  0
   15.9985  -10.8733  -13.9245 C   0  0  2  0  0  0  0  0  0  0  0  0
   14.9591  -11.6978  -14.4628 N   0  0  0  0  0  0  0  0  0  0  0  0
   15.4075   -9.6719  -13.2959 C   0  0  0  0  0  0  0  0  0  0  0  0
   14.3580   -9.2049  -13.8255 O   0  0  0  0  0  0  0  0  0  0  0  0
   17.2066  -12.2138  -16.7113 C   0  0  0  0  0  0  0  0  0  0  0  0
   17.9221  -13.2983  -17.2088 C   0  0  0  0  0  0  0  0  0  0  0  0
   15.5148   -6.6545   -7.9148 C   0  0  0  0  0  0  0  0  0  0  0  0
   14.9519   -6.7776   -9.2886 C   0  0  2  0  0  0  0  0  0  0  0  0
   13.4085   -6.9400   -9.1743 C   0  0  0  0  0  0  0  0  0  0  0  0
   15.4007   -7.8514  -10.1652 C   0  0  0  0  0  0  0  0  0  0  0  0
   15.2347   -7.8699  -11.6254 C   0  0  2  0  0  0  0  0  0  0  0  0
   15.9607   -9.0538  -12.1627 N   0  0  0  0  0  0  0  0  0  0  0  0
   15.7066   -6.6968  -12.3489 C   0  0  0  0  0  0  0  0  0  0  0  0
   16.9450   -6.6999  -12.7794 O   0  0  0  0  0  0  0  0  0  0  0  0
   15.0294   -5.5125  -12.6747 N   0  0  0  0  0  0  0  0  0  0  0  0
   13.7252   -4.9562  -12.4542 C   0  0  0  0  0  0  0  0  0  0  0  0
   13.3406   -4.6210  -13.9143 C   0  0  0  0  0  0  0  0  0  0  0  0
   14.5938   -3.8998  -14.3728 C   0  0  0  0  0  0  0  0  0  0  0  0
   15.6815   -4.4137  -13.4652 C   0  0  1  0  0  0  0  0  0  0  0  0
   16.1591   -3.4294  -12.4815 C   0  0  0  0  0  0  0  0  0  0  0  0
   15.8032   -3.3998  -11.2732 O   0  0  0  0  0  0  0  0  0  0  0  0
   17.0735   -2.4316  -12.8537 O   0  0  0  0  0  0  0  0  0  0  0  0
  2  1  1  0
  3  2  2  0
  4  3  1  0
  5  4  2  0
  5 11  1  0
  6  5  1  0
  7  6  1  0
  7  8  1  6
  9 18  1  0
  9  7  1  0
 10  9  2  0
 11 12  2  0
 12  2  1  0
 14 13  1  1
 14 15  1  0
 17 16  1  1
 16 14  1  0
 17 18  1  0
 19 17  1  0
 20 19  2  0
 21 19  1  0
 21 22  1  0
 23 22  1  0
 24 25  1  0
 24 23  1  0
 25 21  1  0
 25 26  1  1
 27 26  2  0
 28 26  1  0
M  END
$$$$
