YLP.pdb
     RDKit          3D

 28 29  0  0  1  0  0  0  0  0999 V2000
   16.5480  -23.9183  -13.9208 O   0  0  0  0  0  0  0  0  0  0  0  0
   17.7115  -23.1545  -13.8603 C   0  0  0  0  0  0  0  0  0  0  0  0
   18.9615  -23.7382  -13.8277 C   0  0  0  0  0  0  0  0  0  0  0  0
   20.1170  -22.9828  -13.7677 C   0  0  0  0  0  0  0  0  0  0  0  0
   20.0300  -21.6088  -13.7393 C   0  0  0  0  0  0  0  0  0  0  0  0
   21.2712  -20.8014  -13.6751 C   0  0  0  0  0  0  0  0  0  0  0  0
   22.0123  -21.1602  -12.3846 C   0  0  2  0  0  0  0  0  0  0  0  0
   21.3238  -20.6051  -11.2587 N   0  0  0  0  0  0  0  0  0  0  0  0
   23.3594  -20.5588  -12.4920 C   0  0  0  0  0  0  0  0  0  0  0  0
   23.4675  -19.3358  -12.1875 O   0  0  0  0  0  0  0  0  0  0  0  0
   18.7867  -21.0085  -13.7713 C   0  0  0  0  0  0  0  0  0  0  0  0
   17.6307  -21.7802  -13.8316 C   0  0  0  0  0  0  0  0  0  0  0  0
   29.2702  -21.8927  -11.9442 C   0  0  0  0  0  0  0  0  0  0  0  0
   28.2371  -20.9125  -12.3816 C   0  0  2  0  0  0  0  0  0  0  0  0
   28.3137  -19.6690  -11.4490 C   0  0  0  0  0  0  0  0  0  0  0  0
   26.8330  -21.3003  -12.4124 C   0  0  0  0  0  0  0  0  0  0  0  0
   25.7592  -20.5220  -13.0460 C   0  0  2  0  0  0  0  0  0  0  0  0
   24.4873  -21.2841  -12.9090 N   0  0  0  0  0  0  0  0  0  0  0  0
   25.9327  -20.2022  -14.4566 C   0  0  0  0  0  0  0  0  0  0  0  0
   25.2476  -20.8984  -15.3312 O   0  0  0  0  0  0  0  0  0  0  0  0
   26.7464  -19.2336  -15.0624 N   0  0  0  0  0  0  0  0  0  0  0  0
   27.7167  -18.2655  -14.6379 C   0  0  0  0  0  0  0  0  0  0  0  0
   27.1155  -16.9986  -15.2904 C   0  0  0  0  0  0  0  0  0  0  0  0
   26.8612  -17.5050  -16.6974 C   0  0  0  0  0  0  0  0  0  0  0  0
   26.7356  -18.9991  -16.5464 C   0  0  1  0  0  0  0  0  0  0  0  0
   27.8744  -19.7565  -17.0890 C   0  0  0  0  0  0  0  0  0  0  0  0
   28.1117  -19.9028  -18.3177 O   0  0  0  0  0  0  0  0  0  0  0  0
   28.7928  -20.3807  -16.2304 O   0  0  0  0  0  0  0  0  0  0  0  0
  2  1  1  0
  3  2  2  0
  4  3  1  0
  5  4  2  0
  5 11  1  0
  6  5  1  0
  7  6  1  0
  7  8  1  1
  9 18  1  0
  9  7  1  0
 10  9  2  0
 11 12  2  0
 12  2  1  0
 14 13  1  1
 14 15  1  0
 17 16  1  6
 16 14  1  0
 17 18  1  0
 19 17  1  0
 20 19  2  0
 21 19  1  0
 21 22  1  0
 23 22  1  0
 24 25  1  0
 24 23  1  0
 25 21  1  0
 25 26  1  6
 27 26  2  0
 28 26  1  0
M  END
$$$$
