YLP.pdb
     RDKit          3D

 28 29  0  0  1  0  0  0  0  0999 V2000
   18.7663  -22.4085  -13.2422 O   0  0  0  0  0  0  0  0  0  0  0  0
   20.0511  -22.1375  -12.7768 C   0  0  0  0  0  0  0  0  0  0  0  0
   21.1381  -22.1040  -13.6264 C   0  0  0  0  0  0  0  0  0  0  0  0
   22.4135  -21.8355  -13.1673 C   0  0  0  0  0  0  0  0  0  0  0  0
   22.6165  -21.5934  -11.8270 C   0  0  0  0  0  0  0  0  0  0  0  0
   23.9856  -21.3055  -11.3378 C   0  0  0  0  0  0  0  0  0  0  0  0
   23.9672  -19.9501  -10.6264 C   0  0  2  0  0  0  0  0  0  0  0  0
   23.6999  -18.9089  -11.5720 N   0  0  0  0  0  0  0  0  0  0  0  0
   25.3140  -19.7621  -10.0444 C   0  0  0  0  0  0  0  0  0  0  0  0
   26.1804  -19.1987  -10.7737 O   0  0  0  0  0  0  0  0  0  0  0  0
   21.5395  -21.6231  -10.9631 C   0  0  0  0  0  0  0  0  0  0  0  0
   20.2602  -21.8946  -11.4377 C   0  0  0  0  0  0  0  0  0  0  0  0
   28.3503  -20.4484   -4.7151 C   0  0  0  0  0  0  0  0  0  0  0  0
   28.2804  -19.7571   -6.0328 C   0  0  2  0  0  0  0  0  0  0  0  0
   28.5090  -18.2352   -5.8018 C   0  0  0  0  0  0  0  0  0  0  0  0
   27.0750  -19.8592   -6.8449 C   0  0  0  0  0  0  0  0  0  0  0  0
   27.0545  -19.9510   -8.3117 C   0  0  2  0  0  0  0  0  0  0  0  0
   25.6482  -20.1781   -8.7454 N   0  0  0  0  0  0  0  0  0  0  0  0
   27.8752  -20.9955   -8.9098 C   0  0  0  0  0  0  0  0  0  0  0  0
   27.3122  -22.1552   -9.1489 O   0  0  0  0  0  0  0  0  0  0  0  0
   29.2256  -20.9678   -9.2877 N   0  0  0  0  0  0  0  0  0  0  0  0
   30.2986  -20.0152   -9.2740 C   0  0  0  0  0  0  0  0  0  0  0  0
   30.7237  -20.0882  -10.7593 C   0  0  0  0  0  0  0  0  0  0  0  0
   30.8163  -21.5904  -10.9480 C   0  0  0  0  0  0  0  0  0  0  0  0
   29.9090  -22.1629   -9.8896 C   0  0  1  0  0  0  0  0  0  0  0  0
   30.6179  -22.8287   -8.7855 C   0  0  0  0  0  0  0  0  0  0  0  0
   30.6775  -22.3854   -7.6076 O   0  0  0  0  0  0  0  0  0  0  0  0
   31.2920  -24.0417   -8.9962 O   0  0  0  0  0  0  0  0  0  0  0  0
  2  1  1  0
  3  2  2  0
  4  3  1  0
  5  4  2  0
  5 11  1  0
  6  5  1  0
  7  6  1  0
  7  8  1  6
  9 18  1  0
  9  7  1  0
 10  9  2  0
 11 12  2  0
 12  2  1  0
 14 13  1  1
 14 15  1  0
 17 16  1  1
 16 14  1  0
 17 18  1  0
 19 17  1  0
 20 19  2  0
 21 19  1  0
 21 22  1  0
 23 22  1  0
 24 25  1  0
 24 23  1  0
 25 21  1  0
 25 26  1  1
 27 26  2  0
 28 26  1  0
M  END
$$$$
