YLP.pdb
     RDKit          3D

 28 29  0  0  1  0  0  0  0  0999 V2000
   16.3429  -15.5270  -22.7703 O   0  0  0  0  0  0  0  0  0  0  0  0
   16.9076  -14.8775  -21.6748 C   0  0  0  0  0  0  0  0  0  0  0  0
   16.1734  -14.5962  -20.5408 C   0  0  0  0  0  0  0  0  0  0  0  0
   16.7312  -13.9521  -19.4529 C   0  0  0  0  0  0  0  0  0  0  0  0
   18.0553  -13.5763  -19.4911 C   0  0  0  0  0  0  0  0  0  0  0  0
   18.6507  -12.8859  -18.3226 C   0  0  0  0  0  0  0  0  0  0  0  0
   19.8570  -13.6993  -17.8463 C   0  0  2  0  0  0  0  0  0  0  0  0
   19.4112  -14.9015  -17.2092 N   0  0  0  0  0  0  0  0  0  0  0  0
   20.5756  -12.8532  -16.8688 C   0  0  0  0  0  0  0  0  0  0  0  0
   20.1272  -12.8361  -15.6861 O   0  0  0  0  0  0  0  0  0  0  0  0
   18.8045  -13.8503  -20.6184 C   0  0  0  0  0  0  0  0  0  0  0  0
   18.2313  -14.4993  -21.7073 C   0  0  0  0  0  0  0  0  0  0  0  0
   24.7758  -12.7434  -14.6019 C   0  0  0  0  0  0  0  0  0  0  0  0
   24.6474  -12.2506  -16.0019 C   0  0  2  0  0  0  0  0  0  0  0  0
   26.0472  -11.7713  -16.4841 C   0  0  0  0  0  0  0  0  0  0  0  0
   23.7274  -11.1633  -16.3089 C   0  0  0  0  0  0  0  0  0  0  0  0
   22.2691  -11.2215  -16.1360 C   0  0  2  0  0  0  0  0  0  0  0  0
   21.7067  -12.0920  -17.2053 N   0  0  0  0  0  0  0  0  0  0  0  0
   21.5573   -9.9512  -16.1809 C   0  0  0  0  0  0  0  0  0  0  0  0
   21.0594   -9.5685  -17.3319 O   0  0  0  0  0  0  0  0  0  0  0  0
   21.3059   -9.0282  -15.1553 N   0  0  0  0  0  0  0  0  0  0  0  0
   21.6330   -8.8913  -13.7649 C   0  0  0  0  0  0  0  0  0  0  0  0
   20.2122   -8.6930  -13.1867 C   0  0  0  0  0  0  0  0  0  0  0  0
   19.6768   -7.6284  -14.1251 C   0  0  0  0  0  0  0  0  0  0  0  0
   20.4912   -7.7864  -15.3832 C   0  0  1  0  0  0  0  0  0  0  0  0
   21.4563   -6.7003  -15.6153 C   0  0  0  0  0  0  0  0  0  0  0  0
   22.7047   -6.8188  -15.4929 O   0  0  0  0  0  0  0  0  0  0  0  0
   21.0179   -5.4238  -16.0010 O   0  0  0  0  0  0  0  0  0  0  0  0
  2  1  1  0
  3  2  2  0
  4  3  1  0
  5  4  2  0
  5 11  1  0
  6  5  1  0
  7  6  1  0
  7  8  1  1
  9 18  1  0
  9  7  1  0
 10  9  2  0
 11 12  2  0
 12  2  1  0
 14 13  1  1
 14 15  1  0
 17 16  1  6
 16 14  1  0
 17 18  1  0
 19 17  1  0
 20 19  2  0
 21 19  1  0
 21 22  1  0
 23 22  1  0
 24 25  1  0
 24 23  1  0
 25 21  1  0
 25 26  1  1
 27 26  2  0
 28 26  1  0
M  END
$$$$
