YLP.pdb
     RDKit          3D

 28 29  0  0  1  0  0  0  0  0999 V2000
   21.9943  -24.8718  -16.9201 O   0  0  0  0  0  0  0  0  0  0  0  0
   23.1877  -25.5311  -17.2064 C   0  0  0  0  0  0  0  0  0  0  0  0
   23.4473  -26.8003  -16.7311 C   0  0  0  0  0  0  0  0  0  0  0  0
   24.6302  -27.4564  -17.0138 C   0  0  0  0  0  0  0  0  0  0  0  0
   25.5829  -26.8354  -17.7903 C   0  0  0  0  0  0  0  0  0  0  0  0
   26.8505  -27.5418  -18.0918 C   0  0  0  0  0  0  0  0  0  0  0  0
   27.6995  -27.5713  -16.8182 C   0  0  2  0  0  0  0  0  0  0  0  0
   28.1770  -26.2544  -16.5222 N   0  0  0  0  0  0  0  0  0  0  0  0
   28.8438  -28.4665  -17.0961 C   0  0  0  0  0  0  0  0  0  0  0  0
   29.9590  -27.9166  -17.3282 O   0  0  0  0  0  0  0  0  0  0  0  0
   25.3391  -25.5652  -18.2741 C   0  0  0  0  0  0  0  0  0  0  0  0
   24.1441  -24.9153  -17.9824 C   0  0  0  0  0  0  0  0  0  0  0  0
   30.4715  -34.3357  -16.1093 C   0  0  0  0  0  0  0  0  0  0  0  0
   30.7854  -33.0372  -16.7685 C   0  0  2  0  0  0  0  0  0  0  0  0
   32.1851  -32.5640  -16.2800 C   0  0  0  0  0  0  0  0  0  0  0  0
   29.8959  -31.8971  -16.5904 C   0  0  0  0  0  0  0  0  0  0  0  0
   29.9852  -30.6357  -17.3394 C   0  0  2  0  0  0  0  0  0  0  0  0
   28.7313  -29.8663  -17.1088 N   0  0  0  0  0  0  0  0  0  0  0  0
   30.1771  -30.7461  -18.7793 C   0  0  0  0  0  0  0  0  0  0  0  0
   29.1283  -30.5912  -19.5506 O   0  0  0  0  0  0  0  0  0  0  0  0
   31.3461  -31.0032  -19.5104 N   0  0  0  0  0  0  0  0  0  0  0  0
   32.7316  -31.2409  -19.2223 C   0  0  0  0  0  0  0  0  0  0  0  0
   33.3696  -30.1640  -20.1310 C   0  0  0  0  0  0  0  0  0  0  0  0
   32.6320  -30.4249  -21.4304 C   0  0  0  0  0  0  0  0  0  0  0  0
   31.3452  -31.0873  -21.0105 C   0  0  1  0  0  0  0  0  0  0  0  0
   31.2702  -32.5192  -21.3404 C   0  0  0  0  0  0  0  0  0  0  0  0
   30.9559  -32.9736  -22.4727 O   0  0  0  0  0  0  0  0  0  0  0  0
   31.5569  -33.4928  -20.3707 O   0  0  0  0  0  0  0  0  0  0  0  0
  2  1  1  0
  3  2  2  0
  4  3  1  0
  5  4  2  0
  5 11  1  0
  6  5  1  0
  7  6  1  0
  7  8  1  6
  9 18  1  0
  9  7  1  0
 10  9  2  0
 11 12  2  0
 12  2  1  0
 14 13  1  1
 14 15  1  0
 17 16  1  6
 16 14  1  0
 17 18  1  0
 19 17  1  0
 20 19  2  0
 21 19  1  0
 21 22  1  0
 23 22  1  0
 24 25  1  0
 24 23  1  0
 25 21  1  0
 25 26  1  1
 27 26  2  0
 28 26  1  0
M  END
$$$$
