YLP.pdb
     RDKit          3D

 28 29  0  0  1  0  0  0  0  0999 V2000
   17.0497  -24.6778  -16.7754 O   0  0  0  0  0  0  0  0  0  0  0  0
   18.0800  -23.7686  -16.5461 C   0  0  0  0  0  0  0  0  0  0  0  0
   19.2848  -24.1605  -15.9990 C   0  0  0  0  0  0  0  0  0  0  0  0
   20.3083  -23.2607  -15.7705 C   0  0  0  0  0  0  0  0  0  0  0  0
   20.1316  -21.9340  -16.0942 C   0  0  0  0  0  0  0  0  0  0  0  0
   21.2314  -20.9713  -15.8481 C   0  0  0  0  0  0  0  0  0  0  0  0
   21.2928  -20.6849  -14.3455 C   0  0  2  0  0  0  0  0  0  0  0  0
   20.3347  -19.6775  -14.0035 N   0  0  0  0  0  0  0  0  0  0  0  0
   22.6586  -20.1899  -14.0671 C   0  0  0  0  0  0  0  0  0  0  0  0
   22.8663  -18.9538  -14.2368 O   0  0  0  0  0  0  0  0  0  0  0  0
   18.9320  -21.5249  -16.6427 C   0  0  0  0  0  0  0  0  0  0  0  0
   17.9092  -22.4406  -16.8677 C   0  0  0  0  0  0  0  0  0  0  0  0
   24.7546  -19.7037  -10.2017 C   0  0  0  0  0  0  0  0  0  0  0  0
   25.0404  -20.9910  -10.8948 C   0  0  2  0  0  0  0  0  0  0  0  0
   26.0008  -21.8276  -10.0006 C   0  0  0  0  0  0  0  0  0  0  0  0
   25.6386  -20.9849  -12.2233 C   0  0  0  0  0  0  0  0  0  0  0  0
   25.0266  -20.3870  -13.4184 C   0  0  2  0  0  0  0  0  0  0  0  0
   23.6992  -21.0268  -13.6327 N   0  0  0  0  0  0  0  0  0  0  0  0
   25.7781  -20.5020  -14.6611 C   0  0  0  0  0  0  0  0  0  0  0  0
   25.2993  -21.2867  -15.5959 O   0  0  0  0  0  0  0  0  0  0  0  0
   26.9811  -19.8890  -15.0409 N   0  0  0  0  0  0  0  0  0  0  0  0
   27.9703  -19.0510  -14.4259 C   0  0  0  0  0  0  0  0  0  0  0  0
   27.9987  -17.8943  -15.4523 C   0  0  0  0  0  0  0  0  0  0  0  0
   28.1166  -18.6752  -16.7473 C   0  0  0  0  0  0  0  0  0  0  0  0
   27.5456  -20.0322  -16.4259 C   0  0  1  0  0  0  0  0  0  0  0  0
   28.5500  -21.1048  -16.3499 C   0  0  0  0  0  0  0  0  0  0  0  0
   28.8613  -21.7151  -15.2925 O   0  0  0  0  0  0  0  0  0  0  0  0
   29.2413  -21.5204  -17.4986 O   0  0  0  0  0  0  0  0  0  0  0  0
  2  1  1  0
  3  2  2  0
  4  3  1  0
  5  4  2  0
  5 11  1  0
  6  5  1  0
  7  6  1  0
  7  8  1  6
  9 18  1  0
  9  7  1  0
 10  9  2  0
 11 12  2  0
 12  2  1  0
 14 13  1  1
 14 15  1  0
 17 16  1  1
 16 14  1  0
 17 18  1  0
 19 17  1  0
 20 19  2  0
 21 19  1  0
 21 22  1  0
 23 22  1  0
 24 25  1  0
 24 23  1  0
 25 21  1  0
 25 26  1  1
 27 26  2  0
 28 26  1  0
M  END
$$$$
