YLP.pdb
     RDKit          3D

 28 29  0  0  1  0  0  0  0  0999 V2000
   17.3082  -25.0609  -17.1257 O   0  0  0  0  0  0  0  0  0  0  0  0
   18.2492  -24.0990  -16.7650 C   0  0  0  0  0  0  0  0  0  0  0  0
   18.0537  -22.7586  -17.0285 C   0  0  0  0  0  0  0  0  0  0  0  0
   18.9855  -21.8026  -16.6717 C   0  0  0  0  0  0  0  0  0  0  0  0
   20.1444  -22.1874  -16.0353 C   0  0  0  0  0  0  0  0  0  0  0  0
   21.1418  -21.1596  -15.6537 C   0  0  0  0  0  0  0  0  0  0  0  0
   21.2391  -21.1272  -14.1263 C   0  0  2  0  0  0  0  0  0  0  0  0
   20.1879  -20.3168  -13.5897 N   0  0  0  0  0  0  0  0  0  0  0  0
   22.5499  -20.5242  -13.8009 C   0  0  0  0  0  0  0  0  0  0  0  0
   22.6149  -19.2610  -13.7965 O   0  0  0  0  0  0  0  0  0  0  0  0
   20.3557  -23.5249  -15.7640 C   0  0  0  0  0  0  0  0  0  0  0  0
   19.4099  -24.4778  -16.1283 C   0  0  0  0  0  0  0  0  0  0  0  0
   24.8211  -19.8835  -10.0834 C   0  0  0  0  0  0  0  0  0  0  0  0
   25.1504  -21.1638  -10.7703 C   0  0  2  0  0  0  0  0  0  0  0  0
   26.2281  -21.9088   -9.9304 C   0  0  0  0  0  0  0  0  0  0  0  0
   25.6535  -21.1473  -12.1376 C   0  0  0  0  0  0  0  0  0  0  0  0
   24.9579  -20.5427  -13.2824 C   0  0  2  0  0  0  0  0  0  0  0  0
   23.6894  -21.2900  -13.5054 N   0  0  0  0  0  0  0  0  0  0  0  0
   25.6834  -20.5175  -14.5454 C   0  0  0  0  0  0  0  0  0  0  0  0
   25.2204  -21.2458  -15.5324 O   0  0  0  0  0  0  0  0  0  0  0  0
   26.8457  -19.8157  -14.8973 N   0  0  0  0  0  0  0  0  0  0  0  0
   27.7750  -18.9351  -14.2495 C   0  0  0  0  0  0  0  0  0  0  0  0
   27.7331  -17.7470  -15.2389 C   0  0  0  0  0  0  0  0  0  0  0  0
   27.9081  -18.4771  -16.5569 C   0  0  0  0  0  0  0  0  0  0  0  0
   27.4253  -19.8780  -16.2822 C   0  0  1  0  0  0  0  0  0  0  0  0
   28.4971  -20.8848  -16.2327 C   0  0  0  0  0  0  0  0  0  0  0  0
   28.8666  -21.4806  -15.1858 O   0  0  0  0  0  0  0  0  0  0  0  0
   29.1916  -21.2483  -17.3971 O   0  0  0  0  0  0  0  0  0  0  0  0
  2  1  1  0
  3  2  2  0
  4  3  1  0
  5  4  2  0
  5 11  1  0
  6  5  1  0
  7  6  1  0
  7  8  1  1
  9 18  1  0
  9  7  1  0
 10  9  2  0
 11 12  2  0
 12  2  1  0
 14 13  1  1
 14 15  1  0
 17 16  1  1
 16 14  1  0
 17 18  1  0
 19 17  1  0
 20 19  2  0
 21 19  1  0
 21 22  1  0
 23 22  1  0
 24 25  1  0
 24 23  1  0
 25 21  1  0
 25 26  1  1
 27 26  2  0
 28 26  1  0
M  END
$$$$
