EPY.pdb
     RDKit          3D

 29 30  0  0  1  0  0  0  0  0999 V2000
   20.3846  -12.7640  -17.9875 N   0  0  0  0  0  0  0  0  0  0  0  0
   20.1857  -11.3987  -18.5507 C   0  0  1  0  0  0  0  0  0  0  0  0
   18.7238  -11.1063  -18.2786 C   0  0  0  0  0  0  0  0  0  0  0  0
   18.2618  -11.4679  -16.9034 C   0  0  0  0  0  0  0  0  0  0  0  0
   18.0273  -10.2563  -16.0693 C   0  0  0  0  0  0  0  0  0  0  0  0
   19.0121   -9.5618  -15.7364 O   0  0  0  0  0  0  0  0  0  0  0  0
   21.1141  -10.4656  -17.8923 C   0  0  0  0  0  0  0  0  0  0  0  0
   21.7288  -10.9331  -16.8700 O   0  0  0  0  0  0  0  0  0  0  0  0
   16.7693   -9.8772  -15.6543 O   0  0  0  0  0  0  0  0  0  0  0  0
   21.3863   -9.1365  -18.2762 N   0  0  0  0  0  0  0  0  0  0  0  0
   20.8514   -8.4377  -19.4249 C   0  0  0  0  0  0  0  0  0  0  0  0
   21.8480   -7.3428  -19.7397 C   0  0  0  0  0  0  0  0  0  0  0  0
   22.9327   -7.5301  -18.7209 C   0  0  0  0  0  0  0  0  0  0  0  0
   22.2855   -8.2270  -17.5745 C   0  0  1  0  0  0  0  0  0  0  0  0
   21.5506   -7.3344  -16.6475 C   0  0  0  0  0  0  0  0  0  0  0  0
   20.3315   -7.0650  -16.8168 O   0  0  0  0  0  0  0  0  0  0  0  0
   18.4317   -5.1855   -8.8647 O   0  0  0  0  0  0  0  0  0  0  0  0
   19.1749   -5.6501   -9.9648 C   0  0  0  0  0  0  0  0  0  0  0  0
   20.5485   -5.6643   -9.9440 C   0  0  0  0  0  0  0  0  0  0  0  0
   21.3075   -6.1173  -11.0139 C   0  0  0  0  0  0  0  0  0  0  0  0
   20.6553   -6.5685  -12.1374 C   0  0  0  0  0  0  0  0  0  0  0  0
   21.4019   -7.0546  -13.2957 C   0  0  0  0  0  0  0  0  0  0  0  0
   21.4529   -6.0930  -14.4609 C   0  0  2  0  0  0  0  0  0  0  0  0
   22.1906   -6.7562  -15.5437 N   0  0  0  0  0  0  0  0  0  0  0  0
   22.0350   -4.7929  -14.1269 C   0  0  0  0  0  0  0  0  0  0  0  0
   21.2543   -3.7073  -13.7706 O   0  0  0  0  0  0  0  0  0  0  0  0
   19.2788   -6.5600  -12.1723 C   0  0  0  0  0  0  0  0  0  0  0  0
   18.5228   -6.1045  -11.0957 C   0  0  0  0  0  0  0  0  0  0  0  0
   23.2813   -4.6176  -14.1538 O   0  0  0  0  0  0  0  0  0  0  0  0
  2  1  1  1
  3  2  1  0
  3  4  1  0
  4  5  1  0
  5  9  1  0
  5  6  2  0
  7  2  1  0
  7  8  2  0
 10  7  1  0
 11 10  1  0
 12 13  1  0
 12 11  1  0
 13 14  1  0
 14 10  1  0
 15 16  2  0
 14 15  1  1
 18 17  1  0
 19 18  2  0
 20 19  1  0
 21 27  1  0
 21 20  2  0
 23 22  1  1
 22 21  1  0
 23 24  1  0
 24 15  1  0
 25 23  1  0
 26 25  1  0
 27 28  2  0
 28 18  1  0
 29 25  2  0
M  END
$$$$
