EPY.pdb
     RDKit          3D

 29 30  0  0  1  0  0  0  0  0999 V2000
   27.9496  -35.5403  -12.1400 N   0  0  0  0  0  0  0  0  0  0  0  0
   27.3527  -34.2948  -11.5803 C   0  0  1  0  0  0  0  0  0  0  0  0
   26.6600  -33.6612  -12.7700 C   0  0  0  0  0  0  0  0  0  0  0  0
   25.2671  -34.1479  -13.0116 C   0  0  0  0  0  0  0  0  0  0  0  0
   24.3110  -33.0159  -13.1634 C   0  0  0  0  0  0  0  0  0  0  0  0
   24.3556  -32.3342  -14.2104 O   0  0  0  0  0  0  0  0  0  0  0  0
   26.4434  -34.6489  -10.4785 C   0  0  0  0  0  0  0  0  0  0  0  0
   26.1318  -35.8892  -10.4014 O   0  0  0  0  0  0  0  0  0  0  0  0
   23.3846  -32.6963  -12.1948 O   0  0  0  0  0  0  0  0  0  0  0  0
   25.8991  -33.7701   -9.5197 N   0  0  0  0  0  0  0  0  0  0  0  0
   26.0173  -32.3280   -9.4977 C   0  0  0  0  0  0  0  0  0  0  0  0
   25.8242  -31.9226   -8.0521 C   0  0  0  0  0  0  0  0  0  0  0  0
   25.6324  -33.2226   -7.3291 C   0  0  0  0  0  0  0  0  0  0  0  0
   25.1222  -34.1760   -8.3536 C   0  0  1  0  0  0  0  0  0  0  0  0
   23.6647  -34.0860   -8.6059 C   0  0  0  0  0  0  0  0  0  0  0  0
   23.1706  -33.1604   -9.3035 O   0  0  0  0  0  0  0  0  0  0  0  0
   18.2327  -38.2786  -13.5616 O   0  0  0  0  0  0  0  0  0  0  0  0
   19.2080  -37.7195  -12.7162 C   0  0  0  0  0  0  0  0  0  0  0  0
   19.4780  -36.3725  -12.7299 C   0  0  0  0  0  0  0  0  0  0  0  0
   20.4338  -35.7935  -11.9071 C   0  0  0  0  0  0  0  0  0  0  0  0
   21.1364  -36.6031  -11.0457 C   0  0  0  0  0  0  0  0  0  0  0  0
   22.1568  -36.0500  -10.1579 C   0  0  0  0  0  0  0  0  0  0  0  0
   21.6340  -35.5550   -8.8288 C   0  0  2  0  0  0  0  0  0  0  0  0
   22.7807  -35.0336   -8.0741 N   0  0  0  0  0  0  0  0  0  0  0  0
   20.9021  -36.5688   -8.0690 C   0  0  0  0  0  0  0  0  0  0  0  0
   19.5553  -36.8115   -8.2740 O   0  0  0  0  0  0  0  0  0  0  0  0
   20.8763  -37.9552  -11.0211 C   0  0  0  0  0  0  0  0  0  0  0  0
   19.9161  -38.5302  -11.8489 C   0  0  0  0  0  0  0  0  0  0  0  0
   21.4818  -37.2618   -7.1924 O   0  0  0  0  0  0  0  0  0  0  0  0
  2  1  1  6
  3  2  1  0
  3  4  1  0
  4  5  1  0
  5  9  1  0
  5  6  2  0
  7  2  1  0
  7  8  2  0
 10  7  1  0
 11 10  1  0
 12 13  1  0
 12 11  1  0
 13 14  1  0
 14 10  1  0
 15 16  2  0
 14 15  1  6
 18 17  1  0
 19 18  2  0
 20 19  1  0
 21 27  1  0
 21 20  2  0
 23 22  1  6
 22 21  1  0
 23 24  1  0
 24 15  1  0
 25 23  1  0
 26 25  1  0
 27 28  2  0
 28 18  1  0
 29 25  2  0
M  END
$$$$
