EPY.pdb
     RDKit          3D

 29 30  0  0  1  0  0  0  0  0999 V2000
   22.6613  -17.5111  -22.0688 N   0  0  0  0  0  0  0  0  0  0  0  0
   21.8548  -16.9043  -23.1652 C   0  0  1  0  0  0  0  0  0  0  0  0
   20.4493  -17.4039  -22.8973 C   0  0  0  0  0  0  0  0  0  0  0  0
   19.5091  -17.2667  -24.0517 C   0  0  0  0  0  0  0  0  0  0  0  0
   18.1473  -17.7639  -23.7097 C   0  0  0  0  0  0  0  0  0  0  0  0
   17.2489  -17.6850  -24.5755 O   0  0  0  0  0  0  0  0  0  0  0  0
   21.9891  -15.4398  -23.1088 C   0  0  0  0  0  0  0  0  0  0  0  0
   22.0751  -14.9416  -21.9316 O   0  0  0  0  0  0  0  0  0  0  0  0
   17.8457  -18.3045  -22.4786 O   0  0  0  0  0  0  0  0  0  0  0  0
   22.0348  -14.5550  -24.2056 N   0  0  0  0  0  0  0  0  0  0  0  0
   21.9350  -14.9030  -25.6066 C   0  0  0  0  0  0  0  0  0  0  0  0
   22.6202  -13.7816  -26.3578 C   0  0  0  0  0  0  0  0  0  0  0  0
   23.1026  -12.8585  -25.2786 C   0  0  0  0  0  0  0  0  0  0  0  0
   22.2109  -13.1098  -24.1122 C   0  0  1  0  0  0  0  0  0  0  0  0
   20.9144  -12.3939  -24.1635 C   0  0  0  0  0  0  0  0  0  0  0  0
   20.8523  -11.1359  -24.1313 O   0  0  0  0  0  0  0  0  0  0  0  0
   15.7045  -17.9306  -26.3368 O   0  0  0  0  0  0  0  0  0  0  0  0
   16.2582  -16.6441  -26.2074 C   0  0  0  0  0  0  0  0  0  0  0  0
   17.5868  -16.4089  -26.4661 C   0  0  0  0  0  0  0  0  0  0  0  0
   18.1600  -15.1507  -26.3474 C   0  0  0  0  0  0  0  0  0  0  0  0
   17.3635  -14.1006  -25.9549 C   0  0  0  0  0  0  0  0  0  0  0  0
   17.9124  -12.7540  -25.8100 C   0  0  0  0  0  0  0  0  0  0  0  0
   18.4116  -12.4233  -24.4222 C   0  0  2  0  0  0  0  0  0  0  0  0
   19.7055  -13.0962  -24.2505 N   0  0  0  0  0  0  0  0  0  0  0  0
   17.4721  -12.7777  -23.3580 C   0  0  0  0  0  0  0  0  0  0  0  0
   17.8356  -13.5856  -22.2950 O   0  0  0  0  0  0  0  0  0  0  0  0
   16.0300  -14.3215  -25.6922 C   0  0  0  0  0  0  0  0  0  0  0  0
   15.4607  -15.5861  -25.8133 C   0  0  0  0  0  0  0  0  0  0  0  0
   16.2869  -12.3538  -23.3758 O   0  0  0  0  0  0  0  0  0  0  0  0
  2  1  1  1
  3  2  1  0
  3  4  1  0
  4  5  1  0
  5  9  1  0
  5  6  2  0
  7  2  1  0
  7  8  2  0
 10  7  1  0
 11 10  1  0
 12 13  1  0
 12 11  1  0
 13 14  1  0
 14 10  1  0
 15 16  2  0
 14 15  1  6
 18 17  1  0
 19 18  2  0
 20 19  1  0
 21 27  1  0
 21 20  2  0
 23 22  1  6
 22 21  1  0
 23 24  1  0
 24 15  1  0
 25 23  1  0
 26 25  1  0
 27 28  2  0
 28 18  1  0
 29 25  2  0
M  END
$$$$
