EPY.pdb
     RDKit          3D

 29 30  0  0  1  0  0  0  0  0999 V2000
   21.3541  -12.9932  -17.6461 N   0  0  0  0  0  0  0  0  0  0  0  0
   22.5083  -12.0832  -17.8922 C   0  0  1  0  0  0  0  0  0  0  0  0
   22.0853  -11.2862  -19.1098 C   0  0  0  0  0  0  0  0  0  0  0  0
   21.9458  -12.0901  -20.3627 C   0  0  0  0  0  0  0  0  0  0  0  0
   21.5979  -11.2303  -21.5281 C   0  0  0  0  0  0  0  0  0  0  0  0
   21.1370  -11.7751  -22.5546 O   0  0  0  0  0  0  0  0  0  0  0  0
   22.7401  -11.2630  -16.6924 C   0  0  0  0  0  0  0  0  0  0  0  0
   21.7137  -11.0763  -15.9487 O   0  0  0  0  0  0  0  0  0  0  0  0
   21.7659   -9.8627  -21.5136 O   0  0  0  0  0  0  0  0  0  0  0  0
   23.9602  -10.6804  -16.2928 N   0  0  0  0  0  0  0  0  0  0  0  0
   25.2591  -10.8851  -16.8970 C   0  0  0  0  0  0  0  0  0  0  0  0
   26.2692  -10.5726  -15.8138 C   0  0  0  0  0  0  0  0  0  0  0  0
   25.4309  -10.2283  -14.6187 C   0  0  0  0  0  0  0  0  0  0  0  0
   24.1259   -9.7659  -15.1683 C   0  0  1  0  0  0  0  0  0  0  0  0
   24.1092   -8.3498  -15.6046 C   0  0  0  0  0  0  0  0  0  0  0  0
   24.6832   -7.9774  -16.6626 O   0  0  0  0  0  0  0  0  0  0  0  0
   16.9341   -7.0221  -15.6470 O   0  0  0  0  0  0  0  0  0  0  0  0
   18.3010   -6.7875  -15.8816 C   0  0  0  0  0  0  0  0  0  0  0  0
   19.1300   -7.7859  -16.3326 C   0  0  0  0  0  0  0  0  0  0  0  0
   20.4816   -7.5834  -16.5732 C   0  0  0  0  0  0  0  0  0  0  0  0
   21.0083   -6.3328  -16.3497 C   0  0  0  0  0  0  0  0  0  0  0  0
   22.4251   -6.0612  -16.5828 C   0  0  0  0  0  0  0  0  0  0  0  0
   23.2680   -5.9943  -15.3298 C   0  0  2  0  0  0  0  0  0  0  0  0
   23.4500   -7.3704  -14.8507 N   0  0  0  0  0  0  0  0  0  0  0  0
   22.7105   -5.1287  -14.2902 C   0  0  0  0  0  0  0  0  0  0  0  0
   22.5747   -3.7628  -14.4653 O   0  0  0  0  0  0  0  0  0  0  0  0
   20.1892   -5.3224  -15.8976 C   0  0  0  0  0  0  0  0  0  0  0  0
   18.8339   -5.5318  -15.6583 C   0  0  0  0  0  0  0  0  0  0  0  0
   22.3319   -5.6052  -13.1882 O   0  0  0  0  0  0  0  0  0  0  0  0
  2  1  1  1
  3  2  1  0
  3  4  1  0
  4  5  1  0
  5  9  1  0
  5  6  2  0
  7  2  1  0
  7  8  2  0
 10  7  1  0
 11 10  1  0
 12 13  1  0
 12 11  1  0
 13 14  1  0
 14 10  1  0
 15 16  2  0
 14 15  1  6
 18 17  1  0
 19 18  2  0
 20 19  1  0
 21 27  1  0
 21 20  2  0
 23 22  1  6
 22 21  1  0
 23 24  1  0
 24 15  1  0
 25 23  1  0
 26 25  1  0
 27 28  2  0
 28 18  1  0
 29 25  2  0
M  END
$$$$
