EPY.pdb
     RDKit          3D

 29 30  0  0  1  0  0  0  0  0999 V2000
   22.5962  -20.3849  -14.9492 N   0  0  0  0  0  0  0  0  0  0  0  0
   23.8322  -19.7682  -15.5085 C   0  0  1  0  0  0  0  0  0  0  0  0
   23.8261  -20.2024  -16.9605 C   0  0  0  0  0  0  0  0  0  0  0  0
   22.7997  -19.5232  -17.8093 C   0  0  0  0  0  0  0  0  0  0  0  0
   23.4308  -18.7312  -18.9017 C   0  0  0  0  0  0  0  0  0  0  0  0
   23.0342  -17.5616  -19.0958 O   0  0  0  0  0  0  0  0  0  0  0  0
   23.7708  -18.3097  -15.3209 C   0  0  0  0  0  0  0  0  0  0  0  0
   22.6369  -17.8532  -14.9373 O   0  0  0  0  0  0  0  0  0  0  0  0
   24.4308  -19.2409  -19.7009 O   0  0  0  0  0  0  0  0  0  0  0  0
   24.8215  -17.3901  -15.5160 N   0  0  0  0  0  0  0  0  0  0  0  0
   26.1739  -17.6925  -15.9328 C   0  0  0  0  0  0  0  0  0  0  0  0
   27.0252  -16.5486  -15.4248 C   0  0  0  0  0  0  0  0  0  0  0  0
   26.0548  -15.6617  -14.7028 C   0  0  0  0  0  0  0  0  0  0  0  0
   24.7255  -15.9490  -15.3104 C   0  0  1  0  0  0  0  0  0  0  0  0
   24.4602  -15.2295  -16.5785 C   0  0  0  0  0  0  0  0  0  0  0  0
   24.5342  -15.8087  -17.6950 O   0  0  0  0  0  0  0  0  0  0  0  0
   16.9358  -12.4904  -19.3970 O   0  0  0  0  0  0  0  0  0  0  0  0
   18.1311  -12.8743  -18.7627 C   0  0  0  0  0  0  0  0  0  0  0  0
   19.0799  -13.6206  -19.4186 C   0  0  0  0  0  0  0  0  0  0  0  0
   20.2680  -14.0132  -18.8185 C   0  0  0  0  0  0  0  0  0  0  0  0
   20.5010  -13.6388  -17.5159 C   0  0  0  0  0  0  0  0  0  0  0  0
   21.7327  -14.0254  -16.8314 C   0  0  0  0  0  0  0  0  0  0  0  0
   22.9802  -13.3454  -17.3474 C   0  0  2  0  0  0  0  0  0  0  0  0
   24.1155  -13.8718  -16.5790 N   0  0  0  0  0  0  0  0  0  0  0  0
   22.9205  -11.8844  -17.2923 C   0  0  0  0  0  0  0  0  0  0  0  0
   22.6342  -11.1176  -18.4080 O   0  0  0  0  0  0  0  0  0  0  0  0
   19.5587  -12.8906  -16.8461 C   0  0  0  0  0  0  0  0  0  0  0  0
   18.3687  -12.4996  -17.4536 C   0  0  0  0  0  0  0  0  0  0  0  0
   23.1310  -11.2701  -16.2138 O   0  0  0  0  0  0  0  0  0  0  0  0
  2  1  1  1
  3  2  1  0
  3  4  1  0
  4  5  1  0
  5  9  1  0
  5  6  2  0
  7  2  1  0
  7  8  2  0
 10  7  1  0
 11 10  1  0
 12 13  1  0
 12 11  1  0
 13 14  1  0
 14 10  1  0
 15 16  2  0
 14 15  1  6
 18 17  1  0
 19 18  2  0
 20 19  1  0
 21 27  1  0
 21 20  2  0
 23 22  1  1
 22 21  1  0
 23 24  1  0
 24 15  1  0
 25 23  1  0
 26 25  1  0
 27 28  2  0
 28 18  1  0
 29 25  2  0
M  END
$$$$
