EPY.pdb
     RDKit          3D

 29 30  0  0  1  0  0  0  0  0999 V2000
   26.0545  -19.6786  -19.3511 N   0  0  0  0  0  0  0  0  0  0  0  0
   25.6969  -19.0560  -18.0453 C   0  0  1  0  0  0  0  0  0  0  0  0
   24.2211  -18.7421  -18.1881 C   0  0  0  0  0  0  0  0  0  0  0  0
   23.5816  -18.1822  -16.9581 C   0  0  0  0  0  0  0  0  0  0  0  0
   22.1230  -17.9542  -17.1556 C   0  0  0  0  0  0  0  0  0  0  0  0
   21.3290  -18.8673  -16.8414 O   0  0  0  0  0  0  0  0  0  0  0  0
   26.0043  -20.0014  -16.9600 C   0  0  0  0  0  0  0  0  0  0  0  0
   25.8221  -21.2379  -17.2416 O   0  0  0  0  0  0  0  0  0  0  0  0
   21.6220  -16.7782  -17.6701 O   0  0  0  0  0  0  0  0  0  0  0  0
   26.4737  -19.6797  -15.6700 N   0  0  0  0  0  0  0  0  0  0  0  0
   26.6820  -18.3546  -15.1273 C   0  0  0  0  0  0  0  0  0  0  0  0
   27.7102  -18.5182  -14.0286 C   0  0  0  0  0  0  0  0  0  0  0  0
   28.0427  -19.9806  -14.0522 C   0  0  0  0  0  0  0  0  0  0  0  0
   26.8525  -20.6494  -14.6481 C   0  0  1  0  0  0  0  0  0  0  0  0
   25.7472  -20.9025  -13.6941 C   0  0  0  0  0  0  0  0  0  0  0  0
   25.9686  -21.2177  -12.4944 O   0  0  0  0  0  0  0  0  0  0  0  0
   26.5792  -20.6601   -7.5984 O   0  0  0  0  0  0  0  0  0  0  0  0
   25.8294  -20.3749   -8.7538 C   0  0  0  0  0  0  0  0  0  0  0  0
   24.5234  -20.7833   -8.8767 C   0  0  0  0  0  0  0  0  0  0  0  0
   23.7597  -20.5159  -10.0041 C   0  0  0  0  0  0  0  0  0  0  0  0
   24.3365  -19.8146  -11.0369 C   0  0  0  0  0  0  0  0  0  0  0  0
   23.5821  -19.5062  -12.2498 C   0  0  0  0  0  0  0  0  0  0  0  0
   23.3019  -20.6973  -13.1372 C   0  0  2  0  0  0  0  0  0  0  0  0
   24.4094  -20.7989  -14.0962 N   0  0  0  0  0  0  0  0  0  0  0  0
   22.0053  -20.6369  -13.8125 C   0  0  0  0  0  0  0  0  0  0  0  0
   20.8200  -20.9153  -13.1549 O   0  0  0  0  0  0  0  0  0  0  0  0
   25.6448  -19.3989  -10.9276 C   0  0  0  0  0  0  0  0  0  0  0  0
   26.4058  -19.6701   -9.7939 C   0  0  0  0  0  0  0  0  0  0  0  0
   21.9254  -20.3259  -15.0297 O   0  0  0  0  0  0  0  0  0  0  0  0
  2  1  1  6
  3  2  1  0
  3  4  1  0
  4  5  1  0
  5  9  1  0
  5  6  2  0
  7  2  1  0
  7  8  2  0
 10  7  1  0
 11 10  1  0
 12 13  1  0
 12 11  1  0
 13 14  1  0
 14 10  1  0
 15 16  2  0
 14 15  1  1
 18 17  1  0
 19 18  2  0
 20 19  1  0
 21 27  1  0
 21 20  2  0
 23 22  1  6
 22 21  1  0
 23 24  1  0
 24 15  1  0
 25 23  1  0
 26 25  1  0
 27 28  2  0
 28 18  1  0
 29 25  2  0
M  END
$$$$
