EPY.pdb
     RDKit          3D

 29 30  0  0  1  0  0  0  0  0999 V2000
   27.6878  -21.1331  -16.4272 N   0  0  0  0  0  0  0  0  0  0  0  0
   27.6407  -20.6386  -15.0223 C   0  0  1  0  0  0  0  0  0  0  0  0
   27.7773  -19.1360  -15.1645 C   0  0  0  0  0  0  0  0  0  0  0  0
   26.6930  -18.4847  -15.9617 C   0  0  0  0  0  0  0  0  0  0  0  0
   27.2030  -17.9763  -17.2655 C   0  0  0  0  0  0  0  0  0  0  0  0
   26.7876  -18.5097  -18.3171 O   0  0  0  0  0  0  0  0  0  0  0  0
   26.3767  -21.0674  -14.4023 C   0  0  0  0  0  0  0  0  0  0  0  0
   25.5253  -21.5955  -15.2009 O   0  0  0  0  0  0  0  0  0  0  0  0
   28.1119  -16.9442  -17.3515 O   0  0  0  0  0  0  0  0  0  0  0  0
   26.0256  -20.9570  -13.0412 N   0  0  0  0  0  0  0  0  0  0  0  0
   26.7878  -20.3049  -11.9982 C   0  0  0  0  0  0  0  0  0  0  0  0
   26.3459  -20.9506  -10.7024 C   0  0  0  0  0  0  0  0  0  0  0  0
   25.3460  -21.9837  -11.1298 C   0  0  0  0  0  0  0  0  0  0  0  0
   24.8167  -21.5076  -12.4382 C   0  0  1  0  0  0  0  0  0  0  0  0
   23.7427  -20.4917  -12.3345 C   0  0  0  0  0  0  0  0  0  0  0  0
   23.9959  -19.2874  -12.0643 O   0  0  0  0  0  0  0  0  0  0  0  0
   18.9794  -16.7337  -18.2589 O   0  0  0  0  0  0  0  0  0  0  0  0
   19.7674  -17.4686  -17.3548 C   0  0  0  0  0  0  0  0  0  0  0  0
   20.5279  -16.8423  -16.3973 C   0  0  0  0  0  0  0  0  0  0  0  0
   21.3141  -17.5413  -15.4922 C   0  0  0  0  0  0  0  0  0  0  0  0
   21.3301  -18.9148  -15.5599 C   0  0  0  0  0  0  0  0  0  0  0  0
   22.1411  -19.7036  -14.6350 C   0  0  0  0  0  0  0  0  0  0  0  0
   21.4760  -20.0014  -13.3107 C   0  0  2  0  0  0  0  0  0  0  0  0
   22.4004  -20.8382  -12.5350 N   0  0  0  0  0  0  0  0  0  0  0  0
   20.1593  -20.6262  -13.4399 C   0  0  0  0  0  0  0  0  0  0  0  0
   20.0079  -21.9581  -13.7835 O   0  0  0  0  0  0  0  0  0  0  0  0
   20.5727  -19.5560  -16.5146 C   0  0  0  0  0  0  0  0  0  0  0  0
   19.7858  -18.8492  -17.4197 C   0  0  0  0  0  0  0  0  0  0  0  0
   19.1079  -19.9632  -13.2405 O   0  0  0  0  0  0  0  0  0  0  0  0
  2  1  1  6
  3  2  1  0
  3  4  1  0
  4  5  1  0
  5  9  1  0
  5  6  2  0
  7  2  1  0
  7  8  2  0
 10  7  1  0
 11 10  1  0
 12 13  1  0
 12 11  1  0
 13 14  1  0
 14 10  1  0
 15 16  2  0
 14 15  1  1
 18 17  1  0
 19 18  2  0
 20 19  1  0
 21 27  1  0
 21 20  2  0
 23 22  1  6
 22 21  1  0
 23 24  1  0
 24 15  1  0
 25 23  1  0
 26 25  1  0
 27 28  2  0
 28 18  1  0
 29 25  2  0
M  END
$$$$
