EPY.pdb
     RDKit          3D

 29 30  0  0  1  0  0  0  0  0999 V2000
   19.5944  -11.5245  -19.6432 N   0  0  0  0  0  0  0  0  0  0  0  0
   19.9561  -11.5585  -18.1980 C   0  0  1  0  0  0  0  0  0  0  0  0
   21.4021  -12.0122  -18.1992 C   0  0  0  0  0  0  0  0  0  0  0  0
   21.6073  -13.4374  -18.6018 C   0  0  0  0  0  0  0  0  0  0  0  0
   23.0509  -13.7481  -18.7963 C   0  0  0  0  0  0  0  0  0  0  0  0
   23.8870  -12.8369  -18.6127 O   0  0  0  0  0  0  0  0  0  0  0  0
   19.7499  -10.2218  -17.6177 C   0  0  0  0  0  0  0  0  0  0  0  0
   19.8359   -9.2460  -18.4434 O   0  0  0  0  0  0  0  0  0  0  0  0
   23.4938  -14.9983  -19.1697 O   0  0  0  0  0  0  0  0  0  0  0  0
   19.4691   -9.9229  -16.2687 N   0  0  0  0  0  0  0  0  0  0  0  0
   19.3065  -10.8687  -15.1856 C   0  0  0  0  0  0  0  0  0  0  0  0
   18.4585  -10.1633  -14.1489 C   0  0  0  0  0  0  0  0  0  0  0  0
   18.1678   -8.8255  -14.7614 C   0  0  0  0  0  0  0  0  0  0  0  0
   19.2743   -8.5819  -15.7284 C   0  0  1  0  0  0  0  0  0  0  0  0
   20.5162   -8.0487  -15.1206 C   0  0  0  0  0  0  0  0  0  0  0  0
   21.4819   -8.8010  -14.8222 O   0  0  0  0  0  0  0  0  0  0  0  0
   19.6663   -0.8645  -17.3525 O   0  0  0  0  0  0  0  0  0  0  0  0
   20.3868   -1.9810  -16.8915 C   0  0  0  0  0  0  0  0  0  0  0  0
   21.2300   -1.8905  -15.8106 C   0  0  0  0  0  0  0  0  0  0  0  0
   21.9527   -2.9749  -15.3335 C   0  0  0  0  0  0  0  0  0  0  0  0
   21.8171   -4.1860  -15.9707 C   0  0  0  0  0  0  0  0  0  0  0  0
   22.5550   -5.3620  -15.5149 C   0  0  0  0  0  0  0  0  0  0  0  0
   21.9145   -6.0994  -14.3613 C   0  0  2  0  0  0  0  0  0  0  0  0
   20.6599   -6.6807  -14.8558 N   0  0  0  0  0  0  0  0  0  0  0  0
   21.6956   -5.2665  -13.1784 C   0  0  0  0  0  0  0  0  0  0  0  0
   20.4267   -4.9587  -12.7203 O   0  0  0  0  0  0  0  0  0  0  0  0
   20.9754   -4.2916  -17.0555 C   0  0  0  0  0  0  0  0  0  0  0  0
   20.2529   -3.2001  -17.5293 C   0  0  0  0  0  0  0  0  0  0  0  0
   22.6677   -4.7965  -12.5311 O   0  0  0  0  0  0  0  0  0  0  0  0
  2  1  1  6
  3  2  1  0
  3  4  1  0
  4  5  1  0
  5  9  1  0
  5  6  2  0
  7  2  1  0
  7  8  2  0
 10  7  1  0
 11 10  1  0
 12 13  1  0
 12 11  1  0
 13 14  1  0
 14 10  1  0
 15 16  2  0
 14 15  1  1
 18 17  1  0
 19 18  2  0
 20 19  1  0
 21 27  1  0
 21 20  2  0
 23 22  1  6
 22 21  1  0
 23 24  1  0
 24 15  1  0
 25 23  1  0
 26 25  1  0
 27 28  2  0
 28 18  1  0
 29 25  2  0
M  END
$$$$
