EPY.pdb
     RDKit          3D

 29 30  0  0  1  0  0  0  0  0999 V2000
   27.7160  -18.0318  -16.1832 N   0  0  0  0  0  0  0  0  0  0  0  0
   26.7098  -19.1185  -16.0178 C   0  0  1  0  0  0  0  0  0  0  0  0
   27.4408  -20.3606  -16.4864 C   0  0  0  0  0  0  0  0  0  0  0  0
   28.1700  -21.0977  -15.4092 C   0  0  0  0  0  0  0  0  0  0  0  0
   28.8414  -22.3171  -15.9393 C   0  0  0  0  0  0  0  0  0  0  0  0
   28.6748  -22.6142  -17.1422 O   0  0  0  0  0  0  0  0  0  0  0  0
   26.2841  -19.1713  -14.6100 C   0  0  0  0  0  0  0  0  0  0  0  0
   27.0186  -18.5163  -13.7897 O   0  0  0  0  0  0  0  0  0  0  0  0
   29.6350  -23.1242  -15.1535 O   0  0  0  0  0  0  0  0  0  0  0  0
   25.1661  -19.8572  -14.0929 N   0  0  0  0  0  0  0  0  0  0  0  0
   24.3719  -20.8588  -14.7713 C   0  0  0  0  0  0  0  0  0  0  0  0
   23.0175  -20.8352  -14.0957 C   0  0  0  0  0  0  0  0  0  0  0  0
   23.1424  -19.7562  -13.0613 C   0  0  0  0  0  0  0  0  0  0  0  0
   24.5986  -19.6570  -12.7640 C   0  0  1  0  0  0  0  0  0  0  0  0
   25.0987  -20.6614  -11.7959 C   0  0  0  0  0  0  0  0  0  0  0  0
   25.3015  -21.8589  -12.1313 O   0  0  0  0  0  0  0  0  0  0  0  0
   28.2180  -19.3512   -3.7857 O   0  0  0  0  0  0  0  0  0  0  0  0
   28.0015  -19.6927   -5.1329 C   0  0  0  0  0  0  0  0  0  0  0  0
   27.2630  -18.8861   -5.9645 C   0  0  0  0  0  0  0  0  0  0  0  0
   27.0337  -19.1972   -7.2973 C   0  0  0  0  0  0  0  0  0  0  0  0
   27.5680  -20.3596   -7.8017 C   0  0  0  0  0  0  0  0  0  0  0  0
   27.3573  -20.7405   -9.1967 C   0  0  0  0  0  0  0  0  0  0  0  0
   25.9678  -21.2472   -9.5083 C   0  0  2  0  0  0  0  0  0  0  0  0
   25.3651  -20.3113  -10.4660 N   0  0  0  0  0  0  0  0  0  0  0  0
   25.1267  -21.4263   -8.3245 C   0  0  0  0  0  0  0  0  0  0  0  0
   24.0758  -20.5745   -8.0333 O   0  0  0  0  0  0  0  0  0  0  0  0
   28.3104  -21.1779   -6.9798 C   0  0  0  0  0  0  0  0  0  0  0  0
   28.5372  -20.8602   -5.6435 C   0  0  0  0  0  0  0  0  0  0  0  0
   25.3352  -22.3735   -7.5219 O   0  0  0  0  0  0  0  0  0  0  0  0
  2  1  1  1
  3  2  1  0
  3  4  1  0
  4  5  1  0
  5  9  1  0
  5  6  2  0
  7  2  1  0
  7  8  2  0
 10  7  1  0
 11 10  1  0
 12 13  1  0
 12 11  1  0
 13 14  1  0
 14 10  1  0
 15 16  2  0
 14 15  1  1
 18 17  1  0
 19 18  2  0
 20 19  1  0
 21 27  1  0
 21 20  2  0
 23 22  1  1
 22 21  1  0
 23 24  1  0
 24 15  1  0
 25 23  1  0
 26 25  1  0
 27 28  2  0
 28 18  1  0
 29 25  2  0
M  END
$$$$
