NVP.pdb
     RDKit          3D

 23 23  0  0  1  0  0  0  0  0999 V2000
   21.2700  -20.6489  -12.2406 N   0  0  0  0  0  0  0  0  0  0  0  0
   22.1797  -19.9518  -11.4449 C   0  0  0  0  0  0  0  0  0  0  0  0
   22.2167  -18.6931  -11.5460 O   0  0  0  0  0  0  0  0  0  0  0  0
   23.1198  -20.5528  -10.4795 C   0  0  0  0  0  0  0  0  0  0  0  0
   24.5394  -20.5924  -10.9660 C   0  0  2  0  0  0  0  0  0  0  0  0
   24.6835  -21.4061  -12.1663 N   0  0  0  0  0  0  0  0  0  0  0  0
   25.5022  -21.0298   -9.9516 C   0  0  0  0  0  0  0  0  0  0  0  0
   25.3011  -22.0753   -9.2894 O   0  0  0  0  0  0  0  0  0  0  0  0
   30.1387  -20.8644   -8.2655 C   0  0  0  0  0  0  0  0  0  0  0  0
   29.0600  -20.5979   -9.2900 C   0  0  1  0  0  0  0  0  0  0  0  0
   29.1807  -21.6389  -10.4177 C   0  0  0  0  0  0  0  0  0  0  0  0
   27.6644  -20.6929   -8.6686 C   0  0  2  0  0  0  0  0  0  0  0  0
   26.6859  -20.2993   -9.6799 N   0  0  0  0  0  0  0  0  0  0  0  0
   27.6256  -19.6795   -7.5875 C   0  0  0  0  0  0  0  0  0  0  0  0
   27.1744  -18.5198   -7.9054 O   0  0  0  0  0  0  0  0  0  0  0  0
   28.0536  -19.9620   -6.2884 N   0  0  0  0  0  0  0  0  0  0  0  0
   28.7810  -21.1868   -5.9151 C   0  0  0  0  0  0  0  0  0  0  0  0
   28.5792  -21.2987   -4.4267 C   0  0  0  0  0  0  0  0  0  0  0  0
   27.5480  -20.2335   -4.0858 C   0  0  0  0  0  0  0  0  0  0  0  0
   27.9270  -19.1605   -5.1037 C   0  0  1  0  0  0  0  0  0  0  0  0
   29.2637  -18.5874   -4.7718 C   0  0  0  0  0  0  0  0  0  0  0  0
   30.2324  -18.8717   -5.5106 O   0  0  0  0  0  0  0  0  0  0  0  0
   29.4677  -17.7563   -3.6801 O   0  0  0  0  0  0  0  0  0  0  0  0
  1  2  1  0
  2  3  2  0
  4  2  1  0
  4  5  1  0
  5  6  1  6
  7  5  1  0
  7  8  2  0
 10  9  1  1
 10 11  1  0
 10 12  1  0
 12 13  1  6
 13  7  1  0
 14 12  1  0
 15 14  2  0
 16 14  1  0
 16 17  1  0
 18 17  1  0
 19 18  1  0
 19 20  1  0
 20 16  1  0
 20 21  1  1
 21 23  1  0
 22 21  2  0
M  END
$$$$
