NVP.pdb
     RDKit          3D

 23 23  0  0  1  0  0  0  0  0999 V2000
   20.2998  -13.7553  -20.3891 N   0  0  0  0  0  0  0  0  0  0  0  0
   19.2205  -13.0486  -19.8576 C   0  0  0  0  0  0  0  0  0  0  0  0
   18.2267  -12.8284  -20.6058 O   0  0  0  0  0  0  0  0  0  0  0  0
   19.1254  -12.5240  -18.4819 C   0  0  0  0  0  0  0  0  0  0  0  0
   20.3374  -12.8096  -17.6433 C   0  0  2  0  0  0  0  0  0  0  0  0
   20.4016  -14.2065  -17.2332 N   0  0  0  0  0  0  0  0  0  0  0  0
   20.4645  -11.9417  -16.4695 C   0  0  0  0  0  0  0  0  0  0  0  0
   19.7106  -12.0928  -15.4791 O   0  0  0  0  0  0  0  0  0  0  0  0
   22.9229  -11.7455  -14.0379 C   0  0  0  0  0  0  0  0  0  0  0  0
   22.9067  -10.3305  -14.5690 C   0  0  1  0  0  0  0  0  0  0  0  0
   24.0553  -10.1688  -15.5811 C   0  0  0  0  0  0  0  0  0  0  0  0
   21.5802  -10.0098  -15.2622 C   0  0  2  0  0  0  0  0  0  0  0  0
   21.4324  -10.9085  -16.4048 N   0  0  0  0  0  0  0  0  0  0  0  0
   21.7144   -8.6310  -15.7894 C   0  0  0  0  0  0  0  0  0  0  0  0
   22.4366   -8.4880  -16.8418 O   0  0  0  0  0  0  0  0  0  0  0  0
   21.0911   -7.5389  -15.1816 N   0  0  0  0  0  0  0  0  0  0  0  0
   20.2537   -7.6427  -13.9747 C   0  0  0  0  0  0  0  0  0  0  0  0
   19.4209   -6.3878  -13.9923 C   0  0  0  0  0  0  0  0  0  0  0  0
   19.6887   -5.7539  -15.3490 C   0  0  0  0  0  0  0  0  0  0  0  0
   21.1500   -6.1509  -15.5446 C   0  0  1  0  0  0  0  0  0  0  0  0
   22.0122   -5.4372  -14.5585 C   0  0  0  0  0  0  0  0  0  0  0  0
   22.2229   -4.2157  -14.7275 O   0  0  0  0  0  0  0  0  0  0  0  0
   22.5840   -6.0769  -13.4685 O   0  0  0  0  0  0  0  0  0  0  0  0
  1  2  1  0
  2  3  2  0
  4  2  1  0
  4  5  1  0
  5  6  1  1
  7  5  1  0
  7  8  2  0
 10  9  1  6
 10 11  1  0
 10 12  1  0
 12 13  1  6
 13  7  1  0
 14 12  1  0
 15 14  2  0
 16 14  1  0
 16 17  1  0
 18 17  1  0
 19 18  1  0
 19 20  1  0
 20 16  1  0
 20 21  1  1
 21 23  1  0
 22 21  2  0
M  END
$$$$
