NVP.pdb
     RDKit          3D

 23 23  0  0  1  0  0  0  0  0999 V2000
   21.3646  -16.7751  -16.9177 N   0  0  0  0  0  0  0  0  0  0  0  0
   21.2916  -17.4988  -15.7271 C   0  0  0  0  0  0  0  0  0  0  0  0
   20.3593  -17.2246  -14.9199 O   0  0  0  0  0  0  0  0  0  0  0  0
   22.2142  -18.5726  -15.3116 C   0  0  0  0  0  0  0  0  0  0  0  0
   23.3769  -18.7612  -16.2422 C   0  0  2  0  0  0  0  0  0  0  0  0
   22.9460  -19.0434  -17.6054 N   0  0  0  0  0  0  0  0  0  0  0  0
   24.3297  -19.7837  -15.8016 C   0  0  0  0  0  0  0  0  0  0  0  0
   24.2745  -20.9485  -16.2621 O   0  0  0  0  0  0  0  0  0  0  0  0
   28.3725  -20.7692  -12.9881 C   0  0  0  0  0  0  0  0  0  0  0  0
   27.3621  -19.7911  -13.5419 C   0  0  1  0  0  0  0  0  0  0  0  0
   28.0877  -18.8063  -14.4766 C   0  0  0  0  0  0  0  0  0  0  0  0
   26.2627  -20.5095  -14.3281 C   0  0  2  0  0  0  0  0  0  0  0  0
   25.3406  -19.5027  -14.8488 N   0  0  0  0  0  0  0  0  0  0  0  0
   25.5211  -21.3306  -13.3416 C   0  0  0  0  0  0  0  0  0  0  0  0
   25.3026  -22.5545  -13.6640 O   0  0  0  0  0  0  0  0  0  0  0  0
   25.0806  -20.8101  -12.1228 N   0  0  0  0  0  0  0  0  0  0  0  0
   25.4892  -19.4957  -11.5993 C   0  0  0  0  0  0  0  0  0  0  0  0
   25.2103  -19.5822  -10.1217 C   0  0  0  0  0  0  0  0  0  0  0  0
   24.8646  -21.0419   -9.8688 C   0  0  0  0  0  0  0  0  0  0  0  0
   24.1592  -21.3796  -11.1801 C   0  0  1  0  0  0  0  0  0  0  0  0
   22.8665  -20.6410  -11.2725 C   0  0  0  0  0  0  0  0  0  0  0  0
   21.9263  -20.9927  -10.5259 O   0  0  0  0  0  0  0  0  0  0  0  0
   22.6727  -19.5854  -12.1513 O   0  0  0  0  0  0  0  0  0  0  0  0
  1  2  1  0
  2  3  2  0
  4  2  1  0
  4  5  1  0
  5  6  1  6
  7  5  1  0
  7  8  2  0
 10  9  1  6
 10 11  1  0
 10 12  1  0
 12 13  1  1
 13  7  1  0
 14 12  1  0
 15 14  2  0
 16 14  1  0
 16 17  1  0
 18 17  1  0
 19 18  1  0
 19 20  1  0
 20 16  1  0
 20 21  1  1
 21 23  1  0
 22 21  2  0
M  END
$$$$
