NVP.pdb
     RDKit          3D

 23 23  0  0  1  0  0  0  0  0999 V2000
   19.1181  -20.0380  -14.6201 N   0  0  0  0  0  0  0  0  0  0  0  0
   20.2901  -19.5159  -14.0718 C   0  0  0  0  0  0  0  0  0  0  0  0
   20.5624  -18.3025  -14.2943 O   0  0  0  0  0  0  0  0  0  0  0  0
   21.2598  -20.2566  -13.2424 C   0  0  0  0  0  0  0  0  0  0  0  0
   22.5319  -20.5976  -13.9628 C   0  0  2  0  0  0  0  0  0  0  0  0
   22.3015  -21.5050  -15.0794 N   0  0  0  0  0  0  0  0  0  0  0  0
   23.5799  -21.1379  -13.0927 C   0  0  0  0  0  0  0  0  0  0  0  0
   23.4361  -22.2522  -12.5361 O   0  0  0  0  0  0  0  0  0  0  0  0
   28.2892  -20.9943  -11.5614 C   0  0  0  0  0  0  0  0  0  0  0  0
   27.1779  -20.6517  -12.5268 C   0  0  1  0  0  0  0  0  0  0  0  0
   27.3129  -21.5444  -13.7737 C   0  0  0  0  0  0  0  0  0  0  0  0
   25.8015  -20.8777  -11.8962 C   0  0  2  0  0  0  0  0  0  0  0  0
   24.7846  -20.4331  -12.8467 N   0  0  0  0  0  0  0  0  0  0  0  0
   25.7370  -19.9815  -10.7173 C   0  0  0  0  0  0  0  0  0  0  0  0
   25.5140  -18.7390  -10.9537 O   0  0  0  0  0  0  0  0  0  0  0  0
   25.9070  -20.4544   -9.4141 N   0  0  0  0  0  0  0  0  0  0  0  0
   26.3120  -21.8328   -9.0906 C   0  0  0  0  0  0  0  0  0  0  0  0
   25.8786  -22.0205   -7.6604 C   0  0  0  0  0  0  0  0  0  0  0  0
   25.0438  -20.7911   -7.3351 C   0  0  0  0  0  0  0  0  0  0  0  0
   25.7736  -19.7442   -8.1733 C   0  0  1  0  0  0  0  0  0  0  0  0
   27.1356  -19.4993   -7.6164 C   0  0  0  0  0  0  0  0  0  0  0  0
   28.1031  -20.1112   -8.1211 O   0  0  0  0  0  0  0  0  0  0  0  0
   27.3644  -18.6228   -6.5659 O   0  0  0  0  0  0  0  0  0  0  0  0
  1  2  1  0
  2  3  2  0
  4  2  1  0
  4  5  1  0
  5  6  1  6
  7  5  1  0
  7  8  2  0
 10  9  1  1
 10 11  1  0
 10 12  1  0
 12 13  1  6
 13  7  1  0
 14 12  1  0
 15 14  2  0
 16 14  1  0
 16 17  1  0
 18 17  1  0
 19 18  1  0
 19 20  1  0
 20 16  1  0
 20 21  1  1
 21 23  1  0
 22 21  2  0
M  END
$$$$
