NVP.pdb
     RDKit          3D

 23 23  0  0  1  0  0  0  0  0999 V2000
   15.2111  -12.9352  -15.0319 N   0  0  0  0  0  0  0  0  0  0  0  0
   16.4030  -12.5941  -14.3919 C   0  0  0  0  0  0  0  0  0  0  0  0
   16.6878  -13.1825  -13.3109 O   0  0  0  0  0  0  0  0  0  0  0  0
   17.3807  -11.5948  -14.8634 C   0  0  0  0  0  0  0  0  0  0  0  0
   16.9305  -10.8389  -16.0797 C   0  0  2  0  0  0  0  0  0  0  0  0
   16.7518  -11.7133  -17.2317 N   0  0  0  0  0  0  0  0  0  0  0  0
   17.8035   -9.7180  -16.4385 C   0  0  0  0  0  0  0  0  0  0  0  0
   18.8201   -9.9024  -17.1488 O   0  0  0  0  0  0  0  0  0  0  0  0
   18.3033   -4.7865  -16.7529 C   0  0  0  0  0  0  0  0  0  0  0  0
   17.5185   -6.0776  -16.7144 C   0  0  1  0  0  0  0  0  0  0  0  0
   16.9384   -6.3460  -18.1149 C   0  0  0  0  0  0  0  0  0  0  0  0
   18.4042   -7.2571  -16.3053 C   0  0  2  0  0  0  0  0  0  0  0  0
   17.5392   -8.3953  -16.0033 N   0  0  0  0  0  0  0  0  0  0  0  0
   19.0712   -6.8528  -15.0447 C   0  0  0  0  0  0  0  0  0  0  0  0
   18.3124   -6.6932  -14.0209 O   0  0  0  0  0  0  0  0  0  0  0  0
   20.4515   -6.6550  -14.9645 N   0  0  0  0  0  0  0  0  0  0  0  0
   21.3456   -6.6459  -16.1346 C   0  0  0  0  0  0  0  0  0  0  0  0
   22.7117   -6.9129  -15.5590 C   0  0  0  0  0  0  0  0  0  0  0  0
   22.4633   -7.2822  -14.1044 C   0  0  0  0  0  0  0  0  0  0  0  0
   21.2583   -6.3933  -13.8060 C   0  0  1  0  0  0  0  0  0  0  0  0
   21.6632   -4.9577  -13.8224 C   0  0  0  0  0  0  0  0  0  0  0  0
   21.3491   -4.2627  -14.8141 O   0  0  0  0  0  0  0  0  0  0  0  0
   22.3707   -4.3711  -12.7833 O   0  0  0  0  0  0  0  0  0  0  0  0
  1  2  1  0
  2  3  2  0
  4  2  1  0
  4  5  1  0
  5  6  1  6
  7  5  1  0
  7  8  2  0
 10  9  1  6
 10 11  1  0
 10 12  1  0
 12 13  1  1
 13  7  1  0
 14 12  1  0
 15 14  2  0
 16 14  1  0
 16 17  1  0
 18 17  1  0
 19 18  1  0
 19 20  1  0
 20 16  1  0
 20 21  1  6
 21 23  1  0
 22 21  2  0
M  END
$$$$
