FYS.pdb
     RDKit          3D

 30 31  0  0  1  0  0  0  0  0999 V2000
   30.6439  -34.4296  -15.8334 N   0  0  0  0  0  0  0  0  0  0  0  0
   29.8002  -33.5059  -16.5255 C   0  0  1  0  0  0  0  0  0  0  0  0
   29.9235  -33.6692  -18.0342 C   0  0  0  0  0  0  0  0  0  0  0  0
   31.1933  -33.0058  -18.4240 C   0  0  0  0  0  0  0  0  0  0  0  0
   32.3291  -33.7452  -18.6656 C   0  0  0  0  0  0  0  0  0  0  0  0
   33.5207  -33.1355  -19.0299 C   0  0  0  0  0  0  0  0  0  0  0  0
   33.5742  -31.7636  -19.1537 C   0  0  0  0  0  0  0  0  0  0  0  0
   32.4307  -31.0397  -18.9087 C   0  0  0  0  0  0  0  0  0  0  0  0
   31.2280  -31.6337  -18.5428 C   0  0  0  0  0  0  0  0  0  0  0  0
   28.3691  -33.6575  -16.1706 C   0  0  0  0  0  0  0  0  0  0  0  0
   27.8478  -34.7337  -15.8284 O   0  0  0  0  0  0  0  0  0  0  0  0
   27.4496  -34.1230   -9.8202 O   0  0  0  0  0  0  0  0  0  0  0  0
   27.0715  -33.5266  -11.0000 C   0  0  0  0  0  0  0  0  0  0  0  0
   25.7721  -33.6485  -11.4456 C   0  0  0  0  0  0  0  0  0  0  0  0
   25.3616  -33.0582  -12.6314 C   0  0  0  0  0  0  0  0  0  0  0  0
   26.2815  -32.3378  -13.3699 C   0  0  0  0  0  0  0  0  0  0  0  0
   25.9366  -31.6704  -14.6510 C   0  0  0  0  0  0  0  0  0  0  0  0
   26.1472  -32.6131  -15.8349 C   0  0  2  0  0  0  0  0  0  0  0  0
   27.5328  -32.5021  -16.2225 N   0  0  0  0  0  0  0  0  0  0  0  0
   25.2993  -32.1461  -16.9504 C   0  0  0  0  0  0  0  0  0  0  0  0
   25.7092  -31.2338  -17.7479 O   0  0  0  0  0  0  0  0  0  0  0  0
   27.5689  -32.2269  -12.9120 C   0  0  0  0  0  0  0  0  0  0  0  0
   27.9858  -32.8068  -11.7404 C   0  0  0  0  0  0  0  0  0  0  0  0
   21.5357  -33.1422  -19.7747 O   0  0  0  0  0  0  0  0  0  0  0  0
   22.3236  -33.5112  -18.6967 C   0  0  0  0  0  0  0  0  0  0  0  0
   23.1668  -32.3240  -18.2419 C   0  0  2  0  0  0  0  0  0  0  0  0
   24.0181  -32.7180  -17.1347 N   0  0  0  0  0  0  0  0  0  0  0  0
   22.3462  -31.1443  -17.9240 C   0  0  0  0  0  0  0  0  0  0  0  0
   21.8825  -30.8961  -16.7920 O   0  0  0  0  0  0  0  0  0  0  0  0
   22.0733  -30.2537  -18.9531 O   0  0  0  0  0  0  0  0  0  0  0  0
  2  1  1  1
  3  4  1  0
  3  2  1  0
  4  5  2  0
  5  6  1  0
  7  6  2  0
  8  7  1  0
  9  4  1  0
  9  8  2  0
 10 19  1  0
 10  2  1  0
 11 10  2  0
 13 12  1  0
 14 13  2  0
 15 14  1  0
 16 15  2  0
 16 22  1  0
 18 17  1  1
 17 16  1  0
 18 19  1  0
 20 18  1  0
 21 20  2  0
 22 23  2  0
 23 13  1  0
 24 25  1  0
 26 25  1  1
 26 28  1  0
 26 27  1  0
 27 20  1  0
 28 30  1  0
 29 28  2  0
M  END
$$$$
