FYS.pdb
     RDKit          3D

 30 31  0  0  1  0  0  0  0  0999 V2000
   26.9036  -15.9928  -18.1065 N   0  0  0  0  0  0  0  0  0  0  0  0
   27.3275  -17.1066  -17.3167 C   0  0  1  0  0  0  0  0  0  0  0  0
   28.6582  -16.8240  -16.6329 C   0  0  0  0  0  0  0  0  0  0  0  0
   29.6990  -16.9224  -17.6872 C   0  0  0  0  0  0  0  0  0  0  0  0
   29.9850  -18.1294  -18.2842 C   0  0  0  0  0  0  0  0  0  0  0  0
   30.9557  -18.2325  -19.2698 C   0  0  0  0  0  0  0  0  0  0  0  0
   31.6502  -17.1085  -19.6625 C   0  0  0  0  0  0  0  0  0  0  0  0
   31.3524  -15.9106  -19.0561 C   0  0  0  0  0  0  0  0  0  0  0  0
   30.3829  -15.7884  -18.0669 C   0  0  0  0  0  0  0  0  0  0  0  0
   26.3483  -17.4715  -16.2655 C   0  0  0  0  0  0  0  0  0  0  0  0
   25.7639  -16.6452  -15.5425 O   0  0  0  0  0  0  0  0  0  0  0  0
   19.7606  -21.3189  -12.3346 O   0  0  0  0  0  0  0  0  0  0  0  0
   20.7991  -21.0140  -13.1825 C   0  0  0  0  0  0  0  0  0  0  0  0
   21.7924  -21.9424  -13.4135 C   0  0  0  0  0  0  0  0  0  0  0  0
   22.8521  -21.6634  -14.2635 C   0  0  0  0  0  0  0  0  0  0  0  0
   22.9011  -20.4290  -14.8835 C   0  0  0  0  0  0  0  0  0  0  0  0
   23.9946  -20.0386  -15.8094 C   0  0  0  0  0  0  0  0  0  0  0  0
   25.0687  -19.2322  -15.0811 C   0  0  2  0  0  0  0  0  0  0  0  0
   26.0536  -18.8536  -16.0655 N   0  0  0  0  0  0  0  0  0  0  0  0
   25.7055  -20.1131  -14.0812 C   0  0  0  0  0  0  0  0  0  0  0  0
   26.3505  -21.1568  -14.4433 O   0  0  0  0  0  0  0  0  0  0  0  0
   21.9053  -19.5182  -14.6425 C   0  0  0  0  0  0  0  0  0  0  0  0
   20.8524  -19.7836  -13.8036 C   0  0  0  0  0  0  0  0  0  0  0  0
   24.7530  -19.7049   -9.9726 O   0  0  0  0  0  0  0  0  0  0  0  0
   26.0598  -20.0031  -10.3228 C   0  0  0  0  0  0  0  0  0  0  0  0
   26.0857  -20.6974  -11.6809 C   0  0  2  0  0  0  0  0  0  0  0  0
   25.5976  -19.7944  -12.7066 N   0  0  0  0  0  0  0  0  0  0  0  0
   25.3576  -21.9764  -11.6692 C   0  0  0  0  0  0  0  0  0  0  0  0
   24.3622  -22.2240  -12.3806 O   0  0  0  0  0  0  0  0  0  0  0  0
   25.8113  -22.9676  -10.8100 O   0  0  0  0  0  0  0  0  0  0  0  0
  2  1  1  1
  3  4  1  0
  3  2  1  0
  4  5  2  0
  5  6  1  0
  7  6  2  0
  8  7  1  0
  9  4  1  0
  9  8  2  0
 10 19  1  0
 10  2  1  0
 11 10  2  0
 13 12  1  0
 14 13  2  0
 15 14  1  0
 16 15  2  0
 16 22  1  0
 18 17  1  6
 17 16  1  0
 18 19  1  0
 20 18  1  0
 21 20  2  0
 22 23  2  0
 23 13  1  0
 24 25  1  0
 26 25  1  1
 26 28  1  0
 26 27  1  0
 27 20  1  0
 28 30  1  0
 29 28  2  0
M  END
$$$$
