FYS.pdb
     RDKit          3D

 30 31  0  0  1  0  0  0  0  0999 V2000
   29.6847  -29.2904  -17.5531 N   0  0  0  0  0  0  0  0  0  0  0  0
   28.4102  -29.5224  -16.9483 C   0  0  1  0  0  0  0  0  0  0  0  0
   27.2807  -28.9890  -17.8189 C   0  0  0  0  0  0  0  0  0  0  0  0
   27.4333  -27.5123  -17.8431 C   0  0  0  0  0  0  0  0  0  0  0  0
   26.9445  -26.7367  -16.8162 C   0  0  0  0  0  0  0  0  0  0  0  0
   27.0813  -25.3563  -16.8292 C   0  0  0  0  0  0  0  0  0  0  0  0
   27.7179  -24.7445  -17.8877 C   0  0  0  0  0  0  0  0  0  0  0  0
   28.2004  -25.5338  -18.9054 C   0  0  0  0  0  0  0  0  0  0  0  0
   28.0724  -26.9183  -18.9092 C   0  0  0  0  0  0  0  0  0  0  0  0
   28.1463  -30.9591  -16.6968 C   0  0  0  0  0  0  0  0  0  0  0  0
   28.8540  -31.8832  -17.1354 O   0  0  0  0  0  0  0  0  0  0  0  0
   32.0464  -35.3776  -17.8104 O   0  0  0  0  0  0  0  0  0  0  0  0
   31.0458  -34.8264  -17.0452 C   0  0  0  0  0  0  0  0  0  0  0  0
   31.2566  -33.6259  -16.4001 C   0  0  0  0  0  0  0  0  0  0  0  0
   30.2663  -33.0458  -15.6216 C   0  0  0  0  0  0  0  0  0  0  0  0
   29.0512  -33.6931  -15.4988 C   0  0  0  0  0  0  0  0  0  0  0  0
   27.9312  -33.1510  -14.6881 C   0  0  0  0  0  0  0  0  0  0  0  0
   26.7773  -32.6970  -15.5807 C   0  0  2  0  0  0  0  0  0  0  0  0
   27.0129  -31.3104  -15.9038 N   0  0  0  0  0  0  0  0  0  0  0  0
   25.5262  -32.8012  -14.8027 C   0  0  0  0  0  0  0  0  0  0  0  0
   25.3842  -32.1657  -13.7016 O   0  0  0  0  0  0  0  0  0  0  0  0
   28.8589  -34.8857  -16.1469 C   0  0  0  0  0  0  0  0  0  0  0  0
   29.8315  -35.4686  -16.9196 C   0  0  0  0  0  0  0  0  0  0  0  0
   20.9631  -34.4339  -14.7383 O   0  0  0  0  0  0  0  0  0  0  0  0
   22.1606  -34.3670  -15.4315 C   0  0  0  0  0  0  0  0  0  0  0  0
   23.2496  -33.7958  -14.5287 C   0  0  2  0  0  0  0  0  0  0  0  0
   24.4745  -33.6157  -15.2855 N   0  0  0  0  0  0  0  0  0  0  0  0
   23.4546  -34.6069  -13.3177 C   0  0  0  0  0  0  0  0  0  0  0  0
   24.0839  -35.6846  -13.2929 O   0  0  0  0  0  0  0  0  0  0  0  0
   22.9110  -34.1385  -12.1296 O   0  0  0  0  0  0  0  0  0  0  0  0
  2  1  1  6
  3  4  1  0
  3  2  1  0
  4  5  2  0
  5  6  1  0
  7  6  2  0
  8  7  1  0
  9  4  1  0
  9  8  2  0
 10 19  1  0
 10  2  1  0
 11 10  2  0
 13 12  1  0
 14 13  2  0
 15 14  1  0
 16 15  2  0
 16 22  1  0
 18 17  1  1
 17 16  1  0
 18 19  1  0
 20 18  1  0
 21 20  2  0
 22 23  2  0
 23 13  1  0
 24 25  1  0
 26 25  1  6
 26 28  1  0
 26 27  1  0
 27 20  1  0
 28 30  1  0
 29 28  2  0
M  END
$$$$
