FYS.pdb
     RDKit          3D

 30 31  0  0  1  0  0  0  0  0999 V2000
   26.8877  -18.9973   -8.0298 N   0  0  0  0  0  0  0  0  0  0  0  0
   27.4141  -20.1403   -8.7084 C   0  0  1  0  0  0  0  0  0  0  0  0
   27.9243  -21.1817   -7.7218 C   0  0  0  0  0  0  0  0  0  0  0  0
   28.0199  -20.4998   -6.4064 C   0  0  0  0  0  0  0  0  0  0  0  0
   27.5892  -19.2013   -6.2532 C   0  0  0  0  0  0  0  0  0  0  0  0
   27.6744  -18.5546   -5.0288 C   0  0  0  0  0  0  0  0  0  0  0  0
   28.1993  -19.2201   -3.9418 C   0  0  0  0  0  0  0  0  0  0  0  0
   28.6250  -20.5168   -4.1118 C   0  0  0  0  0  0  0  0  0  0  0  0
   28.5473  -21.1805   -5.3311 C   0  0  0  0  0  0  0  0  0  0  0  0
   26.4160  -20.7990   -9.5842 C   0  0  0  0  0  0  0  0  0  0  0  0
   26.5748  -21.9201  -10.0987 O   0  0  0  0  0  0  0  0  0  0  0  0
   18.8166  -22.1318  -13.7215 O   0  0  0  0  0  0  0  0  0  0  0  0
   19.8084  -21.6258  -12.9147 C   0  0  0  0  0  0  0  0  0  0  0  0
   20.0458  -22.1930  -11.6803 C   0  0  0  0  0  0  0  0  0  0  0  0
   21.0391  -21.7043  -10.8449 C   0  0  0  0  0  0  0  0  0  0  0  0
   21.7970  -20.6293  -11.2697 C   0  0  0  0  0  0  0  0  0  0  0  0
   22.8818  -20.0367  -10.4465 C   0  0  0  0  0  0  0  0  0  0  0  0
   24.2197  -20.7186  -10.7286 C   0  0  2  0  0  0  0  0  0  0  0  0
   25.1963  -20.1101   -9.8577 N   0  0  0  0  0  0  0  0  0  0  0  0
   24.5901  -20.4408  -12.1311 C   0  0  0  0  0  0  0  0  0  0  0  0
   25.0391  -19.2935  -12.4756 O   0  0  0  0  0  0  0  0  0  0  0  0
   21.5474  -20.0778  -12.4997 C   0  0  0  0  0  0  0  0  0  0  0  0
   20.5673  -20.5532  -13.3341 C   0  0  0  0  0  0  0  0  0  0  0  0
   25.8393  -23.3149  -14.6608 O   0  0  0  0  0  0  0  0  0  0  0  0
   25.9891  -21.9622  -14.9192 C   0  0  0  0  0  0  0  0  0  0  0  0
   24.7264  -21.2135  -14.5042 C   0  0  2  0  0  0  0  0  0  0  0  0
   24.4444  -21.4597  -13.1022 N   0  0  0  0  0  0  0  0  0  0  0  0
   23.5786  -21.5301  -15.3694 C   0  0  0  0  0  0  0  0  0  0  0  0
   22.5111  -22.0336  -14.9632 O   0  0  0  0  0  0  0  0  0  0  0  0
   23.6962  -21.2485  -16.7235 O   0  0  0  0  0  0  0  0  0  0  0  0
  2  1  1  1
  3  4  1  0
  3  2  1  0
  4  5  2  0
  5  6  1  0
  7  6  2  0
  8  7  1  0
  9  4  1  0
  9  8  2  0
 10 19  1  0
 10  2  1  0
 11 10  2  0
 13 12  1  0
 14 13  2  0
 15 14  1  0
 16 15  2  0
 16 22  1  0
 18 17  1  1
 17 16  1  0
 18 19  1  0
 20 18  1  0
 21 20  2  0
 22 23  2  0
 23 13  1  0
 24 25  1  0
 26 25  1  6
 26 28  1  0
 26 27  1  0
 27 20  1  0
 28 30  1  0
 29 28  2  0
M  END
$$$$
