FYS.pdb
     RDKit          3D

 30 31  0  0  1  0  0  0  0  0999 V2000
   21.1717  -15.1481  -18.8020 N   0  0  0  0  0  0  0  0  0  0  0  0
   21.7743  -16.1354  -17.9618 C   0  0  1  0  0  0  0  0  0  0  0  0
   23.1299  -15.6702  -17.4478 C   0  0  0  0  0  0  0  0  0  0  0  0
   24.0371  -15.6477  -18.6228 C   0  0  0  0  0  0  0  0  0  0  0  0
   24.2910  -14.4731  -19.2944 C   0  0  0  0  0  0  0  0  0  0  0  0
   25.1366  -14.4410  -20.3936 C   0  0  0  0  0  0  0  0  0  0  0  0
   25.7367  -15.6042  -20.8260 C   0  0  0  0  0  0  0  0  0  0  0  0
   25.4725  -16.7690  -20.1440 C   0  0  0  0  0  0  0  0  0  0  0  0
   24.6280  -16.8200  -19.0407 C   0  0  0  0  0  0  0  0  0  0  0  0
   20.9388  -16.4772  -16.7861 C   0  0  0  0  0  0  0  0  0  0  0  0
   20.4568  -15.6356  -16.0074 O   0  0  0  0  0  0  0  0  0  0  0  0
   15.5317  -13.9706  -17.3891 O   0  0  0  0  0  0  0  0  0  0  0  0
   16.2433  -15.0936  -17.0382 C   0  0  0  0  0  0  0  0  0  0  0  0
   16.3085  -15.4801  -15.7160 C   0  0  0  0  0  0  0  0  0  0  0  0
   17.0184  -16.6079  -15.3321 C   0  0  0  0  0  0  0  0  0  0  0  0
   17.6674  -17.3484  -16.3021 C   0  0  0  0  0  0  0  0  0  0  0  0
   18.4517  -18.5699  -15.9887 C   0  0  0  0  0  0  0  0  0  0  0  0
   19.8206  -18.2105  -15.4131 C   0  0  2  0  0  0  0  0  0  0  0  0
   20.6670  -17.8540  -16.5262 N   0  0  0  0  0  0  0  0  0  0  0  0
   20.3733  -19.4131  -14.7576 C   0  0  0  0  0  0  0  0  0  0  0  0
   20.7395  -20.4261  -15.4477 O   0  0  0  0  0  0  0  0  0  0  0  0
   17.5920  -16.9496  -17.6115 C   0  0  0  0  0  0  0  0  0  0  0  0
   16.8927  -15.8358  -18.0026 C   0  0  0  0  0  0  0  0  0  0  0  0
   20.2222  -19.8781  -10.5313 O   0  0  0  0  0  0  0  0  0  0  0  0
   21.3684  -20.2432  -11.2183 C   0  0  0  0  0  0  0  0  0  0  0  0
   21.0152  -20.6064  -12.6572 C   0  0  2  0  0  0  0  0  0  0  0  0
   20.4971  -19.4402  -13.3481 N   0  0  0  0  0  0  0  0  0  0  0  0
   20.0989  -21.7555  -12.7353 C   0  0  0  0  0  0  0  0  0  0  0  0
   18.8872  -21.6689  -13.0223 O   0  0  0  0  0  0  0  0  0  0  0  0
   20.6211  -23.0143  -12.4717 O   0  0  0  0  0  0  0  0  0  0  0  0
  2  1  1  1
  3  4  1  0
  3  2  1  0
  4  5  2  0
  5  6  1  0
  7  6  2  0
  8  7  1  0
  9  4  1  0
  9  8  2  0
 10 19  1  0
 10  2  1  0
 11 10  2  0
 13 12  1  0
 14 13  2  0
 15 14  1  0
 16 15  2  0
 16 22  1  0
 18 17  1  6
 17 16  1  0
 18 19  1  0
 20 18  1  0
 21 20  2  0
 22 23  2  0
 23 13  1  0
 24 25  1  0
 26 25  1  1
 26 28  1  0
 26 27  1  0
 27 20  1  0
 28 30  1  0
 29 28  2  0
M  END
$$$$
