FYS.pdb
     RDKit          3D

 30 31  0  0  1  0  0  0  0  0999 V2000
   18.7626  -10.7291  -18.3296 N   0  0  0  0  0  0  0  0  0  0  0  0
   20.0113  -10.1357  -18.6936 C   0  0  1  0  0  0  0  0  0  0  0  0
   20.1962  -10.1215  -20.2048 C   0  0  0  0  0  0  0  0  0  0  0  0
   20.2681  -11.5421  -20.6304 C   0  0  0  0  0  0  0  0  0  0  0  0
   21.3633  -12.3160  -20.3195 C   0  0  0  0  0  0  0  0  0  0  0  0
   21.4408  -13.6441  -20.7127 C   0  0  0  0  0  0  0  0  0  0  0  0
   20.4046  -14.2045  -21.4285 C   0  0  0  0  0  0  0  0  0  0  0  0
   19.3179  -13.4176  -21.7309 C   0  0  0  0  0  0  0  0  0  0  0  0
   19.2231  -12.0852  -21.3451 C   0  0  0  0  0  0  0  0  0  0  0  0
   20.1482   -8.7416  -18.2089 C   0  0  0  0  0  0  0  0  0  0  0  0
   19.1938   -7.9557  -18.0737 O   0  0  0  0  0  0  0  0  0  0  0  0
   18.5590   -8.5861  -12.0833 O   0  0  0  0  0  0  0  0  0  0  0  0
   19.4593   -8.1909  -13.0445 C   0  0  0  0  0  0  0  0  0  0  0  0
   19.3981   -6.9128  -13.5589 C   0  0  0  0  0  0  0  0  0  0  0  0
   20.2925   -6.4860  -14.5290 C   0  0  0  0  0  0  0  0  0  0  0  0
   21.2573   -7.3675  -14.9792 C   0  0  0  0  0  0  0  0  0  0  0  0
   22.2578   -7.0026  -16.0143 C   0  0  0  0  0  0  0  0  0  0  0  0
   21.6109   -6.9143  -17.3957 C   0  0  2  0  0  0  0  0  0  0  0  0
   21.4518   -8.2660  -17.8753 N   0  0  0  0  0  0  0  0  0  0  0  0
   22.5383   -6.1945  -18.2919 C   0  0  0  0  0  0  0  0  0  0  0  0
   23.6095   -6.7532  -18.7124 O   0  0  0  0  0  0  0  0  0  0  0  0
   21.3035   -8.6342  -14.4568 C   0  0  0  0  0  0  0  0  0  0  0  0
   20.4238   -9.0670  -13.4969 C   0  0  0  0  0  0  0  0  0  0  0  0
   21.2515   -3.9893  -21.1751 O   0  0  0  0  0  0  0  0  0  0  0  0
   22.1996   -3.2396  -20.4982 C   0  0  0  0  0  0  0  0  0  0  0  0
   23.0648   -4.1551  -19.6377 C   0  0  2  0  0  0  0  0  0  0  0  0
   22.2336   -4.8703  -18.6872 N   0  0  0  0  0  0  0  0  0  0  0  0
   24.1664   -3.4309  -18.9832 C   0  0  0  0  0  0  0  0  0  0  0  0
   24.3098   -3.3400  -17.7466 O   0  0  0  0  0  0  0  0  0  0  0  0
   25.1032   -2.8110  -19.7984 O   0  0  0  0  0  0  0  0  0  0  0  0
  2  1  1  6
  3  4  1  0
  3  2  1  0
  4  5  2  0
  5  6  1  0
  7  6  2  0
  8  7  1  0
  9  4  1  0
  9  8  2  0
 10 19  1  0
 10  2  1  0
 11 10  2  0
 13 12  1  0
 14 13  2  0
 15 14  1  0
 16 15  2  0
 16 22  1  0
 18 17  1  1
 17 16  1  0
 18 19  1  0
 20 18  1  0
 21 20  2  0
 22 23  2  0
 23 13  1  0
 24 25  1  0
 26 25  1  1
 26 28  1  0
 26 27  1  0
 27 20  1  0
 28 30  1  0
 29 28  2  0
M  END
$$$$
