FYS.pdb
     RDKit          3D

 30 31  0  0  1  0  0  0  0  0999 V2000
   28.1200  -20.8646   -8.9209 N   0  0  0  0  0  0  0  0  0  0  0  0
   26.7921  -20.3806   -8.7058 C   0  0  1  0  0  0  0  0  0  0  0  0
   26.7967  -19.1092   -7.8683 C   0  0  0  0  0  0  0  0  0  0  0  0
   27.4516  -19.4582   -6.5823 C   0  0  0  0  0  0  0  0  0  0  0  0
   26.8995  -20.3997   -5.7434 C   0  0  0  0  0  0  0  0  0  0  0  0
   27.5028  -20.7329   -4.5395 C   0  0  0  0  0  0  0  0  0  0  0  0
   28.6774  -20.1126   -4.1713 C   0  0  0  0  0  0  0  0  0  0  0  0
   29.2158  -19.1744   -5.0207 C   0  0  0  0  0  0  0  0  0  0  0  0
   28.6251  -18.8280   -6.2308 C   0  0  0  0  0  0  0  0  0  0  0  0
   26.0759  -20.0860   -9.9697 C   0  0  0  0  0  0  0  0  0  0  0  0
   26.3278  -19.1119  -10.7008 O   0  0  0  0  0  0  0  0  0  0  0  0
   28.9169  -20.1845  -16.0580 O   0  0  0  0  0  0  0  0  0  0  0  0
   27.9157  -20.5991  -15.2118 C   0  0  0  0  0  0  0  0  0  0  0  0
   26.5985  -20.3392  -15.5270 C   0  0  0  0  0  0  0  0  0  0  0  0
   25.5674  -20.7451  -14.6930 C   0  0  0  0  0  0  0  0  0  0  0  0
   25.8797  -21.4211  -13.5286 C   0  0  0  0  0  0  0  0  0  0  0  0
   24.8459  -21.8950  -12.5736 C   0  0  0  0  0  0  0  0  0  0  0  0
   24.3891  -20.7640  -11.6535 C   0  0  2  0  0  0  0  0  0  0  0  0
   25.0327  -20.9701  -10.3784 N   0  0  0  0  0  0  0  0  0  0  0  0
   22.9273  -20.8784  -11.4758 C   0  0  0  0  0  0  0  0  0  0  0  0
   22.4319  -21.7079  -10.6374 O   0  0  0  0  0  0  0  0  0  0  0  0
   27.1944  -21.6708  -13.2310 C   0  0  0  0  0  0  0  0  0  0  0  0
   28.2224  -21.2740  -14.0486 C   0  0  0  0  0  0  0  0  0  0  0  0
   20.0169  -17.8835  -12.0074 O   0  0  0  0  0  0  0  0  0  0  0  0
   19.9588  -18.9911  -12.8374 C   0  0  0  0  0  0  0  0  0  0  0  0
   20.6253  -20.1827  -12.1570 C   0  0  2  0  0  0  0  0  0  0  0  0
   22.0684  -20.0582  -12.2452 N   0  0  0  0  0  0  0  0  0  0  0  0
   20.1418  -21.4695  -12.6831 C   0  0  0  0  0  0  0  0  0  0  0  0
   20.6041  -22.0315  -13.6972 O   0  0  0  0  0  0  0  0  0  0  0  0
   19.1049  -22.0939  -12.0037 O   0  0  0  0  0  0  0  0  0  0  0  0
  2  1  1  6
  3  4  1  0
  3  2  1  0
  4  5  2  0
  5  6  1  0
  7  6  2  0
  8  7  1  0
  9  4  1  0
  9  8  2  0
 10 19  1  0
 10  2  1  0
 11 10  2  0
 13 12  1  0
 14 13  2  0
 15 14  1  0
 16 15  2  0
 16 22  1  0
 18 17  1  6
 17 16  1  0
 18 19  1  0
 20 18  1  0
 21 20  2  0
 22 23  2  0
 23 13  1  0
 24 25  1  0
 26 25  1  6
 26 28  1  0
 26 27  1  0
 27 20  1  0
 28 30  1  0
 29 28  2  0
M  END
$$$$
