FYS.pdb
     RDKit          3D

 30 31  0  0  1  0  0  0  0  0999 V2000
   26.8065  -27.5208  -18.2703 N   0  0  0  0  0  0  0  0  0  0  0  0
   25.8123  -27.3877  -17.2515 C   0  0  1  0  0  0  0  0  0  0  0  0
   26.4390  -27.3977  -15.8639 C   0  0  0  0  0  0  0  0  0  0  0  0
   26.9883  -28.7624  -15.6632 C   0  0  0  0  0  0  0  0  0  0  0  0
   26.1750  -29.7965  -15.2578 C   0  0  0  0  0  0  0  0  0  0  0  0
   26.6780  -31.0751  -15.0668 C   0  0  0  0  0  0  0  0  0  0  0  0
   28.0166  -31.3205  -15.2857 C   0  0  0  0  0  0  0  0  0  0  0  0
   28.8153  -30.2766  -15.6904 C   0  0  0  0  0  0  0  0  0  0  0  0
   28.3287  -28.9890  -15.8868 C   0  0  0  0  0  0  0  0  0  0  0  0
   25.0207  -26.1412  -17.3802 C   0  0  0  0  0  0  0  0  0  0  0  0
   25.4191  -25.1225  -17.9722 O   0  0  0  0  0  0  0  0  0  0  0  0
   19.2159  -20.3312  -19.2717 O   0  0  0  0  0  0  0  0  0  0  0  0
   20.0415  -21.4101  -19.0595 C   0  0  0  0  0  0  0  0  0  0  0  0
   21.4097  -21.2378  -19.0567 C   0  0  0  0  0  0  0  0  0  0  0  0
   22.2673  -22.3070  -18.8456 C   0  0  0  0  0  0  0  0  0  0  0  0
   21.7276  -23.5620  -18.6355 C   0  0  0  0  0  0  0  0  0  0  0  0
   22.5641  -24.7665  -18.4007 C   0  0  0  0  0  0  0  0  0  0  0  0
   22.9217  -24.9066  -16.9219 C   0  0  2  0  0  0  0  0  0  0  0  0
   23.7212  -26.1009  -16.7915 N   0  0  0  0  0  0  0  0  0  0  0  0
   21.6683  -25.0843  -16.1610 C   0  0  0  0  0  0  0  0  0  0  0  0
   20.9637  -26.1433  -16.2966 O   0  0  0  0  0  0  0  0  0  0  0  0
   20.3653  -23.7151  -18.6415 C   0  0  0  0  0  0  0  0  0  0  0  0
   19.5076  -22.6644  -18.8494 C   0  0  0  0  0  0  0  0  0  0  0  0
   19.9092  -22.9126  -12.4705 O   0  0  0  0  0  0  0  0  0  0  0  0
   20.4208  -24.0952  -12.9793 C   0  0  0  0  0  0  0  0  0  0  0  0
   20.0569  -24.2235  -14.4552 C   0  0  2  0  0  0  0  0  0  0  0  0
   21.2458  -24.0672  -15.2724 N   0  0  0  0  0  0  0  0  0  0  0  0
   18.9821  -23.2982  -14.8488 C   0  0  0  0  0  0  0  0  0  0  0  0
   19.1743  -22.1502  -15.2996 O   0  0  0  0  0  0  0  0  0  0  0  0
   17.6724  -23.7355  -14.7074 O   0  0  0  0  0  0  0  0  0  0  0  0
  2  1  1  6
  3  4  1  0
  3  2  1  0
  4  5  2  0
  5  6  1  0
  7  6  2  0
  8  7  1  0
  9  4  1  0
  9  8  2  0
 10 19  1  0
 10  2  1  0
 11 10  2  0
 13 12  1  0
 14 13  2  0
 15 14  1  0
 16 15  2  0
 16 22  1  0
 18 17  1  6
 17 16  1  0
 18 19  1  0
 20 18  1  0
 21 20  2  0
 22 23  2  0
 23 13  1  0
 24 25  1  0
 26 25  1  1
 26 28  1  0
 26 27  1  0
 27 20  1  0
 28 30  1  0
 29 28  2  0
M  END
$$$$
