WNA.pdb
     RDKit          3D

 28 29  0  0  1  0  0  0  0  0999 V2000
   27.5300  -22.3919  -12.7440 N   0  0  0  0  0  0  0  0  0  0  0  0
   26.4794  -21.6071  -12.1495 C   0  0  1  0  0  0  0  0  0  0  0  0
   26.9550  -20.2757  -11.6666 C   0  0  0  0  0  0  0  0  0  0  0  0
   27.9105  -20.3804  -10.5426 C   0  0  0  0  0  0  0  0  0  0  0  0
   29.2793  -20.6116  -10.6981 C   0  0  0  0  0  0  0  0  0  0  0  0
   29.8801  -20.6346   -9.4968 N   0  0  0  0  0  0  0  0  0  0  0  0
   28.9544  -20.4261   -8.5364 C   0  0  0  0  0  0  0  0  0  0  0  0
   29.0244  -20.3580   -7.1637 C   0  0  0  0  0  0  0  0  0  0  0  0
   27.8704  -20.1325   -6.4322 C   0  0  0  0  0  0  0  0  0  0  0  0
   26.6570  -19.9756   -7.0439 C   0  0  0  0  0  0  0  0  0  0  0  0
   26.6065  -20.0474   -8.4351 C   0  0  0  0  0  0  0  0  0  0  0  0
   27.7367  -20.2690   -9.1812 C   0  0  0  0  0  0  0  0  0  0  0  0
   25.3443  -21.5499  -13.0708 C   0  0  0  0  0  0  0  0  0  0  0  0
   25.3531  -20.6882  -13.9846 O   0  0  0  0  0  0  0  0  0  0  0  0
   24.4698  -25.3700  -15.2191 N   0  0  0  0  0  0  0  0  0  0  0  0
   23.8075  -24.1107  -15.4802 C   0  0  0  0  0  0  0  0  0  0  0  0
   24.1799  -23.5116  -16.5183 O   0  0  0  0  0  0  0  0  0  0  0  0
   22.7821  -23.6600  -14.5260 C   0  0  0  0  0  0  0  0  0  0  0  0
   23.0960  -22.3217  -13.9697 C   0  0  2  0  0  0  0  0  0  0  0  0
   24.2189  -22.3970  -13.0179 N   0  0  0  0  0  0  0  0  0  0  0  0
   21.8986  -21.8251  -13.2084 C   0  0  0  0  0  0  0  0  0  0  0  0
   21.8826  -21.6582  -11.9781 O   0  0  0  0  0  0  0  0  0  0  0  0
   20.0343  -19.4699  -12.6729 C   0  0  0  0  0  0  0  0  0  0  0  0
   19.5884  -20.7783  -13.2908 C   0  0  2  0  0  0  0  0  0  0  0  0
   20.6692  -21.5065  -13.8802 N   0  0  0  0  0  0  0  0  0  0  0  0
   18.4602  -20.5759  -14.2076 C   0  0  0  0  0  0  0  0  0  0  0  0
   18.6565  -20.4777  -15.5966 O   0  0  0  0  0  0  0  0  0  0  0  0
   17.2787  -20.4803  -13.8182 O   0  0  0  0  0  0  0  0  0  0  0  0
  2  1  1  6
  3  2  1  0
  4  5  2  0
  4  3  1  0
  6  5  1  0
  7 12  2  0
  7  6  1  0
  8  7  1  0
  9 10  1  0
  9  8  2  0
 10 11  2  0
 11 12  1  0
 12  4  1  0
 13 14  2  0
 13  2  1  0
 16 17  2  0
 16 15  1  0
 18 16  1  0
 19 18  1  1
 19 20  1  0
 20 13  1  0
 21 25  1  0
 21 19  1  0
 22 21  2  0
 24 23  1  6
 24 25  1  0
 24 26  1  0
 26 27  1  0
 28 26  2  0
M  END
$$$$
