WNA.pdb
     RDKit          3D

 28 29  0  0  1  0  0  0  0  0999 V2000
   26.1884  -22.8137  -12.1300 N   0  0  0  0  0  0  0  0  0  0  0  0
   25.5545  -21.6421  -11.5834 C   0  0  1  0  0  0  0  0  0  0  0  0
   26.4683  -20.4613  -11.5321 C   0  0  0  0  0  0  0  0  0  0  0  0
   27.6001  -20.6512  -10.5990 C   0  0  0  0  0  0  0  0  0  0  0  0
   28.8767  -21.0612  -10.9906 C   0  0  0  0  0  0  0  0  0  0  0  0
   29.6872  -21.1219   -9.9211 N   0  0  0  0  0  0  0  0  0  0  0  0
   28.9922  -20.7650   -8.8199 C   0  0  0  0  0  0  0  0  0  0  0  0
   29.3289  -20.6618   -7.4895 C   0  0  0  0  0  0  0  0  0  0  0  0
   28.3702  -20.2663   -6.5720 C   0  0  0  0  0  0  0  0  0  0  0  0
   27.0906  -19.9747   -6.9578 C   0  0  0  0  0  0  0  0  0  0  0  0
   26.7689  -20.0848   -8.3097 C   0  0  0  0  0  0  0  0  0  0  0  0
   27.7022  -20.4740   -9.2374 C   0  0  0  0  0  0  0  0  0  0  0  0
   24.2947  -21.4060  -12.2888 C   0  0  0  0  0  0  0  0  0  0  0  0
   24.2078  -21.7430  -13.4956 O   0  0  0  0  0  0  0  0  0  0  0  0
   20.6576  -22.3678   -9.4672 N   0  0  0  0  0  0  0  0  0  0  0  0
   20.5146  -22.1576  -10.8913 C   0  0  0  0  0  0  0  0  0  0  0  0
   20.2136  -23.1771  -11.5585 O   0  0  0  0  0  0  0  0  0  0  0  0
   20.7305  -20.7987  -11.4128 C   0  0  0  0  0  0  0  0  0  0  0  0
   21.8406  -20.7544  -12.3952 C   0  0  2  0  0  0  0  0  0  0  0  0
   23.1474  -20.8200  -11.7167 N   0  0  0  0  0  0  0  0  0  0  0  0
   21.7828  -19.4422  -13.1263 C   0  0  0  0  0  0  0  0  0  0  0  0
   21.6665  -18.3418  -12.5627 O   0  0  0  0  0  0  0  0  0  0  0  0
   22.2315  -18.3762  -16.7629 C   0  0  0  0  0  0  0  0  0  0  0  0
   21.7899  -18.1803  -15.3279 C   0  0  2  0  0  0  0  0  0  0  0  0
   21.8608  -19.3847  -14.5597 N   0  0  0  0  0  0  0  0  0  0  0  0
   20.4765  -17.5284  -15.2604 C   0  0  0  0  0  0  0  0  0  0  0  0
   20.3474  -16.1325  -15.3724 O   0  0  0  0  0  0  0  0  0  0  0  0
   19.4127  -18.1610  -15.1023 O   0  0  0  0  0  0  0  0  0  0  0  0
  2  1  1  6
  3  2  1  0
  4  5  2  0
  4  3  1  0
  6  5  1  0
  7 12  2  0
  7  6  1  0
  8  7  1  0
  9 10  1  0
  9  8  2  0
 10 11  2  0
 11 12  1  0
 12  4  1  0
 13 14  2  0
 13  2  1  0
 16 17  2  0
 16 15  1  0
 18 16  1  0
 19 18  1  1
 19 20  1  0
 20 13  1  0
 21 25  1  0
 21 19  1  0
 22 21  2  0
 24 23  1  6
 24 25  1  0
 24 26  1  0
 26 27  1  0
 28 26  2  0
M  END
$$$$
