WNA.pdb
     RDKit          3D

 28 29  0  0  1  0  0  0  0  0999 V2000
   28.2005  -21.4651  -10.7471 N   0  0  0  0  0  0  0  0  0  0  0  0
   26.9798  -21.0230  -10.1245 C   0  0  1  0  0  0  0  0  0  0  0  0
   27.2010  -19.9308   -9.1295 C   0  0  0  0  0  0  0  0  0  0  0  0
   28.2716  -20.2463   -8.1591 C   0  0  0  0  0  0  0  0  0  0  0  0
   29.4918  -20.8327   -8.5033 C   0  0  0  0  0  0  0  0  0  0  0  0
   30.2578  -20.9740   -7.4088 N   0  0  0  0  0  0  0  0  0  0  0  0
   29.5877  -20.4998   -6.3369 C   0  0  0  0  0  0  0  0  0  0  0  0
   29.8994  -20.4088   -4.9996 C   0  0  0  0  0  0  0  0  0  0  0  0
   28.9781  -19.8658   -4.1199 C   0  0  0  0  0  0  0  0  0  0  0  0
   27.7599  -19.4160   -4.5501 C   0  0  0  0  0  0  0  0  0  0  0  0
   27.4628  -19.5163   -5.9084 C   0  0  0  0  0  0  0  0  0  0  0  0
   28.3600  -20.0499   -6.7991 C   0  0  0  0  0  0  0  0  0  0  0  0
   25.9984  -20.7096  -11.1634 C   0  0  0  0  0  0  0  0  0  0  0  0
   26.2125  -19.7287  -11.9180 O   0  0  0  0  0  0  0  0  0  0  0  0
   26.0066  -21.9445  -14.1022 N   0  0  0  0  0  0  0  0  0  0  0  0
   24.8725  -22.8423  -14.0894 C   0  0  0  0  0  0  0  0  0  0  0  0
   25.0081  -23.8907  -14.7659 O   0  0  0  0  0  0  0  0  0  0  0  0
   23.6924  -22.4514  -13.3021 C   0  0  0  0  0  0  0  0  0  0  0  0
   23.9234  -21.1957  -12.5478 C   0  0  2  0  0  0  0  0  0  0  0  0
   24.8088  -21.4301  -11.3930 N   0  0  0  0  0  0  0  0  0  0  0  0
   22.6067  -20.7100  -12.0090 C   0  0  0  0  0  0  0  0  0  0  0  0
   22.0567  -21.1815  -11.0005 O   0  0  0  0  0  0  0  0  0  0  0  0
   20.1120  -18.0070  -13.0682 C   0  0  0  0  0  0  0  0  0  0  0  0
   20.5738  -19.2160  -12.2823 C   0  0  2  0  0  0  0  0  0  0  0  0
   21.8890  -19.6423  -12.6485 N   0  0  0  0  0  0  0  0  0  0  0  0
   19.5807  -20.2956  -12.3358 C   0  0  0  0  0  0  0  0  0  0  0  0
   19.7162  -21.3687  -13.2344 O   0  0  0  0  0  0  0  0  0  0  0  0
   18.5732  -20.3272  -11.6004 O   0  0  0  0  0  0  0  0  0  0  0  0
  2  1  1  6
  3  2  1  0
  4  5  2  0
  4  3  1  0
  6  5  1  0
  7 12  2  0
  7  6  1  0
  8  7  1  0
  9 10  1  0
  9  8  2  0
 10 11  2  0
 11 12  1  0
 12  4  1  0
 13 14  2  0
 13  2  1  0
 16 17  2  0
 16 15  1  0
 18 16  1  0
 19 18  1  1
 19 20  1  0
 20 13  1  0
 21 25  1  0
 21 19  1  0
 22 21  2  0
 24 23  1  6
 24 25  1  0
 24 26  1  0
 26 27  1  0
 28 26  2  0
M  END
$$$$
