WNA.pdb
     RDKit          3D

 28 29  0  0  1  0  0  0  0  0999 V2000
   25.8378  -22.3171  -12.2651 N   0  0  0  0  0  0  0  0  0  0  0  0
   25.4179  -21.1552  -11.5255 C   0  0  1  0  0  0  0  0  0  0  0  0
   26.4775  -20.1049  -11.4487 C   0  0  0  0  0  0  0  0  0  0  0  0
   27.6273  -20.5093  -10.6109 C   0  0  0  0  0  0  0  0  0  0  0  0
   28.8563  -20.9340  -11.1211 C   0  0  0  0  0  0  0  0  0  0  0  0
   29.7000  -21.2119  -10.1135 N   0  0  0  0  0  0  0  0  0  0  0  0
   29.0737  -20.9871   -8.9387 C   0  0  0  0  0  0  0  0  0  0  0  0
   29.4665  -21.1138   -7.6259 C   0  0  0  0  0  0  0  0  0  0  0  0
   28.5730  -20.8054   -6.6138 C   0  0  0  0  0  0  0  0  0  0  0  0
   27.3035  -20.3765   -6.8888 C   0  0  0  0  0  0  0  0  0  0  0  0
   26.9245  -20.2542   -8.2247 C   0  0  0  0  0  0  0  0  0  0  0  0
   27.7926  -20.5530   -9.2446 C   0  0  0  0  0  0  0  0  0  0  0  0
   24.1361  -20.6885  -12.0541 C   0  0  0  0  0  0  0  0  0  0  0  0
   23.9741  -19.4571  -12.2412 O   0  0  0  0  0  0  0  0  0  0  0  0
   21.7314  -20.4334  -16.9964 N   0  0  0  0  0  0  0  0  0  0  0  0
   21.5949  -20.2344  -15.5701 C   0  0  0  0  0  0  0  0  0  0  0  0
   20.6508  -19.4859  -15.2188 O   0  0  0  0  0  0  0  0  0  0  0  0
   22.5541  -20.9130  -14.6843 C   0  0  0  0  0  0  0  0  0  0  0  0
   21.9884  -21.1461  -13.3335 C   0  0  2  0  0  0  0  0  0  0  0  0
   23.0454  -21.5210  -12.3771 N   0  0  0  0  0  0  0  0  0  0  0  0
   21.0254  -22.2980  -13.4083 C   0  0  0  0  0  0  0  0  0  0  0  0
   21.2910  -23.3869  -13.9430 O   0  0  0  0  0  0  0  0  0  0  0  0
   17.5879  -23.0019  -11.9087 C   0  0  0  0  0  0  0  0  0  0  0  0
   18.7468  -23.2638  -12.8474 C   0  0  2  0  0  0  0  0  0  0  0  0
   19.7052  -22.2021  -12.8498 N   0  0  0  0  0  0  0  0  0  0  0  0
   18.2730  -23.6175  -14.1908 C   0  0  0  0  0  0  0  0  0  0  0  0
   18.4443  -22.7436  -15.2792 O   0  0  0  0  0  0  0  0  0  0  0  0
   17.6994  -24.6958  -14.4456 O   0  0  0  0  0  0  0  0  0  0  0  0
  2  1  1  6
  3  2  1  0
  4  5  2  0
  4  3  1  0
  6  5  1  0
  7 12  2  0
  7  6  1  0
  8  7  1  0
  9 10  1  0
  9  8  2  0
 10 11  2  0
 11 12  1  0
 12  4  1  0
 13 14  2  0
 13  2  1  0
 16 17  2  0
 16 15  1  0
 18 16  1  0
 19 18  1  6
 19 20  1  0
 20 13  1  0
 21 25  1  0
 21 19  1  0
 22 21  2  0
 24 23  1  1
 24 25  1  0
 24 26  1  0
 26 27  1  0
 28 26  2  0
M  END
$$$$
