WNA.pdb
     RDKit          3D

 28 29  0  0  1  0  0  0  0  0999 V2000
   26.8611  -22.3619  -10.5559 N   0  0  0  0  0  0  0  0  0  0  0  0
   26.0581  -21.4448   -9.7895 C   0  0  1  0  0  0  0  0  0  0  0  0
   26.7371  -20.1338   -9.5610 C   0  0  0  0  0  0  0  0  0  0  0  0
   27.9602  -20.2564   -8.7384 C   0  0  0  0  0  0  0  0  0  0  0  0
   29.1741  -20.7602   -9.2114 C   0  0  0  0  0  0  0  0  0  0  0  0
   30.0966  -20.7257   -8.2356 N   0  0  0  0  0  0  0  0  0  0  0  0
   29.5380  -20.2134   -7.1182 C   0  0  0  0  0  0  0  0  0  0  0  0
   30.0232  -19.9664   -5.8543 C   0  0  0  0  0  0  0  0  0  0  0  0
   29.1832  -19.4270   -4.8946 C   0  0  0  0  0  0  0  0  0  0  0  0
   27.8768  -19.1328   -5.1738 C   0  0  0  0  0  0  0  0  0  0  0  0
   27.4040  -19.3897   -6.4598 C   0  0  0  0  0  0  0  0  0  0  0  0
   28.2177  -19.9230   -7.4275 C   0  0  0  0  0  0  0  0  0  0  0  0
   24.7319  -21.3447  -10.3991 C   0  0  0  0  0  0  0  0  0  0  0  0
   24.6409  -21.3733  -11.6514 O   0  0  0  0  0  0  0  0  0  0  0  0
   21.1535  -23.1915   -7.5528 N   0  0  0  0  0  0  0  0  0  0  0  0
   20.9539  -22.8260   -8.9381 C   0  0  0  0  0  0  0  0  0  0  0  0
   20.6476  -23.7708   -9.7055 O   0  0  0  0  0  0  0  0  0  0  0  0
   21.1245  -21.4126   -9.3099 C   0  0  0  0  0  0  0  0  0  0  0  0
   22.1941  -21.2332  -10.3213 C   0  0  2  0  0  0  0  0  0  0  0  0
   23.5234  -21.2158   -9.6849 N   0  0  0  0  0  0  0  0  0  0  0  0
   22.0029  -19.9011  -10.9913 C   0  0  0  0  0  0  0  0  0  0  0  0
   22.4067  -18.8260  -10.5192 O   0  0  0  0  0  0  0  0  0  0  0  0
   22.8026  -18.2694  -13.4754 C   0  0  0  0  0  0  0  0  0  0  0  0
   21.3833  -18.6508  -13.1108 C   0  0  2  0  0  0  0  0  0  0  0  0
   21.3225  -19.7929  -12.2521 N   0  0  0  0  0  0  0  0  0  0  0  0
   20.5443  -18.7826  -14.3079 C   0  0  0  0  0  0  0  0  0  0  0  0
   19.8603  -19.9780  -14.5923 O   0  0  0  0  0  0  0  0  0  0  0  0
   20.3889  -17.8589  -15.1323 O   0  0  0  0  0  0  0  0  0  0  0  0
  2  1  1  6
  3  2  1  0
  4  5  2  0
  4  3  1  0
  6  5  1  0
  7 12  2  0
  7  6  1  0
  8  7  1  0
  9 10  1  0
  9  8  2  0
 10 11  2  0
 11 12  1  0
 12  4  1  0
 13 14  2  0
 13  2  1  0
 16 17  2  0
 16 15  1  0
 18 16  1  0
 19 18  1  1
 19 20  1  0
 20 13  1  0
 21 25  1  0
 21 19  1  0
 22 21  2  0
 24 23  1  6
 24 25  1  0
 24 26  1  0
 26 27  1  0
 28 26  2  0
M  END
$$$$
