MYR.pdb
     RDKit          3D

 32 32  0  0  1  0  0  0  0  0999 V2000
   31.4203  -21.8416  -20.6501 C   0  0  0  0  0  0  0  0  0  0  0  0
   29.6558  -22.0519  -20.7249 S   0  0  0  0  0  0  0  0  0  0  0  0
   28.7565  -21.6273  -19.2464 C   0  0  0  0  0  0  0  0  0  0  0  0
   29.0847  -20.3500  -18.5919 C   0  0  0  0  0  0  0  0  0  0  0  0
   28.2822  -19.1460  -18.8447 C   0  0  2  0  0  0  0  0  0  0  0  0
   28.9431  -17.9959  -19.3533 N   0  0  0  0  0  0  0  0  0  0  0  0
   27.4898  -18.7182  -17.6299 C   0  0  0  0  0  0  0  0  0  0  0  0
   28.0161  -18.0781  -16.6833 O   0  0  0  0  0  0  0  0  0  0  0  0
   26.6352  -12.4802  -17.8418 O   0  0  0  0  0  0  0  0  0  0  0  0
   26.0636  -13.7305  -17.6299 C   0  0  0  0  0  0  0  0  0  0  0  0
   25.8863  -14.6396  -18.6785 C   0  0  0  0  0  0  0  0  0  0  0  0
   25.3171  -15.8771  -18.4510 C   0  0  0  0  0  0  0  0  0  0  0  0
   24.9058  -16.2577  -17.1892 C   0  0  0  0  0  0  0  0  0  0  0  0
   24.3029  -17.5823  -16.9769 C   0  0  0  0  0  0  0  0  0  0  0  0
   25.3026  -18.5858  -16.3882 C   0  0  2  0  0  0  0  0  0  0  0  0
   26.1092  -19.0244  -17.5087 N   0  0  0  0  0  0  0  0  0  0  0  0
   24.4603  -19.6962  -15.8548 C   0  0  0  0  0  0  0  0  0  0  0  0
   23.7845  -20.3611  -16.6819 O   0  0  0  0  0  0  0  0  0  0  0  0
   25.0918  -15.3439  -16.1747 C   0  0  0  0  0  0  0  0  0  0  0  0
   25.6551  -14.1071  -16.3736 C   0  0  0  0  0  0  0  0  0  0  0  0
   25.8739  -21.7387   -7.8652 N   0  0  0  0  0  0  0  0  0  0  0  0
   24.6845  -21.4883   -8.5899 C   0  0  0  0  0  0  0  0  0  0  0  0
   23.5751  -21.2851   -7.9221 N   0  0  0  0  0  0  0  0  0  0  0  0
   24.6191  -21.4400   -9.9963 N   0  0  0  0  0  0  0  0  0  0  0  0
   25.7991  -21.7443  -10.8433 C   0  0  0  0  0  0  0  0  0  0  0  0
   25.3814  -21.5415  -12.2448 C   0  0  0  0  0  0  0  0  0  0  0  0
   23.9867  -21.3448  -12.6061 C   0  0  0  0  0  0  0  0  0  0  0  0
   23.5008  -21.1173  -13.9773 C   0  0  2  0  0  0  0  0  0  0  0  0
   24.4043  -20.0095  -14.4824 N   0  0  0  0  0  0  0  0  0  0  0  0
   22.1612  -20.5532  -14.1715 C   0  0  0  0  0  0  0  0  0  0  0  0
   21.0578  -21.3521  -14.5621 O   0  0  0  0  0  0  0  0  0  0  0  0
   21.8714  -19.3484  -14.0160 O   0  0  0  0  0  0  0  0  0  0  0  0
  2  1  1  0
  3  4  1  0
  3  2  1  0
  5  6  1  1
  5  4  1  0
  7  5  1  0
  8  7  2  0
  9 10  1  0
 10 20  2  0
 10 11  1  0
 11 12  2  0
 12 13  1  0
 13 14  1  0
 15 14  1  6
 15 16  1  0
 16  7  1  0
 17 29  1  0
 17 15  1  0
 18 17  2  0
 19 13  2  0
 20 19  1  0
 22 23  2  0
 22 21  1  0
 24 22  1  0
 25 26  1  0
 25 24  1  0
 26 27  1  0
 28 27  1  1
 28 29  1  0
 30 28  1  0
 30 31  1  0
 32 30  2  0
M  END
$$$$
