MYR.pdb
     RDKit          3D

 32 32  0  0  1  0  0  0  0  0999 V2000
   29.6589  -26.5216  -16.2044 C   0  0  0  0  0  0  0  0  0  0  0  0
   29.0453  -25.6050  -17.5997 S   0  0  0  0  0  0  0  0  0  0  0  0
   27.3251  -25.1450  -17.5351 C   0  0  0  0  0  0  0  0  0  0  0  0
   26.9145  -24.1855  -16.4967 C   0  0  0  0  0  0  0  0  0  0  0  0
   26.9561  -22.7390  -16.7488 C   0  0  2  0  0  0  0  0  0  0  0  0
   28.2193  -22.0899  -16.7145 N   0  0  0  0  0  0  0  0  0  0  0  0
   26.0223  -21.9706  -15.8409 C   0  0  0  0  0  0  0  0  0  0  0  0
   26.3651  -21.6087  -14.6858 O   0  0  0  0  0  0  0  0  0  0  0  0
   28.1444  -16.1751  -16.1734 O   0  0  0  0  0  0  0  0  0  0  0  0
   27.0247  -17.0004  -16.1861 C   0  0  0  0  0  0  0  0  0  0  0  0
   26.1349  -17.0406  -15.1071 C   0  0  0  0  0  0  0  0  0  0  0  0
   25.0278  -17.8657  -15.1357 C   0  0  0  0  0  0  0  0  0  0  0  0
   24.7622  -18.6741  -16.2229 C   0  0  0  0  0  0  0  0  0  0  0  0
   23.5752  -19.5425  -16.2254 C   0  0  0  0  0  0  0  0  0  0  0  0
   23.8066  -20.8414  -15.4428 C   0  0  2  0  0  0  0  0  0  0  0  0
   24.7112  -21.6243  -16.2597 N   0  0  0  0  0  0  0  0  0  0  0  0
   22.4605  -21.4795  -15.3548 C   0  0  0  0  0  0  0  0  0  0  0  0
   21.9980  -22.0058  -16.3998 O   0  0  0  0  0  0  0  0  0  0  0  0
   25.6540  -18.6151  -17.2718 C   0  0  0  0  0  0  0  0  0  0  0  0
   26.7623  -17.8039  -17.2689 C   0  0  0  0  0  0  0  0  0  0  0  0
   17.5334  -26.2231  -11.6097 N   0  0  0  0  0  0  0  0  0  0  0  0
   18.8639  -26.5262  -11.2350 C   0  0  0  0  0  0  0  0  0  0  0  0
   19.2539  -27.7772  -11.2665 N   0  0  0  0  0  0  0  0  0  0  0  0
   19.8042  -25.5584  -10.8303 N   0  0  0  0  0  0  0  0  0  0  0  0
   19.4520  -24.1198  -10.7367 C   0  0  0  0  0  0  0  0  0  0  0  0
   19.3635  -23.6118  -12.1202 C   0  0  0  0  0  0  0  0  0  0  0  0
   20.3902  -22.7513  -12.6858 C   0  0  0  0  0  0  0  0  0  0  0  0
   20.4100  -22.2755  -14.0790 C   0  0  2  0  0  0  0  0  0  0  0  0
   21.7137  -21.5056  -14.1605 N   0  0  0  0  0  0  0  0  0  0  0  0
   19.4213  -21.2792  -14.5033 C   0  0  0  0  0  0  0  0  0  0  0  0
   18.2075  -21.6458  -15.1362 O   0  0  0  0  0  0  0  0  0  0  0  0
   19.5496  -20.0461  -14.3523 O   0  0  0  0  0  0  0  0  0  0  0  0
  2  1  1  0
  3  4  1  0
  3  2  1  0
  5  6  1  1
  5  4  1  0
  7  5  1  0
  8  7  2  0
  9 10  1  0
 10 20  2  0
 10 11  1  0
 11 12  2  0
 12 13  1  0
 13 14  1  0
 15 14  1  6
 15 16  1  0
 16  7  1  0
 17 29  1  0
 17 15  1  0
 18 17  2  0
 19 13  2  0
 20 19  1  0
 22 23  2  0
 22 21  1  0
 24 22  1  0
 25 26  1  0
 25 24  1  0
 26 27  1  0
 28 27  1  1
 28 29  1  0
 30 28  1  0
 30 31  1  0
 32 30  2  0
M  END
$$$$
