MYR.pdb
     RDKit          3D

 32 32  0  0  1  0  0  0  0  0999 V2000
   26.3467  -16.7521  -20.3571 C   0  0  0  0  0  0  0  0  0  0  0  0
   26.6108  -18.0420  -19.1614 S   0  0  0  0  0  0  0  0  0  0  0  0
   25.1522  -18.9029  -18.6081 C   0  0  0  0  0  0  0  0  0  0  0  0
   25.3288  -19.9748  -17.6145 C   0  0  0  0  0  0  0  0  0  0  0  0
   26.6690  -20.3625  -17.1549 C   0  0  2  0  0  0  0  0  0  0  0  0
   27.4022  -21.2929  -17.9391 N   0  0  0  0  0  0  0  0  0  0  0  0
   26.6635  -20.8694  -15.7302 C   0  0  0  0  0  0  0  0  0  0  0  0
   26.0996  -21.9474  -15.4094 O   0  0  0  0  0  0  0  0  0  0  0  0
   27.6940  -20.1652   -6.9079 O   0  0  0  0  0  0  0  0  0  0  0  0
   27.7709  -19.9925   -8.2860 C   0  0  0  0  0  0  0  0  0  0  0  0
   28.6897  -20.7082   -9.0614 C   0  0  0  0  0  0  0  0  0  0  0  0
   28.7531  -20.5249  -10.4287 C   0  0  0  0  0  0  0  0  0  0  0  0
   27.9175  -19.6352  -11.0739 C   0  0  0  0  0  0  0  0  0  0  0  0
   28.0076  -19.4611  -12.5315 C   0  0  0  0  0  0  0  0  0  0  0  0
   27.1678  -20.4958  -13.2911 C   0  0  2  0  0  0  0  0  0  0  0  0
   27.2996  -20.1430  -14.6900 N   0  0  0  0  0  0  0  0  0  0  0  0
   25.7724  -20.2868  -12.8051 C   0  0  0  0  0  0  0  0  0  0  0  0
   25.1779  -19.2427  -13.1784 O   0  0  0  0  0  0  0  0  0  0  0  0
   27.0223  -18.9436  -10.2870 C   0  0  0  0  0  0  0  0  0  0  0  0
   26.9386  -19.1067   -8.9258 C   0  0  0  0  0  0  0  0  0  0  0  0
   18.3081  -22.4326  -15.3192 N   0  0  0  0  0  0  0  0  0  0  0  0
   19.3893  -21.5354  -15.4880 C   0  0  0  0  0  0  0  0  0  0  0  0
   19.2977  -20.6112  -16.4129 N   0  0  0  0  0  0  0  0  0  0  0  0
   20.5664  -21.5721  -14.7149 N   0  0  0  0  0  0  0  0  0  0  0  0
   20.6698  -22.4039  -13.4902 C   0  0  0  0  0  0  0  0  0  0  0  0
   21.4354  -21.6163  -12.5035 C   0  0  0  0  0  0  0  0  0  0  0  0
   22.8812  -21.7262  -12.3935 C   0  0  0  0  0  0  0  0  0  0  0  0
   23.7126  -20.9415  -11.4657 C   0  0  2  0  0  0  0  0  0  0  0  0
   25.1215  -21.2064  -11.9593 N   0  0  0  0  0  0  0  0  0  0  0  0
   23.7833  -21.3478  -10.0585 C   0  0  0  0  0  0  0  0  0  0  0  0
   24.8142  -22.1878   -9.5687 O   0  0  0  0  0  0  0  0  0  0  0  0
   22.9650  -21.0027   -9.1804 O   0  0  0  0  0  0  0  0  0  0  0  0
  2  1  1  0
  3  4  1  0
  3  2  1  0
  5  6  1  6
  5  4  1  0
  7  5  1  0
  8  7  2  0
  9 10  1  0
 10 20  2  0
 10 11  1  0
 11 12  2  0
 12 13  1  0
 13 14  1  0
 15 14  1  1
 15 16  1  0
 16  7  1  0
 17 29  1  0
 17 15  1  0
 18 17  2  0
 19 13  2  0
 20 19  1  0
 22 23  2  0
 22 21  1  0
 24 22  1  0
 25 26  1  0
 25 24  1  0
 26 27  1  0
 28 27  1  6
 28 29  1  0
 30 28  1  0
 30 31  1  0
 32 30  2  0
M  END
$$$$
