MYR.pdb
     RDKit          3D

 32 32  0  0  1  0  0  0  0  0999 V2000
   30.2698  -18.2763  -19.0564 C   0  0  0  0  0  0  0  0  0  0  0  0
   29.1759  -18.8184  -17.7630 S   0  0  0  0  0  0  0  0  0  0  0  0
   28.0037  -20.0829  -18.2121 C   0  0  0  0  0  0  0  0  0  0  0  0
   27.1560  -20.6373  -17.1437 C   0  0  0  0  0  0  0  0  0  0  0  0
   27.7479  -21.3682  -16.0153 C   0  0  2  0  0  0  0  0  0  0  0  0
   28.4820  -22.5516  -16.2959 N   0  0  0  0  0  0  0  0  0  0  0  0
   26.7283  -21.7043  -14.9503 C   0  0  0  0  0  0  0  0  0  0  0  0
   26.1349  -22.8133  -14.9231 O   0  0  0  0  0  0  0  0  0  0  0  0
   21.5342  -20.2026   -7.8680 O   0  0  0  0  0  0  0  0  0  0  0  0
   22.4802  -20.1060   -8.8833 C   0  0  0  0  0  0  0  0  0  0  0  0
   22.1740  -19.5117  -10.1124 C   0  0  0  0  0  0  0  0  0  0  0  0
   23.1249  -19.4238  -11.1100 C   0  0  0  0  0  0  0  0  0  0  0  0
   24.4023  -19.9160  -10.9304 C   0  0  0  0  0  0  0  0  0  0  0  0
   25.3942  -19.8081  -12.0109 C   0  0  0  0  0  0  0  0  0  0  0  0
   25.3432  -21.0078  -12.9655 C   0  0  2  0  0  0  0  0  0  0  0  0
   26.3978  -20.7739  -13.9307 N   0  0  0  0  0  0  0  0  0  0  0  0
   23.9953  -20.9330  -13.6016 C   0  0  0  0  0  0  0  0  0  0  0  0
   23.8355  -20.0952  -14.5265 O   0  0  0  0  0  0  0  0  0  0  0  0
   24.6773  -20.4960   -9.7111 C   0  0  0  0  0  0  0  0  0  0  0  0
   23.7505  -20.5963   -8.7024 C   0  0  0  0  0  0  0  0  0  0  0  0
   20.4328  -26.2036  -18.3990 N   0  0  0  0  0  0  0  0  0  0  0  0
   21.5659  -25.8398  -17.6335 C   0  0  0  0  0  0  0  0  0  0  0  0
   22.7571  -26.0874  -18.1213 N   0  0  0  0  0  0  0  0  0  0  0  0
   21.4927  -25.2197  -16.3707 N   0  0  0  0  0  0  0  0  0  0  0  0
   20.1916  -24.8811  -15.7421 C   0  0  0  0  0  0  0  0  0  0  0  0
   20.3006  -23.4898  -15.2600 C   0  0  0  0  0  0  0  0  0  0  0  0
   21.4463  -23.0356  -14.4881 C   0  0  0  0  0  0  0  0  0  0  0  0
   21.5872  -21.6878  -13.9124 C   0  0  2  0  0  0  0  0  0  0  0  0
   22.9245  -21.7563  -13.2012 N   0  0  0  0  0  0  0  0  0  0  0  0
   20.6746  -21.2740  -12.8419 C   0  0  0  0  0  0  0  0  0  0  0  0
   19.4600  -20.5947  -13.1093 O   0  0  0  0  0  0  0  0  0  0  0  0
   20.8738  -21.4742  -11.6253 O   0  0  0  0  0  0  0  0  0  0  0  0
  2  1  1  0
  3  4  1  0
  3  2  1  0
  5  6  1  6
  5  4  1  0
  7  5  1  0
  8  7  2  0
  9 10  1  0
 10 20  2  0
 10 11  1  0
 11 12  2  0
 12 13  1  0
 13 14  1  0
 15 14  1  1
 15 16  1  0
 16  7  1  0
 17 29  1  0
 17 15  1  0
 18 17  2  0
 19 13  2  0
 20 19  1  0
 22 23  2  0
 22 21  1  0
 24 22  1  0
 25 26  1  0
 25 24  1  0
 26 27  1  0
 28 27  1  1
 28 29  1  0
 30 28  1  0
 30 31  1  0
 32 30  2  0
M  END
$$$$
