MYR.pdb
     RDKit          3D

 32 32  0  0  1  0  0  0  0  0999 V2000
   26.9260  -18.1905   -6.7212 C   0  0  0  0  0  0  0  0  0  0  0  0
   26.6378  -19.7676   -7.4914 S   0  0  0  0  0  0  0  0  0  0  0  0
   27.6691  -20.1510   -8.8930 C   0  0  0  0  0  0  0  0  0  0  0  0
   27.0910  -19.9700  -10.2347 C   0  0  0  0  0  0  0  0  0  0  0  0
   26.5116  -21.1054  -10.9648 C   0  0  2  0  0  0  0  0  0  0  0  0
   27.3992  -22.0327  -11.5735 N   0  0  0  0  0  0  0  0  0  0  0  0
   25.5181  -20.6655  -12.0165 C   0  0  0  0  0  0  0  0  0  0  0  0
   25.8798  -20.0862  -13.0730 O   0  0  0  0  0  0  0  0  0  0  0  0
   26.5469  -24.7067  -16.6955 O   0  0  0  0  0  0  0  0  0  0  0  0
   25.6198  -24.0907  -15.8612 C   0  0  0  0  0  0  0  0  0  0  0  0
   24.9043  -22.9610  -16.2729 C   0  0  0  0  0  0  0  0  0  0  0  0
   23.9873  -22.3614  -15.4322 C   0  0  0  0  0  0  0  0  0  0  0  0
   23.7464  -22.8525  -14.1646 C   0  0  0  0  0  0  0  0  0  0  0  0
   22.7637  -22.1930  -13.2913 C   0  0  0  0  0  0  0  0  0  0  0  0
   23.1754  -20.7586  -12.9364 C   0  0  2  0  0  0  0  0  0  0  0  0
   24.1265  -20.8907  -11.8517 N   0  0  0  0  0  0  0  0  0  0  0  0
   21.9157  -20.1013  -12.4801 C   0  0  0  0  0  0  0  0  0  0  0  0
   21.5456  -20.3140  -11.2966 O   0  0  0  0  0  0  0  0  0  0  0  0
   24.4642  -23.9655  -13.7843 C   0  0  0  0  0  0  0  0  0  0  0  0
   25.3816  -24.5810  -14.6004 C   0  0  0  0  0  0  0  0  0  0  0  0
   20.3193  -16.3231  -18.1861 N   0  0  0  0  0  0  0  0  0  0  0  0
   21.2238  -17.0215  -17.3513 C   0  0  0  0  0  0  0  0  0  0  0  0
   21.9649  -17.9641  -17.8810 N   0  0  0  0  0  0  0  0  0  0  0  0
   21.3809  -16.7621  -15.9756 N   0  0  0  0  0  0  0  0  0  0  0  0
   20.5333  -15.7715  -15.2667 C   0  0  0  0  0  0  0  0  0  0  0  0
   20.1812  -16.3676  -13.9626 C   0  0  0  0  0  0  0  0  0  0  0  0
   19.5345  -17.6664  -13.8653 C   0  0  0  0  0  0  0  0  0  0  0  0
   19.8391  -18.6790  -12.8408 C   0  0  2  0  0  0  0  0  0  0  0  0
   21.1500  -19.2700  -13.3213 N   0  0  0  0  0  0  0  0  0  0  0  0
   18.9758  -19.8592  -12.7301 C   0  0  0  0  0  0  0  0  0  0  0  0
   17.8751  -19.9053  -11.8387 O   0  0  0  0  0  0  0  0  0  0  0  0
   19.1230  -20.9081  -13.3917 O   0  0  0  0  0  0  0  0  0  0  0  0
  2  1  1  0
  3  4  1  0
  3  2  1  0
  5  6  1  6
  5  4  1  0
  7  5  1  0
  8  7  2  0
  9 10  1  0
 10 20  2  0
 10 11  1  0
 11 12  2  0
 12 13  1  0
 13 14  1  0
 15 14  1  1
 15 16  1  0
 16  7  1  0
 17 29  1  0
 17 15  1  0
 18 17  2  0
 19 13  2  0
 20 19  1  0
 22 23  2  0
 22 21  1  0
 24 22  1  0
 25 26  1  0
 25 24  1  0
 26 27  1  0
 28 27  1  6
 28 29  1  0
 30 28  1  0
 30 31  1  0
 32 30  2  0
M  END
$$$$
