MYR.pdb
     RDKit          3D

 32 32  0  0  1  0  0  0  0  0999 V2000
   23.5398  -24.2205  -18.0934 C   0  0  0  0  0  0  0  0  0  0  0  0
   22.4496  -24.7134  -16.7774 S   0  0  0  0  0  0  0  0  0  0  0  0
   22.0991  -23.4715  -15.5487 C   0  0  0  0  0  0  0  0  0  0  0  0
   23.1353  -22.4586  -15.2881 C   0  0  0  0  0  0  0  0  0  0  0  0
   23.2953  -21.8713  -13.9513 C   0  0  2  0  0  0  0  0  0  0  0  0
   22.1484  -21.3178  -13.3219 N   0  0  0  0  0  0  0  0  0  0  0  0
   24.3885  -20.8273  -13.9096 C   0  0  0  0  0  0  0  0  0  0  0  0
   24.1322  -19.5964  -13.8660 O   0  0  0  0  0  0  0  0  0  0  0  0
   24.7533  -20.3380   -7.8372 O   0  0  0  0  0  0  0  0  0  0  0  0
   25.4737  -20.4002   -9.0255 C   0  0  0  0  0  0  0  0  0  0  0  0
   25.6952  -21.6156   -9.6824 C   0  0  0  0  0  0  0  0  0  0  0  0
   26.4127  -21.6599  -10.8616 C   0  0  0  0  0  0  0  0  0  0  0  0
   26.9328  -20.5141  -11.4295 C   0  0  0  0  0  0  0  0  0  0  0  0
   27.6927  -20.5919  -12.6863 C   0  0  0  0  0  0  0  0  0  0  0  0
   26.8349  -20.2286  -13.9050 C   0  0  2  0  0  0  0  0  0  0  0  0
   25.7585  -21.1981  -13.9179 N   0  0  0  0  0  0  0  0  0  0  0  0
   27.7417  -20.4047  -15.0770 C   0  0  0  0  0  0  0  0  0  0  0  0
   28.8365  -20.9926  -14.8807 O   0  0  0  0  0  0  0  0  0  0  0  0
   26.7002  -19.3309  -10.7625 C   0  0  0  0  0  0  0  0  0  0  0  0
   25.9903  -19.2590   -9.5888 C   0  0  0  0  0  0  0  0  0  0  0  0
   28.2478  -26.9781  -16.9163 N   0  0  0  0  0  0  0  0  0  0  0  0
   27.7920  -25.7894  -16.2984 C   0  0  0  0  0  0  0  0  0  0  0  0
   27.1323  -25.8833  -15.1696 N   0  0  0  0  0  0  0  0  0  0  0  0
   28.0081  -24.5002  -16.8238 N   0  0  0  0  0  0  0  0  0  0  0  0
   28.8069  -24.2836  -18.0557 C   0  0  0  0  0  0  0  0  0  0  0  0
   28.7652  -22.8357  -18.3415 C   0  0  0  0  0  0  0  0  0  0  0  0
   28.1369  -21.8940  -17.4287 C   0  0  0  0  0  0  0  0  0  0  0  0
   28.1674  -20.4301  -17.5837 C   0  0  2  0  0  0  0  0  0  0  0  0
   27.4103  -19.9400  -16.3650 N   0  0  0  0  0  0  0  0  0  0  0  0
   27.4259  -19.8176  -18.6906 C   0  0  0  0  0  0  0  0  0  0  0  0
   26.1161  -19.3025  -18.5249 O   0  0  0  0  0  0  0  0  0  0  0  0
   27.8644  -19.6942  -19.8534 O   0  0  0  0  0  0  0  0  0  0  0  0
  2  1  1  0
  3  4  1  0
  3  2  1  0
  5  6  1  6
  5  4  1  0
  7  5  1  0
  8  7  2  0
  9 10  1  0
 10 20  2  0
 10 11  1  0
 11 12  2  0
 12 13  1  0
 13 14  1  0
 15 14  1  1
 15 16  1  0
 16  7  1  0
 17 29  1  0
 17 15  1  0
 18 17  2  0
 19 13  2  0
 20 19  1  0
 22 23  2  0
 22 21  1  0
 24 22  1  0
 25 26  1  0
 25 24  1  0
 26 27  1  0
 28 27  1  6
 28 29  1  0
 30 28  1  0
 30 31  1  0
 32 30  2  0
M  END
$$$$
