MYR.pdb
     RDKit          3D

 32 32  0  0  1  0  0  0  0  0999 V2000
   22.1197  -21.9212  -19.3574 C   0  0  0  0  0  0  0  0  0  0  0  0
   20.7039  -22.3385  -18.3649 S   0  0  0  0  0  0  0  0  0  0  0  0
   20.8954  -22.1283  -16.6059 C   0  0  0  0  0  0  0  0  0  0  0  0
   22.1709  -22.5501  -16.0037 C   0  0  0  0  0  0  0  0  0  0  0  0
   22.4271  -22.3577  -14.5702 C   0  0  2  0  0  0  0  0  0  0  0  0
   21.3192  -22.3927  -13.6817 N   0  0  0  0  0  0  0  0  0  0  0  0
   23.1981  -21.0874  -14.2898 C   0  0  0  0  0  0  0  0  0  0  0  0
   22.6532  -20.0784  -13.7724 O   0  0  0  0  0  0  0  0  0  0  0  0
   25.4048  -21.3007   -8.1223 O   0  0  0  0  0  0  0  0  0  0  0  0
   25.6948  -21.0444   -9.4583 C   0  0  0  0  0  0  0  0  0  0  0  0
   25.6474  -19.7470   -9.9800 C   0  0  0  0  0  0  0  0  0  0  0  0
   25.9382  -19.5097  -11.3090 C   0  0  0  0  0  0  0  0  0  0  0  0
   26.2838  -20.5375  -12.1634 C   0  0  0  0  0  0  0  0  0  0  0  0
   26.5885  -20.2546  -13.5742 C   0  0  0  0  0  0  0  0  0  0  0  0
   25.3521  -19.7837  -14.3504 C   0  0  2  0  0  0  0  0  0  0  0  0
   24.5787  -20.9825  -14.6019 N   0  0  0  0  0  0  0  0  0  0  0  0
   25.8923  -19.2074  -15.6165 C   0  0  0  0  0  0  0  0  0  0  0  0
   26.3498  -20.0098  -16.4708 O   0  0  0  0  0  0  0  0  0  0  0  0
   26.3230  -21.8051  -11.6243 C   0  0  0  0  0  0  0  0  0  0  0  0
   26.0384  -22.0686  -10.3067 C   0  0  0  0  0  0  0  0  0  0  0  0
   28.5675  -12.0345  -17.6471 N   0  0  0  0  0  0  0  0  0  0  0  0
   27.7428  -12.3904  -16.5537 C   0  0  0  0  0  0  0  0  0  0  0  0
   28.1493  -12.0997  -15.3419 N   0  0  0  0  0  0  0  0  0  0  0  0
   26.4999  -13.0399  -16.6880 N   0  0  0  0  0  0  0  0  0  0  0  0
   25.9747  -13.4529  -18.0132 C   0  0  0  0  0  0  0  0  0  0  0  0
   26.3070  -14.8822  -18.1766 C   0  0  0  0  0  0  0  0  0  0  0  0
   26.1050  -15.8418  -17.1029 C   0  0  0  0  0  0  0  0  0  0  0  0
   26.3848  -17.2837  -17.2046 C   0  0  2  0  0  0  0  0  0  0  0  0
   25.9027  -17.8220  -15.8717 N   0  0  0  0  0  0  0  0  0  0  0  0
   27.7792  -17.7351  -17.2483 C   0  0  0  0  0  0  0  0  0  0  0  0
   28.3527  -18.2945  -18.4172 O   0  0  0  0  0  0  0  0  0  0  0  0
   28.5738  -17.6722  -16.2868 O   0  0  0  0  0  0  0  0  0  0  0  0
  2  1  1  0
  3  4  1  0
  3  2  1  0
  5  6  1  1
  5  4  1  0
  7  5  1  0
  8  7  2  0
  9 10  1  0
 10 20  2  0
 10 11  1  0
 11 12  2  0
 12 13  1  0
 13 14  1  0
 15 14  1  1
 15 16  1  0
 16  7  1  0
 17 29  1  0
 17 15  1  0
 18 17  2  0
 19 13  2  0
 20 19  1  0
 22 23  2  0
 22 21  1  0
 24 22  1  0
 25 26  1  0
 25 24  1  0
 26 27  1  0
 28 27  1  1
 28 29  1  0
 30 28  1  0
 30 31  1  0
 32 30  2  0
M  END
$$$$
