MYR.pdb
     RDKit          3D

 32 32  0  0  1  0  0  0  0  0999 V2000
   36.0441  -34.4235  -11.7353 C   0  0  0  0  0  0  0  0  0  0  0  0
   34.6942  -34.9686  -10.7135 S   0  0  0  0  0  0  0  0  0  0  0  0
   34.7001  -34.3769   -9.0328 C   0  0  0  0  0  0  0  0  0  0  0  0
   33.6685  -34.9002   -8.1221 C   0  0  0  0  0  0  0  0  0  0  0  0
   34.0327  -35.4627   -6.8150 C   0  0  2  0  0  0  0  0  0  0  0  0
   34.8062  -36.6540   -6.7912 N   0  0  0  0  0  0  0  0  0  0  0  0
   32.8277  -35.6821   -5.9280 C   0  0  0  0  0  0  0  0  0  0  0  0
   32.4560  -36.8334   -5.5828 O   0  0  0  0  0  0  0  0  0  0  0  0
   26.2568  -33.8359   -0.3012 O   0  0  0  0  0  0  0  0  0  0  0  0
   27.4076  -33.8358   -1.0826 C   0  0  0  0  0  0  0  0  0  0  0  0
   27.6305  -32.8539   -2.0541 C   0  0  0  0  0  0  0  0  0  0  0  0
   28.7785  -32.8682   -2.8215 C   0  0  0  0  0  0  0  0  0  0  0  0
   29.7400  -33.8454   -2.6578 C   0  0  0  0  0  0  0  0  0  0  0  0
   30.9529  -33.8352   -3.4896 C   0  0  0  0  0  0  0  0  0  0  0  0
   30.8273  -34.7589   -4.7078 C   0  0  2  0  0  0  0  0  0  0  0  0
   32.0621  -34.5886   -5.4460 N   0  0  0  0  0  0  0  0  0  0  0  0
   29.6587  -34.2295   -5.4700 C   0  0  0  0  0  0  0  0  0  0  0  0
   29.8522  -33.2295   -6.2087 O   0  0  0  0  0  0  0  0  0  0  0  0
   29.4958  -34.8001   -1.6945 C   0  0  0  0  0  0  0  0  0  0  0  0
   28.3629  -34.8090   -0.9180 C   0  0  0  0  0  0  0  0  0  0  0  0
   25.7038  -33.6395  -11.7135 N   0  0  0  0  0  0  0  0  0  0  0  0
   24.5676  -33.3981  -10.9052 C   0  0  0  0  0  0  0  0  0  0  0  0
   23.3809  -33.4576  -11.4588 N   0  0  0  0  0  0  0  0  0  0  0  0
   24.6331  -33.0988   -9.5301 N   0  0  0  0  0  0  0  0  0  0  0  0
   25.9276  -32.8642   -8.8435 C   0  0  0  0  0  0  0  0  0  0  0  0
   26.5183  -34.1919   -8.5824 C   0  0  0  0  0  0  0  0  0  0  0  0
   27.4709  -34.4064   -7.5049 C   0  0  0  0  0  0  0  0  0  0  0  0
   27.1909  -34.1670   -6.0794 C   0  0  2  0  0  0  0  0  0  0  0  0
   28.3766  -34.8070   -5.3843 N   0  0  0  0  0  0  0  0  0  0  0  0
   26.0491  -34.8441   -5.4565 C   0  0  0  0  0  0  0  0  0  0  0  0
   26.2038  -35.7178   -4.3515 O   0  0  0  0  0  0  0  0  0  0  0  0
   24.8635  -34.7200   -5.8289 O   0  0  0  0  0  0  0  0  0  0  0  0
  2  1  1  0
  3  4  1  0
  3  2  1  0
  5  6  1  6
  5  4  1  0
  7  5  1  0
  8  7  2  0
  9 10  1  0
 10 20  2  0
 10 11  1  0
 11 12  2  0
 12 13  1  0
 13 14  1  0
 15 14  1  1
 15 16  1  0
 16  7  1  0
 17 29  1  0
 17 15  1  0
 18 17  2  0
 19 13  2  0
 20 19  1  0
 22 23  2  0
 22 21  1  0
 24 22  1  0
 25 26  1  0
 25 24  1  0
 26 27  1  0
 28 27  1  6
 28 29  1  0
 30 28  1  0
 30 31  1  0
 32 30  2  0
M  END
$$$$
