PNT.pdb
     RDKit          3D

 23 23  0  0  1  0  0  0  0  0999 V2000
   30.2086  -26.2498  -16.8670 N   0  0  0  0  0  0  0  0  0  0  0  0
   31.5694  -26.6475  -17.1600 C   0  0  0  0  0  0  0  0  0  0  0  0
   32.0978  -25.4443  -17.9102 C   0  0  0  0  0  0  0  0  0  0  0  0
   31.5340  -24.2970  -17.1124 C   0  0  0  0  0  0  0  0  0  0  0  0
   30.3956  -24.9126  -16.3455 C   0  0  1  0  0  0  0  0  0  0  0  0
   29.1419  -24.1767  -16.4449 C   0  0  0  0  0  0  0  0  0  0  0  0
   29.0988  -22.9705  -16.0981 O   0  0  0  0  0  0  0  0  0  0  0  0
   28.0568  -22.8981  -20.1605 N   0  0  0  0  0  0  0  0  0  0  0  0
   27.2684  -22.6082  -19.0009 C   0  0  0  0  0  0  0  0  0  0  0  0
   27.3472  -21.4636  -18.5174 O   0  0  0  0  0  0  0  0  0  0  0  0
   26.4319  -23.7102  -18.4907 C   0  0  0  0  0  0  0  0  0  0  0  0
   26.6833  -23.9997  -17.0273 C   0  0  2  0  0  0  0  0  0  0  0  0
   27.9116  -24.7285  -16.9202 N   0  0  0  0  0  0  0  0  0  0  0  0
   25.4893  -24.7169  -16.5150 C   0  0  0  0  0  0  0  0  0  0  0  0
   25.5277  -25.9645  -16.6075 O   0  0  0  0  0  0  0  0  0  0  0  0
   21.2210  -24.6134  -13.9060 C   0  0  0  0  0  0  0  0  0  0  0  0
   22.2858  -23.8687  -14.6409 C   0  0  1  0  0  0  0  0  0  0  0  0
   22.9791  -23.0894  -13.7126 O   0  0  0  0  0  0  0  0  0  0  0  0
   23.2504  -24.7378  -15.3650 C   0  0  2  0  0  0  0  0  0  0  0  0
   24.3703  -24.0706  -15.9562 N   0  0  0  0  0  0  0  0  0  0  0  0
   22.5985  -25.7023  -16.2912 C   0  0  0  0  0  0  0  0  0  0  0  0
   22.2414  -26.9854  -15.9472 O   0  0  0  0  0  0  0  0  0  0  0  0
   22.3360  -25.3540  -17.4839 O   0  0  0  0  0  0  0  0  0  0  0  0
  1  5  1  0
  1  2  1  0
  2  3  1  0
  4  3  1  0
  5  6  1  6
  5  4  1  0
  6 13  1  0
  7  6  2  0
  8  9  1  0
  9 11  1  0
 10  9  2  0
 12 11  1  6
 12 14  1  0
 13 12  1  0
 14 15  2  0
 14 20  1  0
 17 16  1  1
 17 18  1  0
 19 17  1  0
 19 21  1  0
 19 20  1  6
 21 22  1  0
 23 21  2  0
M  END
$$$$
