PNT.pdb
     RDKit          3D

 23 23  0  0  1  0  0  0  0  0999 V2000
   26.8451  -18.8800  -15.3474 N   0  0  0  0  0  0  0  0  0  0  0  0
   28.1782  -18.6299  -15.8537 C   0  0  0  0  0  0  0  0  0  0  0  0
   28.9585  -19.7942  -15.2833 C   0  0  0  0  0  0  0  0  0  0  0  0
   28.0060  -20.9451  -15.4810 C   0  0  0  0  0  0  0  0  0  0  0  0
   26.6674  -20.2823  -15.6586 C   0  0  1  0  0  0  0  0  0  0  0  0
   25.6125  -20.8328  -14.8174 C   0  0  0  0  0  0  0  0  0  0  0  0
   24.9444  -21.8167  -15.2207 O   0  0  0  0  0  0  0  0  0  0  0  0
   26.8497  -20.5968  -10.4216 N   0  0  0  0  0  0  0  0  0  0  0  0
   25.6978  -21.3567  -10.8038 C   0  0  0  0  0  0  0  0  0  0  0  0
   25.7664  -22.5968  -10.7175 O   0  0  0  0  0  0  0  0  0  0  0  0
   24.5318  -20.5820  -11.2671 C   0  0  0  0  0  0  0  0  0  0  0  0
   24.1962  -20.8503  -12.7176 C   0  0  2  0  0  0  0  0  0  0  0  0
   25.2590  -20.3320  -13.5258 N   0  0  0  0  0  0  0  0  0  0  0  0
   22.8671  -20.2426  -12.9757 C   0  0  0  0  0  0  0  0  0  0  0  0
   22.8448  -18.9921  -13.0213 O   0  0  0  0  0  0  0  0  0  0  0  0
   21.3251  -21.2176  -16.2270 C   0  0  0  0  0  0  0  0  0  0  0  0
   20.8578  -20.1249  -15.3236 C   0  0  1  0  0  0  0  0  0  0  0  0
   19.7045  -19.5723  -15.8840 O   0  0  0  0  0  0  0  0  0  0  0  0
   20.5623  -20.5651  -13.9347 C   0  0  2  0  0  0  0  0  0  0  0  0
   21.6891  -20.9909  -13.1615 N   0  0  0  0  0  0  0  0  0  0  0  0
   19.4118  -21.5037  -13.8432 C   0  0  0  0  0  0  0  0  0  0  0  0
   18.1170  -21.1757  -14.1719 O   0  0  0  0  0  0  0  0  0  0  0  0
   19.5982  -22.6944  -13.4429 O   0  0  0  0  0  0  0  0  0  0  0  0
  1  5  1  0
  1  2  1  0
  2  3  1  0
  4  3  1  0
  5  6  1  1
  5  4  1  0
  6 13  1  0
  7  6  2  0
  8  9  1  0
  9 11  1  0
 10  9  2  0
 12 11  1  1
 12 14  1  0
 13 12  1  0
 14 15  2  0
 14 20  1  0
 17 16  1  6
 17 18  1  0
 19 17  1  0
 19 21  1  0
 19 20  1  6
 21 22  1  0
 23 21  2  0
M  END
$$$$
