PNT.pdb
     RDKit          3D

 23 23  0  0  1  0  0  0  0  0999 V2000
   29.7918  -20.6555  -10.3888 N   0  0  0  0  0  0  0  0  0  0  0  0
   31.1582  -21.0934  -10.1960 C   0  0  0  0  0  0  0  0  0  0  0  0
   31.1772  -22.4121  -10.9379 C   0  0  0  0  0  0  0  0  0  0  0  0
   30.3889  -22.0909  -12.1814 C   0  0  0  0  0  0  0  0  0  0  0  0
   29.6133  -20.8563  -11.8110 C   0  0  1  0  0  0  0  0  0  0  0  0
   28.1896  -20.9331  -12.1121 C   0  0  0  0  0  0  0  0  0  0  0  0
   27.8135  -21.1674  -13.2871 O   0  0  0  0  0  0  0  0  0  0  0  0
   23.1068  -21.3926  -11.5722 N   0  0  0  0  0  0  0  0  0  0  0  0
   23.5414  -20.9160  -10.2937 C   0  0  0  0  0  0  0  0  0  0  0  0
   22.6873  -20.8078   -9.3943 O   0  0  0  0  0  0  0  0  0  0  0  0
   24.9760  -20.5978  -10.1713 C   0  0  0  0  0  0  0  0  0  0  0  0
   25.7497  -20.9126  -11.4325 C   0  0  2  0  0  0  0  0  0  0  0  0
   27.1456  -20.7585  -11.1511 N   0  0  0  0  0  0  0  0  0  0  0  0
   25.2286  -20.0188  -12.4965 C   0  0  0  0  0  0  0  0  0  0  0  0
   25.4247  -18.7956  -12.3181 O   0  0  0  0  0  0  0  0  0  0  0  0
   24.5645  -21.1713  -16.6875 C   0  0  0  0  0  0  0  0  0  0  0  0
   24.8738  -19.8729  -16.0188 C   0  0  1  0  0  0  0  0  0  0  0  0
   24.5502  -18.8471  -16.9092 O   0  0  0  0  0  0  0  0  0  0  0  0
   24.1471  -19.6560  -14.7402 C   0  0  2  0  0  0  0  0  0  0  0  0
   24.5542  -20.4801  -13.6430 N   0  0  0  0  0  0  0  0  0  0  0  0
   22.6693  -19.5985  -14.9014 C   0  0  0  0  0  0  0  0  0  0  0  0
   21.7839  -20.3954  -14.2135 O   0  0  0  0  0  0  0  0  0  0  0  0
   22.1543  -18.7707  -15.7152 O   0  0  0  0  0  0  0  0  0  0  0  0
  1  5  1  0
  1  2  1  0
  2  3  1  0
  4  3  1  0
  5  6  1  1
  5  4  1  0
  6 13  1  0
  7  6  2  0
  8  9  1  0
  9 11  1  0
 10  9  2  0
 12 11  1  1
 12 14  1  0
 13 12  1  0
 14 15  2  0
 14 20  1  0
 17 16  1  6
 17 18  1  0
 19 17  1  0
 19 21  1  0
 19 20  1  1
 21 22  1  0
 23 21  2  0
M  END
$$$$
