PNT.pdb
     RDKit          3D

 23 23  0  0  1  0  0  0  0  0999 V2000
   19.9943  -12.4915  -15.8131 N   0  0  0  0  0  0  0  0  0  0  0  0
   19.7773  -13.8629  -16.2229 C   0  0  0  0  0  0  0  0  0  0  0  0
   18.8405  -13.6986  -17.3998 C   0  0  0  0  0  0  0  0  0  0  0  0
   19.4346  -12.5151  -18.1188 C   0  0  0  0  0  0  0  0  0  0  0  0
   20.2878  -11.8470  -17.0754 C   0  0  1  0  0  0  0  0  0  0  0  0
   20.0622  -10.4130  -16.9485 C   0  0  0  0  0  0  0  0  0  0  0  0
   20.3344   -9.6525  -17.9100 O   0  0  0  0  0  0  0  0  0  0  0  0
   17.0924   -8.4735  -17.1496 N   0  0  0  0  0  0  0  0  0  0  0  0
   16.8481   -8.2132  -15.7629 C   0  0  0  0  0  0  0  0  0  0  0  0
   15.6663   -8.0664  -15.3998 O   0  0  0  0  0  0  0  0  0  0  0  0
   18.0378   -8.1447  -14.8943 C   0  0  0  0  0  0  0  0  0  0  0  0
   19.3261   -8.3623  -15.6569 C   0  0  2  0  0  0  0  0  0  0  0  0
   19.5389   -9.7731  -15.7820 N   0  0  0  0  0  0  0  0  0  0  0  0
   20.3928   -7.6363  -14.9239 C   0  0  0  0  0  0  0  0  0  0  0  0
   20.7257   -8.1319  -13.8239 O   0  0  0  0  0  0  0  0  0  0  0  0
   23.6499   -6.2313  -16.8473 C   0  0  0  0  0  0  0  0  0  0  0  0
   23.1388   -5.2759  -15.8203 C   0  0  1  0  0  0  0  0  0  0  0  0
   22.5037   -4.2287  -16.4909 O   0  0  0  0  0  0  0  0  0  0  0  0
   22.1909   -5.8766  -14.8453 C   0  0  2  0  0  0  0  0  0  0  0  0
   21.0115   -6.4657  -15.4027 N   0  0  0  0  0  0  0  0  0  0  0  0
   21.9015   -4.9962  -13.6816 C   0  0  0  0  0  0  0  0  0  0  0  0
   22.8390   -4.6069  -12.7533 O   0  0  0  0  0  0  0  0  0  0  0  0
   20.7251   -4.5531  -13.5018 O   0  0  0  0  0  0  0  0  0  0  0  0
  1  5  1  0
  1  2  1  0
  2  3  1  0
  4  3  1  0
  5  6  1  1
  5  4  1  0
  6 13  1  0
  7  6  2  0
  8  9  1  0
  9 11  1  0
 10  9  2  0
 12 11  1  1
 12 14  1  0
 13 12  1  0
 14 15  2  0
 14 20  1  0
 17 16  1  6
 17 18  1  0
 19 17  1  0
 19 21  1  0
 19 20  1  6
 21 22  1  0
 23 21  2  0
M  END
$$$$
