PNT.pdb
     RDKit          3D

 23 23  0  0  1  0  0  0  0  0999 V2000
   16.5812  -12.3956  -12.6583 N   0  0  0  0  0  0  0  0  0  0  0  0
   16.6085  -13.5365  -13.5492 C   0  0  0  0  0  0  0  0  0  0  0  0
   15.3136  -13.3731  -14.3148 C   0  0  0  0  0  0  0  0  0  0  0  0
   15.2832  -11.8899  -14.5792 C   0  0  0  0  0  0  0  0  0  0  0  0
   16.2352  -11.3203  -13.5632 C   0  0  1  0  0  0  0  0  0  0  0  0
   15.6951  -10.2028  -12.7998 C   0  0  0  0  0  0  0  0  0  0  0  0
   15.3100   -9.1682  -13.3983 O   0  0  0  0  0  0  0  0  0  0  0  0
   12.6146  -11.5081   -8.9870 N   0  0  0  0  0  0  0  0  0  0  0  0
   12.9427  -10.2841   -9.6540 C   0  0  0  0  0  0  0  0  0  0  0  0
   12.0756   -9.7722  -10.3861 O   0  0  0  0  0  0  0  0  0  0  0  0
   14.2930   -9.7477   -9.4020 C   0  0  0  0  0  0  0  0  0  0  0  0
   14.9146   -9.1371  -10.6387 C   0  0  2  0  0  0  0  0  0  0  0  0
   15.5603  -10.1810  -11.3766 N   0  0  0  0  0  0  0  0  0  0  0  0
   15.8168   -8.0514  -10.1805 C   0  0  0  0  0  0  0  0  0  0  0  0
   16.7808   -8.4142   -9.4696 O   0  0  0  0  0  0  0  0  0  0  0  0
   17.9800   -3.7256  -10.8317 C   0  0  0  0  0  0  0  0  0  0  0  0
   16.9820   -4.7575  -11.2413 C   0  0  1  0  0  0  0  0  0  0  0  0
   17.5660   -5.5440  -12.2363 O   0  0  0  0  0  0  0  0  0  0  0  0
   16.5213   -5.6353  -10.1335 C   0  0  2  0  0  0  0  0  0  0  0  0
   15.6317   -6.6937  -10.5042 N   0  0  0  0  0  0  0  0  0  0  0  0
   16.0570   -4.8838   -8.9365 C   0  0  0  0  0  0  0  0  0  0  0  0
   16.8801   -4.4690   -7.9155 O   0  0  0  0  0  0  0  0  0  0  0  0
   14.8287   -4.5849   -8.8155 O   0  0  0  0  0  0  0  0  0  0  0  0
  1  5  1  0
  1  2  1  0
  2  3  1  0
  4  3  1  0
  5  6  1  1
  5  4  1  0
  6 13  1  0
  7  6  2  0
  8  9  1  0
  9 11  1  0
 10  9  2  0
 12 11  1  1
 12 14  1  0
 13 12  1  0
 14 15  2  0
 14 20  1  0
 17 16  1  1
 17 18  1  0
 19 17  1  0
 19 21  1  0
 19 20  1  6
 21 22  1  0
 23 21  2  0
M  END
$$$$
