PNT.pdb
     RDKit          3D

 23 23  0  0  1  0  0  0  0  0999 V2000
   26.0735  -19.9435  -15.7377 N   0  0  0  0  0  0  0  0  0  0  0  0
   27.2353  -20.7065  -16.1425 C   0  0  0  0  0  0  0  0  0  0  0  0
   26.7350  -21.4133  -17.3834 C   0  0  0  0  0  0  0  0  0  0  0  0
   25.9522  -20.3278  -18.0761 C   0  0  0  0  0  0  0  0  0  0  0  0
   25.6711  -19.3304  -16.9856 C   0  0  1  0  0  0  0  0  0  0  0  0
   24.2750  -18.9231  -16.8945 C   0  0  0  0  0  0  0  0  0  0  0  0
   23.7494  -18.2858  -17.8403 O   0  0  0  0  0  0  0  0  0  0  0  0
   19.3796  -20.1125  -15.7444 N   0  0  0  0  0  0  0  0  0  0  0  0
   19.9505  -19.5075  -14.5788 C   0  0  0  0  0  0  0  0  0  0  0  0
   19.1714  -19.0470  -13.7238 O   0  0  0  0  0  0  0  0  0  0  0  0
   21.4234  -19.4914  -14.5092 C   0  0  0  0  0  0  0  0  0  0  0  0
   22.0521  -18.7824  -15.6885 C   0  0  2  0  0  0  0  0  0  0  0  0
   23.4202  -19.1960  -15.7814 N   0  0  0  0  0  0  0  0  0  0  0  0
   21.8568  -17.3269  -15.4748 C   0  0  0  0  0  0  0  0  0  0  0  0
   22.4195  -16.8491  -14.4641 O   0  0  0  0  0  0  0  0  0  0  0  0
   22.9271  -14.4101  -17.5546 C   0  0  0  0  0  0  0  0  0  0  0  0
   21.4614  -14.2662  -17.3104 C   0  0  1  0  0  0  0  0  0  0  0  0
   20.7964  -14.6248  -18.4846 O   0  0  0  0  0  0  0  0  0  0  0  0
   20.9455  -15.0911  -16.1864 C   0  0  2  0  0  0  0  0  0  0  0  0
   21.0965  -16.5072  -16.3304 N   0  0  0  0  0  0  0  0  0  0  0  0
   19.5813  -14.6985  -15.7414 C   0  0  0  0  0  0  0  0  0  0  0  0
   18.4940  -15.5411  -15.7432 O   0  0  0  0  0  0  0  0  0  0  0  0
   19.3684  -13.5185  -15.3231 O   0  0  0  0  0  0  0  0  0  0  0  0
  1  5  1  0
  1  2  1  0
  2  3  1  0
  4  3  1  0
  5  6  1  1
  5  4  1  0
  6 13  1  0
  7  6  2  0
  8  9  1  0
  9 11  1  0
 10  9  2  0
 12 11  1  1
 12 14  1  0
 13 12  1  0
 14 15  2  0
 14 20  1  0
 17 16  1  6
 17 18  1  0
 19 17  1  0
 19 21  1  0
 19 20  1  6
 21 22  1  0
 23 21  2  0
M  END
$$$$
