PNT.pdb
     RDKit          3D

 23 23  0  0  1  0  0  0  0  0999 V2000
   18.8981  -15.5533  -16.4667 N   0  0  0  0  0  0  0  0  0  0  0  0
   18.1004  -16.6047  -17.0617 C   0  0  0  0  0  0  0  0  0  0  0  0
   16.7226  -15.9798  -17.0926 C   0  0  0  0  0  0  0  0  0  0  0  0
   17.0206  -14.5701  -17.5338 C   0  0  0  0  0  0  0  0  0  0  0  0
   18.4842  -14.3969  -17.2323 C   0  0  1  0  0  0  0  0  0  0  0  0
   18.8007  -13.1861  -16.4860 C   0  0  0  0  0  0  0  0  0  0  0  0
   18.5890  -13.1440  -15.2489 O   0  0  0  0  0  0  0  0  0  0  0  0
   22.8402  -11.1895  -17.9119 N   0  0  0  0  0  0  0  0  0  0  0  0
   22.0783  -10.8685  -16.7427 C   0  0  0  0  0  0  0  0  0  0  0  0
   22.5248  -11.2367  -15.6404 O   0  0  0  0  0  0  0  0  0  0  0  0
   20.8252  -10.1242  -16.9669 C   0  0  0  0  0  0  0  0  0  0  0  0
   19.6289  -10.7975  -16.3310 C   0  0  2  0  0  0  0  0  0  0  0  0
   19.3515  -11.9984  -17.0605 N   0  0  0  0  0  0  0  0  0  0  0  0
   18.5248   -9.8059  -16.3248 C   0  0  0  0  0  0  0  0  0  0  0  0
   17.9287   -9.6545  -17.4148 O   0  0  0  0  0  0  0  0  0  0  0  0
   15.1194   -7.2068  -13.8399 C   0  0  0  0  0  0  0  0  0  0  0  0
   16.3130   -8.1033  -13.8355 C   0  0  1  0  0  0  0  0  0  0  0  0
   15.8811   -9.3864  -13.4936 O   0  0  0  0  0  0  0  0  0  0  0  0
   17.0375   -8.1622  -15.1323 C   0  0  2  0  0  0  0  0  0  0  0  0
   18.1454   -9.0668  -15.1881 N   0  0  0  0  0  0  0  0  0  0  0  0
   17.3581   -6.8220  -15.6928 C   0  0  0  0  0  0  0  0  0  0  0  0
   16.5241   -6.1108  -16.5240 O   0  0  0  0  0  0  0  0  0  0  0  0
   18.4625   -6.2647  -15.4055 O   0  0  0  0  0  0  0  0  0  0  0  0
  1  5  1  0
  1  2  1  0
  2  3  1  0
  4  3  1  0
  5  6  1  1
  5  4  1  0
  6 13  1  0
  7  6  2  0
  8  9  1  0
  9 11  1  0
 10  9  2  0
 12 11  1  6
 12 14  1  0
 13 12  1  0
 14 15  2  0
 14 20  1  0
 17 16  1  6
 17 18  1  0
 19 17  1  0
 19 21  1  0
 19 20  1  1
 21 22  1  0
 23 21  2  0
M  END
$$$$
