PNT.pdb
     RDKit          3D

 23 23  0  0  1  0  0  0  0  0999 V2000
   20.1543  -12.7458  -15.7458 N   0  0  0  0  0  0  0  0  0  0  0  0
   20.0021  -14.1640  -15.9937 C   0  0  0  0  0  0  0  0  0  0  0  0
   18.7553  -14.2050  -16.8503 C   0  0  0  0  0  0  0  0  0  0  0  0
   18.9670  -13.0376  -17.7794 C   0  0  0  0  0  0  0  0  0  0  0  0
   19.9923  -12.1930  -17.0736 C   0  0  1  0  0  0  0  0  0  0  0  0
   19.6354  -10.7841  -16.9690 C   0  0  0  0  0  0  0  0  0  0  0  0
   19.8615  -10.0113  -17.9327 O   0  0  0  0  0  0  0  0  0  0  0  0
   15.3098  -10.1217  -14.9320 N   0  0  0  0  0  0  0  0  0  0  0  0
   16.2278   -9.3528  -15.7171 C   0  0  0  0  0  0  0  0  0  0  0  0
   16.0210   -9.2770  -16.9424 O   0  0  0  0  0  0  0  0  0  0  0  0
   17.3399   -8.7203  -14.9838 C   0  0  0  0  0  0  0  0  0  0  0  0
   18.6511   -8.8041  -15.7337 C   0  0  2  0  0  0  0  0  0  0  0  0
   19.0281  -10.1829  -15.8228 N   0  0  0  0  0  0  0  0  0  0  0  0
   19.6197   -7.9411  -15.0128 C   0  0  0  0  0  0  0  0  0  0  0  0
   19.7940   -8.2173  -13.8046 O   0  0  0  0  0  0  0  0  0  0  0  0
   23.2741   -7.4692  -16.0462 C   0  0  0  0  0  0  0  0  0  0  0  0
   22.6645   -6.1286  -15.8021 C   0  0  1  0  0  0  0  0  0  0  0  0
   22.4131   -5.5420  -17.0440 O   0  0  0  0  0  0  0  0  0  0  0  0
   21.4033   -6.1651  -15.0158 C   0  0  2  0  0  0  0  0  0  0  0  0
   20.3142   -6.8747  -15.6150 N   0  0  0  0  0  0  0  0  0  0  0  0
   21.0013   -4.8370  -14.4794 C   0  0  0  0  0  0  0  0  0  0  0  0
   21.6919   -4.1542  -13.5053 O   0  0  0  0  0  0  0  0  0  0  0  0
   19.9606   -4.2634  -14.9274 O   0  0  0  0  0  0  0  0  0  0  0  0
  1  5  1  0
  1  2  1  0
  2  3  1  0
  4  3  1  0
  5  6  1  1
  5  4  1  0
  6 13  1  0
  7  6  2  0
  8  9  1  0
  9 11  1  0
 10  9  2  0
 12 11  1  1
 12 14  1  0
 13 12  1  0
 14 15  2  0
 14 20  1  0
 17 16  1  6
 17 18  1  0
 19 17  1  0
 19 21  1  0
 19 20  1  6
 21 22  1  0
 23 21  2  0
M  END
$$$$
