PNT.pdb
     RDKit          3D

 23 23  0  0  1  0  0  0  0  0999 V2000
   19.1037   -9.9584  -16.9354 N   0  0  0  0  0  0  0  0  0  0  0  0
   19.1808  -11.1858  -17.6994 C   0  0  0  0  0  0  0  0  0  0  0  0
   20.0698  -12.0469  -16.8289 C   0  0  0  0  0  0  0  0  0  0  0  0
   19.5461  -11.7525  -15.4469 C   0  0  0  0  0  0  0  0  0  0  0  0
   18.8059  -10.4529  -15.6081 C   0  0  1  0  0  0  0  0  0  0  0  0
   19.1608   -9.4379  -14.6247 C   0  0  0  0  0  0  0  0  0  0  0  0
   18.9289   -9.6423  -13.4075 O   0  0  0  0  0  0  0  0  0  0  0  0
   21.2693   -5.4485  -12.2562 N   0  0  0  0  0  0  0  0  0  0  0  0
   21.9166   -5.5026  -13.5323 C   0  0  0  0  0  0  0  0  0  0  0  0
   22.9177   -4.7830  -13.7057 O   0  0  0  0  0  0  0  0  0  0  0  0
   21.3231   -6.4177  -14.5246 C   0  0  0  0  0  0  0  0  0  0  0  0
   20.1603   -7.2064  -13.9638 C   0  0  2  0  0  0  0  0  0  0  0  0
   19.7723   -8.1837  -14.9363 N   0  0  0  0  0  0  0  0  0  0  0  0
   19.1018   -6.2280  -13.6107 C   0  0  0  0  0  0  0  0  0  0  0  0
   18.5953   -5.6092  -14.5735 O   0  0  0  0  0  0  0  0  0  0  0  0
   17.9255   -5.0192   -9.4812 C   0  0  0  0  0  0  0  0  0  0  0  0
   16.9889   -5.4553  -10.5589 C   0  0  1  0  0  0  0  0  0  0  0  0
   15.7956   -4.7482  -10.3984 O   0  0  0  0  0  0  0  0  0  0  0  0
   17.5015   -5.2403  -11.9376 C   0  0  2  0  0  0  0  0  0  0  0  0
   18.6708   -5.9857  -12.2925 N   0  0  0  0  0  0  0  0  0  0  0  0
   17.5949   -3.8050  -12.3175 C   0  0  0  0  0  0  0  0  0  0  0  0
   18.7489   -3.1909  -12.7456 O   0  0  0  0  0  0  0  0  0  0  0  0
   16.5627   -3.0675  -12.2587 O   0  0  0  0  0  0  0  0  0  0  0  0
  1  5  1  0
  1  2  1  0
  2  3  1  0
  4  3  1  0
  5  6  1  1
  5  4  1  0
  6 13  1  0
  7  6  2  0
  8  9  1  0
  9 11  1  0
 10  9  2  0
 12 11  1  6
 12 14  1  0
 13 12  1  0
 14 15  2  0
 14 20  1  0
 17 16  1  1
 17 18  1  0
 19 17  1  0
 19 21  1  0
 19 20  1  1
 21 22  1  0
 23 21  2  0
M  END
$$$$
