NPW.pdb
     RDKit          3D

 30 32  0  0  1  0  0  0  0  0999 V2000
   28.7368  -22.0508  -18.1328 N   0  0  0  0  0  0  0  0  0  0  0  0
   29.1560  -22.5813  -16.8647 C   0  0  0  0  0  0  0  0  0  0  0  0
   29.8363  -23.6217  -16.9091 O   0  0  0  0  0  0  0  0  0  0  0  0
   28.8122  -21.9468  -15.5933 C   0  0  0  0  0  0  0  0  0  0  0  0
   27.8196  -20.8495  -15.7135 C   0  0  2  0  0  0  0  0  0  0  0  0
   28.3645  -19.7316  -16.5043 N   0  0  0  0  0  0  0  0  0  0  0  0
   27.3934  -20.2940  -14.3676 C   0  0  0  0  0  0  0  0  0  0  0  0
   28.2952  -19.8977  -13.6199 O   0  0  0  0  0  0  0  0  0  0  0  0
   26.0348  -20.2237  -13.9703 N   0  0  0  0  0  0  0  0  0  0  0  0
   25.0019  -19.7574  -14.9267 C   0  0  0  0  0  0  0  0  0  0  0  0
   23.6971  -20.3811  -14.4195 C   0  0  0  0  0  0  0  0  0  0  0  0
   24.1808  -21.3644  -13.3337 C   0  0  0  0  0  0  0  0  0  0  0  0
   25.3057  -20.4833  -12.7808 C   0  0  1  0  0  0  0  0  0  0  0  0
   25.9428  -21.0120  -11.6083 C   0  0  0  0  0  0  0  0  0  0  0  0
   26.8560  -21.8547  -11.6331 O   0  0  0  0  0  0  0  0  0  0  0  0
   25.5682  -20.5984  -10.2655 N   0  0  0  0  0  0  0  0  0  0  0  0
   25.9262  -21.3532   -9.1137 C   0  0  1  0  0  0  0  0  0  0  0  0
   27.3531  -21.1013   -8.7115 C   0  0  0  0  0  0  0  0  0  0  0  0
   27.5033  -20.1156   -7.6318 C   0  0  0  0  0  0  0  0  0  0  0  0
   26.8587  -18.8683   -7.6284 C   0  0  0  0  0  0  0  0  0  0  0  0
   27.2070  -18.2576   -6.4909 N   0  0  0  0  0  0  0  0  0  0  0  0
   28.0408  -19.0557   -5.7749 C   0  0  0  0  0  0  0  0  0  0  0  0
   28.6697  -18.8864   -4.5647 C   0  0  0  0  0  0  0  0  0  0  0  0
   29.4948  -19.8420   -4.0183 C   0  0  0  0  0  0  0  0  0  0  0  0
   29.6879  -21.0194   -4.7347 C   0  0  0  0  0  0  0  0  0  0  0  0
   29.0736  -21.2217   -5.9509 C   0  0  0  0  0  0  0  0  0  0  0  0
   28.2479  -20.2451   -6.4773 C   0  0  0  0  0  0  0  0  0  0  0  0
   25.0275  -21.1290   -7.9619 C   0  0  0  0  0  0  0  0  0  0  0  0
   24.0757  -20.1358   -8.0038 O   0  0  0  0  0  0  0  0  0  0  0  0
   25.1308  -21.8395   -6.9434 O   0  0  0  0  0  0  0  0  0  0  0  0
  2  1  1  0
  3  2  2  0
  4  2  1  0
  4  5  1  0
  5  6  1  6
  7  5  1  0
  7  8  2  0
  9  7  1  0
 10  9  1  0
 11 12  1  0
 11 10  1  0
 12 13  1  0
 13  9  1  0
 13 14  1  1
 14 15  2  0
 16 14  1  0
 16 17  1  0
 17 28  1  0
 17 18  1  1
 19 18  1  0
 20 19  2  0
 21 22  1  0
 21 20  1  0
 22 27  2  0
 23 22  1  0
 23 24  2  0
 24 25  1  0
 25 26  2  0
 27 19  1  0
 27 26  1  0
 28 29  1  0
 30 28  2  0
M  END
$$$$
