NPW.pdb
     RDKit          3D

 30 32  0  0  1  0  0  0  0  0999 V2000
   27.0195  -21.4953  -20.8726 N   0  0  0  0  0  0  0  0  0  0  0  0
   27.0123  -21.5554  -19.4368 C   0  0  0  0  0  0  0  0  0  0  0  0
   26.3617  -20.6664  -18.8591 O   0  0  0  0  0  0  0  0  0  0  0  0
   27.7205  -22.5926  -18.6887 C   0  0  0  0  0  0  0  0  0  0  0  0
   28.8194  -22.0783  -17.8334 C   0  0  2  0  0  0  0  0  0  0  0  0
   29.9532  -23.0196  -17.8112 N   0  0  0  0  0  0  0  0  0  0  0  0
   28.3867  -21.8479  -16.3977 C   0  0  0  0  0  0  0  0  0  0  0  0
   28.0533  -22.8480  -15.7512 O   0  0  0  0  0  0  0  0  0  0  0  0
   28.3605  -20.5588  -15.8095 N   0  0  0  0  0  0  0  0  0  0  0  0
   29.3261  -19.5211  -16.2452 C   0  0  0  0  0  0  0  0  0  0  0  0
   28.6423  -18.1919  -15.9072 C   0  0  0  0  0  0  0  0  0  0  0  0
   27.2116  -18.6241  -15.5250 C   0  0  0  0  0  0  0  0  0  0  0  0
   27.6016  -19.9151  -14.7978 C   0  0  1  0  0  0  0  0  0  0  0  0
   26.5067  -20.5742  -14.1445 C   0  0  0  0  0  0  0  0  0  0  0  0
   25.5184  -21.0369  -14.7396 O   0  0  0  0  0  0  0  0  0  0  0  0
   26.4592  -20.7619  -12.7033 N   0  0  0  0  0  0  0  0  0  0  0  0
   25.4181  -21.4960  -12.0697 C   0  0  1  0  0  0  0  0  0  0  0  0
   25.8783  -22.0946  -10.7693 C   0  0  0  0  0  0  0  0  0  0  0  0
   26.2723  -21.1003   -9.7614 C   0  0  0  0  0  0  0  0  0  0  0  0
   25.3808  -20.1709   -9.2021 C   0  0  0  0  0  0  0  0  0  0  0  0
   26.0782  -19.4534   -8.3152 N   0  0  0  0  0  0  0  0  0  0  0  0
   27.3669  -19.8813   -8.2861 C   0  0  0  0  0  0  0  0  0  0  0  0
   28.4609  -19.4721   -7.5619 C   0  0  0  0  0  0  0  0  0  0  0  0
   29.7002  -20.0534   -7.6993 C   0  0  0  0  0  0  0  0  0  0  0  0
   29.8309  -21.0951   -8.6129 C   0  0  0  0  0  0  0  0  0  0  0  0
   28.7554  -21.5298   -9.3555 C   0  0  0  0  0  0  0  0  0  0  0  0
   27.5200  -20.9287   -9.1974 C   0  0  0  0  0  0  0  0  0  0  0  0
   24.1875  -20.7053  -11.8567 C   0  0  0  0  0  0  0  0  0  0  0  0
   22.9787  -21.3354  -11.6670 O   0  0  0  0  0  0  0  0  0  0  0  0
   24.2400  -19.4603  -11.8511 O   0  0  0  0  0  0  0  0  0  0  0  0
  2  1  1  0
  3  2  2  0
  4  2  1  0
  4  5  1  0
  5  6  1  1
  7  5  1  0
  7  8  2  0
  9  7  1  0
 10  9  1  0
 11 12  1  0
 11 10  1  0
 12 13  1  0
 13  9  1  0
 13 14  1  6
 14 15  2  0
 16 14  1  0
 16 17  1  0
 17 28  1  0
 17 18  1  1
 19 18  1  0
 20 19  2  0
 21 22  1  0
 21 20  1  0
 22 27  2  0
 23 22  1  0
 23 24  2  0
 24 25  1  0
 25 26  2  0
 27 19  1  0
 27 26  1  0
 28 29  1  0
 30 28  2  0
M  END
$$$$
