NPW.pdb
     RDKit          3D

 30 32  0  0  1  0  0  0  0  0999 V2000
   26.1026  -22.8816  -20.2734 N   0  0  0  0  0  0  0  0  0  0  0  0
   26.3523  -21.9240  -19.2313 C   0  0  0  0  0  0  0  0  0  0  0  0
   26.1894  -20.7300  -19.5402 O   0  0  0  0  0  0  0  0  0  0  0  0
   26.7711  -22.3150  -17.8864 C   0  0  0  0  0  0  0  0  0  0  0  0
   28.1159  -21.8170  -17.5026 C   0  0  2  0  0  0  0  0  0  0  0  0
   29.1714  -22.7205  -17.9943 N   0  0  0  0  0  0  0  0  0  0  0  0
   28.2867  -21.6870  -16.0008 C   0  0  0  0  0  0  0  0  0  0  0  0
   28.3475  -22.7403  -15.3557 O   0  0  0  0  0  0  0  0  0  0  0  0
   28.3751  -20.4300  -15.3521 N   0  0  0  0  0  0  0  0  0  0  0  0
   29.1988  -19.3452  -15.9384 C   0  0  0  0  0  0  0  0  0  0  0  0
   28.5893  -18.0542  -15.3812 C   0  0  0  0  0  0  0  0  0  0  0  0
   27.2910  -18.5449  -14.7078 C   0  0  0  0  0  0  0  0  0  0  0  0
   27.8575  -19.8591  -14.1604 C   0  0  1  0  0  0  0  0  0  0  0  0
   26.9517  -20.5805  -13.3124 C   0  0  0  0  0  0  0  0  0  0  0  0
   25.9139  -21.1339  -13.7145 O   0  0  0  0  0  0  0  0  0  0  0  0
   27.1751  -20.7297  -11.8833 N   0  0  0  0  0  0  0  0  0  0  0  0
   26.3228  -21.5199  -11.0627 C   0  0  1  0  0  0  0  0  0  0  0  0
   26.9950  -21.8961   -9.7712 C   0  0  0  0  0  0  0  0  0  0  0  0
   26.9657  -20.8368   -8.7529 C   0  0  0  0  0  0  0  0  0  0  0  0
   26.0017  -19.8163   -8.7262 C   0  0  0  0  0  0  0  0  0  0  0  0
   26.2719  -19.0588   -7.6579 N   0  0  0  0  0  0  0  0  0  0  0  0
   27.3595  -19.5483   -7.0079 C   0  0  0  0  0  0  0  0  0  0  0  0
   28.0280  -19.1325   -5.8814 C   0  0  0  0  0  0  0  0  0  0  0  0
   29.1351  -19.7869   -5.3930 C   0  0  0  0  0  0  0  0  0  0  0  0
   29.5804  -20.9117   -6.0808 C   0  0  0  0  0  0  0  0  0  0  0  0
   28.9345  -21.3555   -7.2136 C   0  0  0  0  0  0  0  0  0  0  0  0
   27.8229  -20.6798   -7.6830 C   0  0  0  0  0  0  0  0  0  0  0  0
   25.0169  -20.8840  -10.7882 C   0  0  0  0  0  0  0  0  0  0  0  0
   23.9456  -21.6430  -10.3754 O   0  0  0  0  0  0  0  0  0  0  0  0
   24.8801  -19.6540  -10.9332 O   0  0  0  0  0  0  0  0  0  0  0  0
  2  1  1  0
  3  2  2  0
  4  2  1  0
  4  5  1  0
  5  6  1  1
  7  5  1  0
  7  8  2  0
  9  7  1  0
 10  9  1  0
 11 12  1  0
 11 10  1  0
 12 13  1  0
 13  9  1  0
 13 14  1  6
 14 15  2  0
 16 14  1  0
 16 17  1  0
 17 28  1  0
 17 18  1  1
 19 18  1  0
 20 19  2  0
 21 22  1  0
 21 20  1  0
 22 27  2  0
 23 22  1  0
 23 24  2  0
 24 25  1  0
 25 26  2  0
 27 19  1  0
 27 26  1  0
 28 29  1  0
 30 28  2  0
M  END
$$$$
