NPW.pdb
     RDKit          3D

 30 32  0  0  1  0  0  0  0  0999 V2000
   22.5651  -18.3069  -17.5457 N   0  0  0  0  0  0  0  0  0  0  0  0
   22.7518  -18.3567  -16.1217 C   0  0  0  0  0  0  0  0  0  0  0  0
   22.1784  -17.4679  -15.4671 O   0  0  0  0  0  0  0  0  0  0  0  0
   23.5622  -19.3838  -15.4694 C   0  0  0  0  0  0  0  0  0  0  0  0
   24.8230  -18.8730  -14.8751 C   0  0  2  0  0  0  0  0  0  0  0  0
   25.7958  -18.5236  -15.9256 N   0  0  0  0  0  0  0  0  0  0  0  0
   25.4860  -19.8782  -13.9523 C   0  0  0  0  0  0  0  0  0  0  0  0
   24.7421  -20.5081  -13.1913 O   0  0  0  0  0  0  0  0  0  0  0  0
   26.8860  -20.0988  -13.9492 N   0  0  0  0  0  0  0  0  0  0  0  0
   27.7335  -19.5225  -15.0210 C   0  0  0  0  0  0  0  0  0  0  0  0
   29.1278  -19.4152  -14.3941 C   0  0  0  0  0  0  0  0  0  0  0  0
   28.8650  -19.7258  -12.9061 C   0  0  0  0  0  0  0  0  0  0  0  0
   27.8044  -20.8082  -13.1325 C   0  0  1  0  0  0  0  0  0  0  0  0
   27.3843  -21.4778  -11.9345 C   0  0  0  0  0  0  0  0  0  0  0  0
   27.8737  -22.5448  -11.5260 O   0  0  0  0  0  0  0  0  0  0  0  0
   26.3309  -20.9551  -11.0791 N   0  0  0  0  0  0  0  0  0  0  0  0
   25.9680  -21.5838   -9.8555 C   0  0  1  0  0  0  0  0  0  0  0  0
   27.1025  -21.5654   -8.8687 C   0  0  0  0  0  0  0  0  0  0  0  0
   27.1206  -20.3780   -8.0029 C   0  0  0  0  0  0  0  0  0  0  0  0
   26.3883  -19.2113   -8.2749 C   0  0  0  0  0  0  0  0  0  0  0  0
   26.6275  -18.3629   -7.2694 N   0  0  0  0  0  0  0  0  0  0  0  0
   27.4757  -18.9339   -6.3753 C   0  0  0  0  0  0  0  0  0  0  0  0
   28.0223  -18.4794   -5.1991 C   0  0  0  0  0  0  0  0  0  0  0  0
   28.8826  -19.2383   -4.4399 C   0  0  0  0  0  0  0  0  0  0  0  0
   29.2000  -20.5135   -4.8979 C   0  0  0  0  0  0  0  0  0  0  0  0
   28.6706  -21.0002   -6.0728 C   0  0  0  0  0  0  0  0  0  0  0  0
   27.8071  -20.2169   -6.8168 C   0  0  0  0  0  0  0  0  0  0  0  0
   24.7513  -21.0131   -9.2402 C   0  0  0  0  0  0  0  0  0  0  0  0
   24.2089  -21.5828   -8.1109 O   0  0  0  0  0  0  0  0  0  0  0  0
   24.2084  -20.0117   -9.7455 O   0  0  0  0  0  0  0  0  0  0  0  0
  2  1  1  0
  3  2  2  0
  4  2  1  0
  4  5  1  0
  5  6  1  6
  7  5  1  0
  7  8  2  0
  9  7  1  0
 10  9  1  0
 11 12  1  0
 11 10  1  0
 12 13  1  0
 13  9  1  0
 13 14  1  1
 14 15  2  0
 16 14  1  0
 16 17  1  0
 17 28  1  0
 17 18  1  1
 19 18  1  0
 20 19  2  0
 21 22  1  0
 21 20  1  0
 22 27  2  0
 23 22  1  0
 23 24  2  0
 24 25  1  0
 25 26  2  0
 27 19  1  0
 27 26  1  0
 28 29  1  0
 30 28  2  0
M  END
$$$$
