NPW.pdb
     RDKit          3D

 30 32  0  0  1  0  0  0  0  0999 V2000
   27.6388  -23.0609  -19.5198 N   0  0  0  0  0  0  0  0  0  0  0  0
   28.9602  -23.0360  -18.9555 C   0  0  0  0  0  0  0  0  0  0  0  0
   29.8150  -23.7225  -19.5433 O   0  0  0  0  0  0  0  0  0  0  0  0
   29.2935  -22.2555  -17.7652 C   0  0  0  0  0  0  0  0  0  0  0  0
   28.1191  -21.6439  -17.0942 C   0  0  2  0  0  0  0  0  0  0  0  0
   27.8342  -20.3077  -17.6470 N   0  0  0  0  0  0  0  0  0  0  0  0
   28.3134  -21.4888  -15.5976 C   0  0  0  0  0  0  0  0  0  0  0  0
   28.4716  -22.5290  -14.9477 O   0  0  0  0  0  0  0  0  0  0  0  0
   28.3176  -20.2236  -14.9589 N   0  0  0  0  0  0  0  0  0  0  0  0
   28.9442  -19.0554  -15.6236 C   0  0  0  0  0  0  0  0  0  0  0  0
   28.2456  -17.8396  -15.0052 C   0  0  0  0  0  0  0  0  0  0  0  0
   27.0889  -18.4728  -14.2049 C   0  0  0  0  0  0  0  0  0  0  0  0
   27.8589  -19.7055  -13.7200 C   0  0  1  0  0  0  0  0  0  0  0  0
   27.1347  -20.5199  -12.7859 C   0  0  0  0  0  0  0  0  0  0  0  0
   26.2349  -21.3147  -13.1077 O   0  0  0  0  0  0  0  0  0  0  0  0
   27.3971  -20.4852  -11.3561 N   0  0  0  0  0  0  0  0  0  0  0  0
   26.7221  -21.3413  -10.4419 C   0  0  1  0  0  0  0  0  0  0  0  0
   27.5641  -21.6258   -9.2289 C   0  0  0  0  0  0  0  0  0  0  0  0
   27.4389  -20.6182   -8.1663 C   0  0  0  0  0  0  0  0  0  0  0  0
   26.4863  -19.5869   -8.1869 C   0  0  0  0  0  0  0  0  0  0  0  0
   26.6513  -18.8874   -7.0593 N   0  0  0  0  0  0  0  0  0  0  0  0
   27.6615  -19.4238   -6.3267 C   0  0  0  0  0  0  0  0  0  0  0  0
   28.2136  -19.0741   -5.1177 C   0  0  0  0  0  0  0  0  0  0  0  0
   29.2585  -19.7673   -4.5520 C   0  0  0  0  0  0  0  0  0  0  0  0
   29.7627  -20.8627   -5.2468 C   0  0  0  0  0  0  0  0  0  0  0  0
   29.2334  -21.2404   -6.4612 C   0  0  0  0  0  0  0  0  0  0  0  0
   28.1823  -20.5267   -7.0074 C   0  0  0  0  0  0  0  0  0  0  0  0
   25.3962  -20.8333  -10.0311 C   0  0  0  0  0  0  0  0  0  0  0  0
   24.4868  -21.6699   -9.4251 O   0  0  0  0  0  0  0  0  0  0  0  0
   25.0947  -19.6416  -10.2356 O   0  0  0  0  0  0  0  0  0  0  0  0
  2  1  1  0
  3  2  2  0
  4  2  1  0
  4  5  1  0
  5  6  1  6
  7  5  1  0
  7  8  2  0
  9  7  1  0
 10  9  1  0
 11 12  1  0
 11 10  1  0
 12 13  1  0
 13  9  1  0
 13 14  1  6
 14 15  2  0
 16 14  1  0
 16 17  1  0
 17 28  1  0
 17 18  1  1
 19 18  1  0
 20 19  2  0
 21 22  1  0
 21 20  1  0
 22 27  2  0
 23 22  1  0
 23 24  2  0
 24 25  1  0
 25 26  2  0
 27 19  1  0
 27 26  1  0
 28 29  1  0
 30 28  2  0
M  END
$$$$
