NPW.pdb
     RDKit          3D

 30 32  0  0  1  0  0  0  0  0999 V2000
   24.1977  -18.0824  -20.0366 N   0  0  0  0  0  0  0  0  0  0  0  0
   23.2863  -18.8625  -19.2455 C   0  0  0  0  0  0  0  0  0  0  0  0
   22.1025  -18.8678  -19.6276 O   0  0  0  0  0  0  0  0  0  0  0  0
   23.7108  -19.6096  -18.0629 C   0  0  0  0  0  0  0  0  0  0  0  0
   25.1683  -19.5346  -17.7907 C   0  0  2  0  0  0  0  0  0  0  0  0
   25.9125  -20.4741  -18.6483 N   0  0  0  0  0  0  0  0  0  0  0  0
   25.5132  -19.8583  -16.3491 C   0  0  0  0  0  0  0  0  0  0  0  0
   24.9223  -19.2094  -15.4779 O   0  0  0  0  0  0  0  0  0  0  0  0
   26.4614  -20.8518  -15.9993 N   0  0  0  0  0  0  0  0  0  0  0  0
   26.9823  -21.7809  -17.0311 C   0  0  0  0  0  0  0  0  0  0  0  0
   28.3420  -22.2354  -16.4895 C   0  0  0  0  0  0  0  0  0  0  0  0
   28.5663  -21.2999  -15.2836 C   0  0  0  0  0  0  0  0  0  0  0  0
   27.1103  -21.2671  -14.8076 C   0  0  1  0  0  0  0  0  0  0  0  0
   26.9147  -20.5766  -13.5646 C   0  0  0  0  0  0  0  0  0  0  0  0
   26.9355  -19.3396  -13.4454 O   0  0  0  0  0  0  0  0  0  0  0  0
   26.6695  -21.2781  -12.3147 N   0  0  0  0  0  0  0  0  0  0  0  0
   26.4756  -20.5885  -11.0854 C   0  0  1  0  0  0  0  0  0  0  0  0
   25.4054  -19.5388  -11.2052 C   0  0  0  0  0  0  0  0  0  0  0  0
   24.0618  -20.0821  -11.4491 C   0  0  0  0  0  0  0  0  0  0  0  0
   23.3337  -20.8040  -10.4899 C   0  0  0  0  0  0  0  0  0  0  0  0
   22.1597  -21.1136  -11.0501 N   0  0  0  0  0  0  0  0  0  0  0  0
   22.1089  -20.6248  -12.3163 C   0  0  0  0  0  0  0  0  0  0  0  0
   21.1414  -20.6806  -13.2908 C   0  0  0  0  0  0  0  0  0  0  0  0
   21.3064  -20.1112  -14.5322 C   0  0  0  0  0  0  0  0  0  0  0  0
   22.5073  -19.4579  -14.7923 C   0  0  0  0  0  0  0  0  0  0  0  0
   23.4985  -19.3837  -13.8387 C   0  0  0  0  0  0  0  0  0  0  0  0
   23.3067  -19.9639  -12.5980 C   0  0  0  0  0  0  0  0  0  0  0  0
   26.1806  -21.4860   -9.9486 C   0  0  0  0  0  0  0  0  0  0  0  0
   26.1028  -20.9864   -8.6686 O   0  0  0  0  0  0  0  0  0  0  0  0
   26.0036  -22.7036  -10.1456 O   0  0  0  0  0  0  0  0  0  0  0  0
  2  1  1  0
  3  2  2  0
  4  2  1  0
  4  5  1  0
  5  6  1  6
  7  5  1  0
  7  8  2  0
  9  7  1  0
 10  9  1  0
 11 12  1  0
 11 10  1  0
 12 13  1  0
 13  9  1  0
 13 14  1  1
 14 15  2  0
 16 14  1  0
 16 17  1  0
 17 28  1  0
 17 18  1  6
 19 18  1  0
 20 19  2  0
 21 22  1  0
 21 20  1  0
 22 27  2  0
 23 22  1  0
 23 24  2  0
 24 25  1  0
 25 26  2  0
 27 19  1  0
 27 26  1  0
 28 29  1  0
 30 28  2  0
M  END
$$$$
