IQC.pdb
     RDKit          3D

 24 23  0  0  1  0  0  0  0  0999 V2000
    5.8909  -11.6797   26.4318 C   0  0  0  0  0  0  0  0  0  0  0  0
    5.5691  -12.9423   25.6499 C   0  0  0  0  0  0  0  0  0  0  0  0
    6.7853  -13.7958   25.5347 C   0  0  2  0  0  0  0  0  0  0  0  0
    7.8930  -12.9828   24.8701 C   0  0  0  0  0  0  0  0  0  0  0  0
    6.5571  -15.0782   24.7833 C   0  0  2  0  0  0  0  0  0  0  0  0
    5.3700  -15.6962   25.2981 N   0  0  0  0  0  0  0  0  0  0  0  0
    7.7258  -15.9586   24.7497 C   0  0  0  0  0  0  0  0  0  0  0  0
    7.7632  -16.9520   25.5208 O   0  0  0  0  0  0  0  0  0  0  0  0
   11.8212  -18.2457   20.0309 N   0  0  0  0  0  0  0  0  0  0  0  0
   10.9480  -17.1496   20.2881 C   0  0  0  0  0  0  0  0  0  0  0  0
   10.9948  -16.1971   19.4584 O   0  0  0  0  0  0  0  0  0  0  0  0
   10.0340  -17.1213   21.4603 C   0  0  0  0  0  0  0  0  0  0  0  0
   10.7923  -16.5902   22.6313 C   0  0  0  0  0  0  0  0  0  0  0  0
   10.0159  -16.6325   23.9192 C   0  0  2  0  0  0  0  0  0  0  0  0
    8.8522  -15.7781   23.8941 N   0  0  0  0  0  0  0  0  0  0  0  0
   10.8492  -16.3202   25.0943 C   0  0  0  0  0  0  0  0  0  0  0  0
   12.0521  -16.6863   25.1259 O   0  0  0  0  0  0  0  0  0  0  0  0
   10.3463  -15.6116   26.2132 N   0  0  0  0  0  0  0  0  0  0  0  0
   11.1600  -15.3879   27.3885 C   0  0  1  0  0  0  0  0  0  0  0  0
   10.5685  -14.2468   28.1812 C   0  0  0  0  0  0  0  0  0  0  0  0
   11.4733  -14.0012   29.7325 S   0  0  0  0  0  0  0  0  0  0  0  0
   11.2369  -16.5982   28.2359 C   0  0  0  0  0  0  0  0  0  0  0  0
   10.2084  -17.2950   28.4002 O   0  0  0  0  0  0  0  0  0  0  0  0
   12.3989  -16.9865   28.8509 O   0  0  0  0  0  0  0  0  0  0  0  0
  1  2  1  0
  2  3  1  0
  3  4  1  6
  5  7  1  0
  5  3  1  0
  5  6  1  1
  7  8  2  0
 10  9  1  0
 11 10  2  0
 12 10  1  0
 13 12  1  0
 14 13  1  6
 15 14  1  0
 15  7  1  0
 16 17  2  0
 16 14  1  0
 18 16  1  0
 19 22  1  0
 19 18  1  0
 19 20  1  1
 21 20  1  0
 22 24  1  0
 23 22  2  0
M  END
$$$$
