IQC.pdb
     RDKit          3D

 24 23  0  0  1  0  0  0  0  0999 V2000
    7.6336  -12.2103   19.5118 C   0  0  0  0  0  0  0  0  0  0  0  0
    7.7649  -13.7236   19.5544 C   0  0  0  0  0  0  0  0  0  0  0  0
    7.8461  -14.1898   20.9675 C   0  0  2  0  0  0  0  0  0  0  0  0
    8.9914  -13.4560   21.6602 C   0  0  0  0  0  0  0  0  0  0  0  0
    8.0200  -15.6769   21.1064 C   0  0  2  0  0  0  0  0  0  0  0  0
    6.9281  -16.3220   20.4372 N   0  0  0  0  0  0  0  0  0  0  0  0
    8.2251  -16.1210   22.4858 C   0  0  0  0  0  0  0  0  0  0  0  0
    7.2295  -16.2220   23.2482 O   0  0  0  0  0  0  0  0  0  0  0  0
   12.6763  -19.3796   23.2708 N   0  0  0  0  0  0  0  0  0  0  0  0
   11.3655  -19.9180   23.1231 C   0  0  0  0  0  0  0  0  0  0  0  0
   11.2711  -20.9606   22.4147 O   0  0  0  0  0  0  0  0  0  0  0  0
   10.1755  -19.2958   23.7612 C   0  0  0  0  0  0  0  0  0  0  0  0
   10.6243  -18.0786   24.4996 C   0  0  0  0  0  0  0  0  0  0  0  0
    9.6599  -16.9280   24.4037 C   0  0  2  0  0  0  0  0  0  0  0  0
    9.4912  -16.4565   23.0495 N   0  0  0  0  0  0  0  0  0  0  0  0
   10.0241  -15.8073   25.2894 C   0  0  0  0  0  0  0  0  0  0  0  0
   11.0385  -15.1092   25.0336 O   0  0  0  0  0  0  0  0  0  0  0  0
    9.2676  -15.4740   26.4398 N   0  0  0  0  0  0  0  0  0  0  0  0
    9.7483  -14.5045   27.4002 C   0  0  1  0  0  0  0  0  0  0  0  0
    8.5963  -13.6249   27.8238 C   0  0  0  0  0  0  0  0  0  0  0  0
    7.7062  -12.9868   26.3795 S   0  0  0  0  0  0  0  0  0  0  0  0
   10.3391  -15.1607   28.5872 C   0  0  0  0  0  0  0  0  0  0  0  0
   10.2874  -16.4091   28.6839 O   0  0  0  0  0  0  0  0  0  0  0  0
   10.9440  -14.4484   29.5902 O   0  0  0  0  0  0  0  0  0  0  0  0
  1  2  1  0
  2  3  1  0
  3  4  1  6
  5  7  1  0
  5  3  1  0
  5  6  1  1
  7  8  2  0
 10  9  1  0
 11 10  2  0
 12 10  1  0
 13 12  1  0
 14 13  1  6
 15 14  1  0
 15  7  1  0
 16 17  2  0
 16 14  1  0
 18 16  1  0
 19 22  1  0
 19 18  1  0
 19 20  1  1
 21 20  1  0
 22 24  1  0
 23 22  2  0
M  END
$$$$
