IQC.pdb
     RDKit          3D

 24 23  0  0  1  0  0  0  0  0999 V2000
    7.5671  -11.9473   20.1032 C   0  0  0  0  0  0  0  0  0  0  0  0
    7.3055  -13.4157   20.3938 C   0  0  0  0  0  0  0  0  0  0  0  0
    8.4780  -14.2357   19.9769 C   0  0  2  0  0  0  0  0  0  0  0  0
    8.7300  -14.0087   18.4887 C   0  0  0  0  0  0  0  0  0  0  0  0
    8.3229  -15.7041   20.2615 C   0  0  2  0  0  0  0  0  0  0  0  0
    7.2602  -16.2112   19.4432 N   0  0  0  0  0  0  0  0  0  0  0  0
    8.1871  -16.0184   21.6844 C   0  0  0  0  0  0  0  0  0  0  0  0
    7.0502  -16.3068   22.1393 O   0  0  0  0  0  0  0  0  0  0  0  0
   11.6600  -19.0589   27.2482 N   0  0  0  0  0  0  0  0  0  0  0  0
   10.7731  -19.0337   26.1333 C   0  0  0  0  0  0  0  0  0  0  0  0
   10.7980  -20.0500   25.3822 O   0  0  0  0  0  0  0  0  0  0  0  0
    9.8699  -17.8840   25.8637 C   0  0  0  0  0  0  0  0  0  0  0  0
   10.0037  -17.5124   24.4242 C   0  0  0  0  0  0  0  0  0  0  0  0
    9.1074  -16.3770   24.0109 C   0  0  2  0  0  0  0  0  0  0  0  0
    9.2637  -16.0246   22.6194 N   0  0  0  0  0  0  0  0  0  0  0  0
    9.2771  -15.1831   24.8587 C   0  0  0  0  0  0  0  0  0  0  0  0
   10.3281  -14.4975   24.7745 O   0  0  0  0  0  0  0  0  0  0  0  0
    8.2891  -14.7639   25.7834 N   0  0  0  0  0  0  0  0  0  0  0  0
    8.5282  -13.6623   26.6905 C   0  0  1  0  0  0  0  0  0  0  0  0
    7.2083  -13.0073   27.0210 C   0  0  0  0  0  0  0  0  0  0  0  0
    6.1821  -12.8380   25.5366 S   0  0  0  0  0  0  0  0  0  0  0  0
    9.1871  -14.1152   27.9353 C   0  0  0  0  0  0  0  0  0  0  0  0
    9.3776  -15.3408   28.1144 O   0  0  0  0  0  0  0  0  0  0  0  0
    9.5988  -13.2377   28.9046 O   0  0  0  0  0  0  0  0  0  0  0  0
  1  2  1  0
  2  3  1  0
  3  4  1  6
  5  7  1  0
  5  3  1  0
  5  6  1  6
  7  8  2  0
 10  9  1  0
 11 10  2  0
 12 10  1  0
 13 12  1  0
 14 13  1  1
 15 14  1  0
 15  7  1  0
 16 17  2  0
 16 14  1  0
 18 16  1  0
 19 22  1  0
 19 18  1  0
 19 20  1  1
 21 20  1  0
 22 24  1  0
 23 22  2  0
M  END
$$$$
