IQC.pdb
     RDKit          3D

 24 23  0  0  1  0  0  0  0  0999 V2000
    7.8211  -12.5849   21.1456 C   0  0  0  0  0  0  0  0  0  0  0  0
    8.1433  -13.8229   20.3255 C   0  0  0  0  0  0  0  0  0  0  0  0
    9.0611  -13.4695   19.2059 C   0  0  2  0  0  0  0  0  0  0  0  0
    8.3973  -12.3947   18.3492 C   0  0  0  0  0  0  0  0  0  0  0  0
    9.4588  -14.6433   18.3543 C   0  0  2  0  0  0  0  0  0  0  0  0
    8.2836  -15.1468   17.7050 N   0  0  0  0  0  0  0  0  0  0  0  0
   10.2297  -15.6592   19.0724 C   0  0  0  0  0  0  0  0  0  0  0  0
    9.6331  -16.6699   19.5256 O   0  0  0  0  0  0  0  0  0  0  0  0
   16.0285  -18.2238   19.0102 N   0  0  0  0  0  0  0  0  0  0  0  0
   14.9870  -18.3012   18.0410 C   0  0  0  0  0  0  0  0  0  0  0  0
   15.2340  -18.9991   17.0165 O   0  0  0  0  0  0  0  0  0  0  0  0
   13.6852  -17.6052   18.2177 C   0  0  0  0  0  0  0  0  0  0  0  0
   13.7222  -16.8675   19.5149 C   0  0  0  0  0  0  0  0  0  0  0  0
   12.3585  -16.5765   20.0797 C   0  0  2  0  0  0  0  0  0  0  0  0
   11.6349  -15.5956   19.3059 N   0  0  0  0  0  0  0  0  0  0  0  0
   12.4061  -16.1707   21.4961 C   0  0  0  0  0  0  0  0  0  0  0  0
   12.8622  -15.0416   21.8106 O   0  0  0  0  0  0  0  0  0  0  0  0
   11.9518  -17.0125   22.5411 N   0  0  0  0  0  0  0  0  0  0  0  0
   12.1332  -16.6504   23.9301 C   0  0  1  0  0  0  0  0  0  0  0  0
   10.8289  -16.1125   24.4682 C   0  0  0  0  0  0  0  0  0  0  0  0
    9.5154  -17.3548   24.3377 S   0  0  0  0  0  0  0  0  0  0  0  0
   12.5696  -17.8076   24.7420 C   0  0  0  0  0  0  0  0  0  0  0  0
   12.9317  -17.6204   25.9270 O   0  0  0  0  0  0  0  0  0  0  0  0
   12.5923  -19.0837   24.2418 O   0  0  0  0  0  0  0  0  0  0  0  0
  1  2  1  0
  2  3  1  0
  3  4  1  6
  5  7  1  0
  5  3  1  0
  5  6  1  1
  7  8  2  0
 10  9  1  0
 11 10  2  0
 12 10  1  0
 13 12  1  0
 14 13  1  6
 15 14  1  0
 15  7  1  0
 16 17  2  0
 16 14  1  0
 18 16  1  0
 19 22  1  0
 19 18  1  0
 19 20  1  1
 21 20  1  0
 22 24  1  0
 23 22  2  0
M  END
$$$$
