IQC.pdb
     RDKit          3D

 24 23  0  0  1  0  0  0  0  0999 V2000
    7.7994  -12.3708   18.8017 C   0  0  0  0  0  0  0  0  0  0  0  0
    7.8791  -13.8584   19.1012 C   0  0  0  0  0  0  0  0  0  0  0  0
    7.5483  -14.1098   20.5323 C   0  0  2  0  0  0  0  0  0  0  0  0
    8.5140  -13.3132   21.4055 C   0  0  0  0  0  0  0  0  0  0  0  0
    7.5775  -15.5638   20.9150 C   0  0  2  0  0  0  0  0  0  0  0  0
    6.6792  -16.2742   20.0522 N   0  0  0  0  0  0  0  0  0  0  0  0
    7.3547  -15.8033   22.3415 C   0  0  0  0  0  0  0  0  0  0  0  0
    6.1833  -16.0145   22.7487 O   0  0  0  0  0  0  0  0  0  0  0  0
    6.1732  -19.6561   23.9961 N   0  0  0  0  0  0  0  0  0  0  0  0
    7.5964  -19.7247   23.9966 C   0  0  0  0  0  0  0  0  0  0  0  0
    8.0997  -20.8000   23.5627 O   0  0  0  0  0  0  0  0  0  0  0  0
    8.4447  -18.6024   24.4773 C   0  0  0  0  0  0  0  0  0  0  0  0
    7.5473  -17.4933   24.9163 C   0  0  0  0  0  0  0  0  0  0  0  0
    8.1429  -16.1256   24.7212 C   0  0  2  0  0  0  0  0  0  0  0  0
    8.3813  -15.8171   23.3310 N   0  0  0  0  0  0  0  0  0  0  0  0
    9.3763  -15.9273   25.5037 C   0  0  0  0  0  0  0  0  0  0  0  0
    9.9923  -16.9211   25.9671 O   0  0  0  0  0  0  0  0  0  0  0  0
    9.9107  -14.6411   25.7629 N   0  0  0  0  0  0  0  0  0  0  0  0
    9.7687  -14.0160   27.0600 C   0  0  1  0  0  0  0  0  0  0  0  0
    8.4057  -13.3716   27.1443 C   0  0  0  0  0  0  0  0  0  0  0  0
    8.1414  -12.6316   28.7777 S   0  0  0  0  0  0  0  0  0  0  0  0
    9.9269  -14.9960   28.1570 C   0  0  0  0  0  0  0  0  0  0  0  0
    9.2737  -16.0649   28.1199 O   0  0  0  0  0  0  0  0  0  0  0  0
   10.7667  -14.7756   29.2177 O   0  0  0  0  0  0  0  0  0  0  0  0
  1  2  1  0
  2  3  1  0
  3  4  1  1
  5  7  1  0
  5  3  1  0
  5  6  1  6
  7  8  2  0
 10  9  1  0
 11 10  2  0
 12 10  1  0
 13 12  1  0
 14 13  1  6
 15 14  1  0
 15  7  1  0
 16 17  2  0
 16 14  1  0
 18 16  1  0
 19 22  1  0
 19 18  1  0
 19 20  1  6
 21 20  1  0
 22 24  1  0
 23 22  2  0
M  END
$$$$
