IQC.pdb
     RDKit          3D

 24 23  0  0  1  0  0  0  0  0999 V2000
    7.8139  -11.9986   20.6137 C   0  0  0  0  0  0  0  0  0  0  0  0
    7.5186  -13.4432   20.9811 C   0  0  0  0  0  0  0  0  0  0  0  0
    8.3018  -14.3626   20.1081 C   0  0  2  0  0  0  0  0  0  0  0  0
    7.9723  -14.0529   18.6503 C   0  0  0  0  0  0  0  0  0  0  0  0
    8.0678  -15.8195   20.3975 C   0  0  2  0  0  0  0  0  0  0  0  0
    6.7145  -16.1365   20.0451 N   0  0  0  0  0  0  0  0  0  0  0  0
    8.4443  -16.2197   21.7541 C   0  0  0  0  0  0  0  0  0  0  0  0
    7.5435  -16.3554   22.6218 O   0  0  0  0  0  0  0  0  0  0  0  0
   13.0898  -20.1829   23.7012 N   0  0  0  0  0  0  0  0  0  0  0  0
   12.9463  -19.1784   24.7014 C   0  0  0  0  0  0  0  0  0  0  0  0
   13.9365  -19.0161   25.4701 O   0  0  0  0  0  0  0  0  0  0  0  0
   11.7086  -18.3661   24.8384 C   0  0  0  0  0  0  0  0  0  0  0  0
   11.3401  -17.8450   23.4890 C   0  0  0  0  0  0  0  0  0  0  0  0
   10.1133  -16.9742   23.4956 C   0  0  2  0  0  0  0  0  0  0  0  0
    9.7802  -16.4745   22.1827 N   0  0  0  0  0  0  0  0  0  0  0  0
   10.2155  -15.8577   24.4526 C   0  0  0  0  0  0  0  0  0  0  0  0
   10.5620  -14.7171   24.0517 O   0  0  0  0  0  0  0  0  0  0  0  0
    9.9352  -16.0143   25.8324 N   0  0  0  0  0  0  0  0  0  0  0  0
    9.9595  -14.8853   26.7369 C   0  0  1  0  0  0  0  0  0  0  0  0
    8.6406  -14.1559   26.6421 C   0  0  0  0  0  0  0  0  0  0  0  0
    8.6105  -12.7288   27.7592 S   0  0  0  0  0  0  0  0  0  0  0  0
   10.1957  -15.3115   28.1337 C   0  0  0  0  0  0  0  0  0  0  0  0
   10.1339  -16.5302   28.4191 O   0  0  0  0  0  0  0  0  0  0  0  0
   10.4811  -14.4166   29.1321 O   0  0  0  0  0  0  0  0  0  0  0  0
  1  2  1  0
  2  3  1  0
  3  4  1  6
  5  7  1  0
  5  3  1  0
  5  6  1  1
  7  8  2  0
 10  9  1  0
 11 10  2  0
 12 10  1  0
 13 12  1  0
 14 13  1  6
 15 14  1  0
 15  7  1  0
 16 17  2  0
 16 14  1  0
 18 16  1  0
 19 22  1  0
 19 18  1  0
 19 20  1  1
 21 20  1  0
 22 24  1  0
 23 22  2  0
M  END
$$$$
