RLF.pdb
     RDKit          3D

 31 31  0  0  1  0  0  0  0  0999 V2000
   12.3282  -19.5782   15.4417 N   0  0  0  0  0  0  0  0  0  0  0  0
   13.4275  -20.0885   16.1725 C   0  0  0  0  0  0  0  0  0  0  0  0
   14.1009  -21.0634   15.6880 N   0  0  0  0  0  0  0  0  0  0  0  0
   13.7962  -19.5310   17.4481 N   0  0  0  0  0  0  0  0  0  0  0  0
   13.0261  -18.4602   18.0092 C   0  0  0  0  0  0  0  0  0  0  0  0
   11.6800  -18.9910   18.5185 C   0  0  0  0  0  0  0  0  0  0  0  0
   10.8176  -17.8675   19.0051 C   0  0  0  0  0  0  0  0  0  0  0  0
   10.4457  -17.9728   20.4593 C   0  0  2  0  0  0  0  0  0  0  0  0
    9.0618  -18.4830   20.4808 N   0  0  0  0  0  0  0  0  0  0  0  0
   10.5020  -16.6534   21.1433 C   0  0  0  0  0  0  0  0  0  0  0  0
   11.5732  -16.0562   21.3213 O   0  0  0  0  0  0  0  0  0  0  0  0
   14.8707  -21.4753   16.2298 C   0  0  0  0  0  0  0  0  0  0  0  0
    6.2825  -13.2731   20.2698 C   0  0  1  0  0  0  0  0  0  0  0  0
    7.7773  -13.7262   20.3618 C   0  0  0  0  0  0  0  0  0  0  0  0
    8.5373  -12.4435   19.9917 C   0  0  0  0  0  0  0  0  0  0  0  0
    7.9771  -14.1466   21.7670 C   0  0  2  0  0  0  0  0  0  0  0  0
    9.2566  -14.7252   22.2137 N   0  0  0  0  0  0  0  0  0  0  0  0
    9.2914  -16.0821   21.5940 C   0  0  0  0  0  0  0  0  0  0  0  0
    9.4992  -14.9081   23.6448 O   0  0  0  0  0  0  0  0  0  0  0  0
   10.0319  -14.0093   24.3242 N   0  0  0  0  0  0  0  0  0  0  0  0
    9.1433  -16.1195   24.3403 C   0  0  1  0  0  0  0  0  0  0  0  0
    9.2754  -16.1390   25.7641 C   0  0  0  0  0  0  0  0  0  0  0  0
    7.9820  -16.0345   26.5015 C   0  0  0  0  0  0  0  0  0  0  0  0
    7.3413  -14.7170   26.4809 C   0  0  0  0  0  0  0  0  0  0  0  0
    7.9261  -13.6315   27.0845 C   0  0  0  0  0  0  0  0  0  0  0  0
    7.3545  -12.3632   27.0808 C   0  0  0  0  0  0  0  0  0  0  0  0
    6.1409  -12.2156   26.4311 C   0  0  0  0  0  0  0  0  0  0  0  0
    5.5298  -13.2592   25.8232 C   0  0  0  0  0  0  0  0  0  0  0  0
    6.1289  -14.5250   25.8438 C   0  0  0  0  0  0  0  0  0  0  0  0
    9.8410  -17.4897   26.1374 O   0  0  0  0  0  0  0  0  0  0  0  0
   10.0130  -17.7758   27.3568 O   0  0  0  0  0  0  0  0  0  0  0  0
  2  1  1  0
  2  3  2  0
  4  2  1  0
  5  4  1  0
  6  5  1  0
  7  6  1  0
  8  7  1  0
  8  9  1  6
 10  8  1  0
 10 11  2  0
 13 14  1  1
 13 12  1  0
 16 15  1  6
 15 13  1  0
 16 17  1  0
 17 10  1  0
 18 16  1  0
 19 18  2  0
 20 18  1  0
 21 22  1  1
 21 20  1  0
 22 23  1  0
 23 28  2  0
 24 25  2  0
 24 23  1  0
 25 26  1  0
 26 27  2  0
 28 27  1  0
 29 21  1  0
 30 29  2  0
 31 29  1  0
M  END
$$$$
