RLF.pdb
     RDKit          3D

 31 31  0  0  1  0  0  0  0  0999 V2000
   10.4048  -17.0094   15.4479 N   0  0  0  0  0  0  0  0  0  0  0  0
    9.0990  -16.6339   15.0521 C   0  0  0  0  0  0  0  0  0  0  0  0
    8.9219  -15.5052   14.4748 N   0  0  0  0  0  0  0  0  0  0  0  0
    7.9718  -17.4981   15.2903 N   0  0  0  0  0  0  0  0  0  0  0  0
    7.9951  -18.4153   16.3914 C   0  0  0  0  0  0  0  0  0  0  0  0
    8.6083  -17.7408   17.6252 C   0  0  0  0  0  0  0  0  0  0  0  0
    9.3545  -18.7373   18.4576 C   0  0  0  0  0  0  0  0  0  0  0  0
    9.0803  -18.6236   19.9327 C   0  0  2  0  0  0  0  0  0  0  0  0
    7.6112  -18.6156   20.0655 N   0  0  0  0  0  0  0  0  0  0  0  0
    9.6402  -17.3707   20.5060 C   0  0  0  0  0  0  0  0  0  0  0  0
   10.8431  -17.0892   20.4082 O   0  0  0  0  0  0  0  0  0  0  0  0
    8.0171  -15.2877   14.0389 C   0  0  0  0  0  0  0  0  0  0  0  0
    6.4166  -12.9191   20.3369 C   0  0  1  0  0  0  0  0  0  0  0  0
    7.7158  -13.7677   20.1365 C   0  0  0  0  0  0  0  0  0  0  0  0
    8.7082  -12.7322   19.5862 C   0  0  0  0  0  0  0  0  0  0  0  0
    8.0716  -14.2697   21.4828 C   0  0  2  0  0  0  0  0  0  0  0  0
    9.2246  -15.1656   21.6808 N   0  0  0  0  0  0  0  0  0  0  0  0
    8.7611  -16.4909   21.1756 C   0  0  0  0  0  0  0  0  0  0  0  0
    9.7372  -15.3852   23.0333 O   0  0  0  0  0  0  0  0  0  0  0  0
   10.8486  -14.9383   23.3775 N   0  0  0  0  0  0  0  0  0  0  0  0
    8.9992  -16.1203   24.0296 C   0  0  1  0  0  0  0  0  0  0  0  0
    9.6132  -16.3232   25.3051 C   0  0  0  0  0  0  0  0  0  0  0  0
    9.6703  -15.1009   26.1598 C   0  0  0  0  0  0  0  0  0  0  0  0
    8.4443  -14.3004   26.2097 C   0  0  0  0  0  0  0  0  0  0  0  0
    8.4199  -13.0733   26.8247 C   0  0  0  0  0  0  0  0  0  0  0  0
    7.2791  -12.2795   26.8870 C   0  0  0  0  0  0  0  0  0  0  0  0
    6.1295  -12.7722   26.2933 C   0  0  0  0  0  0  0  0  0  0  0  0
    6.1096  -13.9769   25.6766 C   0  0  0  0  0  0  0  0  0  0  0  0
    7.2736  -14.7545   25.6300 C   0  0  0  0  0  0  0  0  0  0  0  0
    8.7456  -17.3013   26.0631 O   0  0  0  0  0  0  0  0  0  0  0  0
    7.6855  -17.7354   25.5283 O   0  0  0  0  0  0  0  0  0  0  0  0
  2  1  1  0
  2  3  2  0
  4  2  1  0
  5  4  1  0
  6  5  1  0
  7  6  1  0
  8  7  1  0
  8  9  1  6
 10  8  1  0
 10 11  2  0
 13 14  1  1
 13 12  1  0
 16 15  1  6
 15 13  1  0
 16 17  1  0
 17 10  1  0
 18 16  1  0
 19 18  2  0
 20 18  1  0
 21 22  1  1
 21 20  1  0
 22 23  1  0
 23 28  2  0
 24 25  2  0
 24 23  1  0
 25 26  1  0
 26 27  2  0
 28 27  1  0
 29 21  1  0
 30 29  2  0
 31 29  1  0
M  END
$$$$
