RLF.pdb
     RDKit          3D

 31 31  0  0  1  0  0  0  0  0999 V2000
    6.4442  -20.6010   18.2564 N   0  0  0  0  0  0  0  0  0  0  0  0
    6.9008  -20.1915   16.9810 C   0  0  0  0  0  0  0  0  0  0  0  0
    6.3450  -20.6748   15.9340 N   0  0  0  0  0  0  0  0  0  0  0  0
    7.9779  -19.2453   16.8447 N   0  0  0  0  0  0  0  0  0  0  0  0
    8.6222  -18.7231   18.0137 C   0  0  0  0  0  0  0  0  0  0  0  0
    7.8511  -17.5060   18.5400 C   0  0  0  0  0  0  0  0  0  0  0  0
    8.5940  -16.8545   19.6654 C   0  0  0  0  0  0  0  0  0  0  0  0
    7.8196  -15.7631   20.3535 C   0  0  2  0  0  0  0  0  0  0  0  0
    7.7121  -14.6696   19.3693 N   0  0  0  0  0  0  0  0  0  0  0  0
    8.5169  -15.2716   21.5717 C   0  0  0  0  0  0  0  0  0  0  0  0
    9.5688  -14.6201   21.5029 O   0  0  0  0  0  0  0  0  0  0  0  0
    6.7139  -20.4432   15.0033 C   0  0  0  0  0  0  0  0  0  0  0  0
    5.7853  -13.0536   25.8315 C   0  0  1  0  0  0  0  0  0  0  0  0
    6.8405  -13.2367   24.6908 C   0  0  0  0  0  0  0  0  0  0  0  0
    7.8351  -12.1001   24.9717 C   0  0  0  0  0  0  0  0  0  0  0  0
    7.4129  -14.5865   24.8948 C   0  0  2  0  0  0  0  0  0  0  0  0
    8.5577  -15.0566   24.0950 N   0  0  0  0  0  0  0  0  0  0  0  0
    7.9488  -15.5650   22.8311 C   0  0  0  0  0  0  0  0  0  0  0  0
    9.4040  -16.1296   24.6173 O   0  0  0  0  0  0  0  0  0  0  0  0
    9.3117  -17.2911   24.1750 N   0  0  0  0  0  0  0  0  0  0  0  0
   10.3770  -15.9094   25.6578 C   0  0  2  0  0  0  0  0  0  0  0  0
   11.1707  -17.0214   26.0801 C   0  0  0  0  0  0  0  0  0  0  0  0
   12.2126  -16.6818   27.0934 C   0  0  0  0  0  0  0  0  0  0  0  0
   11.7937  -15.7626   28.1546 C   0  0  0  0  0  0  0  0  0  0  0  0
   11.8020  -16.1460   29.4728 C   0  0  0  0  0  0  0  0  0  0  0  0
   11.4195  -15.3015   30.5099 C   0  0  0  0  0  0  0  0  0  0  0  0
   11.0171  -14.0210   30.1706 C   0  0  0  0  0  0  0  0  0  0  0  0
   10.9938  -13.6020   28.8837 C   0  0  0  0  0  0  0  0  0  0  0  0
   11.3841  -14.4748   27.8602 C   0  0  0  0  0  0  0  0  0  0  0  0
   10.2409  -17.9913   26.7718 O   0  0  0  0  0  0  0  0  0  0  0  0
    9.0317  -17.6702   26.9540 O   0  0  0  0  0  0  0  0  0  0  0  0
  2  1  1  0
  2  3  2  0
  4  2  1  0
  5  4  1  0
  6  5  1  0
  7  6  1  0
  8  7  1  0
  8  9  1  6
 10  8  1  0
 10 11  2  0
 13 14  1  1
 13 12  1  0
 16 15  1  6
 15 13  1  0
 16 17  1  0
 17 10  1  0
 18 16  1  0
 19 18  2  0
 20 18  1  0
 21 22  1  6
 21 20  1  0
 22 23  1  0
 23 28  2  0
 24 25  2  0
 24 23  1  0
 25 26  1  0
 26 27  2  0
 28 27  1  0
 29 21  1  0
 30 29  2  0
 31 29  1  0
M  END
$$$$
