RLF.pdb
     RDKit          3D

 31 31  0  0  1  0  0  0  0  0999 V2000
    8.7584  -19.1473   15.4446 N   0  0  0  0  0  0  0  0  0  0  0  0
    9.5653  -20.3068   15.5305 C   0  0  0  0  0  0  0  0  0  0  0  0
    9.0790  -21.4341   15.1682 N   0  0  0  0  0  0  0  0  0  0  0  0
   10.9182  -20.2373   16.0192 N   0  0  0  0  0  0  0  0  0  0  0  0
   11.4355  -18.9962   16.5156 C   0  0  0  0  0  0  0  0  0  0  0  0
   10.8260  -18.6836   17.8882 C   0  0  0  0  0  0  0  0  0  0  0  0
   11.6458  -19.2937   18.9830 C   0  0  0  0  0  0  0  0  0  0  0  0
   11.1185  -19.0146   20.3644 C   0  0  2  0  0  0  0  0  0  0  0  0
    9.7466  -19.5565   20.3843 N   0  0  0  0  0  0  0  0  0  0  0  0
   11.0840  -17.5578   20.6612 C   0  0  0  0  0  0  0  0  0  0  0  0
   12.1120  -16.8657   20.6516 O   0  0  0  0  0  0  0  0  0  0  0  0
    9.6581  -22.2817   15.2136 C   0  0  0  0  0  0  0  0  0  0  0  0
    8.2582  -12.9546   20.1733 C   0  0  2  0  0  0  0  0  0  0  0  0
    7.7739  -13.8419   21.3675 C   0  0  0  0  0  0  0  0  0  0  0  0
    6.2448  -13.7441   21.2561 C   0  0  0  0  0  0  0  0  0  0  0  0
    8.3008  -15.1975   21.0920 C   0  0  1  0  0  0  0  0  0  0  0  0
    9.7255  -15.5156   21.2929 N   0  0  0  0  0  0  0  0  0  0  0  0
    9.8367  -16.9657   20.9591 C   0  0  0  0  0  0  0  0  0  0  0  0
   10.3185  -15.3408   22.6188 O   0  0  0  0  0  0  0  0  0  0  0  0
   10.8847  -14.2756   22.9319 N   0  0  0  0  0  0  0  0  0  0  0  0
   10.2840  -16.3742   23.6231 C   0  0  1  0  0  0  0  0  0  0  0  0
   10.6047  -16.0125   24.9690 C   0  0  0  0  0  0  0  0  0  0  0  0
    9.4380  -15.5421   25.7723 C   0  0  0  0  0  0  0  0  0  0  0  0
    9.7478  -15.0464   27.1158 C   0  0  0  0  0  0  0  0  0  0  0  0
    9.8712  -13.7026   27.3679 C   0  0  0  0  0  0  0  0  0  0  0  0
   10.1566  -13.1915   28.6298 C   0  0  0  0  0  0  0  0  0  0  0  0
   10.3181  -14.1006   29.6615 C   0  0  0  0  0  0  0  0  0  0  0  0
   10.2050  -15.4338   29.4568 C   0  0  0  0  0  0  0  0  0  0  0  0
    9.9175  -15.9194   28.1750 C   0  0  0  0  0  0  0  0  0  0  0  0
   11.0876  -17.2662   25.6609 O   0  0  0  0  0  0  0  0  0  0  0  0
   11.7201  -17.1698   26.7514 O   0  0  0  0  0  0  0  0  0  0  0  0
  2  1  1  0
  2  3  2  0
  4  2  1  0
  5  4  1  0
  6  5  1  0
  7  6  1  0
  8  7  1  0
  8  9  1  6
 10  8  1  0
 10 11  2  0
 13 14  1  6
 13 12  1  0
 16 15  1  6
 15 13  1  0
 16 17  1  0
 17 10  1  0
 18 16  1  0
 19 18  2  0
 20 18  1  0
 21 22  1  1
 21 20  1  0
 22 23  1  0
 23 28  2  0
 24 25  2  0
 24 23  1  0
 25 26  1  0
 26 27  2  0
 28 27  1  0
 29 21  1  0
 30 29  2  0
 31 29  1  0
M  END
$$$$
