RLF.pdb
     RDKit          3D

 31 31  0  0  1  0  0  0  0  0999 V2000
    5.8219  -23.1720   22.5814 N   0  0  0  0  0  0  0  0  0  0  0  0
    6.8631  -24.1261   22.4900 C   0  0  0  0  0  0  0  0  0  0  0  0
    6.5782  -25.3327   22.1715 N   0  0  0  0  0  0  0  0  0  0  0  0
    8.2317  -23.7613   22.7510 N   0  0  0  0  0  0  0  0  0  0  0  0
    8.5722  -22.3897   22.9902 C   0  0  0  0  0  0  0  0  0  0  0  0
    8.4706  -21.5874   21.6866 C   0  0  0  0  0  0  0  0  0  0  0  0
    8.8252  -20.1512   21.9198 C   0  0  0  0  0  0  0  0  0  0  0  0
    8.6863  -19.2849   20.6973 C   0  0  2  0  0  0  0  0  0  0  0  0
    9.4668  -19.9575   19.6416 N   0  0  0  0  0  0  0  0  0  0  0  0
    9.2257  -17.9174   20.9223 C   0  0  0  0  0  0  0  0  0  0  0  0
   10.4353  -17.6682   20.8192 O   0  0  0  0  0  0  0  0  0  0  0  0
    7.3314  -26.0119   22.0065 C   0  0  0  0  0  0  0  0  0  0  0  0
    8.8705  -12.7251   20.0784 C   0  0  2  0  0  0  0  0  0  0  0  0
    7.8073  -13.1596   21.1410 C   0  0  0  0  0  0  0  0  0  0  0  0
    6.5422  -12.4306   20.6635 C   0  0  0  0  0  0  0  0  0  0  0  0
    7.7174  -14.6330   21.0305 C   0  0  1  0  0  0  0  0  0  0  0  0
    8.7897  -15.5018   21.5469 N   0  0  0  0  0  0  0  0  0  0  0  0
    8.3190  -16.8887   21.2612 C   0  0  0  0  0  0  0  0  0  0  0  0
    9.1269  -15.4550   22.9697 O   0  0  0  0  0  0  0  0  0  0  0  0
    9.8277  -14.5339   23.4320 N   0  0  0  0  0  0  0  0  0  0  0  0
    8.6765  -16.4561   23.9040 C   0  0  1  0  0  0  0  0  0  0  0  0
    8.9889  -16.2715   25.2872 C   0  0  0  0  0  0  0  0  0  0  0  0
    7.8250  -15.8696   26.1306 C   0  0  0  0  0  0  0  0  0  0  0  0
    7.5596  -14.4307   26.2064 C   0  0  0  0  0  0  0  0  0  0  0  0
    8.5231  -13.5506   26.6326 C   0  0  0  0  0  0  0  0  0  0  0  0
    8.3136  -12.1776   26.7114 C   0  0  0  0  0  0  0  0  0  0  0  0
    7.0684  -11.7027   26.3364 C   0  0  0  0  0  0  0  0  0  0  0  0
    6.0900  -12.5354   25.9103 C   0  0  0  0  0  0  0  0  0  0  0  0
    6.3297  -13.9136   25.8419 C   0  0  0  0  0  0  0  0  0  0  0  0
    9.4279  -17.6140   25.8245 O   0  0  0  0  0  0  0  0  0  0  0  0
    9.3801  -18.6298   25.0733 O   0  0  0  0  0  0  0  0  0  0  0  0
  2  1  1  0
  2  3  2  0
  4  2  1  0
  5  4  1  0
  6  5  1  0
  7  6  1  0
  8  7  1  0
  8  9  1  6
 10  8  1  0
 10 11  2  0
 13 14  1  6
 13 12  1  0
 16 15  1  6
 15 13  1  0
 16 17  1  0
 17 10  1  0
 18 16  1  0
 19 18  2  0
 20 18  1  0
 21 22  1  1
 21 20  1  0
 22 23  1  0
 23 28  2  0
 24 25  2  0
 24 23  1  0
 25 26  1  0
 26 27  2  0
 28 27  1  0
 29 21  1  0
 30 29  2  0
 31 29  1  0
M  END
$$$$
