RLF.pdb
     RDKit          3D

 31 31  0  0  1  0  0  0  0  0999 V2000
    9.7829  -20.0759   15.0619 N   0  0  0  0  0  0  0  0  0  0  0  0
    8.5728  -19.3604   15.2252 C   0  0  0  0  0  0  0  0  0  0  0  0
    7.6596  -19.4667   14.3346 N   0  0  0  0  0  0  0  0  0  0  0  0
    8.3562  -18.5168   16.3722 N   0  0  0  0  0  0  0  0  0  0  0  0
    9.3534  -18.4368   17.3986 C   0  0  0  0  0  0  0  0  0  0  0  0
    9.3340  -19.7117   18.2515 C   0  0  0  0  0  0  0  0  0  0  0  0
   10.4884  -19.7283   19.2053 C   0  0  0  0  0  0  0  0  0  0  0  0
   10.1169  -19.3571   20.6155 C   0  0  2  0  0  0  0  0  0  0  0  0
    8.7109  -19.7723   20.7795 N   0  0  0  0  0  0  0  0  0  0  0  0
   10.2364  -17.8940   20.8537 C   0  0  0  0  0  0  0  0  0  0  0  0
   11.2938  -17.2830   20.6429 O   0  0  0  0  0  0  0  0  0  0  0  0
    6.8228  -18.8722   14.3835 C   0  0  0  0  0  0  0  0  0  0  0  0
    8.2300  -13.1410   20.3625 C   0  0  2  0  0  0  0  0  0  0  0  0
    7.4831  -13.8120   21.5624 C   0  0  0  0  0  0  0  0  0  0  0  0
    6.0122  -13.4846   21.2640 C   0  0  0  0  0  0  0  0  0  0  0  0
    7.7983  -15.2552   21.4669 C   0  0  2  0  0  0  0  0  0  0  0  0
    9.1697  -15.7505   21.6798 N   0  0  0  0  0  0  0  0  0  0  0  0
    9.1031  -17.2001   21.3326 C   0  0  0  0  0  0  0  0  0  0  0  0
    9.7640  -15.6626   23.0137 O   0  0  0  0  0  0  0  0  0  0  0  0
   10.8978  -15.1720   23.1788 N   0  0  0  0  0  0  0  0  0  0  0  0
    9.0844  -16.1321   24.1950 C   0  0  1  0  0  0  0  0  0  0  0  0
    9.7950  -16.0987   25.4355 C   0  0  0  0  0  0  0  0  0  0  0  0
    9.9550  -14.7323   26.0143 C   0  0  0  0  0  0  0  0  0  0  0  0
    8.7173  -13.9713   26.2028 C   0  0  0  0  0  0  0  0  0  0  0  0
    8.7286  -12.7251   26.7786 C   0  0  0  0  0  0  0  0  0  0  0  0
    7.5773  -11.9676   26.9683 C   0  0  0  0  0  0  0  0  0  0  0  0
    6.3785  -12.5181   26.5478 C   0  0  0  0  0  0  0  0  0  0  0  0
    6.3223  -13.7435   25.9754 C   0  0  0  0  0  0  0  0  0  0  0  0
    7.4981  -14.4835   25.7979 C   0  0  0  0  0  0  0  0  0  0  0  0
    8.9664  -16.8647   26.4408 O   0  0  0  0  0  0  0  0  0  0  0  0
    9.3457  -16.9199   27.6455 O   0  0  0  0  0  0  0  0  0  0  0  0
  2  1  1  0
  2  3  2  0
  4  2  1  0
  5  4  1  0
  6  5  1  0
  7  6  1  0
  8  7  1  0
  8  9  1  6
 10  8  1  0
 10 11  2  0
 13 14  1  6
 13 12  1  0
 16 15  1  6
 15 13  1  0
 16 17  1  0
 17 10  1  0
 18 16  1  0
 19 18  2  0
 20 18  1  0
 21 22  1  1
 21 20  1  0
 22 23  1  0
 23 28  2  0
 24 25  2  0
 24 23  1  0
 25 26  1  0
 26 27  2  0
 28 27  1  0
 29 21  1  0
 30 29  2  0
 31 29  1  0
M  END
$$$$
