RLF.pdb
     RDKit          3D

 31 31  0  0  1  0  0  0  0  0999 V2000
    9.7227  -14.2316   17.4560 N   0  0  0  0  0  0  0  0  0  0  0  0
    8.4637  -13.6143   17.2648 C   0  0  0  0  0  0  0  0  0  0  0  0
    8.4185  -12.3938   16.8816 N   0  0  0  0  0  0  0  0  0  0  0  0
    7.2387  -14.3352   17.4962 N   0  0  0  0  0  0  0  0  0  0  0  0
    7.2570  -15.5483   18.2595 C   0  0  0  0  0  0  0  0  0  0  0  0
    7.6718  -15.2533   19.7065 C   0  0  0  0  0  0  0  0  0  0  0  0
    6.9123  -16.1206   20.6624 C   0  0  0  0  0  0  0  0  0  0  0  0
    7.7907  -16.9435   21.5655 C   0  0  2  0  0  0  0  0  0  0  0  0
    6.8721  -17.7820   22.3588 N   0  0  0  0  0  0  0  0  0  0  0  0
    8.6020  -16.0925   22.4761 C   0  0  0  0  0  0  0  0  0  0  0  0
    9.6777  -15.5932   22.1164 O   0  0  0  0  0  0  0  0  0  0  0  0
    7.5132  -11.9148   16.7982 C   0  0  0  0  0  0  0  0  0  0  0  0
    6.2417  -12.7169   26.2144 C   0  0  1  0  0  0  0  0  0  0  0  0
    7.0943  -13.2654   25.0226 C   0  0  0  0  0  0  0  0  0  0  0  0
    7.9373  -12.0437   24.6265 C   0  0  0  0  0  0  0  0  0  0  0  0
    7.8932  -14.3766   25.5866 C   0  0  2  0  0  0  0  0  0  0  0  0
    8.9063  -15.0740   24.7751 N   0  0  0  0  0  0  0  0  0  0  0  0
    8.1162  -15.8584   23.7816 C   0  0  0  0  0  0  0  0  0  0  0  0
    9.8210  -16.0136   25.4237 O   0  0  0  0  0  0  0  0  0  0  0  0
    9.3920  -16.9062   26.1803 N   0  0  0  0  0  0  0  0  0  0  0  0
   11.2484  -15.9614   25.2295 C   0  0  2  0  0  0  0  0  0  0  0  0
   12.0602  -16.8750   25.9721 C   0  0  0  0  0  0  0  0  0  0  0  0
   11.4231  -17.3858   27.2214 C   0  0  0  0  0  0  0  0  0  0  0  0
   10.7565  -16.3810   28.0536 C   0  0  0  0  0  0  0  0  0  0  0  0
   10.9071  -15.0389   27.8070 C   0  0  0  0  0  0  0  0  0  0  0  0
   10.2857  -14.0542   28.5683 C   0  0  0  0  0  0  0  0  0  0  0  0
    9.4836  -14.4734   29.6160 C   0  0  0  0  0  0  0  0  0  0  0  0
    9.3077  -15.7864   29.8939 C   0  0  0  0  0  0  0  0  0  0  0  0
    9.9467  -16.7555   29.1103 C   0  0  0  0  0  0  0  0  0  0  0  0
   12.2659  -18.0926   25.1009 O   0  0  0  0  0  0  0  0  0  0  0  0
   13.0574  -19.0021   25.4812 O   0  0  0  0  0  0  0  0  0  0  0  0
  2  1  1  0
  2  3  2  0
  4  2  1  0
  5  4  1  0
  6  5  1  0
  7  6  1  0
  8  7  1  0
  8  9  1  1
 10  8  1  0
 10 11  2  0
 13 14  1  6
 13 12  1  0
 16 15  1  6
 15 13  1  0
 16 17  1  0
 17 10  1  0
 18 16  1  0
 19 18  2  0
 20 18  1  0
 21 22  1  1
 21 20  1  0
 22 23  1  0
 23 28  2  0
 24 25  2  0
 24 23  1  0
 25 26  1  0
 26 27  2  0
 28 27  1  0
 29 21  1  0
 30 29  2  0
 31 29  1  0
M  END
$$$$
