FNA.pdb
     RDKit          3D

 25 25  0  0  1  0  0  0  0  0999 V2000
   22.5335  -15.5818  -17.5569 N   0  0  0  0  0  0  0  0  0  0  0  0
   22.3963  -14.4035  -16.7726 C   0  0  1  0  0  0  0  0  0  0  0  0
   23.6363  -13.5564  -16.9573 C   0  0  0  0  0  0  0  0  0  0  0  0
   24.8470  -14.2737  -16.5335 C   0  0  0  0  0  0  0  0  0  0  0  0
   25.6915  -14.8217  -17.4740 C   0  0  0  0  0  0  0  0  0  0  0  0
   26.8227  -15.4916  -17.0709 C   0  0  0  0  0  0  0  0  0  0  0  0
   27.0765  -15.5934  -15.7244 C   0  0  0  0  0  0  0  0  0  0  0  0
   26.2363  -15.0474  -14.7685 C   0  0  0  0  0  0  0  0  0  0  0  0
   25.1023  -14.3759  -15.1758 C   0  0  0  0  0  0  0  0  0  0  0  0
   21.1563  -13.6573  -16.9749 C   0  0  0  0  0  0  0  0  0  0  0  0
   20.6716  -13.6003  -18.1347 O   0  0  0  0  0  0  0  0  0  0  0  0
   16.0237  -12.1018  -16.4610 N   0  0  0  0  0  0  0  0  0  0  0  0
   16.9076  -11.7714  -15.4067 C   0  0  0  0  0  0  0  0  0  0  0  0
   16.6038  -10.7860  -14.6902 O   0  0  0  0  0  0  0  0  0  0  0  0
   18.1113  -12.5944  -15.2204 C   0  0  0  0  0  0  0  0  0  0  0  0
   19.2407  -12.2437  -16.1280 C   0  0  2  0  0  0  0  0  0  0  0  0
   20.4336  -12.9781  -15.9689 N   0  0  0  0  0  0  0  0  0  0  0  0
   19.5151  -10.7925  -16.0391 C   0  0  0  0  0  0  0  0  0  0  0  0
   20.1291  -10.2592  -15.0838 O   0  0  0  0  0  0  0  0  0  0  0  0
   18.7204   -8.0100  -18.4339 C   0  0  0  0  0  0  0  0  0  0  0  0
   19.2256   -8.5142  -17.0903 C   0  0  2  0  0  0  0  0  0  0  0  0
   19.0650   -9.9491  -17.0836 N   0  0  0  0  0  0  0  0  0  0  0  0
   18.3865   -7.9353  -16.0128 C   0  0  0  0  0  0  0  0  0  0  0  0
   18.7890   -6.8526  -15.2462 O   0  0  0  0  0  0  0  0  0  0  0  0
   17.2463   -8.4172  -15.7455 O   0  0  0  0  0  0  0  0  0  0  0  0
  2  1  1  6
  2 10  1  0
  3  2  1  0
  4  3  1  0
  5  4  2  0
  6  5  1  0
  7  6  2  0
  7  8  1  0
  8  9  2  0
  9  4  1  0
 10 11  2  0
 10 17  1  0
 13 12  1  0
 14 13  2  0
 15 13  1  0
 16 15  1  1
 17 16  1  0
 18 22  1  0
 18 16  1  0
 19 18  2  0
 21 20  1  6
 21 23  1  0
 21 22  1  0
 23 24  1  0
 25 23  2  0
M  END
$$$$
