FNA.pdb
     RDKit          3D

 25 25  0  0  1  0  0  0  0  0999 V2000
   23.1484   -6.3847  -14.7488 N   0  0  0  0  0  0  0  0  0  0  0  0
   21.8925   -6.8771  -14.2988 C   0  0  1  0  0  0  0  0  0  0  0  0
   22.1283   -8.1501  -13.5159 C   0  0  0  0  0  0  0  0  0  0  0  0
   22.5444   -9.2532  -14.3932 C   0  0  0  0  0  0  0  0  0  0  0  0
   21.6670   -9.7665  -15.3231 C   0  0  0  0  0  0  0  0  0  0  0  0
   22.0626  -10.7987  -16.1410 C   0  0  0  0  0  0  0  0  0  0  0  0
   23.3380  -11.2906  -16.0015 C   0  0  0  0  0  0  0  0  0  0  0  0
   24.2300  -10.7841  -15.0711 C   0  0  0  0  0  0  0  0  0  0  0  0
   23.8303   -9.7486  -14.2519 C   0  0  0  0  0  0  0  0  0  0  0  0
   21.0598   -5.9108  -13.5858 C   0  0  0  0  0  0  0  0  0  0  0  0
   21.6158   -5.1100  -12.7902 O   0  0  0  0  0  0  0  0  0  0  0  0
   19.2706   -1.5746  -14.2980 N   0  0  0  0  0  0  0  0  0  0  0  0
   19.1957   -2.9386  -14.6666 C   0  0  0  0  0  0  0  0  0  0  0  0
   19.9744   -3.3331  -15.5692 O   0  0  0  0  0  0  0  0  0  0  0  0
   18.2216   -3.7962  -13.9764 C   0  0  0  0  0  0  0  0  0  0  0  0
   18.8319   -4.8270  -13.0891 C   0  0  2  0  0  0  0  0  0  0  0  0
   19.6578   -5.7876  -13.7077 N   0  0  0  0  0  0  0  0  0  0  0  0
   17.7714   -5.4925  -12.3006 C   0  0  0  0  0  0  0  0  0  0  0  0
   17.0702   -6.4364  -12.7377 O   0  0  0  0  0  0  0  0  0  0  0  0
   16.5668   -4.8371   -8.8020 C   0  0  0  0  0  0  0  0  0  0  0  0
   16.4899   -5.5826  -10.1260 C   0  0  2  0  0  0  0  0  0  0  0  0
   17.5251   -5.0483  -10.9789 N   0  0  0  0  0  0  0  0  0  0  0  0
   15.1717   -5.3169  -10.7520 C   0  0  0  0  0  0  0  0  0  0  0  0
   14.9661   -4.2957  -11.6667 O   0  0  0  0  0  0  0  0  0  0  0  0
   14.1618   -6.0269  -10.4695 O   0  0  0  0  0  0  0  0  0  0  0  0
  2  1  1  1
  2 10  1  0
  3  2  1  0
  4  3  1  0
  5  4  2  0
  6  5  1  0
  7  6  2  0
  7  8  1  0
  8  9  2  0
  9  4  1  0
 10 11  2  0
 10 17  1  0
 13 12  1  0
 14 13  2  0
 15 13  1  0
 16 15  1  6
 17 16  1  0
 18 22  1  0
 18 16  1  0
 19 18  2  0
 21 20  1  1
 21 23  1  0
 21 22  1  0
 23 24  1  0
 25 23  2  0
M  END
$$$$
