FNA.pdb
     RDKit          3D

 25 25  0  0  1  0  0  0  0  0999 V2000
   17.3799   -6.1141   -9.2012 N   0  0  0  0  0  0  0  0  0  0  0  0
   17.7777   -5.7583  -10.5194 C   0  0  1  0  0  0  0  0  0  0  0  0
   18.7922   -4.6394  -10.4294 C   0  0  0  0  0  0  0  0  0  0  0  0
   18.1628   -3.3719  -10.0331 C   0  0  0  0  0  0  0  0  0  0  0  0
   18.3491   -2.8744   -8.7620 C   0  0  0  0  0  0  0  0  0  0  0  0
   17.7574   -1.6879   -8.3975 C   0  0  0  0  0  0  0  0  0  0  0  0
   16.9891   -1.0287   -9.3266 C   0  0  0  0  0  0  0  0  0  0  0  0
   16.7936   -1.5173  -10.6075 C   0  0  0  0  0  0  0  0  0  0  0  0
   17.3884   -2.7078  -10.9704 C   0  0  0  0  0  0  0  0  0  0  0  0
   18.2204   -6.8678  -11.3610 C   0  0  0  0  0  0  0  0  0  0  0  0
   18.8076   -7.8382  -10.8163 O   0  0  0  0  0  0  0  0  0  0  0  0
   15.9445   -9.1169  -13.0515 N   0  0  0  0  0  0  0  0  0  0  0  0
   16.2014   -8.7915  -14.4044 C   0  0  0  0  0  0  0  0  0  0  0  0
   15.2573   -8.9375  -15.2193 O   0  0  0  0  0  0  0  0  0  0  0  0
   17.5424   -8.3090  -14.7642 C   0  0  0  0  0  0  0  0  0  0  0  0
   18.4261   -8.0257  -13.5975 C   0  0  2  0  0  0  0  0  0  0  0  0
   18.0477   -6.9564  -12.7603 N   0  0  0  0  0  0  0  0  0  0  0  0
   19.8188   -7.8455  -14.0634 C   0  0  0  0  0  0  0  0  0  0  0  0
   20.2769   -6.7529  -14.4763 O   0  0  0  0  0  0  0  0  0  0  0  0
   22.6944  -10.2592  -14.1122 C   0  0  0  0  0  0  0  0  0  0  0  0
   22.0825   -8.9034  -14.4317 C   0  0  2  0  0  0  0  0  0  0  0  0
   20.6920   -8.9600  -14.0472 N   0  0  0  0  0  0  0  0  0  0  0  0
   22.1637   -8.6716  -15.8946 C   0  0  0  0  0  0  0  0  0  0  0  0
   23.2268   -8.0134  -16.4934 O   0  0  0  0  0  0  0  0  0  0  0  0
   21.2465   -9.0740  -16.6695 O   0  0  0  0  0  0  0  0  0  0  0  0
  2  1  1  1
  2 10  1  0
  3  2  1  0
  4  3  1  0
  5  4  2  0
  6  5  1  0
  7  6  2  0
  7  8  1  0
  8  9  2  0
  9  4  1  0
 10 11  2  0
 10 17  1  0
 13 12  1  0
 14 13  2  0
 15 13  1  0
 16 15  1  6
 17 16  1  0
 18 22  1  0
 18 16  1  0
 19 18  2  0
 21 20  1  6
 21 23  1  0
 21 22  1  0
 23 24  1  0
 25 23  2  0
M  END
$$$$
