FNA.pdb
     RDKit          3D

 25 25  0  0  1  0  0  0  0  0999 V2000
   24.3433  -25.9464  -16.1494 N   0  0  0  0  0  0  0  0  0  0  0  0
   25.1706  -25.9096  -17.3056 C   0  0  1  0  0  0  0  0  0  0  0  0
   24.3183  -25.5209  -18.4937 C   0  0  0  0  0  0  0  0  0  0  0  0
   23.3640  -26.5825  -18.8429 C   0  0  0  0  0  0  0  0  0  0  0  0
   23.7631  -27.6401  -19.6303 C   0  0  0  0  0  0  0  0  0  0  0  0
   22.8653  -28.6303  -19.9534 C   0  0  0  0  0  0  0  0  0  0  0  0
   21.5817  -28.5302  -19.4732 C   0  0  0  0  0  0  0  0  0  0  0  0
   21.1673  -27.4727  -18.6809 C   0  0  0  0  0  0  0  0  0  0  0  0
   22.0702  -26.4809  -18.3584 C   0  0  0  0  0  0  0  0  0  0  0  0
   26.3841  -25.1050  -17.1822 C   0  0  0  0  0  0  0  0  0  0  0  0
   26.3340  -24.0408  -16.5126 O   0  0  0  0  0  0  0  0  0  0  0  0
   31.5379  -25.2116  -14.9918 N   0  0  0  0  0  0  0  0  0  0  0  0
   30.5735  -24.5925  -15.8217 C   0  0  0  0  0  0  0  0  0  0  0  0
   30.3120  -23.3852  -15.5962 O   0  0  0  0  0  0  0  0  0  0  0  0
   29.9471  -25.3941  -16.8827 C   0  0  0  0  0  0  0  0  0  0  0  0
   28.8424  -24.7006  -17.6045 C   0  0  2  0  0  0  0  0  0  0  0  0
   27.6369  -25.4157  -17.7563 N   0  0  0  0  0  0  0  0  0  0  0  0
   29.3293  -24.2292  -18.9197 C   0  0  0  0  0  0  0  0  0  0  0  0
   29.3579  -24.9479  -19.9477 O   0  0  0  0  0  0  0  0  0  0  0  0
   30.7425  -20.8995  -19.9379 C   0  0  0  0  0  0  0  0  0  0  0  0
   30.3595  -22.3401  -20.2424 C   0  0  2  0  0  0  0  0  0  0  0  0
   29.7910  -22.8958  -19.0371 N   0  0  0  0  0  0  0  0  0  0  0  0
   31.5852  -23.1013  -20.5866 C   0  0  0  0  0  0  0  0  0  0  0  0
   32.0006  -23.3063  -21.8933 O   0  0  0  0  0  0  0  0  0  0  0  0
   32.3150  -23.6040  -19.6819 O   0  0  0  0  0  0  0  0  0  0  0  0
  2  1  1  1
  2 10  1  0
  3  2  1  0
  4  3  1  0
  5  4  2  0
  6  5  1  0
  7  6  2  0
  7  8  1  0
  8  9  2  0
  9  4  1  0
 10 11  2  0
 10 17  1  0
 13 12  1  0
 14 13  2  0
 15 13  1  0
 16 15  1  6
 17 16  1  0
 18 22  1  0
 18 16  1  0
 19 18  2  0
 21 20  1  1
 21 23  1  0
 21 22  1  0
 23 24  1  0
 25 23  2  0
M  END
$$$$
