FNA.pdb
     RDKit          3D

 25 25  0  0  1  0  0  0  0  0999 V2000
   28.3463  -21.0458  -12.7279 N   0  0  0  0  0  0  0  0  0  0  0  0
   27.8298  -21.7612  -11.6126 C   0  0  1  0  0  0  0  0  0  0  0  0
   28.6008  -21.3480  -10.3781 C   0  0  0  0  0  0  0  0  0  0  0  0
   30.0271  -21.6812  -10.4967 C   0  0  0  0  0  0  0  0  0  0  0  0
   30.4809  -22.9254  -10.1173 C   0  0  0  0  0  0  0  0  0  0  0  0
   31.8168  -23.2309  -10.2308 C   0  0  0  0  0  0  0  0  0  0  0  0
   32.6665  -22.2713  -10.7260 C   0  0  0  0  0  0  0  0  0  0  0  0
   32.2238  -21.0169  -11.1110 C   0  0  0  0  0  0  0  0  0  0  0  0
   30.8831  -20.7133  -10.9960 C   0  0  0  0  0  0  0  0  0  0  0  0
   26.3812  -21.6858  -11.4365 C   0  0  0  0  0  0  0  0  0  0  0  0
   25.8478  -22.3866  -10.5378 O   0  0  0  0  0  0  0  0  0  0  0  0
   24.9274  -20.0259   -8.7692 N   0  0  0  0  0  0  0  0  0  0  0  0
   23.8326  -20.4458   -9.5612 C   0  0  0  0  0  0  0  0  0  0  0  0
   23.0621  -21.3050   -9.0664 O   0  0  0  0  0  0  0  0  0  0  0  0
   23.6701  -19.8554  -10.8975 C   0  0  0  0  0  0  0  0  0  0  0  0
   24.1120  -20.7368  -12.0156 C   0  0  2  0  0  0  0  0  0  0  0  0
   25.5025  -20.8823  -12.1968 N   0  0  0  0  0  0  0  0  0  0  0  0
   23.4729  -20.2967  -13.2754 C   0  0  0  0  0  0  0  0  0  0  0  0
   23.7921  -19.2486  -13.8865 O   0  0  0  0  0  0  0  0  0  0  0  0
   21.0919  -22.0464  -15.5545 C   0  0  0  0  0  0  0  0  0  0  0  0
   21.7293  -20.7634  -15.0420 C   0  0  2  0  0  0  0  0  0  0  0  0
   22.4434  -21.0940  -13.8315 N   0  0  0  0  0  0  0  0  0  0  0  0
   20.6577  -19.7917  -14.7135 C   0  0  0  0  0  0  0  0  0  0  0  0
   20.0888  -18.9522  -15.6587 O   0  0  0  0  0  0  0  0  0  0  0  0
   20.2116  -19.6890  -13.5328 O   0  0  0  0  0  0  0  0  0  0  0  0
  2  1  1  6
  2 10  1  0
  3  2  1  0
  4  3  1  0
  5  4  2  0
  6  5  1  0
  7  6  2  0
  7  8  1  0
  8  9  2  0
  9  4  1  0
 10 11  2  0
 10 17  1  0
 13 12  1  0
 14 13  2  0
 15 13  1  0
 16 15  1  1
 17 16  1  0
 18 22  1  0
 18 16  1  0
 19 18  2  0
 21 20  1  1
 21 23  1  0
 21 22  1  0
 23 24  1  0
 25 23  2  0
M  END
$$$$
