FNA.pdb
     RDKit          3D

 25 25  0  0  1  0  0  0  0  0999 V2000
   21.1667  -10.4465  -16.5000 N   0  0  0  0  0  0  0  0  0  0  0  0
   20.1419   -9.7280  -15.8249 C   0  0  1  0  0  0  0  0  0  0  0  0
   19.0639  -10.7052  -15.4096 C   0  0  0  0  0  0  0  0  0  0  0  0
   18.3166  -11.2086  -16.5705 C   0  0  0  0  0  0  0  0  0  0  0  0
   18.7634  -12.3189  -17.2527 C   0  0  0  0  0  0  0  0  0  0  0  0
   18.0595  -12.7849  -18.3382 C   0  0  0  0  0  0  0  0  0  0  0  0
   16.9176  -12.1179  -18.7114 C   0  0  0  0  0  0  0  0  0  0  0  0
   16.4572  -11.0008  -18.0347 C   0  0  0  0  0  0  0  0  0  0  0  0
   17.1654  -10.5357  -16.9462 C   0  0  0  0  0  0  0  0  0  0  0  0
   20.5938   -8.8728  -14.7297 C   0  0  0  0  0  0  0  0  0  0  0  0
   21.7689   -9.0142  -14.3024 O   0  0  0  0  0  0  0  0  0  0  0  0
   22.1533   -5.5618  -11.2429 N   0  0  0  0  0  0  0  0  0  0  0  0
   21.8895   -5.1253  -12.5627 C   0  0  0  0  0  0  0  0  0  0  0  0
   22.0304   -3.9006  -12.8014 O   0  0  0  0  0  0  0  0  0  0  0  0
   21.4720   -6.1231  -13.5582 C   0  0  0  0  0  0  0  0  0  0  0  0
   20.2693   -6.9128  -13.1682 C   0  0  2  0  0  0  0  0  0  0  0  0
   19.8190   -7.8794  -14.0904 N   0  0  0  0  0  0  0  0  0  0  0  0
   19.1676   -5.9925  -12.8095 C   0  0  0  0  0  0  0  0  0  0  0  0
   18.5885   -5.2473  -13.6360 O   0  0  0  0  0  0  0  0  0  0  0  0
   17.3742   -5.5368   -9.5419 C   0  0  0  0  0  0  0  0  0  0  0  0
   17.5763   -5.2054  -11.0129 C   0  0  2  0  0  0  0  0  0  0  0  0
   18.7343   -5.9414  -11.4624 N   0  0  0  0  0  0  0  0  0  0  0  0
   17.8525   -3.7541  -11.1456 C   0  0  0  0  0  0  0  0  0  0  0  0
   16.8657   -2.7874  -11.0287 O   0  0  0  0  0  0  0  0  0  0  0  0
   19.0244   -3.3327  -11.3756 O   0  0  0  0  0  0  0  0  0  0  0  0
  2  1  1  1
  2 10  1  0
  3  2  1  0
  4  3  1  0
  5  4  2  0
  6  5  1  0
  7  6  2  0
  7  8  1  0
  8  9  2  0
  9  4  1  0
 10 11  2  0
 10 17  1  0
 13 12  1  0
 14 13  2  0
 15 13  1  0
 16 15  1  6
 17 16  1  0
 18 22  1  0
 18 16  1  0
 19 18  2  0
 21 20  1  1
 21 23  1  0
 21 22  1  0
 23 24  1  0
 25 23  2  0
M  END
$$$$
