FNA.pdb
     RDKit          3D

 25 25  0  0  1  0  0  0  0  0999 V2000
   19.1607   -9.6176  -14.3838 N   0  0  0  0  0  0  0  0  0  0  0  0
   19.4228   -8.7849  -13.2611 C   0  0  1  0  0  0  0  0  0  0  0  0
   20.5721   -7.8629  -13.6050 C   0  0  0  0  0  0  0  0  0  0  0  0
   21.7787   -8.6185  -13.9697 C   0  0  0  0  0  0  0  0  0  0  0  0
   22.3192   -9.5274  -13.0868 C   0  0  0  0  0  0  0  0  0  0  0  0
   23.4483  -10.2311  -13.4341 C   0  0  0  0  0  0  0  0  0  0  0  0
   24.0076  -10.0010  -14.6679 C   0  0  0  0  0  0  0  0  0  0  0  0
   23.4747   -9.0904  -15.5650 C   0  0  0  0  0  0  0  0  0  0  0  0
   22.3419   -8.3859  -15.2138 C   0  0  0  0  0  0  0  0  0  0  0  0
   18.2631   -8.0793  -12.7203 C   0  0  0  0  0  0  0  0  0  0  0  0
   17.2832   -7.8633  -13.4796 O   0  0  0  0  0  0  0  0  0  0  0  0
   14.5507   -6.8031   -8.6140 N   0  0  0  0  0  0  0  0  0  0  0  0
   15.7577   -6.1143   -8.8796 C   0  0  0  0  0  0  0  0  0  0  0  0
   15.7703   -4.8762   -8.6704 O   0  0  0  0  0  0  0  0  0  0  0  0
   16.9064   -6.8843   -9.3779 C   0  0  0  0  0  0  0  0  0  0  0  0
   17.0660   -6.8584  -10.8598 C   0  0  2  0  0  0  0  0  0  0  0  0
   18.1348   -7.6056  -11.3956 N   0  0  0  0  0  0  0  0  0  0  0  0
   17.1351   -5.4559  -11.3260 C   0  0  0  0  0  0  0  0  0  0  0  0
   18.1675   -4.7476  -11.2456 O   0  0  0  0  0  0  0  0  0  0  0  0
   15.1514   -3.5901  -13.7342 C   0  0  0  0  0  0  0  0  0  0  0  0
   15.9312   -3.5291  -12.4292 C   0  0  2  0  0  0  0  0  0  0  0  0
   15.9790   -4.8700  -11.8959 N   0  0  0  0  0  0  0  0  0  0  0  0
   15.2015   -2.6611  -11.4729 C   0  0  0  0  0  0  0  0  0  0  0  0
   14.5240   -3.1600  -10.3711 O   0  0  0  0  0  0  0  0  0  0  0  0
   15.1683   -1.4048  -11.6287 O   0  0  0  0  0  0  0  0  0  0  0  0
  2  1  1  6
  2 10  1  0
  3  2  1  0
  4  3  1  0
  5  4  2  0
  6  5  1  0
  7  6  2  0
  7  8  1  0
  8  9  2  0
  9  4  1  0
 10 11  2  0
 10 17  1  0
 13 12  1  0
 14 13  2  0
 15 13  1  0
 16 15  1  1
 17 16  1  0
 18 22  1  0
 18 16  1  0
 19 18  2  0
 21 20  1  6
 21 23  1  0
 21 22  1  0
 23 24  1  0
 25 23  2  0
M  END
$$$$
