FNA.pdb
     RDKit          3D

 25 25  0  0  1  0  0  0  0  0999 V2000
   28.3676  -21.2484   -9.0028 N   0  0  0  0  0  0  0  0  0  0  0  0
   27.0772  -20.6507   -9.0014 C   0  0  1  0  0  0  0  0  0  0  0  0
   27.1446  -19.3642   -8.2079 C   0  0  0  0  0  0  0  0  0  0  0  0
   27.6412  -19.5973   -6.8445 C   0  0  0  0  0  0  0  0  0  0  0  0
   28.8590  -19.0848   -6.4546 C   0  0  0  0  0  0  0  0  0  0  0  0
   29.3180  -19.3065   -5.1775 C   0  0  0  0  0  0  0  0  0  0  0  0
   28.5354  -20.0423   -4.3207 C   0  0  0  0  0  0  0  0  0  0  0  0
   27.3094  -20.5632   -4.6995 C   0  0  0  0  0  0  0  0  0  0  0  0
   26.8515  -20.3392   -5.9813 C   0  0  0  0  0  0  0  0  0  0  0  0
   26.4636  -20.4820  -10.3168 C   0  0  0  0  0  0  0  0  0  0  0  0
   27.2107  -20.2560  -11.3038 O   0  0  0  0  0  0  0  0  0  0  0  0
   26.7482  -20.6103  -13.4109 N   0  0  0  0  0  0  0  0  0  0  0  0
   25.9937  -21.8067  -13.4499 C   0  0  0  0  0  0  0  0  0  0  0  0
   26.4268  -22.7352  -14.1759 O   0  0  0  0  0  0  0  0  0  0  0  0
   24.7651  -21.8842  -12.6467 C   0  0  0  0  0  0  0  0  0  0  0  0
   24.4689  -20.6542  -11.8583 C   0  0  2  0  0  0  0  0  0  0  0  0
   25.0797  -20.5502  -10.5920 N   0  0  0  0  0  0  0  0  0  0  0  0
   23.0040  -20.4841  -11.7377 C   0  0  0  0  0  0  0  0  0  0  0  0
   22.3145  -21.0215  -10.8379 O   0  0  0  0  0  0  0  0  0  0  0  0
   20.6040  -18.4968  -13.8380 C   0  0  0  0  0  0  0  0  0  0  0  0
   20.9126  -19.4116  -12.6622 C   0  0  2  0  0  0  0  0  0  0  0  0
   22.3324  -19.6728  -12.6840 N   0  0  0  0  0  0  0  0  0  0  0  0
   20.1889  -20.6932  -12.8470 C   0  0  0  0  0  0  0  0  0  0  0  0
   18.9308  -20.9296  -12.3148 O   0  0  0  0  0  0  0  0  0  0  0  0
   20.7026  -21.6410  -13.5116 O   0  0  0  0  0  0  0  0  0  0  0  0
  2  1  1  6
  2 10  1  0
  3  2  1  0
  4  3  1  0
  5  4  2  0
  6  5  1  0
  7  6  2  0
  7  8  1  0
  8  9  2  0
  9  4  1  0
 10 11  2  0
 10 17  1  0
 13 12  1  0
 14 13  2  0
 15 13  1  0
 16 15  1  1
 17 16  1  0
 18 22  1  0
 18 16  1  0
 19 18  2  0
 21 20  1  6
 21 23  1  0
 21 22  1  0
 23 24  1  0
 25 23  2  0
M  END
$$$$
