YGR.pdb
     RDKit          3D

 28 28  0  0  1  0  0  0  0  0999 V2000
    7.3627  -13.1875   15.2166 O   0  0  0  0  0  0  0  0  0  0  0  0
    7.4506  -13.8112   16.4595 C   0  0  0  0  0  0  0  0  0  0  0  0
    7.7275  -13.0568   17.5905 C   0  0  0  0  0  0  0  0  0  0  0  0
    7.8162  -13.6665   18.8243 C   0  0  0  0  0  0  0  0  0  0  0  0
    7.6285  -15.0279   18.9270 C   0  0  0  0  0  0  0  0  0  0  0  0
    7.7285  -15.6654   20.2671 C   0  0  0  0  0  0  0  0  0  0  0  0
    9.1108  -15.4486   20.8494 C   0  0  2  0  0  0  0  0  0  0  0  0
   10.1163  -15.6275   19.8218 N   0  0  0  0  0  0  0  0  0  0  0  0
    9.3124  -16.3774   21.9815 C   0  0  0  0  0  0  0  0  0  0  0  0
    8.5014  -16.4211   22.9422 O   0  0  0  0  0  0  0  0  0  0  0  0
    7.3527  -15.7606   17.7817 C   0  0  0  0  0  0  0  0  0  0  0  0
    7.2574  -15.1847   16.5372 C   0  0  0  0  0  0  0  0  0  0  0  0
   10.4398  -17.2422   21.9967 N   0  0  0  0  0  0  0  0  0  0  0  0
   10.6528  -18.1961   23.0662 C   0  0  0  0  0  0  0  0  0  0  0  0
   10.9989  -17.5099   24.3394 C   0  0  0  0  0  0  0  0  0  0  0  0
   12.0476  -16.8045   24.3482 O   0  0  0  0  0  0  0  0  0  0  0  0
    5.4947  -12.7014   26.2893 N   0  0  0  0  0  0  0  0  0  0  0  0
    6.4833  -12.0609   27.0856 C   0  0  0  0  0  0  0  0  0  0  0  0
    6.5012  -10.7674   27.1056 N   0  0  0  0  0  0  0  0  0  0  0  0
    7.4315  -12.7936   27.8437 N   0  0  0  0  0  0  0  0  0  0  0  0
    7.6630  -14.2053   27.4593 C   0  0  0  0  0  0  0  0  0  0  0  0
    8.7462  -14.3071   26.4575 C   0  0  0  0  0  0  0  0  0  0  0  0
    9.1196  -15.6235   25.9902 C   0  0  0  0  0  0  0  0  0  0  0  0
   10.2511  -16.4307   26.4714 C   0  0  2  0  0  0  0  0  0  0  0  0
   10.2331  -17.6063   25.5062 N   0  0  0  0  0  0  0  0  0  0  0  0
   10.1975  -17.0154   27.8170 C   0  0  0  0  0  0  0  0  0  0  0  0
    9.9151  -18.2723   27.8950 O   0  0  0  0  0  0  0  0  0  0  0  0
   10.4114  -16.4241   29.0289 O   0  0  0  0  0  0  0  0  0  0  0  0
  2 12  2  0
  2  1  1  0
  3  2  1  0
  4  5  1  0
  4  3  2  0
  5 11  2  0
  6  7  1  0
  6  5  1  0
  7  8  1  6
  9  7  1  0
  9 13  1  0
 10  9  2  0
 11 12  1  0
 13 14  1  0
 15 14  1  0
 15 16  2  0
 18 17  1  0
 19 18  2  0
 20 18  1  0
 21 22  1  0
 21 20  1  0
 22 23  1  0
 24 23  1  6
 24 25  1  0
 24 26  1  0
 25 15  1  0
 26 27  2  0
 26 28  1  0
M  END
$$$$
