YGR.pdb
     RDKit          3D

 28 28  0  0  1  0  0  0  0  0999 V2000
   11.3007  -15.6560   31.0336 O   0  0  0  0  0  0  0  0  0  0  0  0
   10.7225  -15.4081   29.7903 C   0  0  0  0  0  0  0  0  0  0  0  0
   10.1147  -14.1852   29.5450 C   0  0  0  0  0  0  0  0  0  0  0  0
    9.5402  -13.9319   28.3172 C   0  0  0  0  0  0  0  0  0  0  0  0
    9.5733  -14.8995   27.3364 C   0  0  0  0  0  0  0  0  0  0  0  0
    8.9478  -14.6058   26.0194 C   0  0  0  0  0  0  0  0  0  0  0  0
    7.6323  -15.3466   25.8864 C   0  0  2  0  0  0  0  0  0  0  0  0
    7.7938  -16.7245   26.3037 N   0  0  0  0  0  0  0  0  0  0  0  0
    7.1583  -15.2485   24.4898 C   0  0  0  0  0  0  0  0  0  0  0  0
    6.8355  -14.1416   23.9864 O   0  0  0  0  0  0  0  0  0  0  0  0
   10.1868  -16.1143   27.6057 C   0  0  0  0  0  0  0  0  0  0  0  0
   10.7688  -16.3993   28.8180 C   0  0  0  0  0  0  0  0  0  0  0  0
    7.0609  -16.4192   23.6905 N   0  0  0  0  0  0  0  0  0  0  0  0
    6.9782  -16.3495   22.2456 C   0  0  0  0  0  0  0  0  0  0  0  0
    8.3135  -16.5411   21.6195 C   0  0  0  0  0  0  0  0  0  0  0  0
    8.9481  -17.5910   21.9236 O   0  0  0  0  0  0  0  0  0  0  0  0
    7.5732  -14.8226   14.4548 N   0  0  0  0  0  0  0  0  0  0  0  0
    7.5622  -14.2166   15.7410 C   0  0  0  0  0  0  0  0  0  0  0  0
    7.9461  -12.9846   15.8342 N   0  0  0  0  0  0  0  0  0  0  0  0
    7.1481  -14.9185   16.9014 N   0  0  0  0  0  0  0  0  0  0  0  0
    7.9686  -14.7534   18.1236 C   0  0  0  0  0  0  0  0  0  0  0  0
    9.3871  -15.0716   17.8522 C   0  0  0  0  0  0  0  0  0  0  0  0
   10.3076  -15.0832   18.9672 C   0  0  0  0  0  0  0  0  0  0  0  0
   10.2494  -15.9739   20.1363 C   0  0  2  0  0  0  0  0  0  0  0  0
    8.8899  -15.6313   20.7267 N   0  0  0  0  0  0  0  0  0  0  0  0
   11.2167  -15.7954   21.2262 C   0  0  0  0  0  0  0  0  0  0  0  0
   12.4593  -15.9952   20.9403 O   0  0  0  0  0  0  0  0  0  0  0  0
   11.0027  -15.4358   22.5257 O   0  0  0  0  0  0  0  0  0  0  0  0
  2 12  2  0
  2  1  1  0
  3  2  1  0
  4  5  1  0
  4  3  2  0
  5 11  2  0
  6  7  1  0
  6  5  1  0
  7  8  1  6
  9  7  1  0
  9 13  1  0
 10  9  2  0
 11 12  1  0
 13 14  1  0
 15 14  1  0
 15 16  2  0
 18 17  1  0
 19 18  2  0
 20 18  1  0
 21 22  1  0
 21 20  1  0
 22 23  1  0
 24 23  1  6
 24 25  1  0
 24 26  1  0
 25 15  1  0
 26 27  2  0
 26 28  1  0
M  END
$$$$
