YGR.pdb
     RDKit          3D

 28 28  0  0  1  0  0  0  0  0999 V2000
    7.1950  -13.1776   15.4000 O   0  0  0  0  0  0  0  0  0  0  0  0
    7.5341  -13.4297   16.7278 C   0  0  0  0  0  0  0  0  0  0  0  0
    7.3475  -12.4432   17.6854 C   0  0  0  0  0  0  0  0  0  0  0  0
    7.6806  -12.6846   19.0017 C   0  0  0  0  0  0  0  0  0  0  0  0
    8.1992  -13.9101   19.3598 C   0  0  0  0  0  0  0  0  0  0  0  0
    8.5518  -14.1496   20.7848 C   0  0  0  0  0  0  0  0  0  0  0  0
    9.0338  -15.5740   20.9738 C   0  0  2  0  0  0  0  0  0  0  0  0
    7.9291  -16.4976   20.8140 N   0  0  0  0  0  0  0  0  0  0  0  0
    9.6663  -15.7005   22.3038 C   0  0  0  0  0  0  0  0  0  0  0  0
   10.6602  -14.9985   22.6232 O   0  0  0  0  0  0  0  0  0  0  0  0
    8.3765  -14.8804   18.3843 C   0  0  0  0  0  0  0  0  0  0  0  0
    8.0552  -14.6728   17.0639 C   0  0  0  0  0  0  0  0  0  0  0  0
    9.1514  -16.6291   23.2481 N   0  0  0  0  0  0  0  0  0  0  0  0
    9.7562  -16.8017   24.5533 C   0  0  0  0  0  0  0  0  0  0  0  0
   10.9931  -17.6234   24.4697 C   0  0  0  0  0  0  0  0  0  0  0  0
   10.8672  -18.8172   24.0745 O   0  0  0  0  0  0  0  0  0  0  0  0
   16.1080  -13.9657   20.0242 N   0  0  0  0  0  0  0  0  0  0  0  0
   14.9233  -14.5883   19.5441 C   0  0  0  0  0  0  0  0  0  0  0  0
   14.5082  -14.2705   18.3606 N   0  0  0  0  0  0  0  0  0  0  0  0
   14.2007  -15.5315   20.3180 N   0  0  0  0  0  0  0  0  0  0  0  0
   14.7619  -15.8981   21.6390 C   0  0  0  0  0  0  0  0  0  0  0  0
   13.8558  -16.8190   22.3586 C   0  0  0  0  0  0  0  0  0  0  0  0
   14.2771  -17.3191   23.6481 C   0  0  0  0  0  0  0  0  0  0  0  0
   13.4519  -18.0773   24.6010 C   0  0  2  0  0  0  0  0  0  0  0  0
   12.2657  -17.1464   24.8016 N   0  0  0  0  0  0  0  0  0  0  0  0
   13.9754  -18.3557   25.9441 C   0  0  0  0  0  0  0  0  0  0  0  0
   13.4561  -17.6906   26.9207 O   0  0  0  0  0  0  0  0  0  0  0  0
   14.9453  -19.2347   26.3321 O   0  0  0  0  0  0  0  0  0  0  0  0
  2 12  2  0
  2  1  1  0
  3  2  1  0
  4  5  1  0
  4  3  2  0
  5 11  2  0
  6  7  1  0
  6  5  1  0
  7  8  1  1
  9  7  1  0
  9 13  1  0
 10  9  2  0
 11 12  1  0
 13 14  1  0
 15 14  1  0
 15 16  2  0
 18 17  1  0
 19 18  2  0
 20 18  1  0
 21 22  1  0
 21 20  1  0
 22 23  1  0
 24 23  1  6
 24 25  1  0
 24 26  1  0
 25 15  1  0
 26 27  2  0
 26 28  1  0
M  END
$$$$
