YGR.pdb
     RDKit          3D

 28 28  0  0  1  0  0  0  0  0999 V2000
   11.3101  -14.6054   30.3643 O   0  0  0  0  0  0  0  0  0  0  0  0
   10.4217  -14.7476   29.3004 C   0  0  0  0  0  0  0  0  0  0  0  0
    9.9008  -13.6198   28.6827 C   0  0  0  0  0  0  0  0  0  0  0  0
    9.0209  -13.7519   27.6290 C   0  0  0  0  0  0  0  0  0  0  0  0
    8.6625  -15.0095   27.1938 C   0  0  0  0  0  0  0  0  0  0  0  0
    7.7122  -15.1296   26.0560 C   0  0  0  0  0  0  0  0  0  0  0  0
    7.7018  -16.5504   25.5286 C   0  0  2  0  0  0  0  0  0  0  0  0
    9.0407  -17.1029   25.5637 N   0  0  0  0  0  0  0  0  0  0  0  0
    7.1414  -16.5571   24.1609 C   0  0  0  0  0  0  0  0  0  0  0  0
    5.9664  -16.1683   23.9351 O   0  0  0  0  0  0  0  0  0  0  0  0
    9.1968  -16.1219   27.8276 C   0  0  0  0  0  0  0  0  0  0  0  0
   10.0758  -16.0258   28.8800 C   0  0  0  0  0  0  0  0  0  0  0  0
    7.9348  -17.0088   23.0720 N   0  0  0  0  0  0  0  0  0  0  0  0
    7.4585  -16.9447   21.7052 C   0  0  0  0  0  0  0  0  0  0  0  0
    8.5365  -17.2934   20.7419 C   0  0  0  0  0  0  0  0  0  0  0  0
    8.7037  -18.5189   20.4817 O   0  0  0  0  0  0  0  0  0  0  0  0
    7.1789  -13.2063   17.7098 N   0  0  0  0  0  0  0  0  0  0  0  0
    7.9151  -13.1381   18.9243 C   0  0  0  0  0  0  0  0  0  0  0  0
    7.3626  -12.5507   19.9361 N   0  0  0  0  0  0  0  0  0  0  0  0
    9.2158  -13.6888   19.0492 N   0  0  0  0  0  0  0  0  0  0  0  0
    9.8276  -14.2678   17.8308 C   0  0  0  0  0  0  0  0  0  0  0  0
   11.1691  -14.8163   18.1252 C   0  0  0  0  0  0  0  0  0  0  0  0
   11.3805  -15.4451   19.4099 C   0  0  0  0  0  0  0  0  0  0  0  0
   10.8093  -16.7240   19.8589 C   0  0  2  0  0  0  0  0  0  0  0  0
    9.3591  -16.3470   20.1216 N   0  0  0  0  0  0  0  0  0  0  0  0
   11.2971  -17.3334   21.1023 C   0  0  0  0  0  0  0  0  0  0  0  0
   12.1961  -18.2523   20.9868 O   0  0  0  0  0  0  0  0  0  0  0  0
   10.9445  -17.0690   22.3945 O   0  0  0  0  0  0  0  0  0  0  0  0
  2 12  2  0
  2  1  1  0
  3  2  1  0
  4  5  1  0
  4  3  2  0
  5 11  2  0
  6  7  1  0
  6  5  1  0
  7  8  1  6
  9  7  1  0
  9 13  1  0
 10  9  2  0
 11 12  1  0
 13 14  1  0
 15 14  1  0
 15 16  2  0
 18 17  1  0
 19 18  2  0
 20 18  1  0
 21 22  1  0
 21 20  1  0
 22 23  1  0
 24 23  1  1
 24 25  1  0
 24 26  1  0
 25 15  1  0
 26 27  2  0
 26 28  1  0
M  END
$$$$
