YGR.pdb
     RDKit          3D

 28 28  0  0  1  0  0  0  0  0999 V2000
    6.5015  -12.7725   17.7735 O   0  0  0  0  0  0  0  0  0  0  0  0
    7.0856  -13.2689   18.9370 C   0  0  0  0  0  0  0  0  0  0  0  0
    8.3639  -12.8636   19.2928 C   0  0  0  0  0  0  0  0  0  0  0  0
    8.9493  -13.3502   20.4428 C   0  0  0  0  0  0  0  0  0  0  0  0
    8.2577  -14.2404   21.2356 C   0  0  0  0  0  0  0  0  0  0  0  0
    8.9073  -14.7529   22.4715 C   0  0  0  0  0  0  0  0  0  0  0  0
   10.1306  -15.5751   22.1189 C   0  0  2  0  0  0  0  0  0  0  0  0
    9.7559  -16.6795   21.2593 N   0  0  0  0  0  0  0  0  0  0  0  0
   10.7765  -16.0435   23.3632 C   0  0  0  0  0  0  0  0  0  0  0  0
   11.1889  -15.2307   24.2304 O   0  0  0  0  0  0  0  0  0  0  0  0
    6.9808  -14.6306   20.8587 C   0  0  0  0  0  0  0  0  0  0  0  0
    6.3683  -14.1651   19.7195 C   0  0  0  0  0  0  0  0  0  0  0  0
   10.9406  -17.4356   23.5961 N   0  0  0  0  0  0  0  0  0  0  0  0
   11.8884  -17.9378   24.5700 C   0  0  0  0  0  0  0  0  0  0  0  0
   11.2828  -18.0045   25.9267 C   0  0  0  0  0  0  0  0  0  0  0  0
   10.1759  -17.4178   26.0940 O   0  0  0  0  0  0  0  0  0  0  0  0
    8.4445  -22.2339   23.2006 N   0  0  0  0  0  0  0  0  0  0  0  0
    7.5576  -22.4489   24.2909 C   0  0  0  0  0  0  0  0  0  0  0  0
    6.2899  -22.2997   24.0799 N   0  0  0  0  0  0  0  0  0  0  0  0
    8.0222  -22.8160   25.5794 N   0  0  0  0  0  0  0  0  0  0  0  0
    9.4136  -22.4478   25.9296 C   0  0  0  0  0  0  0  0  0  0  0  0
    9.4391  -21.2456   26.7904 C   0  0  0  0  0  0  0  0  0  0  0  0
   10.7259  -20.6928   27.1498 C   0  0  0  0  0  0  0  0  0  0  0  0
   10.9613  -19.4694   27.9317 C   0  0  2  0  0  0  0  0  0  0  0  0
   11.8692  -18.6733   27.0065 N   0  0  0  0  0  0  0  0  0  0  0  0
   11.6732  -19.5594   29.2126 C   0  0  0  0  0  0  0  0  0  0  0  0
   12.9608  -19.6289   29.1595 O   0  0  0  0  0  0  0  0  0  0  0  0
   11.1739  -19.5750   30.4832 O   0  0  0  0  0  0  0  0  0  0  0  0
  2 12  2  0
  2  1  1  0
  3  2  1  0
  4  5  1  0
  4  3  2  0
  5 11  2  0
  6  7  1  0
  6  5  1  0
  7  8  1  6
  9  7  1  0
  9 13  1  0
 10  9  2  0
 11 12  1  0
 13 14  1  0
 15 14  1  0
 15 16  2  0
 18 17  1  0
 19 18  2  0
 20 18  1  0
 21 22  1  0
 21 20  1  0
 22 23  1  0
 24 23  1  6
 24 25  1  0
 24 26  1  0
 25 15  1  0
 26 27  2  0
 26 28  1  0
M  END
$$$$
