YGR.pdb
     RDKit          3D

 28 28  0  0  1  0  0  0  0  0999 V2000
    5.2888  -11.3807   27.8709 O   0  0  0  0  0  0  0  0  0  0  0  0
    5.9223  -11.9870   26.7881 C   0  0  0  0  0  0  0  0  0  0  0  0
    5.5023  -13.2367   26.3560 C   0  0  0  0  0  0  0  0  0  0  0  0
    6.1240  -13.8437   25.2851 C   0  0  0  0  0  0  0  0  0  0  0  0
    7.1638  -13.2023   24.6474 C   0  0  0  0  0  0  0  0  0  0  0  0
    7.8205  -13.8745   23.4946 C   0  0  0  0  0  0  0  0  0  0  0  0
    8.2584  -15.2727   23.8823 C   0  0  2  0  0  0  0  0  0  0  0  0
    8.8443  -15.2601   25.2073 N   0  0  0  0  0  0  0  0  0  0  0  0
    9.2051  -15.7841   22.8689 C   0  0  0  0  0  0  0  0  0  0  0  0
    8.8531  -15.9517   21.6728 O   0  0  0  0  0  0  0  0  0  0  0  0
    7.5657  -11.9532   25.0980 C   0  0  0  0  0  0  0  0  0  0  0  0
    6.9680  -11.3204   26.1619 C   0  0  0  0  0  0  0  0  0  0  0  0
   10.5408  -16.0958   23.2402 N   0  0  0  0  0  0  0  0  0  0  0  0
   11.4684  -16.7021   22.3068 C   0  0  0  0  0  0  0  0  0  0  0  0
   12.1492  -17.8784   22.9107 C   0  0  0  0  0  0  0  0  0  0  0  0
   13.1963  -18.2955   22.3390 O   0  0  0  0  0  0  0  0  0  0  0  0
   11.6355  -20.0307   31.4835 N   0  0  0  0  0  0  0  0  0  0  0  0
   12.9605  -20.1962   30.9951 C   0  0  0  0  0  0  0  0  0  0  0  0
   13.9358  -20.0835   31.8377 N   0  0  0  0  0  0  0  0  0  0  0  0
   13.2318  -20.4766   29.6319 N   0  0  0  0  0  0  0  0  0  0  0  0
   12.4965  -19.6869   28.6170 C   0  0  0  0  0  0  0  0  0  0  0  0
   13.0007  -19.9774   27.2575 C   0  0  0  0  0  0  0  0  0  0  0  0
   12.4214  -19.2540   26.1476 C   0  0  0  0  0  0  0  0  0  0  0  0
   12.6190  -19.5449   24.7193 C   0  0  2  0  0  0  0  0  0  0  0  0
   11.6940  -18.5330   24.0602 N   0  0  0  0  0  0  0  0  0  0  0  0
   12.2223  -20.8556   24.1901 C   0  0  0  0  0  0  0  0  0  0  0  0
   11.1543  -20.8923   23.4663 O   0  0  0  0  0  0  0  0  0  0  0  0
   12.8252  -22.0711   24.3421 O   0  0  0  0  0  0  0  0  0  0  0  0
  2 12  2  0
  2  1  1  0
  3  2  1  0
  4  5  1  0
  4  3  2  0
  5 11  2  0
  6  7  1  0
  6  5  1  0
  7  8  1  1
  9  7  1  0
  9 13  1  0
 10  9  2  0
 11 12  1  0
 13 14  1  0
 15 14  1  0
 15 16  2  0
 18 17  1  0
 19 18  2  0
 20 18  1  0
 21 22  1  0
 21 20  1  0
 22 23  1  0
 24 23  1  1
 24 25  1  0
 24 26  1  0
 25 15  1  0
 26 27  2  0
 26 28  1  0
M  END
$$$$
