YGR.pdb
     RDKit          3D

 28 28  0  0  1  0  0  0  0  0999 V2000
   -3.1886  -20.2886   19.9281 O   0  0  0  0  0  0  0  0  0  0  0  0
   -1.9159  -20.0926   20.4604 C   0  0  0  0  0  0  0  0  0  0  0  0
   -1.6203  -20.5662   21.7306 C   0  0  0  0  0  0  0  0  0  0  0  0
   -0.3631  -20.3765   22.2647 C   0  0  0  0  0  0  0  0  0  0  0  0
    0.5968  -19.7144   21.5302 C   0  0  0  0  0  0  0  0  0  0  0  0
    1.9461  -19.5204   22.1250 C   0  0  0  0  0  0  0  0  0  0  0  0
    3.0197  -19.9096   21.1286 C   0  0  2  0  0  0  0  0  0  0  0  0
    2.5380  -20.9717   20.2690 N   0  0  0  0  0  0  0  0  0  0  0  0
    4.2407  -20.3077   21.8604 C   0  0  0  0  0  0  0  0  0  0  0  0
    4.6152  -21.5080   21.9009 O   0  0  0  0  0  0  0  0  0  0  0  0
    0.2771  -19.2501   20.2625 C   0  0  0  0  0  0  0  0  0  0  0  0
   -0.9655  -19.4223   19.7005 C   0  0  0  0  0  0  0  0  0  0  0  0
    5.0147  -19.3253   22.5350 N   0  0  0  0  0  0  0  0  0  0  0  0
    6.2683  -19.6562   23.1816 C   0  0  0  0  0  0  0  0  0  0  0  0
    6.7500  -18.5336   24.0299 C   0  0  0  0  0  0  0  0  0  0  0  0
    6.0593  -17.4751   24.0329 O   0  0  0  0  0  0  0  0  0  0  0  0
   10.0534  -20.1875   31.2990 N   0  0  0  0  0  0  0  0  0  0  0  0
   11.0127  -19.6805   30.3801 C   0  0  0  0  0  0  0  0  0  0  0  0
   12.2211  -19.4972   30.8045 N   0  0  0  0  0  0  0  0  0  0  0  0
   10.6814  -19.3773   29.0351 N   0  0  0  0  0  0  0  0  0  0  0  0
    9.2687  -19.5565   28.6271 C   0  0  0  0  0  0  0  0  0  0  0  0
    9.0829  -19.2006   27.2037 C   0  0  0  0  0  0  0  0  0  0  0  0
    8.6481  -17.8580   26.8889 C   0  0  0  0  0  0  0  0  0  0  0  0
    8.3371  -17.3340   25.5501 C   0  0  2  0  0  0  0  0  0  0  0  0
    7.9096  -18.5925   24.8101 N   0  0  0  0  0  0  0  0  0  0  0  0
    9.4093  -16.7385   24.7431 C   0  0  0  0  0  0  0  0  0  0  0  0
    9.7877  -15.5474   25.0656 O   0  0  0  0  0  0  0  0  0  0  0  0
   10.0902  -17.2631   23.6825 O   0  0  0  0  0  0  0  0  0  0  0  0
  2 12  2  0
  2  1  1  0
  3  2  1  0
  4  5  1  0
  4  3  2  0
  5 11  2  0
  6  7  1  0
  6  5  1  0
  7  8  1  1
  9  7  1  0
  9 13  1  0
 10  9  2  0
 11 12  1  0
 13 14  1  0
 15 14  1  0
 15 16  2  0
 18 17  1  0
 19 18  2  0
 20 18  1  0
 21 22  1  0
 21 20  1  0
 22 23  1  0
 24 23  1  1
 24 25  1  0
 24 26  1  0
 25 15  1  0
 26 27  2  0
 26 28  1  0
M  END
$$$$
