YGR.pdb
     RDKit          3D

 28 28  0  0  1  0  0  0  0  0999 V2000
    6.5568  -12.6557   19.5532 O   0  0  0  0  0  0  0  0  0  0  0  0
    7.8706  -13.1156   19.6156 C   0  0  0  0  0  0  0  0  0  0  0  0
    8.9209  -12.2236   19.4544 C   0  0  0  0  0  0  0  0  0  0  0  0
   10.2241  -12.6707   19.5147 C   0  0  0  0  0  0  0  0  0  0  0  0
   10.4765  -14.0074   19.7359 C   0  0  0  0  0  0  0  0  0  0  0  0
   11.8892  -14.4686   19.7974 C   0  0  0  0  0  0  0  0  0  0  0  0
   11.9961  -15.8987   19.3072 C   0  0  2  0  0  0  0  0  0  0  0  0
   11.7223  -15.9582   17.8858 N   0  0  0  0  0  0  0  0  0  0  0  0
   11.0665  -16.7484   20.0808 C   0  0  0  0  0  0  0  0  0  0  0  0
    9.9432  -17.0757   19.6185 O   0  0  0  0  0  0  0  0  0  0  0  0
    9.4095  -14.8798   19.8941 C   0  0  0  0  0  0  0  0  0  0  0  0
    8.0993  -14.4675   19.8396 C   0  0  0  0  0  0  0  0  0  0  0  0
   11.4370  -17.2108   21.3724 N   0  0  0  0  0  0  0  0  0  0  0  0
   10.5241  -17.9751   22.1979 C   0  0  0  0  0  0  0  0  0  0  0  0
   10.4749  -17.4402   23.5847 C   0  0  0  0  0  0  0  0  0  0  0  0
   11.3306  -16.5637   23.8958 O   0  0  0  0  0  0  0  0  0  0  0  0
    6.2608  -12.4650   27.1024 N   0  0  0  0  0  0  0  0  0  0  0  0
    6.7511  -12.6373   25.7790 C   0  0  0  0  0  0  0  0  0  0  0  0
    6.6493  -11.6408   24.9601 N   0  0  0  0  0  0  0  0  0  0  0  0
    7.3380  -13.8530   25.3449 N   0  0  0  0  0  0  0  0  0  0  0  0
    8.1837  -14.5836   26.3171 C   0  0  0  0  0  0  0  0  0  0  0  0
    7.5579  -15.8684   26.6978 C   0  0  0  0  0  0  0  0  0  0  0  0
    8.2131  -17.0915   26.2914 C   0  0  0  0  0  0  0  0  0  0  0  0
    9.6319  -17.2432   25.9342 C   0  0  2  0  0  0  0  0  0  0  0  0
    9.5438  -17.8535   24.5435 N   0  0  0  0  0  0  0  0  0  0  0  0
   10.4786  -18.1511   26.7180 C   0  0  0  0  0  0  0  0  0  0  0  0
   10.5568  -19.3728   26.3090 O   0  0  0  0  0  0  0  0  0  0  0  0
   11.2198  -17.8974   27.8360 O   0  0  0  0  0  0  0  0  0  0  0  0
  2 12  2  0
  2  1  1  0
  3  2  1  0
  4  5  1  0
  4  3  2  0
  5 11  2  0
  6  7  1  0
  6  5  1  0
  7  8  1  6
  9  7  1  0
  9 13  1  0
 10  9  2  0
 11 12  1  0
 13 14  1  0
 15 14  1  0
 15 16  2  0
 18 17  1  0
 19 18  2  0
 20 18  1  0
 21 22  1  0
 21 20  1  0
 22 23  1  0
 24 23  1  1
 24 25  1  0
 24 26  1  0
 25 15  1  0
 26 27  2  0
 26 28  1  0
M  END
$$$$
