EGK.pdb
     RDKit          3D

 23 22  0  0  1  0  0  0  0  0999 V2000
   22.6710  -21.0961  -15.2455 N   0  0  0  0  0  0  0  0  0  0  0  0
   22.1147  -19.8719  -14.7235 C   0  0  1  0  0  0  0  0  0  0  0  0
   20.9582  -19.3815  -15.5621 C   0  0  0  0  0  0  0  0  0  0  0  0
   20.2589  -20.5300  -16.2446 C   0  0  0  0  0  0  0  0  0  0  0  0
   19.1216  -19.9989  -17.0214 C   0  0  0  0  0  0  0  0  0  0  0  0
   17.9782  -19.9927  -16.5250 O   0  0  0  0  0  0  0  0  0  0  0  0
   21.6983  -19.9579  -13.3223 C   0  0  0  0  0  0  0  0  0  0  0  0
   21.1794  -18.9620  -12.7662 O   0  0  0  0  0  0  0  0  0  0  0  0
   19.3114  -19.5085  -18.2931 O   0  0  0  0  0  0  0  0  0  0  0  0
   21.8445  -21.1266  -12.5161 N   0  0  0  0  0  0  0  0  0  0  0  0
   21.3767  -21.2525  -11.1661 C   0  0  0  0  0  0  0  0  0  0  0  0
   20.3127  -22.2397  -10.9667 C   0  0  0  0  0  0  0  0  0  0  0  0
   19.8485  -22.8529  -11.9653 O   0  0  0  0  0  0  0  0  0  0  0  0
   19.7459  -22.5753   -9.7282 N   0  0  0  0  0  0  0  0  0  0  0  0
   18.7044  -23.5829   -9.5286 C   0  0  1  0  0  0  0  0  0  0  0  0
   18.9062  -24.1270   -8.1670 C   0  0  0  0  0  0  0  0  0  0  0  0
   18.0482  -25.2513   -7.7322 C   0  0  0  0  0  0  0  0  0  0  0  0
   18.2332  -25.7708   -6.3549 C   0  0  0  0  0  0  0  0  0  0  0  0
   17.1250  -26.6921   -5.9159 C   0  0  0  0  0  0  0  0  0  0  0  0
   17.2788  -27.1000   -4.5334 N   0  0  0  0  0  0  0  0  0  0  0  0
   17.3924  -23.1399   -9.9309 C   0  0  0  0  0  0  0  0  0  0  0  0
   16.4693  -23.9641  -10.6202 O   0  0  0  0  0  0  0  0  0  0  0  0
   16.9382  -21.9876   -9.7125 O   0  0  0  0  0  0  0  0  0  0  0  0
  2  1  1  6
  2  7  1  0
  3  2  1  0
  4  3  1  0
  5  4  1  0
  6  5  2  0
  7 10  1  0
  8  7  2  0
  9  5  1  0
 10 11  1  0
 11 12  1  0
 12 13  2  0
 12 14  1  0
 14 15  1  0
 15 21  1  0
 15 16  1  1
 17 16  1  0
 18 17  1  0
 19 18  1  0
 20 19  1  0
 21 23  2  0
 21 22  1  0
M  END
$$$$
