EGK.pdb
     RDKit          3D

 23 22  0  0  1  0  0  0  0  0999 V2000
   22.5916  -21.2309  -13.9916 N   0  0  0  0  0  0  0  0  0  0  0  0
   21.2557  -20.6912  -14.0590 C   0  0  1  0  0  0  0  0  0  0  0  0
   20.9817  -20.0429  -15.3954 C   0  0  0  0  0  0  0  0  0  0  0  0
   21.9746  -18.9435  -15.6776 C   0  0  0  0  0  0  0  0  0  0  0  0
   21.3485  -17.6454  -15.3582 C   0  0  0  0  0  0  0  0  0  0  0  0
   20.1971  -17.6107  -14.8819 O   0  0  0  0  0  0  0  0  0  0  0  0
   20.2043  -21.6676  -13.7668 C   0  0  0  0  0  0  0  0  0  0  0  0
   19.0121  -21.2908  -13.6842 O   0  0  0  0  0  0  0  0  0  0  0  0
   22.0256  -16.4684  -15.5817 O   0  0  0  0  0  0  0  0  0  0  0  0
   20.4424  -23.0599  -13.5609 N   0  0  0  0  0  0  0  0  0  0  0  0
   19.4390  -24.0147  -13.1885 C   0  0  0  0  0  0  0  0  0  0  0  0
   19.4014  -24.3527  -11.7635 C   0  0  0  0  0  0  0  0  0  0  0  0
   19.6631  -23.4599  -10.9131 O   0  0  0  0  0  0  0  0  0  0  0  0
   19.0914  -25.6179  -11.2428 N   0  0  0  0  0  0  0  0  0  0  0  0
   18.7363  -25.8866   -9.8495 C   0  0  1  0  0  0  0  0  0  0  0  0
   17.7248  -24.8734   -9.4741 C   0  0  0  0  0  0  0  0  0  0  0  0
   17.1730  -24.9153   -8.1019 C   0  0  0  0  0  0  0  0  0  0  0  0
   16.2206  -23.8490   -7.7059 C   0  0  0  0  0  0  0  0  0  0  0  0
   15.6626  -24.0387   -6.3195 C   0  0  0  0  0  0  0  0  0  0  0  0
   14.7301  -22.9869   -5.9650 N   0  0  0  0  0  0  0  0  0  0  0  0
   18.4814  -27.2803   -9.5806 C   0  0  0  0  0  0  0  0  0  0  0  0
   18.3969  -28.2664  -10.5941 O   0  0  0  0  0  0  0  0  0  0  0  0
   18.3101  -27.7577   -8.4298 O   0  0  0  0  0  0  0  0  0  0  0  0
  2  1  1  6
  2  7  1  0
  3  2  1  0
  4  3  1  0
  5  4  1  0
  6  5  2  0
  7 10  1  0
  8  7  2  0
  9  5  1  0
 10 11  1  0
 11 12  1  0
 12 13  2  0
 12 14  1  0
 14 15  1  0
 15 21  1  0
 15 16  1  6
 17 16  1  0
 18 17  1  0
 19 18  1  0
 20 19  1  0
 21 23  2  0
 21 22  1  0
M  END
$$$$
