EGK.pdb
     RDKit          3D

 23 22  0  0  1  0  0  0  0  0999 V2000
   24.3899  -22.6811  -15.1701 N   0  0  0  0  0  0  0  0  0  0  0  0
   25.2207  -21.7331  -14.4690 C   0  0  1  0  0  0  0  0  0  0  0  0
   26.2502  -21.1100  -15.3818 C   0  0  0  0  0  0  0  0  0  0  0  0
   25.6184  -20.6344  -16.6657 C   0  0  0  0  0  0  0  0  0  0  0  0
   26.6569  -19.9943  -17.4968 C   0  0  0  0  0  0  0  0  0  0  0  0
   27.8375  -19.9580  -17.0983 O   0  0  0  0  0  0  0  0  0  0  0  0
   24.4713  -20.6760  -13.7869 C   0  0  0  0  0  0  0  0  0  0  0  0
   25.0829  -19.8261  -13.0985 O   0  0  0  0  0  0  0  0  0  0  0  0
   26.3340  -19.4349  -18.7119 O   0  0  0  0  0  0  0  0  0  0  0  0
   23.0520  -20.5370  -13.8473 N   0  0  0  0  0  0  0  0  0  0  0  0
   22.3639  -19.4154  -14.4179 C   0  0  0  0  0  0  0  0  0  0  0  0
   20.9017  -19.4912  -14.3653 C   0  0  0  0  0  0  0  0  0  0  0  0
   20.3480  -20.6195  -14.2698 O   0  0  0  0  0  0  0  0  0  0  0  0
   20.0349  -18.3893  -14.4132 N   0  0  0  0  0  0  0  0  0  0  0  0
   18.5871  -18.4697  -14.6054 C   0  0  1  0  0  0  0  0  0  0  0  0
   18.3543  -18.3763  -16.0641 C   0  0  0  0  0  0  0  0  0  0  0  0
   19.0197  -17.2833  -16.8070 C   0  0  0  0  0  0  0  0  0  0  0  0
   18.7981  -17.2068  -18.2719 C   0  0  0  0  0  0  0  0  0  0  0  0
   19.5387  -16.0685  -18.9240 C   0  0  0  0  0  0  0  0  0  0  0  0
   19.2932  -16.0132  -20.3517 N   0  0  0  0  0  0  0  0  0  0  0  0
   17.9660  -19.5310  -13.8521 C   0  0  0  0  0  0  0  0  0  0  0  0
   17.2984  -19.3241  -12.6200 O   0  0  0  0  0  0  0  0  0  0  0  0
   17.9536  -20.7368  -14.2091 O   0  0  0  0  0  0  0  0  0  0  0  0
  2  1  1  6
  2  7  1  0
  3  2  1  0
  4  3  1  0
  5  4  1  0
  6  5  2  0
  7 10  1  0
  8  7  2  0
  9  5  1  0
 10 11  1  0
 11 12  1  0
 12 13  2  0
 12 14  1  0
 14 15  1  0
 15 21  1  0
 15 16  1  6
 17 16  1  0
 18 17  1  0
 19 18  1  0
 20 19  1  0
 21 23  2  0
 21 22  1  0
M  END
$$$$
