EGK.pdb
     RDKit          3D

 23 22  0  0  1  0  0  0  0  0999 V2000
   21.3639  -12.7616  -16.4775 N   0  0  0  0  0  0  0  0  0  0  0  0
   20.8429  -11.8245  -17.4424 C   0  0  1  0  0  0  0  0  0  0  0  0
   19.3326  -11.8080  -17.4461 C   0  0  0  0  0  0  0  0  0  0  0  0
   18.7865  -11.9025  -16.0437 C   0  0  0  0  0  0  0  0  0  0  0  0
   17.3188  -11.7535  -16.0950 C   0  0  0  0  0  0  0  0  0  0  0  0
   16.6568  -12.4006  -16.9297 O   0  0  0  0  0  0  0  0  0  0  0  0
   21.3444  -10.4588  -17.2758 C   0  0  0  0  0  0  0  0  0  0  0  0
   21.0646   -9.5858  -18.1301 O   0  0  0  0  0  0  0  0  0  0  0  0
   16.6713  -10.9040  -15.2273 O   0  0  0  0  0  0  0  0  0  0  0  0
   22.1546  -10.0338  -16.1803 N   0  0  0  0  0  0  0  0  0  0  0  0
   22.5696   -8.6808  -15.9469 C   0  0  0  0  0  0  0  0  0  0  0  0
   21.5744   -7.8303  -15.2889 C   0  0  0  0  0  0  0  0  0  0  0  0
   20.4161   -7.7482  -15.7790 O   0  0  0  0  0  0  0  0  0  0  0  0
   21.7997   -7.0759  -14.1280 N   0  0  0  0  0  0  0  0  0  0  0  0
   20.8273   -6.1717  -13.5143 C   0  0  1  0  0  0  0  0  0  0  0  0
   20.0901   -6.9714  -12.5104 C   0  0  0  0  0  0  0  0  0  0  0  0
   18.9545   -6.3329  -11.8090 C   0  0  0  0  0  0  0  0  0  0  0  0
   18.1834   -7.1575  -10.8465 C   0  0  0  0  0  0  0  0  0  0  0  0
   17.0417   -6.4099  -10.2083 C   0  0  0  0  0  0  0  0  0  0  0  0
   16.1572   -7.2970   -9.4789 N   0  0  0  0  0  0  0  0  0  0  0  0
   21.3867   -4.8971  -13.1375 C   0  0  0  0  0  0  0  0  0  0  0  0
   20.6092   -3.7258  -12.9642 O   0  0  0  0  0  0  0  0  0  0  0  0
   22.6103   -4.6976  -12.9261 O   0  0  0  0  0  0  0  0  0  0  0  0
  2  1  1  1
  2  7  1  0
  3  2  1  0
  4  3  1  0
  5  4  1  0
  6  5  2  0
  7 10  1  0
  8  7  2  0
  9  5  1  0
 10 11  1  0
 11 12  1  0
 12 13  2  0
 12 14  1  0
 14 15  1  0
 15 21  1  0
 15 16  1  1
 17 16  1  0
 18 17  1  0
 19 18  1  0
 20 19  1  0
 21 23  2  0
 21 22  1  0
M  END
$$$$
