EGK.pdb
     RDKit          3D

 23 22  0  0  1  0  0  0  0  0999 V2000
   21.7452  -19.0188  -16.5709 N   0  0  0  0  0  0  0  0  0  0  0  0
   22.8011  -19.6917  -15.8547 C   0  0  1  0  0  0  0  0  0  0  0  0
   24.0916  -18.9081  -15.8957 C   0  0  0  0  0  0  0  0  0  0  0  0
   24.5787  -18.7407  -17.3130 C   0  0  0  0  0  0  0  0  0  0  0  0
   25.3164  -19.9567  -17.7080 C   0  0  0  0  0  0  0  0  0  0  0  0
   24.7230  -21.0512  -17.7705 O   0  0  0  0  0  0  0  0  0  0  0  0
   22.4681  -20.0094  -14.4646 C   0  0  0  0  0  0  0  0  0  0  0  0
   23.3051  -20.6031  -13.7455 O   0  0  0  0  0  0  0  0  0  0  0  0
   26.6577  -19.8944  -18.0091 O   0  0  0  0  0  0  0  0  0  0  0  0
   21.2225  -19.6851  -13.8477 N   0  0  0  0  0  0  0  0  0  0  0  0
   20.8798  -19.9883  -12.4884 C   0  0  0  0  0  0  0  0  0  0  0  0
   20.0483  -21.1811  -12.3084 C   0  0  0  0  0  0  0  0  0  0  0  0
   19.7200  -21.8593  -13.3189 O   0  0  0  0  0  0  0  0  0  0  0  0
   19.5693  -21.6518  -11.0769 N   0  0  0  0  0  0  0  0  0  0  0  0
   18.7367  -22.8415  -10.9009 C   0  0  1  0  0  0  0  0  0  0  0  0
   18.8728  -23.2395   -9.4818 C   0  0  0  0  0  0  0  0  0  0  0  0
   18.1362  -24.4370   -9.0206 C   0  0  0  0  0  0  0  0  0  0  0  0
   18.3684  -24.8997   -7.6303 C   0  0  0  0  0  0  0  0  0  0  0  0
   17.6293  -26.1697   -7.2979 C   0  0  0  0  0  0  0  0  0  0  0  0
   18.0401  -26.7133   -6.0184 N   0  0  0  0  0  0  0  0  0  0  0  0
   17.4228  -22.7137  -11.4813 C   0  0  0  0  0  0  0  0  0  0  0  0
   16.6447  -21.5331  -11.3953 O   0  0  0  0  0  0  0  0  0  0  0  0
   16.8395  -23.6286  -12.1172 O   0  0  0  0  0  0  0  0  0  0  0  0
  2  1  1  1
  2  7  1  0
  3  2  1  0
  4  3  1  0
  5  4  1  0
  6  5  2  0
  7 10  1  0
  8  7  2  0
  9  5  1  0
 10 11  1  0
 11 12  1  0
 12 13  2  0
 12 14  1  0
 14 15  1  0
 15 21  1  0
 15 16  1  1
 17 16  1  0
 18 17  1  0
 19 18  1  0
 20 19  1  0
 21 23  2  0
 21 22  1  0
M  END
$$$$
