EGK.pdb
     RDKit          3D

 23 22  0  0  1  0  0  0  0  0999 V2000
   22.9567  -11.4753  -21.4589 N   0  0  0  0  0  0  0  0  0  0  0  0
   21.7800  -12.0175  -20.8247 C   0  0  1  0  0  0  0  0  0  0  0  0
   22.1059  -13.2313  -19.9870 C   0  0  0  0  0  0  0  0  0  0  0  0
   23.4550  -13.7962  -20.3539 C   0  0  0  0  0  0  0  0  0  0  0  0
   23.6673  -15.0465  -19.5985 C   0  0  0  0  0  0  0  0  0  0  0  0
   22.7876  -15.9297  -19.5979 O   0  0  0  0  0  0  0  0  0  0  0  0
   21.0427  -11.0483  -20.0116 C   0  0  0  0  0  0  0  0  0  0  0  0
   19.9822  -11.3951  -19.4411 O   0  0  0  0  0  0  0  0  0  0  0  0
   24.8309  -15.2480  -18.8921 O   0  0  0  0  0  0  0  0  0  0  0  0
   21.4526   -9.6953  -19.8146 N   0  0  0  0  0  0  0  0  0  0  0  0
   20.7408   -8.7320  -19.0256 C   0  0  0  0  0  0  0  0  0  0  0  0
   20.9997   -8.7955  -17.5849 C   0  0  0  0  0  0  0  0  0  0  0  0
   20.2052   -9.4365  -16.8456 O   0  0  0  0  0  0  0  0  0  0  0  0
   22.0841   -8.1897  -16.9331 N   0  0  0  0  0  0  0  0  0  0  0  0
   22.3206   -8.2252  -15.4900 C   0  0  1  0  0  0  0  0  0  0  0  0
   23.7551   -8.5421  -15.3102 C   0  0  0  0  0  0  0  0  0  0  0  0
   24.3075   -9.7066  -16.0368 C   0  0  0  0  0  0  0  0  0  0  0  0
   25.7593   -9.9811  -15.9030 C   0  0  0  0  0  0  0  0  0  0  0  0
   26.1899  -11.2443  -16.6018 C   0  0  0  0  0  0  0  0  0  0  0  0
   27.6159  -11.4716  -16.4745 N   0  0  0  0  0  0  0  0  0  0  0  0
   21.7453   -7.1056  -14.7863 C   0  0  0  0  0  0  0  0  0  0  0  0
   21.1704   -5.9875  -15.4389 O   0  0  0  0  0  0  0  0  0  0  0  0
   21.6958   -7.0089  -13.5333 O   0  0  0  0  0  0  0  0  0  0  0  0
  2  1  1  1
  2  7  1  0
  3  2  1  0
  4  3  1  0
  5  4  1  0
  6  5  2  0
  7 10  1  0
  8  7  2  0
  9  5  1  0
 10 11  1  0
 11 12  1  0
 12 13  2  0
 12 14  1  0
 14 15  1  0
 15 21  1  0
 15 16  1  6
 17 16  1  0
 18 17  1  0
 19 18  1  0
 20 19  1  0
 21 23  2  0
 21 22  1  0
M  END
$$$$
