EGK.pdb
     RDKit          3D

 23 22  0  0  1  0  0  0  0  0999 V2000
   23.7663  -19.3298  -17.7664 N   0  0  0  0  0  0  0  0  0  0  0  0
   24.7730  -19.2869  -16.7342 C   0  0  1  0  0  0  0  0  0  0  0  0
   25.6525  -18.0656  -16.8619 C   0  0  0  0  0  0  0  0  0  0  0  0
   26.1389  -17.8943  -18.2789 C   0  0  0  0  0  0  0  0  0  0  0  0
   27.2429  -18.8442  -18.5196 C   0  0  0  0  0  0  0  0  0  0  0  0
   28.2612  -18.8092  -17.8015 O   0  0  0  0  0  0  0  0  0  0  0  0
   24.2340  -19.3590  -15.3746 C   0  0  0  0  0  0  0  0  0  0  0  0
   25.0153  -19.3417  -14.3950 O   0  0  0  0  0  0  0  0  0  0  0  0
   27.1592  -19.7718  -19.5326 O   0  0  0  0  0  0  0  0  0  0  0  0
   22.8424  -19.4518  -15.0712 N   0  0  0  0  0  0  0  0  0  0  0  0
   22.2956  -19.4939  -13.7459 C   0  0  0  0  0  0  0  0  0  0  0  0
   21.2762  -20.5232  -13.5267 C   0  0  0  0  0  0  0  0  0  0  0  0
   20.5671  -20.9021  -14.4974 O   0  0  0  0  0  0  0  0  0  0  0  0
   21.0090  -21.1445  -12.2978 N   0  0  0  0  0  0  0  0  0  0  0  0
   19.9474  -22.1241  -12.0674 C   0  0  1  0  0  0  0  0  0  0  0  0
   20.0898  -22.5708  -10.6635 C   0  0  0  0  0  0  0  0  0  0  0  0
   19.1355  -23.5800  -10.1536 C   0  0  0  0  0  0  0  0  0  0  0  0
   19.2295  -23.9610   -8.7229 C   0  0  0  0  0  0  0  0  0  0  0  0
   18.1245  -24.8855   -8.2826 C   0  0  0  0  0  0  0  0  0  0  0  0
   18.2144  -25.1988   -6.8701 N   0  0  0  0  0  0  0  0  0  0  0  0
   18.6576  -21.6975  -12.5512 C   0  0  0  0  0  0  0  0  0  0  0  0
   17.8019  -22.5239  -13.3203 O   0  0  0  0  0  0  0  0  0  0  0  0
   18.1658  -20.5592  -12.3415 O   0  0  0  0  0  0  0  0  0  0  0  0
  2  1  1  6
  2  7  1  0
  3  2  1  0
  4  3  1  0
  5  4  1  0
  6  5  2  0
  7 10  1  0
  8  7  2  0
  9  5  1  0
 10 11  1  0
 11 12  1  0
 12 13  2  0
 12 14  1  0
 14 15  1  0
 15 21  1  0
 15 16  1  1
 17 16  1  0
 18 17  1  0
 19 18  1  0
 20 19  1  0
 21 23  2  0
 21 22  1  0
M  END
$$$$
