EGK.pdb
     RDKit          3D

 23 22  0  0  1  0  0  0  0  0999 V2000
   27.1155  -22.8187  -16.3845 N   0  0  0  0  0  0  0  0  0  0  0  0
   27.4364  -21.7300  -17.2746 C   0  0  1  0  0  0  0  0  0  0  0  0
   26.2868  -21.4069  -18.1994 C   0  0  0  0  0  0  0  0  0  0  0  0
   25.1569  -22.3897  -18.0225 C   0  0  0  0  0  0  0  0  0  0  0  0
   24.4624  -22.5518  -19.3149 C   0  0  0  0  0  0  0  0  0  0  0  0
   24.8197  -21.8790  -20.3016 O   0  0  0  0  0  0  0  0  0  0  0  0
   27.8685  -20.5098  -16.5900 C   0  0  0  0  0  0  0  0  0  0  0  0
   27.9567  -19.4363  -17.2304 O   0  0  0  0  0  0  0  0  0  0  0  0
   23.4204  -23.4416  -19.4424 O   0  0  0  0  0  0  0  0  0  0  0  0
   28.2089  -20.4490  -15.2052 N   0  0  0  0  0  0  0  0  0  0  0  0
   28.2875  -19.2418  -14.4347 C   0  0  0  0  0  0  0  0  0  0  0  0
   27.4207  -19.2005  -13.2543 C   0  0  0  0  0  0  0  0  0  0  0  0
   27.0694  -18.0831  -12.7887 O   0  0  0  0  0  0  0  0  0  0  0  0
   26.9309  -20.3252  -12.5739 N   0  0  0  0  0  0  0  0  0  0  0  0
   25.6063  -20.4228  -11.9609 C   0  0  1  0  0  0  0  0  0  0  0  0
   24.6264  -20.2149  -13.0505 C   0  0  0  0  0  0  0  0  0  0  0  0
   23.1907  -20.1654  -12.6959 C   0  0  0  0  0  0  0  0  0  0  0  0
   22.2032  -20.1824  -13.8029 C   0  0  0  0  0  0  0  0  0  0  0  0
   20.7774  -20.2633  -13.3230 C   0  0  0  0  0  0  0  0  0  0  0  0
   19.8355  -20.2367  -14.4247 N   0  0  0  0  0  0  0  0  0  0  0  0
   25.4629  -21.5566  -11.0814 C   0  0  0  0  0  0  0  0  0  0  0  0
   24.8143  -21.4897   -9.8239 O   0  0  0  0  0  0  0  0  0  0  0  0
   25.8947  -22.7093  -11.3390 O   0  0  0  0  0  0  0  0  0  0  0  0
  2  1  1  1
  2  7  1  0
  3  2  1  0
  4  3  1  0
  5  4  1  0
  6  5  2  0
  7 10  1  0
  8  7  2  0
  9  5  1  0
 10 11  1  0
 11 12  1  0
 12 13  2  0
 12 14  1  0
 14 15  1  0
 15 21  1  0
 15 16  1  6
 17 16  1  0
 18 17  1  0
 19 18  1  0
 20 19  1  0
 21 23  2  0
 21 22  1  0
M  END
$$$$
