EGK.pdb
     RDKit          3D

 23 22  0  0  1  0  0  0  0  0999 V2000
   25.9569  -20.3830  -17.7675 N   0  0  0  0  0  0  0  0  0  0  0  0
   26.4055  -19.2937  -16.9350 C   0  0  1  0  0  0  0  0  0  0  0  0
   26.3085  -17.9670  -17.6505 C   0  0  0  0  0  0  0  0  0  0  0  0
   24.9995  -17.8445  -18.3889 C   0  0  0  0  0  0  0  0  0  0  0  0
   24.9760  -16.5520  -19.1015 C   0  0  0  0  0  0  0  0  0  0  0  0
   23.8864  -16.0386  -19.4227 O   0  0  0  0  0  0  0  0  0  0  0  0
   25.7130  -19.2047  -15.6479 C   0  0  0  0  0  0  0  0  0  0  0  0
   26.0877  -18.3638  -14.7977 O   0  0  0  0  0  0  0  0  0  0  0  0
   26.1492  -15.9052  -19.4163 O   0  0  0  0  0  0  0  0  0  0  0  0
   24.6095  -20.0302  -15.2761 N   0  0  0  0  0  0  0  0  0  0  0  0
   23.8171  -19.8522  -14.0939 C   0  0  0  0  0  0  0  0  0  0  0  0
   22.6619  -20.7462  -13.9798 C   0  0  0  0  0  0  0  0  0  0  0  0
   22.3802  -21.5118  -14.9407 O   0  0  0  0  0  0  0  0  0  0  0  0
   21.8149  -20.8307  -12.8649 N   0  0  0  0  0  0  0  0  0  0  0  0
   20.6759  -21.7406  -12.7449 C   0  0  1  0  0  0  0  0  0  0  0  0
   20.3794  -21.8490  -11.2988 C   0  0  0  0  0  0  0  0  0  0  0  0
   19.5424  -22.9805  -10.8424 C   0  0  0  0  0  0  0  0  0  0  0  0
   19.2579  -23.0897   -9.3905 C   0  0  0  0  0  0  0  0  0  0  0  0
   18.4204  -24.2920   -9.0401 C   0  0  0  0  0  0  0  0  0  0  0  0
   18.0759  -24.3173   -7.6322 N   0  0  0  0  0  0  0  0  0  0  0  0
   19.6088  -21.4499  -13.6703 C   0  0  0  0  0  0  0  0  0  0  0  0
   18.8733  -22.4513  -14.3507 O   0  0  0  0  0  0  0  0  0  0  0  0
   19.2260  -20.2887  -13.9647 O   0  0  0  0  0  0  0  0  0  0  0  0
  2  1  1  6
  2  7  1  0
  3  2  1  0
  4  3  1  0
  5  4  1  0
  6  5  2  0
  7 10  1  0
  8  7  2  0
  9  5  1  0
 10 11  1  0
 11 12  1  0
 12 13  2  0
 12 14  1  0
 14 15  1  0
 15 21  1  0
 15 16  1  1
 17 16  1  0
 18 17  1  0
 19 18  1  0
 20 19  1  0
 21 23  2  0
 21 22  1  0
M  END
$$$$
