HHM.pdb
     RDKit          3D

 29 30  0  0  1  0  0  0  0  0999 V2000
    8.2762  -17.6823   18.2072 N   0  0  0  0  0  0  0  0  0  0  0  0
    8.6818  -16.6338   19.1447 C   0  0  1  0  0  0  0  0  0  0  0  0
    7.7040  -15.4805   19.0634 C   0  0  0  0  0  0  0  0  0  0  0  0
    8.4180  -14.1982   18.8079 C   0  0  0  0  0  0  0  0  0  0  0  0
    9.7649  -13.9838   18.6632 C   0  0  0  0  0  0  0  0  0  0  0  0
    9.9321  -12.6674   18.4478 N   0  0  0  0  0  0  0  0  0  0  0  0
    8.7494  -12.0651   18.4544 C   0  0  0  0  0  0  0  0  0  0  0  0
    7.8194  -13.0056   18.6754 N   0  0  0  0  0  0  0  0  0  0  0  0
    8.6606  -17.2311   20.4968 C   0  0  0  0  0  0  0  0  0  0  0  0
    7.5810  -17.6461   20.9994 O   0  0  0  0  0  0  0  0  0  0  0  0
    9.8340  -17.3706   21.2962 N   0  0  0  0  0  0  0  0  0  0  0  0
    9.8436  -17.8687   22.6331 C   0  0  1  0  0  0  0  0  0  0  0  0
   11.0131  -18.7915   22.9354 C   0  0  0  0  0  0  0  0  0  0  0  0
   11.0092  -19.2646   24.3226 C   0  0  0  0  0  0  0  0  0  0  0  0
   11.7228  -18.8110   25.4133 C   0  0  0  0  0  0  0  0  0  0  0  0
   11.4058  -19.5394   26.4853 N   0  0  0  0  0  0  0  0  0  0  0  0
   10.4991  -20.4529   26.0947 C   0  0  0  0  0  0  0  0  0  0  0  0
   10.2623  -20.2837   24.7879 N   0  0  0  0  0  0  0  0  0  0  0  0
    9.8431  -16.7602   23.6456 C   0  0  0  0  0  0  0  0  0  0  0  0
   10.6880  -15.8364   23.5345 O   0  0  0  0  0  0  0  0  0  0  0  0
    5.9720  -11.4324   27.1223 C   0  0  0  0  0  0  0  0  0  0  0  0
    5.8692  -13.2257   26.9016 S   0  0  0  0  0  0  0  0  0  0  0  0
    7.5276  -13.8935   26.7926 C   0  0  0  0  0  0  0  0  0  0  0  0
    7.6885  -15.0039   25.8277 C   0  0  0  0  0  0  0  0  0  0  0  0
    9.0383  -15.5773   25.7193 C   0  0  2  0  0  0  0  0  0  0  0  0
    8.9383  -16.7053   24.7176 N   0  0  0  0  0  0  0  0  0  0  0  0
    9.5595  -16.1294   26.9653 C   0  0  0  0  0  0  0  0  0  0  0  0
   10.1305  -15.2613   27.9224 O   0  0  0  0  0  0  0  0  0  0  0  0
    9.5547  -17.3245   27.2858 O   0  0  0  0  0  0  0  0  0  0  0  0
  2  3  1  0
  2  1  1  6
  3  4  1  0
  4  8  1  0
  5  4  2  0
  5  6  1  0
  6  7  1  0
  8  7  2  0
  9 10  2  0
  9  2  1  0
 11  9  1  0
 12 11  1  0
 13 14  1  0
 12 13  1  6
 14 18  1  0
 14 15  2  0
 15 16  1  0
 17 16  1  0
 18 17  2  0
 19 20  2  0
 19 12  1  0
 22 21  1  0
 23 22  1  0
 25 24  1  1
 24 23  1  0
 25 26  1  0
 26 19  1  0
 27 25  1  0
 28 27  1  0
 29 27  2  0
M  END
$$$$
