HHM.pdb
     RDKit          3D

 29 30  0  0  1  0  0  0  0  0999 V2000
    9.8497  -15.4632   19.2032 N   0  0  0  0  0  0  0  0  0  0  0  0
    8.5929  -14.9708   19.7696 C   0  0  1  0  0  0  0  0  0  0  0  0
    7.4459  -15.3556   18.8590 C   0  0  0  0  0  0  0  0  0  0  0  0
    7.5656  -14.6735   17.5400 C   0  0  0  0  0  0  0  0  0  0  0  0
    8.6132  -13.9356   17.0510 C   0  0  0  0  0  0  0  0  0  0  0  0
    8.2625  -13.5231   15.8206 N   0  0  0  0  0  0  0  0  0  0  0  0
    7.0477  -13.9740   15.5332 C   0  0  0  0  0  0  0  0  0  0  0  0
    6.6199  -14.6808   16.5894 N   0  0  0  0  0  0  0  0  0  0  0  0
    8.4354  -15.6105   21.0930 C   0  0  0  0  0  0  0  0  0  0  0  0
    7.3922  -15.4245   21.7768 O   0  0  0  0  0  0  0  0  0  0  0  0
    9.4318  -16.4575   21.6631 N   0  0  0  0  0  0  0  0  0  0  0  0
    9.2916  -17.1423   22.9068 C   0  0  1  0  0  0  0  0  0  0  0  0
   10.2030  -18.3507   23.0476 C   0  0  0  0  0  0  0  0  0  0  0  0
    9.7336  -19.5001   22.2686 C   0  0  0  0  0  0  0  0  0  0  0  0
    8.5536  -19.6753   21.5749 C   0  0  0  0  0  0  0  0  0  0  0  0
    8.5465  -20.8836   21.0090 N   0  0  0  0  0  0  0  0  0  0  0  0
    9.7063  -21.4835   21.3317 C   0  0  0  0  0  0  0  0  0  0  0  0
   10.4205  -20.6448   22.0924 N   0  0  0  0  0  0  0  0  0  0  0  0
    9.5282  -16.2337   24.0783 C   0  0  0  0  0  0  0  0  0  0  0  0
   10.5652  -15.5238   24.0960 O   0  0  0  0  0  0  0  0  0  0  0  0
    6.3264  -11.3481   27.8865 C   0  0  0  0  0  0  0  0  0  0  0  0
    6.2242  -12.1160   26.2509 S   0  0  0  0  0  0  0  0  0  0  0  0
    7.7249  -13.0467   25.9514 C   0  0  0  0  0  0  0  0  0  0  0  0
    7.7392  -14.4073   26.5332 C   0  0  0  0  0  0  0  0  0  0  0  0
    8.9576  -15.1975   26.3027 C   0  0  2  0  0  0  0  0  0  0  0  0
    8.6410  -16.1380   25.1621 N   0  0  0  0  0  0  0  0  0  0  0  0
    9.3774  -16.0033   27.4445 C   0  0  0  0  0  0  0  0  0  0  0  0
    9.3125  -17.4119   27.3595 O   0  0  0  0  0  0  0  0  0  0  0  0
    9.8008  -15.5671   28.5221 O   0  0  0  0  0  0  0  0  0  0  0  0
  2  3  1  0
  2  1  1  6
  3  4  1  0
  4  8  1  0
  5  4  2  0
  5  6  1  0
  6  7  1  0
  8  7  2  0
  9 10  2  0
  9  2  1  0
 11  9  1  0
 12 11  1  0
 13 14  1  0
 12 13  1  6
 14 18  1  0
 14 15  2  0
 15 16  1  0
 17 16  1  0
 18 17  2  0
 19 20  2  0
 19 12  1  0
 22 21  1  0
 23 22  1  0
 25 24  1  1
 24 23  1  0
 25 26  1  0
 26 19  1  0
 27 25  1  0
 28 27  1  0
 29 27  2  0
M  END
$$$$
