HHM.pdb
     RDKit          3D

 29 30  0  0  1  0  0  0  0  0999 V2000
    9.8152  -16.7047   18.2141 N   0  0  0  0  0  0  0  0  0  0  0  0
   10.6189  -16.9985   19.4019 C   0  0  1  0  0  0  0  0  0  0  0  0
   11.7036  -15.9520   19.5467 C   0  0  0  0  0  0  0  0  0  0  0  0
   12.9756  -16.4189   18.9273 C   0  0  0  0  0  0  0  0  0  0  0  0
   13.1705  -16.9701   17.6866 C   0  0  0  0  0  0  0  0  0  0  0  0
   14.4844  -17.2313   17.5750 N   0  0  0  0  0  0  0  0  0  0  0  0
   15.1038  -16.8658   18.6906 C   0  0  0  0  0  0  0  0  0  0  0  0
   14.1768  -16.3666   19.5211 N   0  0  0  0  0  0  0  0  0  0  0  0
    9.7052  -16.9558   20.5632 C   0  0  0  0  0  0  0  0  0  0  0  0
    8.8492  -16.0364   20.6741 O   0  0  0  0  0  0  0  0  0  0  0  0
    9.7368  -17.9301   21.6049 N   0  0  0  0  0  0  0  0  0  0  0  0
    8.8606  -17.9343   22.7309 C   0  0  1  0  0  0  0  0  0  0  0  0
    8.6134  -19.3177   23.3104 C   0  0  0  0  0  0  0  0  0  0  0  0
    7.6022  -19.3081   24.3713 C   0  0  0  0  0  0  0  0  0  0  0  0
    6.2712  -18.9470   24.3206 C   0  0  0  0  0  0  0  0  0  0  0  0
    5.7250  -19.0942   25.5290 N   0  0  0  0  0  0  0  0  0  0  0  0
    6.6889  -19.5447   26.3518 C   0  0  0  0  0  0  0  0  0  0  0  0
    7.8211  -19.6726   25.6489 N   0  0  0  0  0  0  0  0  0  0  0  0
    9.3570  -17.0430   23.8324 C   0  0  0  0  0  0  0  0  0  0  0  0
   10.5934  -16.8458   23.9427 O   0  0  0  0  0  0  0  0  0  0  0  0
    6.2801  -11.5722   26.8445 C   0  0  0  0  0  0  0  0  0  0  0  0
    5.7248  -13.1225   26.0939 S   0  0  0  0  0  0  0  0  0  0  0  0
    7.1390  -13.9655   25.3885 C   0  0  0  0  0  0  0  0  0  0  0  0
    7.9473  -14.7401   26.3562 C   0  0  0  0  0  0  0  0  0  0  0  0
    9.0814  -15.4914   25.7979 C   0  0  2  0  0  0  0  0  0  0  0  0
    8.5012  -16.4151   24.7510 N   0  0  0  0  0  0  0  0  0  0  0  0
    9.7980  -16.3102   26.7702 C   0  0  0  0  0  0  0  0  0  0  0  0
   10.6616  -15.6869   27.6984 O   0  0  0  0  0  0  0  0  0  0  0  0
    9.7273  -17.5412   26.8725 O   0  0  0  0  0  0  0  0  0  0  0  0
  2  3  1  0
  2  1  1  6
  3  4  1  0
  4  8  1  0
  5  4  2  0
  5  6  1  0
  6  7  1  0
  8  7  2  0
  9 10  2  0
  9  2  1  0
 11  9  1  0
 12 11  1  0
 13 14  1  0
 12 13  1  1
 14 18  1  0
 14 15  2  0
 15 16  1  0
 17 16  1  0
 18 17  2  0
 19 20  2  0
 19 12  1  0
 22 21  1  0
 23 22  1  0
 25 24  1  1
 24 23  1  0
 25 26  1  0
 26 19  1  0
 27 25  1  0
 28 27  1  0
 29 27  2  0
M  END
$$$$
