HHM.pdb
     RDKit          3D

 29 30  0  0  1  0  0  0  0  0999 V2000
   10.4893  -18.5506   20.0041 N   0  0  0  0  0  0  0  0  0  0  0  0
   11.6117  -17.6111   20.0290 C   0  0  1  0  0  0  0  0  0  0  0  0
   11.9970  -17.2501   18.6098 C   0  0  0  0  0  0  0  0  0  0  0  0
   12.8528  -18.3105   18.0076 C   0  0  0  0  0  0  0  0  0  0  0  0
   13.9059  -18.9829   18.5732 C   0  0  0  0  0  0  0  0  0  0  0  0
   14.3649  -19.8433   17.6480 N   0  0  0  0  0  0  0  0  0  0  0  0
   13.6415  -19.7290   16.5411 C   0  0  0  0  0  0  0  0  0  0  0  0
   12.7126  -18.7875   16.7622 N   0  0  0  0  0  0  0  0  0  0  0  0
   11.1537  -16.4098   20.7586 C   0  0  0  0  0  0  0  0  0  0  0  0
   11.9239  -15.4248   20.9226 O   0  0  0  0  0  0  0  0  0  0  0  0
    9.8424  -16.2956   21.3088 N   0  0  0  0  0  0  0  0  0  0  0  0
    9.3975  -15.2026   22.1106 C   0  0  1  0  0  0  0  0  0  0  0  0
    7.9555  -14.7982   21.8504 C   0  0  0  0  0  0  0  0  0  0  0  0
    7.7205  -14.4309   20.4511 C   0  0  0  0  0  0  0  0  0  0  0  0
    7.0013  -15.0880   19.4735 C   0  0  0  0  0  0  0  0  0  0  0  0
    7.0547  -14.3894   18.3380 N   0  0  0  0  0  0  0  0  0  0  0  0
    7.7984  -13.2943   18.5764 C   0  0  0  0  0  0  0  0  0  0  0  0
    8.1987  -13.3231   19.8536 N   0  0  0  0  0  0  0  0  0  0  0  0
    9.5519  -15.4825   23.5775 C   0  0  0  0  0  0  0  0  0  0  0  0
   10.5468  -15.0111   24.1838 O   0  0  0  0  0  0  0  0  0  0  0  0
    6.6930  -11.2192   27.5084 C   0  0  0  0  0  0  0  0  0  0  0  0
    7.4124  -12.8598   27.2513 S   0  0  0  0  0  0  0  0  0  0  0  0
    6.4193  -13.7483   26.0544 C   0  0  0  0  0  0  0  0  0  0  0  0
    7.1922  -14.4934   25.0358 C   0  0  0  0  0  0  0  0  0  0  0  0
    7.9596  -15.6494   25.5227 C   0  0  2  0  0  0  0  0  0  0  0  0
    8.6324  -16.2504   24.3095 N   0  0  0  0  0  0  0  0  0  0  0  0
    7.1492  -16.6899   26.1470 C   0  0  0  0  0  0  0  0  0  0  0  0
    6.6661  -17.7581   25.3587 O   0  0  0  0  0  0  0  0  0  0  0  0
    6.8270  -16.7384   27.3406 O   0  0  0  0  0  0  0  0  0  0  0  0
  2  3  1  0
  2  1  1  6
  3  4  1  0
  4  8  1  0
  5  4  2  0
  5  6  1  0
  6  7  1  0
  8  7  2  0
  9 10  2  0
  9  2  1  0
 11  9  1  0
 12 11  1  0
 13 14  1  0
 12 13  1  1
 14 18  1  0
 14 15  2  0
 15 16  1  0
 17 16  1  0
 18 17  2  0
 19 20  2  0
 19 12  1  0
 22 21  1  0
 23 22  1  0
 25 24  1  6
 24 23  1  0
 25 26  1  0
 26 19  1  0
 27 25  1  0
 28 27  1  0
 29 27  2  0
M  END
$$$$
