EIF.pdb
     RDKit          3D

 29 29  0  0  1  0  0  0  0  0999 V2000
   10.1003  -18.2447   18.7342 N   0  0  0  0  0  0  0  0  0  0  0  0
    9.1867  -18.1109   19.8999 C   0  0  1  0  0  0  0  0  0  0  0  0
    9.3657  -19.2896   20.8024 C   0  0  0  0  0  0  0  0  0  0  0  0
    8.9395  -20.5566   20.1207 C   0  0  0  0  0  0  0  0  0  0  0  0
    9.1353  -21.7236   21.0560 C   0  0  0  0  0  0  0  0  0  0  0  0
    8.1314  -22.4071   21.3242 O   0  0  0  0  0  0  0  0  0  0  0  0
    9.3807  -16.7945   20.5051 C   0  0  0  0  0  0  0  0  0  0  0  0
   10.5307  -16.2649   20.4114 O   0  0  0  0  0  0  0  0  0  0  0  0
   10.3785  -22.0089   21.5834 O   0  0  0  0  0  0  0  0  0  0  0  0
    6.8643  -12.5018   19.2354 C   0  0  0  0  0  0  0  0  0  0  0  0
    7.9857  -13.4546   19.6862 C   0  0  0  0  0  0  0  0  0  0  0  0
    7.7409  -13.7249   21.1402 C   0  0  2  0  0  0  0  0  0  0  0  0
    7.8191  -12.3778   21.8608 C   0  0  0  0  0  0  0  0  0  0  0  0
    8.6588  -14.7322   21.7570 C   0  0  2  0  0  0  0  0  0  0  0  0
    8.4052  -16.0569   21.1804 N   0  0  0  0  0  0  0  0  0  0  0  0
    8.6320  -14.8148   23.2253 C   0  0  0  0  0  0  0  0  0  0  0  0
    7.6976  -14.2361   23.8574 O   0  0  0  0  0  0  0  0  0  0  0  0
    9.5773  -15.5053   24.0101 N   0  0  0  0  0  0  0  0  0  0  0  0
    9.3470  -15.7500   25.4217 C   0  0  1  0  0  0  0  0  0  0  0  0
    7.8595  -15.5708   25.6683 C   0  0  0  0  0  0  0  0  0  0  0  0
    7.4911  -14.2838   26.2464 C   0  0  0  0  0  0  0  0  0  0  0  0
    6.1612  -13.8637   26.2447 C   0  0  0  0  0  0  0  0  0  0  0  0
    5.8195  -12.6533   26.8001 C   0  0  0  0  0  0  0  0  0  0  0  0
    6.7674  -11.8338   27.3655 C   0  0  0  0  0  0  0  0  0  0  0  0
    8.0733  -12.2435   27.3687 C   0  0  0  0  0  0  0  0  0  0  0  0
    8.4383  -13.4729   26.8076 C   0  0  0  0  0  0  0  0  0  0  0  0
    9.7219  -17.1185   25.7523 C   0  0  0  0  0  0  0  0  0  0  0  0
    9.8887  -18.0174   24.8738 O   0  0  0  0  0  0  0  0  0  0  0  0
    9.9145  -17.4951   27.0663 O   0  0  0  0  0  0  0  0  0  0  0  0
  2  1  1  6
  2  7  1  0
  2  3  1  0
  4  3  1  0
  4  5  1  0
  5  6  2  0
  7  8  2  0
  9  5  1  0
 10 11  1  0
 11 12  1  0
 12 14  1  0
 12 13  1  1
 14 15  1  6
 15  7  1  0
 16 14  1  0
 17 16  2  0
 18 16  1  0
 19 27  1  0
 19 18  1  0
 19 20  1  6
 21 20  1  0
 22 21  2  0
 23 22  1  0
 24 23  2  0
 24 25  1  0
 25 26  2  0
 26 21  1  0
 27 29  1  0
 28 27  2  0
M  END
$$$$
