EIF.pdb
     RDKit          3D

 29 29  0  0  1  0  0  0  0  0999 V2000
    9.4811  -17.6664   18.0657 N   0  0  0  0  0  0  0  0  0  0  0  0
    9.8994  -18.1158   19.4200 C   0  0  1  0  0  0  0  0  0  0  0  0
   11.2080  -18.8322   19.3176 C   0  0  0  0  0  0  0  0  0  0  0  0
   11.6363  -19.3604   20.6552 C   0  0  0  0  0  0  0  0  0  0  0  0
   12.9512  -20.0857   20.5140 C   0  0  0  0  0  0  0  0  0  0  0  0
   13.0844  -21.1436   21.1543 O   0  0  0  0  0  0  0  0  0  0  0  0
    9.8536  -16.9751   20.3329 C   0  0  0  0  0  0  0  0  0  0  0  0
   10.8973  -16.2599   20.4375 O   0  0  0  0  0  0  0  0  0  0  0  0
   13.9534  -19.5864   19.7069 O   0  0  0  0  0  0  0  0  0  0  0  0
    6.6993  -13.1053   19.6758 C   0  0  0  0  0  0  0  0  0  0  0  0
    7.9636  -13.8913   20.0659 C   0  0  0  0  0  0  0  0  0  0  0  0
    7.7088  -14.4312   21.4409 C   0  0  2  0  0  0  0  0  0  0  0  0
    7.5622  -13.2252   22.3705 C   0  0  0  0  0  0  0  0  0  0  0  0
    8.7418  -15.3897   21.9429 C   0  0  2  0  0  0  0  0  0  0  0  0
    8.7537  -16.5938   21.1052 N   0  0  0  0  0  0  0  0  0  0  0  0
    8.6341  -15.7698   23.3597 C   0  0  0  0  0  0  0  0  0  0  0  0
    7.6750  -16.5137   23.7262 O   0  0  0  0  0  0  0  0  0  0  0  0
    9.5325  -15.3725   24.3703 N   0  0  0  0  0  0  0  0  0  0  0  0
    9.2766  -15.6774   25.7656 C   0  0  1  0  0  0  0  0  0  0  0  0
    7.8206  -15.3417   26.0355 C   0  0  0  0  0  0  0  0  0  0  0  0
    7.5254  -13.9144   26.0809 C   0  0  0  0  0  0  0  0  0  0  0  0
    6.2679  -13.4413   25.7067 C   0  0  0  0  0  0  0  0  0  0  0  0
    5.9932  -12.0952   25.7611 C   0  0  0  0  0  0  0  0  0  0  0  0
    6.9387  -11.1896   26.1806 C   0  0  0  0  0  0  0  0  0  0  0  0
    8.1736  -11.6511   26.5485 C   0  0  0  0  0  0  0  0  0  0  0  0
    8.4697  -13.0183   26.4992 C   0  0  0  0  0  0  0  0  0  0  0  0
    9.4891  -17.0984   26.0067 C   0  0  0  0  0  0  0  0  0  0  0  0
    9.5800  -17.5927   27.1707 O   0  0  0  0  0  0  0  0  0  0  0  0
    9.6015  -17.9800   24.9503 O   0  0  0  0  0  0  0  0  0  0  0  0
  2  1  1  6
  2  7  1  0
  2  3  1  0
  4  3  1  0
  4  5  1  0
  5  6  2  0
  7  8  2  0
  9  5  1  0
 10 11  1  0
 11 12  1  0
 12 14  1  0
 12 13  1  1
 14 15  1  6
 15  7  1  0
 16 14  1  0
 17 16  2  0
 18 16  1  0
 19 27  1  0
 19 18  1  0
 19 20  1  6
 21 20  1  0
 22 21  2  0
 23 22  1  0
 24 23  2  0
 24 25  1  0
 25 26  2  0
 26 21  1  0
 27 29  1  0
 28 27  2  0
M  END
$$$$
