EIF.pdb
     RDKit          3D

 29 29  0  0  1  0  0  0  0  0999 V2000
   12.2605  -17.0284   18.2439 N   0  0  0  0  0  0  0  0  0  0  0  0
   11.2035  -17.5942   19.1236 C   0  0  1  0  0  0  0  0  0  0  0  0
   11.6353  -18.9420   19.6063 C   0  0  0  0  0  0  0  0  0  0  0  0
   11.6520  -19.9345   18.4812 C   0  0  0  0  0  0  0  0  0  0  0  0
   12.0569  -21.2885   19.0083 C   0  0  0  0  0  0  0  0  0  0  0  0
   11.2531  -22.2229   18.8421 O   0  0  0  0  0  0  0  0  0  0  0  0
   10.8686  -16.6124   20.1536 C   0  0  0  0  0  0  0  0  0  0  0  0
   11.7998  -15.8617   20.5791 O   0  0  0  0  0  0  0  0  0  0  0  0
   13.2684  -21.4683   19.6448 O   0  0  0  0  0  0  0  0  0  0  0  0
    6.7097  -13.2629   20.1971 C   0  0  0  0  0  0  0  0  0  0  0  0
    8.1347  -13.8199   20.3629 C   0  0  0  0  0  0  0  0  0  0  0  0
    8.0906  -14.7230   21.5585 C   0  0  2  0  0  0  0  0  0  0  0  0
    7.7036  -13.8541   22.7564 C   0  0  0  0  0  0  0  0  0  0  0  0
    9.3504  -15.4869   21.8179 C   0  0  2  0  0  0  0  0  0  0  0  0
    9.6039  -16.4201   20.7148 N   0  0  0  0  0  0  0  0  0  0  0  0
    9.4177  -16.2027   23.1011 C   0  0  0  0  0  0  0  0  0  0  0  0
    8.8711  -17.3425   23.1995 O   0  0  0  0  0  0  0  0  0  0  0  0
   10.0596  -15.7202   24.2593 N   0  0  0  0  0  0  0  0  0  0  0  0
   10.4573  -16.6182   25.3273 C   0  0  1  0  0  0  0  0  0  0  0  0
   11.3093  -15.8132   26.2925 C   0  0  0  0  0  0  0  0  0  0  0  0
   10.5627  -14.8787   27.1265 C   0  0  0  0  0  0  0  0  0  0  0  0
    9.7795  -13.8826   26.5438 C   0  0  0  0  0  0  0  0  0  0  0  0
    9.0704  -13.0109   27.3360 C   0  0  0  0  0  0  0  0  0  0  0  0
    9.1131  -13.0959   28.7074 C   0  0  0  0  0  0  0  0  0  0  0  0
    9.8807  -14.0725   29.2821 C   0  0  0  0  0  0  0  0  0  0  0  0
   10.6088  -14.9682   28.4902 C   0  0  0  0  0  0  0  0  0  0  0  0
    9.2762  -17.1045   26.0280 C   0  0  0  0  0  0  0  0  0  0  0  0
    9.3392  -17.9075   27.0072 O   0  0  0  0  0  0  0  0  0  0  0  0
    8.0147  -16.6981   25.6421 O   0  0  0  0  0  0  0  0  0  0  0  0
  2  1  1  1
  2  7  1  0
  2  3  1  0
  4  3  1  0
  4  5  1  0
  5  6  2  0
  7  8  2  0
  9  5  1  0
 10 11  1  0
 11 12  1  0
 12 14  1  0
 12 13  1  1
 14 15  1  6
 15  7  1  0
 16 14  1  0
 17 16  2  0
 18 16  1  0
 19 27  1  0
 19 18  1  0
 19 20  1  1
 21 20  1  0
 22 21  2  0
 23 22  1  0
 24 23  2  0
 24 25  1  0
 25 26  2  0
 26 21  1  0
 27 29  1  0
 28 27  2  0
M  END
$$$$
