EIF.pdb
     RDKit          3D

 29 29  0  0  1  0  0  0  0  0999 V2000
   10.8691  -17.9104   17.6759 N   0  0  0  0  0  0  0  0  0  0  0  0
    9.7161  -17.9920   18.6115 C   0  0  1  0  0  0  0  0  0  0  0  0
    9.5686  -19.4017   19.0880 C   0  0  0  0  0  0  0  0  0  0  0  0
   10.2132  -20.3613   18.1314 C   0  0  0  0  0  0  0  0  0  0  0  0
   10.0335  -21.7721   18.6337 C   0  0  0  0  0  0  0  0  0  0  0  0
    9.4563  -21.9135   19.7263 O   0  0  0  0  0  0  0  0  0  0  0  0
    9.8716  -16.9702   19.6452 C   0  0  0  0  0  0  0  0  0  0  0  0
   11.0464  -16.5621   19.9004 O   0  0  0  0  0  0  0  0  0  0  0  0
   10.4939  -22.8489   17.9033 O   0  0  0  0  0  0  0  0  0  0  0  0
    7.0606  -12.4982   20.0569 C   0  0  0  0  0  0  0  0  0  0  0  0
    8.2475  -13.4777   20.0742 C   0  0  0  0  0  0  0  0  0  0  0  0
    8.1016  -14.2842   21.3293 C   0  0  2  0  0  0  0  0  0  0  0  0
    8.2257  -13.3080   22.5004 C   0  0  0  0  0  0  0  0  0  0  0  0
    9.0609  -15.4246   21.4605 C   0  0  2  0  0  0  0  0  0  0  0  0
    8.8347  -16.3931   20.3823 N   0  0  0  0  0  0  0  0  0  0  0  0
    9.0661  -16.1165   22.7584 C   0  0  0  0  0  0  0  0  0  0  0  0
    7.9612  -16.4576   23.2785 O   0  0  0  0  0  0  0  0  0  0  0  0
   10.2245  -16.4470   23.4899 N   0  0  0  0  0  0  0  0  0  0  0  0
   10.2852  -16.2577   24.9272 C   0  0  1  0  0  0  0  0  0  0  0  0
    9.9983  -14.7911   25.1961 C   0  0  0  0  0  0  0  0  0  0  0  0
    9.9665  -14.4282   26.6081 C   0  0  0  0  0  0  0  0  0  0  0  0
    8.8095  -13.8929   27.1736 C   0  0  0  0  0  0  0  0  0  0  0  0
    8.7833  -13.5618   28.5078 C   0  0  0  0  0  0  0  0  0  0  0  0
    9.8833  -13.7470   29.3114 C   0  0  0  0  0  0  0  0  0  0  0  0
   11.0201  -14.2723   28.7591 C   0  0  0  0  0  0  0  0  0  0  0  0
   11.0636  -14.6148   27.4026 C   0  0  0  0  0  0  0  0  0  0  0  0
    9.2625  -17.0684   25.5748 C   0  0  0  0  0  0  0  0  0  0  0  0
    9.4043  -17.5553   26.7369 O   0  0  0  0  0  0  0  0  0  0  0  0
    8.0725  -17.3422   24.9309 O   0  0  0  0  0  0  0  0  0  0  0  0
  2  1  1  6
  2  7  1  0
  2  3  1  0
  4  3  1  0
  4  5  1  0
  5  6  2  0
  7  8  2  0
  9  5  1  0
 10 11  1  0
 11 12  1  0
 12 14  1  0
 12 13  1  1
 14 15  1  6
 15  7  1  0
 16 14  1  0
 17 16  2  0
 18 16  1  0
 19 27  1  0
 19 18  1  0
 19 20  1  6
 21 20  1  0
 22 21  2  0
 23 22  1  0
 24 23  2  0
 24 25  1  0
 25 26  2  0
 26 21  1  0
 27 29  1  0
 28 27  2  0
M  END
$$$$
