EIF.pdb
     RDKit          3D

 29 29  0  0  1  0  0  0  0  0999 V2000
   13.3248  -14.0143   19.1842 N   0  0  0  0  0  0  0  0  0  0  0  0
   12.5040  -15.2044   19.5321 C   0  0  1  0  0  0  0  0  0  0  0  0
   13.4095  -16.3597   19.8171 C   0  0  0  0  0  0  0  0  0  0  0  0
   14.8491  -15.9420   19.7499 C   0  0  0  0  0  0  0  0  0  0  0  0
   15.7290  -17.0937   20.1673 C   0  0  0  0  0  0  0  0  0  0  0  0
   16.5698  -17.4906   19.3412 O   0  0  0  0  0  0  0  0  0  0  0  0
   11.5649  -14.8390   20.5911 C   0  0  0  0  0  0  0  0  0  0  0  0
   11.9935  -14.1033   21.5328 O   0  0  0  0  0  0  0  0  0  0  0  0
   15.5963  -17.6720   21.4135 O   0  0  0  0  0  0  0  0  0  0  0  0
    7.0710  -12.4635   19.4823 C   0  0  0  0  0  0  0  0  0  0  0  0
    8.4064  -12.8855   20.1203 C   0  0  0  0  0  0  0  0  0  0  0  0
    8.1029  -14.0898   20.9598 C   0  0  2  0  0  0  0  0  0  0  0  0
    7.0202  -13.6735   21.9570 C   0  0  0  0  0  0  0  0  0  0  0  0
    9.2857  -14.6899   21.6515 C   0  0  2  0  0  0  0  0  0  0  0  0
   10.2243  -15.2260   20.6598 N   0  0  0  0  0  0  0  0  0  0  0  0
    8.9890  -15.7166   22.6622 C   0  0  0  0  0  0  0  0  0  0  0  0
    9.1447  -16.9387   22.3623 O   0  0  0  0  0  0  0  0  0  0  0  0
    8.5404  -15.4513   23.9716 N   0  0  0  0  0  0  0  0  0  0  0  0
    8.2666  -16.5281   24.9048 C   0  0  1  0  0  0  0  0  0  0  0  0
    7.9090  -15.8863   26.2336 C   0  0  0  0  0  0  0  0  0  0  0  0
    8.9790  -15.0987   26.8344 C   0  0  0  0  0  0  0  0  0  0  0  0
    8.8851  -13.7084   26.8926 C   0  0  0  0  0  0  0  0  0  0  0  0
    9.8933  -12.9725   27.4692 C   0  0  0  0  0  0  0  0  0  0  0  0
   11.0079  -13.5792   27.9977 C   0  0  0  0  0  0  0  0  0  0  0  0
   11.1028  -14.9434   27.9421 C   0  0  0  0  0  0  0  0  0  0  0  0
   10.0854  -15.7076   27.3587 C   0  0  0  0  0  0  0  0  0  0  0  0
    7.1316  -17.3112   24.4346 C   0  0  0  0  0  0  0  0  0  0  0  0
    6.3297  -16.8948   23.5452 O   0  0  0  0  0  0  0  0  0  0  0  0
    6.8823  -18.5661   24.9529 O   0  0  0  0  0  0  0  0  0  0  0  0
  2  1  1  1
  2  7  1  0
  2  3  1  0
  4  3  1  0
  4  5  1  0
  5  6  2  0
  7  8  2  0
  9  5  1  0
 10 11  1  0
 11 12  1  0
 12 14  1  0
 12 13  1  1
 14 15  1  6
 15  7  1  0
 16 14  1  0
 17 16  2  0
 18 16  1  0
 19 27  1  0
 19 18  1  0
 19 20  1  1
 21 20  1  0
 22 21  2  0
 23 22  1  0
 24 23  2  0
 24 25  1  0
 25 26  2  0
 26 21  1  0
 27 29  1  0
 28 27  2  0
M  END
$$$$
