EIF.pdb
     RDKit          3D

 29 29  0  0  1  0  0  0  0  0999 V2000
   11.5903  -17.3605   18.0274 N   0  0  0  0  0  0  0  0  0  0  0  0
   10.7264  -17.9261   19.0975 C   0  0  1  0  0  0  0  0  0  0  0  0
   11.2938  -19.2344   19.5471 C   0  0  0  0  0  0  0  0  0  0  0  0
   10.9946  -20.3184   18.5536 C   0  0  0  0  0  0  0  0  0  0  0  0
   11.9948  -21.4365   18.7099 C   0  0  0  0  0  0  0  0  0  0  0  0
   11.7683  -22.2771   19.5981 O   0  0  0  0  0  0  0  0  0  0  0  0
   10.5307  -16.9132   20.1332 C   0  0  0  0  0  0  0  0  0  0  0  0
   11.5195  -16.1752   20.4321 O   0  0  0  0  0  0  0  0  0  0  0  0
   13.1074  -21.5114   17.8965 O   0  0  0  0  0  0  0  0  0  0  0  0
    6.7025  -13.2627   20.5232 C   0  0  0  0  0  0  0  0  0  0  0  0
    8.0846  -13.9356   20.5964 C   0  0  0  0  0  0  0  0  0  0  0  0
    8.0307  -14.8678   21.7691 C   0  0  2  0  0  0  0  0  0  0  0  0
    7.7706  -14.0080   23.0073 C   0  0  0  0  0  0  0  0  0  0  0  0
    9.2397  -15.7312   21.9437 C   0  0  2  0  0  0  0  0  0  0  0  0
    9.3417  -16.6780   20.8279 N   0  0  0  0  0  0  0  0  0  0  0  0
    9.3364  -16.4544   23.2209 C   0  0  0  0  0  0  0  0  0  0  0  0
    8.6252  -17.4891   23.3977 O   0  0  0  0  0  0  0  0  0  0  0  0
   10.1783  -16.0898   24.2907 N   0  0  0  0  0  0  0  0  0  0  0  0
   10.4402  -17.0045   25.3862 C   0  0  1  0  0  0  0  0  0  0  0  0
   11.4565  -16.3340   26.2935 C   0  0  0  0  0  0  0  0  0  0  0  0
   10.9285  -15.2267   27.0818 C   0  0  0  0  0  0  0  0  0  0  0  0
   10.9945  -15.2571   28.4747 C   0  0  0  0  0  0  0  0  0  0  0  0
   10.5035  -14.2053   29.2115 C   0  0  0  0  0  0  0  0  0  0  0  0
    9.9409  -13.1082   28.6035 C   0  0  0  0  0  0  0  0  0  0  0  0
    9.8749  -13.0756   27.2368 C   0  0  0  0  0  0  0  0  0  0  0  0
   10.3702  -14.1379   26.4716 C   0  0  0  0  0  0  0  0  0  0  0  0
    9.2139  -17.2381   26.1373 C   0  0  0  0  0  0  0  0  0  0  0  0
    9.1455  -18.0521   27.1069 O   0  0  0  0  0  0  0  0  0  0  0  0
    8.0535  -16.5644   25.8128 O   0  0  0  0  0  0  0  0  0  0  0  0
  2  1  1  6
  2  7  1  0
  2  3  1  0
  4  3  1  0
  4  5  1  0
  5  6  2  0
  7  8  2  0
  9  5  1  0
 10 11  1  0
 11 12  1  0
 12 14  1  0
 12 13  1  1
 14 15  1  6
 15  7  1  0
 16 14  1  0
 17 16  2  0
 18 16  1  0
 19 27  1  0
 19 18  1  0
 19 20  1  1
 21 20  1  0
 22 21  2  0
 23 22  1  0
 24 23  2  0
 24 25  1  0
 25 26  2  0
 26 21  1  0
 27 29  1  0
 28 27  2  0
M  END
$$$$
