EIF.pdb
     RDKit          3D

 29 29  0  0  1  0  0  0  0  0999 V2000
   10.8080  -18.5778   18.9420 N   0  0  0  0  0  0  0  0  0  0  0  0
    9.5322  -18.4488   19.6948 C   0  0  1  0  0  0  0  0  0  0  0  0
    9.2318  -19.7443   20.3786 C   0  0  0  0  0  0  0  0  0  0  0  0
   10.4542  -20.2880   21.0580 C   0  0  0  0  0  0  0  0  0  0  0  0
   10.1170  -21.5930   21.7351 C   0  0  0  0  0  0  0  0  0  0  0  0
   11.0272  -22.1491   22.3748 O   0  0  0  0  0  0  0  0  0  0  0  0
    9.6041  -17.2651   20.5495 C   0  0  0  0  0  0  0  0  0  0  0  0
   10.7188  -16.9969   21.0947 O   0  0  0  0  0  0  0  0  0  0  0  0
    8.8509  -22.1344   21.6408 O   0  0  0  0  0  0  0  0  0  0  0  0
    6.8158  -12.7462   19.4377 C   0  0  0  0  0  0  0  0  0  0  0  0
    7.9789  -13.6967   19.7726 C   0  0  0  0  0  0  0  0  0  0  0  0
    7.7685  -14.1251   21.1936 C   0  0  2  0  0  0  0  0  0  0  0  0
    7.8815  -12.8675   22.0571 C   0  0  0  0  0  0  0  0  0  0  0  0
    8.6899  -15.2032   21.6696 C   0  0  2  0  0  0  0  0  0  0  0  0
    8.5486  -16.3909   20.8204 N   0  0  0  0  0  0  0  0  0  0  0  0
    8.5598  -15.5842   23.0843 C   0  0  0  0  0  0  0  0  0  0  0  0
    7.5637  -16.2808   23.4450 O   0  0  0  0  0  0  0  0  0  0  0  0
    9.4746  -15.2375   24.0988 N   0  0  0  0  0  0  0  0  0  0  0  0
    9.2457  -15.6197   25.4797 C   0  0  1  0  0  0  0  0  0  0  0  0
    7.7897  -15.3206   25.7896 C   0  0  0  0  0  0  0  0  0  0  0  0
    7.5089  -13.9224   26.0934 C   0  0  0  0  0  0  0  0  0  0  0  0
    8.5498  -13.0393   26.3796 C   0  0  0  0  0  0  0  0  0  0  0  0
    8.2787  -11.7200   26.6557 C   0  0  0  0  0  0  0  0  0  0  0  0
    6.9902  -11.2407   26.6574 C   0  0  0  0  0  0  0  0  0  0  0  0
    5.9668  -12.1050   26.3768 C   0  0  0  0  0  0  0  0  0  0  0  0
    6.2253  -13.4512   26.0934 C   0  0  0  0  0  0  0  0  0  0  0  0
    9.4823  -17.0481   25.6415 C   0  0  0  0  0  0  0  0  0  0  0  0
    9.0741  -17.9118   24.8079 O   0  0  0  0  0  0  0  0  0  0  0  0
   10.1770  -17.5247   26.7351 O   0  0  0  0  0  0  0  0  0  0  0  0
  2  1  1  1
  2  7  1  0
  2  3  1  0
  4  3  1  0
  4  5  1  0
  5  6  2  0
  7  8  2  0
  9  5  1  0
 10 11  1  0
 11 12  1  0
 12 14  1  0
 12 13  1  1
 14 15  1  6
 15  7  1  0
 16 14  1  0
 17 16  2  0
 18 16  1  0
 19 27  1  0
 19 18  1  0
 19 20  1  6
 21 20  1  0
 22 21  2  0
 23 22  1  0
 24 23  2  0
 24 25  1  0
 25 26  2  0
 26 21  1  0
 27 29  1  0
 28 27  2  0
M  END
$$$$
