EIF.pdb
     RDKit          3D

 29 29  0  0  1  0  0  0  0  0999 V2000
    8.3754  -13.4813   19.1483 N   0  0  0  0  0  0  0  0  0  0  0  0
    8.8526  -14.7810   19.6909 C   0  0  1  0  0  0  0  0  0  0  0  0
   10.3299  -14.7089   19.9110 C   0  0  0  0  0  0  0  0  0  0  0  0
   10.9467  -13.6355   19.0632 C   0  0  0  0  0  0  0  0  0  0  0  0
   12.4340  -13.5897   19.3097 C   0  0  0  0  0  0  0  0  0  0  0  0
   12.8237  -13.8466   20.4624 O   0  0  0  0  0  0  0  0  0  0  0  0
    8.0398  -15.1363   20.8528 C   0  0  0  0  0  0  0  0  0  0  0  0
    7.3777  -14.2109   21.4158 O   0  0  0  0  0  0  0  0  0  0  0  0
   13.3120  -13.2752   18.2922 O   0  0  0  0  0  0  0  0  0  0  0  0
    4.6385  -19.1582   20.9402 C   0  0  0  0  0  0  0  0  0  0  0  0
    5.2263  -17.7585   21.1923 C   0  0  0  0  0  0  0  0  0  0  0  0
    6.2396  -17.9245   22.2843 C   0  0  2  0  0  0  0  0  0  0  0  0
    5.4781  -18.3803   23.5302 C   0  0  0  0  0  0  0  0  0  0  0  0
    7.0715  -16.7125   22.5615 C   0  0  2  0  0  0  0  0  0  0  0  0
    7.9206  -16.4149   21.4029 N   0  0  0  0  0  0  0  0  0  0  0  0
    7.8920  -16.7590   23.7813 C   0  0  0  0  0  0  0  0  0  0  0  0
    9.0427  -17.2891   23.7294 O   0  0  0  0  0  0  0  0  0  0  0  0
    7.5012  -16.2459   25.0344 N   0  0  0  0  0  0  0  0  0  0  0  0
    8.3594  -16.3696   26.1979 C   0  0  1  0  0  0  0  0  0  0  0  0
    7.9663  -15.2638   27.1613 C   0  0  0  0  0  0  0  0  0  0  0  0
    7.8773  -13.9384   26.5599 C   0  0  0  0  0  0  0  0  0  0  0  0
    6.6452  -13.2940   26.4506 C   0  0  0  0  0  0  0  0  0  0  0  0
    6.5698  -12.0403   25.8912 C   0  0  0  0  0  0  0  0  0  0  0  0
    7.6927  -11.3952   25.4299 C   0  0  0  0  0  0  0  0  0  0  0  0
    8.9032  -12.0252   25.5360 C   0  0  0  0  0  0  0  0  0  0  0  0
    8.9976  -13.3015   26.1029 C   0  0  0  0  0  0  0  0  0  0  0  0
    8.1381  -17.6591   26.8388 C   0  0  0  0  0  0  0  0  0  0  0  0
    7.1910  -18.4362   26.5121 O   0  0  0  0  0  0  0  0  0  0  0  0
    8.9724  -18.0924   27.8496 O   0  0  0  0  0  0  0  0  0  0  0  0
  2  1  1  1
  2  7  1  0
  2  3  1  0
  4  3  1  0
  4  5  1  0
  5  6  2  0
  7  8  2  0
  9  5  1  0
 10 11  1  0
 11 12  1  0
 12 14  1  0
 12 13  1  1
 14 15  1  6
 15  7  1  0
 16 14  1  0
 17 16  2  0
 18 16  1  0
 19 27  1  0
 19 18  1  0
 19 20  1  1
 21 20  1  0
 22 21  2  0
 23 22  1  0
 24 23  2  0
 24 25  1  0
 25 26  2  0
 26 21  1  0
 27 29  1  0
 28 27  2  0
M  END
$$$$
