ALK.pdb
     RDKit          3D

 23 22  0  0  1  0  0  0  0  0999 V2000
   27.1108  -18.2560  -15.7282 C   0  0  0  0  0  0  0  0  0  0  0  0
   27.6946  -19.4110  -14.9470 C   0  0  2  0  0  0  0  0  0  0  0  0
   28.5057  -20.2716  -15.7488 N   0  0  0  0  0  0  0  0  0  0  0  0
   26.6640  -20.1575  -14.1990 C   0  0  0  0  0  0  0  0  0  0  0  0
   26.1948  -21.2059  -14.7316 O   0  0  0  0  0  0  0  0  0  0  0  0
   26.5935  -21.8753   -9.8216 C   0  0  0  0  0  0  0  0  0  0  0  0
   26.4821  -20.3386  -10.0010 C   0  0  2  0  0  0  0  0  0  0  0  0
   26.4260  -19.8369   -8.5519 C   0  0  0  0  0  0  0  0  0  0  0  0
   25.2128  -20.1273  -10.7481 C   0  0  0  0  0  0  0  0  0  0  0  0
   25.1869  -20.5641  -12.1749 C   0  0  2  0  0  0  0  0  0  0  0  0
   26.1659  -19.7931  -12.9437 N   0  0  0  0  0  0  0  0  0  0  0  0
   23.8530  -20.5035  -12.7494 C   0  0  0  0  0  0  0  0  0  0  0  0
   23.4660  -19.4406  -13.2992 O   0  0  0  0  0  0  0  0  0  0  0  0
   22.9137  -21.5731  -12.7439 N   0  0  0  0  0  0  0  0  0  0  0  0
   21.7518  -21.6436  -13.6111 C   0  0  1  0  0  0  0  0  0  0  0  0
   21.6305  -22.9153  -14.3662 C   0  0  0  0  0  0  0  0  0  0  0  0
   20.4625  -23.0633  -15.2709 C   0  0  0  0  0  0  0  0  0  0  0  0
   20.4123  -24.3331  -16.0508 C   0  0  0  0  0  0  0  0  0  0  0  0
   19.2602  -25.1808  -15.5048 C   0  0  0  0  0  0  0  0  0  0  0  0
   19.0832  -26.2875  -16.3966 N   0  0  0  0  0  0  0  0  0  0  0  0
   20.5704  -21.2714  -12.7938 C   0  0  0  0  0  0  0  0  0  0  0  0
   20.5055  -21.5375  -11.4099 O   0  0  0  0  0  0  0  0  0  0  0  0
   19.5614  -20.6985  -13.2801 O   0  0  0  0  0  0  0  0  0  0  0  0
  2  1  1  6
  2  3  1  0
  4  2  1  0
  4  5  2  0
  7  6  1  1
  7  9  1  0
  8  7  1  0
 10  9  1  1
 10 12  1  0
 10 11  1  0
 11  4  1  0
 12 14  1  0
 13 12  2  0
 14 15  1  0
 15 21  1  0
 15 16  1  1
 17 16  1  0
 18 17  1  0
 19 18  1  0
 20 19  1  0
 21 23  2  0
 21 22  1  0
M  END
$$$$
