ALK.pdb
     RDKit          3D

 23 22  0  0  1  0  0  0  0  0999 V2000
   22.1835  -14.2116  -18.8164 C   0  0  0  0  0  0  0  0  0  0  0  0
   22.3504  -12.7642  -19.2192 C   0  0  2  0  0  0  0  0  0  0  0  0
   23.4118  -12.5658  -20.1548 N   0  0  0  0  0  0  0  0  0  0  0  0
   22.4651  -11.8687  -18.0513 C   0  0  0  0  0  0  0  0  0  0  0  0
   21.5844  -11.9661  -17.1471 O   0  0  0  0  0  0  0  0  0  0  0  0
   25.4499  -11.0522  -14.6749 C   0  0  0  0  0  0  0  0  0  0  0  0
   25.8607  -10.6600  -16.1184 C   0  0  2  0  0  0  0  0  0  0  0  0
   27.3120  -10.1957  -15.9375 C   0  0  0  0  0  0  0  0  0  0  0  0
   24.9327   -9.5611  -16.4995 C   0  0  0  0  0  0  0  0  0  0  0  0
   23.5167   -9.9385  -16.7814 C   0  0  2  0  0  0  0  0  0  0  0  0
   23.4755  -10.9188  -17.8683 N   0  0  0  0  0  0  0  0  0  0  0  0
   22.6753   -8.7818  -17.0406 C   0  0  0  0  0  0  0  0  0  0  0  0
   22.8880   -8.0813  -18.0632 O   0  0  0  0  0  0  0  0  0  0  0  0
   21.5985   -8.3552  -16.2131 N   0  0  0  0  0  0  0  0  0  0  0  0
   20.7329   -7.2300  -16.5155 C   0  0  1  0  0  0  0  0  0  0  0  0
   19.3241   -7.6022  -16.7963 C   0  0  0  0  0  0  0  0  0  0  0  0
   18.4117   -6.5246  -17.2557 C   0  0  0  0  0  0  0  0  0  0  0  0
   16.9807   -6.9161  -17.4048 C   0  0  0  0  0  0  0  0  0  0  0  0
   16.8720   -7.8763  -18.5922 C   0  0  0  0  0  0  0  0  0  0  0  0
   15.5095   -8.3111  -18.6676 N   0  0  0  0  0  0  0  0  0  0  0  0
   20.9254   -6.2261  -15.4397 C   0  0  0  0  0  0  0  0  0  0  0  0
   20.5808   -4.8692  -15.6136 O   0  0  0  0  0  0  0  0  0  0  0  0
   21.4027   -6.5206  -14.3135 O   0  0  0  0  0  0  0  0  0  0  0  0
  2  1  1  1
  2  3  1  0
  4  2  1  0
  4  5  2  0
  7  6  1  1
  7  9  1  0
  8  7  1  0
 10  9  1  6
 10 12  1  0
 10 11  1  0
 11  4  1  0
 12 14  1  0
 13 12  2  0
 14 15  1  0
 15 21  1  0
 15 16  1  1
 17 16  1  0
 18 17  1  0
 19 18  1  0
 20 19  1  0
 21 23  2  0
 21 22  1  0
M  END
$$$$
