ALK.pdb
     RDKit          3D

 23 22  0  0  1  0  0  0  0  0999 V2000
   27.2745  -19.3630  -16.3284 C   0  0  0  0  0  0  0  0  0  0  0  0
   27.6578  -20.4523  -15.3530 C   0  0  2  0  0  0  0  0  0  0  0  0
   28.4238  -21.4961  -15.9572 N   0  0  0  0  0  0  0  0  0  0  0  0
   26.4924  -20.9757  -14.6134 C   0  0  0  0  0  0  0  0  0  0  0  0
   25.9473  -22.0328  -15.0471 O   0  0  0  0  0  0  0  0  0  0  0  0
   26.0671  -22.1905  -10.1253 C   0  0  0  0  0  0  0  0  0  0  0  0
   26.1449  -20.6871  -10.4993 C   0  0  2  0  0  0  0  0  0  0  0  0
   26.1547  -20.0020   -9.1263 C   0  0  0  0  0  0  0  0  0  0  0  0
   24.9091  -20.4192  -11.2836 C   0  0  0  0  0  0  0  0  0  0  0  0
   24.8572  -20.9647  -12.6717 C   0  0  2  0  0  0  0  0  0  0  0  0
   25.9441  -20.3904  -13.4673 N   0  0  0  0  0  0  0  0  0  0  0  0
   23.5550  -20.7818  -13.2913 C   0  0  0  0  0  0  0  0  0  0  0  0
   23.2458  -19.6546  -13.7555 O   0  0  0  0  0  0  0  0  0  0  0  0
   22.5650  -21.7962  -13.4223 N   0  0  0  0  0  0  0  0  0  0  0  0
   21.3222  -21.6341  -14.1546 C   0  0  1  0  0  0  0  0  0  0  0  0
   20.8268  -22.8761  -14.7980 C   0  0  0  0  0  0  0  0  0  0  0  0
   19.5173  -22.8086  -15.4948 C   0  0  0  0  0  0  0  0  0  0  0  0
   19.0515  -24.0846  -16.1096 C   0  0  0  0  0  0  0  0  0  0  0  0
   17.7254  -23.8114  -16.8242 C   0  0  0  0  0  0  0  0  0  0  0  0
   17.4564  -24.9346  -17.6711 N   0  0  0  0  0  0  0  0  0  0  0  0
   20.3620  -20.9592  -13.2463 C   0  0  0  0  0  0  0  0  0  0  0  0
   20.4486  -21.0810  -11.8435 O   0  0  0  0  0  0  0  0  0  0  0  0
   19.4191  -20.2406  -13.6674 O   0  0  0  0  0  0  0  0  0  0  0  0
  2  1  1  6
  2  3  1  0
  4  2  1  0
  4  5  2  0
  7  6  1  1
  7  9  1  0
  8  7  1  0
 10  9  1  1
 10 12  1  0
 10 11  1  0
 11  4  1  0
 12 14  1  0
 13 12  2  0
 14 15  1  0
 15 21  1  0
 15 16  1  1
 17 16  1  0
 18 17  1  0
 19 18  1  0
 20 19  1  0
 21 23  2  0
 21 22  1  0
M  END
$$$$
