ALK.pdb
     RDKit          3D

 23 22  0  0  1  0  0  0  0  0999 V2000
   19.2022  -11.1971  -21.0131 C   0  0  0  0  0  0  0  0  0  0  0  0
   19.6660  -12.1198  -19.9093 C   0  0  2  0  0  0  0  0  0  0  0  0
   18.9304  -13.3436  -19.8611 N   0  0  0  0  0  0  0  0  0  0  0  0
   19.7074  -11.4449  -18.5971 C   0  0  0  0  0  0  0  0  0  0  0  0
   18.6202  -11.3358  -17.9576 O   0  0  0  0  0  0  0  0  0  0  0  0
   23.9803   -9.9074  -14.4882 C   0  0  0  0  0  0  0  0  0  0  0  0
   22.4799   -9.6773  -14.8076 C   0  0  2  0  0  0  0  0  0  0  0  0
   21.7783  -10.3820  -13.6389 C   0  0  0  0  0  0  0  0  0  0  0  0
   22.2567  -10.3445  -16.1187 C   0  0  0  0  0  0  0  0  0  0  0  0
   20.8961  -10.2189  -16.7188 C   0  0  2  0  0  0  0  0  0  0  0  0
   20.8596  -10.9158  -18.0061 N   0  0  0  0  0  0  0  0  0  0  0  0
   20.4600   -8.8360  -16.8201 C   0  0  0  0  0  0  0  0  0  0  0  0
   20.9146   -8.1119  -17.7425 O   0  0  0  0  0  0  0  0  0  0  0  0
   19.5362   -8.2060  -15.9392 N   0  0  0  0  0  0  0  0  0  0  0  0
   19.1196   -6.8198  -16.0483 C   0  0  1  0  0  0  0  0  0  0  0  0
   17.6508   -6.6296  -16.1394 C   0  0  0  0  0  0  0  0  0  0  0  0
   17.1401   -5.2355  -16.1151 C   0  0  0  0  0  0  0  0  0  0  0  0
   15.6714   -5.0869  -16.3250 C   0  0  0  0  0  0  0  0  0  0  0  0
   15.3384   -3.5926  -16.3122 C   0  0  0  0  0  0  0  0  0  0  0  0
   13.9162   -3.4701  -16.4288 N   0  0  0  0  0  0  0  0  0  0  0  0
   19.7937   -6.0714  -14.9584 C   0  0  0  0  0  0  0  0  0  0  0  0
   19.8185   -6.5466  -13.6303 O   0  0  0  0  0  0  0  0  0  0  0  0
   20.3819   -4.9759  -15.1497 O   0  0  0  0  0  0  0  0  0  0  0  0
  2  1  1  6
  2  3  1  0
  4  2  1  0
  4  5  2  0
  7  6  1  1
  7  9  1  0
  8  7  1  0
 10  9  1  6
 10 12  1  0
 10 11  1  0
 11  4  1  0
 12 14  1  0
 13 12  2  0
 14 15  1  0
 15 21  1  0
 15 16  1  1
 17 16  1  0
 18 17  1  0
 19 18  1  0
 20 19  1  0
 21 23  2  0
 21 22  1  0
M  END
$$$$
