ALK.pdb
     RDKit          3D

 23 22  0  0  1  0  0  0  0  0999 V2000
   21.0604  -19.1729  -10.8043 C   0  0  0  0  0  0  0  0  0  0  0  0
   21.8516  -20.4603  -10.7653 C   0  0  2  0  0  0  0  0  0  0  0  0
   21.5659  -21.2543   -9.6124 N   0  0  0  0  0  0  0  0  0  0  0  0
   23.2999  -20.2318  -10.9370 C   0  0  0  0  0  0  0  0  0  0  0  0
   23.6610  -19.3476  -11.7681 O   0  0  0  0  0  0  0  0  0  0  0  0
   26.3959  -18.8525   -8.0260 C   0  0  0  0  0  0  0  0  0  0  0  0
   25.9348  -20.3290   -7.9115 C   0  0  2  0  0  0  0  0  0  0  0  0
   26.6330  -20.7978   -6.6279 C   0  0  0  0  0  0  0  0  0  0  0  0
   26.4507  -20.9918   -9.1397 C   0  0  0  0  0  0  0  0  0  0  0  0
   25.7416  -20.6931  -10.4183 C   0  0  2  0  0  0  0  0  0  0  0  0
   24.3050  -20.9198  -10.2492 N   0  0  0  0  0  0  0  0  0  0  0  0
   26.2941  -21.4286  -11.5439 C   0  0  0  0  0  0  0  0  0  0  0  0
   26.4081  -22.6787  -11.4676 O   0  0  0  0  0  0  0  0  0  0  0  0
   26.7341  -20.8419  -12.7640 N   0  0  0  0  0  0  0  0  0  0  0  0
   26.3683  -21.3278  -14.0820 C   0  0  1  0  0  0  0  0  0  0  0  0
   24.9120  -21.5420  -14.2706 C   0  0  0  0  0  0  0  0  0  0  0  0
   24.4603  -22.0325  -15.5973 C   0  0  0  0  0  0  0  0  0  0  0  0
   22.9852  -22.1777  -15.7591 C   0  0  0  0  0  0  0  0  0  0  0  0
   22.7097  -22.6726  -17.1814 C   0  0  0  0  0  0  0  0  0  0  0  0
   21.2889  -22.7735  -17.3316 N   0  0  0  0  0  0  0  0  0  0  0  0
   27.0158  -20.4348  -15.0748 C   0  0  0  0  0  0  0  0  0  0  0  0
   27.6354  -20.9365  -16.2387 O   0  0  0  0  0  0  0  0  0  0  0  0
   27.0509  -19.1842  -14.9421 O   0  0  0  0  0  0  0  0  0  0  0  0
  2  1  1  1
  2  3  1  0
  4  2  1  0
  4  5  2  0
  7  6  1  6
  7  9  1  0
  8  7  1  0
 10  9  1  1
 10 12  1  0
 10 11  1  0
 11  4  1  0
 12 14  1  0
 13 12  2  0
 14 15  1  0
 15 21  1  0
 15 16  1  1
 17 16  1  0
 18 17  1  0
 19 18  1  0
 20 19  1  0
 21 23  2  0
 21 22  1  0
M  END
$$$$
