ALK.pdb
     RDKit          3D

 23 22  0  0  1  0  0  0  0  0999 V2000
   16.3014  -12.9663  -17.6333 C   0  0  0  0  0  0  0  0  0  0  0  0
   17.7226  -13.4793  -17.5885 C   0  0  2  0  0  0  0  0  0  0  0  0
   17.8016  -14.8741  -17.2893 N   0  0  0  0  0  0  0  0  0  0  0  0
   18.5806  -12.6714  -16.6995 C   0  0  0  0  0  0  0  0  0  0  0  0
   18.1094  -12.3359  -15.5733 O   0  0  0  0  0  0  0  0  0  0  0  0
   23.2416  -10.4083  -14.7501 C   0  0  0  0  0  0  0  0  0  0  0  0
   22.9974  -11.9157  -15.0222 C   0  0  2  0  0  0  0  0  0  0  0  0
   24.4189  -12.4486  -15.2465 C   0  0  0  0  0  0  0  0  0  0  0  0
   22.1521  -11.9560  -16.2460 C   0  0  0  0  0  0  0  0  0  0  0  0
   20.7440  -11.4805  -16.1116 C   0  0  2  0  0  0  0  0  0  0  0  0
   19.8775  -12.2478  -17.0084 N   0  0  0  0  0  0  0  0  0  0  0  0
   20.6217  -10.0456  -16.3096 C   0  0  0  0  0  0  0  0  0  0  0  0
   20.8913   -9.5532  -17.4350 O   0  0  0  0  0  0  0  0  0  0  0  0
   20.2129   -9.1169  -15.3113 N   0  0  0  0  0  0  0  0  0  0  0  0
   20.0148   -7.6985  -15.5480 C   0  0  1  0  0  0  0  0  0  0  0  0
   18.6507   -7.2110  -15.2261 C   0  0  0  0  0  0  0  0  0  0  0  0
   17.6082   -7.3584  -16.2731 C   0  0  0  0  0  0  0  0  0  0  0  0
   16.2349   -6.9359  -15.8747 C   0  0  0  0  0  0  0  0  0  0  0  0
   15.3047   -7.1551  -17.0707 C   0  0  0  0  0  0  0  0  0  0  0  0
   13.9672   -6.9035  -16.6243 N   0  0  0  0  0  0  0  0  0  0  0  0
   21.1247   -6.9812  -14.8727 C   0  0  0  0  0  0  0  0  0  0  0  0
   21.4533   -5.6462  -15.1890 O   0  0  0  0  0  0  0  0  0  0  0  0
   21.8354   -7.5144  -13.9820 O   0  0  0  0  0  0  0  0  0  0  0  0
  2  1  1  1
  2  3  1  0
  4  2  1  0
  4  5  2  0
  7  6  1  6
  7  9  1  0
  8  7  1  0
 10  9  1  6
 10 12  1  0
 10 11  1  0
 11  4  1  0
 12 14  1  0
 13 12  2  0
 14 15  1  0
 15 21  1  0
 15 16  1  1
 17 16  1  0
 18 17  1  0
 19 18  1  0
 20 19  1  0
 21 23  2  0
 21 22  1  0
M  END
$$$$
