ALK.pdb
     RDKit          3D

 23 22  0  0  1  0  0  0  0  0999 V2000
   27.9365  -19.3401  -15.7039 C   0  0  0  0  0  0  0  0  0  0  0  0
   28.1914  -20.4428  -14.7018 C   0  0  2  0  0  0  0  0  0  0  0  0
   28.8378  -21.5794  -15.2775 N   0  0  0  0  0  0  0  0  0  0  0  0
   26.9716  -20.8152  -13.9583 C   0  0  0  0  0  0  0  0  0  0  0  0
   26.2262  -21.7068  -14.4606 O   0  0  0  0  0  0  0  0  0  0  0  0
   25.4133  -22.2742   -9.4481 C   0  0  0  0  0  0  0  0  0  0  0  0
   26.2646  -20.9934   -9.6506 C   0  0  2  0  0  0  0  0  0  0  0  0
   26.3410  -20.4159   -8.2310 C   0  0  0  0  0  0  0  0  0  0  0  0
   25.4766  -20.1496  -10.5893 C   0  0  0  0  0  0  0  0  0  0  0  0
   25.3683  -20.6263  -11.9993 C   0  0  2  0  0  0  0  0  0  0  0  0
   26.5769  -20.2560  -12.7384 N   0  0  0  0  0  0  0  0  0  0  0  0
   24.1529  -20.1644  -12.6492 C   0  0  0  0  0  0  0  0  0  0  0  0
   24.0387  -18.9489  -12.9511 O   0  0  0  0  0  0  0  0  0  0  0  0
   23.0430  -20.9905  -12.9839 N   0  0  0  0  0  0  0  0  0  0  0  0
   21.9027  -20.5483  -13.7657 C   0  0  1  0  0  0  0  0  0  0  0  0
   21.8366  -21.1283  -15.1300 C   0  0  0  0  0  0  0  0  0  0  0  0
   20.6935  -20.7263  -15.9881 C   0  0  0  0  0  0  0  0  0  0  0  0
   20.5983  -21.4286  -17.2999 C   0  0  0  0  0  0  0  0  0  0  0  0
   19.4385  -20.8115  -18.0862 C   0  0  0  0  0  0  0  0  0  0  0  0
   19.3168  -21.5413  -19.3125 N   0  0  0  0  0  0  0  0  0  0  0  0
   20.6931  -20.7460  -12.9289 C   0  0  0  0  0  0  0  0  0  0  0  0
   20.7204  -21.5140  -11.7459 O   0  0  0  0  0  0  0  0  0  0  0  0
   19.5769  -20.2435  -13.2193 O   0  0  0  0  0  0  0  0  0  0  0  0
  2  1  1  6
  2  3  1  0
  4  2  1  0
  4  5  2  0
  7  6  1  1
  7  9  1  0
  8  7  1  0
 10  9  1  1
 10 12  1  0
 10 11  1  0
 11  4  1  0
 12 14  1  0
 13 12  2  0
 14 15  1  0
 15 21  1  0
 15 16  1  6
 17 16  1  0
 18 17  1  0
 19 18  1  0
 20 19  1  0
 21 23  2  0
 21 22  1  0
M  END
$$$$
