ALK.pdb
     RDKit          3D

 23 22  0  0  1  0  0  0  0  0999 V2000
   15.2479  -25.2528  -12.4769 C   0  0  0  0  0  0  0  0  0  0  0  0
   15.7209  -24.5045  -11.2515 C   0  0  2  0  0  0  0  0  0  0  0  0
   16.6231  -23.4412  -11.5626 N   0  0  0  0  0  0  0  0  0  0  0  0
   16.2639  -25.4092  -10.2192 C   0  0  0  0  0  0  0  0  0  0  0  0
   15.4392  -26.0887   -9.5403 O   0  0  0  0  0  0  0  0  0  0  0  0
   19.1968  -28.9776  -10.3100 C   0  0  0  0  0  0  0  0  0  0  0  0
   19.7590  -27.5500  -10.5379 C   0  0  2  0  0  0  0  0  0  0  0  0
   21.2343  -27.8205  -10.8621 C   0  0  0  0  0  0  0  0  0  0  0  0
   19.5591  -26.8442   -9.2434 C   0  0  0  0  0  0  0  0  0  0  0  0
   18.1618  -26.4526   -8.8951 C   0  0  2  0  0  0  0  0  0  0  0  0
   17.6236  -25.5725   -9.9342 N   0  0  0  0  0  0  0  0  0  0  0  0
   18.0633  -25.8724   -7.5659 C   0  0  0  0  0  0  0  0  0  0  0  0
   18.0385  -24.6214   -7.4394 O   0  0  0  0  0  0  0  0  0  0  0  0
   17.9921  -26.6169   -6.3547 N   0  0  0  0  0  0  0  0  0  0  0  0
   17.6449  -26.0472   -5.0656 C   0  0  1  0  0  0  0  0  0  0  0  0
   16.3588  -25.3070   -5.0521 C   0  0  0  0  0  0  0  0  0  0  0  0
   15.9424  -24.6851   -3.7697 C   0  0  0  0  0  0  0  0  0  0  0  0
   14.7273  -23.8238   -3.8395 C   0  0  0  0  0  0  0  0  0  0  0  0
   14.5030  -23.2056   -2.4570 C   0  0  0  0  0  0  0  0  0  0  0  0
   13.3803  -22.3224   -2.5602 N   0  0  0  0  0  0  0  0  0  0  0  0
   17.7683  -27.1306   -4.0589 C   0  0  0  0  0  0  0  0  0  0  0  0
   18.2645  -26.8908   -2.7602 O   0  0  0  0  0  0  0  0  0  0  0  0
   17.4391  -28.3210   -4.2986 O   0  0  0  0  0  0  0  0  0  0  0  0
  2  1  1  6
  2  3  1  0
  4  2  1  0
  4  5  2  0
  7  6  1  1
  7  9  1  0
  8  7  1  0
 10  9  1  6
 10 12  1  0
 10 11  1  0
 11  4  1  0
 12 14  1  0
 13 12  2  0
 14 15  1  0
 15 21  1  0
 15 16  1  6
 17 16  1  0
 18 17  1  0
 19 18  1  0
 20 19  1  0
 21 23  2  0
 21 22  1  0
M  END
$$$$
