ALK.pdb
     RDKit          3D

 23 22  0  0  1  0  0  0  0  0999 V2000
   20.2968  -10.1324  -20.1098 C   0  0  0  0  0  0  0  0  0  0  0  0
   21.2304  -11.1071  -19.4290 C   0  0  2  0  0  0  0  0  0  0  0  0
   20.6476  -12.3982  -19.2428 N   0  0  0  0  0  0  0  0  0  0  0  0
   21.7883  -10.5637  -18.1750 C   0  0  0  0  0  0  0  0  0  0  0  0
   21.0006  -10.4215  -17.1942 O   0  0  0  0  0  0  0  0  0  0  0  0
   27.0846  -10.7406  -15.6132 C   0  0  0  0  0  0  0  0  0  0  0  0
   25.5620  -10.5151  -15.4213 C   0  0  2  0  0  0  0  0  0  0  0  0
   25.0270  -11.9471  -15.2877 C   0  0  0  0  0  0  0  0  0  0  0  0
   25.1127   -9.8308  -16.6639 C   0  0  0  0  0  0  0  0  0  0  0  0
   23.6536   -9.5433  -16.7882 C   0  0  2  0  0  0  0  0  0  0  0  0
   23.1243  -10.1934  -17.9887 N   0  0  0  0  0  0  0  0  0  0  0  0
   23.3636   -8.1194  -16.7504 C   0  0  0  0  0  0  0  0  0  0  0  0
   23.4184   -7.4505  -17.8140 O   0  0  0  0  0  0  0  0  0  0  0  0
   23.0137   -7.3895  -15.5795 N   0  0  0  0  0  0  0  0  0  0  0  0
   22.6227   -5.9916  -15.5753 C   0  0  1  0  0  0  0  0  0  0  0  0
   21.4706   -5.6778  -16.4563 C   0  0  0  0  0  0  0  0  0  0  0  0
   20.9090   -4.3052  -16.3830 C   0  0  0  0  0  0  0  0  0  0  0  0
   19.7197   -4.0520  -17.2459 C   0  0  0  0  0  0  0  0  0  0  0  0
   19.2374   -2.6230  -16.9828 C   0  0  0  0  0  0  0  0  0  0  0  0
   18.1543   -2.3643  -17.8835 N   0  0  0  0  0  0  0  0  0  0  0  0
   22.4717   -5.5820  -14.1570 C   0  0  0  0  0  0  0  0  0  0  0  0
   22.2176   -6.5175  -13.1321 O   0  0  0  0  0  0  0  0  0  0  0  0
   22.5617   -4.3842  -13.7828 O   0  0  0  0  0  0  0  0  0  0  0  0
  2  1  1  1
  2  3  1  0
  4  2  1  0
  4  5  2  0
  7  6  1  6
  7  9  1  0
  8  7  1  0
 10  9  1  6
 10 12  1  0
 10 11  1  0
 11  4  1  0
 12 14  1  0
 13 12  2  0
 14 15  1  0
 15 21  1  0
 15 16  1  6
 17 16  1  0
 18 17  1  0
 19 18  1  0
 20 19  1  0
 21 23  2  0
 21 22  1  0
M  END
$$$$
