ALK.pdb
     RDKit          3D

 23 22  0  0  1  0  0  0  0  0999 V2000
   21.9612  -15.5692  -18.6029 C   0  0  0  0  0  0  0  0  0  0  0  0
   22.0272  -14.1023  -18.9618 C   0  0  2  0  0  0  0  0  0  0  0  0
   22.7739  -13.8542  -20.1543 N   0  0  0  0  0  0  0  0  0  0  0  0
   22.4909  -13.2711  -17.8334 C   0  0  0  0  0  0  0  0  0  0  0  0
   21.7908  -13.2685  -16.7785 O   0  0  0  0  0  0  0  0  0  0  0  0
   27.5715  -10.3513  -16.0671 C   0  0  0  0  0  0  0  0  0  0  0  0
   26.0348  -10.3071  -15.8608 C   0  0  2  0  0  0  0  0  0  0  0  0
   25.8890  -10.6369  -14.3692 C   0  0  0  0  0  0  0  0  0  0  0  0
   25.4937  -11.3662  -16.7549 C   0  0  0  0  0  0  0  0  0  0  0  0
   24.0098  -11.5161  -16.8054 C   0  0  2  0  0  0  0  0  0  0  0  0
   23.6477  -12.4847  -17.8420 N   0  0  0  0  0  0  0  0  0  0  0  0
   23.3289  -10.2423  -16.9693 C   0  0  0  0  0  0  0  0  0  0  0  0
   23.4534   -9.6110  -18.0499 O   0  0  0  0  0  0  0  0  0  0  0  0
   22.5088   -9.6236  -15.9839 N   0  0  0  0  0  0  0  0  0  0  0  0
   21.7498   -8.4056  -16.2011 C   0  0  1  0  0  0  0  0  0  0  0  0
   20.4039   -8.6219  -16.7876 C   0  0  0  0  0  0  0  0  0  0  0  0
   19.5405   -7.4283  -16.9739 C   0  0  0  0  0  0  0  0  0  0  0  0
   18.1702   -7.7029  -17.4937 C   0  0  0  0  0  0  0  0  0  0  0  0
   17.4646   -6.3609  -17.7055 C   0  0  0  0  0  0  0  0  0  0  0  0
   16.1543   -6.6415  -18.2111 N   0  0  0  0  0  0  0  0  0  0  0  0
   21.7767   -7.6387  -14.9308 C   0  0  0  0  0  0  0  0  0  0  0  0
   21.6131   -6.2378  -14.9002 O   0  0  0  0  0  0  0  0  0  0  0  0
   21.9440   -8.1862  -13.8105 O   0  0  0  0  0  0  0  0  0  0  0  0
  2  1  1  1
  2  3  1  0
  4  2  1  0
  4  5  2  0
  7  6  1  6
  7  9  1  0
  8  7  1  0
 10  9  1  6
 10 12  1  0
 10 11  1  0
 11  4  1  0
 12 14  1  0
 13 12  2  0
 14 15  1  0
 15 21  1  0
 15 16  1  1
 17 16  1  0
 18 17  1  0
 19 18  1  0
 20 19  1  0
 21 23  2  0
 21 22  1  0
M  END
$$$$
