KNE.pdb
     RDKit          3D

 27 26  0  0  1  0  0  0  0  0999 V2000
   26.8372  -19.2211  -14.7602 N   0  0  0  0  0  0  0  0  0  0  0  0
   26.2655  -20.4253  -15.2742 C   0  0  1  0  0  0  0  0  0  0  0  0
   27.2999  -21.4429  -15.6424 C   0  0  0  0  0  0  0  0  0  0  0  0
   28.2274  -20.9626  -16.7095 C   0  0  0  0  0  0  0  0  0  0  0  0
   27.6133  -19.8706  -17.5618 C   0  0  0  0  0  0  0  0  0  0  0  0
   28.6079  -19.4349  -18.6317 C   0  0  0  0  0  0  0  0  0  0  0  0
   28.0378  -18.3106  -19.3543 N   0  0  0  0  0  0  0  0  0  0  0  0
   25.3320  -21.0488  -14.2786 C   0  0  0  0  0  0  0  0  0  0  0  0
   24.8423  -22.1815  -14.4607 O   0  0  0  0  0  0  0  0  0  0  0  0
   26.2105  -22.1617  -10.7616 N   0  0  0  0  0  0  0  0  0  0  0  0
   25.7360  -20.9320  -10.1446 C   0  0  0  0  0  0  0  0  0  0  0  0
   26.3514  -20.6119   -9.1175 O   0  0  0  0  0  0  0  0  0  0  0  0
   24.6356  -20.2900  -10.8223 C   0  0  0  0  0  0  0  0  0  0  0  0
   24.0812  -20.8575  -12.0771 C   0  0  2  0  0  0  0  0  0  0  0  0
   25.0137  -20.3303  -13.1254 N   0  0  0  0  0  0  0  0  0  0  0  0
   22.7550  -20.3812  -12.4931 C   0  0  0  0  0  0  0  0  0  0  0  0
   22.6347  -19.1705  -12.8646 O   0  0  0  0  0  0  0  0  0  0  0  0
   21.5538  -21.1008  -12.5461 N   0  0  0  0  0  0  0  0  0  0  0  0
   20.3263  -20.6564  -13.1380 C   0  0  1  0  0  0  0  0  0  0  0  0
   20.3652  -20.0536  -14.4715 C   0  0  0  0  0  0  0  0  0  0  0  0
   20.9586  -20.8915  -15.5720 C   0  0  0  0  0  0  0  0  0  0  0  0
   20.5563  -20.4652  -16.9303 C   0  0  0  0  0  0  0  0  0  0  0  0
   19.7545  -19.5471  -17.1908 O   0  0  0  0  0  0  0  0  0  0  0  0
   19.2383  -21.6605  -13.0512 C   0  0  0  0  0  0  0  0  0  0  0  0
   17.9351  -21.2356  -13.2948 O   0  0  0  0  0  0  0  0  0  0  0  0
   21.1019  -21.1260  -18.0469 O   0  0  0  0  0  0  0  0  0  0  0  0
   19.4381  -22.8649  -12.7722 O   0  0  0  0  0  0  0  0  0  0  0  0
  2  1  1  1
  2  8  1  0
  3  2  1  0
  4  3  1  0
  5  4  1  0
  6  5  1  0
  7  6  1  0
  8  9  2  0
  8 15  1  0
 10 11  1  0
 11 12  2  0
 13 11  1  0
 14 16  1  0
 14 13  1  1
 15 14  1  0
 16 18  1  0
 17 16  2  0
 18 19  1  0
 19 24  1  0
 19 20  1  6
 20 21  1  0
 22 21  1  0
 22 26  1  0
 23 22  2  0
 24 27  2  0
 24 25  1  0
M  END
$$$$
