KNE.pdb
     RDKit          3D

 27 26  0  0  1  0  0  0  0  0999 V2000
   17.2714   -9.1156  -17.1100 N   0  0  0  0  0  0  0  0  0  0  0  0
   16.8971   -9.0507  -15.7327 C   0  0  1  0  0  0  0  0  0  0  0  0
   16.5092  -10.3856  -15.1773 C   0  0  0  0  0  0  0  0  0  0  0  0
   16.8731  -11.5153  -16.0836 C   0  0  0  0  0  0  0  0  0  0  0  0
   16.4030  -12.8555  -15.5555 C   0  0  0  0  0  0  0  0  0  0  0  0
   16.8681  -13.9665  -16.4899 C   0  0  0  0  0  0  0  0  0  0  0  0
   16.4604  -15.2406  -15.9229 N   0  0  0  0  0  0  0  0  0  0  0  0
   18.0145   -8.5038  -14.8938 C   0  0  0  0  0  0  0  0  0  0  0  0
   18.1935   -8.8781  -13.7174 O   0  0  0  0  0  0  0  0  0  0  0  0
   22.6886   -6.8084  -13.7111 N   0  0  0  0  0  0  0  0  0  0  0  0
   22.1896   -8.1606  -13.9129 C   0  0  0  0  0  0  0  0  0  0  0  0
   22.9923   -9.0486  -13.5914 O   0  0  0  0  0  0  0  0  0  0  0  0
   20.8531   -8.2481  -14.4501 C   0  0  0  0  0  0  0  0  0  0  0  0
   20.0704   -7.0211  -14.7427 C   0  0  2  0  0  0  0  0  0  0  0  0
   18.8659   -7.5533  -15.4586 N   0  0  0  0  0  0  0  0  0  0  0  0
   20.6638   -6.0632  -15.6857 C   0  0  0  0  0  0  0  0  0  0  0  0
   20.8996   -6.4496  -16.8745 O   0  0  0  0  0  0  0  0  0  0  0  0
   21.0179   -4.7272  -15.4549 N   0  0  0  0  0  0  0  0  0  0  0  0
   20.6225   -3.5982  -16.2448 C   0  0  1  0  0  0  0  0  0  0  0  0
   19.2291   -3.4982  -16.6824 C   0  0  0  0  0  0  0  0  0  0  0  0
   18.8483   -2.2528  -17.4371 C   0  0  0  0  0  0  0  0  0  0  0  0
   17.4262   -2.2118  -17.8428 C   0  0  0  0  0  0  0  0  0  0  0  0
   16.5595   -1.4571  -17.3603 O   0  0  0  0  0  0  0  0  0  0  0  0
   21.0889   -2.3045  -15.6898 C   0  0  0  0  0  0  0  0  0  0  0  0
   21.4899   -1.3156  -16.5841 O   0  0  0  0  0  0  0  0  0  0  0  0
   16.9755   -3.0812  -18.8538 O   0  0  0  0  0  0  0  0  0  0  0  0
   21.1364   -2.0628  -14.4619 O   0  0  0  0  0  0  0  0  0  0  0  0
  2  1  1  6
  2  8  1  0
  3  2  1  0
  4  3  1  0
  5  4  1  0
  6  5  1  0
  7  6  1  0
  8  9  2  0
  8 15  1  0
 10 11  1  0
 11 12  2  0
 13 11  1  0
 14 16  1  0
 14 13  1  6
 15 14  1  0
 16 18  1  0
 17 16  2  0
 18 19  1  0
 19 24  1  0
 19 20  1  1
 20 21  1  0
 22 21  1  0
 22 26  1  0
 23 22  2  0
 24 27  2  0
 24 25  1  0
M  END
$$$$
