KNE.pdb
     RDKit          3D

 27 26  0  0  1  0  0  0  0  0999 V2000
   13.8113   -9.6845  -13.5542 N   0  0  0  0  0  0  0  0  0  0  0  0
   12.9323   -9.3176  -12.4894 C   0  0  1  0  0  0  0  0  0  0  0  0
   12.1691  -10.4844  -11.9442 C   0  0  0  0  0  0  0  0  0  0  0  0
   12.6181  -11.7871  -12.5197 C   0  0  0  0  0  0  0  0  0  0  0  0
   11.8887  -12.9693  -11.9145 C   0  0  0  0  0  0  0  0  0  0  0  0
   12.4409  -14.2653  -12.4968 C   0  0  0  0  0  0  0  0  0  0  0  0
   11.7679  -15.3793  -11.8510 N   0  0  0  0  0  0  0  0  0  0  0  0
   13.6880   -8.6853  -11.3578 C   0  0  0  0  0  0  0  0  0  0  0  0
   13.1362   -8.4155  -10.2721 O   0  0  0  0  0  0  0  0  0  0  0  0
   18.0680   -6.6997   -9.0395 N   0  0  0  0  0  0  0  0  0  0  0  0
   18.3718   -7.2365  -10.3576 C   0  0  0  0  0  0  0  0  0  0  0  0
   19.5680   -7.1562  -10.6724 O   0  0  0  0  0  0  0  0  0  0  0  0
   17.2417   -7.7705  -11.0786 C   0  0  0  0  0  0  0  0  0  0  0  0
   15.8885   -7.7832  -10.4680 C   0  0  2  0  0  0  0  0  0  0  0  0
   15.0413   -8.3980  -11.5407 N   0  0  0  0  0  0  0  0  0  0  0  0
   15.2635   -6.4787  -10.2098 C   0  0  0  0  0  0  0  0  0  0  0  0
   14.8623   -5.7916  -11.2023 O   0  0  0  0  0  0  0  0  0  0  0  0
   15.0319   -5.8589   -8.9747 N   0  0  0  0  0  0  0  0  0  0  0  0
   14.4300   -4.5737   -8.7722 C   0  0  1  0  0  0  0  0  0  0  0  0
   13.6316   -4.3522   -7.5653 C   0  0  0  0  0  0  0  0  0  0  0  0
   12.9082   -3.0359   -7.4690 C   0  0  0  0  0  0  0  0  0  0  0  0
   12.3261   -2.7706   -6.1350 C   0  0  0  0  0  0  0  0  0  0  0  0
   11.7088   -1.7380   -5.8093 O   0  0  0  0  0  0  0  0  0  0  0  0
   15.3698   -3.4473   -8.9897 C   0  0  0  0  0  0  0  0  0  0  0  0
   14.8347   -2.1760   -9.1779 O   0  0  0  0  0  0  0  0  0  0  0  0
   12.4591   -3.7398   -5.1231 O   0  0  0  0  0  0  0  0  0  0  0  0
   16.6142   -3.5873   -9.0100 O   0  0  0  0  0  0  0  0  0  0  0  0
  2  1  1  6
  2  8  1  0
  3  2  1  0
  4  3  1  0
  5  4  1  0
  6  5  1  0
  7  6  1  0
  8  9  2  0
  8 15  1  0
 10 11  1  0
 11 12  2  0
 13 11  1  0
 14 16  1  0
 14 13  1  6
 15 14  1  0
 16 18  1  0
 17 16  2  0
 18 19  1  0
 19 24  1  0
 19 20  1  1
 20 21  1  0
 22 21  1  0
 22 26  1  0
 23 22  2  0
 24 27  2  0
 24 25  1  0
M  END
$$$$
