KNE.pdb
     RDKit          3D

 27 26  0  0  1  0  0  0  0  0999 V2000
   22.6764  -25.1082  -16.4781 N   0  0  0  0  0  0  0  0  0  0  0  0
   23.5391  -25.2453  -15.3476 C   0  0  1  0  0  0  0  0  0  0  0  0
   24.9577  -24.8814  -15.6576 C   0  0  0  0  0  0  0  0  0  0  0  0
   25.0708  -23.6114  -16.4348 C   0  0  0  0  0  0  0  0  0  0  0  0
   26.4879  -23.3404  -16.8978 C   0  0  0  0  0  0  0  0  0  0  0  0
   27.0562  -22.1473  -16.1380 C   0  0  0  0  0  0  0  0  0  0  0  0
   28.3944  -21.8827  -16.6383 N   0  0  0  0  0  0  0  0  0  0  0  0
   23.0765  -24.3872  -14.2069 C   0  0  0  0  0  0  0  0  0  0  0  0
   23.7194  -24.3136  -13.1406 O   0  0  0  0  0  0  0  0  0  0  0  0
   23.5934  -21.0483  -13.4499 N   0  0  0  0  0  0  0  0  0  0  0  0
   22.3569  -20.5432  -14.0280 C   0  0  0  0  0  0  0  0  0  0  0  0
   22.4454  -19.3947  -14.4855 O   0  0  0  0  0  0  0  0  0  0  0  0
   21.2380  -21.4529  -13.9754 C   0  0  0  0  0  0  0  0  0  0  0  0
   21.3558  -22.7626  -13.2863 C   0  0  2  0  0  0  0  0  0  0  0  0
   21.8954  -23.6596  -14.3590 N   0  0  0  0  0  0  0  0  0  0  0  0
   20.1043  -23.4069  -12.8649 C   0  0  0  0  0  0  0  0  0  0  0  0
   19.4301  -24.0477  -13.7327 O   0  0  0  0  0  0  0  0  0  0  0  0
   19.5247  -23.4214  -11.5892 N   0  0  0  0  0  0  0  0  0  0  0  0
   18.2791  -24.0344  -11.2323 C   0  0  1  0  0  0  0  0  0  0  0  0
   18.0501  -24.4019   -9.8338 C   0  0  0  0  0  0  0  0  0  0  0  0
   18.9380  -25.4766   -9.2662 C   0  0  0  0  0  0  0  0  0  0  0  0
   18.7351  -25.7170   -7.8206 C   0  0  0  0  0  0  0  0  0  0  0  0
   17.9485  -25.0866   -7.0875 O   0  0  0  0  0  0  0  0  0  0  0  0
   17.0993  -23.3260  -11.7852 C   0  0  0  0  0  0  0  0  0  0  0  0
   17.3016  -22.0827  -12.3781 O   0  0  0  0  0  0  0  0  0  0  0  0
   19.4725  -26.7326   -7.1837 O   0  0  0  0  0  0  0  0  0  0  0  0
   15.9381  -23.7933  -11.7442 O   0  0  0  0  0  0  0  0  0  0  0  0
  2  1  1  6
  2  8  1  0
  3  2  1  0
  4  3  1  0
  5  4  1  0
  6  5  1  0
  7  6  1  0
  8  9  2  0
  8 15  1  0
 10 11  1  0
 11 12  2  0
 13 11  1  0
 14 16  1  0
 14 13  1  6
 15 14  1  0
 16 18  1  0
 17 16  2  0
 18 19  1  0
 19 24  1  0
 19 20  1  1
 20 21  1  0
 22 21  1  0
 22 26  1  0
 23 22  2  0
 24 27  2  0
 24 25  1  0
M  END
$$$$
