KNE.pdb
     RDKit          3D

 27 26  0  0  1  0  0  0  0  0999 V2000
   15.9522  -11.7545  -16.2323 N   0  0  0  0  0  0  0  0  0  0  0  0
   16.3139  -12.3206  -14.9713 C   0  0  1  0  0  0  0  0  0  0  0  0
   16.7913  -13.7344  -15.0899 C   0  0  0  0  0  0  0  0  0  0  0  0
   15.9871  -14.5354  -16.0602 C   0  0  0  0  0  0  0  0  0  0  0  0
   16.5132  -15.9471  -16.2217 C   0  0  0  0  0  0  0  0  0  0  0  0
   15.7418  -16.6584  -17.3275 C   0  0  0  0  0  0  0  0  0  0  0  0
   16.2502  -18.0149  -17.4391 N   0  0  0  0  0  0  0  0  0  0  0  0
   17.3944  -11.5179  -14.3081 C   0  0  0  0  0  0  0  0  0  0  0  0
   17.8882  -11.8618  -13.2156 O   0  0  0  0  0  0  0  0  0  0  0  0
   21.5541   -8.4008  -14.1048 N   0  0  0  0  0  0  0  0  0  0  0  0
   21.2593   -8.9575  -15.4168 C   0  0  0  0  0  0  0  0  0  0  0  0
   22.1706   -8.8113  -16.2440 O   0  0  0  0  0  0  0  0  0  0  0  0
   19.9653   -9.5838  -15.5414 C   0  0  0  0  0  0  0  0  0  0  0  0
   18.9932   -9.5484  -14.4199 C   0  0  2  0  0  0  0  0  0  0  0  0
   17.8469  -10.3603  -14.9426 N   0  0  0  0  0  0  0  0  0  0  0  0
   18.4004   -8.2438  -14.0950 C   0  0  0  0  0  0  0  0  0  0  0  0
   17.5116   -7.7712  -14.8727 O   0  0  0  0  0  0  0  0  0  0  0  0
   18.6821   -7.4126  -13.0027 N   0  0  0  0  0  0  0  0  0  0  0  0
   18.0957   -6.1310  -12.7409 C   0  0  1  0  0  0  0  0  0  0  0  0
   17.7538   -5.7818  -11.3609 C   0  0  0  0  0  0  0  0  0  0  0  0
   16.5762   -6.4989  -10.7571 C   0  0  0  0  0  0  0  0  0  0  0  0
   16.3508   -6.1805   -9.3301 C   0  0  0  0  0  0  0  0  0  0  0  0
   15.2383   -5.9992   -8.7980 O   0  0  0  0  0  0  0  0  0  0  0  0
   18.8154   -5.0135  -13.3986 C   0  0  0  0  0  0  0  0  0  0  0  0
   18.2402   -3.7467  -13.3503 O   0  0  0  0  0  0  0  0  0  0  0  0
   17.4584   -6.0641   -8.4695 O   0  0  0  0  0  0  0  0  0  0  0  0
   19.9101   -5.1571  -13.9898 O   0  0  0  0  0  0  0  0  0  0  0  0
  2  1  1  6
  2  8  1  0
  3  2  1  0
  4  3  1  0
  5  4  1  0
  6  5  1  0
  7  6  1  0
  8  9  2  0
  8 15  1  0
 10 11  1  0
 11 12  2  0
 13 11  1  0
 14 16  1  0
 14 13  1  6
 15 14  1  0
 16 18  1  0
 17 16  2  0
 18 19  1  0
 19 24  1  0
 19 20  1  1
 20 21  1  0
 22 21  1  0
 22 26  1  0
 23 22  2  0
 24 27  2  0
 24 25  1  0
M  END
$$$$
