KNE.pdb
     RDKit          3D

 27 26  0  0  1  0  0  0  0  0999 V2000
   25.3920  -21.9090  -10.3178 N   0  0  0  0  0  0  0  0  0  0  0  0
   25.7384  -20.5238  -10.3668 C   0  0  1  0  0  0  0  0  0  0  0  0
   26.9894  -20.2152   -9.6047 C   0  0  0  0  0  0  0  0  0  0  0  0
   26.9864  -20.7991   -8.2304 C   0  0  0  0  0  0  0  0  0  0  0  0
   26.9285  -19.7375   -7.1507 C   0  0  0  0  0  0  0  0  0  0  0  0
   28.2876  -19.6244   -6.4695 C   0  0  0  0  0  0  0  0  0  0  0  0
   28.2260  -18.5394   -5.5051 N   0  0  0  0  0  0  0  0  0  0  0  0
   25.9294  -20.0638  -11.7822 C   0  0  0  0  0  0  0  0  0  0  0  0
   26.2237  -18.8821  -12.0523 O   0  0  0  0  0  0  0  0  0  0  0  0
   28.4781  -19.5031  -14.0820 N   0  0  0  0  0  0  0  0  0  0  0  0
   28.4067  -20.8734  -14.5671 C   0  0  0  0  0  0  0  0  0  0  0  0
   29.5115  -21.3866  -14.7957 O   0  0  0  0  0  0  0  0  0  0  0  0
   27.0733  -21.4081  -14.7025 C   0  0  0  0  0  0  0  0  0  0  0  0
   25.8925  -20.6256  -14.2583 C   0  0  2  0  0  0  0  0  0  0  0  0
   25.7703  -20.9937  -12.8105 N   0  0  0  0  0  0  0  0  0  0  0  0
   24.5944  -20.9926  -14.8407 C   0  0  0  0  0  0  0  0  0  0  0  0
   24.2903  -22.2256  -14.9154 O   0  0  0  0  0  0  0  0  0  0  0  0
   23.5993  -20.1433  -15.3424 N   0  0  0  0  0  0  0  0  0  0  0  0
   22.1888  -20.3992  -15.3420 C   0  0  1  0  0  0  0  0  0  0  0  0
   21.5724  -20.9446  -14.1314 C   0  0  0  0  0  0  0  0  0  0  0  0
   20.0975  -21.2373  -14.2002 C   0  0  0  0  0  0  0  0  0  0  0  0
   19.5454  -21.8182  -12.9567 C   0  0  0  0  0  0  0  0  0  0  0  0
   18.7814  -21.2335  -12.1642 O   0  0  0  0  0  0  0  0  0  0  0  0
   21.3892  -19.2672  -15.8697 C   0  0  0  0  0  0  0  0  0  0  0  0
   22.0414  -18.0604  -16.1076 O   0  0  0  0  0  0  0  0  0  0  0  0
   19.8871  -23.1373  -12.6046 O   0  0  0  0  0  0  0  0  0  0  0  0
   20.1628  -19.3480  -16.1106 O   0  0  0  0  0  0  0  0  0  0  0  0
  2  1  1  6
  2  8  1  0
  3  2  1  0
  4  3  1  0
  5  4  1  0
  6  5  1  0
  7  6  1  0
  8  9  2  0
  8 15  1  0
 10 11  1  0
 11 12  2  0
 13 11  1  0
 14 16  1  0
 14 13  1  6
 15 14  1  0
 16 18  1  0
 17 16  2  0
 18 19  1  0
 19 24  1  0
 19 20  1  1
 20 21  1  0
 22 21  1  0
 22 26  1  0
 23 22  2  0
 24 27  2  0
 24 25  1  0
M  END
$$$$
