IAS.pdb
     RDKit          3D

 20 19  0  0  1  0  0  0  0  0999 V2000
    5.9419  -11.4430   27.2574 C   0  0  0  0  0  0  0  0  0  0  0  0
    5.6246  -12.7612   26.5991 C   0  0  0  0  0  0  0  0  0  0  0  0
    6.8088  -13.3441   25.8772 C   0  0  2  0  0  0  0  0  0  0  0  0
    7.4005  -12.3687   24.8942 C   0  0  0  0  0  0  0  0  0  0  0  0
    6.4208  -14.6531   25.2422 C   0  0  2  0  0  0  0  0  0  0  0  0
    5.9186  -15.5099   26.2982 N   0  0  0  0  0  0  0  0  0  0  0  0
    7.5132  -15.3264   24.5550 C   0  0  0  0  0  0  0  0  0  0  0  0
    8.3662  -15.9922   25.1877 O   0  0  0  0  0  0  0  0  0  0  0  0
    8.4214  -15.8499   20.9746 C   0  0  0  0  0  0  0  0  0  0  0  0
    8.6869  -15.9806   22.4452 C   0  0  2  0  0  0  0  0  0  0  0  0
    7.6342  -15.2414   23.1477 N   0  0  0  0  0  0  0  0  0  0  0  0
   10.0016  -15.4382   22.8448 C   0  0  0  0  0  0  0  0  0  0  0  0
   10.1626  -14.3756   23.4784 O   0  0  0  0  0  0  0  0  0  0  0  0
   12.9925  -17.1110   25.4868 O   0  0  0  0  0  0  0  0  0  0  0  0
   11.9136  -17.0080   24.6271 C   0  0  0  0  0  0  0  0  0  0  0  0
   12.3112  -16.3159   23.3274 C   0  0  2  0  0  0  0  0  0  0  0  0
   11.1654  -16.1787   22.4820 N   0  0  0  0  0  0  0  0  0  0  0  0
   13.3848  -17.1256   22.7206 C   0  0  0  0  0  0  0  0  0  0  0  0
   13.1336  -18.1250   22.0098 O   0  0  0  0  0  0  0  0  0  0  0  0
   14.7007  -16.7766   22.9389 O   0  0  0  0  0  0  0  0  0  0  0  0
  2  1  1  0
  3  2  1  0
  3  4  1  6
  5  7  1  0
  5  3  1  0
  5  6  1  1
  7 11  1  0
  8  7  2  0
 10  9  1  6
 10 12  1  0
 11 10  1  0
 12 13  2  0
 12 17  1  0
 14 15  1  0
 16 15  1  1
 16 18  1  0
 17 16  1  0
 18 20  1  0
 19 18  2  0
M  END
$$$$
