IAS.pdb
     RDKit          3D

 20 19  0  0  1  0  0  0  0  0999 V2000
    6.6031  -11.4641   27.5605 C   0  0  0  0  0  0  0  0  0  0  0  0
    6.0533  -12.6769   26.8546 C   0  0  0  0  0  0  0  0  0  0  0  0
    7.0772  -13.3476   25.9799 C   0  0  2  0  0  0  0  0  0  0  0  0
    7.7054  -12.3805   25.0115 C   0  0  0  0  0  0  0  0  0  0  0  0
    6.4588  -14.5398   25.2990 C   0  0  2  0  0  0  0  0  0  0  0  0
    6.0668  -15.4717   26.3380 N   0  0  0  0  0  0  0  0  0  0  0  0
    7.3440  -15.2118   24.3589 C   0  0  0  0  0  0  0  0  0  0  0  0
    8.1409  -16.1013   24.7397 O   0  0  0  0  0  0  0  0  0  0  0  0
    7.8947  -15.0107   20.6696 C   0  0  0  0  0  0  0  0  0  0  0  0
    8.1148  -15.6327   22.0168 C   0  0  2  0  0  0  0  0  0  0  0  0
    7.3217  -14.8710   22.9857 N   0  0  0  0  0  0  0  0  0  0  0  0
    9.5311  -15.6142   22.4366 C   0  0  0  0  0  0  0  0  0  0  0  0
   10.1445  -14.5912   22.8021 O   0  0  0  0  0  0  0  0  0  0  0  0
   11.0459  -18.1173   24.8080 O   0  0  0  0  0  0  0  0  0  0  0  0
   11.8239  -18.1947   23.6667 C   0  0  0  0  0  0  0  0  0  0  0  0
   11.6251  -16.9681   22.7823 C   0  0  2  0  0  0  0  0  0  0  0  0
   10.2455  -16.8486   22.4234 N   0  0  0  0  0  0  0  0  0  0  0  0
   12.5147  -17.1302   21.6166 C   0  0  0  0  0  0  0  0  0  0  0  0
   12.0618  -17.2851   20.4599 O   0  0  0  0  0  0  0  0  0  0  0  0
   13.8810  -17.1113   21.8007 O   0  0  0  0  0  0  0  0  0  0  0  0
  2  1  1  0
  3  2  1  0
  3  4  1  6
  5  7  1  0
  5  3  1  0
  5  6  1  1
  7 11  1  0
  8  7  2  0
 10  9  1  6
 10 12  1  0
 11 10  1  0
 12 13  2  0
 12 17  1  0
 14 15  1  0
 16 15  1  1
 16 18  1  0
 17 16  1  0
 18 20  1  0
 19 18  2  0
M  END
$$$$
