IAS.pdb
     RDKit          3D

 20 19  0  0  1  0  0  0  0  0999 V2000
    6.5858  -11.3540   27.4288 C   0  0  0  0  0  0  0  0  0  0  0  0
    5.9710  -12.5314   26.7165 C   0  0  0  0  0  0  0  0  0  0  0  0
    6.9646  -13.2703   25.8620 C   0  0  2  0  0  0  0  0  0  0  0  0
    7.6783  -12.3480   24.9093 C   0  0  0  0  0  0  0  0  0  0  0  0
    6.2801  -14.4165   25.1655 C   0  0  2  0  0  0  0  0  0  0  0  0
    5.7550  -15.2919   26.1948 N   0  0  0  0  0  0  0  0  0  0  0  0
    7.1503  -15.1796   24.2828 C   0  0  0  0  0  0  0  0  0  0  0  0
    7.8815  -16.0965   24.7255 O   0  0  0  0  0  0  0  0  0  0  0  0
    7.8092  -15.1813   20.6059 C   0  0  0  0  0  0  0  0  0  0  0  0
    8.0268  -15.6967   21.9978 C   0  0  2  0  0  0  0  0  0  0  0  0
    7.1879  -14.8988   22.8964 N   0  0  0  0  0  0  0  0  0  0  0  0
    9.4332  -15.5940   22.4380 C   0  0  0  0  0  0  0  0  0  0  0  0
   10.0363  -14.5180   22.6254 O   0  0  0  0  0  0  0  0  0  0  0  0
   10.9267  -19.0798   23.6992 O   0  0  0  0  0  0  0  0  0  0  0  0
   11.7633  -18.0190   23.9967 C   0  0  0  0  0  0  0  0  0  0  0  0
   11.5285  -16.8507   23.0448 C   0  0  2  0  0  0  0  0  0  0  0  0
   10.1502  -16.8060   22.6640 N   0  0  0  0  0  0  0  0  0  0  0  0
   12.4396  -17.0395   21.8999 C   0  0  0  0  0  0  0  0  0  0  0  0
   12.0101  -17.1607   20.7303 O   0  0  0  0  0  0  0  0  0  0  0  0
   13.8001  -17.0843   22.1185 O   0  0  0  0  0  0  0  0  0  0  0  0
  2  1  1  0
  3  2  1  0
  3  4  1  6
  5  7  1  0
  5  3  1  0
  5  6  1  1
  7 11  1  0
  8  7  2  0
 10  9  1  6
 10 12  1  0
 11 10  1  0
 12 13  2  0
 12 17  1  0
 14 15  1  0
 16 15  1  1
 16 18  1  0
 17 16  1  0
 18 20  1  0
 19 18  2  0
M  END
$$$$
