IAS.pdb
     RDKit          3D

 20 19  0  0  1  0  0  0  0  0999 V2000
    7.6700  -11.8335   20.1751 C   0  0  0  0  0  0  0  0  0  0  0  0
    8.0293  -13.2134   19.6869 C   0  0  0  0  0  0  0  0  0  0  0  0
    8.0562  -14.2282   20.7971 C   0  0  2  0  0  0  0  0  0  0  0  0
    8.9700  -13.8075   21.9177 C   0  0  0  0  0  0  0  0  0  0  0  0
    8.4012  -15.5827   20.2370 C   0  0  2  0  0  0  0  0  0  0  0  0
    7.3557  -15.9373   19.2975 N   0  0  0  0  0  0  0  0  0  0  0  0
    8.5193  -16.6284   21.2428 C   0  0  0  0  0  0  0  0  0  0  0  0
    7.5036  -17.1391   21.7709 O   0  0  0  0  0  0  0  0  0  0  0  0
   11.2744  -18.7740   22.4783 C   0  0  0  0  0  0  0  0  0  0  0  0
    9.9151  -18.1611   22.6425 C   0  0  2  0  0  0  0  0  0  0  0  0
    9.7935  -17.0923   21.6470 N   0  0  0  0  0  0  0  0  0  0  0  0
    9.6982  -17.5901   23.9876 C   0  0  0  0  0  0  0  0  0  0  0  0
   10.1332  -16.4822   24.3615 O   0  0  0  0  0  0  0  0  0  0  0  0
    6.3587  -18.2298   25.9291 O   0  0  0  0  0  0  0  0  0  0  0  0
    7.4033  -18.5454   26.7794 C   0  0  0  0  0  0  0  0  0  0  0  0
    8.7174  -17.9563   26.2770 C   0  0  2  0  0  0  0  0  0  0  0  0
    8.9406  -18.3566   24.9219 N   0  0  0  0  0  0  0  0  0  0  0  0
    9.7742  -18.4159   27.1981 C   0  0  0  0  0  0  0  0  0  0  0  0
   10.7418  -19.1027   26.7990 O   0  0  0  0  0  0  0  0  0  0  0  0
    9.6988  -18.0832   28.5340 O   0  0  0  0  0  0  0  0  0  0  0  0
  2  1  1  0
  3  2  1  0
  3  4  1  1
  5  7  1  0
  5  3  1  0
  5  6  1  6
  7 11  1  0
  8  7  2  0
 10  9  1  1
 10 12  1  0
 11 10  1  0
 12 13  2  0
 12 17  1  0
 14 15  1  0
 16 15  1  1
 16 18  1  0
 17 16  1  0
 18 20  1  0
 19 18  2  0
M  END
$$$$
