IAS.pdb
     RDKit          3D

 20 19  0  0  1  0  0  0  0  0999 V2000
    8.8199  -14.4210   17.9674 C   0  0  0  0  0  0  0  0  0  0  0  0
    8.8622  -14.3643   19.4729 C   0  0  0  0  0  0  0  0  0  0  0  0
    7.5992  -13.7994   20.0635 C   0  0  2  0  0  0  0  0  0  0  0  0
    7.3852  -12.3647   19.6590 C   0  0  0  0  0  0  0  0  0  0  0  0
    7.6083  -13.9918   21.5569 C   0  0  2  0  0  0  0  0  0  0  0  0
    8.7275  -13.2335   22.0803 N   0  0  0  0  0  0  0  0  0  0  0  0
    7.7301  -15.3806   21.9758 C   0  0  0  0  0  0  0  0  0  0  0  0
    6.8743  -16.2355   21.6470 O   0  0  0  0  0  0  0  0  0  0  0  0
   10.2272  -17.7313   22.7173 C   0  0  0  0  0  0  0  0  0  0  0  0
    8.9282  -17.1833   23.2296 C   0  0  2  0  0  0  0  0  0  0  0  0
    8.8261  -15.7957   22.7687 N   0  0  0  0  0  0  0  0  0  0  0  0
    8.8330  -17.2069   24.7036 C   0  0  0  0  0  0  0  0  0  0  0  0
    9.1867  -16.2701   25.4478 O   0  0  0  0  0  0  0  0  0  0  0  0
    7.4951  -20.8075   26.3817 O   0  0  0  0  0  0  0  0  0  0  0  0
    7.1007  -19.6348   27.0004 C   0  0  0  0  0  0  0  0  0  0  0  0
    8.0928  -18.5091   26.7270 C   0  0  2  0  0  0  0  0  0  0  0  0
    8.3011  -18.3792   25.3176 N   0  0  0  0  0  0  0  0  0  0  0  0
    9.3268  -18.8347   27.4669 C   0  0  0  0  0  0  0  0  0  0  0  0
   10.3847  -19.1494   26.8761 O   0  0  0  0  0  0  0  0  0  0  0  0
    9.3200  -18.7929   28.8450 O   0  0  0  0  0  0  0  0  0  0  0  0
  2  1  1  0
  3  2  1  0
  3  4  1  1
  5  7  1  0
  5  3  1  0
  5  6  1  1
  7 11  1  0
  8  7  2  0
 10  9  1  1
 10 12  1  0
 11 10  1  0
 12 13  2  0
 12 17  1  0
 14 15  1  0
 16 15  1  6
 16 18  1  0
 17 16  1  0
 18 20  1  0
 19 18  2  0
M  END
$$$$
