IAS.pdb
     RDKit          3D

 20 19  0  0  1  0  0  0  0  0999 V2000
    6.4457  -11.2862   27.4839 C   0  0  0  0  0  0  0  0  0  0  0  0
    5.9059  -12.4465   26.6877 C   0  0  0  0  0  0  0  0  0  0  0  0
    6.9764  -13.1528   25.9013 C   0  0  2  0  0  0  0  0  0  0  0  0
    7.6520  -12.2300   24.9217 C   0  0  0  0  0  0  0  0  0  0  0  0
    6.3981  -14.3797   25.2472 C   0  0  2  0  0  0  0  0  0  0  0  0
    5.8960  -15.2337   26.3055 N   0  0  0  0  0  0  0  0  0  0  0  0
    7.3507  -15.1257   24.4379 C   0  0  0  0  0  0  0  0  0  0  0  0
    8.1079  -15.9827   24.9512 O   0  0  0  0  0  0  0  0  0  0  0  0
    8.1483  -15.2624   20.7912 C   0  0  0  0  0  0  0  0  0  0  0  0
    8.3152  -15.7239   22.2088 C   0  0  2  0  0  0  0  0  0  0  0  0
    7.4409  -14.8960   23.0446 N   0  0  0  0  0  0  0  0  0  0  0  0
    9.7038  -15.5986   22.6969 C   0  0  0  0  0  0  0  0  0  0  0  0
   10.3188  -14.5183   22.8032 O   0  0  0  0  0  0  0  0  0  0  0  0
   11.3026  -19.1459   23.9026 O   0  0  0  0  0  0  0  0  0  0  0  0
   11.9774  -18.0442   24.3971 C   0  0  0  0  0  0  0  0  0  0  0  0
   11.7467  -16.8189   23.5187 C   0  0  2  0  0  0  0  0  0  0  0  0
   10.3879  -16.7926   23.0719 N   0  0  0  0  0  0  0  0  0  0  0  0
   12.7188  -16.8947   22.4116 C   0  0  0  0  0  0  0  0  0  0  0  0
   12.3528  -17.0413   21.2235 O   0  0  0  0  0  0  0  0  0  0  0  0
   14.0665  -16.8023   22.6875 O   0  0  0  0  0  0  0  0  0  0  0  0
  2  1  1  0
  3  2  1  0
  3  4  1  6
  5  7  1  0
  5  3  1  0
  5  6  1  1
  7 11  1  0
  8  7  2  0
 10  9  1  6
 10 12  1  0
 11 10  1  0
 12 13  2  0
 12 17  1  0
 14 15  1  0
 16 15  1  1
 16 18  1  0
 17 16  1  0
 18 20  1  0
 19 18  2  0
M  END
$$$$
