IAS.pdb
     RDKit          3D

 20 19  0  0  1  0  0  0  0  0999 V2000
    6.3391  -11.3934   27.4323 C   0  0  0  0  0  0  0  0  0  0  0  0
    5.8287  -12.6198   26.7204 C   0  0  0  0  0  0  0  0  0  0  0  0
    6.9003  -13.3093   25.9208 C   0  0  2  0  0  0  0  0  0  0  0  0
    7.5964  -12.3596   24.9820 C   0  0  0  0  0  0  0  0  0  0  0  0
    6.3165  -14.5057   25.2171 C   0  0  2  0  0  0  0  0  0  0  0  0
    5.8455  -15.4178   26.2407 N   0  0  0  0  0  0  0  0  0  0  0  0
    7.2559  -15.2005   24.3489 C   0  0  0  0  0  0  0  0  0  0  0  0
    8.0818  -16.0222   24.8113 O   0  0  0  0  0  0  0  0  0  0  0  0
    7.9272  -15.2033   20.6740 C   0  0  0  0  0  0  0  0  0  0  0  0
    8.1743  -15.6846   22.0731 C   0  0  2  0  0  0  0  0  0  0  0  0
    7.2547  -14.9597   22.9545 N   0  0  0  0  0  0  0  0  0  0  0  0
    9.5599  -15.4491   22.5282 C   0  0  0  0  0  0  0  0  0  0  0  0
   10.0005  -14.3434   22.9023 O   0  0  0  0  0  0  0  0  0  0  0  0
   11.3492  -18.2450   24.5173 O   0  0  0  0  0  0  0  0  0  0  0  0
   11.9466  -17.0036   24.3916 C   0  0  0  0  0  0  0  0  0  0  0  0
   11.8171  -16.4735   22.9673 C   0  0  2  0  0  0  0  0  0  0  0  0
   10.4543  -16.5599   22.5408 N   0  0  0  0  0  0  0  0  0  0  0  0
   12.7374  -17.2650   22.1290 C   0  0  0  0  0  0  0  0  0  0  0  0
   13.9763  -17.2396   22.3071 O   0  0  0  0  0  0  0  0  0  0  0  0
   12.2248  -18.0549   21.1218 O   0  0  0  0  0  0  0  0  0  0  0  0
  2  1  1  0
  3  2  1  0
  3  4  1  6
  5  7  1  0
  5  3  1  0
  5  6  1  1
  7 11  1  0
  8  7  2  0
 10  9  1  6
 10 12  1  0
 11 10  1  0
 12 13  2  0
 12 17  1  0
 14 15  1  0
 16 15  1  1
 16 18  1  0
 17 16  1  0
 18 20  1  0
 19 18  2  0
M  END
$$$$
