IAS.pdb
     RDKit          3D

 20 19  0  0  1  0  0  0  0  0999 V2000
    6.6917  -11.5016   27.2431 C   0  0  0  0  0  0  0  0  0  0  0  0
    6.0942  -12.7044   26.5592 C   0  0  0  0  0  0  0  0  0  0  0  0
    7.1169  -13.4980   25.7926 C   0  0  2  0  0  0  0  0  0  0  0  0
    7.9080  -12.6293   24.8507 C   0  0  0  0  0  0  0  0  0  0  0  0
    6.4453  -14.6537   25.0992 C   0  0  2  0  0  0  0  0  0  0  0  0
    5.8156  -15.4619   26.1247 N   0  0  0  0  0  0  0  0  0  0  0  0
    7.3506  -15.4853   24.3196 C   0  0  0  0  0  0  0  0  0  0  0  0
    8.0471  -16.3740   24.8639 O   0  0  0  0  0  0  0  0  0  0  0  0
    8.2072  -15.7629   20.6961 C   0  0  0  0  0  0  0  0  0  0  0  0
    8.4263  -16.0897   22.1437 C   0  0  2  0  0  0  0  0  0  0  0  0
    7.4626  -15.3050   22.9206 N   0  0  0  0  0  0  0  0  0  0  0  0
    9.7913  -15.7678   22.6078 C   0  0  0  0  0  0  0  0  0  0  0  0
   10.2608  -14.6136   22.6698 O   0  0  0  0  0  0  0  0  0  0  0  0
   11.7253  -18.8818   24.3358 O   0  0  0  0  0  0  0  0  0  0  0  0
   12.3258  -17.6520   24.5373 C   0  0  0  0  0  0  0  0  0  0  0  0
   11.9959  -16.6873   23.4029 C   0  0  2  0  0  0  0  0  0  0  0  0
   10.6292  -16.8489   23.0123 N   0  0  0  0  0  0  0  0  0  0  0  0
   12.9471  -16.9671   22.3106 C   0  0  0  0  0  0  0  0  0  0  0  0
   12.5610  -17.3572   21.1856 O   0  0  0  0  0  0  0  0  0  0  0  0
   14.2976  -16.7959   22.5295 O   0  0  0  0  0  0  0  0  0  0  0  0
  2  1  1  0
  3  2  1  0
  3  4  1  6
  5  7  1  0
  5  3  1  0
  5  6  1  1
  7 11  1  0
  8  7  2  0
 10  9  1  6
 10 12  1  0
 11 10  1  0
 12 13  2  0
 12 17  1  0
 14 15  1  0
 16 15  1  1
 16 18  1  0
 17 16  1  0
 18 20  1  0
 19 18  2  0
M  END
$$$$
