DMC.pdb
     RDKit          3D

 23 22  0  0  1  0  0  0  0  0999 V2000
   26.4846  -32.8119   -2.3699 N   0  0  0  0  0  0  0  0  0  0  0  0
   26.0793  -33.6357   -1.2554 C   0  0  1  0  0  0  0  0  0  0  0  0
   26.6731  -35.0023   -1.4194 C   0  0  0  0  0  0  0  0  0  0  0  0
   25.7617  -35.8034   -2.2727 C   0  0  0  0  0  0  0  0  0  0  0  0
   24.7532  -35.3005   -2.8119 O   0  0  0  0  0  0  0  0  0  0  0  0
   26.4181  -32.9649   -0.0094 C   0  0  0  0  0  0  0  0  0  0  0  0
   27.5498  -32.4329    0.1151 O   0  0  0  0  0  0  0  0  0  0  0  0
   26.0611  -37.1430   -2.4594 O   0  0  0  0  0  0  0  0  0  0  0  0
   22.0407  -30.4733    4.4269 C   0  0  0  0  0  0  0  0  0  0  0  0
   23.4931  -29.4051    4.2880 S   0  0  0  0  0  0  0  0  0  0  0  0
   24.9413  -30.4563    3.9438 C   0  0  0  0  0  0  0  0  0  0  0  0
   24.7370  -31.2738    2.7077 C   0  0  0  0  0  0  0  0  0  0  0  0
   25.9309  -32.0998    2.3210 C   0  0  2  0  0  0  0  0  0  0  0  0
   25.5487  -32.8621    1.1045 N   0  0  0  0  0  0  0  0  0  0  0  0
   26.3243  -33.1180    3.3061 C   0  0  0  0  0  0  0  0  0  0  0  0
   25.5413  -34.0757    3.6469 O   0  0  0  0  0  0  0  0  0  0  0  0
   27.5854  -33.1528    3.9676 N   0  0  0  0  0  0  0  0  0  0  0  0
   27.9050  -34.1151    5.0219 C   0  0  1  0  0  0  0  0  0  0  0  0
   29.4151  -34.2060    5.0850 C   0  0  0  0  0  0  0  0  0  0  0  0
   30.1024  -34.8119    3.5285 S   0  0  0  0  0  0  0  0  0  0  0  0
   27.3374  -33.7224    6.3109 C   0  0  0  0  0  0  0  0  0  0  0  0
   27.5442  -34.4222    7.3294 O   0  0  0  0  0  0  0  0  0  0  0  0
   26.5646  -32.5833    6.4511 O   0  0  0  0  0  0  0  0  0  0  0  0
  2  1  1  6
  2  3  1  0
  3  4  1  0
  4  8  1  0
  5  4  2  0
  6  2  1  0
  7  6  2  0
  9 10  1  0
 10 11  1  0
 11 12  1  0
 13 12  1  1
 13 15  1  0
 13 14  1  0
 14  6  1  0
 15 17  1  0
 16 15  2  0
 18 17  1  0
 18 21  1  0
 18 19  1  1
 20 19  1  0
 21 22  2  0
 21 23  1  0
M  END
$$$$
