DMC.pdb
     RDKit          3D

 23 22  0  0  1  0  0  0  0  0999 V2000
   15.0213   -9.7161  -17.5973 N   0  0  0  0  0  0  0  0  0  0  0  0
   16.3032   -9.1210  -17.3009 C   0  0  1  0  0  0  0  0  0  0  0  0
   16.7428   -8.3019  -18.4769 C   0  0  0  0  0  0  0  0  0  0  0  0
   17.2742   -9.2240  -19.5102 C   0  0  0  0  0  0  0  0  0  0  0  0
   17.1123   -9.0090  -20.7302 O   0  0  0  0  0  0  0  0  0  0  0  0
   16.2199   -8.3938  -16.0433 C   0  0  0  0  0  0  0  0  0  0  0  0
   15.6376   -7.2806  -16.0135 O   0  0  0  0  0  0  0  0  0  0  0  0
   17.9646  -10.3463  -19.0824 O   0  0  0  0  0  0  0  0  0  0  0  0
   15.1384   -9.1174   -8.3662 C   0  0  0  0  0  0  0  0  0  0  0  0
   15.4320   -9.8903   -9.9744 S   0  0  0  0  0  0  0  0  0  0  0  0
   15.8510   -8.5784  -11.1678 C   0  0  0  0  0  0  0  0  0  0  0  0
   16.0748   -9.1405  -12.5360 C   0  0  0  0  0  0  0  0  0  0  0  0
   16.5303   -8.1238  -13.5438 C   0  0  2  0  0  0  0  0  0  0  0  0
   16.7587   -8.8549  -14.8168 N   0  0  0  0  0  0  0  0  0  0  0  0
   17.8145   -7.4780  -13.2345 C   0  0  0  0  0  0  0  0  0  0  0  0
   17.9706   -6.7289  -12.2043 O   0  0  0  0  0  0  0  0  0  0  0  0
   18.9939   -7.6141  -14.0216 N   0  0  0  0  0  0  0  0  0  0  0  0
   20.2367   -6.9025  -13.7232 C   0  0  1  0  0  0  0  0  0  0  0  0
   21.3612   -7.7211  -14.3215 C   0  0  0  0  0  0  0  0  0  0  0  0
   21.3767   -9.4005  -13.6571 S   0  0  0  0  0  0  0  0  0  0  0  0
   20.2264   -5.5392  -14.2517 C   0  0  0  0  0  0  0  0  0  0  0  0
   21.1893   -4.7697  -14.0272 O   0  0  0  0  0  0  0  0  0  0  0  0
   19.1713   -5.0571  -15.0060 O   0  0  0  0  0  0  0  0  0  0  0  0
  2  1  1  6
  2  3  1  0
  3  4  1  0
  4  8  1  0
  5  4  2  0
  6  2  1  0
  7  6  2  0
  9 10  1  0
 10 11  1  0
 11 12  1  0
 13 12  1  1
 13 15  1  0
 13 14  1  0
 14  6  1  0
 15 17  1  0
 16 15  2  0
 18 17  1  0
 18 21  1  0
 18 19  1  6
 20 19  1  0
 21 22  2  0
 21 23  1  0
M  END
$$$$
