DMC.pdb
     RDKit          3D

 23 22  0  0  1  0  0  0  0  0999 V2000
   28.2003  -21.2686  -16.8619 N   0  0  0  0  0  0  0  0  0  0  0  0
   27.6361  -20.2212  -16.0435 C   0  0  1  0  0  0  0  0  0  0  0  0
   26.9007  -19.2576  -16.9255 C   0  0  0  0  0  0  0  0  0  0  0  0
   27.8965  -18.5415  -17.7598 C   0  0  0  0  0  0  0  0  0  0  0  0
   28.8438  -17.9043  -17.2525 O   0  0  0  0  0  0  0  0  0  0  0  0
   26.8370  -20.8140  -14.9818 C   0  0  0  0  0  0  0  0  0  0  0  0
   26.0926  -21.7917  -15.2446 O   0  0  0  0  0  0  0  0  0  0  0  0
   27.7475  -18.5976  -19.1359 O   0  0  0  0  0  0  0  0  0  0  0  0
   30.4524  -22.0272   -9.6409 C   0  0  0  0  0  0  0  0  0  0  0  0
   28.7984  -21.2981   -9.5882 S   0  0  0  0  0  0  0  0  0  0  0  0
   28.0493  -21.4676  -11.2407 C   0  0  0  0  0  0  0  0  0  0  0  0
   26.6960  -20.8320  -11.2909 C   0  0  0  0  0  0  0  0  0  0  0  0
   25.9879  -21.0128  -12.6035 C   0  0  2  0  0  0  0  0  0  0  0  0
   26.8322  -20.3628  -13.6389 N   0  0  0  0  0  0  0  0  0  0  0  0
   24.6805  -20.3468  -12.6985 C   0  0  0  0  0  0  0  0  0  0  0  0
   24.5329  -19.2144  -13.2838 O   0  0  0  0  0  0  0  0  0  0  0  0
   23.4681  -20.8747  -12.1690 N   0  0  0  0  0  0  0  0  0  0  0  0
   22.1470  -20.4738  -12.6526 C   0  0  1  0  0  0  0  0  0  0  0  0
   22.1191  -20.7695  -14.1374 C   0  0  0  0  0  0  0  0  0  0  0  0
   20.4935  -20.4257  -14.8453 S   0  0  0  0  0  0  0  0  0  0  0  0
   21.0721  -21.1700  -11.9472 C   0  0  0  0  0  0  0  0  0  0  0  0
   21.2458  -22.3392  -11.5316 O   0  0  0  0  0  0  0  0  0  0  0  0
   19.8450  -20.5739  -11.7166 O   0  0  0  0  0  0  0  0  0  0  0  0
  2  1  1  6
  2  3  1  0
  3  4  1  0
  4  8  1  0
  5  4  2  0
  6  2  1  0
  7  6  2  0
  9 10  1  0
 10 11  1  0
 11 12  1  0
 13 12  1  1
 13 15  1  0
 13 14  1  0
 14  6  1  0
 15 17  1  0
 16 15  2  0
 18 17  1  0
 18 21  1  0
 18 19  1  6
 20 19  1  0
 21 22  2  0
 21 23  1  0
M  END
$$$$
