DMC.pdb
     RDKit          3D

 23 22  0  0  1  0  0  0  0  0999 V2000
   20.4403  -19.9963  -12.7704 N   0  0  0  0  0  0  0  0  0  0  0  0
   21.3260  -21.0409  -12.3128 C   0  0  1  0  0  0  0  0  0  0  0  0
   21.2385  -22.2014  -13.2577 C   0  0  0  0  0  0  0  0  0  0  0  0
   19.9223  -22.8576  -13.0639 C   0  0  0  0  0  0  0  0  0  0  0  0
   19.7578  -23.7675  -12.2239 O   0  0  0  0  0  0  0  0  0  0  0  0
   22.6633  -20.4966  -12.1317 C   0  0  0  0  0  0  0  0  0  0  0  0
   23.1549  -19.7620  -13.0248 O   0  0  0  0  0  0  0  0  0  0  0  0
   18.8644  -22.4298  -13.8494 O   0  0  0  0  0  0  0  0  0  0  0  0
   26.2796  -21.2247   -6.6276 C   0  0  0  0  0  0  0  0  0  0  0  0
   26.8894  -19.6711   -7.3237 S   0  0  0  0  0  0  0  0  0  0  0  0
   26.5738  -19.6895   -9.1183 C   0  0  0  0  0  0  0  0  0  0  0  0
   25.2245  -20.2573   -9.4263 C   0  0  0  0  0  0  0  0  0  0  0  0
   24.8323  -20.1426  -10.8720 C   0  0  2  0  0  0  0  0  0  0  0  0
   23.4763  -20.7368  -10.9966 N   0  0  0  0  0  0  0  0  0  0  0  0
   25.6748  -20.9061  -11.8043 C   0  0  0  0  0  0  0  0  0  0  0  0
   25.7078  -22.1889  -11.7997 O   0  0  0  0  0  0  0  0  0  0  0  0
   26.5195  -20.3199  -12.7902 N   0  0  0  0  0  0  0  0  0  0  0  0
   27.3510  -21.1102  -13.6980 C   0  0  1  0  0  0  0  0  0  0  0  0
   26.4215  -22.0605  -14.4230 C   0  0  0  0  0  0  0  0  0  0  0  0
   25.2244  -21.1640  -15.4355 S   0  0  0  0  0  0  0  0  0  0  0  0
   28.0921  -20.2667  -14.6344 C   0  0  0  0  0  0  0  0  0  0  0  0
   27.9069  -19.0276  -14.6479 O   0  0  0  0  0  0  0  0  0  0  0  0
   29.0093  -20.7964  -15.5247 O   0  0  0  0  0  0  0  0  0  0  0  0
  2  1  1  6
  2  3  1  0
  3  4  1  0
  4  8  1  0
  5  4  2  0
  6  2  1  0
  7  6  2  0
  9 10  1  0
 10 11  1  0
 11 12  1  0
 13 12  1  1
 13 15  1  0
 13 14  1  0
 14  6  1  0
 15 17  1  0
 16 15  2  0
 18 17  1  0
 18 21  1  0
 18 19  1  6
 20 19  1  0
 21 22  2  0
 21 23  1  0
M  END
$$$$
