DMC.pdb
     RDKit          3D

 23 22  0  0  1  0  0  0  0  0999 V2000
   27.6223  -19.6616  -16.2290 N   0  0  0  0  0  0  0  0  0  0  0  0
   27.2199  -21.0338  -16.4295 C   0  0  1  0  0  0  0  0  0  0  0  0
   28.3984  -21.8195  -16.9203 C   0  0  0  0  0  0  0  0  0  0  0  0
   28.9003  -21.1758  -18.1589 C   0  0  0  0  0  0  0  0  0  0  0  0
   28.1574  -20.9724  -19.1425 O   0  0  0  0  0  0  0  0  0  0  0  0
   26.6081  -21.5418  -15.2110 C   0  0  0  0  0  0  0  0  0  0  0  0
   26.3523  -22.7684  -15.1159 O   0  0  0  0  0  0  0  0  0  0  0  0
   30.2332  -20.8003  -18.1983 O   0  0  0  0  0  0  0  0  0  0  0  0
   25.4425  -20.6706   -7.4893 C   0  0  0  0  0  0  0  0  0  0  0  0
   26.2646  -20.1190   -9.0026 S   0  0  0  0  0  0  0  0  0  0  0  0
   25.4943  -20.9774  -10.4134 C   0  0  0  0  0  0  0  0  0  0  0  0
   26.1688  -20.6201  -11.7000 C   0  0  0  0  0  0  0  0  0  0  0  0
   25.5926  -21.3141  -12.9015 C   0  0  2  0  0  0  0  0  0  0  0  0
   26.2691  -20.7401  -14.0932 N   0  0  0  0  0  0  0  0  0  0  0  0
   24.1580  -21.0801  -13.1227 C   0  0  0  0  0  0  0  0  0  0  0  0
   23.6963  -19.9260  -13.4412 O   0  0  0  0  0  0  0  0  0  0  0  0
   23.1529  -22.0838  -13.0146 N   0  0  0  0  0  0  0  0  0  0  0  0
   21.7372  -21.8240  -13.2758 C   0  0  1  0  0  0  0  0  0  0  0  0
   21.1404  -23.1246  -13.7709 C   0  0  0  0  0  0  0  0  0  0  0  0
   19.3419  -23.1274  -13.6048 S   0  0  0  0  0  0  0  0  0  0  0  0
   21.0427  -21.3342  -12.0861 C   0  0  0  0  0  0  0  0  0  0  0  0
   20.1193  -20.4946  -12.1971 O   0  0  0  0  0  0  0  0  0  0  0  0
   21.3737  -21.7721  -10.8160 O   0  0  0  0  0  0  0  0  0  0  0  0
  2  1  1  1
  2  3  1  0
  3  4  1  0
  4  8  1  0
  5  4  2  0
  6  2  1  0
  7  6  2  0
  9 10  1  0
 10 11  1  0
 11 12  1  0
 13 12  1  1
 13 15  1  0
 13 14  1  0
 14  6  1  0
 15 17  1  0
 16 15  2  0
 18 17  1  0
 18 21  1  0
 18 19  1  1
 20 19  1  0
 21 22  2  0
 21 23  1  0
M  END
$$$$
