DMC.pdb
     RDKit          3D

 23 22  0  0  1  0  0  0  0  0999 V2000
   18.8728  -12.7536  -15.9077 N   0  0  0  0  0  0  0  0  0  0  0  0
   18.8398  -11.3493  -16.2426 C   0  0  1  0  0  0  0  0  0  0  0  0
   17.5780  -10.7494  -15.6993 C   0  0  0  0  0  0  0  0  0  0  0  0
   16.4297  -11.3695  -16.4046 C   0  0  0  0  0  0  0  0  0  0  0  0
   15.4512  -11.8371  -15.7847 O   0  0  0  0  0  0  0  0  0  0  0  0
   20.0670  -10.7142  -15.7869 C   0  0  0  0  0  0  0  0  0  0  0  0
   20.3760  -10.7743  -14.5703 O   0  0  0  0  0  0  0  0  0  0  0  0
   16.4702  -11.4178  -17.7885 O   0  0  0  0  0  0  0  0  0  0  0  0
   27.5979   -9.4756  -16.8254 C   0  0  0  0  0  0  0  0  0  0  0  0
   26.0395  -10.2282  -17.3499 S   0  0  0  0  0  0  0  0  0  0  0  0
   24.6799   -9.3918  -16.4709 C   0  0  0  0  0  0  0  0  0  0  0  0
   23.3537   -9.9773  -16.8401 C   0  0  0  0  0  0  0  0  0  0  0  0
   22.1954   -9.3759  -16.0958 C   0  0  2  0  0  0  0  0  0  0  0  0
   20.9649  -10.0142  -16.6301 N   0  0  0  0  0  0  0  0  0  0  0  0
   22.0048   -7.9335  -16.3085 C   0  0  0  0  0  0  0  0  0  0  0  0
   21.4409   -7.4683  -17.3631 O   0  0  0  0  0  0  0  0  0  0  0  0
   22.4107   -6.9240  -15.3891 N   0  0  0  0  0  0  0  0  0  0  0  0
   22.2738   -5.4940  -15.6655 C   0  0  1  0  0  0  0  0  0  0  0  0
   21.2968   -4.9457  -14.6470 C   0  0  0  0  0  0  0  0  0  0  0  0
   21.8488   -5.2807  -12.9603 S   0  0  0  0  0  0  0  0  0  0  0  0
   23.5590   -4.7997  -15.6032 C   0  0  0  0  0  0  0  0  0  0  0  0
   24.6032   -5.4320  -15.3208 O   0  0  0  0  0  0  0  0  0  0  0  0
   23.6677   -3.4425  -15.8495 O   0  0  0  0  0  0  0  0  0  0  0  0
  2  1  1  1
  2  3  1  0
  3  4  1  0
  4  8  1  0
  5  4  2  0
  6  2  1  0
  7  6  2  0
  9 10  1  0
 10 11  1  0
 11 12  1  0
 13 12  1  6
 13 15  1  0
 13 14  1  0
 14  6  1  0
 15 17  1  0
 16 15  2  0
 18 17  1  0
 18 21  1  0
 18 19  1  1
 20 19  1  0
 21 22  2  0
 21 23  1  0
M  END
$$$$
