DMC.pdb
     RDKit          3D

 23 22  0  0  1  0  0  0  0  0999 V2000
   20.8867  -21.2069  -12.7931 N   0  0  0  0  0  0  0  0  0  0  0  0
   21.7191  -21.2405  -13.9727 C   0  0  1  0  0  0  0  0  0  0  0  0
   20.9662  -20.6309  -15.1167 C   0  0  0  0  0  0  0  0  0  0  0  0
   19.7354  -21.4287  -15.3382 C   0  0  0  0  0  0  0  0  0  0  0  0
   19.7797  -22.6527  -15.5840 O   0  0  0  0  0  0  0  0  0  0  0  0
   23.0001  -20.6161  -13.6789 C   0  0  0  0  0  0  0  0  0  0  0  0
   23.0355  -19.3972  -13.3754 O   0  0  0  0  0  0  0  0  0  0  0  0
   18.5174  -20.7728  -15.2644 O   0  0  0  0  0  0  0  0  0  0  0  0
   25.1083  -20.4037   -8.0407 C   0  0  0  0  0  0  0  0  0  0  0  0
   25.9990  -21.1759   -9.4120 S   0  0  0  0  0  0  0  0  0  0  0  0
   25.2956  -20.5490  -10.9718 C   0  0  0  0  0  0  0  0  0  0  0  0
   26.0553  -21.0613  -12.1543 C   0  0  0  0  0  0  0  0  0  0  0  0
   25.5246  -20.5772  -13.4738 C   0  0  2  0  0  0  0  0  0  0  0  0
   24.2442  -21.2931  -13.7093 N   0  0  0  0  0  0  0  0  0  0  0  0
   26.3661  -20.9003  -14.6355 C   0  0  0  0  0  0  0  0  0  0  0  0
   26.2983  -22.0342  -15.2325 O   0  0  0  0  0  0  0  0  0  0  0  0
   27.3188  -20.0115  -15.2111 N   0  0  0  0  0  0  0  0  0  0  0  0
   27.5165  -19.8826  -16.6548 C   0  0  1  0  0  0  0  0  0  0  0  0
   26.1567  -19.5960  -17.2563 C   0  0  0  0  0  0  0  0  0  0  0  0
   26.1033  -20.0471  -19.0043 S   0  0  0  0  0  0  0  0  0  0  0  0
   28.4797  -18.8327  -16.9831 C   0  0  0  0  0  0  0  0  0  0  0  0
   28.4545  -17.7408  -16.3691 O   0  0  0  0  0  0  0  0  0  0  0  0
   29.4378  -19.0033  -17.9667 O   0  0  0  0  0  0  0  0  0  0  0  0
  2  1  1  1
  2  3  1  0
  3  4  1  0
  4  8  1  0
  5  4  2  0
  6  2  1  0
  7  6  2  0
  9 10  1  0
 10 11  1  0
 11 12  1  0
 13 12  1  1
 13 15  1  0
 13 14  1  0
 14  6  1  0
 15 17  1  0
 16 15  2  0
 18 17  1  0
 18 21  1  0
 18 19  1  6
 20 19  1  0
 21 22  2  0
 21 23  1  0
M  END
$$$$
