DMC.pdb
     RDKit          3D

 23 22  0  0  1  0  0  0  0  0999 V2000
   22.7393  -24.0202  -15.2770 N   0  0  0  0  0  0  0  0  0  0  0  0
   24.0579  -24.0948  -14.6931 C   0  0  1  0  0  0  0  0  0  0  0  0
   25.0254  -24.5687  -15.7355 C   0  0  0  0  0  0  0  0  0  0  0  0
   24.8817  -26.0394  -15.8656 C   0  0  0  0  0  0  0  0  0  0  0  0
   24.0514  -26.6820  -15.1887 O   0  0  0  0  0  0  0  0  0  0  0  0
   24.3903  -22.8160  -14.0836 C   0  0  0  0  0  0  0  0  0  0  0  0
   23.8531  -21.7676  -14.5210 O   0  0  0  0  0  0  0  0  0  0  0  0
   25.7035  -26.6921  -16.7699 O   0  0  0  0  0  0  0  0  0  0  0  0
   24.8267  -20.9933   -8.5184 C   0  0  0  0  0  0  0  0  0  0  0  0
   25.5276  -19.5891   -9.4167 S   0  0  0  0  0  0  0  0  0  0  0  0
   26.8034  -20.2211  -10.5540 C   0  0  0  0  0  0  0  0  0  0  0  0
   26.3692  -21.4983  -11.2007 C   0  0  0  0  0  0  0  0  0  0  0  0
   25.7268  -21.3108  -12.5458 C   0  0  2  0  0  0  0  0  0  0  0  0
   25.2967  -22.6561  -13.0066 N   0  0  0  0  0  0  0  0  0  0  0  0
   26.6259  -20.8126  -13.5971 C   0  0  0  0  0  0  0  0  0  0  0  0
   27.5977  -21.5157  -14.0531 O   0  0  0  0  0  0  0  0  0  0  0  0
   26.5155  -19.5314  -14.2098 N   0  0  0  0  0  0  0  0  0  0  0  0
   27.3089  -19.1341  -15.3729 C   0  0  1  0  0  0  0  0  0  0  0  0
   26.9659  -20.1028  -16.4850 C   0  0  0  0  0  0  0  0  0  0  0  0
   27.5966  -19.5264  -18.0762 S   0  0  0  0  0  0  0  0  0  0  0  0
   27.0464  -17.7509  -15.7671 C   0  0  0  0  0  0  0  0  0  0  0  0
   27.8349  -17.1553  -16.5373 O   0  0  0  0  0  0  0  0  0  0  0  0
   25.9368  -17.0606  -15.3121 O   0  0  0  0  0  0  0  0  0  0  0  0
  2  1  1  6
  2  3  1  0
  3  4  1  0
  4  8  1  0
  5  4  2  0
  6  2  1  0
  7  6  2  0
  9 10  1  0
 10 11  1  0
 11 12  1  0
 13 12  1  1
 13 15  1  0
 13 14  1  0
 14  6  1  0
 15 17  1  0
 16 15  2  0
 18 17  1  0
 18 21  1  0
 18 19  1  6
 20 19  1  0
 21 22  2  0
 21 23  1  0
M  END
$$$$
