YLK.pdb
     RDKit          3D

 30 30  0  0  1  0  0  0  0  0999 V2000
   12.0773  -14.7980   30.4154 O   0  0  0  0  0  0  0  0  0  0  0  0
   11.0545  -15.5651   29.8532 C   0  0  0  0  0  0  0  0  0  0  0  0
   10.9031  -16.9021   30.1426 C   0  0  0  0  0  0  0  0  0  0  0  0
    9.8795  -17.6202   29.5650 C   0  0  0  0  0  0  0  0  0  0  0  0
    8.9978  -17.0128   28.6940 C   0  0  0  0  0  0  0  0  0  0  0  0
    7.9208  -17.8223   28.1028 C   0  0  0  0  0  0  0  0  0  0  0  0
    8.0663  -18.0136   26.6236 C   0  0  2  0  0  0  0  0  0  0  0  0
    9.4225  -18.0596   26.1727 N   0  0  0  0  0  0  0  0  0  0  0  0
    7.2474  -17.0086   25.9103 C   0  0  0  0  0  0  0  0  0  0  0  0
    5.9966  -17.1204   25.9765 O   0  0  0  0  0  0  0  0  0  0  0  0
    9.1362  -15.6727   28.3936 C   0  0  0  0  0  0  0  0  0  0  0  0
   10.1670  -14.9709   28.9818 C   0  0  0  0  0  0  0  0  0  0  0  0
    5.5538  -13.1323   26.5413 C   0  0  0  0  0  0  0  0  0  0  0  0
    7.0442  -13.2119   26.1702 C   0  0  2  0  0  0  0  0  0  0  0  0
    7.5716  -11.7930   26.3966 C   0  0  0  0  0  0  0  0  0  0  0  0
    7.1005  -13.6115   24.7412 C   0  0  0  0  0  0  0  0  0  0  0  0
    6.9240  -15.0597   24.4596 C   0  0  2  0  0  0  0  0  0  0  0  0
    7.7857  -15.9403   25.1659 N   0  0  0  0  0  0  0  0  0  0  0  0
    7.1853  -15.2515   22.9844 C   0  0  0  0  0  0  0  0  0  0  0  0
    6.3019  -14.9258   22.1482 O   0  0  0  0  0  0  0  0  0  0  0  0
    8.4194  -15.7949   22.5537 N   0  0  0  0  0  0  0  0  0  0  0  0
    8.7512  -15.9187   21.1222 C   0  0  1  0  0  0  0  0  0  0  0  0
    8.6963  -14.5353   20.5732 C   0  0  0  0  0  0  0  0  0  0  0  0
    8.4339  -14.5586   19.0982 C   0  0  0  0  0  0  0  0  0  0  0  0
    8.5106  -13.1706   18.5380 C   0  0  0  0  0  0  0  0  0  0  0  0
    8.2295  -13.1694   17.0642 C   0  0  0  0  0  0  0  0  0  0  0  0
    8.2755  -11.7859   16.6129 N   0  0  0  0  0  0  0  0  0  0  0  0
   10.0270  -16.6266   21.0176 C   0  0  0  0  0  0  0  0  0  0  0  0
   11.1650  -16.1239   21.6111 O   0  0  0  0  0  0  0  0  0  0  0  0
   10.1249  -17.6998   20.3949 O   0  0  0  0  0  0  0  0  0  0  0  0
  2  1  1  0
  3  2  2  0
  4  3  1  0
  5 11  1  0
  5  4  2  0
  6  5  1  0
  7  6  1  0
  7  8  1  6
  9  7  1  0
  9 10  2  0
 11 12  2  0
 12  2  1  0
 14 16  1  0
 14 13  1  6
 15 14  1  0
 17 16  1  1
 17 18  1  0
 18  9  1  0
 19 17  1  0
 20 19  2  0
 21 19  1  0
 22 21  1  0
 22 28  1  0
 22 23  1  1
 24 23  1  0
 25 24  1  0
 26 27  1  0
 26 25  1  0
 28 30  2  0
 28 29  1  0
M  END
$$$$
