YLK.pdb
     RDKit          3D

 30 30  0  0  1  0  0  0  0  0999 V2000
   13.2953  -17.7780   31.1044 O   0  0  0  0  0  0  0  0  0  0  0  0
   12.0873  -17.5095   30.4569 C   0  0  0  0  0  0  0  0  0  0  0  0
   11.1578  -18.4942   30.2110 C   0  0  0  0  0  0  0  0  0  0  0  0
    9.9793  -18.1841   29.5690 C   0  0  0  0  0  0  0  0  0  0  0  0
    9.7165  -16.8903   29.1665 C   0  0  0  0  0  0  0  0  0  0  0  0
    8.4434  -16.6092   28.4846 C   0  0  0  0  0  0  0  0  0  0  0  0
    8.2948  -17.3362   27.1826 C   0  0  2  0  0  0  0  0  0  0  0  0
    9.5329  -17.5975   26.5166 N   0  0  0  0  0  0  0  0  0  0  0  0
    7.3105  -16.6324   26.3308 C   0  0  0  0  0  0  0  0  0  0  0  0
    6.2278  -16.2755   26.8615 O   0  0  0  0  0  0  0  0  0  0  0  0
   10.6385  -15.8915   29.4058 C   0  0  0  0  0  0  0  0  0  0  0  0
   11.8122  -16.2217   30.0496 C   0  0  0  0  0  0  0  0  0  0  0  0
    5.4832  -13.3253   26.0710 C   0  0  0  0  0  0  0  0  0  0  0  0
    6.9974  -13.4522   26.3089 C   0  0  2  0  0  0  0  0  0  0  0  0
    7.4408  -12.0444   26.7143 C   0  0  0  0  0  0  0  0  0  0  0  0
    7.5913  -13.8786   25.0165 C   0  0  0  0  0  0  0  0  0  0  0  0
    7.0370  -15.1216   24.4204 C   0  0  2  0  0  0  0  0  0  0  0  0
    7.5160  -16.3414   24.9677 N   0  0  0  0  0  0  0  0  0  0  0  0
    7.4043  -15.1034   22.9554 C   0  0  0  0  0  0  0  0  0  0  0  0
    6.9318  -14.2084   22.2062 O   0  0  0  0  0  0  0  0  0  0  0  0
    8.2756  -16.0912   22.4367 N   0  0  0  0  0  0  0  0  0  0  0  0
    9.0237  -15.8799   21.1836 C   0  0  1  0  0  0  0  0  0  0  0  0
    8.7470  -14.4733   20.7795 C   0  0  0  0  0  0  0  0  0  0  0  0
    8.1926  -14.4190   19.3886 C   0  0  0  0  0  0  0  0  0  0  0  0
    8.5040  -13.0945   18.7599 C   0  0  0  0  0  0  0  0  0  0  0  0
    7.9500  -13.0167   17.3677 C   0  0  0  0  0  0  0  0  0  0  0  0
    8.3298  -11.7226   16.8193 N   0  0  0  0  0  0  0  0  0  0  0  0
   10.4201  -16.2398   21.4294 C   0  0  0  0  0  0  0  0  0  0  0  0
   11.1735  -16.8558   20.4534 O   0  0  0  0  0  0  0  0  0  0  0  0
   10.9696  -16.0011   22.5204 O   0  0  0  0  0  0  0  0  0  0  0  0
  2  1  1  0
  3  2  2  0
  4  3  1  0
  5 11  1  0
  5  4  2  0
  6  5  1  0
  7  6  1  0
  7  8  1  6
  9  7  1  0
  9 10  2  0
 11 12  2  0
 12  2  1  0
 14 16  1  0
 14 13  1  6
 15 14  1  0
 17 16  1  1
 17 18  1  0
 18  9  1  0
 19 17  1  0
 20 19  2  0
 21 19  1  0
 22 21  1  0
 22 28  1  0
 22 23  1  1
 24 23  1  0
 25 24  1  0
 26 27  1  0
 26 25  1  0
 28 30  2  0
 28 29  1  0
M  END
$$$$
