YLK.pdb
     RDKit          3D

 30 30  0  0  1  0  0  0  0  0999 V2000
    7.3146  -13.7882   15.5331 O   0  0  0  0  0  0  0  0  0  0  0  0
    7.3978  -14.0900   16.8942 C   0  0  0  0  0  0  0  0  0  0  0  0
    7.1257  -15.3488   17.3793 C   0  0  0  0  0  0  0  0  0  0  0  0
    7.2205  -15.6018   18.7300 C   0  0  0  0  0  0  0  0  0  0  0  0
    7.5872  -14.6029   19.6090 C   0  0  0  0  0  0  0  0  0  0  0  0
    7.6745  -14.9226   21.0425 C   0  0  0  0  0  0  0  0  0  0  0  0
    9.0105  -14.6029   21.6413 C   0  0  2  0  0  0  0  0  0  0  0  0
   10.1171  -15.1618   20.9287 N   0  0  0  0  0  0  0  0  0  0  0  0
    9.0059  -14.9511   23.0794 C   0  0  0  0  0  0  0  0  0  0  0  0
    9.9821  -15.6067   23.5252 O   0  0  0  0  0  0  0  0  0  0  0  0
    7.8634  -13.3351   19.1381 C   0  0  0  0  0  0  0  0  0  0  0  0
    7.7630  -13.1016   17.7830 C   0  0  0  0  0  0  0  0  0  0  0  0
    8.0548  -11.9816   26.8276 C   0  0  0  0  0  0  0  0  0  0  0  0
    6.8931  -12.6714   26.0928 C   0  0  2  0  0  0  0  0  0  0  0  0
    5.6385  -12.2008   26.8328 C   0  0  0  0  0  0  0  0  0  0  0  0
    7.1148  -14.1326   26.2348 C   0  0  0  0  0  0  0  0  0  0  0  0
    8.1728  -14.7204   25.3729 C   0  0  2  0  0  0  0  0  0  0  0  0
    7.9767  -14.5923   23.9722 N   0  0  0  0  0  0  0  0  0  0  0  0
    8.2258  -16.1956   25.6931 C   0  0  0  0  0  0  0  0  0  0  0  0
    7.1896  -16.8988   25.5611 O   0  0  0  0  0  0  0  0  0  0  0  0
    9.4380  -16.7753   26.1385 N   0  0  0  0  0  0  0  0  0  0  0  0
    9.5001  -18.1728   26.6050 C   0  0  1  0  0  0  0  0  0  0  0  0
   10.4486  -18.8637   25.6878 C   0  0  0  0  0  0  0  0  0  0  0  0
    9.9220  -18.8706   24.2851 C   0  0  0  0  0  0  0  0  0  0  0  0
   10.8587  -19.6189   23.3855 C   0  0  0  0  0  0  0  0  0  0  0  0
   11.1819  -18.8170   22.1593 C   0  0  0  0  0  0  0  0  0  0  0  0
   12.2069  -19.5420   21.4222 N   0  0  0  0  0  0  0  0  0  0  0  0
    9.8421  -18.1556   28.0272 C   0  0  0  0  0  0  0  0  0  0  0  0
    9.6635  -19.2754   28.8107 O   0  0  0  0  0  0  0  0  0  0  0  0
   10.3041  -17.1360   28.5715 O   0  0  0  0  0  0  0  0  0  0  0  0
  2  1  1  0
  3  2  2  0
  4  3  1  0
  5 11  1  0
  5  4  2  0
  6  5  1  0
  7  6  1  0
  7  8  1  6
  9  7  1  0
  9 10  2  0
 11 12  2  0
 12  2  1  0
 14 16  1  0
 14 13  1  1
 15 14  1  0
 17 16  1  1
 17 18  1  0
 18  9  1  0
 19 17  1  0
 20 19  2  0
 21 19  1  0
 22 21  1  0
 22 28  1  0
 22 23  1  6
 24 23  1  0
 25 24  1  0
 26 27  1  0
 26 25  1  0
 28 30  2  0
 28 29  1  0
M  END
$$$$
