YLK.pdb
     RDKit          3D

 30 30  0  0  1  0  0  0  0  0999 V2000
    7.7644  -14.0738   15.2636 O   0  0  0  0  0  0  0  0  0  0  0  0
    8.0530  -14.0612   16.6301 C   0  0  0  0  0  0  0  0  0  0  0  0
    8.7112  -15.1014   17.2454 C   0  0  0  0  0  0  0  0  0  0  0  0
    8.9751  -15.0466   18.5962 C   0  0  0  0  0  0  0  0  0  0  0  0
    8.5857  -13.9550   19.3457 C   0  0  0  0  0  0  0  0  0  0  0  0
    8.8906  -13.9433   20.7850 C   0  0  0  0  0  0  0  0  0  0  0  0
    8.4866  -15.2040   21.4872 C   0  0  2  0  0  0  0  0  0  0  0  0
    7.1587  -15.6397   21.1844 N   0  0  0  0  0  0  0  0  0  0  0  0
    8.7396  -15.0666   22.9386 C   0  0  0  0  0  0  0  0  0  0  0  0
    9.9364  -15.0124   23.3207 O   0  0  0  0  0  0  0  0  0  0  0  0
    7.9247  -12.9036   18.7433 C   0  0  0  0  0  0  0  0  0  0  0  0
    7.6696  -12.9771   17.3903 C   0  0  0  0  0  0  0  0  0  0  0  0
    7.8682  -11.9776   26.3729 C   0  0  0  0  0  0  0  0  0  0  0  0
    6.6719  -12.8048   25.8730 C   0  0  2  0  0  0  0  0  0  0  0  0
    5.4903  -12.3172   26.7150 C   0  0  0  0  0  0  0  0  0  0  0  0
    7.0038  -14.2271   26.1401 C   0  0  0  0  0  0  0  0  0  0  0  0
    8.0578  -14.8254   25.2804 C   0  0  2  0  0  0  0  0  0  0  0  0
    7.7224  -14.9934   23.9107 N   0  0  0  0  0  0  0  0  0  0  0  0
    8.3583  -16.1927   25.8476 C   0  0  0  0  0  0  0  0  0  0  0  0
    7.4825  -17.0957   25.7924 O   0  0  0  0  0  0  0  0  0  0  0  0
    9.6202  -16.4479   26.4360 N   0  0  0  0  0  0  0  0  0  0  0  0
    9.9646  -17.7748   26.9795 C   0  0  1  0  0  0  0  0  0  0  0  0
   10.8672  -18.4019   25.9743 C   0  0  0  0  0  0  0  0  0  0  0  0
   10.7965  -19.8963   26.0554 C   0  0  0  0  0  0  0  0  0  0  0  0
   11.7372  -20.5124   25.0644 C   0  0  0  0  0  0  0  0  0  0  0  0
   11.8254  -21.9976   25.2583 C   0  0  0  0  0  0  0  0  0  0  0  0
   12.7812  -22.5080   24.2858 N   0  0  0  0  0  0  0  0  0  0  0  0
   10.5005  -17.5816   28.3269 C   0  0  0  0  0  0  0  0  0  0  0  0
   10.5158  -18.6170   29.2366 O   0  0  0  0  0  0  0  0  0  0  0  0
   10.9585  -16.4835   28.6921 O   0  0  0  0  0  0  0  0  0  0  0  0
  2  1  1  0
  3  2  2  0
  4  3  1  0
  5 11  1  0
  5  4  2  0
  6  5  1  0
  7  6  1  0
  7  8  1  1
  9  7  1  0
  9 10  2  0
 11 12  2  0
 12  2  1  0
 14 16  1  0
 14 13  1  1
 15 14  1  0
 17 16  1  1
 17 18  1  0
 18  9  1  0
 19 17  1  0
 20 19  2  0
 21 19  1  0
 22 21  1  0
 22 28  1  0
 22 23  1  6
 24 23  1  0
 25 24  1  0
 26 27  1  0
 26 25  1  0
 28 30  2  0
 28 29  1  0
M  END
$$$$
