YLK.pdb
     RDKit          3D

 30 30  0  0  1  0  0  0  0  0999 V2000
   11.6775  -14.5538   30.2702 O   0  0  0  0  0  0  0  0  0  0  0  0
   10.9728  -15.3951   29.4064 C   0  0  0  0  0  0  0  0  0  0  0  0
   10.4884  -16.6171   29.8137 C   0  0  0  0  0  0  0  0  0  0  0  0
    9.7985  -17.4147   28.9276 C   0  0  0  0  0  0  0  0  0  0  0  0
    9.5852  -17.0017   27.6281 C   0  0  0  0  0  0  0  0  0  0  0  0
    8.8426  -17.8892   26.7194 C   0  0  0  0  0  0  0  0  0  0  0  0
    7.3893  -17.5412   26.6068 C   0  0  2  0  0  0  0  0  0  0  0  0
    6.5165  -18.6739   26.6171 N   0  0  0  0  0  0  0  0  0  0  0  0
    7.1804  -16.6534   25.4417 C   0  0  0  0  0  0  0  0  0  0  0  0
    6.6142  -17.1403   24.4299 O   0  0  0  0  0  0  0  0  0  0  0  0
   10.0647  -15.7788   27.2041 C   0  0  0  0  0  0  0  0  0  0  0  0
   10.7528  -14.9948   28.1058 C   0  0  0  0  0  0  0  0  0  0  0  0
    5.3884  -12.7237   26.0013 C   0  0  0  0  0  0  0  0  0  0  0  0
    6.9135  -12.6230   25.8301 C   0  0  2  0  0  0  0  0  0  0  0  0
    7.2265  -11.1408   26.0491 C   0  0  0  0  0  0  0  0  0  0  0  0
    7.2102  -13.0615   24.4430 C   0  0  0  0  0  0  0  0  0  0  0  0
    7.3447  -14.5265   24.2347 C   0  0  2  0  0  0  0  0  0  0  0  0
    7.5772  -15.3021   25.4015 N   0  0  0  0  0  0  0  0  0  0  0  0
    8.5220  -14.7288   23.3103 C   0  0  0  0  0  0  0  0  0  0  0  0
    8.9531  -13.7606   22.6303 O   0  0  0  0  0  0  0  0  0  0  0  0
    9.1307  -16.0033   23.2156 N   0  0  0  0  0  0  0  0  0  0  0  0
   10.2267  -16.2669   22.2649 C   0  0  1  0  0  0  0  0  0  0  0  0
   11.1243  -17.2431   22.9427 C   0  0  0  0  0  0  0  0  0  0  0  0
   12.2698  -16.5407   23.6057 C   0  0  0  0  0  0  0  0  0  0  0  0
   13.1382  -17.5307   24.3213 C   0  0  0  0  0  0  0  0  0  0  0  0
   14.2516  -16.8397   25.0521 C   0  0  0  0  0  0  0  0  0  0  0  0
   14.9223  -17.8397   25.8705 N   0  0  0  0  0  0  0  0  0  0  0  0
    9.6287  -16.6818   20.9959 C   0  0  0  0  0  0  0  0  0  0  0  0
   10.3146  -16.5338   19.8095 O   0  0  0  0  0  0  0  0  0  0  0  0
    8.4893  -17.1802   20.9474 O   0  0  0  0  0  0  0  0  0  0  0  0
  2  1  1  0
  3  2  2  0
  4  3  1  0
  5 11  1  0
  5  4  2  0
  6  5  1  0
  7  6  1  0
  7  8  1  6
  9  7  1  0
  9 10  2  0
 11 12  2  0
 12  2  1  0
 14 16  1  0
 14 13  1  6
 15 14  1  0
 17 16  1  1
 17 18  1  0
 18  9  1  0
 19 17  1  0
 20 19  2  0
 21 19  1  0
 22 21  1  0
 22 28  1  0
 22 23  1  1
 24 23  1  0
 25 24  1  0
 26 27  1  0
 26 25  1  0
 28 30  2  0
 28 29  1  0
M  END
$$$$
