FVN.pdb
     RDKit          3D

 27 27  0  0  1  0  0  0  0  0999 V2000
    6.1693  -18.0617   25.9045 N   0  0  0  0  0  0  0  0  0  0  0  0
    6.5647  -16.6989   25.6109 C   0  0  1  0  0  0  0  0  0  0  0  0
    7.1866  -16.1196   26.8682 C   0  0  0  0  0  0  0  0  0  0  0  0
    7.1159  -14.6505   26.8533 C   0  0  0  0  0  0  0  0  0  0  0  0
    5.8912  -14.0070   26.7598 C   0  0  0  0  0  0  0  0  0  0  0  0
    5.8525  -12.6299   26.7492 C   0  0  0  0  0  0  0  0  0  0  0  0
    7.0164  -11.9002   26.8307 C   0  0  0  0  0  0  0  0  0  0  0  0
    8.2295  -12.5589   26.9234 C   0  0  0  0  0  0  0  0  0  0  0  0
    8.3142  -13.9352   26.9373 C   0  0  0  0  0  0  0  0  0  0  0  0
    7.5494  -16.6786   24.4843 C   0  0  0  0  0  0  0  0  0  0  0  0
    8.4403  -17.5550   24.4205 O   0  0  0  0  0  0  0  0  0  0  0  0
    6.6552  -14.8957   20.8972 C   0  0  0  0  0  0  0  0  0  0  0  0
    8.0746  -14.7154   21.3572 C   0  0  1  0  0  0  0  0  0  0  0  0
    8.3949  -13.3137   21.7784 C   0  0  0  0  0  0  0  0  0  0  0  0
    8.4718  -15.7324   22.4060 C   0  0  2  0  0  0  0  0  0  0  0  0
    7.5153  -15.6897   23.4671 N   0  0  0  0  0  0  0  0  0  0  0  0
    9.8322  -15.3074   22.8969 C   0  0  0  0  0  0  0  0  0  0  0  0
    9.9631  -14.4969   23.8579 O   0  0  0  0  0  0  0  0  0  0  0  0
   13.1568  -18.0242   25.8245 N   0  0  0  0  0  0  0  0  0  0  0  0
   12.9293  -18.1940   24.4450 C   0  0  0  0  0  0  0  0  0  0  0  0
   13.7861  -18.8697   23.8046 O   0  0  0  0  0  0  0  0  0  0  0  0
   11.7551  -17.6213   23.7544 C   0  0  0  0  0  0  0  0  0  0  0  0
   12.1261  -16.3445   23.0863 C   0  0  2  0  0  0  0  0  0  0  0  0
   11.0197  -15.7946   22.3068 N   0  0  0  0  0  0  0  0  0  0  0  0
   13.2688  -16.5500   22.1765 C   0  0  0  0  0  0  0  0  0  0  0  0
   13.1762  -17.1468   20.9475 O   0  0  0  0  0  0  0  0  0  0  0  0
   14.4279  -16.1525   22.5433 O   0  0  0  0  0  0  0  0  0  0  0  0
  2  1  1  1
  2 10  1  0
  2  3  1  0
  3  4  1  0
  4  9  2  0
  4  5  1  0
  5  6  2  0
  6  7  1  0
  8  7  2  0
  9  8  1  0
 10 11  2  0
 13 12  1  1
 13 15  1  0
 14 13  1  0
 15 17  1  0
 16 10  1  0
 15 16  1  1
 17 24  1  0
 17 18  2  0
 19 20  1  0
 20 22  1  0
 21 20  2  0
 23 22  1  6
 23 25  1  0
 24 23  1  0
 25 27  2  0
 25 26  1  0
M  END
$$$$
