FVN.pdb
     RDKit          3D

 27 27  0  0  1  0  0  0  0  0999 V2000
    5.9606  -16.5440   24.3711 N   0  0  0  0  0  0  0  0  0  0  0  0
    6.7833  -15.4320   23.9390 C   0  0  1  0  0  0  0  0  0  0  0  0
    7.8827  -15.2461   24.9685 C   0  0  0  0  0  0  0  0  0  0  0  0
    7.6972  -13.9864   25.7048 C   0  0  0  0  0  0  0  0  0  0  0  0
    6.4754  -13.6870   26.2883 C   0  0  0  0  0  0  0  0  0  0  0  0
    6.3284  -12.5010   26.9736 C   0  0  0  0  0  0  0  0  0  0  0  0
    7.3824  -11.6223   27.0783 C   0  0  0  0  0  0  0  0  0  0  0  0
    8.5942  -11.9373   26.4898 C   0  0  0  0  0  0  0  0  0  0  0  0
    8.7851  -13.1129   25.7949 C   0  0  0  0  0  0  0  0  0  0  0  0
    7.3713  -15.7177   22.5929 C   0  0  0  0  0  0  0  0  0  0  0  0
    7.5607  -16.9018   22.2351 O   0  0  0  0  0  0  0  0  0  0  0  0
    6.6958  -13.0482   19.7235 C   0  0  0  0  0  0  0  0  0  0  0  0
    7.9920  -13.7736   19.4945 C   0  0  1  0  0  0  0  0  0  0  0  0
    9.1990  -12.8921   19.5987 C   0  0  0  0  0  0  0  0  0  0  0  0
    8.1148  -15.0147   20.3528 C   0  0  2  0  0  0  0  0  0  0  0  0
    7.7301  -14.6844   21.6890 N   0  0  0  0  0  0  0  0  0  0  0  0
    9.5683  -15.4103   20.2986 C   0  0  0  0  0  0  0  0  0  0  0  0
   10.0934  -15.8491   19.2359 O   0  0  0  0  0  0  0  0  0  0  0  0
   13.1213  -13.7053   19.1018 N   0  0  0  0  0  0  0  0  0  0  0  0
   13.1407  -14.9121   19.8277 C   0  0  0  0  0  0  0  0  0  0  0  0
   13.4458  -15.9589   19.1859 O   0  0  0  0  0  0  0  0  0  0  0  0
   12.8243  -14.9801   21.2696 C   0  0  0  0  0  0  0  0  0  0  0  0
   11.7192  -15.9480   21.5064 C   0  0  2  0  0  0  0  0  0  0  0  0
   10.4078  -15.3085   21.4304 N   0  0  0  0  0  0  0  0  0  0  0  0
   11.8499  -16.5661   22.8393 C   0  0  0  0  0  0  0  0  0  0  0  0
   11.4230  -15.9837   24.0028 O   0  0  0  0  0  0  0  0  0  0  0  0
   12.3955  -17.7192   22.9330 O   0  0  0  0  0  0  0  0  0  0  0  0
  2  1  1  1
  2 10  1  0
  2  3  1  0
  3  4  1  0
  4  9  2  0
  4  5  1  0
  5  6  2  0
  6  7  1  0
  8  7  2  0
  9  8  1  0
 10 11  2  0
 13 12  1  1
 13 15  1  0
 14 13  1  0
 15 17  1  0
 16 10  1  0
 15 16  1  1
 17 24  1  0
 17 18  2  0
 19 20  1  0
 20 22  1  0
 21 20  2  0
 23 22  1  1
 23 25  1  0
 24 23  1  0
 25 27  2  0
 25 26  1  0
M  END
$$$$
