FVN.pdb
     RDKit          3D

 27 27  0  0  1  0  0  0  0  0999 V2000
    6.4021  -17.3823   26.2200 N   0  0  0  0  0  0  0  0  0  0  0  0
    6.7712  -16.1399   25.5718 C   0  0  1  0  0  0  0  0  0  0  0  0
    7.7279  -15.4067   26.4940 C   0  0  0  0  0  0  0  0  0  0  0  0
    7.2870  -14.0192   26.7032 C   0  0  0  0  0  0  0  0  0  0  0  0
    5.9802  -13.6478   26.4253 C   0  0  0  0  0  0  0  0  0  0  0  0
    5.5924  -12.3420   26.6313 C   0  0  0  0  0  0  0  0  0  0  0  0
    6.4917  -11.4157   27.1077 C   0  0  0  0  0  0  0  0  0  0  0  0
    7.7915  -11.8038   27.3794 C   0  0  0  0  0  0  0  0  0  0  0  0
    8.2220  -13.0997   27.1878 C   0  0  0  0  0  0  0  0  0  0  0  0
    7.4256  -16.4191   24.2554 C   0  0  0  0  0  0  0  0  0  0  0  0
    8.1346  -17.4410   24.1172 O   0  0  0  0  0  0  0  0  0  0  0  0
    8.0798  -13.3843   21.5031 C   0  0  0  0  0  0  0  0  0  0  0  0
    7.7093  -14.7271   20.9389 C   0  0  1  0  0  0  0  0  0  0  0  0
    8.3140  -15.0007   19.5957 C   0  0  0  0  0  0  0  0  0  0  0  0
    7.9631  -15.8519   21.9199 C   0  0  2  0  0  0  0  0  0  0  0  0
    7.2741  -15.5588   23.1372 N   0  0  0  0  0  0  0  0  0  0  0  0
    9.4537  -15.8748   22.1430 C   0  0  0  0  0  0  0  0  0  0  0  0
   10.0509  -14.9147   22.7079 O   0  0  0  0  0  0  0  0  0  0  0  0
   10.7637  -19.2209   24.3594 N   0  0  0  0  0  0  0  0  0  0  0  0
   11.7201  -18.2870   23.9158 C   0  0  0  0  0  0  0  0  0  0  0  0
   12.1728  -17.4804   24.7790 O   0  0  0  0  0  0  0  0  0  0  0  0
   12.1891  -18.2306   22.5156 C   0  0  0  0  0  0  0  0  0  0  0  0
   11.7039  -16.9846   21.8626 C   0  0  2  0  0  0  0  0  0  0  0  0
   10.2489  -16.9678   21.7320 N   0  0  0  0  0  0  0  0  0  0  0  0
   12.2856  -16.8472   20.5141 C   0  0  0  0  0  0  0  0  0  0  0  0
   11.6524  -17.2263   19.3606 O   0  0  0  0  0  0  0  0  0  0  0  0
   13.4561  -16.3450   20.3961 O   0  0  0  0  0  0  0  0  0  0  0  0
  2  1  1  1
  2 10  1  0
  2  3  1  0
  3  4  1  0
  4  9  2  0
  4  5  1  0
  5  6  2  0
  6  7  1  0
  8  7  2  0
  9  8  1  0
 10 11  2  0
 13 12  1  1
 13 15  1  0
 14 13  1  0
 15 17  1  0
 16 10  1  0
 15 16  1  1
 17 24  1  0
 17 18  2  0
 19 20  1  0
 20 22  1  0
 21 20  2  0
 23 22  1  6
 23 25  1  0
 24 23  1  0
 25 27  2  0
 25 26  1  0
M  END
$$$$
