FVN.pdb
     RDKit          3D

 27 27  0  0  1  0  0  0  0  0999 V2000
    6.5585  -17.4702   26.1553 N   0  0  0  0  0  0  0  0  0  0  0  0
    6.8268  -16.2140   25.4846 C   0  0  1  0  0  0  0  0  0  0  0  0
    7.7198  -15.3892   26.3931 C   0  0  0  0  0  0  0  0  0  0  0  0
    7.1273  -14.0663   26.6423 C   0  0  0  0  0  0  0  0  0  0  0  0
    6.0130  -13.6500   25.9297 C   0  0  0  0  0  0  0  0  0  0  0  0
    5.4766  -12.4067   26.1833 C   0  0  0  0  0  0  0  0  0  0  0  0
    6.0401  -11.5862   27.1337 C   0  0  0  0  0  0  0  0  0  0  0  0
    7.1517  -12.0178   27.8352 C   0  0  0  0  0  0  0  0  0  0  0  0
    7.7207  -13.2541   27.6133 C   0  0  0  0  0  0  0  0  0  0  0  0
    7.5036  -16.4633   24.1734 C   0  0  0  0  0  0  0  0  0  0  0  0
    8.0939  -17.5486   23.9742 O   0  0  0  0  0  0  0  0  0  0  0  0
    8.9006  -14.7373   19.7444 C   0  0  0  0  0  0  0  0  0  0  0  0
    8.0724  -14.5962   20.9906 C   0  0  1  0  0  0  0  0  0  0  0  0
    6.6062  -14.4445   20.7222 C   0  0  0  0  0  0  0  0  0  0  0  0
    8.3590  -15.6900   21.9973 C   0  0  2  0  0  0  0  0  0  0  0  0
    7.5047  -15.5040   23.1278 N   0  0  0  0  0  0  0  0  0  0  0  0
    9.8051  -15.5209   22.3881 C   0  0  0  0  0  0  0  0  0  0  0  0
   10.1356  -14.9174   23.4482 O   0  0  0  0  0  0  0  0  0  0  0  0
   12.9921  -16.9226   24.7145 N   0  0  0  0  0  0  0  0  0  0  0  0
   12.2002  -17.9789   24.2237 C   0  0  0  0  0  0  0  0  0  0  0  0
   12.0103  -18.9584   25.0016 O   0  0  0  0  0  0  0  0  0  0  0  0
   11.6079  -17.9685   22.8700 C   0  0  0  0  0  0  0  0  0  0  0  0
   12.0072  -16.7315   22.1456 C   0  0  2  0  0  0  0  0  0  0  0  0
   10.8539  -16.0283   21.5891 N   0  0  0  0  0  0  0  0  0  0  0  0
   12.9243  -17.0550   21.0365 C   0  0  0  0  0  0  0  0  0  0  0  0
   14.1619  -16.4924   20.8725 O   0  0  0  0  0  0  0  0  0  0  0  0
   12.5557  -17.9129   20.1622 O   0  0  0  0  0  0  0  0  0  0  0  0
  2  1  1  1
  2 10  1  0
  2  3  1  0
  3  4  1  0
  4  9  2  0
  4  5  1  0
  5  6  2  0
  6  7  1  0
  8  7  2  0
  9  8  1  0
 10 11  2  0
 13 12  1  6
 13 15  1  0
 14 13  1  0
 15 17  1  0
 16 10  1  0
 15 16  1  1
 17 24  1  0
 17 18  2  0
 19 20  1  0
 20 22  1  0
 21 20  2  0
 23 22  1  6
 23 25  1  0
 24 23  1  0
 25 27  2  0
 25 26  1  0
M  END
$$$$
