FVN.pdb
     RDKit          3D

 27 27  0  0  1  0  0  0  0  0999 V2000
    6.2924  -18.9446   23.4405 N   0  0  0  0  0  0  0  0  0  0  0  0
    6.4913  -18.2007   24.6681 C   0  0  1  0  0  0  0  0  0  0  0  0
    7.4828  -18.9734   25.5184 C   0  0  0  0  0  0  0  0  0  0  0  0
    6.8287  -20.1209   26.1654 C   0  0  0  0  0  0  0  0  0  0  0  0
    6.7913  -21.3555   25.5352 C   0  0  0  0  0  0  0  0  0  0  0  0
    6.1736  -22.4145   26.1635 C   0  0  0  0  0  0  0  0  0  0  0  0
    5.5997  -22.2497   27.4033 C   0  0  0  0  0  0  0  0  0  0  0  0
    5.6463  -21.0108   28.0175 C   0  0  0  0  0  0  0  0  0  0  0  0
    6.2540  -19.9242   27.4247 C   0  0  0  0  0  0  0  0  0  0  0  0
    7.0185  -16.8337   24.3636 C   0  0  0  0  0  0  0  0  0  0  0  0
    7.8875  -16.6854   23.4754 O   0  0  0  0  0  0  0  0  0  0  0  0
    5.8176  -13.8425   27.0130 C   0  0  0  0  0  0  0  0  0  0  0  0
    6.6912  -13.4320   25.8610 C   0  0  1  0  0  0  0  0  0  0  0  0
    7.5701  -12.2570   26.1639 C   0  0  0  0  0  0  0  0  0  0  0  0
    7.4711  -14.5966   25.2884 C   0  0  2  0  0  0  0  0  0  0  0  0
    6.5670  -15.6778   25.0518 N   0  0  0  0  0  0  0  0  0  0  0  0
    8.4849  -14.9695   26.3398 C   0  0  0  0  0  0  0  0  0  0  0  0
    8.1604  -15.6410   27.3602 O   0  0  0  0  0  0  0  0  0  0  0  0
   11.3427  -16.5327   24.7723 N   0  0  0  0  0  0  0  0  0  0  0  0
   12.3588  -15.6807   25.2469 C   0  0  0  0  0  0  0  0  0  0  0  0
   13.3969  -15.5771   24.5311 O   0  0  0  0  0  0  0  0  0  0  0  0
   12.2433  -14.9325   26.5160 C   0  0  0  0  0  0  0  0  0  0  0  0
   10.8876  -15.1206   27.0999 C   0  0  2  0  0  0  0  0  0  0  0  0
    9.8405  -14.5865   26.2324 N   0  0  0  0  0  0  0  0  0  0  0  0
   10.7887  -14.4429   28.4064 C   0  0  0  0  0  0  0  0  0  0  0  0
   11.3885  -14.8910   29.5530 O   0  0  0  0  0  0  0  0  0  0  0  0
   10.1018  -13.3673   28.4923 O   0  0  0  0  0  0  0  0  0  0  0  0
  2  1  1  6
  2 10  1  0
  2  3  1  0
  3  4  1  0
  4  9  2  0
  4  5  1  0
  5  6  2  0
  6  7  1  0
  8  7  2  0
  9  8  1  0
 10 11  2  0
 13 12  1  1
 13 15  1  0
 14 13  1  0
 15 17  1  0
 16 10  1  0
 15 16  1  1
 17 24  1  0
 17 18  2  0
 19 20  1  0
 20 22  1  0
 21 20  2  0
 23 22  1  6
 23 25  1  0
 24 23  1  0
 25 27  2  0
 25 26  1  0
M  END
$$$$
