FVN.pdb
     RDKit          3D

 27 27  0  0  1  0  0  0  0  0999 V2000
    4.9516  -14.8665   21.8218 N   0  0  0  0  0  0  0  0  0  0  0  0
    6.1032  -15.5723   22.3466 C   0  0  1  0  0  0  0  0  0  0  0  0
    7.0346  -15.8612   21.1838 C   0  0  0  0  0  0  0  0  0  0  0  0
    7.4900  -14.6096   20.5597 C   0  0  0  0  0  0  0  0  0  0  0  0
    8.4712  -13.8391   21.1649 C   0  0  0  0  0  0  0  0  0  0  0  0
    8.8808  -12.6718   20.5588 C   0  0  0  0  0  0  0  0  0  0  0  0
    8.3227  -12.2741   19.3655 C   0  0  0  0  0  0  0  0  0  0  0  0
    7.3448  -13.0551   18.7758 C   0  0  0  0  0  0  0  0  0  0  0  0
    6.9052  -14.2303   19.3477 C   0  0  0  0  0  0  0  0  0  0  0  0
    6.7964  -14.7357   23.3756 C   0  0  0  0  0  0  0  0  0  0  0  0
    7.0961  -13.5492   23.1141 O   0  0  0  0  0  0  0  0  0  0  0  0
    6.4014  -14.3498   27.0981 C   0  0  0  0  0  0  0  0  0  0  0  0
    7.6279  -13.7549   26.4652 C   0  0  1  0  0  0  0  0  0  0  0  0
    8.6615  -13.3159   27.4571 C   0  0  0  0  0  0  0  0  0  0  0  0
    8.2100  -14.6480   25.3904 C   0  0  2  0  0  0  0  0  0  0  0  0
    7.1348  -15.2398   24.6582 N   0  0  0  0  0  0  0  0  0  0  0  0
    9.0042  -15.7029   26.1175 C   0  0  0  0  0  0  0  0  0  0  0  0
    8.4481  -16.5241   26.9010 O   0  0  0  0  0  0  0  0  0  0  0  0
   13.2366  -19.4190   25.3466 N   0  0  0  0  0  0  0  0  0  0  0  0
   13.2408  -18.2503   26.1325 C   0  0  0  0  0  0  0  0  0  0  0  0
   13.8985  -18.2916   27.2125 O   0  0  0  0  0  0  0  0  0  0  0  0
   12.5203  -17.0220   25.7380 C   0  0  0  0  0  0  0  0  0  0  0  0
   11.1412  -17.0352   26.2965 C   0  0  2  0  0  0  0  0  0  0  0  0
   10.4028  -15.8213   25.9566 N   0  0  0  0  0  0  0  0  0  0  0  0
   11.1797  -17.1504   27.7666 C   0  0  0  0  0  0  0  0  0  0  0  0
   11.1074  -16.0852   28.6240 O   0  0  0  0  0  0  0  0  0  0  0  0
   11.2887  -18.3119   28.2911 O   0  0  0  0  0  0  0  0  0  0  0  0
  2  1  1  6
  2 10  1  0
  2  3  1  0
  3  4  1  0
  4  9  2  0
  4  5  1  0
  5  6  2  0
  6  7  1  0
  8  7  2  0
  9  8  1  0
 10 11  2  0
 13 12  1  1
 13 15  1  0
 14 13  1  0
 15 17  1  0
 16 10  1  0
 15 16  1  1
 17 24  1  0
 17 18  2  0
 19 20  1  0
 20 22  1  0
 21 20  2  0
 23 22  1  1
 23 25  1  0
 24 23  1  0
 25 27  2  0
 25 26  1  0
M  END
$$$$
