FVN.pdb
     RDKit          3D

 27 27  0  0  1  0  0  0  0  0999 V2000
    5.9225  -17.6467   25.5769 N   0  0  0  0  0  0  0  0  0  0  0  0
    6.5356  -16.3766   25.2439 C   0  0  1  0  0  0  0  0  0  0  0  0
    7.2942  -15.8973   26.4678 C   0  0  0  0  0  0  0  0  0  0  0  0
    7.2846  -14.4284   26.5428 C   0  0  0  0  0  0  0  0  0  0  0  0
    8.4746  -13.7166   26.5335 C   0  0  0  0  0  0  0  0  0  0  0  0
    8.4377  -12.3413   26.6034 C   0  0  0  0  0  0  0  0  0  0  0  0
    7.2333  -11.6803   26.6814 C   0  0  0  0  0  0  0  0  0  0  0  0
    6.0557  -12.4065   26.6896 C   0  0  0  0  0  0  0  0  0  0  0  0
    6.0465  -13.7837   26.6215 C   0  0  0  0  0  0  0  0  0  0  0  0
    7.4665  -16.5412   24.0839 C   0  0  0  0  0  0  0  0  0  0  0  0
    7.9748  -17.6601   23.8478 O   0  0  0  0  0  0  0  0  0  0  0  0
    8.8576  -14.6956   19.7298 C   0  0  0  0  0  0  0  0  0  0  0  0
    8.0370  -14.6536   20.9881 C   0  0  1  0  0  0  0  0  0  0  0  0
    6.5594  -14.6434   20.7403 C   0  0  0  0  0  0  0  0  0  0  0  0
    8.4436  -15.7274   21.9749 C   0  0  2  0  0  0  0  0  0  0  0  0
    7.8037  -15.4631   23.2251 N   0  0  0  0  0  0  0  0  0  0  0  0
    9.9411  -15.6175   22.1086 C   0  0  0  0  0  0  0  0  0  0  0  0
   10.7140  -15.9578   21.1682 O   0  0  0  0  0  0  0  0  0  0  0  0
   12.5254  -19.2472   24.8324 N   0  0  0  0  0  0  0  0  0  0  0  0
   12.1768  -17.9238   25.1651 C   0  0  0  0  0  0  0  0  0  0  0  0
   12.8442  -17.3730   26.0880 O   0  0  0  0  0  0  0  0  0  0  0  0
   11.0886  -17.1912   24.4847 C   0  0  0  0  0  0  0  0  0  0  0  0
   11.5786  -15.8674   24.0138 C   0  0  2  0  0  0  0  0  0  0  0  0
   10.5471  -15.1301   23.2880 N   0  0  0  0  0  0  0  0  0  0  0  0
   12.7379  -16.0341   23.1172 C   0  0  0  0  0  0  0  0  0  0  0  0
   12.6729  -16.6018   21.8728 O   0  0  0  0  0  0  0  0  0  0  0  0
   13.8853  -15.6293   23.5117 O   0  0  0  0  0  0  0  0  0  0  0  0
  2  1  1  1
  2 10  1  0
  2  3  1  0
  3  4  1  0
  4  9  2  0
  4  5  1  0
  5  6  2  0
  6  7  1  0
  8  7  2  0
  9  8  1  0
 10 11  2  0
 13 12  1  6
 13 15  1  0
 14 13  1  0
 15 17  1  0
 16 10  1  0
 15 16  1  1
 17 24  1  0
 17 18  2  0
 19 20  1  0
 20 22  1  0
 21 20  2  0
 23 22  1  6
 23 25  1  0
 24 23  1  0
 25 27  2  0
 25 26  1  0
M  END
$$$$
