FVN.pdb
     RDKit          3D

 27 27  0  0  1  0  0  0  0  0999 V2000
    7.1263  -16.1442   24.7975 N   0  0  0  0  0  0  0  0  0  0  0  0
    7.2497  -14.9835   23.9387 C   0  0  1  0  0  0  0  0  0  0  0  0
    8.2432  -14.0363   24.5859 C   0  0  0  0  0  0  0  0  0  0  0  0
    7.6542  -13.3968   25.7723 C   0  0  0  0  0  0  0  0  0  0  0  0
    8.3185  -13.4265   26.9890 C   0  0  0  0  0  0  0  0  0  0  0  0
    7.7457  -12.8187   28.0846 C   0  0  0  0  0  0  0  0  0  0  0  0
    6.5273  -12.1887   27.9733 C   0  0  0  0  0  0  0  0  0  0  0  0
    5.8785  -12.1689   26.7516 C   0  0  0  0  0  0  0  0  0  0  0  0
    6.4155  -12.7645   25.6297 C   0  0  0  0  0  0  0  0  0  0  0  0
    7.7277  -15.3942   22.5815 C   0  0  0  0  0  0  0  0  0  0  0  0
    7.9561  -16.6009   22.3408 O   0  0  0  0  0  0  0  0  0  0  0  0
    6.8893  -12.9622   19.4265 C   0  0  0  0  0  0  0  0  0  0  0  0
    8.1611  -13.7467   19.2656 C   0  0  1  0  0  0  0  0  0  0  0  0
    9.3971  -12.9011   19.3114 C   0  0  0  0  0  0  0  0  0  0  0  0
    8.2359  -14.9206   20.2187 C   0  0  2  0  0  0  0  0  0  0  0  0
    7.9372  -14.4567   21.5371 N   0  0  0  0  0  0  0  0  0  0  0  0
    9.6542  -15.4251   20.1395 C   0  0  0  0  0  0  0  0  0  0  0  0
   10.0806  -16.0368   19.1190 O   0  0  0  0  0  0  0  0  0  0  0  0
   13.2655  -14.5481   18.5157 N   0  0  0  0  0  0  0  0  0  0  0  0
   13.5573  -15.3245   19.6539 C   0  0  0  0  0  0  0  0  0  0  0  0
   14.3361  -16.3079   19.4892 O   0  0  0  0  0  0  0  0  0  0  0  0
   12.9946  -15.0267   20.9875 C   0  0  0  0  0  0  0  0  0  0  0  0
   11.8508  -15.9341   21.2751 C   0  0  2  0  0  0  0  0  0  0  0  0
   10.5689  -15.2374   21.1996 N   0  0  0  0  0  0  0  0  0  0  0  0
   11.9774  -16.5137   22.6255 C   0  0  0  0  0  0  0  0  0  0  0  0
   11.0210  -16.4103   23.6001 O   0  0  0  0  0  0  0  0  0  0  0  0
   13.0427  -17.1563   22.9230 O   0  0  0  0  0  0  0  0  0  0  0  0
  2  1  1  1
  2 10  1  0
  2  3  1  0
  3  4  1  0
  4  9  2  0
  4  5  1  0
  5  6  2  0
  6  7  1  0
  8  7  2  0
  9  8  1  0
 10 11  2  0
 13 12  1  1
 13 15  1  0
 14 13  1  0
 15 17  1  0
 16 10  1  0
 15 16  1  1
 17 24  1  0
 17 18  2  0
 19 20  1  0
 20 22  1  0
 21 20  2  0
 23 22  1  1
 23 25  1  0
 24 23  1  0
 25 27  2  0
 25 26  1  0
M  END
$$$$
