FVN.pdb
     RDKit          3D

 27 27  0  0  1  0  0  0  0  0999 V2000
    6.1807  -16.6726   25.5355 N   0  0  0  0  0  0  0  0  0  0  0  0
    6.7526  -15.5644   24.7975 C   0  0  1  0  0  0  0  0  0  0  0  0
    7.9250  -15.0329   25.6014 C   0  0  0  0  0  0  0  0  0  0  0  0
    7.5351  -13.8331   26.3575 C   0  0  0  0  0  0  0  0  0  0  0  0
    8.3101  -13.3882   27.4178 C   0  0  0  0  0  0  0  0  0  0  0  0
    7.9234  -12.2608   28.1088 C   0  0  0  0  0  0  0  0  0  0  0  0
    6.7804  -11.5830   27.7511 C   0  0  0  0  0  0  0  0  0  0  0  0
    6.0192  -12.0412   26.6906 C   0  0  0  0  0  0  0  0  0  0  0  0
    6.3692  -13.1648   25.9719 C   0  0  0  0  0  0  0  0  0  0  0  0
    7.2097  -16.0237   23.4487 C   0  0  0  0  0  0  0  0  0  0  0  0
    7.3651  -17.2454   23.2269 O   0  0  0  0  0  0  0  0  0  0  0  0
    6.3397  -14.1060   19.9188 C   0  0  0  0  0  0  0  0  0  0  0  0
    7.7737  -14.5196   20.0956 C   0  0  1  0  0  0  0  0  0  0  0  0
    8.7035  -13.3704   20.3401 C   0  0  0  0  0  0  0  0  0  0  0  0
    7.9323  -15.6133   21.1304 C   0  0  2  0  0  0  0  0  0  0  0  0
    7.4796  -15.1164   22.3915 N   0  0  0  0  0  0  0  0  0  0  0  0
    9.4066  -15.9242   21.1777 C   0  0  0  0  0  0  0  0  0  0  0  0
   10.0351  -16.2988   20.1472 O   0  0  0  0  0  0  0  0  0  0  0  0
   14.4771  -15.7004   24.3817 N   0  0  0  0  0  0  0  0  0  0  0  0
   13.8014  -15.5796   23.1518 C   0  0  0  0  0  0  0  0  0  0  0  0
   14.4553  -15.8764   22.1102 O   0  0  0  0  0  0  0  0  0  0  0  0
   12.3970  -15.1303   23.0549 C   0  0  0  0  0  0  0  0  0  0  0  0
   11.5523  -16.2104   22.4769 C   0  0  2  0  0  0  0  0  0  0  0  0
   10.1508  -15.8111   22.3732 N   0  0  0  0  0  0  0  0  0  0  0  0
   11.6214  -17.4240   23.3124 C   0  0  0  0  0  0  0  0  0  0  0  0
   10.8863  -17.6167   24.4516 O   0  0  0  0  0  0  0  0  0  0  0  0
   12.4142  -18.3662   22.9663 O   0  0  0  0  0  0  0  0  0  0  0  0
  2  1  1  1
  2 10  1  0
  2  3  1  0
  3  4  1  0
  4  9  2  0
  4  5  1  0
  5  6  2  0
  6  7  1  0
  8  7  2  0
  9  8  1  0
 10 11  2  0
 13 12  1  1
 13 15  1  0
 14 13  1  0
 15 17  1  0
 16 10  1  0
 15 16  1  1
 17 24  1  0
 17 18  2  0
 19 20  1  0
 20 22  1  0
 21 20  2  0
 23 22  1  1
 23 25  1  0
 24 23  1  0
 25 27  2  0
 25 26  1  0
M  END
$$$$
