FVN.pdb
     RDKit          3D

 27 27  0  0  1  0  0  0  0  0999 V2000
    9.8191  -14.7809   21.4560 N   0  0  0  0  0  0  0  0  0  0  0  0
    8.6985  -14.2610   22.2137 C   0  0  1  0  0  0  0  0  0  0  0  0
    7.4284  -14.8148   21.5946 C   0  0  0  0  0  0  0  0  0  0  0  0
    7.2179  -14.2537   20.2513 C   0  0  0  0  0  0  0  0  0  0  0  0
    7.3239  -12.8881   20.0358 C   0  0  0  0  0  0  0  0  0  0  0  0
    7.1233  -12.3883   18.7677 C   0  0  0  0  0  0  0  0  0  0  0  0
    6.8210  -13.2348   17.7257 C   0  0  0  0  0  0  0  0  0  0  0  0
    6.7190  -14.5947   17.9590 C   0  0  0  0  0  0  0  0  0  0  0  0
    6.9118  -15.1373   19.2119 C   0  0  0  0  0  0  0  0  0  0  0  0
    8.8062  -14.6788   23.6465 C   0  0  0  0  0  0  0  0  0  0  0  0
    9.5707  -15.6168   23.9656 O   0  0  0  0  0  0  0  0  0  0  0  0
    7.7607  -12.1926   27.0101 C   0  0  0  0  0  0  0  0  0  0  0  0
    7.3320  -13.6299   26.9144 C   0  0  1  0  0  0  0  0  0  0  0  0
    5.8923  -13.8022   26.5370 C   0  0  0  0  0  0  0  0  0  0  0  0
    8.2551  -14.4470   26.0356 C   0  0  2  0  0  0  0  0  0  0  0  0
    8.0646  -14.0455   24.6773 N   0  0  0  0  0  0  0  0  0  0  0  0
    7.8428  -15.8839   26.2298 C   0  0  0  0  0  0  0  0  0  0  0  0
    6.6305  -16.2074   26.3824 O   0  0  0  0  0  0  0  0  0  0  0  0
    7.4969  -18.8415   23.9700 N   0  0  0  0  0  0  0  0  0  0  0  0
    8.7460  -18.9740   24.6071 C   0  0  0  0  0  0  0  0  0  0  0  0
    9.7722  -18.7420   23.9044 O   0  0  0  0  0  0  0  0  0  0  0  0
    8.8795  -19.3638   26.0263 C   0  0  0  0  0  0  0  0  0  0  0  0
    8.5438  -18.2127   26.9074 C   0  0  2  0  0  0  0  0  0  0  0  0
    8.7902  -16.9316   26.2497 N   0  0  0  0  0  0  0  0  0  0  0  0
    9.3490  -18.2548   28.1426 C   0  0  0  0  0  0  0  0  0  0  0  0
   10.2956  -17.3233   28.4762 O   0  0  0  0  0  0  0  0  0  0  0  0
    9.1655  -19.2168   28.9654 O   0  0  0  0  0  0  0  0  0  0  0  0
  2  1  1  6
  2 10  1  0
  2  3  1  0
  3  4  1  0
  4  9  2  0
  4  5  1  0
  5  6  2  0
  6  7  1  0
  8  7  2  0
  9  8  1  0
 10 11  2  0
 13 12  1  6
 13 15  1  0
 14 13  1  0
 15 17  1  0
 16 10  1  0
 15 16  1  6
 17 24  1  0
 17 18  2  0
 19 20  1  0
 20 22  1  0
 21 20  2  0
 23 22  1  6
 23 25  1  0
 24 23  1  0
 25 27  2  0
 25 26  1  0
M  END
$$$$
