CAY.pdb
     RDKit          3D

 24 24  0  0  1  0  0  0  0  0999 V2000
    6.5278  -19.5370   20.6278 N   0  0  0  0  0  0  0  0  0  0  0  0
    6.0605  -18.3423   21.3063 C   0  0  1  0  0  0  0  0  0  0  0  0
    5.7176  -18.7051   22.7339 C   0  0  0  0  0  0  0  0  0  0  0  0
    7.1847  -18.5850   23.7926 S   0  0  0  0  0  0  0  0  0  0  0  0
    7.1663  -17.3304   21.2621 C   0  0  0  0  0  0  0  0  0  0  0  0
    8.3635  -17.6764   21.0715 O   0  0  0  0  0  0  0  0  0  0  0  0
    7.3961  -13.6206   21.1752 C   0  0  0  0  0  0  0  0  0  0  0  0
    8.0006  -14.9935   21.4212 C   0  0  2  0  0  0  0  0  0  0  0  0
    6.9247  -15.9415   21.4313 N   0  0  0  0  0  0  0  0  0  0  0  0
    8.8231  -15.0331   22.6409 C   0  0  0  0  0  0  0  0  0  0  0  0
    9.8312  -14.2779   22.6874 O   0  0  0  0  0  0  0  0  0  0  0  0
    5.7297  -10.8628   26.9287 O   0  0  0  0  0  0  0  0  0  0  0  0
    6.3878  -12.0718   26.7327 C   0  0  0  0  0  0  0  0  0  0  0  0
    7.7635  -12.1707   26.7363 C   0  0  0  0  0  0  0  0  0  0  0  0
    8.4036  -13.3770   26.5406 C   0  0  0  0  0  0  0  0  0  0  0  0
    7.6884  -14.5466   26.3311 C   0  0  0  0  0  0  0  0  0  0  0  0
    8.3692  -15.8389   26.1127 C   0  0  0  0  0  0  0  0  0  0  0  0
    9.3718  -15.8276   24.9866 C   0  0  2  0  0  0  0  0  0  0  0  0
    8.5771  -15.8460   23.7630 N   0  0  0  0  0  0  0  0  0  0  0  0
   10.2496  -17.0003   25.0887 C   0  0  0  0  0  0  0  0  0  0  0  0
   10.1834  -17.8836   24.1975 O   0  0  0  0  0  0  0  0  0  0  0  0
    6.3146  -14.4382   26.3290 C   0  0  0  0  0  0  0  0  0  0  0  0
    5.6673  -13.2289   26.5252 C   0  0  0  0  0  0  0  0  0  0  0  0
   11.1512  -17.1830   26.1209 O   0  0  0  0  0  0  0  0  0  0  0  0
  2  1  1  6
  2  3  1  0
  3  4  1  0
  5  2  1  0
  6  5  2  0
  8  7  1  1
  8  9  1  0
  9  5  1  0
 10  8  1  0
 10 19  1  0
 11 10  2  0
 13 12  1  0
 14 13  2  0
 15 14  1  0
 16 22  1  0
 16 15  2  0
 17 16  1  0
 18 19  1  0
 18 17  1  1
 20 18  1  0
 21 20  2  0
 22 23  2  0
 23 13  1  0
 24 20  1  0
M  END
$$$$
