CAY.pdb
     RDKit          3D

 24 24  0  0  1  0  0  0  0  0999 V2000
    7.8011  -14.6905   16.9445 N   0  0  0  0  0  0  0  0  0  0  0  0
    9.1105  -14.7310   17.5690 C   0  0  1  0  0  0  0  0  0  0  0  0
    9.5313  -13.3147   17.8921 C   0  0  0  0  0  0  0  0  0  0  0  0
    8.3639  -12.5510   19.0504 S   0  0  0  0  0  0  0  0  0  0  0  0
    8.9954  -15.5532   18.8176 C   0  0  0  0  0  0  0  0  0  0  0  0
    7.9045  -15.6456   19.4428 O   0  0  0  0  0  0  0  0  0  0  0  0
   11.1076  -18.0801   20.5239 C   0  0  0  0  0  0  0  0  0  0  0  0
    9.9561  -17.0877   20.5221 C   0  0  2  0  0  0  0  0  0  0  0  0
   10.0997  -16.2646   19.3566 N   0  0  0  0  0  0  0  0  0  0  0  0
    9.8788  -16.3170   21.7734 C   0  0  0  0  0  0  0  0  0  0  0  0
   10.6259  -15.3077   21.8819 O   0  0  0  0  0  0  0  0  0  0  0  0
    6.2096  -10.8577   27.2905 O   0  0  0  0  0  0  0  0  0  0  0  0
    6.5158  -11.9560   26.4949 C   0  0  0  0  0  0  0  0  0  0  0  0
    7.3563  -11.8648   25.4051 C   0  0  0  0  0  0  0  0  0  0  0  0
    7.6517  -12.9630   24.6242 C   0  0  0  0  0  0  0  0  0  0  0  0
    7.1141  -14.2107   24.9024 C   0  0  0  0  0  0  0  0  0  0  0  0
    7.4207  -15.3875   24.0643 C   0  0  0  0  0  0  0  0  0  0  0  0
    8.8799  -15.7661   24.0391 C   0  0  2  0  0  0  0  0  0  0  0  0
    9.0378  -16.6139   22.8620 N   0  0  0  0  0  0  0  0  0  0  0  0
    9.2329  -16.4736   25.2764 C   0  0  0  0  0  0  0  0  0  0  0  0
    8.9692  -17.6987   25.3678 O   0  0  0  0  0  0  0  0  0  0  0  0
    6.2754  -14.2923   25.9929 C   0  0  0  0  0  0  0  0  0  0  0  0
    5.9759  -13.1922   26.7802 C   0  0  0  0  0  0  0  0  0  0  0  0
    9.8450  -15.8573   26.3521 O   0  0  0  0  0  0  0  0  0  0  0  0
  2  1  1  1
  2  3  1  0
  3  4  1  0
  5  2  1  0
  6  5  2  0
  8  7  1  1
  8  9  1  0
  9  5  1  0
 10  8  1  0
 10 19  1  0
 11 10  2  0
 13 12  1  0
 14 13  2  0
 15 14  1  0
 16 22  1  0
 16 15  2  0
 17 16  1  0
 18 19  1  0
 18 17  1  1
 20 18  1  0
 21 20  2  0
 22 23  2  0
 23 13  1  0
 24 20  1  0
M  END
$$$$
