CAY.pdb
     RDKit          3D

 24 24  0  0  1  0  0  0  0  0999 V2000
    7.8190  -13.9889   17.8436 N   0  0  0  0  0  0  0  0  0  0  0  0
    8.4434  -13.8134   19.1418 C   0  0  1  0  0  0  0  0  0  0  0  0
    7.8994  -12.5490   19.7683 C   0  0  0  0  0  0  0  0  0  0  0  0
    8.6648  -12.2582   21.3861 S   0  0  0  0  0  0  0  0  0  0  0  0
    8.1055  -15.0124   19.9765 C   0  0  0  0  0  0  0  0  0  0  0  0
    7.3013  -15.8917   19.5647 O   0  0  0  0  0  0  0  0  0  0  0  0
   10.0038  -17.1134   20.7142 C   0  0  0  0  0  0  0  0  0  0  0  0
    9.0221  -16.5316   21.7185 C   0  0  2  0  0  0  0  0  0  0  0  0
    8.6689  -15.2184   21.2635 N   0  0  0  0  0  0  0  0  0  0  0  0
    9.5495  -16.5496   23.0923 C   0  0  0  0  0  0  0  0  0  0  0  0
   10.7455  -16.9142   23.2515 O   0  0  0  0  0  0  0  0  0  0  0  0
    6.3348  -10.6331   26.0460 O   0  0  0  0  0  0  0  0  0  0  0  0
    6.7646  -11.9509   26.1565 C   0  0  0  0  0  0  0  0  0  0  0  0
    5.8879  -12.9978   26.3501 C   0  0  0  0  0  0  0  0  0  0  0  0
    6.3280  -14.3008   26.4579 C   0  0  0  0  0  0  0  0  0  0  0  0
    7.6763  -14.6150   26.3759 C   0  0  0  0  0  0  0  0  0  0  0  0
    8.1531  -16.0074   26.4993 C   0  0  0  0  0  0  0  0  0  0  0  0
    9.3243  -16.3415   25.6104 C   0  0  2  0  0  0  0  0  0  0  0  0
    8.8277  -16.1925   24.2465 N   0  0  0  0  0  0  0  0  0  0  0  0
    9.7817  -17.7102   25.8817 C   0  0  0  0  0  0  0  0  0  0  0  0
    9.3486  -18.6452   25.1627 O   0  0  0  0  0  0  0  0  0  0  0  0
    8.5448  -13.5627   26.1826 C   0  0  0  0  0  0  0  0  0  0  0  0
    8.1074  -12.2524   26.0736 C   0  0  0  0  0  0  0  0  0  0  0  0
   10.6705  -18.0245   26.8930 O   0  0  0  0  0  0  0  0  0  0  0  0
  2  1  1  6
  2  3  1  0
  3  4  1  0
  5  2  1  0
  6  5  2  0
  8  7  1  6
  8  9  1  0
  9  5  1  0
 10  8  1  0
 10 19  1  0
 11 10  2  0
 13 12  1  0
 14 13  2  0
 15 14  1  0
 16 22  1  0
 16 15  2  0
 17 16  1  0
 18 19  1  0
 18 17  1  1
 20 18  1  0
 21 20  2  0
 22 23  2  0
 23 13  1  0
 24 20  1  0
M  END
$$$$
