CAY.pdb
     RDKit          3D

 24 24  0  0  1  0  0  0  0  0999 V2000
    7.7903  -18.5908   18.4958 N   0  0  0  0  0  0  0  0  0  0  0  0
    7.2963  -17.9553   19.7034 C   0  0  1  0  0  0  0  0  0  0  0  0
    7.4273  -18.9348   20.8483 C   0  0  0  0  0  0  0  0  0  0  0  0
    5.8650  -19.8154   21.1163 S   0  0  0  0  0  0  0  0  0  0  0  0
    8.1280  -16.7318   19.9481 C   0  0  0  0  0  0  0  0  0  0  0  0
    9.3853  -16.7664   19.8623 O   0  0  0  0  0  0  0  0  0  0  0  0
    7.4536  -13.1373   20.7029 C   0  0  0  0  0  0  0  0  0  0  0  0
    8.3626  -14.3538   20.6358 C   0  0  2  0  0  0  0  0  0  0  0  0
    7.5477  -15.4809   20.2865 N   0  0  0  0  0  0  0  0  0  0  0  0
    9.1274  -14.5508   21.8776 C   0  0  0  0  0  0  0  0  0  0  0  0
   10.2390  -13.9646   21.9753 O   0  0  0  0  0  0  0  0  0  0  0  0
    5.5025  -10.9963   26.7597 O   0  0  0  0  0  0  0  0  0  0  0  0
    6.1940  -12.1476   26.3995 C   0  0  0  0  0  0  0  0  0  0  0  0
    5.6226  -13.4011   26.4655 C   0  0  0  0  0  0  0  0  0  0  0  0
    6.3204  -14.5352   26.1048 C   0  0  0  0  0  0  0  0  0  0  0  0
    7.6315  -14.4632   25.6585 C   0  0  0  0  0  0  0  0  0  0  0  0
    8.3854  -15.6753   25.2793 C   0  0  0  0  0  0  0  0  0  0  0  0
    9.4439  -15.4430   24.2311 C   0  0  2  0  0  0  0  0  0  0  0  0
    8.7198  -15.3413   22.9683 N   0  0  0  0  0  0  0  0  0  0  0  0
   10.3971  -16.5599   24.2289 C   0  0  0  0  0  0  0  0  0  0  0  0
   10.3831  -17.3639   23.2634 O   0  0  0  0  0  0  0  0  0  0  0  0
    8.1942  -13.2067   25.5960 C   0  0  0  0  0  0  0  0  0  0  0  0
    7.4973  -12.0649   25.9572 C   0  0  0  0  0  0  0  0  0  0  0  0
   11.3154  -16.7728   25.2403 O   0  0  0  0  0  0  0  0  0  0  0  0
  2  1  1  6
  2  3  1  0
  3  4  1  0
  5  2  1  0
  6  5  2  0
  8  7  1  1
  8  9  1  0
  9  5  1  0
 10  8  1  0
 10 19  1  0
 11 10  2  0
 13 12  1  0
 14 13  2  0
 15 14  1  0
 16 22  1  0
 16 15  2  0
 17 16  1  0
 18 19  1  0
 18 17  1  1
 20 18  1  0
 21 20  2  0
 22 23  2  0
 23 13  1  0
 24 20  1  0
M  END
$$$$
