CAY.pdb
     RDKit          3D

 24 24  0  0  1  0  0  0  0  0999 V2000
    7.0813  -14.8857   17.6524 N   0  0  0  0  0  0  0  0  0  0  0  0
    8.2858  -14.5112   18.3700 C   0  0  1  0  0  0  0  0  0  0  0  0
    8.1130  -13.1032   18.8944 C   0  0  0  0  0  0  0  0  0  0  0  0
    8.2319  -11.9001   17.5430 S   0  0  0  0  0  0  0  0  0  0  0  0
    8.4666  -15.4835   19.4971 C   0  0  0  0  0  0  0  0  0  0  0  0
    7.5429  -15.7043   20.3262 O   0  0  0  0  0  0  0  0  0  0  0  0
   10.6954  -18.2737   20.2703 C   0  0  0  0  0  0  0  0  0  0  0  0
    9.8284  -17.1293   20.7697 C   0  0  2  0  0  0  0  0  0  0  0  0
    9.6773  -16.2004   19.6877 N   0  0  0  0  0  0  0  0  0  0  0  0
   10.3639  -16.5142   21.9948 C   0  0  0  0  0  0  0  0  0  0  0  0
   11.3440  -15.7312   21.8719 O   0  0  0  0  0  0  0  0  0  0  0  0
   10.8520  -14.4126   30.7173 O   0  0  0  0  0  0  0  0  0  0  0  0
   10.4770  -14.8159   29.4405 C   0  0  0  0  0  0  0  0  0  0  0  0
   10.0311  -13.9242   28.4875 C   0  0  0  0  0  0  0  0  0  0  0  0
    9.6623  -14.3382   27.2244 C   0  0  0  0  0  0  0  0  0  0  0  0
    9.7244  -15.6741   26.8571 C   0  0  0  0  0  0  0  0  0  0  0  0
    9.3226  -16.1233   25.5087 C   0  0  0  0  0  0  0  0  0  0  0  0
   10.4455  -16.1427   24.5028 C   0  0  2  0  0  0  0  0  0  0  0  0
    9.8714  -16.7278   23.2956 N   0  0  0  0  0  0  0  0  0  0  0  0
   11.5648  -16.9398   25.0203 C   0  0  0  0  0  0  0  0  0  0  0  0
   11.4869  -18.1929   24.9721 O   0  0  0  0  0  0  0  0  0  0  0  0
   10.1709  -16.5577   27.8157 C   0  0  0  0  0  0  0  0  0  0  0  0
   10.5425  -16.1466   29.0856 C   0  0  0  0  0  0  0  0  0  0  0  0
   12.7073  -16.3787   25.5602 O   0  0  0  0  0  0  0  0  0  0  0  0
  2  1  1  1
  2  3  1  0
  3  4  1  0
  5  2  1  0
  6  5  2  0
  8  7  1  6
  8  9  1  0
  9  5  1  0
 10  8  1  0
 10 19  1  0
 11 10  2  0
 13 12  1  0
 14 13  2  0
 15 14  1  0
 16 22  1  0
 16 15  2  0
 17 16  1  0
 18 19  1  0
 18 17  1  1
 20 18  1  0
 21 20  2  0
 22 23  2  0
 23 13  1  0
 24 20  1  0
M  END
$$$$
