WKK.pdb
     RDKit          3D

 33 34  0  0  1  0  0  0  0  0999 V2000
   24.3640  -15.7180  -19.2442 N   0  0  0  0  0  0  0  0  0  0  0  0
   24.4993  -15.9904  -17.8280 C   0  0  1  0  0  0  0  0  0  0  0  0
   23.9965  -14.7965  -17.0513 C   0  0  0  0  0  0  0  0  0  0  0  0
   24.9249  -13.6679  -17.3092 C   0  0  0  0  0  0  0  0  0  0  0  0
   24.6419  -12.4476  -17.9104 C   0  0  0  0  0  0  0  0  0  0  0  0
   25.7561  -11.7030  -17.9556 N   0  0  0  0  0  0  0  0  0  0  0  0
   26.7512  -12.4058  -17.4015 C   0  0  0  0  0  0  0  0  0  0  0  0
   28.0834  -12.1081  -17.1973 C   0  0  0  0  0  0  0  0  0  0  0  0
   28.8861  -13.0388  -16.5915 C   0  0  0  0  0  0  0  0  0  0  0  0
   28.4347  -14.2766  -16.1664 C   0  0  0  0  0  0  0  0  0  0  0  0
   27.1053  -14.5786  -16.3680 C   0  0  0  0  0  0  0  0  0  0  0  0
   26.2823  -13.6549  -16.9756 C   0  0  0  0  0  0  0  0  0  0  0  0
   23.8034  -17.2319  -17.4956 C   0  0  0  0  0  0  0  0  0  0  0  0
   22.7315  -17.5107  -18.0831 O   0  0  0  0  0  0  0  0  0  0  0  0
   24.2658  -18.1720  -16.5281 N   0  0  0  0  0  0  0  0  0  0  0  0
   23.7058  -19.4583  -16.2744 C   0  0  1  0  0  0  0  0  0  0  0  0
   24.6462  -20.4638  -15.7202 C   0  0  0  0  0  0  0  0  0  0  0  0
   25.4297  -21.1745  -16.7939 C   0  0  0  0  0  0  0  0  0  0  0  0
   26.5382  -22.0220  -16.2122 C   0  0  0  0  0  0  0  0  0  0  0  0
   27.1724  -22.8129  -17.3447 C   0  0  0  0  0  0  0  0  0  0  0  0
   28.2597  -23.6471  -16.8500 N   0  0  0  0  0  0  0  0  0  0  0  0
   22.5544  -19.2663  -15.3154 C   0  0  0  0  0  0  0  0  0  0  0  0
   22.7133  -18.7009  -14.2036 O   0  0  0  0  0  0  0  0  0  0  0  0
   21.2394  -19.7173  -15.6294 N   0  0  0  0  0  0  0  0  0  0  0  0
   20.1399  -19.6438  -14.6884 C   0  0  1  0  0  0  0  0  0  0  0  0
   18.8025  -19.8087  -15.4430 C   0  0  0  0  0  0  0  0  0  0  0  0
   17.6976  -19.7320  -14.4413 C   0  0  0  0  0  0  0  0  0  0  0  0
   16.3141  -19.9255  -14.9660 C   0  0  0  0  0  0  0  0  0  0  0  0
   15.2392  -19.6010  -13.9975 C   0  0  0  0  0  0  0  0  0  0  0  0
   13.8959  -19.7861  -14.4492 N   0  0  0  0  0  0  0  0  0  0  0  0
   20.2733  -20.6892  -13.6438 C   0  0  0  0  0  0  0  0  0  0  0  0
   19.9893  -20.4284  -12.2977 O   0  0  0  0  0  0  0  0  0  0  0  0
   20.6474  -21.8546  -13.9243 O   0  0  0  0  0  0  0  0  0  0  0  0
  2  1  1  6
  3  2  1  0
  3  4  1  0
  4  5  2  0
  5  6  1  0
  7  8  2  0
  7  6  1  0
  9  8  1  0
 10  9  2  0
 11 10  1  0
 11 12  2  0
 12  4  1  0
 12  7  1  0
 13  2  1  0
 14 13  2  0
 15 13  1  0
 16 17  1  1
 16 15  1  0
 18 17  1  0
 18 19  1  0
 20 19  1  0
 21 20  1  0
 22 16  1  0
 23 22  2  0
 24 22  1  0
 25 31  1  0
 25 24  1  0
 25 26  1  6
 27 26  1  0
 28 27  1  0
 29 28  1  0
 30 29  1  0
 31 32  1  0
 33 31  2  0
M  END
$$$$
