WKK.pdb
     RDKit          3D

 33 34  0  0  1  0  0  0  0  0999 V2000
   26.3465  -21.9731   -9.1388 N   0  0  0  0  0  0  0  0  0  0  0  0
   26.2368  -20.5775   -9.5104 C   0  0  1  0  0  0  0  0  0  0  0  0
   27.6234  -19.9840   -9.5927 C   0  0  0  0  0  0  0  0  0  0  0  0
   28.3836  -20.4494   -8.4062 C   0  0  0  0  0  0  0  0  0  0  0  0
   29.3343  -21.4606   -8.3420 C   0  0  0  0  0  0  0  0  0  0  0  0
   29.7854  -21.5703   -7.0841 N   0  0  0  0  0  0  0  0  0  0  0  0
   29.1545  -20.6598   -6.3330 C   0  0  0  0  0  0  0  0  0  0  0  0
   29.2462  -20.3533   -4.9903 C   0  0  0  0  0  0  0  0  0  0  0  0
   28.4625  -19.3501   -4.4836 C   0  0  0  0  0  0  0  0  0  0  0  0
   27.5721  -18.6156   -5.2481 C   0  0  0  0  0  0  0  0  0  0  0  0
   27.4769  -18.9177   -6.5892 C   0  0  0  0  0  0  0  0  0  0  0  0
   28.2573  -19.9237   -7.1171 C   0  0  0  0  0  0  0  0  0  0  0  0
   25.4806  -20.4563  -10.7553 C   0  0  0  0  0  0  0  0  0  0  0  0
   25.1417  -19.3187  -11.1590 O   0  0  0  0  0  0  0  0  0  0  0  0
   25.0905  -21.5644  -11.5636 N   0  0  0  0  0  0  0  0  0  0  0  0
   24.5509  -21.4923  -12.8813 C   0  0  1  0  0  0  0  0  0  0  0  0
   25.5151  -21.7530  -13.9790 C   0  0  0  0  0  0  0  0  0  0  0  0
   24.9968  -21.3037  -15.3210 C   0  0  0  0  0  0  0  0  0  0  0  0
   25.9289  -21.6985  -16.4438 C   0  0  0  0  0  0  0  0  0  0  0  0
   26.8510  -20.5241  -16.7277 C   0  0  0  0  0  0  0  0  0  0  0  0
   27.8868  -20.8962  -17.6825 N   0  0  0  0  0  0  0  0  0  0  0  0
   23.4201  -22.4912  -12.9593 C   0  0  0  0  0  0  0  0  0  0  0  0
   23.4845  -23.6027  -12.3751 O   0  0  0  0  0  0  0  0  0  0  0  0
   22.2325  -22.2166  -13.6979 N   0  0  0  0  0  0  0  0  0  0  0  0
   20.9654  -22.8584  -13.4115 C   0  0  1  0  0  0  0  0  0  0  0  0
   20.6531  -22.7352  -11.9040 C   0  0  0  0  0  0  0  0  0  0  0  0
   19.4068  -23.5103  -11.6284 C   0  0  0  0  0  0  0  0  0  0  0  0
   18.9581  -23.5581  -10.2060 C   0  0  0  0  0  0  0  0  0  0  0  0
   17.7664  -24.4073   -9.9663 C   0  0  0  0  0  0  0  0  0  0  0  0
   17.2622  -24.4366   -8.6293 N   0  0  0  0  0  0  0  0  0  0  0  0
   19.8760  -22.2488  -14.2138 C   0  0  0  0  0  0  0  0  0  0  0  0
   19.6984  -20.8618  -14.2845 O   0  0  0  0  0  0  0  0  0  0  0  0
   19.0658  -22.9537  -14.8646 O   0  0  0  0  0  0  0  0  0  0  0  0
  2  1  1  6
  3  2  1  0
  3  4  1  0
  4  5  2  0
  5  6  1  0
  7  8  2  0
  7  6  1  0
  9  8  1  0
 10  9  2  0
 11 10  1  0
 11 12  2  0
 12  4  1  0
 12  7  1  0
 13  2  1  0
 14 13  2  0
 15 13  1  0
 16 17  1  6
 16 15  1  0
 18 17  1  0
 18 19  1  0
 20 19  1  0
 21 20  1  0
 22 16  1  0
 23 22  2  0
 24 22  1  0
 25 31  1  0
 25 24  1  0
 25 26  1  1
 27 26  1  0
 28 27  1  0
 29 28  1  0
 30 29  1  0
 31 32  1  0
 33 31  2  0
M  END
$$$$
