WKK.pdb
     RDKit          3D

 33 34  0  0  1  0  0  0  0  0999 V2000
   25.7508  -21.4260   -8.3646 N   0  0  0  0  0  0  0  0  0  0  0  0
   26.1654  -20.5165   -9.4130 C   0  0  1  0  0  0  0  0  0  0  0  0
   27.6183  -20.1604   -9.2035 C   0  0  0  0  0  0  0  0  0  0  0  0
   27.7346  -19.5044   -7.8774 C   0  0  0  0  0  0  0  0  0  0  0  0
   27.1336  -18.3269   -7.4499 C   0  0  0  0  0  0  0  0  0  0  0  0
   27.4938  -18.0761   -6.1829 N   0  0  0  0  0  0  0  0  0  0  0  0
   28.3100  -19.0567   -5.7786 C   0  0  0  0  0  0  0  0  0  0  0  0
   28.9547  -19.2794   -4.5786 C   0  0  0  0  0  0  0  0  0  0  0  0
   29.7443  -20.3913   -4.4458 C   0  0  0  0  0  0  0  0  0  0  0  0
   29.9368  -21.3173   -5.4569 C   0  0  0  0  0  0  0  0  0  0  0  0
   29.2953  -21.0995   -6.6569 C   0  0  0  0  0  0  0  0  0  0  0  0
   28.4967  -19.9864   -6.8093 C   0  0  0  0  0  0  0  0  0  0  0  0
   25.8988  -21.1150  -10.7194 C   0  0  0  0  0  0  0  0  0  0  0  0
   26.3830  -22.2395  -10.9895 O   0  0  0  0  0  0  0  0  0  0  0  0
   25.1092  -20.4982  -11.7341 N   0  0  0  0  0  0  0  0  0  0  0  0
   24.7678  -21.0702  -12.9946 C   0  0  1  0  0  0  0  0  0  0  0  0
   23.3753  -20.8277  -13.4473 C   0  0  0  0  0  0  0  0  0  0  0  0
   22.3709  -21.6645  -12.6972 C   0  0  0  0  0  0  0  0  0  0  0  0
   20.9785  -21.5147  -13.2667 C   0  0  0  0  0  0  0  0  0  0  0  0
   20.0622  -22.4822  -12.5355 C   0  0  0  0  0  0  0  0  0  0  0  0
   18.6864  -22.3415  -12.9941 N   0  0  0  0  0  0  0  0  0  0  0  0
   25.7314  -20.5140  -14.0166 C   0  0  0  0  0  0  0  0  0  0  0  0
   25.8379  -19.2767  -14.2134 O   0  0  0  0  0  0  0  0  0  0  0  0
   26.5608  -21.3673  -14.8010 N   0  0  0  0  0  0  0  0  0  0  0  0
   27.5661  -20.8607  -15.7132 C   0  0  1  0  0  0  0  0  0  0  0  0
   28.7652  -21.8334  -15.7521 C   0  0  0  0  0  0  0  0  0  0  0  0
   28.2981  -23.1140  -16.3620 C   0  0  0  0  0  0  0  0  0  0  0  0
   29.2751  -24.2420  -16.3620 C   0  0  0  0  0  0  0  0  0  0  0  0
   28.7597  -25.5006  -16.9528 C   0  0  0  0  0  0  0  0  0  0  0  0
   29.6669  -26.6042  -16.9948 N   0  0  0  0  0  0  0  0  0  0  0  0
   26.9999  -20.6878  -17.0739 C   0  0  0  0  0  0  0  0  0  0  0  0
   27.6527  -19.9312  -18.0546 O   0  0  0  0  0  0  0  0  0  0  0  0
   25.9086  -21.2144  -17.4033 O   0  0  0  0  0  0  0  0  0  0  0  0
  2  1  1  1
  3  2  1  0
  3  4  1  0
  4  5  2  0
  5  6  1  0
  7  8  2  0
  7  6  1  0
  9  8  1  0
 10  9  2  0
 11 10  1  0
 11 12  2  0
 12  4  1  0
 12  7  1  0
 13  2  1  0
 14 13  2  0
 15 13  1  0
 16 17  1  6
 16 15  1  0
 18 17  1  0
 18 19  1  0
 20 19  1  0
 21 20  1  0
 22 16  1  0
 23 22  2  0
 24 22  1  0
 25 31  1  0
 25 24  1  0
 25 26  1  6
 27 26  1  0
 28 27  1  0
 29 28  1  0
 30 29  1  0
 31 32  1  0
 33 31  2  0
M  END
$$$$
