WKK.pdb
     RDKit          3D

 33 34  0  0  1  0  0  0  0  0999 V2000
   21.0169  -12.1687  -16.0252 N   0  0  0  0  0  0  0  0  0  0  0  0
   20.0621  -11.4984  -16.8837 C   0  0  1  0  0  0  0  0  0  0  0  0
   18.6723  -11.9762  -16.5343 C   0  0  0  0  0  0  0  0  0  0  0  0
   18.6098  -13.4301  -16.8246 C   0  0  0  0  0  0  0  0  0  0  0  0
   19.4816  -14.1863  -17.5984 C   0  0  0  0  0  0  0  0  0  0  0  0
   19.0741  -15.4637  -17.6113 N   0  0  0  0  0  0  0  0  0  0  0  0
   17.9645  -15.5558  -16.8686 C   0  0  0  0  0  0  0  0  0  0  0  0
   17.1542  -16.6288  -16.5566 C   0  0  0  0  0  0  0  0  0  0  0  0
   16.0610  -16.4242  -15.7563 C   0  0  0  0  0  0  0  0  0  0  0  0
   15.7158  -15.1889  -15.2351 C   0  0  0  0  0  0  0  0  0  0  0  0
   16.5216  -14.1144  -15.5437 C   0  0  0  0  0  0  0  0  0  0  0  0
   17.6258  -14.3008  -16.3472 C   0  0  0  0  0  0  0  0  0  0  0  0
   20.2232  -10.0506  -16.7649 C   0  0  0  0  0  0  0  0  0  0  0  0
   20.3277   -9.5362  -15.6263 O   0  0  0  0  0  0  0  0  0  0  0  0
   20.2709   -9.1587  -17.8765 N   0  0  0  0  0  0  0  0  0  0  0  0
   20.4132   -7.7417  -17.8092 C   0  0  1  0  0  0  0  0  0  0  0  0
   21.0617   -7.1105  -18.9855 C   0  0  0  0  0  0  0  0  0  0  0  0
   22.5268   -7.4490  -19.0874 C   0  0  0  0  0  0  0  0  0  0  0  0
   23.1667   -6.8142  -20.3010 C   0  0  0  0  0  0  0  0  0  0  0  0
   24.5875   -7.3415  -20.4166 C   0  0  0  0  0  0  0  0  0  0  0  0
   25.2263   -6.8508  -21.6306 N   0  0  0  0  0  0  0  0  0  0  0  0
   19.0314   -7.1592  -17.6256 C   0  0  0  0  0  0  0  0  0  0  0  0
   18.0576   -7.5480  -18.3195 O   0  0  0  0  0  0  0  0  0  0  0  0
   18.7723   -6.1448  -16.6586 N   0  0  0  0  0  0  0  0  0  0  0  0
   17.4669   -5.5396  -16.4879 C   0  0  1  0  0  0  0  0  0  0  0  0
   17.4667   -4.6619  -15.2171 C   0  0  0  0  0  0  0  0  0  0  0  0
   16.1664   -3.9295  -15.1650 C   0  0  0  0  0  0  0  0  0  0  0  0
   15.1415   -4.4668  -14.2228 C   0  0  0  0  0  0  0  0  0  0  0  0
   13.8999   -3.6603  -14.1411 C   0  0  0  0  0  0  0  0  0  0  0  0
   13.2989   -3.5432  -12.8497 N   0  0  0  0  0  0  0  0  0  0  0  0
   17.1073   -4.7254  -17.6753 C   0  0  0  0  0  0  0  0  0  0  0  0
   18.0348   -3.8844  -18.3022 O   0  0  0  0  0  0  0  0  0  0  0  0
   15.9530   -4.7569  -18.1685 O   0  0  0  0  0  0  0  0  0  0  0  0
  2  1  1  1
  3  2  1  0
  3  4  1  0
  4  5  2  0
  5  6  1  0
  7  8  2  0
  7  6  1  0
  9  8  1  0
 10  9  2  0
 11 10  1  0
 11 12  2  0
 12  4  1  0
 12  7  1  0
 13  2  1  0
 14 13  2  0
 15 13  1  0
 16 17  1  6
 16 15  1  0
 18 17  1  0
 18 19  1  0
 20 19  1  0
 21 20  1  0
 22 16  1  0
 23 22  2  0
 24 22  1  0
 25 31  1  0
 25 24  1  0
 25 26  1  1
 27 26  1  0
 28 27  1  0
 29 28  1  0
 30 29  1  0
 31 32  1  0
 33 31  2  0
M  END
$$$$
