WKK.pdb
     RDKit          3D

 33 34  0  0  1  0  0  0  0  0999 V2000
   27.0666  -19.3382   -9.9443 N   0  0  0  0  0  0  0  0  0  0  0  0
   26.3953  -20.6108   -9.7772 C   0  0  1  0  0  0  0  0  0  0  0  0
   25.7473  -20.6453   -8.4132 C   0  0  0  0  0  0  0  0  0  0  0  0
   26.6221  -19.8931   -7.4799 C   0  0  0  0  0  0  0  0  0  0  0  0
   26.9377  -18.5402   -7.5058 C   0  0  0  0  0  0  0  0  0  0  0  0
   27.7611  -18.2540   -6.4870 N   0  0  0  0  0  0  0  0  0  0  0  0
   27.9873  -19.3820   -5.8030 C   0  0  0  0  0  0  0  0  0  0  0  0
   28.7507  -19.6395   -4.6822 C   0  0  0  0  0  0  0  0  0  0  0  0
   28.7973  -20.9175   -4.1903 C   0  0  0  0  0  0  0  0  0  0  0  0
   28.1153  -21.9803   -4.7578 C   0  0  0  0  0  0  0  0  0  0  0  0
   27.3516  -21.7283   -5.8769 C   0  0  0  0  0  0  0  0  0  0  0  0
   27.2924  -20.4490   -6.3863 C   0  0  0  0  0  0  0  0  0  0  0  0
   25.4499  -20.8175  -10.8724 C   0  0  0  0  0  0  0  0  0  0  0  0
   24.5592  -19.9608  -11.0841 O   0  0  0  0  0  0  0  0  0  0  0  0
   25.4667  -21.9501  -11.7387 N   0  0  0  0  0  0  0  0  0  0  0  0
   24.7279  -22.0904  -12.9500 C   0  0  1  0  0  0  0  0  0  0  0  0
   25.3727  -22.9227  -13.9960 C   0  0  0  0  0  0  0  0  0  0  0  0
   24.5479  -23.0088  -15.2545 C   0  0  0  0  0  0  0  0  0  0  0  0
   25.2030  -23.8870  -16.2962 C   0  0  0  0  0  0  0  0  0  0  0  0
   25.4527  -25.2515  -15.6748 C   0  0  0  0  0  0  0  0  0  0  0  0
   25.9930  -26.1794  -16.6596 N   0  0  0  0  0  0  0  0  0  0  0  0
   23.3862  -22.6855  -12.5920 C   0  0  0  0  0  0  0  0  0  0  0  0
   23.2917  -23.8270  -12.0735 O   0  0  0  0  0  0  0  0  0  0  0  0
   22.1709  -21.9789  -12.8262 N   0  0  0  0  0  0  0  0  0  0  0  0
   20.8739  -22.5041  -12.4500 C   0  0  1  0  0  0  0  0  0  0  0  0
   19.7987  -21.4124  -12.6437 C   0  0  0  0  0  0  0  0  0  0  0  0
   18.5109  -21.9339  -12.0965 C   0  0  0  0  0  0  0  0  0  0  0  0
   17.3440  -21.0053  -12.1515 C   0  0  0  0  0  0  0  0  0  0  0  0
   16.0854  -21.5678  -11.6054 C   0  0  0  0  0  0  0  0  0  0  0  0
   14.9466  -20.7043  -11.6079 N   0  0  0  0  0  0  0  0  0  0  0  0
   20.5399  -23.7037  -13.2571 C   0  0  0  0  0  0  0  0  0  0  0  0
   20.7492  -23.7442  -14.6409 O   0  0  0  0  0  0  0  0  0  0  0  0
   20.0543  -24.7352  -12.7310 O   0  0  0  0  0  0  0  0  0  0  0  0
  2  1  1  6
  3  2  1  0
  3  4  1  0
  4  5  2  0
  5  6  1  0
  7  8  2  0
  7  6  1  0
  9  8  1  0
 10  9  2  0
 11 10  1  0
 11 12  2  0
 12  4  1  0
 12  7  1  0
 13  2  1  0
 14 13  2  0
 15 13  1  0
 16 17  1  6
 16 15  1  0
 18 17  1  0
 18 19  1  0
 20 19  1  0
 21 20  1  0
 22 16  1  0
 23 22  2  0
 24 22  1  0
 25 31  1  0
 25 24  1  0
 25 26  1  6
 27 26  1  0
 28 27  1  0
 29 28  1  0
 30 29  1  0
 31 32  1  0
 33 31  2  0
M  END
$$$$
