WKK.pdb
     RDKit          3D

 33 34  0  0  1  0  0  0  0  0999 V2000
   27.6255  -19.9744  -10.0702 N   0  0  0  0  0  0  0  0  0  0  0  0
   26.4906  -20.8406   -9.8256 C   0  0  1  0  0  0  0  0  0  0  0  0
   25.7857  -20.3789   -8.5719 C   0  0  0  0  0  0  0  0  0  0  0  0
   26.8174  -19.8575   -7.6413 C   0  0  0  0  0  0  0  0  0  0  0  0
   27.3574  -18.5782   -7.5926 C   0  0  0  0  0  0  0  0  0  0  0  0
   28.2629  -18.5129   -6.6058 N   0  0  0  0  0  0  0  0  0  0  0  0
   28.3243  -19.7123   -6.0150 C   0  0  0  0  0  0  0  0  0  0  0  0
   29.0827  -20.1793   -4.9605 C   0  0  0  0  0  0  0  0  0  0  0  0
   28.9331  -21.4814   -4.5609 C   0  0  0  0  0  0  0  0  0  0  0  0
   28.0548  -22.3685   -5.1596 C   0  0  0  0  0  0  0  0  0  0  0  0
   27.2954  -21.9070   -6.2128 C   0  0  0  0  0  0  0  0  0  0  0  0
   27.4321  -20.6002   -6.6290 C   0  0  0  0  0  0  0  0  0  0  0  0
   25.6238  -20.8624  -11.0022 C   0  0  0  0  0  0  0  0  0  0  0  0
   25.2724  -19.7786  -11.5255 O   0  0  0  0  0  0  0  0  0  0  0  0
   25.1366  -22.0553  -11.6129 N   0  0  0  0  0  0  0  0  0  0  0  0
   24.3952  -22.1326  -12.8282 C   0  0  1  0  0  0  0  0  0  0  0  0
   24.5564  -23.3943  -13.5929 C   0  0  0  0  0  0  0  0  0  0  0  0
   25.6264  -23.2957  -14.6499 C   0  0  0  0  0  0  0  0  0  0  0  0
   25.7492  -24.5752  -15.4456 C   0  0  0  0  0  0  0  0  0  0  0  0
   26.7788  -24.3533  -16.5414 C   0  0  0  0  0  0  0  0  0  0  0  0
   26.9621  -25.5621  -17.3340 N   0  0  0  0  0  0  0  0  0  0  0  0
   22.9380  -21.9406  -12.4789 C   0  0  0  0  0  0  0  0  0  0  0  0
   22.4264  -22.4913  -11.4710 O   0  0  0  0  0  0  0  0  0  0  0  0
   22.0811  -21.1274  -13.2762 N   0  0  0  0  0  0  0  0  0  0  0  0
   20.6616  -20.9955  -13.0173 C   0  0  1  0  0  0  0  0  0  0  0  0
   20.1100  -19.7686  -13.7761 C   0  0  0  0  0  0  0  0  0  0  0  0
   18.6382  -19.7013  -13.5322 C   0  0  0  0  0  0  0  0  0  0  0  0
   17.8771  -18.7094  -14.3469 C   0  0  0  0  0  0  0  0  0  0  0  0
   16.4316  -18.6313  -14.0259 C   0  0  0  0  0  0  0  0  0  0  0  0
   15.6557  -17.7105  -14.7959 N   0  0  0  0  0  0  0  0  0  0  0  0
   19.9372  -22.2233  -13.4292 C   0  0  0  0  0  0  0  0  0  0  0  0
   18.8720  -22.7384  -12.6805 O   0  0  0  0  0  0  0  0  0  0  0  0
   20.2503  -22.8532  -14.4694 O   0  0  0  0  0  0  0  0  0  0  0  0
  2  1  1  6
  3  2  1  0
  3  4  1  0
  4  5  2  0
  5  6  1  0
  7  8  2  0
  7  6  1  0
  9  8  1  0
 10  9  2  0
 11 10  1  0
 11 12  2  0
 12  4  1  0
 12  7  1  0
 13  2  1  0
 14 13  2  0
 15 13  1  0
 16 17  1  1
 16 15  1  0
 18 17  1  0
 18 19  1  0
 20 19  1  0
 21 20  1  0
 22 16  1  0
 23 22  2  0
 24 22  1  0
 25 31  1  0
 25 24  1  0
 25 26  1  6
 27 26  1  0
 28 27  1  0
 29 28  1  0
 30 29  1  0
 31 32  1  0
 33 31  2  0
M  END
$$$$
