WKK.pdb
     RDKit          3D

 33 34  0  0  1  0  0  0  0  0999 V2000
   27.8745  -22.1739  -15.1767 N   0  0  0  0  0  0  0  0  0  0  0  0
   26.7082  -21.9799  -14.3399 C   0  0  1  0  0  0  0  0  0  0  0  0
   26.6646  -20.5385  -13.8903 C   0  0  0  0  0  0  0  0  0  0  0  0
   27.7357  -20.3492  -12.8808 C   0  0  0  0  0  0  0  0  0  0  0  0
   29.0600  -19.9880  -13.0960 C   0  0  0  0  0  0  0  0  0  0  0  0
   29.7023  -19.9245  -11.9208 N   0  0  0  0  0  0  0  0  0  0  0  0
   28.8324  -20.2340  -10.9519 C   0  0  0  0  0  0  0  0  0  0  0  0
   28.9746  -20.3162   -9.5814 C   0  0  0  0  0  0  0  0  0  0  0  0
   27.8886  -20.6628   -8.8212 C   0  0  0  0  0  0  0  0  0  0  0  0
   26.6404  -20.9392   -9.3527 C   0  0  0  0  0  0  0  0  0  0  0  0
   26.4933  -20.8584  -10.7205 C   0  0  0  0  0  0  0  0  0  0  0  0
   27.5745  -20.5112  -11.5017 C   0  0  0  0  0  0  0  0  0  0  0  0
   25.5080  -22.3975  -15.0619 C   0  0  0  0  0  0  0  0  0  0  0  0
   25.1656  -21.7750  -16.0950 O   0  0  0  0  0  0  0  0  0  0  0  0
   24.6775  -23.4875  -14.6672 N   0  0  0  0  0  0  0  0  0  0  0  0
   23.5911  -24.0278  -15.4158 C   0  0  1  0  0  0  0  0  0  0  0  0
   23.5405  -25.5094  -15.4852 C   0  0  0  0  0  0  0  0  0  0  0  0
   24.2929  -26.0574  -16.6706 C   0  0  0  0  0  0  0  0  0  0  0  0
   25.2826  -27.1250  -16.2628 C   0  0  0  0  0  0  0  0  0  0  0  0
   26.0150  -27.5919  -17.5101 C   0  0  0  0  0  0  0  0  0  0  0  0
   27.0966  -28.5053  -17.1657 N   0  0  0  0  0  0  0  0  0  0  0  0
   22.3152  -23.5110  -14.7932 C   0  0  0  0  0  0  0  0  0  0  0  0
   22.1630  -23.4702  -13.5458 O   0  0  0  0  0  0  0  0  0  0  0  0
   21.2299  -23.0479  -15.5925 N   0  0  0  0  0  0  0  0  0  0  0  0
   20.0328  -22.4611  -15.0249 C   0  0  1  0  0  0  0  0  0  0  0  0
   19.3980  -21.4926  -16.0467 C   0  0  0  0  0  0  0  0  0  0  0  0
   18.2250  -20.8394  -15.3929 C   0  0  0  0  0  0  0  0  0  0  0  0
   17.4780  -19.8437  -16.2161 C   0  0  0  0  0  0  0  0  0  0  0  0
   16.4109  -19.1193  -15.4846 C   0  0  0  0  0  0  0  0  0  0  0  0
   15.7331  -18.0862  -16.2028 N   0  0  0  0  0  0  0  0  0  0  0  0
   19.0615  -23.5165  -14.6444 C   0  0  0  0  0  0  0  0  0  0  0  0
   18.2943  -23.4275  -13.4766 O   0  0  0  0  0  0  0  0  0  0  0  0
   18.8868  -24.5361  -15.3561 O   0  0  0  0  0  0  0  0  0  0  0  0
  2  1  1  6
  3  2  1  0
  3  4  1  0
  4  5  2  0
  5  6  1  0
  7  8  2  0
  7  6  1  0
  9  8  1  0
 10  9  2  0
 11 10  1  0
 11 12  2  0
 12  4  1  0
 12  7  1  0
 13  2  1  0
 14 13  2  0
 15 13  1  0
 16 17  1  1
 16 15  1  0
 18 17  1  0
 18 19  1  0
 20 19  1  0
 21 20  1  0
 22 16  1  0
 23 22  2  0
 24 22  1  0
 25 31  1  0
 25 24  1  0
 25 26  1  6
 27 26  1  0
 28 27  1  0
 29 28  1  0
 30 29  1  0
 31 32  1  0
 33 31  2  0
M  END
$$$$
