WKK.pdb
     RDKit          3D

 33 34  0  0  1  0  0  0  0  0999 V2000
   24.3079  -19.5261  -11.7253 N   0  0  0  0  0  0  0  0  0  0  0  0
   25.5981  -20.1666  -11.8779 C   0  0  1  0  0  0  0  0  0  0  0  0
   25.6117  -21.4374  -11.0614 C   0  0  0  0  0  0  0  0  0  0  0  0
   25.8187  -21.0582   -9.6417 C   0  0  0  0  0  0  0  0  0  0  0  0
   24.8788  -20.5759   -8.7392 C   0  0  0  0  0  0  0  0  0  0  0  0
   25.4689  -20.3533   -7.5559 N   0  0  0  0  0  0  0  0  0  0  0  0
   26.7627  -20.6774   -7.6667 C   0  0  0  0  0  0  0  0  0  0  0  0
   27.8007  -20.6385   -6.7577 C   0  0  0  0  0  0  0  0  0  0  0  0
   29.0484  -21.0397   -7.1576 C   0  0  0  0  0  0  0  0  0  0  0  0
   29.3340  -21.4877   -8.4360 C   0  0  0  0  0  0  0  0  0  0  0  0
   28.3010  -21.5284   -9.3473 C   0  0  0  0  0  0  0  0  0  0  0  0
   27.0390  -21.1289   -8.9634 C   0  0  0  0  0  0  0  0  0  0  0  0
   25.8749  -20.3869  -13.2960 C   0  0  0  0  0  0  0  0  0  0  0  0
   24.9656  -20.8293  -14.0372 O   0  0  0  0  0  0  0  0  0  0  0  0
   27.1345  -20.1294  -13.9130 N   0  0  0  0  0  0  0  0  0  0  0  0
   27.4278  -20.2510  -15.3029 C   0  0  1  0  0  0  0  0  0  0  0  0
   28.6234  -19.5051  -15.7686 C   0  0  0  0  0  0  0  0  0  0  0  0
   28.7736  -19.5342  -17.2680 C   0  0  0  0  0  0  0  0  0  0  0  0
   30.0416  -18.8453  -17.7187 C   0  0  0  0  0  0  0  0  0  0  0  0
   30.0571  -18.8310  -19.2385 C   0  0  0  0  0  0  0  0  0  0  0  0
   31.3198  -18.3044  -19.7398 N   0  0  0  0  0  0  0  0  0  0  0  0
   27.6080  -21.7217  -15.5975 C   0  0  0  0  0  0  0  0  0  0  0  0
   28.0194  -22.5216  -14.7189 O   0  0  0  0  0  0  0  0  0  0  0  0
   27.3196  -22.2655  -16.8829 N   0  0  0  0  0  0  0  0  0  0  0  0
   26.5201  -23.4597  -17.0675 C   0  0  1  0  0  0  0  0  0  0  0  0
   25.1776  -23.3030  -16.3202 C   0  0  0  0  0  0  0  0  0  0  0  0
   24.4179  -24.5802  -16.4680 C   0  0  0  0  0  0  0  0  0  0  0  0
   24.8646  -25.7186  -15.6128 C   0  0  0  0  0  0  0  0  0  0  0  0
   24.1567  -26.9956  -15.8717 C   0  0  0  0  0  0  0  0  0  0  0  0
   24.5616  -28.1199  -15.0878 N   0  0  0  0  0  0  0  0  0  0  0  0
   26.2794  -23.7116  -18.5099 C   0  0  0  0  0  0  0  0  0  0  0  0
   26.4697  -24.9761  -19.0803 O   0  0  0  0  0  0  0  0  0  0  0  0
   25.8940  -22.7987  -19.2810 O   0  0  0  0  0  0  0  0  0  0  0  0
  2  1  1  6
  3  2  1  0
  3  4  1  0
  4  5  2  0
  5  6  1  0
  7  8  2  0
  7  6  1  0
  9  8  1  0
 10  9  2  0
 11 10  1  0
 11 12  2  0
 12  4  1  0
 12  7  1  0
 13  2  1  0
 14 13  2  0
 15 13  1  0
 16 17  1  1
 16 15  1  0
 18 17  1  0
 18 19  1  0
 20 19  1  0
 21 20  1  0
 22 16  1  0
 23 22  2  0
 24 22  1  0
 25 31  1  0
 25 24  1  0
 25 26  1  1
 27 26  1  0
 28 27  1  0
 29 28  1  0
 30 29  1  0
 31 32  1  0
 33 31  2  0
M  END
$$$$
