FQS.pdb
     RDKit          3D

 27 27  0  0  1  0  0  0  0  0999 V2000
   19.9193  -14.7971  -18.1440 N   0  0  0  0  0  0  0  0  0  0  0  0
   20.2456  -13.8911  -17.0736 C   0  0  1  0  0  0  0  0  0  0  0  0
   21.6979  -14.1617  -16.6116 C   0  0  0  0  0  0  0  0  0  0  0  0
   21.6742  -15.5211  -15.9912 C   0  0  0  0  0  0  0  0  0  0  0  0
   22.2037  -16.6402  -16.5610 C   0  0  0  0  0  0  0  0  0  0  0  0
   22.1136  -17.8797  -15.9153 C   0  0  0  0  0  0  0  0  0  0  0  0
   21.4956  -18.0209  -14.6915 C   0  0  0  0  0  0  0  0  0  0  0  0
   20.9595  -16.8951  -14.1113 C   0  0  0  0  0  0  0  0  0  0  0  0
   21.0469  -15.6823  -14.7442 C   0  0  0  0  0  0  0  0  0  0  0  0
   20.0221  -12.4814  -17.3183 C   0  0  0  0  0  0  0  0  0  0  0  0
   20.2355  -12.0749  -18.5199 O   0  0  0  0  0  0  0  0  0  0  0  0
   15.4264   -9.6013  -15.5922 N   0  0  0  0  0  0  0  0  0  0  0  0
   15.6080  -10.4598  -16.7082 C   0  0  0  0  0  0  0  0  0  0  0  0
   14.6193  -11.0595  -17.1783 O   0  0  0  0  0  0  0  0  0  0  0  0
   16.9510  -10.6368  -17.3035 C   0  0  0  0  0  0  0  0  0  0  0  0
   17.9177   -9.8177  -16.5128 C   0  0  0  0  0  0  0  0  0  0  0  0
   19.3769  -10.1005  -16.8179 C   0  0  2  0  0  0  0  0  0  0  0  0
   19.6002  -11.4870  -16.4112 N   0  0  0  0  0  0  0  0  0  0  0  0
   20.2874   -9.1682  -16.1636 C   0  0  0  0  0  0  0  0  0  0  0  0
   20.7037   -9.3101  -14.9846 O   0  0  0  0  0  0  0  0  0  0  0  0
   23.0404   -6.9600  -18.0450 O   0  0  0  0  0  0  0  0  0  0  0  0
   22.3960   -6.1388  -17.1110 C   0  0  0  0  0  0  0  0  0  0  0  0
   21.6874   -7.0569  -16.1415 C   0  0  2  0  0  0  0  0  0  0  0  0
   20.8093   -7.9827  -16.8053 N   0  0  0  0  0  0  0  0  0  0  0  0
   20.9664   -6.2122  -15.1857 C   0  0  0  0  0  0  0  0  0  0  0  0
   19.6022   -6.3425  -14.9592 O   0  0  0  0  0  0  0  0  0  0  0  0
   21.5921   -5.3316  -14.5353 O   0  0  0  0  0  0  0  0  0  0  0  0
  2  1  1  6
  3  2  1  0
  4  9  2  0
  4  3  1  0
  5  4  1  0
  6  7  1  0
  6  5  2  0
  7  8  2  0
  8  9  1  0
 10 11  2  0
 10  2  1  0
 13 12  1  0
 14 13  2  0
 15 13  1  0
 17 16  1  1
 16 15  1  0
 17 18  1  0
 18 10  1  0
 19 17  1  0
 20 19  2  0
 22 21  1  0
 23 22  1  6
 23 24  1  0
 24 19  1  0
 25 26  1  0
 25 23  1  0
 27 25  2  0
M  END
$$$$
