FQS.pdb
     RDKit          3D

 27 27  0  0  1  0  0  0  0  0999 V2000
   18.1089  -22.0438    3.3354 N   0  0  0  0  0  0  0  0  0  0  0  0
   18.8303  -21.7630    4.5495 C   0  0  1  0  0  0  0  0  0  0  0  0
   20.3487  -21.8643    4.2665 C   0  0  0  0  0  0  0  0  0  0  0  0
   20.6152  -23.3150    4.0252 C   0  0  0  0  0  0  0  0  0  0  0  0
   20.9738  -23.8454    2.8221 C   0  0  0  0  0  0  0  0  0  0  0  0
   21.1804  -25.2237    2.6839 C   0  0  0  0  0  0  0  0  0  0  0  0
   21.0340  -26.0926    3.7437 C   0  0  0  0  0  0  0  0  0  0  0  0
   20.6726  -25.5632    4.9604 C   0  0  0  0  0  0  0  0  0  0  0  0
   20.4692  -24.2143    5.0950 C   0  0  0  0  0  0  0  0  0  0  0  0
   18.5011  -20.5314    5.2364 C   0  0  0  0  0  0  0  0  0  0  0  0
   18.0807  -19.5662    4.4972 O   0  0  0  0  0  0  0  0  0  0  0  0
   15.0448  -19.8634    9.7716 N   0  0  0  0  0  0  0  0  0  0  0  0
   15.3086  -18.4790    9.6007 C   0  0  0  0  0  0  0  0  0  0  0  0
   14.5965  -17.6480   10.2011 O   0  0  0  0  0  0  0  0  0  0  0  0
   16.4137  -18.0319    8.7242 C   0  0  0  0  0  0  0  0  0  0  0  0
   17.0366  -19.2439    8.1127 C   0  0  0  0  0  0  0  0  0  0  0  0
   18.1880  -18.9497    7.1692 C   0  0  2  0  0  0  0  0  0  0  0  0
   18.5806  -20.2445    6.6152 N   0  0  0  0  0  0  0  0  0  0  0  0
   19.2943  -18.2563    7.8183 C   0  0  0  0  0  0  0  0  0  0  0  0
   20.2197  -18.8434    8.4367 O   0  0  0  0  0  0  0  0  0  0  0  0
   21.6333  -14.1261    8.8761 O   0  0  0  0  0  0  0  0  0  0  0  0
   20.4582  -14.6432    8.3160 C   0  0  0  0  0  0  0  0  0  0  0  0
   20.5114  -16.1423    8.5024 C   0  0  2  0  0  0  0  0  0  0  0  0
   19.4436  -16.8185    7.8158 N   0  0  0  0  0  0  0  0  0  0  0  0
   20.4852  -16.4056    9.9435 C   0  0  0  0  0  0  0  0  0  0  0  0
   21.6353  -16.6888   10.6691 O   0  0  0  0  0  0  0  0  0  0  0  0
   19.3875  -16.3760   10.5634 O   0  0  0  0  0  0  0  0  0  0  0  0
  2  1  1  6
  3  2  1  0
  4  9  2  0
  4  3  1  0
  5  4  1  0
  6  7  1  0
  6  5  2  0
  7  8  2  0
  8  9  1  0
 10 11  2  0
 10  2  1  0
 13 12  1  0
 14 13  2  0
 15 13  1  0
 17 16  1  1
 16 15  1  0
 17 18  1  0
 18 10  1  0
 19 17  1  0
 20 19  2  0
 22 21  1  0
 23 22  1  1
 23 24  1  0
 24 19  1  0
 25 26  1  0
 25 23  1  0
 27 25  2  0
M  END
$$$$
