FQS.pdb
     RDKit          3D

 27 27  0  0  1  0  0  0  0  0999 V2000
   22.2118   -6.8217  -13.9303 N   0  0  0  0  0  0  0  0  0  0  0  0
   20.8615   -7.2902  -13.7562 C   0  0  1  0  0  0  0  0  0  0  0  0
   20.8927   -8.6467  -13.0112 C   0  0  0  0  0  0  0  0  0  0  0  0
   21.5287   -9.6103  -13.9602 C   0  0  0  0  0  0  0  0  0  0  0  0
   22.7274  -10.2241  -13.7510 C   0  0  0  0  0  0  0  0  0  0  0  0
   23.2585  -11.0964  -14.7094 C   0  0  0  0  0  0  0  0  0  0  0  0
   22.6012  -11.3705  -15.8894 C   0  0  0  0  0  0  0  0  0  0  0  0
   21.3909  -10.7543  -16.1061 C   0  0  0  0  0  0  0  0  0  0  0  0
   20.8721   -9.8996  -15.1684 C   0  0  0  0  0  0  0  0  0  0  0  0
   19.9239   -6.3719  -13.1442 C   0  0  0  0  0  0  0  0  0  0  0  0
   20.2749   -5.8774  -12.0097 O   0  0  0  0  0  0  0  0  0  0  0  0
   15.9813   -2.7121  -15.8498 N   0  0  0  0  0  0  0  0  0  0  0  0
   15.5382   -2.4603  -14.5248 C   0  0  0  0  0  0  0  0  0  0  0  0
   14.6498   -1.6040  -14.3357 O   0  0  0  0  0  0  0  0  0  0  0  0
   16.1222   -3.2054  -13.3877 C   0  0  0  0  0  0  0  0  0  0  0  0
   17.0974   -4.1946  -13.9365 C   0  0  0  0  0  0  0  0  0  0  0  0
   17.8214   -5.0128  -12.8837 C   0  0  2  0  0  0  0  0  0  0  0  0
   18.6693   -5.9441  -13.6263 N   0  0  0  0  0  0  0  0  0  0  0  0
   16.9145   -5.6886  -11.9633 C   0  0  0  0  0  0  0  0  0  0  0  0
   16.3038   -6.7533  -12.2406 O   0  0  0  0  0  0  0  0  0  0  0  0
   14.9638   -6.1273   -7.5412 O   0  0  0  0  0  0  0  0  0  0  0  0
   15.7458   -5.2880   -8.3451 C   0  0  0  0  0  0  0  0  0  0  0  0
   15.7131   -5.8691   -9.7402 C   0  0  2  0  0  0  0  0  0  0  0  0
   16.6249   -5.2046  -10.6324 N   0  0  0  0  0  0  0  0  0  0  0  0
   14.3296   -5.7884  -10.2159 C   0  0  0  0  0  0  0  0  0  0  0  0
   13.3554   -6.6995   -9.8285 O   0  0  0  0  0  0  0  0  0  0  0  0
   13.9938   -4.8635  -11.0044 O   0  0  0  0  0  0  0  0  0  0  0  0
  2  1  1  1
  3  2  1  0
  4  9  2  0
  4  3  1  0
  5  4  1  0
  6  7  1  0
  6  5  2  0
  7  8  2  0
  8  9  1  0
 10 11  2  0
 10  2  1  0
 13 12  1  0
 14 13  2  0
 15 13  1  0
 17 16  1  6
 16 15  1  0
 17 18  1  0
 18 10  1  0
 19 17  1  0
 20 19  2  0
 22 21  1  0
 23 22  1  1
 23 24  1  0
 24 19  1  0
 25 26  1  0
 25 23  1  0
 27 25  2  0
M  END
$$$$
