FQS.pdb
     RDKit          3D

 27 27  0  0  1  0  0  0  0  0999 V2000
   16.7585   -5.4796   -9.4505 N   0  0  0  0  0  0  0  0  0  0  0  0
   17.6848   -5.3576  -10.5461 C   0  0  1  0  0  0  0  0  0  0  0  0
   19.0749   -4.9680   -9.9876 C   0  0  0  0  0  0  0  0  0  0  0  0
   19.9418   -4.7523  -11.1857 C   0  0  0  0  0  0  0  0  0  0  0  0
   20.8053   -5.6773  -11.6917 C   0  0  0  0  0  0  0  0  0  0  0  0
   21.5976   -5.3779  -12.8071 C   0  0  0  0  0  0  0  0  0  0  0  0
   21.5390   -4.1523  -13.4350 C   0  0  0  0  0  0  0  0  0  0  0  0
   20.6693   -3.2148  -12.9291 C   0  0  0  0  0  0  0  0  0  0  0  0
   19.8949   -3.5079  -11.8366 C   0  0  0  0  0  0  0  0  0  0  0  0
   17.7758   -6.4816  -11.4546 C   0  0  0  0  0  0  0  0  0  0  0  0
   18.1849   -7.5895  -10.9448 O   0  0  0  0  0  0  0  0  0  0  0  0
   13.8187   -8.9478  -14.6656 N   0  0  0  0  0  0  0  0  0  0  0  0
   14.8659   -9.7672  -15.1629 C   0  0  0  0  0  0  0  0  0  0  0  0
   14.5768  -10.7756  -15.8394 O   0  0  0  0  0  0  0  0  0  0  0  0
   16.2782   -9.4262  -14.8827 C   0  0  0  0  0  0  0  0  0  0  0  0
   16.2966   -8.1917  -14.0422 C   0  0  0  0  0  0  0  0  0  0  0  0
   17.6838   -7.7265  -13.6403 C   0  0  2  0  0  0  0  0  0  0  0  0
   17.4753   -6.5262  -12.8321 N   0  0  0  0  0  0  0  0  0  0  0  0
   18.5596   -7.4913  -14.7822 C   0  0  0  0  0  0  0  0  0  0  0  0
   18.9847   -8.4049  -15.5359 O   0  0  0  0  0  0  0  0  0  0  0  0
   17.8500   -4.9370  -17.2747 O   0  0  0  0  0  0  0  0  0  0  0  0
   19.2326   -4.7502  -17.1500 C   0  0  0  0  0  0  0  0  0  0  0  0
   19.7637   -5.9384  -16.3812 C   0  0  2  0  0  0  0  0  0  0  0  0
   19.0288   -6.1798  -15.1686 N   0  0  0  0  0  0  0  0  0  0  0  0
   21.1834   -5.6902  -16.1174 C   0  0  0  0  0  0  0  0  0  0  0  0
   21.7429   -5.8408  -14.8549 O   0  0  0  0  0  0  0  0  0  0  0  0
   21.9393   -5.3282  -17.0595 O   0  0  0  0  0  0  0  0  0  0  0  0
  2  1  1  1
  3  2  1  0
  4  9  2  0
  4  3  1  0
  5  4  1  0
  6  7  1  0
  6  5  2  0
  7  8  2  0
  8  9  1  0
 10 11  2  0
 10  2  1  0
 13 12  1  0
 14 13  2  0
 15 13  1  0
 17 16  1  6
 16 15  1  0
 17 18  1  0
 18 10  1  0
 19 17  1  0
 20 19  2  0
 22 21  1  0
 23 22  1  1
 23 24  1  0
 24 19  1  0
 25 26  1  0
 25 23  1  0
 27 25  2  0
M  END
$$$$
