FQS.pdb
     RDKit          3D

 27 27  0  0  1  0  0  0  0  0999 V2000
   23.6575  -30.6837  -20.4452 N   0  0  0  0  0  0  0  0  0  0  0  0
   23.8517  -30.4466  -19.0384 C   0  0  1  0  0  0  0  0  0  0  0  0
   22.4721  -30.4294  -18.3366 C   0  0  0  0  0  0  0  0  0  0  0  0
   21.7481  -29.2523  -18.9056 C   0  0  0  0  0  0  0  0  0  0  0  0
   22.0365  -27.9526  -18.6142 C   0  0  0  0  0  0  0  0  0  0  0  0
   21.2870  -26.9124  -19.1779 C   0  0  0  0  0  0  0  0  0  0  0  0
   20.2401  -27.1533  -20.0415 C   0  0  0  0  0  0  0  0  0  0  0  0
   19.9445  -28.4628  -20.3396 C   0  0  0  0  0  0  0  0  0  0  0  0
   20.6775  -29.4807  -19.7867 C   0  0  0  0  0  0  0  0  0  0  0  0
   24.7842  -31.3155  -18.3509 C   0  0  0  0  0  0  0  0  0  0  0  0
   24.7649  -32.5539  -18.6981 O   0  0  0  0  0  0  0  0  0  0  0  0
   30.3770  -30.1653  -16.8480 N   0  0  0  0  0  0  0  0  0  0  0  0
   30.3563  -31.5040  -16.3759 C   0  0  0  0  0  0  0  0  0  0  0  0
   31.4358  -32.0626  -16.0914 O   0  0  0  0  0  0  0  0  0  0  0  0
   29.0718  -32.2223  -16.2230 C   0  0  0  0  0  0  0  0  0  0  0  0
   27.9883  -31.3509  -16.7684 C   0  0  0  0  0  0  0  0  0  0  0  0
   26.6072  -31.9789  -16.7471 C   0  0  2  0  0  0  0  0  0  0  0  0
   25.7163  -30.9856  -17.3449 N   0  0  0  0  0  0  0  0  0  0  0  0
   26.1848  -32.3826  -15.4111 C   0  0  0  0  0  0  0  0  0  0  0  0
   25.6740  -31.5954  -14.5727 O   0  0  0  0  0  0  0  0  0  0  0  0
   25.2791  -35.9036  -12.1918 O   0  0  0  0  0  0  0  0  0  0  0  0
   25.9335  -35.6263  -13.3988 C   0  0  0  0  0  0  0  0  0  0  0  0
   25.8325  -34.1335  -13.6144 C   0  0  2  0  0  0  0  0  0  0  0  0
   26.3073  -33.7335  -14.9119 N   0  0  0  0  0  0  0  0  0  0  0  0
   26.5818  -33.4836  -12.5360 C   0  0  0  0  0  0  0  0  0  0  0  0
   26.0322  -33.2551  -11.2810 O   0  0  0  0  0  0  0  0  0  0  0  0
   27.7705  -33.1138  -12.7369 O   0  0  0  0  0  0  0  0  0  0  0  0
  2  1  1  6
  3  2  1  0
  4  9  2  0
  4  3  1  0
  5  4  1  0
  6  7  1  0
  6  5  2  0
  7  8  2  0
  8  9  1  0
 10 11  2  0
 10  2  1  0
 13 12  1  0
 14 13  2  0
 15 13  1  0
 17 16  1  1
 16 15  1  0
 17 18  1  0
 18 10  1  0
 19 17  1  0
 20 19  2  0
 22 21  1  0
 23 22  1  1
 23 24  1  0
 24 19  1  0
 25 26  1  0
 25 23  1  0
 27 25  2  0
M  END
$$$$
