FQS.pdb
     RDKit          3D

 27 27  0  0  1  0  0  0  0  0999 V2000
   32.6429   -9.7724  -18.1983 N   0  0  0  0  0  0  0  0  0  0  0  0
   31.5907   -8.9048  -17.7365 C   0  0  1  0  0  0  0  0  0  0  0  0
   32.0327   -7.4336  -17.9272 C   0  0  0  0  0  0  0  0  0  0  0  0
   33.1035   -7.2021  -16.9106 C   0  0  0  0  0  0  0  0  0  0  0  0
   34.3907   -7.6331  -17.0319 C   0  0  0  0  0  0  0  0  0  0  0  0
   35.3226   -7.3902  -16.0150 C   0  0  0  0  0  0  0  0  0  0  0  0
   34.9847   -6.7126  -14.8633 C   0  0  0  0  0  0  0  0  0  0  0  0
   33.6873   -6.2749  -14.7353 C   0  0  0  0  0  0  0  0  0  0  0  0
   32.7752   -6.5140  -15.7303 C   0  0  0  0  0  0  0  0  0  0  0  0
   30.2678   -9.1343  -18.2787 C   0  0  0  0  0  0  0  0  0  0  0  0
   30.2095   -9.3951  -19.5370 O   0  0  0  0  0  0  0  0  0  0  0  0
   25.7768  -12.0307  -15.7130 N   0  0  0  0  0  0  0  0  0  0  0  0
   25.2152  -11.9140  -17.0116 C   0  0  0  0  0  0  0  0  0  0  0  0
   24.2077  -12.5926  -17.2990 O   0  0  0  0  0  0  0  0  0  0  0  0
   25.8174  -10.9989  -18.0062 C   0  0  0  0  0  0  0  0  0  0  0  0
   27.0673  -10.4336  -17.4155 C   0  0  0  0  0  0  0  0  0  0  0  0
   27.7656   -9.4072  -18.2880 C   0  0  2  0  0  0  0  0  0  0  0  0
   29.0261   -9.1096  -17.6098 N   0  0  0  0  0  0  0  0  0  0  0  0
   26.9585   -8.2159  -18.5243 C   0  0  0  0  0  0  0  0  0  0  0  0
   26.8246   -7.2859  -17.6873 O   0  0  0  0  0  0  0  0  0  0  0  0
   25.1025   -5.0897  -21.6340 O   0  0  0  0  0  0  0  0  0  0  0  0
   25.6100   -6.3895  -21.5107 C   0  0  0  0  0  0  0  0  0  0  0  0
   25.5713   -6.7330  -20.0392 C   0  0  2  0  0  0  0  0  0  0  0  0
   26.2290   -7.9790  -19.7495 N   0  0  0  0  0  0  0  0  0  0  0  0
   24.1643   -6.7520  -19.6307 C   0  0  0  0  0  0  0  0  0  0  0  0
   23.5420   -7.9009  -19.1592 O   0  0  0  0  0  0  0  0  0  0  0  0
   23.4796   -5.6955  -19.7015 O   0  0  0  0  0  0  0  0  0  0  0  0
  2  1  1  6
  3  2  1  0
  4  9  2  0
  4  3  1  0
  5  4  1  0
  6  7  1  0
  6  5  2  0
  7  8  2  0
  8  9  1  0
 10 11  2  0
 10  2  1  0
 13 12  1  0
 14 13  2  0
 15 13  1  0
 17 16  1  1
 16 15  1  0
 17 18  1  0
 18 10  1  0
 19 17  1  0
 20 19  2  0
 22 21  1  0
 23 22  1  6
 23 24  1  0
 24 19  1  0
 25 26  1  0
 25 23  1  0
 27 25  2  0
M  END
$$$$
