RSN.pdb
     RDKit          3D

 26 25  0  0  1  0  0  0  0  0999 V2000
   10.0477  -23.2620   15.8913 N   0  0  0  0  0  0  0  0  0  0  0  0
   11.0015  -22.1931   15.9844 C   0  0  0  0  0  0  0  0  0  0  0  0
   11.0240  -21.3423   15.0332 N   0  0  0  0  0  0  0  0  0  0  0  0
   11.8876  -22.0713   17.0796 N   0  0  0  0  0  0  0  0  0  0  0  0
   12.8305  -20.9887   17.2252 C   0  0  0  0  0  0  0  0  0  0  0  0
   12.1207  -19.6732   17.3364 C   0  0  0  0  0  0  0  0  0  0  0  0
   12.1965  -19.1097   18.7544 C   0  0  0  0  0  0  0  0  0  0  0  0
   11.4640  -17.7716   18.6903 C   0  0  2  0  0  0  0  0  0  0  0  0
   11.7767  -17.0749   17.4762 N   0  0  0  0  0  0  0  0  0  0  0  0
   11.8684  -16.9908   19.8821 C   0  0  0  0  0  0  0  0  0  0  0  0
   12.9493  -16.3648   19.8631 O   0  0  0  0  0  0  0  0  0  0  0  0
   11.7071  -20.5652   14.9478 O   0  0  0  0  0  0  0  0  0  0  0  0
   10.1966  -15.5227   24.2281 C   0  0  0  0  0  0  0  0  0  0  0  0
   10.0318  -16.0844   22.9795 C   0  0  1  0  0  0  0  0  0  0  0  0
   11.3136  -16.2109   22.1989 N   0  0  0  0  0  0  0  0  0  0  0  0
   11.0012  -16.9890   21.0031 C   0  0  0  0  0  0  0  0  0  0  0  0
   12.3660  -16.9350   22.9205 O   0  0  0  0  0  0  0  0  0  0  0  0
   12.2539  -18.1802   23.0283 N   0  0  0  0  0  0  0  0  0  0  0  0
   16.1821  -14.7731   22.4440 C   0  0  0  0  0  0  0  0  0  0  0  0
   16.2053  -16.0920   22.9314 O   0  0  0  0  0  0  0  0  0  0  0  0
   16.5921  -17.0177   22.1879 C   0  0  0  0  0  0  0  0  0  0  0  0
   15.7782  -16.3897   24.3081 C   0  0  2  0  0  0  0  0  0  0  0  0
   14.4340  -17.0837   24.2622 N   0  0  0  0  0  0  0  0  0  0  0  0
   13.4875  -16.3028   23.4933 C   0  0  0  0  0  0  0  0  0  0  0  0
   13.8720  -17.3630   25.6028 O   0  0  0  0  0  0  0  0  0  0  0  0
   14.0270  -18.4250   26.2389 O   0  0  0  0  0  0  0  0  0  0  0  0
  2  1  1  0
  2  4  1  0
  3  2  2  0
  5  4  1  0
  5  6  1  0
  6  7  1  0
  7  8  1  0
  8  9  1  6
 10 11  2  0
 10  8  1  0
 12 13  1  0
 14 13  1  6
 14 15  1  0
 14 16  1  0
 15 10  1  0
 16 23  1  0
 17 16  2  0
 19 18  1  0
 20 19  2  0
 21 19  1  0
 22 21  1  6
 22 24  1  0
 23 22  1  0
 24 25  2  0
 24 26  1  0
M  END
$$$$
