RSN.pdb
     RDKit          3D

 26 25  0  0  1  0  0  0  0  0999 V2000
   10.0849  -12.3874   20.6333 N   0  0  0  0  0  0  0  0  0  0  0  0
    8.8704  -12.7659   19.9681 C   0  0  0  0  0  0  0  0  0  0  0  0
    8.3908  -11.9488   19.1129 N   0  0  0  0  0  0  0  0  0  0  0  0
    8.2185  -13.9916   20.2362 N   0  0  0  0  0  0  0  0  0  0  0  0
    7.0430  -14.4403   19.5297 C   0  0  0  0  0  0  0  0  0  0  0  0
    7.1212  -15.9091   19.2411 C   0  0  0  0  0  0  0  0  0  0  0  0
    8.1081  -16.6144   20.1699 C   0  0  0  0  0  0  0  0  0  0  0  0
    8.3654  -17.9718   19.5198 C   0  0  2  0  0  0  0  0  0  0  0  0
    7.1410  -18.5566   19.0548 N   0  0  0  0  0  0  0  0  0  0  0  0
    9.0234  -18.8278   20.5336 C   0  0  0  0  0  0  0  0  0  0  0  0
    8.3969  -19.1385   21.5688 O   0  0  0  0  0  0  0  0  0  0  0  0
    7.5363  -12.1152   18.5471 O   0  0  0  0  0  0  0  0  0  0  0  0
   12.9923  -19.9836   19.7929 C   0  0  0  0  0  0  0  0  0  0  0  0
   12.1088  -20.8594   20.3879 C   0  0  1  0  0  0  0  0  0  0  0  0
   11.0302  -20.1794   21.1893 N   0  0  0  0  0  0  0  0  0  0  0  0
   10.3491  -19.2606   20.2810 C   0  0  0  0  0  0  0  0  0  0  0  0
   11.5497  -19.3773   22.3026 O   0  0  0  0  0  0  0  0  0  0  0  0
   11.7487  -18.1546   22.1026 N   0  0  0  0  0  0  0  0  0  0  0  0
   11.6695  -21.0369   27.3789 C   0  0  0  0  0  0  0  0  0  0  0  0
   11.2436  -20.4452   26.1763 O   0  0  0  0  0  0  0  0  0  0  0  0
   10.5363  -21.1008   25.3830 C   0  0  0  0  0  0  0  0  0  0  0  0
   11.6240  -19.0624   25.8458 C   0  0  1  0  0  0  0  0  0  0  0  0
   12.4544  -19.0744   24.5805 N   0  0  0  0  0  0  0  0  0  0  0  0
   11.8329  -19.9115   23.5755 C   0  0  0  0  0  0  0  0  0  0  0  0
   13.8501  -19.5165   24.7990 O   0  0  0  0  0  0  0  0  0  0  0  0
   14.3881  -20.4955   24.2436 O   0  0  0  0  0  0  0  0  0  0  0  0
  2  1  1  0
  2  4  1  0
  3  2  2  0
  5  4  1  0
  5  6  1  0
  6  7  1  0
  7  8  1  0
  8  9  1  1
 10 11  2  0
 10  8  1  0
 12 13  1  0
 14 13  1  6
 14 15  1  0
 14 16  1  0
 15 10  1  0
 16 23  1  0
 17 16  2  0
 19 18  1  0
 20 19  2  0
 21 19  1  0
 22 21  1  6
 22 24  1  0
 23 22  1  0
 24 25  2  0
 24 26  1  0
M  END
$$$$
