RSN.pdb
     RDKit          3D

 26 25  0  0  1  0  0  0  0  0999 V2000
    6.7622  -12.8409   17.7414 N   0  0  0  0  0  0  0  0  0  0  0  0
    7.7507  -13.4522   16.8987 C   0  0  0  0  0  0  0  0  0  0  0  0
    7.5156  -13.4811   15.6445 N   0  0  0  0  0  0  0  0  0  0  0  0
    8.9436  -14.0041   17.4199 N   0  0  0  0  0  0  0  0  0  0  0  0
    9.1599  -14.2511   18.8251 C   0  0  0  0  0  0  0  0  0  0  0  0
    8.3518  -15.4238   19.2922 C   0  0  0  0  0  0  0  0  0  0  0  0
    8.7050  -15.8171   20.7256 C   0  0  0  0  0  0  0  0  0  0  0  0
    7.4633  -15.4810   21.5478 C   0  0  2  0  0  0  0  0  0  0  0  0
    6.5727  -14.6352   20.8069 N   0  0  0  0  0  0  0  0  0  0  0  0
    7.9240  -14.8236   22.7925 C   0  0  0  0  0  0  0  0  0  0  0  0
    7.9362  -13.5760   22.8547 O   0  0  0  0  0  0  0  0  0  0  0  0
    8.1872  -13.8046   14.9219 O   0  0  0  0  0  0  0  0  0  0  0  0
    6.6885  -15.9047   26.0924 C   0  0  0  0  0  0  0  0  0  0  0  0
    7.4922  -14.7967   25.9250 C   0  0  1  0  0  0  0  0  0  0  0  0
    8.7506  -15.0743   25.1457 N   0  0  0  0  0  0  0  0  0  0  0  0
    8.3350  -15.6488   23.8689 C   0  0  0  0  0  0  0  0  0  0  0  0
    9.6316  -16.0538   25.7916 O   0  0  0  0  0  0  0  0  0  0  0  0
    9.5519  -17.2498   25.4203 N   0  0  0  0  0  0  0  0  0  0  0  0
   14.3634  -17.8919   25.9542 C   0  0  0  0  0  0  0  0  0  0  0  0
   13.3009  -16.9721   26.0054 O   0  0  0  0  0  0  0  0  0  0  0  0
   12.7611  -16.5934   24.9449 C   0  0  0  0  0  0  0  0  0  0  0  0
   12.8208  -16.4531   27.2963 C   0  0  2  0  0  0  0  0  0  0  0  0
   11.3441  -16.7584   27.4256 N   0  0  0  0  0  0  0  0  0  0  0  0
   10.5555  -15.7168   26.8008 C   0  0  0  0  0  0  0  0  0  0  0  0
   10.9031  -16.9398   28.8270 O   0  0  0  0  0  0  0  0  0  0  0  0
   10.1446  -16.1669   29.4464 O   0  0  0  0  0  0  0  0  0  0  0  0
  2  1  1  0
  2  4  1  0
  3  2  2  0
  5  4  1  0
  5  6  1  0
  6  7  1  0
  7  8  1  0
  8  9  1  6
 10 11  2  0
 10  8  1  0
 12 13  1  0
 14 13  1  6
 14 15  1  0
 14 16  1  0
 15 10  1  0
 16 23  1  0
 17 16  2  0
 19 18  1  0
 20 19  2  0
 21 19  1  0
 22 21  1  6
 22 24  1  0
 23 22  1  0
 24 25  2  0
 24 26  1  0
M  END
$$$$
