RSN.pdb
     RDKit          3D

 26 25  0  0  1  0  0  0  0  0999 V2000
    9.5792  -15.2464   15.6730 N   0  0  0  0  0  0  0  0  0  0  0  0
    8.8029  -14.0798   15.3610 C   0  0  0  0  0  0  0  0  0  0  0  0
    9.0954  -13.4496   14.2904 N   0  0  0  0  0  0  0  0  0  0  0  0
    7.7516  -13.6331   16.1944 N   0  0  0  0  0  0  0  0  0  0  0  0
    7.2410  -14.3931   17.3098 C   0  0  0  0  0  0  0  0  0  0  0  0
    8.1865  -14.3379   18.4715 C   0  0  0  0  0  0  0  0  0  0  0  0
    7.6116  -13.5218   19.6281 C   0  0  0  0  0  0  0  0  0  0  0  0
    7.1420  -14.5552   20.6492 C   0  0  2  0  0  0  0  0  0  0  0  0
    5.7433  -14.4008   20.9271 N   0  0  0  0  0  0  0  0  0  0  0  0
    7.9601  -14.3712   21.8700 C   0  0  0  0  0  0  0  0  0  0  0  0
    8.2681  -13.2150   22.2292 O   0  0  0  0  0  0  0  0  0  0  0  0
    8.5910  -12.6139   13.9368 O   0  0  0  0  0  0  0  0  0  0  0  0
    7.0901  -15.4361   25.1641 C   0  0  0  0  0  0  0  0  0  0  0  0
    8.2114  -14.7134   24.8149 C   0  0  1  0  0  0  0  0  0  0  0  0
    9.1078  -15.4233   23.8347 N   0  0  0  0  0  0  0  0  0  0  0  0
    8.3613  -15.5281   22.5837 C   0  0  0  0  0  0  0  0  0  0  0  0
    9.4535  -16.7889   24.2449 O   0  0  0  0  0  0  0  0  0  0  0  0
    8.9154  -17.7408   23.6293 N   0  0  0  0  0  0  0  0  0  0  0  0
   13.9342  -19.7730   23.4138 C   0  0  0  0  0  0  0  0  0  0  0  0
   12.6356  -19.6801   23.9455 O   0  0  0  0  0  0  0  0  0  0  0  0
   12.0780  -20.7034   24.3940 C   0  0  0  0  0  0  0  0  0  0  0  0
   11.9297  -18.3890   23.9774 C   0  0  2  0  0  0  0  0  0  0  0  0
   11.1194  -18.3078   25.2531 N   0  0  0  0  0  0  0  0  0  0  0  0
   10.3542  -17.0789   25.2890 C   0  0  0  0  0  0  0  0  0  0  0  0
   11.9426  -18.4144   26.4787 O   0  0  0  0  0  0  0  0  0  0  0  0
   12.5933  -19.4224   26.8208 O   0  0  0  0  0  0  0  0  0  0  0  0
  2  1  1  0
  2  4  1  0
  3  2  2  0
  5  4  1  0
  5  6  1  0
  6  7  1  0
  7  8  1  0
  8  9  1  1
 10 11  2  0
 10  8  1  0
 12 13  1  0
 14 13  1  6
 14 15  1  0
 14 16  1  0
 15 10  1  0
 16 23  1  0
 17 16  2  0
 19 18  1  0
 20 19  2  0
 21 19  1  0
 22 21  1  6
 22 24  1  0
 23 22  1  0
 24 25  2  0
 24 26  1  0
M  END
$$$$
