RSN.pdb
     RDKit          3D

 26 25  0  0  1  0  0  0  0  0999 V2000
    9.1572  -14.2630   16.1336 N   0  0  0  0  0  0  0  0  0  0  0  0
    7.9212  -13.6367   16.5090 C   0  0  0  0  0  0  0  0  0  0  0  0
    7.6769  -12.4823   16.0222 N   0  0  0  0  0  0  0  0  0  0  0  0
    6.9988  -14.2596   17.3810 N   0  0  0  0  0  0  0  0  0  0  0  0
    7.0182  -14.0911   18.8141 C   0  0  0  0  0  0  0  0  0  0  0  0
    8.3895  -14.3449   19.3634 C   0  0  0  0  0  0  0  0  0  0  0  0
    8.4383  -14.1375   20.8763 C   0  0  0  0  0  0  0  0  0  0  0  0
    8.9772  -15.4498   21.4405 C   0  0  2  0  0  0  0  0  0  0  0  0
    8.1810  -16.5599   21.0033 N   0  0  0  0  0  0  0  0  0  0  0  0
    8.9736  -15.3290   22.9166 C   0  0  0  0  0  0  0  0  0  0  0  0
    9.5015  -14.3291   23.4479 O   0  0  0  0  0  0  0  0  0  0  0  0
    6.8203  -11.9273   16.2118 O   0  0  0  0  0  0  0  0  0  0  0  0
    6.3879  -17.7231   25.1353 C   0  0  0  0  0  0  0  0  0  0  0  0
    6.9444  -16.5387   25.5701 C   0  0  1  0  0  0  0  0  0  0  0  0
    8.3709  -16.3426   25.1287 N   0  0  0  0  0  0  0  0  0  0  0  0
    8.3647  -16.3647   23.6683 C   0  0  0  0  0  0  0  0  0  0  0  0
    9.2702  -17.4141   25.5712 O   0  0  0  0  0  0  0  0  0  0  0  0
    9.1101  -18.5564   25.0770 N   0  0  0  0  0  0  0  0  0  0  0  0
   12.1031  -18.1941   24.6576 C   0  0  0  0  0  0  0  0  0  0  0  0
   12.9706  -18.0327   25.7526 O   0  0  0  0  0  0  0  0  0  0  0  0
   14.1804  -17.7977   25.5516 C   0  0  0  0  0  0  0  0  0  0  0  0
   12.4652  -18.1384   27.1308 C   0  0  2  0  0  0  0  0  0  0  0  0
   10.9704  -18.3709   27.0854 N   0  0  0  0  0  0  0  0  0  0  0  0
   10.2967  -17.2218   26.5171 C   0  0  0  0  0  0  0  0  0  0  0  0
   10.3849  -18.6837   28.4084 O   0  0  0  0  0  0  0  0  0  0  0  0
    9.5202  -17.9983   28.9908 O   0  0  0  0  0  0  0  0  0  0  0  0
  2  1  1  0
  2  4  1  0
  3  2  2  0
  5  4  1  0
  5  6  1  0
  6  7  1  0
  7  8  1  0
  8  9  1  1
 10 11  2  0
 10  8  1  0
 12 13  1  0
 14 13  1  6
 14 15  1  0
 14 16  1  0
 15 10  1  0
 16 23  1  0
 17 16  2  0
 19 18  1  0
 20 19  2  0
 21 19  1  0
 22 21  1  6
 22 24  1  0
 23 22  1  0
 24 25  2  0
 24 26  1  0
M  END
$$$$
