RSN.pdb
     RDKit          3D

 26 25  0  0  1  0  0  0  0  0999 V2000
    8.1893  -12.8355   16.2264 N   0  0  0  0  0  0  0  0  0  0  0  0
    8.8428  -13.3282   17.4059 C   0  0  0  0  0  0  0  0  0  0  0  0
    8.9673  -12.5220   18.3876 N   0  0  0  0  0  0  0  0  0  0  0  0
    9.3338  -14.6512   17.4947 N   0  0  0  0  0  0  0  0  0  0  0  0
    8.9743  -15.5653   18.5518 C   0  0  0  0  0  0  0  0  0  0  0  0
    7.4975  -15.5343   18.8057 C   0  0  0  0  0  0  0  0  0  0  0  0
    7.1841  -15.3269   20.2866 C   0  0  0  0  0  0  0  0  0  0  0  0
    7.7921  -16.5352   20.9948 C   0  0  2  0  0  0  0  0  0  0  0  0
    6.8210  -17.5793   21.1500 N   0  0  0  0  0  0  0  0  0  0  0  0
    8.2990  -16.0681   22.3057 C   0  0  0  0  0  0  0  0  0  0  0  0
    9.2919  -15.3107   22.3409 O   0  0  0  0  0  0  0  0  0  0  0  0
    9.4474  -12.7441   19.2809 O   0  0  0  0  0  0  0  0  0  0  0  0
    6.1296  -17.1304   25.7503 C   0  0  0  0  0  0  0  0  0  0  0  0
    6.9642  -16.0334   25.7104 C   0  0  1  0  0  0  0  0  0  0  0  0
    8.1539  -16.2109   24.8042 N   0  0  0  0  0  0  0  0  0  0  0  0
    7.6275  -16.5065   23.4743 C   0  0  0  0  0  0  0  0  0  0  0  0
    9.0142  -17.3364   25.1861 O   0  0  0  0  0  0  0  0  0  0  0  0
    8.7965  -18.4501   24.6502 N   0  0  0  0  0  0  0  0  0  0  0  0
   12.6048  -17.0813   24.0113 C   0  0  0  0  0  0  0  0  0  0  0  0
   12.4183  -18.2807   24.7214 O   0  0  0  0  0  0  0  0  0  0  0  0
   12.3850  -19.3649   24.1028 C   0  0  0  0  0  0  0  0  0  0  0  0
   12.2621  -18.2685   26.1848 C   0  0  2  0  0  0  0  0  0  0  0  0
   10.7931  -18.4118   26.5196 N   0  0  0  0  0  0  0  0  0  0  0  0
   10.0649  -17.2261   26.1185 C   0  0  0  0  0  0  0  0  0  0  0  0
   10.5419  -18.6861   27.9523 O   0  0  0  0  0  0  0  0  0  0  0  0
    9.8154  -17.9986   28.6980 O   0  0  0  0  0  0  0  0  0  0  0  0
  2  1  1  0
  2  4  1  0
  3  2  2  0
  5  4  1  0
  5  6  1  0
  6  7  1  0
  7  8  1  0
  8  9  1  1
 10 11  2  0
 10  8  1  0
 12 13  1  0
 14 13  1  6
 14 15  1  0
 14 16  1  0
 15 10  1  0
 16 23  1  0
 17 16  2  0
 19 18  1  0
 20 19  2  0
 21 19  1  0
 22 21  1  6
 22 24  1  0
 23 22  1  0
 24 25  2  0
 24 26  1  0
M  END
$$$$
