RSN.pdb
     RDKit          3D

 26 25  0  0  1  0  0  0  0  0999 V2000
    7.7936  -12.4819   15.2682 N   0  0  0  0  0  0  0  0  0  0  0  0
    8.0839  -13.8700   15.0445 C   0  0  0  0  0  0  0  0  0  0  0  0
    8.8054  -14.1628   14.0333 N   0  0  0  0  0  0  0  0  0  0  0  0
    7.5994  -14.8854   15.9009 N   0  0  0  0  0  0  0  0  0  0  0  0
    7.2444  -14.6614   17.2815 C   0  0  0  0  0  0  0  0  0  0  0  0
    8.4110  -14.1214   18.0523 C   0  0  0  0  0  0  0  0  0  0  0  0
    8.0867  -13.9765   19.5382 C   0  0  0  0  0  0  0  0  0  0  0  0
    8.5785  -15.2713   20.1807 C   0  0  2  0  0  0  0  0  0  0  0  0
    7.5104  -16.2211   20.2999 N   0  0  0  0  0  0  0  0  0  0  0  0
    9.1408  -14.9197   21.5051 C   0  0  0  0  0  0  0  0  0  0  0  0
   10.0006  -14.0167   21.5824 O   0  0  0  0  0  0  0  0  0  0  0  0
    9.1377  -15.1178   13.7976 O   0  0  0  0  0  0  0  0  0  0  0  0
    6.9481  -15.5979   24.8660 C   0  0  0  0  0  0  0  0  0  0  0  0
    8.0318  -14.7525   24.7544 C   0  0  1  0  0  0  0  0  0  0  0  0
    9.1796  -15.3399   23.9761 N   0  0  0  0  0  0  0  0  0  0  0  0
    8.6730  -15.6317   22.6377 C   0  0  0  0  0  0  0  0  0  0  0  0
    9.6752  -16.6035   24.5333 O   0  0  0  0  0  0  0  0  0  0  0  0
    9.1077  -17.6646   24.1775 N   0  0  0  0  0  0  0  0  0  0  0  0
   12.6376  -19.4649   23.6315 C   0  0  0  0  0  0  0  0  0  0  0  0
   12.8899  -18.2814   24.3481 O   0  0  0  0  0  0  0  0  0  0  0  0
   13.3538  -17.2867   23.7526 C   0  0  0  0  0  0  0  0  0  0  0  0
   12.6123  -18.2060   25.7915 C   0  0  2  0  0  0  0  0  0  0  0  0
   11.1316  -17.9645   25.9912 N   0  0  0  0  0  0  0  0  0  0  0  0
   10.7498  -16.6803   25.4415 C   0  0  0  0  0  0  0  0  0  0  0  0
   10.7104  -18.0415   27.4081 O   0  0  0  0  0  0  0  0  0  0  0  0
   10.1786  -17.1134   28.0502 O   0  0  0  0  0  0  0  0  0  0  0  0
  2  1  1  0
  2  4  1  0
  3  2  2  0
  5  4  1  0
  5  6  1  0
  6  7  1  0
  7  8  1  0
  8  9  1  1
 10 11  2  0
 10  8  1  0
 12 13  1  0
 14 13  1  6
 14 15  1  0
 14 16  1  0
 15 10  1  0
 16 23  1  0
 17 16  2  0
 19 18  1  0
 20 19  2  0
 21 19  1  0
 22 21  1  6
 22 24  1  0
 23 22  1  0
 24 25  2  0
 24 26  1  0
M  END
$$$$
