EKQ.pdb
     RDKit          3D

 28 27  0  0  1  0  0  0  0  0999 V2000
   11.3171  -16.6945   18.7813 N   0  0  0  0  0  0  0  0  0  0  0  0
   12.1185  -17.0417   19.9405 C   0  0  1  0  0  0  0  0  0  0  0  0
   13.2006  -15.9850   20.0274 C   0  0  0  0  0  0  0  0  0  0  0  0
   14.5487  -16.6481   20.3121 C   0  0  0  0  0  0  0  0  0  0  0  0
   15.6207  -15.6383   20.3618 C   0  0  0  0  0  0  0  0  0  0  0  0
   16.2714  -15.4325   21.4106 O   0  0  0  0  0  0  0  0  0  0  0  0
   11.2199  -17.0079   21.1185 C   0  0  0  0  0  0  0  0  0  0  0  0
   11.0246  -15.9445   21.7551 O   0  0  0  0  0  0  0  0  0  0  0  0
   15.9080  -14.9070   19.2234 O   0  0  0  0  0  0  0  0  0  0  0  0
   10.5282  -18.1736   21.5964 N   0  0  0  0  0  0  0  0  0  0  0  0
    9.7184  -18.1800   22.7736 C   0  0  1  0  0  0  0  0  0  0  0  0
    8.8387  -19.4247   22.8069 C   0  0  0  0  0  0  0  0  0  0  0  0
    8.0522  -19.5220   24.0742 C   0  0  0  0  0  0  0  0  0  0  0  0
    7.1077  -20.6972   24.0222 C   0  0  0  0  0  0  0  0  0  0  0  0
    6.1976  -20.8123   25.1992 C   0  0  0  0  0  0  0  0  0  0  0  0
    5.4417  -22.0603   25.0413 N   0  0  0  0  0  0  0  0  0  0  0  0
   10.5233  -18.1272   24.0218 C   0  0  0  0  0  0  0  0  0  0  0  0
   11.5768  -18.8407   24.1457 O   0  0  0  0  0  0  0  0  0  0  0  0
    9.7718  -13.3084   27.7905 N   0  0  0  0  0  0  0  0  0  0  0  0
    9.8687  -14.4209   28.6969 C   0  0  0  0  0  0  0  0  0  0  0  0
    9.8181  -14.1433   29.9181 O   0  0  0  0  0  0  0  0  0  0  0  0
   10.0209  -15.8064   28.1991 C   0  0  0  0  0  0  0  0  0  0  0  0
   10.8409  -15.8690   26.9548 C   0  0  0  0  0  0  0  0  0  0  0  0
   10.9489  -17.2372   26.3553 C   0  0  2  0  0  0  0  0  0  0  0  0
   10.1642  -17.2961   25.1143 N   0  0  0  0  0  0  0  0  0  0  0  0
   10.5474  -18.3315   27.2646 C   0  0  0  0  0  0  0  0  0  0  0  0
   10.3006  -19.5052   26.8202 O   0  0  0  0  0  0  0  0  0  0  0  0
   10.4148  -18.1716   28.6223 O   0  0  0  0  0  0  0  0  0  0  0  0
  2  1  1  6
  2  3  1  0
  4  3  1  0
  5  4  1  0
  6  5  2  0
  7  2  1  0
  7 10  1  0
  8  7  2  0
  9  5  1  0
 11 10  1  0
 11 12  1  1
 13 12  1  0
 14 13  1  0
 15 14  1  0
 16 15  1  0
 17 11  1  0
 18 17  2  0
 20 19  1  0
 20 22  1  0
 21 20  2  0
 23 22  1  0
 24 23  1  1
 24 25  1  0
 25 17  1  0
 26 24  1  0
 27 26  2  0
 28 26  1  0
M  END
$$$$
