EKQ.pdb
     RDKit          3D

 28 27  0  0  1  0  0  0  0  0999 V2000
   10.2369  -13.6900   18.8305 N   0  0  0  0  0  0  0  0  0  0  0  0
   10.8511  -14.8662   19.4186 C   0  0  1  0  0  0  0  0  0  0  0  0
   12.2929  -14.4885   19.6900 C   0  0  0  0  0  0  0  0  0  0  0  0
   13.2132  -15.2338   18.7227 C   0  0  0  0  0  0  0  0  0  0  0  0
   14.6258  -15.0070   19.0755 C   0  0  0  0  0  0  0  0  0  0  0  0
   15.3887  -15.9607   19.3479 O   0  0  0  0  0  0  0  0  0  0  0  0
   10.1149  -15.1638   20.6699 C   0  0  0  0  0  0  0  0  0  0  0  0
    9.6372  -14.2433   21.3762 O   0  0  0  0  0  0  0  0  0  0  0  0
   15.1114  -13.7122   19.1042 O   0  0  0  0  0  0  0  0  0  0  0  0
    9.9067  -16.5047   21.1436 N   0  0  0  0  0  0  0  0  0  0  0  0
    8.9882  -16.8366   22.1865 C   0  0  1  0  0  0  0  0  0  0  0  0
    8.2320  -18.1148   21.8421 C   0  0  0  0  0  0  0  0  0  0  0  0
    7.2837  -18.5149   22.9259 C   0  0  0  0  0  0  0  0  0  0  0  0
    6.6081  -19.8195   22.5834 C   0  0  0  0  0  0  0  0  0  0  0  0
    5.5051  -20.2075   23.5105 C   0  0  0  0  0  0  0  0  0  0  0  0
    4.9210  -21.4500   22.9922 N   0  0  0  0  0  0  0  0  0  0  0  0
    9.6563  -17.0134   23.5022 C   0  0  0  0  0  0  0  0  0  0  0  0
   10.6579  -17.7989   23.6213 O   0  0  0  0  0  0  0  0  0  0  0  0
    9.5324  -13.2947   28.5251 N   0  0  0  0  0  0  0  0  0  0  0  0
    9.9638  -14.5528   29.0724 C   0  0  0  0  0  0  0  0  0  0  0  0
   10.6010  -14.4958   30.1502 O   0  0  0  0  0  0  0  0  0  0  0  0
    9.6654  -15.8309   28.3884 C   0  0  0  0  0  0  0  0  0  0  0  0
    9.2028  -15.6225   26.9859 C   0  0  0  0  0  0  0  0  0  0  0  0
    9.8248  -16.5489   25.9869 C   0  0  2  0  0  0  0  0  0  0  0  0
    9.2193  -16.3297   24.6661 N   0  0  0  0  0  0  0  0  0  0  0  0
    9.7447  -17.9789   26.3535 C   0  0  0  0  0  0  0  0  0  0  0  0
   10.7266  -18.5743   26.9169 O   0  0  0  0  0  0  0  0  0  0  0  0
    8.6348  -18.7542   26.1224 O   0  0  0  0  0  0  0  0  0  0  0  0
  2  1  1  1
  2  3  1  0
  4  3  1  0
  5  4  1  0
  6  5  2  0
  7  2  1  0
  7 10  1  0
  8  7  2  0
  9  5  1  0
 11 10  1  0
 11 12  1  6
 13 12  1  0
 14 13  1  0
 15 14  1  0
 16 15  1  0
 17 11  1  0
 18 17  2  0
 20 19  1  0
 20 22  1  0
 21 20  2  0
 23 22  1  0
 24 23  1  1
 24 25  1  0
 25 17  1  0
 26 24  1  0
 27 26  2  0
 28 26  1  0
M  END
$$$$
