EKQ.pdb
     RDKit          3D

 28 27  0  0  1  0  0  0  0  0999 V2000
   14.1807  -14.6765   19.1204 N   0  0  0  0  0  0  0  0  0  0  0  0
   13.0489  -15.5760   19.2482 C   0  0  1  0  0  0  0  0  0  0  0  0
   13.6355  -16.9386   19.5554 C   0  0  0  0  0  0  0  0  0  0  0  0
   14.3578  -16.8984   20.9026 C   0  0  0  0  0  0  0  0  0  0  0  0
   14.9201  -18.2213   21.2268 C   0  0  0  0  0  0  0  0  0  0  0  0
   16.1504  -18.4390   21.1579 O   0  0  0  0  0  0  0  0  0  0  0  0
   12.2141  -15.0716   20.3641 C   0  0  0  0  0  0  0  0  0  0  0  0
   12.7285  -14.4765   21.3415 O   0  0  0  0  0  0  0  0  0  0  0  0
   14.0657  -19.2377   21.6139 O   0  0  0  0  0  0  0  0  0  0  0  0
   10.7861  -15.2314   20.3942 N   0  0  0  0  0  0  0  0  0  0  0  0
    9.9503  -14.6459   21.3943 C   0  0  1  0  0  0  0  0  0  0  0  0
    8.5379  -14.4460   20.8563 C   0  0  0  0  0  0  0  0  0  0  0  0
    8.5044  -13.4858   19.7113 C   0  0  0  0  0  0  0  0  0  0  0  0
    7.1380  -13.4716   19.0719 C   0  0  0  0  0  0  0  0  0  0  0  0
    7.0193  -12.5749   17.8852 C   0  0  0  0  0  0  0  0  0  0  0  0
    5.6644  -12.7457   17.3476 N   0  0  0  0  0  0  0  0  0  0  0  0
    9.8810  -15.4646   22.6328 C   0  0  0  0  0  0  0  0  0  0  0  0
    9.8051  -16.7389   22.5652 O   0  0  0  0  0  0  0  0  0  0  0  0
   10.8089  -15.2257   30.0709 N   0  0  0  0  0  0  0  0  0  0  0  0
   10.5629  -14.6793   28.7634 C   0  0  0  0  0  0  0  0  0  0  0  0
   10.7467  -13.4459   28.6377 O   0  0  0  0  0  0  0  0  0  0  0  0
   10.1170  -15.5380   27.6434 C   0  0  0  0  0  0  0  0  0  0  0  0
   10.1961  -14.8345   26.3307 C   0  0  0  0  0  0  0  0  0  0  0  0
    9.7960  -15.6731   25.1561 C   0  0  2  0  0  0  0  0  0  0  0  0
    9.8956  -14.8778   23.9245 N   0  0  0  0  0  0  0  0  0  0  0  0
    8.4489  -16.2717   25.2688 C   0  0  0  0  0  0  0  0  0  0  0  0
    8.2448  -17.3148   25.9804 O   0  0  0  0  0  0  0  0  0  0  0  0
    7.3431  -15.7620   24.6332 O   0  0  0  0  0  0  0  0  0  0  0  0
  2  1  1  1
  2  3  1  0
  4  3  1  0
  5  4  1  0
  6  5  2  0
  7  2  1  0
  7 10  1  0
  8  7  2  0
  9  5  1  0
 11 10  1  0
 11 12  1  6
 13 12  1  0
 14 13  1  0
 15 14  1  0
 16 15  1  0
 17 11  1  0
 18 17  2  0
 20 19  1  0
 20 22  1  0
 21 20  2  0
 23 22  1  0
 24 23  1  1
 24 25  1  0
 25 17  1  0
 26 24  1  0
 27 26  2  0
 28 26  1  0
M  END
$$$$
