EKQ.pdb
     RDKit          3D

 28 27  0  0  1  0  0  0  0  0999 V2000
   14.6520  -13.7464   17.4756 N   0  0  0  0  0  0  0  0  0  0  0  0
   14.1809  -15.0664   17.8527 C   0  0  1  0  0  0  0  0  0  0  0  0
   15.4218  -15.8698   18.1843 C   0  0  0  0  0  0  0  0  0  0  0  0
   16.2117  -16.1518   16.9058 C   0  0  0  0  0  0  0  0  0  0  0  0
   17.4082  -16.9580   17.2052 C   0  0  0  0  0  0  0  0  0  0  0  0
   18.4240  -16.4448   17.7255 O   0  0  0  0  0  0  0  0  0  0  0  0
   13.3034  -14.8955   19.0348 C   0  0  0  0  0  0  0  0  0  0  0  0
   13.7516  -14.4424   20.1155 O   0  0  0  0  0  0  0  0  0  0  0  0
   17.4018  -18.3076   16.9027 O   0  0  0  0  0  0  0  0  0  0  0  0
   11.9067  -15.2338   19.0154 N   0  0  0  0  0  0  0  0  0  0  0  0
   11.0400  -15.0608   20.1382 C   0  0  1  0  0  0  0  0  0  0  0  0
    9.6142  -14.7891   19.6723 C   0  0  0  0  0  0  0  0  0  0  0  0
    9.5394  -13.6152   18.7501 C   0  0  0  0  0  0  0  0  0  0  0  0
    8.1527  -13.4847   18.1703 C   0  0  0  0  0  0  0  0  0  0  0  0
    7.9901  -12.3616   17.2014 C   0  0  0  0  0  0  0  0  0  0  0  0
    6.5822  -12.3477   16.7873 N   0  0  0  0  0  0  0  0  0  0  0  0
   11.0333  -16.2402   21.0425 C   0  0  0  0  0  0  0  0  0  0  0  0
   11.4155  -17.3846   20.6198 O   0  0  0  0  0  0  0  0  0  0  0  0
   14.1616  -18.8360   22.7886 N   0  0  0  0  0  0  0  0  0  0  0  0
   14.0959  -18.5020   24.1860 C   0  0  0  0  0  0  0  0  0  0  0  0
   14.6251  -19.3205   24.9740 O   0  0  0  0  0  0  0  0  0  0  0  0
   13.4361  -17.2607   24.6490 C   0  0  0  0  0  0  0  0  0  0  0  0
   12.6983  -16.5734   23.5500 C   0  0  0  0  0  0  0  0  0  0  0  0
   11.2427  -16.9175   23.4747 C   0  0  2  0  0  0  0  0  0  0  0  0
   10.6090  -16.1502   22.3934 N   0  0  0  0  0  0  0  0  0  0  0  0
   10.5058  -16.7180   24.7408 C   0  0  0  0  0  0  0  0  0  0  0  0
   10.6785  -17.5000   25.7381 O   0  0  0  0  0  0  0  0  0  0  0  0
    9.6038  -15.7005   24.9345 O   0  0  0  0  0  0  0  0  0  0  0  0
  2  1  1  1
  2  3  1  0
  4  3  1  0
  5  4  1  0
  6  5  2  0
  7  2  1  0
  7 10  1  0
  8  7  2  0
  9  5  1  0
 11 10  1  0
 11 12  1  6
 13 12  1  0
 14 13  1  0
 15 14  1  0
 16 15  1  0
 17 11  1  0
 18 17  2  0
 20 19  1  0
 20 22  1  0
 21 20  2  0
 23 22  1  0
 24 23  1  1
 24 25  1  0
 25 17  1  0
 26 24  1  0
 27 26  2  0
 28 26  1  0
M  END
$$$$
