EKQ.pdb
     RDKit          3D

 28 27  0  0  1  0  0  0  0  0999 V2000
   12.3965  -17.2865   19.2181 N   0  0  0  0  0  0  0  0  0  0  0  0
   11.1787  -17.7141   19.8819 C   0  0  1  0  0  0  0  0  0  0  0  0
   11.5911  -18.8205   20.8311 C   0  0  0  0  0  0  0  0  0  0  0  0
   12.4621  -18.2448   21.9483 C   0  0  0  0  0  0  0  0  0  0  0  0
   12.9066  -19.3141   22.8596 C   0  0  0  0  0  0  0  0  0  0  0  0
   13.9970  -19.9033   22.6870 O   0  0  0  0  0  0  0  0  0  0  0  0
   10.6408  -16.5387   20.6067 C   0  0  0  0  0  0  0  0  0  0  0  0
   11.4048  -15.7208   21.1738 O   0  0  0  0  0  0  0  0  0  0  0  0
   12.0981  -19.6685   23.9244 O   0  0  0  0  0  0  0  0  0  0  0  0
    9.2325  -16.2685   20.7032 N   0  0  0  0  0  0  0  0  0  0  0  0
    8.6947  -15.1298   21.3782 C   0  0  1  0  0  0  0  0  0  0  0  0
    7.2917  -14.8223   20.8669 C   0  0  0  0  0  0  0  0  0  0  0  0
    7.2993  -13.7679   19.8076 C   0  0  0  0  0  0  0  0  0  0  0  0
    7.9466  -14.2874   18.5479 C   0  0  0  0  0  0  0  0  0  0  0  0
    7.9606  -13.3176   17.4139 C   0  0  0  0  0  0  0  0  0  0  0  0
    8.6695  -13.9619   16.3021 N   0  0  0  0  0  0  0  0  0  0  0  0
    8.6395  -15.3120   22.8521 C   0  0  0  0  0  0  0  0  0  0  0  0
    8.8467  -16.4612   23.3724 O   0  0  0  0  0  0  0  0  0  0  0  0
    6.1057  -11.0716   26.8690 N   0  0  0  0  0  0  0  0  0  0  0  0
    6.5431  -12.1215   27.7493 C   0  0  0  0  0  0  0  0  0  0  0  0
    6.2950  -11.9591   28.9671 O   0  0  0  0  0  0  0  0  0  0  0  0
    7.2456  -13.3164   27.2304 C   0  0  0  0  0  0  0  0  0  0  0  0
    7.4475  -13.2520   25.7541 C   0  0  0  0  0  0  0  0  0  0  0  0
    8.1834  -14.4233   25.1803 C   0  0  2  0  0  0  0  0  0  0  0  0
    8.3586  -14.2361   23.7334 N   0  0  0  0  0  0  0  0  0  0  0  0
    7.5489  -15.7308   25.4519 C   0  0  0  0  0  0  0  0  0  0  0  0
    6.5697  -16.1515   24.7447 O   0  0  0  0  0  0  0  0  0  0  0  0
    7.9563  -16.5704   26.4596 O   0  0  0  0  0  0  0  0  0  0  0  0
  2  1  1  1
  2  3  1  0
  4  3  1  0
  5  4  1  0
  6  5  2  0
  7  2  1  0
  7 10  1  0
  8  7  2  0
  9  5  1  0
 11 10  1  0
 11 12  1  6
 13 12  1  0
 14 13  1  0
 15 14  1  0
 16 15  1  0
 17 11  1  0
 18 17  2  0
 20 19  1  0
 20 22  1  0
 21 20  2  0
 23 22  1  0
 24 23  1  6
 24 25  1  0
 25 17  1  0
 26 24  1  0
 27 26  2  0
 28 26  1  0
M  END
$$$$
