EKQ.pdb
     RDKit          3D

 28 27  0  0  1  0  0  0  0  0999 V2000
    8.8680  -17.1308   19.8849 N   0  0  0  0  0  0  0  0  0  0  0  0
   10.0526  -17.5792   20.5935 C   0  0  1  0  0  0  0  0  0  0  0  0
   11.2200  -17.2926   19.6714 C   0  0  0  0  0  0  0  0  0  0  0  0
   10.8710  -17.7241   18.2465 C   0  0  0  0  0  0  0  0  0  0  0  0
   11.9630  -17.3774   17.3199 C   0  0  0  0  0  0  0  0  0  0  0  0
   13.1212  -17.8211   17.4855 O   0  0  0  0  0  0  0  0  0  0  0  0
   10.1352  -16.7932   21.8472 C   0  0  0  0  0  0  0  0  0  0  0  0
   11.1628  -16.8252   22.5664 O   0  0  0  0  0  0  0  0  0  0  0  0
   11.6957  -16.5448   16.2483 O   0  0  0  0  0  0  0  0  0  0  0  0
    9.0594  -15.9594   22.3086 N   0  0  0  0  0  0  0  0  0  0  0  0
    9.0507  -15.3233   23.5880 C   0  0  1  0  0  0  0  0  0  0  0  0
    7.8415  -14.4037   23.7163 C   0  0  0  0  0  0  0  0  0  0  0  0
    7.8002  -13.7127   25.0410 C   0  0  0  0  0  0  0  0  0  0  0  0
    6.6024  -12.7994   25.1247 C   0  0  0  0  0  0  0  0  0  0  0  0
    6.4279  -12.1270   26.4453 C   0  0  0  0  0  0  0  0  0  0  0  0
    5.1903  -11.3417   26.3710 N   0  0  0  0  0  0  0  0  0  0  0  0
    9.0349  -16.2969   24.7108 C   0  0  0  0  0  0  0  0  0  0  0  0
    8.0879  -17.1490   24.8178 O   0  0  0  0  0  0  0  0  0  0  0  0
   13.0846  -19.9306   24.6471 N   0  0  0  0  0  0  0  0  0  0  0  0
   13.1370  -19.6055   26.0472 C   0  0  0  0  0  0  0  0  0  0  0  0
   13.8566  -20.3451   26.7585 O   0  0  0  0  0  0  0  0  0  0  0  0
   12.3773  -18.4614   26.5991 C   0  0  0  0  0  0  0  0  0  0  0  0
   10.9320  -18.5194   26.2356 C   0  0  0  0  0  0  0  0  0  0  0  0
   10.1232  -17.3622   26.7353 C   0  0  2  0  0  0  0  0  0  0  0  0
   10.0534  -16.3236   25.6981 N   0  0  0  0  0  0  0  0  0  0  0  0
   10.6125  -16.7831   28.0045 C   0  0  0  0  0  0  0  0  0  0  0  0
   10.9937  -15.5640   28.0729 O   0  0  0  0  0  0  0  0  0  0  0  0
   10.6903  -17.4952   29.1764 O   0  0  0  0  0  0  0  0  0  0  0  0
  2  1  1  6
  2  3  1  0
  4  3  1  0
  5  4  1  0
  6  5  2  0
  7  2  1  0
  7 10  1  0
  8  7  2  0
  9  5  1  0
 11 10  1  0
 11 12  1  6
 13 12  1  0
 14 13  1  0
 15 14  1  0
 16 15  1  0
 17 11  1  0
 18 17  2  0
 20 19  1  0
 20 22  1  0
 21 20  2  0
 23 22  1  0
 24 23  1  6
 24 25  1  0
 25 17  1  0
 26 24  1  0
 27 26  2  0
 28 26  1  0
M  END
$$$$
