EKQ.pdb
     RDKit          3D

 28 27  0  0  1  0  0  0  0  0999 V2000
   11.7882  -16.7755   19.3603 N   0  0  0  0  0  0  0  0  0  0  0  0
   12.5947  -16.3437   20.4871 C   0  0  1  0  0  0  0  0  0  0  0  0
   13.1237  -14.9733   20.1166 C   0  0  0  0  0  0  0  0  0  0  0  0
   14.2046  -15.1094   19.0437 C   0  0  0  0  0  0  0  0  0  0  0  0
   14.7086  -13.7828   18.6470 C   0  0  0  0  0  0  0  0  0  0  0  0
   15.5933  -13.1984   19.3116 O   0  0  0  0  0  0  0  0  0  0  0  0
   11.7009  -16.2882   21.6679 C   0  0  0  0  0  0  0  0  0  0  0  0
   12.1183  -15.8811   22.7789 O   0  0  0  0  0  0  0  0  0  0  0  0
   14.1892  -13.1772   17.5172 O   0  0  0  0  0  0  0  0  0  0  0  0
   10.3225  -16.6917   21.6133 N   0  0  0  0  0  0  0  0  0  0  0  0
    9.6152  -17.2280   22.7329 C   0  0  1  0  0  0  0  0  0  0  0  0
    8.8510  -18.4833   22.3272 C   0  0  0  0  0  0  0  0  0  0  0  0
    7.7289  -18.1780   21.3882 C   0  0  0  0  0  0  0  0  0  0  0  0
    7.0825  -19.4521   20.9036 C   0  0  0  0  0  0  0  0  0  0  0  0
    5.9386  -19.2485   19.9674 C   0  0  0  0  0  0  0  0  0  0  0  0
    5.4818  -20.5782   19.5465 N   0  0  0  0  0  0  0  0  0  0  0  0
   10.5119  -17.5585   23.8710 C   0  0  0  0  0  0  0  0  0  0  0  0
   11.7673  -17.3285   23.7964 O   0  0  0  0  0  0  0  0  0  0  0  0
    9.4230  -13.5382   26.9088 N   0  0  0  0  0  0  0  0  0  0  0  0
    9.9981  -14.2435   28.0225 C   0  0  0  0  0  0  0  0  0  0  0  0
   10.1316  -13.5865   29.0816 O   0  0  0  0  0  0  0  0  0  0  0  0
   10.4047  -15.6618   27.9065 C   0  0  0  0  0  0  0  0  0  0  0  0
   10.1371  -16.2132   26.5468 C   0  0  0  0  0  0  0  0  0  0  0  0
   10.4445  -17.6717   26.4010 C   0  0  2  0  0  0  0  0  0  0  0  0
   10.0228  -18.1349   25.0717 N   0  0  0  0  0  0  0  0  0  0  0  0
    9.8486  -18.5252   27.4509 C   0  0  0  0  0  0  0  0  0  0  0  0
    8.6271  -18.8992   27.3865 O   0  0  0  0  0  0  0  0  0  0  0  0
   10.5479  -18.9701   28.5461 O   0  0  0  0  0  0  0  0  0  0  0  0
  2  1  1  6
  2  3  1  0
  4  3  1  0
  5  4  1  0
  6  5  2  0
  7  2  1  0
  7 10  1  0
  8  7  2  0
  9  5  1  0
 11 10  1  0
 11 12  1  6
 13 12  1  0
 14 13  1  0
 15 14  1  0
 16 15  1  0
 17 11  1  0
 18 17  2  0
 20 19  1  0
 20 22  1  0
 21 20  2  0
 23 22  1  0
 24 23  1  1
 24 25  1  0
 25 17  1  0
 26 24  1  0
 27 26  2  0
 28 26  1  0
M  END
$$$$
