EKQ.pdb
     RDKit          3D

 28 27  0  0  1  0  0  0  0  0999 V2000
   11.9930  -17.0387   18.2836 N   0  0  0  0  0  0  0  0  0  0  0  0
   11.4139  -17.7700   19.3956 C   0  0  1  0  0  0  0  0  0  0  0  0
   12.4581  -18.7857   19.8118 C   0  0  0  0  0  0  0  0  0  0  0  0
   13.2612  -19.2317   18.5895 C   0  0  0  0  0  0  0  0  0  0  0  0
   14.2221  -20.2858   18.9594 C   0  0  0  0  0  0  0  0  0  0  0  0
   14.0025  -21.4882   18.6916 O   0  0  0  0  0  0  0  0  0  0  0  0
   11.1427  -16.7868   20.4708 C   0  0  0  0  0  0  0  0  0  0  0  0
   12.0451  -16.0265   20.8974 O   0  0  0  0  0  0  0  0  0  0  0  0
   15.3873  -19.9324   19.6154 O   0  0  0  0  0  0  0  0  0  0  0  0
    9.8492  -16.6467   21.0814 N   0  0  0  0  0  0  0  0  0  0  0  0
    9.5573  -15.6800   22.0923 C   0  0  1  0  0  0  0  0  0  0  0  0
    8.3121  -14.8825   21.7215 C   0  0  0  0  0  0  0  0  0  0  0  0
    8.5687  -13.9322   20.5968 C   0  0  0  0  0  0  0  0  0  0  0  0
    7.3194  -13.7353   19.7744 C   0  0  0  0  0  0  0  0  0  0  0  0
    7.5124  -12.9168   18.5418 C   0  0  0  0  0  0  0  0  0  0  0  0
    6.1856  -12.7028   17.9521 N   0  0  0  0  0  0  0  0  0  0  0  0
    9.3533  -16.2949   23.4299 C   0  0  0  0  0  0  0  0  0  0  0  0
    8.6965  -17.3852   23.5498 O   0  0  0  0  0  0  0  0  0  0  0  0
   10.6989  -13.4237   28.9819 N   0  0  0  0  0  0  0  0  0  0  0  0
   10.3022  -14.7455   29.3870 C   0  0  0  0  0  0  0  0  0  0  0  0
   10.3651  -14.9879   30.6151 O   0  0  0  0  0  0  0  0  0  0  0  0
    9.8504  -15.7491   28.3975 C   0  0  0  0  0  0  0  0  0  0  0  0
   10.0934  -15.3038   26.9950 C   0  0  0  0  0  0  0  0  0  0  0  0
    9.6028  -16.2585   25.9507 C   0  0  2  0  0  0  0  0  0  0  0  0
    9.8696  -15.7088   24.6143 N   0  0  0  0  0  0  0  0  0  0  0  0
    8.1740  -16.6161   26.0788 C   0  0  0  0  0  0  0  0  0  0  0  0
    7.8134  -17.7290   26.5959 O   0  0  0  0  0  0  0  0  0  0  0  0
    7.1528  -15.7973   25.6626 O   0  0  0  0  0  0  0  0  0  0  0  0
  2  1  1  6
  2  3  1  0
  4  3  1  0
  5  4  1  0
  6  5  2  0
  7  2  1  0
  7 10  1  0
  8  7  2  0
  9  5  1  0
 11 10  1  0
 11 12  1  6
 13 12  1  0
 14 13  1  0
 15 14  1  0
 16 15  1  0
 17 11  1  0
 18 17  2  0
 20 19  1  0
 20 22  1  0
 21 20  2  0
 23 22  1  0
 24 23  1  1
 24 25  1  0
 25 17  1  0
 26 24  1  0
 27 26  2  0
 28 26  1  0
M  END
$$$$
