FRE.pdb
     RDKit          3D

 32 32  0  0  1  0  0  0  0  0999 V2000
    6.1523  -17.6209   25.7964 N   0  0  0  0  0  0  0  0  0  0  0  0
    6.4485  -16.2779   25.3316 C   0  0  1  0  0  0  0  0  0  0  0  0
    7.2682  -15.6209   26.4485 C   0  0  0  0  0  0  0  0  0  0  0  0
    6.9166  -14.2007   26.5496 C   0  0  0  0  0  0  0  0  0  0  0  0
    7.9088  -13.2773   26.7961 C   0  0  0  0  0  0  0  0  0  0  0  0
    7.6330  -11.9142   26.9023 C   0  0  0  0  0  0  0  0  0  0  0  0
    6.3563  -11.4713   26.7611 C   0  0  0  0  0  0  0  0  0  0  0  0
    5.3291  -12.3740   26.5116 C   0  0  0  0  0  0  0  0  0  0  0  0
    5.6286  -13.7256   26.4102 C   0  0  0  0  0  0  0  0  0  0  0  0
    7.2409  -16.3956   24.0955 C   0  0  0  0  0  0  0  0  0  0  0  0
    8.0770  -17.3338   23.9323 O   0  0  0  0  0  0  0  0  0  0  0  0
    8.0513  -13.6383   15.2951 N   0  0  0  0  0  0  0  0  0  0  0  0
    8.2538  -14.3834   16.4837 C   0  0  0  0  0  0  0  0  0  0  0  0
    9.1400  -15.3489   16.4405 N   0  0  0  0  0  0  0  0  0  0  0  0
    7.5416  -14.1148   17.6783 N   0  0  0  0  0  0  0  0  0  0  0  0
    8.2058  -13.4192   18.7227 C   0  0  0  0  0  0  0  0  0  0  0  0
    8.7843  -14.3294   19.7852 C   0  0  0  0  0  0  0  0  0  0  0  0
    7.7730  -14.4085   20.8810 C   0  0  0  0  0  0  0  0  0  0  0  0
    8.0900  -15.4310   21.9377 C   0  0  2  0  0  0  0  0  0  0  0  0
    7.1379  -15.4866   23.0032 N   0  0  0  0  0  0  0  0  0  0  0  0
    9.4918  -15.2891   22.4392 C   0  0  0  0  0  0  0  0  0  0  0  0
    9.8339  -14.3286   23.1763 O   0  0  0  0  0  0  0  0  0  0  0  0
    9.3415  -15.9532   17.2419 N   0  0  0  0  0  0  0  0  0  0  0  0
   10.4790  -16.2420   22.0932 C   0  0  2  0  0  0  0  0  0  0  0  0
   11.8867  -16.0126   22.5079 C   0  0  0  0  0  0  0  0  0  0  0  0
   12.1758  -16.8168   23.7231 C   0  0  0  0  0  0  0  0  0  0  0  0
   12.0229  -18.2849   23.4514 C   0  0  0  0  0  0  0  0  0  0  0  0
   12.4601  -19.0908   24.6409 O   0  0  0  0  0  0  0  0  0  0  0  0
   11.8597  -20.1499   24.9038 C   0  0  0  0  0  0  0  0  0  0  0  0
   12.7415  -16.3672   21.3868 O   0  0  0  0  0  0  0  0  0  0  0  0
   13.9868  -16.1573   21.3852 O   0  0  0  0  0  0  0  0  0  0  0  0
   13.5024  -18.6515   25.4099 O   0  0  0  0  0  0  0  0  0  0  0  0
  2  1  1  1
  2  3  1  0
  3  4  1  0
  4  5  2  0
  5  6  1  0
  7  6  2  0
  8  7  1  0
  9  8  2  0
  9  4  1  0
 10 11  2  0
 10  2  1  0
 13 15  1  0
 13 12  1  0
 14 13  2  0
 16 17  1  0
 16 15  1  0
 17 18  1  0
 19 18  1  6
 19 20  1  0
 19 21  1  0
 20 10  1  0
 21 22  2  0
 21 23  1  0
 23 24  1  0
 24 29  1  0
 24 25  1  1
 26 25  1  0
 27 26  1  0
 28 27  2  0
 29 30  2  0
 29 32  1  0
 31 27  1  0
M  END
$$$$
