FRE.pdb
     RDKit          3D

 32 32  0  0  1  0  0  0  0  0999 V2000
    7.3868  -18.3642   27.2751 N   0  0  0  0  0  0  0  0  0  0  0  0
    8.0303  -17.1689   26.7607 C   0  0  1  0  0  0  0  0  0  0  0  0
    9.3651  -17.0593   27.5070 C   0  0  0  0  0  0  0  0  0  0  0  0
    9.6133  -15.6610   27.8732 C   0  0  0  0  0  0  0  0  0  0  0  0
   10.7394  -15.3454   28.6013 C   0  0  0  0  0  0  0  0  0  0  0  0
   11.0263  -14.0333   28.9776 C   0  0  0  0  0  0  0  0  0  0  0  0
   10.1814  -13.0299   28.6234 C   0  0  0  0  0  0  0  0  0  0  0  0
    9.0353  -13.3107   27.8886 C   0  0  0  0  0  0  0  0  0  0  0  0
    8.7714  -14.6243   27.5260 C   0  0  0  0  0  0  0  0  0  0  0  0
    8.2478  -17.3627   25.3168 C   0  0  0  0  0  0  0  0  0  0  0  0
    8.3749  -18.5199   24.8162 O   0  0  0  0  0  0  0  0  0  0  0  0
    7.6688  -11.9068   18.4458 N   0  0  0  0  0  0  0  0  0  0  0  0
    7.8716  -13.1727   17.8413 C   0  0  0  0  0  0  0  0  0  0  0  0
    8.0208  -13.1963   16.5389 N   0  0  0  0  0  0  0  0  0  0  0  0
    7.9148  -14.3736   18.5914 N   0  0  0  0  0  0  0  0  0  0  0  0
    7.8647  -14.2912   20.0078 C   0  0  0  0  0  0  0  0  0  0  0  0
    7.7484  -15.6378   20.6898 C   0  0  0  0  0  0  0  0  0  0  0  0
    7.7799  -15.3796   22.1602 C   0  0  0  0  0  0  0  0  0  0  0  0
    8.3960  -16.4899   22.9665 C   0  0  2  0  0  0  0  0  0  0  0  0
    8.3320  -16.2915   24.3813 N   0  0  0  0  0  0  0  0  0  0  0  0
    9.7822  -16.8047   22.5021 C   0  0  0  0  0  0  0  0  0  0  0  0
    9.9953  -17.3651   21.3960 O   0  0  0  0  0  0  0  0  0  0  0  0
    8.2378  -14.0522   16.0208 N   0  0  0  0  0  0  0  0  0  0  0  0
   10.9010  -16.4766   23.3040 C   0  0  1  0  0  0  0  0  0  0  0  0
   12.2481  -16.9567   22.9026 C   0  0  0  0  0  0  0  0  0  0  0  0
   13.0050  -15.8345   22.2905 C   0  0  0  0  0  0  0  0  0  0  0  0
   12.4384  -15.4645   20.9508 C   0  0  0  0  0  0  0  0  0  0  0  0
   13.5401  -15.1531   19.9789 O   0  0  0  0  0  0  0  0  0  0  0  0
   13.9156  -13.9722   19.8532 C   0  0  0  0  0  0  0  0  0  0  0  0
   12.8994  -17.4889   24.0884 O   0  0  0  0  0  0  0  0  0  0  0  0
   12.4110  -17.3694   25.2468 O   0  0  0  0  0  0  0  0  0  0  0  0
   14.1084  -16.1638   19.2535 O   0  0  0  0  0  0  0  0  0  0  0  0
  2  1  1  1
  2  3  1  0
  3  4  1  0
  4  5  2  0
  5  6  1  0
  7  6  2  0
  8  7  1  0
  9  8  2  0
  9  4  1  0
 10 11  2  0
 10  2  1  0
 13 15  1  0
 13 12  1  0
 14 13  2  0
 16 17  1  0
 16 15  1  0
 17 18  1  0
 19 18  1  6
 19 20  1  0
 19 21  1  0
 20 10  1  0
 21 22  2  0
 21 23  1  0
 23 24  1  0
 24 29  1  0
 24 25  1  6
 26 25  1  0
 27 26  1  0
 28 27  2  0
 29 30  2  0
 29 32  1  0
 31 27  1  0
M  END
$$$$
