FRE.pdb
     RDKit          3D

 32 32  0  0  1  0  0  0  0  0999 V2000
    6.6179  -16.4290   26.0531 N   0  0  0  0  0  0  0  0  0  0  0  0
    7.3358  -15.7523   24.9881 C   0  0  1  0  0  0  0  0  0  0  0  0
    8.3541  -14.8416   25.6841 C   0  0  0  0  0  0  0  0  0  0  0  0
    7.6659  -13.6845   26.2657 C   0  0  0  0  0  0  0  0  0  0  0  0
    6.5038  -13.2291   25.6824 C   0  0  0  0  0  0  0  0  0  0  0  0
    5.8072  -12.1335   26.1920 C   0  0  0  0  0  0  0  0  0  0  0  0
    6.2757  -11.4887   27.2924 C   0  0  0  0  0  0  0  0  0  0  0  0
    7.4452  -11.9199   27.9076 C   0  0  0  0  0  0  0  0  0  0  0  0
    8.1207  -13.0127   27.3818 C   0  0  0  0  0  0  0  0  0  0  0  0
    8.0137  -16.7807   24.1803 C   0  0  0  0  0  0  0  0  0  0  0  0
    8.5288  -17.8082   24.7140 O   0  0  0  0  0  0  0  0  0  0  0  0
    7.0107  -13.9782   18.9915 N   0  0  0  0  0  0  0  0  0  0  0  0
    8.1078  -13.8931   18.0980 C   0  0  0  0  0  0  0  0  0  0  0  0
    8.3544  -12.7212   17.5641 N   0  0  0  0  0  0  0  0  0  0  0  0
    8.9165  -15.0118   17.7807 N   0  0  0  0  0  0  0  0  0  0  0  0
    8.6925  -16.2299   18.4749 C   0  0  0  0  0  0  0  0  0  0  0  0
    8.9406  -16.1329   19.9652 C   0  0  0  0  0  0  0  0  0  0  0  0
    8.7745  -17.5095   20.5195 C   0  0  0  0  0  0  0  0  0  0  0  0
    8.9708  -17.6009   22.0080 C   0  0  2  0  0  0  0  0  0  0  0  0
    8.1455  -16.7103   22.7634 N   0  0  0  0  0  0  0  0  0  0  0  0
   10.4144  -17.4875   22.3817 C   0  0  0  0  0  0  0  0  0  0  0  0
   11.2559  -16.9613   21.6083 O   0  0  0  0  0  0  0  0  0  0  0  0
    9.0921  -12.5721   16.8700 N   0  0  0  0  0  0  0  0  0  0  0  0
   10.8749  -17.9746   23.6279 C   0  0  1  0  0  0  0  0  0  0  0  0
   12.3158  -17.8533   23.9675 C   0  0  0  0  0  0  0  0  0  0  0  0
   12.6919  -16.4164   23.9978 C   0  0  0  0  0  0  0  0  0  0  0  0
   13.3063  -15.9887   22.6970 C   0  0  0  0  0  0  0  0  0  0  0  0
   14.6561  -15.3720   22.9276 O   0  0  0  0  0  0  0  0  0  0  0  0
   15.1192  -15.3526   24.0836 C   0  0  0  0  0  0  0  0  0  0  0  0
   12.5259  -18.5130   25.2459 O   0  0  0  0  0  0  0  0  0  0  0  0
   11.5764  -18.9688   25.9426 O   0  0  0  0  0  0  0  0  0  0  0  0
   15.3490  -14.8460   21.8722 O   0  0  0  0  0  0  0  0  0  0  0  0
  2  1  1  1
  2  3  1  0
  3  4  1  0
  4  5  2  0
  5  6  1  0
  7  6  2  0
  8  7  1  0
  9  8  2  0
  9  4  1  0
 10 11  2  0
 10  2  1  0
 13 15  1  0
 13 12  1  0
 14 13  2  0
 16 17  1  0
 16 15  1  0
 17 18  1  0
 19 18  1  6
 19 20  1  0
 19 21  1  0
 20 10  1  0
 21 22  2  0
 21 23  1  0
 23 24  1  0
 24 29  1  0
 24 25  1  6
 26 25  1  0
 27 26  1  0
 28 27  2  0
 29 30  2  0
 29 32  1  0
 31 27  1  0
M  END
$$$$
