FRE.pdb
     RDKit          3D

 32 32  0  0  1  0  0  0  0  0999 V2000
    6.5808  -18.3047   26.6114 N   0  0  0  0  0  0  0  0  0  0  0  0
    6.5222  -16.9027   26.2396 C   0  0  1  0  0  0  0  0  0  0  0  0
    7.1343  -16.1329   27.4158 C   0  0  0  0  0  0  0  0  0  0  0  0
    7.0340  -14.6908   27.1684 C   0  0  0  0  0  0  0  0  0  0  0  0
    5.7890  -14.1077   27.0806 C   0  0  0  0  0  0  0  0  0  0  0  0
    5.6331  -12.7415   26.8467 C   0  0  0  0  0  0  0  0  0  0  0  0
    6.7298  -11.9529   26.6997 C   0  0  0  0  0  0  0  0  0  0  0  0
    8.0022  -12.5064   26.7821 C   0  0  0  0  0  0  0  0  0  0  0  0
    8.1315  -13.8686   27.0155 C   0  0  0  0  0  0  0  0  0  0  0  0
    7.3280  -16.7284   25.0189 C   0  0  0  0  0  0  0  0  0  0  0  0
    8.3989  -17.3803   24.8342 O   0  0  0  0  0  0  0  0  0  0  0  0
   10.1631  -14.0711   18.1366 N   0  0  0  0  0  0  0  0  0  0  0  0
    8.8657  -13.5436   17.9185 C   0  0  0  0  0  0  0  0  0  0  0  0
    8.7876  -12.3082   17.4861 N   0  0  0  0  0  0  0  0  0  0  0  0
    7.6903  -14.2992   18.1506 N   0  0  0  0  0  0  0  0  0  0  0  0
    7.0817  -14.2311   19.4315 C   0  0  0  0  0  0  0  0  0  0  0  0
    8.0388  -14.5019   20.5728 C   0  0  0  0  0  0  0  0  0  0  0  0
    7.2059  -14.6836   21.7988 C   0  0  0  0  0  0  0  0  0  0  0  0
    7.7651  -15.6766   22.7805 C   0  0  2  0  0  0  0  0  0  0  0  0
    6.9810  -15.8334   23.9661 N   0  0  0  0  0  0  0  0  0  0  0  0
    9.2027  -15.3999   23.0862 C   0  0  0  0  0  0  0  0  0  0  0  0
    9.5441  -14.4736   23.8662 O   0  0  0  0  0  0  0  0  0  0  0  0
    7.8972  -11.8169   17.3683 N   0  0  0  0  0  0  0  0  0  0  0  0
   10.2259  -16.1816   22.4993 C   0  0  2  0  0  0  0  0  0  0  0  0
   11.6373  -15.9491   22.8993 C   0  0  0  0  0  0  0  0  0  0  0  0
   12.1190  -17.1104   23.6908 C   0  0  0  0  0  0  0  0  0  0  0  0
   13.5329  -16.9049   24.1506 C   0  0  0  0  0  0  0  0  0  0  0  0
   13.9879  -18.0617   24.9933 O   0  0  0  0  0  0  0  0  0  0  0  0
   13.1589  -18.9329   25.3173 C   0  0  0  0  0  0  0  0  0  0  0  0
   12.4118  -15.7393   21.6870 O   0  0  0  0  0  0  0  0  0  0  0  0
   13.5570  -15.2070   21.6926 O   0  0  0  0  0  0  0  0  0  0  0  0
   15.2952  -18.1385   25.3880 O   0  0  0  0  0  0  0  0  0  0  0  0
  2  1  1  1
  2  3  1  0
  3  4  1  0
  4  5  2  0
  5  6  1  0
  7  6  2  0
  8  7  1  0
  9  8  2  0
  9  4  1  0
 10 11  2  0
 10  2  1  0
 13 15  1  0
 13 12  1  0
 14 13  2  0
 16 17  1  0
 16 15  1  0
 17 18  1  0
 19 18  1  1
 19 20  1  0
 19 21  1  0
 20 10  1  0
 21 22  2  0
 21 23  1  0
 23 24  1  0
 24 29  1  0
 24 25  1  6
 26 25  1  0
 27 26  1  0
 28 27  2  0
 29 30  2  0
 29 32  1  0
 31 27  1  0
M  END
$$$$
