FRE.pdb
     RDKit          3D

 32 32  0  0  1  0  0  0  0  0999 V2000
    7.2619  -16.4888   26.5625 N   0  0  0  0  0  0  0  0  0  0  0  0
    6.4226  -16.7335   25.4037 C   0  0  1  0  0  0  0  0  0  0  0  0
    5.4375  -15.5600   25.3464 C   0  0  0  0  0  0  0  0  0  0  0  0
    6.1185  -14.3232   25.7428 C   0  0  0  0  0  0  0  0  0  0  0  0
    6.1107  -13.9451   27.0676 C   0  0  0  0  0  0  0  0  0  0  0  0
    6.7415  -12.7795   27.5020 C   0  0  0  0  0  0  0  0  0  0  0  0
    7.3848  -11.9864   26.6056 C   0  0  0  0  0  0  0  0  0  0  0  0
    7.4136  -12.3361   25.2606 C   0  0  0  0  0  0  0  0  0  0  0  0
    6.7784  -13.5009   24.8526 C   0  0  0  0  0  0  0  0  0  0  0  0
    7.2927  -16.7500   24.2152 C   0  0  0  0  0  0  0  0  0  0  0  0
    7.7249  -17.8364   23.7265 O   0  0  0  0  0  0  0  0  0  0  0  0
    7.1374  -12.6141   16.7610 N   0  0  0  0  0  0  0  0  0  0  0  0
    8.1629  -13.5819   16.6166 C   0  0  0  0  0  0  0  0  0  0  0  0
    8.4783  -13.9411   15.3956 N   0  0  0  0  0  0  0  0  0  0  0  0
    8.8319  -14.1503   17.7283 N   0  0  0  0  0  0  0  0  0  0  0  0
    8.3220  -13.8976   19.0290 C   0  0  0  0  0  0  0  0  0  0  0  0
    9.0886  -14.6022   20.1281 C   0  0  0  0  0  0  0  0  0  0  0  0
    8.2348  -14.5462   21.3520 C   0  0  0  0  0  0  0  0  0  0  0  0
    8.5581  -15.5996   22.3759 C   0  0  2  0  0  0  0  0  0  0  0  0
    7.7131  -15.5741   23.5293 N   0  0  0  0  0  0  0  0  0  0  0  0
   10.0090  -15.5895   22.7380 C   0  0  0  0  0  0  0  0  0  0  0  0
   10.6390  -14.5133   22.9053 O   0  0  0  0  0  0  0  0  0  0  0  0
    9.1981  -14.6399   15.1914 N   0  0  0  0  0  0  0  0  0  0  0  0
   10.7173  -16.8034   22.9033 C   0  0  2  0  0  0  0  0  0  0  0  0
   12.1384  -16.7623   23.3334 C   0  0  0  0  0  0  0  0  0  0  0  0
   12.4474  -17.9853   24.1181 C   0  0  0  0  0  0  0  0  0  0  0  0
   11.6608  -18.0236   25.3957 C   0  0  0  0  0  0  0  0  0  0  0  0
   11.9052  -19.3117   26.1283 O   0  0  0  0  0  0  0  0  0  0  0  0
   11.9230  -20.3768   25.4831 C   0  0  0  0  0  0  0  0  0  0  0  0
   12.9586  -16.6425   22.1391 O   0  0  0  0  0  0  0  0  0  0  0  0
   14.2130  -16.5030   22.1841 O   0  0  0  0  0  0  0  0  0  0  0  0
   12.1025  -19.2936   27.4816 O   0  0  0  0  0  0  0  0  0  0  0  0
  2  1  1  1
  2  3  1  0
  3  4  1  0
  4  5  2  0
  5  6  1  0
  7  6  2  0
  8  7  1  0
  9  8  2  0
  9  4  1  0
 10 11  2  0
 10  2  1  0
 13 15  1  0
 13 12  1  0
 14 13  2  0
 16 17  1  0
 16 15  1  0
 17 18  1  0
 19 18  1  6
 19 20  1  0
 19 21  1  0
 20 10  1  0
 21 22  2  0
 21 23  1  0
 23 24  1  0
 24 29  1  0
 24 25  1  1
 26 25  1  0
 27 26  1  0
 28 27  2  0
 29 30  2  0
 29 32  1  0
 31 27  1  0
M  END
$$$$
