YEL.pdb
     RDKit          3D

 30 30  0  0  1  0  0  0  0  0999 V2000
   15.7595  -16.3082  -16.5092 O   0  0  0  0  0  0  0  0  0  0  0  0
   16.2024  -15.0000  -16.2972 C   0  0  0  0  0  0  0  0  0  0  0  0
   16.8037  -14.3057  -17.3183 C   0  0  0  0  0  0  0  0  0  0  0  0
   17.2588  -12.9972  -17.1439 C   0  0  0  0  0  0  0  0  0  0  0  0
   17.1166  -12.3587  -15.9310 C   0  0  0  0  0  0  0  0  0  0  0  0
   17.5825  -10.9675  -15.6896 C   0  0  0  0  0  0  0  0  0  0  0  0
   19.0806  -10.8404  -15.8773 C   0  0  2  0  0  0  0  0  0  0  0  0
   19.7142  -11.5825  -14.8001 N   0  0  0  0  0  0  0  0  0  0  0  0
   19.4461   -9.4168  -15.7213 C   0  0  0  0  0  0  0  0  0  0  0  0
   19.2686   -8.9131  -14.5620 O   0  0  0  0  0  0  0  0  0  0  0  0
   16.5076  -13.0716  -14.9085 C   0  0  0  0  0  0  0  0  0  0  0  0
   16.0599  -14.3605  -15.0823 C   0  0  0  0  0  0  0  0  0  0  0  0
   19.9631   -8.5856  -16.7223 N   0  0  0  0  0  0  0  0  0  0  0  0
   20.3068   -7.2067  -16.5077 C   0  0  1  0  0  0  0  0  0  0  0  0
   21.6515   -6.9111  -17.0691 C   0  0  0  0  0  0  0  0  0  0  0  0
   22.1316   -7.7375  -18.2062 C   0  0  0  0  0  0  0  0  0  0  0  0
   23.3629   -8.4784  -18.0964 C   0  0  0  0  0  0  0  0  0  0  0  0
   24.0941   -8.4879  -17.1049 O   0  0  0  0  0  0  0  0  0  0  0  0
   19.2534   -6.2358  -16.8051 C   0  0  0  0  0  0  0  0  0  0  0  0
   18.4613   -6.3485  -17.8021 O   0  0  0  0  0  0  0  0  0  0  0  0
   23.8001   -9.2659  -19.1860 O   0  0  0  0  0  0  0  0  0  0  0  0
   14.5176   -3.4278  -15.1668 C   0  0  0  0  0  0  0  0  0  0  0  0
   15.4993   -3.6030  -16.2714 C   0  0  2  0  0  0  0  0  0  0  0  0
   14.7395   -4.0627  -17.5200 C   0  0  0  0  0  0  0  0  0  0  0  0
   16.5890   -4.5851  -16.0496 C   0  0  0  0  0  0  0  0  0  0  0  0
   17.9850   -4.1153  -16.2644 C   0  0  2  0  0  0  0  0  0  0  0  0
   19.0228   -5.0701  -15.9841 N   0  0  0  0  0  0  0  0  0  0  0  0
   18.1961   -2.9010  -15.4351 C   0  0  0  0  0  0  0  0  0  0  0  0
   17.6979   -1.7946  -15.8106 O   0  0  0  0  0  0  0  0  0  0  0  0
   18.9127   -2.8876  -14.2556 O   0  0  0  0  0  0  0  0  0  0  0  0
  2  1  1  0
  3  2  2  0
  4  3  1  0
  5  4  2  0
  5 11  1  0
  6  5  1  0
  7  8  1  1
  7  6  1  0
  9  7  1  0
  9 13  1  0
 10  9  2  0
 11 12  2  0
 12  2  1  0
 14 13  1  0
 14 15  1  6
 15 16  1  0
 16 17  1  0
 17 18  2  0
 17 21  1  0
 19 14  1  0
 20 19  2  0
 23 22  1  1
 23 24  1  0
 25 23  1  0
 26 25  1  1
 26 28  1  0
 26 27  1  0
 27 19  1  0
 28 30  1  0
 29 28  2  0
M  END
$$$$
