YEL.pdb
     RDKit          3D

 30 30  0  0  1  0  0  0  0  0999 V2000
   17.4699   -9.2293  -16.8276 O   0  0  0  0  0  0  0  0  0  0  0  0
   17.8004  -10.5768  -16.6630 C   0  0  0  0  0  0  0  0  0  0  0  0
   19.1153  -10.9485  -16.5250 C   0  0  0  0  0  0  0  0  0  0  0  0
   19.4837  -12.2850  -16.3586 C   0  0  0  0  0  0  0  0  0  0  0  0
   18.5298  -13.2791  -16.3278 C   0  0  0  0  0  0  0  0  0  0  0  0
   18.8653  -14.7171  -16.1535 C   0  0  0  0  0  0  0  0  0  0  0  0
   18.9772  -15.4293  -17.4861 C   0  0  2  0  0  0  0  0  0  0  0  0
   17.6253  -15.6426  -17.9754 N   0  0  0  0  0  0  0  0  0  0  0  0
   19.5871  -16.7549  -17.2510 C   0  0  0  0  0  0  0  0  0  0  0  0
   18.8082  -17.6628  -16.8060 O   0  0  0  0  0  0  0  0  0  0  0  0
   17.2058  -12.8896  -16.4683 C   0  0  0  0  0  0  0  0  0  0  0  0
   16.8449  -11.5725  -16.6321 C   0  0  0  0  0  0  0  0  0  0  0  0
   20.9273  -17.0949  -17.4717 N   0  0  0  0  0  0  0  0  0  0  0  0
   21.4810  -18.3820  -17.1522 C   0  0  1  0  0  0  0  0  0  0  0  0
   22.6639  -18.6673  -18.0067 C   0  0  0  0  0  0  0  0  0  0  0  0
   23.3039  -20.0028  -17.8917 C   0  0  0  0  0  0  0  0  0  0  0  0
   24.3846  -20.3684  -18.7724 C   0  0  0  0  0  0  0  0  0  0  0  0
   24.9297  -21.4729  -18.7988 O   0  0  0  0  0  0  0  0  0  0  0  0
   21.6269  -18.6745  -15.7261 C   0  0  0  0  0  0  0  0  0  0  0  0
   22.1582  -17.8593  -14.8970 O   0  0  0  0  0  0  0  0  0  0  0  0
   24.8860  -19.4170  -19.6899 O   0  0  0  0  0  0  0  0  0  0  0  0
   21.7059  -20.0904  -10.8362 C   0  0  0  0  0  0  0  0  0  0  0  0
   20.5103  -19.4106  -11.4046 C   0  0  2  0  0  0  0  0  0  0  0  0
   19.2798  -20.2720  -11.1024 C   0  0  0  0  0  0  0  0  0  0  0  0
   20.5112  -19.1665  -12.8679 C   0  0  0  0  0  0  0  0  0  0  0  0
   21.2070  -20.1643  -13.7257 C   0  0  2  0  0  0  0  0  0  0  0  0
   21.1719  -19.9142  -15.1412 N   0  0  0  0  0  0  0  0  0  0  0  0
   20.6210  -21.5007  -13.4473 C   0  0  0  0  0  0  0  0  0  0  0  0
   20.7257  -21.9977  -12.2831 O   0  0  0  0  0  0  0  0  0  0  0  0
   19.9536  -22.2611  -14.3861 O   0  0  0  0  0  0  0  0  0  0  0  0
  2  1  1  0
  3  2  2  0
  4  3  1  0
  5  4  2  0
  5 11  1  0
  6  5  1  0
  7  8  1  1
  7  6  1  0
  9  7  1  0
  9 13  1  0
 10  9  2  0
 11 12  2  0
 12  2  1  0
 14 13  1  0
 14 15  1  6
 15 16  1  0
 16 17  1  0
 17 18  2  0
 17 21  1  0
 19 14  1  0
 20 19  2  0
 23 22  1  6
 23 24  1  0
 25 23  1  0
 26 25  1  1
 26 28  1  0
 26 27  1  0
 27 19  1  0
 28 30  1  0
 29 28  2  0
M  END
$$$$
