YEL.pdb
     RDKit          3D

 30 30  0  0  1  0  0  0  0  0999 V2000
   17.5232  -17.4960  -16.4351 O   0  0  0  0  0  0  0  0  0  0  0  0
   18.6222  -18.0985  -15.8174 C   0  0  0  0  0  0  0  0  0  0  0  0
   18.4512  -19.2445  -15.0800 C   0  0  0  0  0  0  0  0  0  0  0  0
   19.5255  -19.8746  -14.4485 C   0  0  0  0  0  0  0  0  0  0  0  0
   20.8001  -19.3602  -14.5478 C   0  0  0  0  0  0  0  0  0  0  0  0
   21.9794  -19.9892  -13.8966 C   0  0  0  0  0  0  0  0  0  0  0  0
   22.7123  -20.9158  -14.8452 C   0  0  2  0  0  0  0  0  0  0  0  0
   21.8444  -22.0558  -15.0902 N   0  0  0  0  0  0  0  0  0  0  0  0
   23.9258  -21.4105  -14.1615 C   0  0  0  0  0  0  0  0  0  0  0  0
   23.7349  -22.1287  -13.1238 O   0  0  0  0  0  0  0  0  0  0  0  0
   20.9583  -18.2024  -15.2956 C   0  0  0  0  0  0  0  0  0  0  0  0
   19.8988  -17.5832  -15.9169 C   0  0  0  0  0  0  0  0  0  0  0  0
   25.2479  -21.1621  -14.5496 N   0  0  0  0  0  0  0  0  0  0  0  0
   26.3757  -21.3347  -13.6757 C   0  0  1  0  0  0  0  0  0  0  0  0
   27.6055  -21.6185  -14.4617 C   0  0  0  0  0  0  0  0  0  0  0  0
   27.4658  -21.8375  -15.9242 C   0  0  0  0  0  0  0  0  0  0  0  0
   27.8385  -20.8001  -16.8526 C   0  0  0  0  0  0  0  0  0  0  0  0
   27.1175  -20.3674  -17.7529 O   0  0  0  0  0  0  0  0  0  0  0  0
   26.5059  -20.3472  -12.6040 C   0  0  0  0  0  0  0  0  0  0  0  0
   25.9932  -19.1778  -12.6662 O   0  0  0  0  0  0  0  0  0  0  0  0
   29.1190  -20.2087  -16.7571 O   0  0  0  0  0  0  0  0  0  0  0  0
   25.6338  -20.9214   -7.1581 C   0  0  0  0  0  0  0  0  0  0  0  0
   24.8406  -20.6508   -8.3878 C   0  0  2  0  0  0  0  0  0  0  0  0
   23.5223  -21.4253   -8.2886 C   0  0  0  0  0  0  0  0  0  0  0  0
   25.4609  -21.0285   -9.6815 C   0  0  0  0  0  0  0  0  0  0  0  0
   26.6979  -20.3040  -10.0824 C   0  0  2  0  0  0  0  0  0  0  0  0
   27.2239  -20.6236  -11.3818 N   0  0  0  0  0  0  0  0  0  0  0  0
   27.7377  -20.5618   -9.0532 C   0  0  0  0  0  0  0  0  0  0  0  0
   28.4285  -21.6258   -9.1171 O   0  0  0  0  0  0  0  0  0  0  0  0
   28.0150  -19.7068   -8.0058 O   0  0  0  0  0  0  0  0  0  0  0  0
  2  1  1  0
  3  2  2  0
  4  3  1  0
  5  4  2  0
  5 11  1  0
  6  5  1  0
  7  8  1  1
  7  6  1  0
  9  7  1  0
  9 13  1  0
 10  9  2  0
 11 12  2  0
 12  2  1  0
 14 13  1  0
 14 15  1  6
 15 16  1  0
 16 17  1  0
 17 18  2  0
 17 21  1  0
 19 14  1  0
 20 19  2  0
 23 22  1  1
 23 24  1  0
 25 23  1  0
 26 25  1  1
 26 28  1  0
 26 27  1  0
 27 19  1  0
 28 30  1  0
 29 28  2  0
M  END
$$$$
