YEL.pdb
     RDKit          3D

 30 30  0  0  1  0  0  0  0  0999 V2000
   22.2732  -17.0851  -20.4216 O   0  0  0  0  0  0  0  0  0  0  0  0
   21.8120  -15.7884  -20.1807 C   0  0  0  0  0  0  0  0  0  0  0  0
   20.5601  -15.4159  -20.6053 C   0  0  0  0  0  0  0  0  0  0  0  0
   20.0653  -14.1293  -20.3826 C   0  0  0  0  0  0  0  0  0  0  0  0
   20.8258  -13.1873  -19.7243 C   0  0  0  0  0  0  0  0  0  0  0  0
   20.3495  -11.8037  -19.4603 C   0  0  0  0  0  0  0  0  0  0  0  0
   19.9830  -11.6084  -18.0033 C   0  0  2  0  0  0  0  0  0  0  0  0
   18.7734  -12.3757  -17.7567 N   0  0  0  0  0  0  0  0  0  0  0  0
   19.6625  -10.1805  -17.7954 C   0  0  0  0  0  0  0  0  0  0  0  0
   18.6951   -9.7139  -18.4850 O   0  0  0  0  0  0  0  0  0  0  0  0
   22.0881  -13.5770  -19.3009 C   0  0  0  0  0  0  0  0  0  0  0  0
   22.5737  -14.8449  -19.5213 C   0  0  0  0  0  0  0  0  0  0  0  0
   20.3201   -9.3087  -16.9192 N   0  0  0  0  0  0  0  0  0  0  0  0
   19.9307   -7.9392  -16.7238 C   0  0  1  0  0  0  0  0  0  0  0  0
   18.4888   -7.8524  -16.3713 C   0  0  0  0  0  0  0  0  0  0  0  0
   18.0581   -8.3838  -15.0528 C   0  0  0  0  0  0  0  0  0  0  0  0
   16.6805   -8.2791  -14.6426 C   0  0  0  0  0  0  0  0  0  0  0  0
   16.3018   -8.0888  -13.4858 O   0  0  0  0  0  0  0  0  0  0  0  0
   20.8439   -7.1277  -15.9187 C   0  0  0  0  0  0  0  0  0  0  0  0
   21.4077   -7.5586  -14.8553 O   0  0  0  0  0  0  0  0  0  0  0  0
   15.6560   -8.3980  -15.6095 O   0  0  0  0  0  0  0  0  0  0  0  0
   24.4856   -4.3487  -17.3292 C   0  0  0  0  0  0  0  0  0  0  0  0
   23.1531   -3.6858  -17.3261 C   0  0  2  0  0  0  0  0  0  0  0  0
   23.3380   -2.2351  -17.7829 C   0  0  0  0  0  0  0  0  0  0  0  0
   22.4327   -3.6364  -16.0301 C   0  0  0  0  0  0  0  0  0  0  0  0
   22.0056   -4.9332  -15.4371 C   0  0  2  0  0  0  0  0  0  0  0  0
   21.1854   -5.7694  -16.2711 N   0  0  0  0  0  0  0  0  0  0  0  0
   21.2867   -4.6463  -14.1691 C   0  0  0  0  0  0  0  0  0  0  0  0
   20.0533   -4.9340  -14.0722 O   0  0  0  0  0  0  0  0  0  0  0  0
   21.8771   -4.0752  -13.0599 O   0  0  0  0  0  0  0  0  0  0  0  0
  2  1  1  0
  3  2  2  0
  4  3  1  0
  5  4  2  0
  5 11  1  0
  6  5  1  0
  7  8  1  6
  7  6  1  0
  9  7  1  0
  9 13  1  0
 10  9  2  0
 11 12  2  0
 12  2  1  0
 14 13  1  0
 14 15  1  1
 15 16  1  0
 16 17  1  0
 17 18  2  0
 17 21  1  0
 19 14  1  0
 20 19  2  0
 23 22  1  1
 23 24  1  0
 25 23  1  0
 26 25  1  6
 26 28  1  0
 26 27  1  0
 27 19  1  0
 28 30  1  0
 29 28  2  0
M  END
$$$$
