YEL.pdb
     RDKit          3D

 30 30  0  0  1  0  0  0  0  0999 V2000
   29.0549  -20.1174   -3.4194 O   0  0  0  0  0  0  0  0  0  0  0  0
   28.5685  -20.0230   -4.7259 C   0  0  0  0  0  0  0  0  0  0  0  0
   29.2816  -19.3320   -5.6748 C   0  0  0  0  0  0  0  0  0  0  0  0
   28.8273  -19.2163   -6.9901 C   0  0  0  0  0  0  0  0  0  0  0  0
   27.6394  -19.7975   -7.3778 C   0  0  0  0  0  0  0  0  0  0  0  0
   27.1084  -19.7060   -8.7636 C   0  0  0  0  0  0  0  0  0  0  0  0
   27.3031  -21.0029   -9.5223 C   0  0  2  0  0  0  0  0  0  0  0  0
   28.7297  -21.1556   -9.7554 N   0  0  0  0  0  0  0  0  0  0  0  0
   26.6419  -20.8718  -10.8376 C   0  0  0  0  0  0  0  0  0  0  0  0
   27.1597  -20.0322  -11.6476 O   0  0  0  0  0  0  0  0  0  0  0  0
   26.9295  -20.4923   -6.4093 C   0  0  0  0  0  0  0  0  0  0  0  0
   27.3787  -20.6051   -5.1142 C   0  0  0  0  0  0  0  0  0  0  0  0
   25.5121  -21.5799  -11.2648 N   0  0  0  0  0  0  0  0  0  0  0  0
   24.9862  -21.5016  -12.6000 C   0  0  1  0  0  0  0  0  0  0  0  0
   25.0524  -22.8298  -13.2651 C   0  0  0  0  0  0  0  0  0  0  0  0
   23.8897  -23.2612  -14.0827 C   0  0  0  0  0  0  0  0  0  0  0  0
   23.8738  -24.5683  -14.6896 C   0  0  0  0  0  0  0  0  0  0  0  0
   23.7917  -25.6313  -14.0724 O   0  0  0  0  0  0  0  0  0  0  0  0
   23.7296  -20.7665  -12.7458 C   0  0  0  0  0  0  0  0  0  0  0  0
   22.8245  -20.7453  -11.8432 O   0  0  0  0  0  0  0  0  0  0  0  0
   23.9567  -24.6828  -16.0963 O   0  0  0  0  0  0  0  0  0  0  0  0
   20.0343  -17.2147  -14.2637 C   0  0  0  0  0  0  0  0  0  0  0  0
   20.7937  -17.6692  -15.4601 C   0  0  2  0  0  0  0  0  0  0  0  0
   19.9254  -18.6722  -16.2268 C   0  0  0  0  0  0  0  0  0  0  0  0
   22.0967  -18.3342  -15.2136 C   0  0  0  0  0  0  0  0  0  0  0  0
   22.1559  -19.3311  -14.1098 C   0  0  2  0  0  0  0  0  0  0  0  0
   23.4169  -19.9975  -13.9276 N   0  0  0  0  0  0  0  0  0  0  0  0
   21.0938  -20.3429  -14.3443 C   0  0  0  0  0  0  0  0  0  0  0  0
   21.3022  -21.2867  -15.1684 O   0  0  0  0  0  0  0  0  0  0  0  0
   19.8653  -20.3317  -13.7153 O   0  0  0  0  0  0  0  0  0  0  0  0
  2  1  1  0
  3  2  2  0
  4  3  1  0
  5  4  2  0
  5 11  1  0
  6  5  1  0
  7  8  1  6
  7  6  1  0
  9  7  1  0
  9 13  1  0
 10  9  2  0
 11 12  2  0
 12  2  1  0
 14 13  1  0
 14 15  1  1
 15 16  1  0
 16 17  1  0
 17 18  2  0
 17 21  1  0
 19 14  1  0
 20 19  2  0
 23 22  1  1
 23 24  1  0
 25 23  1  0
 26 25  1  6
 26 28  1  0
 26 27  1  0
 27 19  1  0
 28 30  1  0
 29 28  2  0
M  END
$$$$
