YEL.pdb
     RDKit          3D

 30 30  0  0  1  0  0  0  0  0999 V2000
   30.0216  -12.4770  -16.2499 O   0  0  0  0  0  0  0  0  0  0  0  0
   28.8081  -11.8000  -16.3964 C   0  0  0  0  0  0  0  0  0  0  0  0
   28.0806  -11.4484  -15.2859 C   0  0  0  0  0  0  0  0  0  0  0  0
   26.8640  -10.7715  -15.3930 C   0  0  0  0  0  0  0  0  0  0  0  0
   26.3534  -10.4334  -16.6276 C   0  0  0  0  0  0  0  0  0  0  0  0
   25.0640   -9.7133  -16.8002 C   0  0  0  0  0  0  0  0  0  0  0  0
   23.8804  -10.6059  -16.4873 C   0  0  2  0  0  0  0  0  0  0  0  0
   23.9262  -11.7233  -17.4157 N   0  0  0  0  0  0  0  0  0  0  0  0
   22.6434   -9.8438  -16.7582 C   0  0  0  0  0  0  0  0  0  0  0  0
   22.3337   -9.6900  -17.9868 O   0  0  0  0  0  0  0  0  0  0  0  0
   27.0986  -10.7945  -17.7406 C   0  0  0  0  0  0  0  0  0  0  0  0
   28.2967  -11.4613  -17.6330 C   0  0  0  0  0  0  0  0  0  0  0  0
   21.7943   -9.2841  -15.7958 N   0  0  0  0  0  0  0  0  0  0  0  0
   20.6214   -8.5204  -16.1222 C   0  0  1  0  0  0  0  0  0  0  0  0
   19.3942   -9.2375  -15.6857 C   0  0  0  0  0  0  0  0  0  0  0  0
   19.5430  -10.6134  -15.1459 C   0  0  0  0  0  0  0  0  0  0  0  0
   18.3774  -11.3908  -14.8081 C   0  0  0  0  0  0  0  0  0  0  0  0
   18.4013  -12.5177  -14.3110 O   0  0  0  0  0  0  0  0  0  0  0  0
   20.6843   -7.0933  -15.8061 C   0  0  0  0  0  0  0  0  0  0  0  0
   21.3676   -6.6231  -14.8333 O   0  0  0  0  0  0  0  0  0  0  0  0
   17.0911  -10.8563  -15.0496 O   0  0  0  0  0  0  0  0  0  0  0  0
   19.2483   -1.6873  -16.7500 C   0  0  0  0  0  0  0  0  0  0  0  0
   20.5830   -2.3313  -16.8865 C   0  0  2  0  0  0  0  0  0  0  0  0
   21.3460   -1.6206  -18.0091 C   0  0  0  0  0  0  0  0  0  0  0  0
   20.5981   -3.7790  -17.2104 C   0  0  0  0  0  0  0  0  0  0  0  0
   19.9688   -4.7044  -16.2289 C   0  0  2  0  0  0  0  0  0  0  0  0
   19.9784   -6.0987  -16.5797 N   0  0  0  0  0  0  0  0  0  0  0  0
   18.5679   -4.2615  -16.0096 C   0  0  0  0  0  0  0  0  0  0  0  0
   17.6544   -4.6711  -16.7914 O   0  0  0  0  0  0  0  0  0  0  0  0
   18.1768   -3.4156  -14.9916 O   0  0  0  0  0  0  0  0  0  0  0  0
  2  1  1  0
  3  2  2  0
  4  3  1  0
  5  4  2  0
  5 11  1  0
  6  5  1  0
  7  8  1  6
  7  6  1  0
  9  7  1  0
  9 13  1  0
 10  9  2  0
 11 12  2  0
 12  2  1  0
 14 13  1  0
 14 15  1  1
 15 16  1  0
 16 17  1  0
 17 18  2  0
 17 21  1  0
 19 14  1  0
 20 19  2  0
 23 22  1  6
 23 24  1  0
 25 23  1  0
 26 25  1  6
 26 28  1  0
 26 27  1  0
 27 19  1  0
 28 30  1  0
 29 28  2  0
M  END
$$$$
