YEL.pdb
     RDKit          3D

 30 30  0  0  1  0  0  0  0  0999 V2000
   30.9594  -16.5133  -19.3432 O   0  0  0  0  0  0  0  0  0  0  0  0
   30.0110  -17.1539  -18.5418 C   0  0  0  0  0  0  0  0  0  0  0  0
   28.8338  -17.5969  -19.0935 C   0  0  0  0  0  0  0  0  0  0  0  0
   27.8627  -18.2412  -18.3243 C   0  0  0  0  0  0  0  0  0  0  0  0
   28.0591  -18.4532  -16.9769 C   0  0  0  0  0  0  0  0  0  0  0  0
   27.0599  -19.1331  -16.1108 C   0  0  0  0  0  0  0  0  0  0  0  0
   27.6241  -20.3967  -15.4941 C   0  0  2  0  0  0  0  0  0  0  0  0
   27.7147  -21.3892  -16.5522 N   0  0  0  0  0  0  0  0  0  0  0  0
   26.6577  -20.8922  -14.4915 C   0  0  0  0  0  0  0  0  0  0  0  0
   25.6735  -21.5679  -14.9431 O   0  0  0  0  0  0  0  0  0  0  0  0
   29.2524  -18.0008  -16.4328 C   0  0  0  0  0  0  0  0  0  0  0  0
   30.2077  -17.3663  -17.1921 C   0  0  0  0  0  0  0  0  0  0  0  0
   26.7287  -20.6864  -13.1084 N   0  0  0  0  0  0  0  0  0  0  0  0
   25.6265  -20.9174  -12.2155 C   0  0  1  0  0  0  0  0  0  0  0  0
   26.0559  -20.7471  -10.8023 C   0  0  0  0  0  0  0  0  0  0  0  0
   25.0544  -20.9914   -9.7328 C   0  0  0  0  0  0  0  0  0  0  0  0
   25.4320  -20.8840   -8.3461 C   0  0  0  0  0  0  0  0  0  0  0  0
   26.5086  -20.4432   -7.9406 O   0  0  0  0  0  0  0  0  0  0  0  0
   24.3625  -20.2823  -12.5891 C   0  0  0  0  0  0  0  0  0  0  0  0
   24.2601  -19.0370  -12.8595 O   0  0  0  0  0  0  0  0  0  0  0  0
   24.5276  -21.3052   -7.3445 O   0  0  0  0  0  0  0  0  0  0  0  0
   20.2438  -20.6875  -16.7397 C   0  0  0  0  0  0  0  0  0  0  0  0
   20.5970  -20.1121  -15.4135 C   0  0  2  0  0  0  0  0  0  0  0  0
   20.7824  -18.6004  -15.5805 C   0  0  0  0  0  0  0  0  0  0  0  0
   21.8307  -20.6245  -14.7682 C   0  0  0  0  0  0  0  0  0  0  0  0
   21.9403  -20.4758  -13.2912 C   0  0  2  0  0  0  0  0  0  0  0  0
   23.1258  -21.0216  -12.6877 N   0  0  0  0  0  0  0  0  0  0  0  0
   20.7417  -21.1002  -12.6742 C   0  0  0  0  0  0  0  0  0  0  0  0
   19.7541  -20.3697  -12.3514 O   0  0  0  0  0  0  0  0  0  0  0  0
   20.6204  -22.4513  -12.4201 O   0  0  0  0  0  0  0  0  0  0  0  0
  2  1  1  0
  3  2  2  0
  4  3  1  0
  5  4  2  0
  5 11  1  0
  6  5  1  0
  7  8  1  6
  7  6  1  0
  9  7  1  0
  9 13  1  0
 10  9  2  0
 11 12  2  0
 12  2  1  0
 14 13  1  0
 14 15  1  1
 15 16  1  0
 16 17  1  0
 17 18  2  0
 17 21  1  0
 19 14  1  0
 20 19  2  0
 23 22  1  6
 23 24  1  0
 25 23  1  0
 26 25  1  6
 26 28  1  0
 26 27  1  0
 27 19  1  0
 28 30  1  0
 29 28  2  0
M  END
$$$$
