YEL.pdb
     RDKit          3D

 30 30  0  0  1  0  0  0  0  0999 V2000
   24.0836   -0.6170  -15.0559 O   0  0  0  0  0  0  0  0  0  0  0  0
   23.5718   -1.9088  -14.9090 C   0  0  0  0  0  0  0  0  0  0  0  0
   23.8350   -2.8630  -15.8610 C   0  0  0  0  0  0  0  0  0  0  0  0
   23.3408   -4.1641  -15.7482 C   0  0  0  0  0  0  0  0  0  0  0  0
   22.5675   -4.5318  -14.6684 C   0  0  0  0  0  0  0  0  0  0  0  0
   22.0156   -5.9018  -14.4977 C   0  0  0  0  0  0  0  0  0  0  0  0
   20.5509   -5.9648  -14.8798 C   0  0  2  0  0  0  0  0  0  0  0  0
   19.7802   -5.6828  -13.6801 N   0  0  0  0  0  0  0  0  0  0  0  0
   20.2426   -7.3478  -15.3002 C   0  0  0  0  0  0  0  0  0  0  0  0
   19.9280   -8.1629  -14.3697 O   0  0  0  0  0  0  0  0  0  0  0  0
   22.3096   -3.5582  -13.7144 C   0  0  0  0  0  0  0  0  0  0  0  0
   22.7973   -2.2771  -13.8273 C   0  0  0  0  0  0  0  0  0  0  0  0
   20.2659   -7.8332  -16.6133 N   0  0  0  0  0  0  0  0  0  0  0  0
   19.9898   -9.2010  -16.9572 C   0  0  1  0  0  0  0  0  0  0  0  0
   18.7044   -9.3031  -17.6977 C   0  0  0  0  0  0  0  0  0  0  0  0
   18.2266  -10.6548  -18.0862 C   0  0  0  0  0  0  0  0  0  0  0  0
   16.9632  -10.8120  -18.7615 C   0  0  0  0  0  0  0  0  0  0  0  0
   16.2197   -9.8865  -19.0906 O   0  0  0  0  0  0  0  0  0  0  0  0
   21.1152   -9.9576  -17.5065 C   0  0  0  0  0  0  0  0  0  0  0  0
   21.8065   -9.5552  -18.5037 O   0  0  0  0  0  0  0  0  0  0  0  0
   16.5064  -12.1092  -19.0888 O   0  0  0  0  0  0  0  0  0  0  0  0
   25.4944  -11.1263  -16.7322 C   0  0  0  0  0  0  0  0  0  0  0  0
   24.5186  -11.8464  -15.8696 C   0  0  2  0  0  0  0  0  0  0  0  0
   25.2993  -12.7777  -14.9365 C   0  0  0  0  0  0  0  0  0  0  0  0
   23.5061  -12.6837  -16.5586 C   0  0  0  0  0  0  0  0  0  0  0  0
   22.6022  -12.0035  -17.5260 C   0  0  2  0  0  0  0  0  0  0  0  0
   21.5377  -11.2237  -16.9550 N   0  0  0  0  0  0  0  0  0  0  0  0
   22.0277  -13.0366  -18.4258 C   0  0  0  0  0  0  0  0  0  0  0  0
   22.6917  -13.4217  -19.4377 O   0  0  0  0  0  0  0  0  0  0  0  0
   20.7929  -13.6236  -18.2368 O   0  0  0  0  0  0  0  0  0  0  0  0
  2  1  1  0
  3  2  2  0
  4  3  1  0
  5  4  2  0
  5 11  1  0
  6  5  1  0
  7  8  1  1
  7  6  1  0
  9  7  1  0
  9 13  1  0
 10  9  2  0
 11 12  2  0
 12  2  1  0
 14 13  1  0
 14 15  1  6
 15 16  1  0
 16 17  1  0
 17 18  2  0
 17 21  1  0
 19 14  1  0
 20 19  2  0
 23 22  1  6
 23 24  1  0
 25 23  1  0
 26 25  1  1
 26 28  1  0
 26 27  1  0
 27 19  1  0
 28 30  1  0
 29 28  2  0
M  END
$$$$
