YEL.pdb
     RDKit          3D

 30 30  0  0  1  0  0  0  0  0999 V2000
   29.7490  -16.1664  -19.6636 O   0  0  0  0  0  0  0  0  0  0  0  0
   28.9849  -16.9385  -18.7848 C   0  0  0  0  0  0  0  0  0  0  0  0
   29.2570  -16.9166  -17.4388 C   0  0  0  0  0  0  0  0  0  0  0  0
   28.5152  -17.6746  -16.5305 C   0  0  0  0  0  0  0  0  0  0  0  0
   27.4791  -18.4740  -16.9623 C   0  0  0  0  0  0  0  0  0  0  0  0
   26.6570  -19.3013  -16.0401 C   0  0  0  0  0  0  0  0  0  0  0  0
   27.4684  -20.4220  -15.4227 C   0  0  2  0  0  0  0  0  0  0  0  0
   27.7237  -21.3966  -16.4704 N   0  0  0  0  0  0  0  0  0  0  0  0
   26.6394  -21.0766  -14.3889 C   0  0  0  0  0  0  0  0  0  0  0  0
   25.7925  -21.9355  -14.8061 O   0  0  0  0  0  0  0  0  0  0  0  0
   27.2152  -18.4865  -18.3242 C   0  0  0  0  0  0  0  0  0  0  0  0
   27.9471  -17.7392  -19.2173 C   0  0  0  0  0  0  0  0  0  0  0  0
   26.7029  -20.8382  -13.0107 N   0  0  0  0  0  0  0  0  0  0  0  0
   25.5975  -21.0532  -12.1178 C   0  0  1  0  0  0  0  0  0  0  0  0
   25.9977  -20.7680  -10.7145 C   0  0  0  0  0  0  0  0  0  0  0  0
   24.9900  -20.9775   -9.6435 C   0  0  0  0  0  0  0  0  0  0  0  0
   25.3044  -20.6480   -8.2762 C   0  0  0  0  0  0  0  0  0  0  0  0
   26.3170  -20.0495   -7.9100 O   0  0  0  0  0  0  0  0  0  0  0  0
   24.3144  -20.4989  -12.5504 C   0  0  0  0  0  0  0  0  0  0  0  0
   24.1845  -19.3106  -13.0035 O   0  0  0  0  0  0  0  0  0  0  0  0
   24.4097  -21.0221   -7.2475 O   0  0  0  0  0  0  0  0  0  0  0  0
   19.8081  -21.7137  -16.2275 C   0  0  0  0  0  0  0  0  0  0  0  0
   20.3674  -20.8372  -15.1628 C   0  0  2  0  0  0  0  0  0  0  0  0
   20.6821  -19.4715  -15.7820 C   0  0  0  0  0  0  0  0  0  0  0  0
   21.6099  -21.3007  -14.4979 C   0  0  0  0  0  0  0  0  0  0  0  0
   21.8689  -20.8090  -13.1170 C   0  0  2  0  0  0  0  0  0  0  0  0
   23.0885  -21.2611  -12.5040 N   0  0  0  0  0  0  0  0  0  0  0  0
   20.7160  -21.1980  -12.2647 C   0  0  0  0  0  0  0  0  0  0  0  0
   20.6556  -22.3775  -11.7973 O   0  0  0  0  0  0  0  0  0  0  0  0
   19.6791  -20.3488  -11.9353 O   0  0  0  0  0  0  0  0  0  0  0  0
  2  1  1  0
  3  2  2  0
  4  3  1  0
  5  4  2  0
  5 11  1  0
  6  5  1  0
  7  8  1  6
  7  6  1  0
  9  7  1  0
  9 13  1  0
 10  9  2  0
 11 12  2  0
 12  2  1  0
 14 13  1  0
 14 15  1  1
 15 16  1  0
 16 17  1  0
 17 18  2  0
 17 21  1  0
 19 14  1  0
 20 19  2  0
 23 22  1  6
 23 24  1  0
 25 23  1  0
 26 25  1  6
 26 28  1  0
 26 27  1  0
 27 19  1  0
 28 30  1  0
 29 28  2  0
M  END
$$$$
