YEL.pdb
     RDKit          3D

 30 30  0  0  1  0  0  0  0  0999 V2000
   30.3739  -21.0697  -18.7650 O   0  0  0  0  0  0  0  0  0  0  0  0
   29.7125  -20.6549  -17.6063 C   0  0  0  0  0  0  0  0  0  0  0  0
   29.3049  -19.3495  -17.4794 C   0  0  0  0  0  0  0  0  0  0  0  0
   28.6413  -18.8986  -16.3365 C   0  0  0  0  0  0  0  0  0  0  0  0
   28.3738  -19.7582  -15.2932 C   0  0  0  0  0  0  0  0  0  0  0  0
   27.6712  -19.3324  -14.0539 C   0  0  0  0  0  0  0  0  0  0  0  0
   26.3099  -19.9862  -13.9316 C   0  0  2  0  0  0  0  0  0  0  0  0
   25.4419  -19.3612  -14.9158 N   0  0  0  0  0  0  0  0  0  0  0  0
   25.7687  -19.6781  -12.5912 C   0  0  0  0  0  0  0  0  0  0  0  0
   25.4428  -18.4621  -12.3808 O   0  0  0  0  0  0  0  0  0  0  0  0
   28.7910  -21.0737  -15.4347 C   0  0  0  0  0  0  0  0  0  0  0  0
   29.4444  -21.5160  -16.5613 C   0  0  0  0  0  0  0  0  0  0  0  0
   25.5856  -20.5933  -11.5475 N   0  0  0  0  0  0  0  0  0  0  0  0
   25.1469  -20.2168  -10.2317 C   0  0  1  0  0  0  0  0  0  0  0  0
   23.6858  -20.4490  -10.0830 C   0  0  0  0  0  0  0  0  0  0  0  0
   23.0044  -21.2907  -11.0997 C   0  0  0  0  0  0  0  0  0  0  0  0
   21.6613  -20.9787  -11.5188 C   0  0  0  0  0  0  0  0  0  0  0  0
   21.3117  -20.7939  -12.6855 O   0  0  0  0  0  0  0  0  0  0  0  0
   25.9905  -20.6719   -9.1264 C   0  0  0  0  0  0  0  0  0  0  0  0
   26.1879  -21.9069   -8.8615 O   0  0  0  0  0  0  0  0  0  0  0  0
   20.6386  -20.8673  -10.5491 O   0  0  0  0  0  0  0  0  0  0  0  0
   27.7978  -19.9359   -3.9569 C   0  0  0  0  0  0  0  0  0  0  0  0
   28.7331  -19.5069   -5.0321 C   0  0  2  0  0  0  0  0  0  0  0  0
   29.5060  -18.2811   -4.5346 C   0  0  0  0  0  0  0  0  0  0  0  0
   28.1295  -19.1311   -6.3341 C   0  0  0  0  0  0  0  0  0  0  0  0
   27.3581  -20.1794   -7.0565 C   0  0  2  0  0  0  0  0  0  0  0  0
   26.6750  -19.7527   -8.2476 N   0  0  0  0  0  0  0  0  0  0  0  0
   26.3757  -20.7651   -6.1086 C   0  0  0  0  0  0  0  0  0  0  0  0
   26.6970  -21.7904   -5.4313 O   0  0  0  0  0  0  0  0  0  0  0  0
   25.1063  -20.2628   -5.9051 O   0  0  0  0  0  0  0  0  0  0  0  0
  2  1  1  0
  3  2  2  0
  4  3  1  0
  5  4  2  0
  5 11  1  0
  6  5  1  0
  7  8  1  6
  7  6  1  0
  9  7  1  0
  9 13  1  0
 10  9  2  0
 11 12  2  0
 12  2  1  0
 14 13  1  0
 14 15  1  1
 15 16  1  0
 16 17  1  0
 17 18  2  0
 17 21  1  0
 19 14  1  0
 20 19  2  0
 23 22  1  1
 23 24  1  0
 25 23  1  0
 26 25  1  1
 26 28  1  0
 26 27  1  0
 27 19  1  0
 28 30  1  0
 29 28  2  0
M  END
$$$$
