YEL.pdb
     RDKit          3D

 30 30  0  0  1  0  0  0  0  0999 V2000
   14.6114  -18.0912  -17.9693 O   0  0  0  0  0  0  0  0  0  0  0  0
   15.9298  -17.8465  -17.5765 C   0  0  0  0  0  0  0  0  0  0  0  0
   16.9700  -18.3863  -18.2926 C   0  0  0  0  0  0  0  0  0  0  0  0
   18.3001  -18.1638  -17.9304 C   0  0  0  0  0  0  0  0  0  0  0  0
   18.6104  -17.3890  -16.8339 C   0  0  0  0  0  0  0  0  0  0  0  0
   20.0077  -17.1194  -16.4031 C   0  0  0  0  0  0  0  0  0  0  0  0
   20.7532  -18.4015  -16.0934 C   0  0  2  0  0  0  0  0  0  0  0  0
   20.2425  -18.9018  -14.8279 N   0  0  0  0  0  0  0  0  0  0  0  0
   22.1814  -18.0709  -15.9053 C   0  0  0  0  0  0  0  0  0  0  0  0
   22.4854  -17.4860  -14.8123 O   0  0  0  0  0  0  0  0  0  0  0  0
   17.5501  -16.8500  -16.1198 C   0  0  0  0  0  0  0  0  0  0  0  0
   16.2406  -17.0704  -16.4782 C   0  0  0  0  0  0  0  0  0  0  0  0
   23.2147  -18.3408  -16.8108 N   0  0  0  0  0  0  0  0  0  0  0  0
   24.5854  -17.9753  -16.5805 C   0  0  1  0  0  0  0  0  0  0  0  0
   25.4252  -19.1889  -16.4000 C   0  0  0  0  0  0  0  0  0  0  0  0
   25.1858  -20.3454  -17.3008 C   0  0  0  0  0  0  0  0  0  0  0  0
   24.9471  -21.6564  -16.7517 C   0  0  0  0  0  0  0  0  0  0  0  0
   25.7444  -22.5945  -16.7946 O   0  0  0  0  0  0  0  0  0  0  0  0
   25.1240  -16.9408  -17.4638 C   0  0  0  0  0  0  0  0  0  0  0  0
   26.2933  -16.4432  -17.3244 O   0  0  0  0  0  0  0  0  0  0  0  0
   23.7183  -21.9272  -16.1074 O   0  0  0  0  0  0  0  0  0  0  0  0
   26.3531  -13.5465  -21.0723 C   0  0  0  0  0  0  0  0  0  0  0  0
   25.6963  -14.7049  -21.7366 C   0  0  2  0  0  0  0  0  0  0  0  0
   24.5655  -14.1720  -22.6225 C   0  0  0  0  0  0  0  0  0  0  0  0
   25.0961  -15.7328  -20.8511 C   0  0  0  0  0  0  0  0  0  0  0  0
   24.8796  -15.3630  -19.4256 C   0  0  2  0  0  0  0  0  0  0  0  0
   24.3715  -16.4037  -18.5733 N   0  0  0  0  0  0  0  0  0  0  0  0
   23.9569  -14.1995  -19.3855 C   0  0  0  0  0  0  0  0  0  0  0  0
   22.7061  -14.3910  -19.4964 O   0  0  0  0  0  0  0  0  0  0  0  0
   24.3708  -12.8918  -19.2324 O   0  0  0  0  0  0  0  0  0  0  0  0
  2  1  1  0
  3  2  2  0
  4  3  1  0
  5  4  2  0
  5 11  1  0
  6  5  1  0
  7  8  1  1
  7  6  1  0
  9  7  1  0
  9 13  1  0
 10  9  2  0
 11 12  2  0
 12  2  1  0
 14 13  1  0
 14 15  1  6
 15 16  1  0
 16 17  1  0
 17 18  2  0
 17 21  1  0
 19 14  1  0
 20 19  2  0
 23 22  1  1
 23 24  1  0
 25 23  1  0
 26 25  1  6
 26 28  1  0
 26 27  1  0
 27 19  1  0
 28 30  1  0
 29 28  2  0
M  END
$$$$
