LAN.pdb
     RDKit          3D

 22 21  0  0  1  0  0  0  0  0999 V2000
    9.4641  -12.8526   20.0142 C   0  0  0  0  0  0  0  0  0  0  0  0
    8.0911  -13.4710   19.7025 C   0  0  2  0  0  0  0  0  0  0  0  0
    7.2648  -12.3808   19.0647 C   0  0  0  0  0  0  0  0  0  0  0  0
    7.5597  -13.9914   20.9798 C   0  0  0  0  0  0  0  0  0  0  0  0
    8.3144  -15.0649   21.6644 C   0  0  2  0  0  0  0  0  0  0  0  0
    8.7847  -16.1094   20.7880 N   0  0  0  0  0  0  0  0  0  0  0  0
    7.6382  -15.6935   22.8172 C   0  0  0  0  0  0  0  0  0  0  0  0
    7.1718  -14.9960   23.7707 O   0  0  0  0  0  0  0  0  0  0  0  0
    5.8828  -18.7752   23.5672 C   0  0  0  0  0  0  0  0  0  0  0  0
    6.7903  -17.6555   24.1219 C   0  0  2  0  0  0  0  0  0  0  0  0
    7.4541  -17.1165   22.9512 N   0  0  0  0  0  0  0  0  0  0  0  0
    7.7119  -18.1983   25.1263 C   0  0  0  0  0  0  0  0  0  0  0  0
    7.2508  -18.8496   26.1253 O   0  0  0  0  0  0  0  0  0  0  0  0
   12.0162  -17.9340   23.1920 N   0  0  0  0  0  0  0  0  0  0  0  0
   11.5496  -18.9059   24.1466 C   0  0  0  0  0  0  0  0  0  0  0  0
   11.2696  -20.0434   23.6925 O   0  0  0  0  0  0  0  0  0  0  0  0
   11.4321  -18.5180   25.5587 C   0  0  0  0  0  0  0  0  0  0  0  0
   10.0164  -18.6695   26.0718 C   0  0  2  0  0  0  0  0  0  0  0  0
    9.1264  -18.0695   25.1015 N   0  0  0  0  0  0  0  0  0  0  0  0
    9.8654  -17.9792   27.3932 C   0  0  0  0  0  0  0  0  0  0  0  0
   10.3092  -18.5788   28.5550 O   0  0  0  0  0  0  0  0  0  0  0  0
    9.3328  -16.8517   27.4390 O   0  0  0  0  0  0  0  0  0  0  0  0
  2  4  1  0
  2  1  1  1
  3  2  1  0
  4  5  1  0
  5  6  1  6
  7  5  1  0
  7  8  2  0
 10  9  1  6
 10 11  1  0
 10 12  1  0
 11  7  1  0
 12 13  2  0
 12 19  1  0
 14 15  1  0
 15 16  2  0
 18 17  1  6
 17 15  1  0
 18 20  1  0
 19 18  1  0
 20 22  2  0
 20 21  1  0
M  END
$$$$
