LAN.pdb
     RDKit          3D

 22 21  0  0  1  0  0  0  0  0999 V2000
    8.9162  -13.6287   18.4061 C   0  0  0  0  0  0  0  0  0  0  0  0
    7.8014  -13.5022   19.4577 C   0  0  2  0  0  0  0  0  0  0  0  0
    7.0304  -12.2503   19.1165 C   0  0  0  0  0  0  0  0  0  0  0  0
    8.4634  -13.4876   20.7792 C   0  0  0  0  0  0  0  0  0  0  0  0
    8.7880  -14.7857   21.4119 C   0  0  2  0  0  0  0  0  0  0  0  0
    8.0831  -15.9111   20.8492 N   0  0  0  0  0  0  0  0  0  0  0  0
    8.6516  -14.8380   22.8815 C   0  0  0  0  0  0  0  0  0  0  0  0
    9.1636  -13.9447   23.6251 O   0  0  0  0  0  0  0  0  0  0  0  0
    6.5450  -16.5856   25.3531 C   0  0  0  0  0  0  0  0  0  0  0  0
    7.8762  -15.8747   25.0251 C   0  0  2  0  0  0  0  0  0  0  0  0
    7.9409  -15.8813   23.5768 N   0  0  0  0  0  0  0  0  0  0  0  0
    8.9963  -16.5693   25.6699 C   0  0  0  0  0  0  0  0  0  0  0  0
    8.9870  -16.7513   26.9354 O   0  0  0  0  0  0  0  0  0  0  0  0
   10.5126  -21.1848   27.4921 N   0  0  0  0  0  0  0  0  0  0  0  0
   10.4219  -19.7740   27.2176 C   0  0  0  0  0  0  0  0  0  0  0  0
   10.4409  -19.0099   28.2147 O   0  0  0  0  0  0  0  0  0  0  0  0
   10.3154  -19.3251   25.8228 C   0  0  0  0  0  0  0  0  0  0  0  0
   11.0651  -18.0320   25.5853 C   0  0  2  0  0  0  0  0  0  0  0  0
   10.1403  -17.0837   25.0030 N   0  0  0  0  0  0  0  0  0  0  0  0
   12.2131  -18.2607   24.6497 C   0  0  0  0  0  0  0  0  0  0  0  0
   13.4846  -18.4858   25.1381 O   0  0  0  0  0  0  0  0  0  0  0  0
   12.0129  -18.2465   23.4181 O   0  0  0  0  0  0  0  0  0  0  0  0
  2  4  1  0
  2  1  1  6
  3  2  1  0
  4  5  1  0
  5  6  1  6
  7  5  1  0
  7  8  2  0
 10  9  1  6
 10 11  1  0
 10 12  1  0
 11  7  1  0
 12 13  2  0
 12 19  1  0
 14 15  1  0
 15 16  2  0
 18 17  1  6
 17 15  1  0
 18 20  1  0
 19 18  1  0
 20 22  2  0
 20 21  1  0
M  END
$$$$
