LAN.pdb
     RDKit          3D

 22 21  0  0  1  0  0  0  0  0999 V2000
    8.6133  -12.1908   19.9815 C   0  0  0  0  0  0  0  0  0  0  0  0
    8.1165  -13.4637   19.2760 C   0  0  2  0  0  0  0  0  0  0  0  0
    6.6166  -13.3358   19.1672 C   0  0  0  0  0  0  0  0  0  0  0  0
    8.5890  -14.6086   20.0828 C   0  0  0  0  0  0  0  0  0  0  0  0
    9.0340  -15.8277   19.3712 C   0  0  2  0  0  0  0  0  0  0  0  0
    8.1134  -16.2945   18.3639 N   0  0  0  0  0  0  0  0  0  0  0  0
    9.4086  -16.9722   20.2262 C   0  0  0  0  0  0  0  0  0  0  0  0
    9.2661  -18.1696   19.8275 O   0  0  0  0  0  0  0  0  0  0  0  0
   11.8157  -18.2290   21.1281 C   0  0  0  0  0  0  0  0  0  0  0  0
   10.7017  -17.9173   22.1512 C   0  0  2  0  0  0  0  0  0  0  0  0
    9.9561  -16.8282   21.5515 N   0  0  0  0  0  0  0  0  0  0  0  0
   11.2867  -17.5854   23.4552 C   0  0  0  0  0  0  0  0  0  0  0  0
   12.1093  -18.3940   24.0067 O   0  0  0  0  0  0  0  0  0  0  0  0
    7.0758  -15.2325   24.1404 N   0  0  0  0  0  0  0  0  0  0  0  0
    8.4617  -15.2810   24.5286 C   0  0  0  0  0  0  0  0  0  0  0  0
    9.1889  -14.3428   24.1169 O   0  0  0  0  0  0  0  0  0  0  0  0
    8.9295  -16.3969   25.3617 C   0  0  0  0  0  0  0  0  0  0  0  0
   10.4343  -16.3914   25.5227 C   0  0  2  0  0  0  0  0  0  0  0  0
   11.0219  -16.4054   24.2006 N   0  0  0  0  0  0  0  0  0  0  0  0
   10.8799  -17.6000   26.2885 C   0  0  0  0  0  0  0  0  0  0  0  0
   11.5747  -18.6142   25.6602 O   0  0  0  0  0  0  0  0  0  0  0  0
   10.6182  -17.6860   27.5055 O   0  0  0  0  0  0  0  0  0  0  0  0
  2  4  1  0
  2  1  1  1
  3  2  1  0
  4  5  1  0
  5  6  1  6
  7  5  1  0
  7  8  2  0
 10  9  1  6
 10 11  1  0
 10 12  1  0
 11  7  1  0
 12 13  2  0
 12 19  1  0
 14 15  1  0
 15 16  2  0
 18 17  1  6
 17 15  1  0
 18 20  1  0
 19 18  1  0
 20 22  2  0
 20 21  1  0
M  END
$$$$
