LAN.pdb
     RDKit          3D

 22 21  0  0  1  0  0  0  0  0999 V2000
    7.8361  -11.9213   26.6264 C   0  0  0  0  0  0  0  0  0  0  0  0
    6.5300  -12.2865   25.9016 C   0  0  2  0  0  0  0  0  0  0  0  0
    5.4022  -11.8136   26.7861 C   0  0  0  0  0  0  0  0  0  0  0  0
    6.5689  -13.7450   25.6649 C   0  0  0  0  0  0  0  0  0  0  0  0
    7.8143  -14.3311   25.1206 C   0  0  2  0  0  0  0  0  0  0  0  0
    8.2996  -13.6853   23.9258 N   0  0  0  0  0  0  0  0  0  0  0  0
    7.7911  -15.7890   24.8854 C   0  0  0  0  0  0  0  0  0  0  0  0
    7.3581  -16.5939   25.7673 O   0  0  0  0  0  0  0  0  0  0  0  0
    8.0012  -18.0508   21.9820 C   0  0  0  0  0  0  0  0  0  0  0  0
    8.1680  -17.8427   23.5032 C   0  0  2  0  0  0  0  0  0  0  0  0
    8.2451  -16.4040   23.6637 N   0  0  0  0  0  0  0  0  0  0  0  0
    9.3555  -18.5559   23.9871 C   0  0  0  0  0  0  0  0  0  0  0  0
    9.4337  -19.8248   23.8513 O   0  0  0  0  0  0  0  0  0  0  0  0
   12.3041  -18.4176   22.4948 N   0  0  0  0  0  0  0  0  0  0  0  0
   13.1305  -17.7136   23.4409 C   0  0  0  0  0  0  0  0  0  0  0  0
   14.0506  -17.0064   22.9593 O   0  0  0  0  0  0  0  0  0  0  0  0
   12.8545  -17.8612   24.8762 C   0  0  0  0  0  0  0  0  0  0  0  0
   11.6134  -18.6886   25.1321 C   0  0  2  0  0  0  0  0  0  0  0  0
   10.4773  -17.9546   24.6182 N   0  0  0  0  0  0  0  0  0  0  0  0
   11.4407  -18.9266   26.6015 C   0  0  0  0  0  0  0  0  0  0  0  0
   10.7816  -18.0054   27.3908 O   0  0  0  0  0  0  0  0  0  0  0  0
   11.8988  -19.9690   27.1120 O   0  0  0  0  0  0  0  0  0  0  0  0
  2  4  1  0
  2  1  1  1
  3  2  1  0
  4  5  1  0
  5  6  1  6
  7  5  1  0
  7  8  2  0
 10  9  1  6
 10 11  1  0
 10 12  1  0
 11  7  1  0
 12 13  2  0
 12 19  1  0
 14 15  1  0
 15 16  2  0
 18 17  1  1
 17 15  1  0
 18 20  1  0
 19 18  1  0
 20 22  2  0
 20 21  1  0
M  END
$$$$
