LAN.pdb
     RDKit          3D

 22 21  0  0  1  0  0  0  0  0999 V2000
    7.2402  -14.4515   21.8806 C   0  0  0  0  0  0  0  0  0  0  0  0
    8.2459  -14.9362   20.8231 C   0  0  2  0  0  0  0  0  0  0  0  0
    9.1392  -13.7606   20.5105 C   0  0  0  0  0  0  0  0  0  0  0  0
    7.4528  -15.4392   19.6816 C   0  0  0  0  0  0  0  0  0  0  0  0
    8.1290  -16.3044   18.6891 C   0  0  2  0  0  0  0  0  0  0  0  0
    7.2722  -16.7652   17.6244 N   0  0  0  0  0  0  0  0  0  0  0  0
    8.8569  -17.4666   19.2374 C   0  0  0  0  0  0  0  0  0  0  0  0
    8.2409  -18.4403   19.7718 O   0  0  0  0  0  0  0  0  0  0  0  0
   12.2787  -18.8666   19.0513 C   0  0  0  0  0  0  0  0  0  0  0  0
   10.9328  -18.7494   19.7995 C   0  0  2  0  0  0  0  0  0  0  0  0
   10.2925  -17.5900   19.2099 N   0  0  0  0  0  0  0  0  0  0  0  0
   11.1623  -18.6272   21.2435 C   0  0  0  0  0  0  0  0  0  0  0  0
   11.7224  -19.5837   21.8809 O   0  0  0  0  0  0  0  0  0  0  0  0
   12.7356  -14.7081   22.0609 N   0  0  0  0  0  0  0  0  0  0  0  0
   12.7625  -15.7447   23.0601 C   0  0  0  0  0  0  0  0  0  0  0  0
   13.8633  -16.3259   23.2308 O   0  0  0  0  0  0  0  0  0  0  0  0
   11.5318  -16.0523   23.8009 C   0  0  0  0  0  0  0  0  0  0  0  0
   11.0036  -17.4322   23.4737 C   0  0  2  0  0  0  0  0  0  0  0  0
   10.8113  -17.5055   22.0415 N   0  0  0  0  0  0  0  0  0  0  0  0
    9.6997  -17.6695   24.1731 C   0  0  0  0  0  0  0  0  0  0  0  0
    8.5298  -17.8063   23.4530 O   0  0  0  0  0  0  0  0  0  0  0  0
    9.6763  -17.7435   25.4185 O   0  0  0  0  0  0  0  0  0  0  0  0
  2  4  1  0
  2  1  1  1
  3  2  1  0
  4  5  1  0
  5  6  1  6
  7  5  1  0
  7  8  2  0
 10  9  1  6
 10 11  1  0
 10 12  1  0
 11  7  1  0
 12 13  2  0
 12 19  1  0
 14 15  1  0
 15 16  2  0
 18 17  1  6
 17 15  1  0
 18 20  1  0
 19 18  1  0
 20 22  2  0
 20 21  1  0
M  END
$$$$
