LAN.pdb
     RDKit          3D

 22 21  0  0  1  0  0  0  0  0999 V2000
    8.6624  -12.0492   19.0906 C   0  0  0  0  0  0  0  0  0  0  0  0
    7.7990  -13.3090   19.2693 C   0  0  2  0  0  0  0  0  0  0  0  0
    6.4342  -12.8350   19.7059 C   0  0  0  0  0  0  0  0  0  0  0  0
    8.5017  -14.1714   20.2426 C   0  0  0  0  0  0  0  0  0  0  0  0
    9.8897  -14.5836   19.9354 C   0  0  2  0  0  0  0  0  0  0  0  0
   10.0785  -15.0722   18.5917 N   0  0  0  0  0  0  0  0  0  0  0  0
   10.4968  -15.5506   20.8723 C   0  0  0  0  0  0  0  0  0  0  0  0
   10.4887  -15.3502   22.1264 O   0  0  0  0  0  0  0  0  0  0  0  0
   11.6341  -19.0603   20.7964 C   0  0  0  0  0  0  0  0  0  0  0  0
   11.7305  -17.6564   21.4326 C   0  0  2  0  0  0  0  0  0  0  0  0
   11.1316  -16.7739   20.4508 N   0  0  0  0  0  0  0  0  0  0  0  0
   13.1277  -17.3335   21.7432 C   0  0  0  0  0  0  0  0  0  0  0  0
   13.8315  -18.1514   22.4290 O   0  0  0  0  0  0  0  0  0  0  0  0
   14.3480  -14.3233   18.5556 N   0  0  0  0  0  0  0  0  0  0  0  0
   15.3244  -15.1307   19.2400 C   0  0  0  0  0  0  0  0  0  0  0  0
   15.8308  -16.0721   18.5798 O   0  0  0  0  0  0  0  0  0  0  0  0
   15.6609  -14.8126   20.6342 C   0  0  0  0  0  0  0  0  0  0  0  0
   15.2125  -15.8994   21.5872 C   0  0  2  0  0  0  0  0  0  0  0  0
   13.8093  -16.1535   21.3417 N   0  0  0  0  0  0  0  0  0  0  0  0
   15.4074  -15.4598   23.0064 C   0  0  0  0  0  0  0  0  0  0  0  0
   14.3313  -15.3569   23.8652 O   0  0  0  0  0  0  0  0  0  0  0  0
   16.5553  -15.1852   23.4113 O   0  0  0  0  0  0  0  0  0  0  0  0
  2  4  1  0
  2  1  1  1
  3  2  1  0
  4  5  1  0
  5  6  1  6
  7  5  1  0
  7  8  2  0
 10  9  1  6
 10 11  1  0
 10 12  1  0
 11  7  1  0
 12 13  2  0
 12 19  1  0
 14 15  1  0
 15 16  2  0
 18 17  1  6
 17 15  1  0
 18 20  1  0
 19 18  1  0
 20 22  2  0
 20 21  1  0
M  END
$$$$
