LAN.pdb
     RDKit          3D

 22 21  0  0  1  0  0  0  0  0999 V2000
    6.2335  -12.4074   24.9435 C   0  0  0  0  0  0  0  0  0  0  0  0
    6.1978  -13.2732   26.2138 C   0  0  2  0  0  0  0  0  0  0  0  0
    6.5389  -12.3592   27.3653 C   0  0  0  0  0  0  0  0  0  0  0  0
    7.1468  -14.3855   25.9967 C   0  0  0  0  0  0  0  0  0  0  0  0
    6.8264  -15.3825   24.9507 C   0  0  2  0  0  0  0  0  0  0  0  0
    5.6806  -16.2061   25.2490 N   0  0  0  0  0  0  0  0  0  0  0  0
    7.9380  -16.2629   24.5378 C   0  0  0  0  0  0  0  0  0  0  0  0
    8.0168  -17.4633   24.9451 O   0  0  0  0  0  0  0  0  0  0  0  0
   10.8405  -16.0427   22.1848 C   0  0  0  0  0  0  0  0  0  0  0  0
   10.0496  -16.7729   23.2921 C   0  0  2  0  0  0  0  0  0  0  0  0
    8.9989  -15.8432   23.6573 N   0  0  0  0  0  0  0  0  0  0  0  0
   10.9392  -17.1259   24.4043 C   0  0  0  0  0  0  0  0  0  0  0  0
   11.9431  -17.8900   24.1968 O   0  0  0  0  0  0  0  0  0  0  0  0
   11.5277  -13.4594   27.2921 N   0  0  0  0  0  0  0  0  0  0  0  0
   12.2817  -14.6843   27.2224 C   0  0  0  0  0  0  0  0  0  0  0  0
   13.3971  -14.6202   26.6477 O   0  0  0  0  0  0  0  0  0  0  0  0
   11.7150  -15.9043   27.8128 C   0  0  0  0  0  0  0  0  0  0  0  0
   11.6866  -17.0510   26.8256 C   0  0  2  0  0  0  0  0  0  0  0  0
   10.7937  -16.6858   25.7472 N   0  0  0  0  0  0  0  0  0  0  0  0
   11.1930  -18.2991   27.4919 C   0  0  0  0  0  0  0  0  0  0  0  0
   11.9425  -18.9159   28.4737 O   0  0  0  0  0  0  0  0  0  0  0  0
   10.0935  -18.7818   27.1528 O   0  0  0  0  0  0  0  0  0  0  0  0
  2  4  1  0
  2  1  1  6
  3  2  1  0
  4  5  1  0
  5  6  1  1
  7  5  1  0
  7  8  2  0
 10  9  1  6
 10 11  1  0
 10 12  1  0
 11  7  1  0
 12 13  2  0
 12 19  1  0
 14 15  1  0
 15 16  2  0
 18 17  1  1
 17 15  1  0
 18 20  1  0
 19 18  1  0
 20 22  2  0
 20 21  1  0
M  END
$$$$
