LAN.pdb
     RDKit          3D

 22 21  0  0  1  0  0  0  0  0999 V2000
    9.1636  -12.3296   19.0396 C   0  0  0  0  0  0  0  0  0  0  0  0
    7.9607  -13.2855   19.1029 C   0  0  2  0  0  0  0  0  0  0  0  0
    6.7239  -12.4226   19.0432 C   0  0  0  0  0  0  0  0  0  0  0  0
    8.1113  -14.0766   20.3424 C   0  0  0  0  0  0  0  0  0  0  0  0
    9.3076  -14.9371   20.4804 C   0  0  2  0  0  0  0  0  0  0  0  0
    9.6102  -15.7225   19.3092 N   0  0  0  0  0  0  0  0  0  0  0  0
    9.3272  -15.8292   21.6573 C   0  0  0  0  0  0  0  0  0  0  0  0
    9.0499  -15.3970   22.8190 O   0  0  0  0  0  0  0  0  0  0  0  0
    9.4263  -19.4637   22.3377 C   0  0  0  0  0  0  0  0  0  0  0  0
    9.7286  -18.0213   22.7993 C   0  0  2  0  0  0  0  0  0  0  0  0
    9.6527  -17.2313   21.5862 N   0  0  0  0  0  0  0  0  0  0  0  0
   11.0365  -17.9627   23.4618 C   0  0  0  0  0  0  0  0  0  0  0  0
   11.2600  -18.6870   24.4914 O   0  0  0  0  0  0  0  0  0  0  0  0
   14.1756  -18.4618   25.9786 N   0  0  0  0  0  0  0  0  0  0  0  0
   14.4281  -19.1685   24.7496 C   0  0  0  0  0  0  0  0  0  0  0  0
   14.9956  -20.2844   24.8548 O   0  0  0  0  0  0  0  0  0  0  0  0
   14.0168  -18.5568   23.4788 C   0  0  0  0  0  0  0  0  0  0  0  0
   13.4359  -17.1736   23.6777 C   0  0  2  0  0  0  0  0  0  0  0  0
   12.1284  -17.1483   23.0586 N   0  0  0  0  0  0  0  0  0  0  0  0
   14.3181  -16.1425   23.0419 C   0  0  0  0  0  0  0  0  0  0  0  0
   14.7322  -16.2820   21.7323 O   0  0  0  0  0  0  0  0  0  0  0  0
   14.6792  -15.1501   23.7065 O   0  0  0  0  0  0  0  0  0  0  0  0
  2  4  1  0
  2  1  1  1
  3  2  1  0
  4  5  1  0
  5  6  1  6
  7  5  1  0
  7  8  2  0
 10  9  1  6
 10 11  1  0
 10 12  1  0
 11  7  1  0
 12 13  2  0
 12 19  1  0
 14 15  1  0
 15 16  2  0
 18 17  1  6
 17 15  1  0
 18 20  1  0
 19 18  1  0
 20 22  2  0
 20 21  1  0
M  END
$$$$
