GRS.pdb
     RDKit          3D

 22 21  0  0  1  0  0  0  0  0999 V2000
   20.4619  -20.6536  -10.7695 N   0  0  0  0  0  0  0  0  0  0  0  0
   21.3101  -21.2647  -11.7419 C   0  0  0  0  0  0  0  0  0  0  0  0
   22.4534  -20.4364  -12.1448 C   0  0  0  0  0  0  0  0  0  0  0  0
   22.5644  -19.2035  -11.9201 O   0  0  0  0  0  0  0  0  0  0  0  0
   29.7418  -22.5348  -11.2898 N   0  0  0  0  0  0  0  0  0  0  0  0
   29.2647  -21.7192  -10.2306 C   0  0  0  0  0  0  0  0  0  0  0  0
   30.0788  -21.2710   -9.3502 N   0  0  0  0  0  0  0  0  0  0  0  0
   27.8839  -21.3772  -10.1136 N   0  0  0  0  0  0  0  0  0  0  0  0
   26.8906  -21.8165  -11.0546 C   0  0  0  0  0  0  0  0  0  0  0  0
   26.9394  -20.9402  -12.2733 C   0  0  0  0  0  0  0  0  0  0  0  0
   25.9153  -21.3231  -13.3084 C   0  0  0  0  0  0  0  0  0  0  0  0
   24.7185  -20.3863  -13.1890 C   0  0  2  0  0  0  0  0  0  0  0  0
   23.5215  -21.1021  -12.8507 N   0  0  0  0  0  0  0  0  0  0  0  0
   24.5178  -19.7017  -14.4869 C   0  0  0  0  0  0  0  0  0  0  0  0
   23.9327  -20.2703  -15.4302 O   0  0  0  0  0  0  0  0  0  0  0  0
   29.8081  -20.5970   -8.6067 O   0  0  0  0  0  0  0  0  0  0  0  0
   25.2930  -15.5812  -17.0274 C   0  0  0  0  0  0  0  0  0  0  0  0
   25.4574  -16.2898  -15.8418 C   0  0  2  0  0  0  0  0  0  0  0  0
   24.8371  -17.6716  -15.9318 N   0  0  0  0  0  0  0  0  0  0  0  0
   25.0048  -18.3568  -14.6665 C   0  0  0  0  0  0  0  0  0  0  0  0
   25.3883  -18.4538  -17.0455 O   0  0  0  0  0  0  0  0  0  0  0  0
   24.7444  -18.5634  -18.2874 O   0  0  0  0  0  0  0  0  0  0  0  0
  1  2  1  0
  2  3  1  0
  3 13  1  0
  4  3  2  0
  6  8  1  0
  6  5  1  0
  7  6  2  0
  9 10  1  0
  9  8  1  0
 11 10  1  0
 12 11  1  6
 12 14  1  0
 13 12  1  0
 14 19  1  0
 14 15  2  0
 16 17  1  0
 18 17  1  1
 18 20  1  0
 19 18  1  0
 20 21  1  0
 22 20  2  0
M  END
$$$$
