GRS.pdb
     RDKit          3D

 22 21  0  0  1  0  0  0  0  0999 V2000
   19.7049  -32.8834   -5.2186 N   0  0  0  0  0  0  0  0  0  0  0  0
   18.5837  -32.1343   -5.6882 C   0  0  0  0  0  0  0  0  0  0  0  0
   18.5825  -30.7287   -5.2642 C   0  0  0  0  0  0  0  0  0  0  0  0
   19.4176  -30.2129   -4.4771 O   0  0  0  0  0  0  0  0  0  0  0  0
   17.7060  -24.1419   -8.4610 N   0  0  0  0  0  0  0  0  0  0  0  0
   18.6697  -24.8357   -9.2385 C   0  0  0  0  0  0  0  0  0  0  0  0
   19.6337  -24.1951   -9.7853 N   0  0  0  0  0  0  0  0  0  0  0  0
   18.5973  -26.2479   -9.4336 N   0  0  0  0  0  0  0  0  0  0  0  0
   17.6197  -27.0748   -8.7813 C   0  0  0  0  0  0  0  0  0  0  0  0
   17.6622  -26.8204   -7.3017 C   0  0  0  0  0  0  0  0  0  0  0  0
   16.7168  -27.7030   -6.5308 C   0  0  0  0  0  0  0  0  0  0  0  0
   17.5102  -28.4877   -5.4921 C   0  0  2  0  0  0  0  0  0  0  0  0
   17.5381  -29.8893   -5.7998 N   0  0  0  0  0  0  0  0  0  0  0  0
   16.8765  -28.3000   -4.1667 C   0  0  0  0  0  0  0  0  0  0  0  0
   15.7077  -28.6792   -3.9531 O   0  0  0  0  0  0  0  0  0  0  0  0
   20.3743  -24.6480  -10.3570 O   0  0  0  0  0  0  0  0  0  0  0  0
   17.5084  -26.6917    0.4162 C   0  0  0  0  0  0  0  0  0  0  0  0
   18.0625  -26.9806   -0.8266 C   0  0  1  0  0  0  0  0  0  0  0  0
   16.9998  -27.4104   -1.8205 N   0  0  0  0  0  0  0  0  0  0  0  0
   17.6192  -27.6693   -3.1042 C   0  0  0  0  0  0  0  0  0  0  0  0
   15.9172  -26.4247   -1.9336 O   0  0  0  0  0  0  0  0  0  0  0  0
   14.7376  -26.5035   -1.1779 O   0  0  0  0  0  0  0  0  0  0  0  0
  1  2  1  0
  2  3  1  0
  3 13  1  0
  4  3  2  0
  6  8  1  0
  6  5  1  0
  7  6  2  0
  9 10  1  0
  9  8  1  0
 11 10  1  0
 12 11  1  6
 12 14  1  0
 13 12  1  0
 14 19  1  0
 14 15  2  0
 16 17  1  0
 18 17  1  1
 18 20  1  0
 19 18  1  0
 20 21  1  0
 22 20  2  0
M  END
$$$$
