GRS.pdb
     RDKit          3D

 22 21  0  0  1  0  0  0  0  0999 V2000
   23.8662  -14.4660  -17.2758 N   0  0  0  0  0  0  0  0  0  0  0  0
   24.0912  -15.7849  -17.7741 C   0  0  0  0  0  0  0  0  0  0  0  0
   24.6872  -16.7018  -16.7946 C   0  0  0  0  0  0  0  0  0  0  0  0
   25.8410  -16.5842  -16.3068 O   0  0  0  0  0  0  0  0  0  0  0  0
   22.6184  -20.6631   -9.8459 N   0  0  0  0  0  0  0  0  0  0  0  0
   24.0075  -20.8087  -10.0985 C   0  0  0  0  0  0  0  0  0  0  0  0
   24.8006  -21.1367   -9.1487 N   0  0  0  0  0  0  0  0  0  0  0  0
   24.5575  -20.5978  -11.3986 N   0  0  0  0  0  0  0  0  0  0  0  0
   23.9621  -19.7127  -12.3616 C   0  0  0  0  0  0  0  0  0  0  0  0
   23.8360  -20.4242  -13.6782 C   0  0  0  0  0  0  0  0  0  0  0  0
   23.2555  -19.5517  -14.7594 C   0  0  0  0  0  0  0  0  0  0  0  0
   24.3807  -18.7507  -15.4046 C   0  0  2  0  0  0  0  0  0  0  0  0
   23.8753  -17.8165  -16.3699 N   0  0  0  0  0  0  0  0  0  0  0  0
   25.3052  -19.6883  -16.0825 C   0  0  0  0  0  0  0  0  0  0  0  0
   24.9619  -20.2948  -17.1168 O   0  0  0  0  0  0  0  0  0  0  0  0
   25.8180  -21.3036   -9.2806 O   0  0  0  0  0  0  0  0  0  0  0  0
   29.5522  -22.0911  -15.6426 C   0  0  0  0  0  0  0  0  0  0  0  0
   28.7057  -21.0873  -15.1837 C   0  0  2  0  0  0  0  0  0  0  0  0
   27.4679  -20.9662  -16.0529 N   0  0  0  0  0  0  0  0  0  0  0  0
   26.6235  -19.9061  -15.5413 C   0  0  0  0  0  0  0  0  0  0  0  0
   26.7370  -22.2358  -16.1543 O   0  0  0  0  0  0  0  0  0  0  0  0
   26.8553  -23.0930  -17.2589 O   0  0  0  0  0  0  0  0  0  0  0  0
  1  2  1  0
  2  3  1  0
  3 13  1  0
  4  3  2  0
  6  8  1  0
  6  5  1  0
  7  6  2  0
  9 10  1  0
  9  8  1  0
 11 10  1  0
 12 11  1  6
 12 14  1  0
 13 12  1  0
 14 19  1  0
 14 15  2  0
 16 17  1  0
 18 17  1  6
 18 20  1  0
 19 18  1  0
 20 21  1  0
 22 20  2  0
M  END
$$$$
