SGW.pdb
     RDKit          3D

 25 26  0  0  1  0  0  0  0  0999 V2000
    7.2679  -14.6720   18.0061 O   0  0  0  0  0  0  0  0  0  0  0  0
    7.4895  -13.5756   18.8065 C   0  0  0  0  0  0  0  0  0  0  0  0
    8.7213  -13.8538   19.6440 C   0  0  2  0  0  0  0  0  0  0  0  0
    9.8004  -14.3676   18.8404 N   0  0  0  0  0  0  0  0  0  0  0  0
    8.4071  -14.7815   20.7519 C   0  0  0  0  0  0  0  0  0  0  0  0
    7.5123  -14.4734   21.6018 O   0  0  0  0  0  0  0  0  0  0  0  0
    9.1087  -16.0104   20.8578 N   0  0  0  0  0  0  0  0  0  0  0  0
    8.9121  -16.9413   21.9366 C   0  0  0  0  0  0  0  0  0  0  0  0
    9.5359  -16.4454   23.1703 C   0  0  0  0  0  0  0  0  0  0  0  0
   10.4736  -15.5649   23.1202 O   0  0  0  0  0  0  0  0  0  0  0  0
    9.1278  -16.9083   24.4373 N   0  0  0  0  0  0  0  0  0  0  0  0
    9.8343  -16.3981   25.6300 C   0  0  1  0  0  0  0  0  0  0  0  0
    8.8382  -16.2750   26.7822 C   0  0  0  0  0  0  0  0  0  0  0  0
    7.7297  -15.3940   26.3490 C   0  0  0  0  0  0  0  0  0  0  0  0
    6.5116  -15.7410   25.7708 C   0  0  0  0  0  0  0  0  0  0  0  0
    5.7846  -14.6383   25.5253 N   0  0  0  0  0  0  0  0  0  0  0  0
    6.4937  -13.5632   25.9283 C   0  0  0  0  0  0  0  0  0  0  0  0
    6.2375  -12.2084   25.9166 C   0  0  0  0  0  0  0  0  0  0  0  0
    7.1498  -11.2955   26.4005 C   0  0  0  0  0  0  0  0  0  0  0  0
    8.3463  -11.7576   26.9068 C   0  0  0  0  0  0  0  0  0  0  0  0
    8.6195  -13.0927   26.9277 C   0  0  0  0  0  0  0  0  0  0  0  0
    7.6951  -14.0080   26.4386 C   0  0  0  0  0  0  0  0  0  0  0  0
   10.8314  -17.4095   26.0318 C   0  0  0  0  0  0  0  0  0  0  0  0
   10.9081  -18.5233   25.4682 O   0  0  0  0  0  0  0  0  0  0  0  0
   11.7206  -17.1498   27.0559 O   0  0  0  0  0  0  0  0  0  0  0  0
  2  1  1  0
  3  2  1  0
  3  4  1  6
  5  3  1  0
  5  6  2  0
  7  5  1  0
  8  7  1  0
  8  9  1  0
  9 11  1  0
  9 10  2  0
 11 12  1  0
 12 13  1  1
 13 14  1  0
 14 15  2  0
 14 22  1  0
 15 16  1  0
 16 17  1  0
 17 18  2  0
 19 18  1  0
 20 19  2  0
 21 22  2  0
 21 20  1  0
 22 17  1  0
 23 25  1  0
 23 12  1  0
 24 23  2  0
M  END
$$$$
