SGW.pdb
     RDKit          3D

 25 26  0  0  1  0  0  0  0  0999 V2000
    7.2619  -16.0690   16.8177 O   0  0  0  0  0  0  0  0  0  0  0  0
    8.6084  -16.0576   17.0980 C   0  0  0  0  0  0  0  0  0  0  0  0
    8.9710  -17.4056   17.6875 C   0  0  2  0  0  0  0  0  0  0  0  0
    8.6179  -18.4823   16.7985 N   0  0  0  0  0  0  0  0  0  0  0  0
    8.3362  -17.5906   19.0103 C   0  0  0  0  0  0  0  0  0  0  0  0
    7.2487  -18.2435   19.1053 O   0  0  0  0  0  0  0  0  0  0  0  0
    8.9473  -17.0365   20.1649 N   0  0  0  0  0  0  0  0  0  0  0  0
    8.4447  -17.2378   21.4976 C   0  0  0  0  0  0  0  0  0  0  0  0
    9.2705  -16.5204   22.4776 C   0  0  0  0  0  0  0  0  0  0  0  0
   10.3242  -15.8830   22.1026 O   0  0  0  0  0  0  0  0  0  0  0  0
    8.9360  -16.5015   23.8466 N   0  0  0  0  0  0  0  0  0  0  0  0
    9.8831  -15.8731   24.7900 C   0  0  1  0  0  0  0  0  0  0  0  0
    9.2655  -15.8739   26.1878 C   0  0  0  0  0  0  0  0  0  0  0  0
    7.9404  -15.2172   26.1131 C   0  0  0  0  0  0  0  0  0  0  0  0
    6.6932  -15.7887   25.8764 C   0  0  0  0  0  0  0  0  0  0  0  0
    5.7402  -14.8418   25.8870 N   0  0  0  0  0  0  0  0  0  0  0  0
    6.3272  -13.6506   26.1261 C   0  0  0  0  0  0  0  0  0  0  0  0
    5.8380  -12.3668   26.2432 C   0  0  0  0  0  0  0  0  0  0  0  0
    6.6685  -11.2965   26.4974 C   0  0  0  0  0  0  0  0  0  0  0  0
    8.0214  -11.5246   26.6362 C   0  0  0  0  0  0  0  0  0  0  0  0
    8.5258  -12.7859   26.5241 C   0  0  0  0  0  0  0  0  0  0  0  0
    7.6827  -13.8608   26.2681 C   0  0  0  0  0  0  0  0  0  0  0  0
   11.0884  -16.7227   24.8537 C   0  0  0  0  0  0  0  0  0  0  0  0
   11.1051  -17.8832   24.3877 O   0  0  0  0  0  0  0  0  0  0  0  0
   12.2480  -16.2526   25.4377 O   0  0  0  0  0  0  0  0  0  0  0  0
  2  1  1  0
  3  2  1  0
  3  4  1  6
  5  3  1  0
  5  6  2  0
  7  5  1  0
  8  7  1  0
  8  9  1  0
  9 11  1  0
  9 10  2  0
 11 12  1  0
 12 13  1  1
 13 14  1  0
 14 15  2  0
 14 22  1  0
 15 16  1  0
 16 17  1  0
 17 18  2  0
 19 18  1  0
 20 19  2  0
 21 22  2  0
 21 20  1  0
 22 17  1  0
 23 25  1  0
 23 12  1  0
 24 23  2  0
M  END
$$$$
