SGW.pdb
     RDKit          3D

 25 26  0  0  1  0  0  0  0  0999 V2000
   10.2998  -13.8562   18.1230 O   0  0  0  0  0  0  0  0  0  0  0  0
    9.2695  -14.7267   17.8537 C   0  0  0  0  0  0  0  0  0  0  0  0
    8.0083  -14.1585   18.4723 C   0  0  2  0  0  0  0  0  0  0  0  0
    7.9488  -12.7267   18.3279 N   0  0  0  0  0  0  0  0  0  0  0  0
    7.8985  -14.5452   19.8954 C   0  0  0  0  0  0  0  0  0  0  0  0
    7.9645  -13.6544   20.8009 O   0  0  0  0  0  0  0  0  0  0  0  0
    7.7204  -15.9104   20.2392 N   0  0  0  0  0  0  0  0  0  0  0  0
    7.4633  -16.3593   21.5814 C   0  0  0  0  0  0  0  0  0  0  0  0
    8.5956  -16.0410   22.4611 C   0  0  0  0  0  0  0  0  0  0  0  0
    9.6640  -15.5052   21.9831 O   0  0  0  0  0  0  0  0  0  0  0  0
    8.5472  -16.3037   23.8449 N   0  0  0  0  0  0  0  0  0  0  0  0
    9.6809  -15.8602   24.6816 C   0  0  1  0  0  0  0  0  0  0  0  0
    9.2000  -15.6965   26.1228 C   0  0  0  0  0  0  0  0  0  0  0  0
    7.8347  -15.1239   26.0972 C   0  0  0  0  0  0  0  0  0  0  0  0
    6.6169  -15.7740   25.9162 C   0  0  0  0  0  0  0  0  0  0  0  0
    5.6080  -14.8878   25.9583 N   0  0  0  0  0  0  0  0  0  0  0  0
    6.1289  -13.6601   26.1637 C   0  0  0  0  0  0  0  0  0  0  0  0
    5.5658  -12.4079   26.2906 C   0  0  0  0  0  0  0  0  0  0  0  0
    6.3376  -11.2856   26.5021 C   0  0  0  0  0  0  0  0  0  0  0  0
    7.7066  -11.4281   26.5872 C   0  0  0  0  0  0  0  0  0  0  0  0
    8.2836  -12.6568   26.4646 C   0  0  0  0  0  0  0  0  0  0  0  0
    7.4995  -13.7845   26.2518 C   0  0  0  0  0  0  0  0  0  0  0  0
   10.6884  -16.9389   24.6861 C   0  0  0  0  0  0  0  0  0  0  0  0
   10.4521  -18.0669   24.2003 O   0  0  0  0  0  0  0  0  0  0  0  0
   11.9383  -16.7292   25.2344 O   0  0  0  0  0  0  0  0  0  0  0  0
  2  1  1  0
  3  2  1  0
  3  4  1  1
  5  3  1  0
  5  6  2  0
  7  5  1  0
  8  7  1  0
  8  9  1  0
  9 11  1  0
  9 10  2  0
 11 12  1  0
 12 13  1  1
 13 14  1  0
 14 15  2  0
 14 22  1  0
 15 16  1  0
 16 17  1  0
 17 18  2  0
 19 18  1  0
 20 19  2  0
 21 22  2  0
 21 20  1  0
 22 17  1  0
 23 25  1  0
 23 12  1  0
 24 23  2  0
M  END
$$$$
