SGW.pdb
     RDKit          3D

 25 26  0  0  1  0  0  0  0  0999 V2000
    8.6114  -12.8188   17.2880 O   0  0  0  0  0  0  0  0  0  0  0  0
    7.9228  -13.4649   18.2882 C   0  0  0  0  0  0  0  0  0  0  0  0
    8.1340  -14.9547   18.1094 C   0  0  2  0  0  0  0  0  0  0  0  0
    7.2753  -15.4899   17.0845 N   0  0  0  0  0  0  0  0  0  0  0  0
    7.9337  -15.6727   19.3865 C   0  0  0  0  0  0  0  0  0  0  0  0
    6.7628  -15.7926   19.8690 O   0  0  0  0  0  0  0  0  0  0  0  0
    9.0522  -16.2228   20.0646 N   0  0  0  0  0  0  0  0  0  0  0  0
    8.9427  -16.9813   21.2819 C   0  0  0  0  0  0  0  0  0  0  0  0
    9.5885  -16.2730   22.3947 C   0  0  0  0  0  0  0  0  0  0  0  0
   10.5459  -15.4416   22.1725 O   0  0  0  0  0  0  0  0  0  0  0  0
    9.1809  -16.4739   23.7288 N   0  0  0  0  0  0  0  0  0  0  0  0
   10.0151  -15.9080   24.8084 C   0  0  1  0  0  0  0  0  0  0  0  0
    9.2508  -16.0037   26.1282 C   0  0  0  0  0  0  0  0  0  0  0  0
    7.9510  -15.3132   25.9662 C   0  0  0  0  0  0  0  0  0  0  0  0
    6.7038  -15.8555   25.6680 C   0  0  0  0  0  0  0  0  0  0  0  0
    5.7786  -14.8833   25.6075 N   0  0  0  0  0  0  0  0  0  0  0  0
    6.3840  -13.7040   25.8594 C   0  0  0  0  0  0  0  0  0  0  0  0
    5.9249  -12.4055   25.9261 C   0  0  0  0  0  0  0  0  0  0  0  0
    6.7690  -11.3533   26.2092 C   0  0  0  0  0  0  0  0  0  0  0  0
    8.1049  -11.6150   26.4295 C   0  0  0  0  0  0  0  0  0  0  0  0
    8.5795  -12.8912   26.3683 C   0  0  0  0  0  0  0  0  0  0  0  0
    7.7228  -13.9477   26.0828 C   0  0  0  0  0  0  0  0  0  0  0  0
   11.2144  -16.7575   24.9453 C   0  0  0  0  0  0  0  0  0  0  0  0
   11.3321  -17.8400   24.3301 O   0  0  0  0  0  0  0  0  0  0  0  0
   12.2552  -16.3745   25.7681 O   0  0  0  0  0  0  0  0  0  0  0  0
  2  1  1  0
  3  2  1  0
  3  4  1  6
  5  3  1  0
  5  6  2  0
  7  5  1  0
  8  7  1  0
  8  9  1  0
  9 11  1  0
  9 10  2  0
 11 12  1  0
 12 13  1  1
 13 14  1  0
 14 15  2  0
 14 22  1  0
 15 16  1  0
 16 17  1  0
 17 18  2  0
 19 18  1  0
 20 19  2  0
 21 22  2  0
 21 20  1  0
 22 17  1  0
 23 25  1  0
 23 12  1  0
 24 23  2  0
M  END
$$$$
