SGW.pdb
     RDKit          3D

 25 26  0  0  1  0  0  0  0  0999 V2000
    8.0083  -18.9592   17.3716 O   0  0  0  0  0  0  0  0  0  0  0  0
    8.7334  -19.4697   18.4230 C   0  0  0  0  0  0  0  0  0  0  0  0
    8.1609  -18.8961   19.7033 C   0  0  2  0  0  0  0  0  0  0  0  0
    6.7910  -19.2971   19.8948 N   0  0  0  0  0  0  0  0  0  0  0  0
    8.2814  -17.4223   19.7208 C   0  0  0  0  0  0  0  0  0  0  0  0
    8.1224  -16.7608   18.6460 O   0  0  0  0  0  0  0  0  0  0  0  0
    8.5742  -16.7571   20.9396 N   0  0  0  0  0  0  0  0  0  0  0  0
    8.6196  -15.3249   21.0662 C   0  0  0  0  0  0  0  0  0  0  0  0
    8.9550  -14.9358   22.4421 C   0  0  0  0  0  0  0  0  0  0  0  0
    9.1354  -13.6979   22.7456 O   0  0  0  0  0  0  0  0  0  0  0  0
    9.0831  -15.8953   23.4664 N   0  0  0  0  0  0  0  0  0  0  0  0
   10.0658  -15.6457   24.5405 C   0  0  1  0  0  0  0  0  0  0  0  0
    9.3988  -15.8979   25.8921 C   0  0  0  0  0  0  0  0  0  0  0  0
    8.0384  -15.3142   25.8574 C   0  0  0  0  0  0  0  0  0  0  0  0
    6.8260  -15.9379   25.5753 C   0  0  0  0  0  0  0  0  0  0  0  0
    5.8205  -15.0500   25.6479 N   0  0  0  0  0  0  0  0  0  0  0  0
    6.3382  -13.8470   25.9728 C   0  0  0  0  0  0  0  0  0  0  0  0
    5.7762  -12.6046   26.1774 C   0  0  0  0  0  0  0  0  0  0  0  0
    6.5439  -11.5092   26.5101 C   0  0  0  0  0  0  0  0  0  0  0  0
    7.9075  -11.6690   26.6388 C   0  0  0  0  0  0  0  0  0  0  0  0
    8.4833  -12.8884   26.4409 C   0  0  0  0  0  0  0  0  0  0  0  0
    7.7034  -13.9890   26.1061 C   0  0  0  0  0  0  0  0  0  0  0  0
   11.1471  -16.6411   24.4040 C   0  0  0  0  0  0  0  0  0  0  0  0
   11.0919  -17.5671   23.5652 O   0  0  0  0  0  0  0  0  0  0  0  0
   12.2663  -16.5763   25.2103 O   0  0  0  0  0  0  0  0  0  0  0  0
  2  1  1  0
  3  2  1  0
  3  4  1  6
  5  3  1  0
  5  6  2  0
  7  5  1  0
  8  7  1  0
  8  9  1  0
  9 11  1  0
  9 10  2  0
 11 12  1  0
 12 13  1  1
 13 14  1  0
 14 15  2  0
 14 22  1  0
 15 16  1  0
 16 17  1  0
 17 18  2  0
 19 18  1  0
 20 19  2  0
 21 22  2  0
 21 20  1  0
 22 17  1  0
 23 25  1  0
 23 12  1  0
 24 23  2  0
M  END
$$$$
