SGW.pdb
     RDKit          3D

 25 26  0  0  1  0  0  0  0  0999 V2000
    8.8376  -14.3588   16.7846 O   0  0  0  0  0  0  0  0  0  0  0  0
    7.5667  -13.9790   17.1485 C   0  0  0  0  0  0  0  0  0  0  0  0
    7.6034  -13.5744   18.6082 C   0  0  2  0  0  0  0  0  0  0  0  0
    8.6669  -12.6391   18.8698 N   0  0  0  0  0  0  0  0  0  0  0  0
    7.7249  -14.7615   19.4816 C   0  0  0  0  0  0  0  0  0  0  0  0
    6.8312  -15.6661   19.4491 O   0  0  0  0  0  0  0  0  0  0  0  0
    8.8402  -14.8814   20.3508 N   0  0  0  0  0  0  0  0  0  0  0  0
    9.1274  -16.0709   21.1069 C   0  0  0  0  0  0  0  0  0  0  0  0
    9.7171  -15.7292   22.4079 C   0  0  0  0  0  0  0  0  0  0  0  0
   10.7476  -14.9609   22.4767 O   0  0  0  0  0  0  0  0  0  0  0  0
    9.1754  -16.2218   23.6121 N   0  0  0  0  0  0  0  0  0  0  0  0
    9.9038  -15.9532   24.8688 C   0  0  1  0  0  0  0  0  0  0  0  0
    8.9985  -16.2983   26.0506 C   0  0  0  0  0  0  0  0  0  0  0  0
    7.7750  -15.4693   25.9592 C   0  0  0  0  0  0  0  0  0  0  0  0
    6.5046  -15.8307   25.5192 C   0  0  0  0  0  0  0  0  0  0  0  0
    5.6722  -14.7787   25.5926 N   0  0  0  0  0  0  0  0  0  0  0  0
    6.3624  -13.7233   26.0727 C   0  0  0  0  0  0  0  0  0  0  0  0
    6.0148  -12.4177   26.3478 C   0  0  0  0  0  0  0  0  0  0  0  0
    6.9296  -11.5150   26.8461 C   0  0  0  0  0  0  0  0  0  0  0  0
    8.2229  -11.9370   27.0717 C   0  0  0  0  0  0  0  0  0  0  0  0
    8.5875  -13.2233   26.8066 C   0  0  0  0  0  0  0  0  0  0  0  0
    7.6600  -14.1285   26.3047 C   0  0  0  0  0  0  0  0  0  0  0  0
   11.0561  -16.8736   24.9288 C   0  0  0  0  0  0  0  0  0  0  0  0
   11.2291  -17.7735   24.0777 O   0  0  0  0  0  0  0  0  0  0  0  0
   11.9891  -16.7645   25.9410 O   0  0  0  0  0  0  0  0  0  0  0  0
  2  1  1  0
  3  2  1  0
  3  4  1  6
  5  3  1  0
  5  6  2  0
  7  5  1  0
  8  7  1  0
  8  9  1  0
  9 11  1  0
  9 10  2  0
 11 12  1  0
 12 13  1  1
 13 14  1  0
 14 15  2  0
 14 22  1  0
 15 16  1  0
 16 17  1  0
 17 18  2  0
 19 18  1  0
 20 19  2  0
 21 22  2  0
 21 20  1  0
 22 17  1  0
 23 25  1  0
 23 12  1  0
 24 23  2  0
M  END
$$$$
