SGW.pdb
     RDKit          3D

 25 26  0  0  1  0  0  0  0  0999 V2000
    6.3468  -18.4047   17.4971 O   0  0  0  0  0  0  0  0  0  0  0  0
    7.5305  -17.7715   17.1971 C   0  0  0  0  0  0  0  0  0  0  0  0
    7.7553  -16.6916   18.2360 C   0  0  2  0  0  0  0  0  0  0  0  0
    8.9215  -15.9027   17.9329 N   0  0  0  0  0  0  0  0  0  0  0  0
    7.8574  -17.2761   19.5905 C   0  0  0  0  0  0  0  0  0  0  0  0
    6.8154  -17.7210   20.1688 O   0  0  0  0  0  0  0  0  0  0  0  0
    9.1201  -17.3356   20.2352 N   0  0  0  0  0  0  0  0  0  0  0  0
    9.3213  -17.9451   21.5225 C   0  0  0  0  0  0  0  0  0  0  0  0
    9.8330  -16.9633   22.4875 C   0  0  0  0  0  0  0  0  0  0  0  0
   10.7542  -16.1312   22.1470 O   0  0  0  0  0  0  0  0  0  0  0  0
    9.3324  -16.8967   23.8033 N   0  0  0  0  0  0  0  0  0  0  0  0
   10.0435  -16.0476   24.7806 C   0  0  1  0  0  0  0  0  0  0  0  0
    9.2771  -16.0637   26.1026 C   0  0  0  0  0  0  0  0  0  0  0  0
    7.9539  -15.4364   25.8828 C   0  0  0  0  0  0  0  0  0  0  0  0
    6.7477  -16.0382   25.5345 C   0  0  0  0  0  0  0  0  0  0  0  0
    5.7807  -15.1115   25.4309 N   0  0  0  0  0  0  0  0  0  0  0  0
    6.3180  -13.9040   25.7032 C   0  0  0  0  0  0  0  0  0  0  0  0
    5.7952  -12.6288   25.7450 C   0  0  0  0  0  0  0  0  0  0  0  0
    6.5755  -11.5369   26.0591 C   0  0  0  0  0  0  0  0  0  0  0  0
    7.9118  -11.7341   26.3367 C   0  0  0  0  0  0  0  0  0  0  0  0
    8.4488  -12.9863   26.3010 C   0  0  0  0  0  0  0  0  0  0  0  0
    7.6562  -14.0831   25.9839 C   0  0  0  0  0  0  0  0  0  0  0  0
   11.3595  -16.6631   25.0408 C   0  0  0  0  0  0  0  0  0  0  0  0
   12.2353  -16.0883   25.7242 O   0  0  0  0  0  0  0  0  0  0  0  0
   11.6646  -17.9091   24.5298 O   0  0  0  0  0  0  0  0  0  0  0  0
  2  1  1  0
  3  2  1  0
  3  4  1  6
  5  3  1  0
  5  6  2  0
  7  5  1  0
  8  7  1  0
  8  9  1  0
  9 11  1  0
  9 10  2  0
 11 12  1  0
 12 13  1  1
 13 14  1  0
 14 15  2  0
 14 22  1  0
 15 16  1  0
 16 17  1  0
 17 18  2  0
 19 18  1  0
 20 19  2  0
 21 22  2  0
 21 20  1  0
 22 17  1  0
 23 25  1  0
 23 12  1  0
 24 23  2  0
M  END
$$$$
