SGW.pdb
     RDKit          3D

 25 26  0  0  1  0  0  0  0  0999 V2000
   10.4228  -14.3097   17.6478 O   0  0  0  0  0  0  0  0  0  0  0  0
    9.2829  -14.7850   17.0422 C   0  0  0  0  0  0  0  0  0  0  0  0
    8.0996  -14.0511   17.6398 C   0  0  2  0  0  0  0  0  0  0  0  0
    8.2064  -12.6286   17.4418 N   0  0  0  0  0  0  0  0  0  0  0  0
    7.9526  -14.3692   19.0765 C   0  0  0  0  0  0  0  0  0  0  0  0
    8.2053  -13.4809   19.9511 O   0  0  0  0  0  0  0  0  0  0  0  0
    7.5301  -15.6661   19.4679 N   0  0  0  0  0  0  0  0  0  0  0  0
    7.2454  -16.0256   20.8313 C   0  0  0  0  0  0  0  0  0  0  0  0
    8.4793  -16.0627   21.6269 C   0  0  0  0  0  0  0  0  0  0  0  0
    9.6061  -16.3457   21.0726 O   0  0  0  0  0  0  0  0  0  0  0  0
    8.4709  -15.7863   23.0089 N   0  0  0  0  0  0  0  0  0  0  0  0
    9.7579  -15.8020   23.7337 C   0  0  1  0  0  0  0  0  0  0  0  0
    9.7465  -14.6972   24.7894 C   0  0  0  0  0  0  0  0  0  0  0  0
    8.3743  -14.5868   25.3350 C   0  0  0  0  0  0  0  0  0  0  0  0
    7.4052  -15.5771   25.4717 C   0  0  0  0  0  0  0  0  0  0  0  0
    6.2889  -15.0611   26.0124 N   0  0  0  0  0  0  0  0  0  0  0  0
    6.4945  -13.7469   26.2389 C   0  0  0  0  0  0  0  0  0  0  0  0
    5.7052  -12.7484   26.7693 C   0  0  0  0  0  0  0  0  0  0  0  0
    6.1635  -11.4547   26.8968 C   0  0  0  0  0  0  0  0  0  0  0  0
    7.4449  -11.1606   26.4805 C   0  0  0  0  0  0  0  0  0  0  0  0
    8.2417  -12.1327   25.9534 C   0  0  0  0  0  0  0  0  0  0  0  0
    7.7735  -13.4353   25.8281 C   0  0  0  0  0  0  0  0  0  0  0  0
    9.8534  -17.0850   24.4572 C   0  0  0  0  0  0  0  0  0  0  0  0
    8.8735  -17.8534   24.5738 O   0  0  0  0  0  0  0  0  0  0  0  0
   11.0451  -17.4784   25.0334 O   0  0  0  0  0  0  0  0  0  0  0  0
  2  1  1  0
  3  2  1  0
  3  4  1  1
  5  3  1  0
  5  6  2  0
  7  5  1  0
  8  7  1  0
  8  9  1  0
  9 11  1  0
  9 10  2  0
 11 12  1  0
 12 13  1  1
 13 14  1  0
 14 15  2  0
 14 22  1  0
 15 16  1  0
 16 17  1  0
 17 18  2  0
 19 18  1  0
 20 19  2  0
 21 22  2  0
 21 20  1  0
 22 17  1  0
 23 25  1  0
 23 12  1  0
 24 23  2  0
M  END
$$$$
