WYK.pdb
     RDKit          3D

 36 38  0  0  1  0  0  0  0  0999 V2000
   28.3789  -21.5649  -17.4235 N   0  0  0  0  0  0  0  0  0  0  0  0
   27.5102  -20.5613  -16.8442 C   0  0  1  0  0  0  0  0  0  0  0  0
   26.5248  -20.1229  -17.8871 C   0  0  0  0  0  0  0  0  0  0  0  0
   27.2344  -19.3007  -18.8986 C   0  0  0  0  0  0  0  0  0  0  0  0
   27.1530  -19.3557  -20.2836 C   0  0  0  0  0  0  0  0  0  0  0  0
   27.9718  -18.4176  -20.8152 N   0  0  0  0  0  0  0  0  0  0  0  0
   28.5897  -17.7465  -19.8288 C   0  0  0  0  0  0  0  0  0  0  0  0
   29.5025  -16.7169  -19.8446 C   0  0  0  0  0  0  0  0  0  0  0  0
   29.9797  -16.2111  -18.6420 C   0  0  0  0  0  0  0  0  0  0  0  0
   29.5527  -16.7249  -17.4343 C   0  0  0  0  0  0  0  0  0  0  0  0
   28.6392  -17.7543  -17.4501 C   0  0  0  0  0  0  0  0  0  0  0  0
   28.1377  -18.2880  -18.6417 C   0  0  0  0  0  0  0  0  0  0  0  0
   26.8423  -21.0708  -15.6193 C   0  0  0  0  0  0  0  0  0  0  0  0
   26.4228  -22.2558  -15.6283 O   0  0  0  0  0  0  0  0  0  0  0  0
   22.8260  -21.6307   -7.7754 O   0  0  0  0  0  0  0  0  0  0  0  0
   23.6457  -21.2300   -8.8200 C   0  0  0  0  0  0  0  0  0  0  0  0
   24.9475  -21.6606   -8.9596 C   0  0  0  0  0  0  0  0  0  0  0  0
   25.7234  -21.2345  -10.0153 C   0  0  0  0  0  0  0  0  0  0  0  0
   25.2339  -20.3645  -10.9715 C   0  0  0  0  0  0  0  0  0  0  0  0
   26.0650  -19.9022  -12.1117 C   0  0  0  0  0  0  0  0  0  0  0  0
   25.8977  -20.7884  -13.3218 C   0  0  2  0  0  0  0  0  0  0  0  0
   26.6540  -20.3089  -14.4585 N   0  0  0  0  0  0  0  0  0  0  0  0
   24.4392  -20.7742  -13.6764 C   0  0  0  0  0  0  0  0  0  0  0  0
   23.9416  -19.7599  -14.2652 O   0  0  0  0  0  0  0  0  0  0  0  0
   23.9361  -19.9360  -10.8316 C   0  0  0  0  0  0  0  0  0  0  0  0
   23.1479  -20.3633   -9.7669 C   0  0  0  0  0  0  0  0  0  0  0  0
   23.5940  -21.8525  -13.3787 N   0  0  0  0  0  0  0  0  0  0  0  0
   22.1827  -21.7659  -13.6487 C   0  0  1  0  0  0  0  0  0  0  0  0
   21.4854  -23.0979  -13.4439 C   0  0  0  0  0  0  0  0  0  0  0  0
   20.0051  -23.0123  -13.7185 C   0  0  0  0  0  0  0  0  0  0  0  0
   19.4107  -24.3845  -13.6445 C   0  0  0  0  0  0  0  0  0  0  0  0
   17.9087  -24.3868  -13.8345 C   0  0  0  0  0  0  0  0  0  0  0  0
   17.3430  -25.6990  -13.8177 N   0  0  0  0  0  0  0  0  0  0  0  0
   21.5491  -20.6817  -12.8937 C   0  0  0  0  0  0  0  0  0  0  0  0
   21.5461  -20.6925  -11.5093 O   0  0  0  0  0  0  0  0  0  0  0  0
   20.9976  -19.7238  -13.4834 O   0  0  0  0  0  0  0  0  0  0  0  0
  2  1  1  6
  2  3  1  0
  3  4  1  0
  4  5  2  0
  5  6  1  0
  7  6  1  0
  8  7  2  0
  9  8  1  0
 10 11  1  0
 10  9  2  0
 11 12  2  0
 12  4  1  0
 12  7  1  0
 13 14  2  0
 13  2  1  0
 15 16  1  0
 16 26  2  0
 17 16  1  0
 17 18  2  0
 18 19  1  0
 19 25  2  0
 19 20  1  0
 21 20  1  1
 21 22  1  0
 22 13  1  0
 23 27  1  0
 23 21  1  0
 24 23  2  0
 26 25  1  0
 28 27  1  0
 28 34  1  0
 29 30  1  0
 28 29  1  1
 31 30  1  0
 32 31  1  0
 33 32  1  0
 34 35  1  0
 36 34  2  0
M  END
$$$$
