WYK.pdb
     RDKit          3D

 36 38  0  0  1  0  0  0  0  0999 V2000
   23.5256  -19.1275  -19.8865 N   0  0  0  0  0  0  0  0  0  0  0  0
   22.6234  -18.7399  -18.8219 C   0  0  1  0  0  0  0  0  0  0  0  0
   21.2139  -18.8699  -19.3193 C   0  0  0  0  0  0  0  0  0  0  0  0
   20.8694  -17.6559  -20.1005 C   0  0  0  0  0  0  0  0  0  0  0  0
   20.9538  -17.4440  -21.4701 C   0  0  0  0  0  0  0  0  0  0  0  0
   20.5319  -16.1892  -21.7532 N   0  0  0  0  0  0  0  0  0  0  0  0
   20.1723  -15.5669  -20.6180 C   0  0  0  0  0  0  0  0  0  0  0  0
   19.6856  -14.3034  -20.3729 C   0  0  0  0  0  0  0  0  0  0  0  0
   19.3957  -13.9264  -19.0677 C   0  0  0  0  0  0  0  0  0  0  0  0
   19.5880  -14.7986  -18.0155 C   0  0  0  0  0  0  0  0  0  0  0  0
   20.0760  -16.0557  -18.2915 C   0  0  0  0  0  0  0  0  0  0  0  0
   20.3787  -16.4688  -19.5929 C   0  0  0  0  0  0  0  0  0  0  0  0
   22.8627  -19.5426  -17.5955 C   0  0  0  0  0  0  0  0  0  0  0  0
   23.0345  -20.7809  -17.7278 O   0  0  0  0  0  0  0  0  0  0  0  0
   24.6297  -22.2518   -9.4107 O   0  0  0  0  0  0  0  0  0  0  0  0
   24.3914  -21.4473  -10.5151 C   0  0  0  0  0  0  0  0  0  0  0  0
   23.3822  -20.5095  -10.5563 C   0  0  0  0  0  0  0  0  0  0  0  0
   23.1845  -19.7330  -11.6771 C   0  0  0  0  0  0  0  0  0  0  0  0
   23.9826  -19.8600  -12.7986 C   0  0  0  0  0  0  0  0  0  0  0  0
   23.7747  -19.0258  -14.0090 C   0  0  0  0  0  0  0  0  0  0  0  0
   23.1242  -19.8086  -15.1234 C   0  0  2  0  0  0  0  0  0  0  0  0
   22.9077  -19.0006  -16.3041 N   0  0  0  0  0  0  0  0  0  0  0  0
   21.7925  -20.2749  -14.6111 C   0  0  0  0  0  0  0  0  0  0  0  0
   20.8504  -19.4339  -14.4425 O   0  0  0  0  0  0  0  0  0  0  0  0
   24.9884  -20.7950  -12.7565 C   0  0  0  0  0  0  0  0  0  0  0  0
   25.1925  -21.5821  -11.6268 C   0  0  0  0  0  0  0  0  0  0  0  0
   21.5455  -21.6212  -14.3079 N   0  0  0  0  0  0  0  0  0  0  0  0
   20.3065  -22.0112  -13.6876 C   0  0  1  0  0  0  0  0  0  0  0  0
   20.1285  -23.5181  -13.6791 C   0  0  0  0  0  0  0  0  0  0  0  0
   18.8330  -23.9334  -13.0285 C   0  0  0  0  0  0  0  0  0  0  0  0
   18.6770  -25.4178  -13.1461 C   0  0  0  0  0  0  0  0  0  0  0  0
   17.4034  -25.9288  -12.5064 C   0  0  0  0  0  0  0  0  0  0  0  0
   17.2792  -27.3513  -12.5620 N   0  0  0  0  0  0  0  0  0  0  0  0
   20.1562  -21.4233  -12.3540 C   0  0  0  0  0  0  0  0  0  0  0  0
   19.0363  -20.6750  -12.0337 O   0  0  0  0  0  0  0  0  0  0  0  0
   21.0360  -21.5846  -11.4769 O   0  0  0  0  0  0  0  0  0  0  0  0
  2  1  1  6
  2  3  1  0
  3  4  1  0
  4  5  2  0
  5  6  1  0
  7  6  1  0
  8  7  2  0
  9  8  1  0
 10 11  1  0
 10  9  2  0
 11 12  2  0
 12  4  1  0
 12  7  1  0
 13 14  2  0
 13  2  1  0
 15 16  1  0
 16 26  2  0
 17 16  1  0
 17 18  2  0
 18 19  1  0
 19 25  2  0
 19 20  1  0
 21 20  1  1
 21 22  1  0
 22 13  1  0
 23 27  1  0
 23 21  1  0
 24 23  2  0
 26 25  1  0
 28 27  1  0
 28 34  1  0
 29 30  1  0
 28 29  1  1
 31 30  1  0
 32 31  1  0
 33 32  1  0
 34 35  1  0
 36 34  2  0
M  END
$$$$
