WYK.pdb
     RDKit          3D

 36 38  0  0  1  0  0  0  0  0999 V2000
   24.9065  -20.0559   -8.7606 N   0  0  0  0  0  0  0  0  0  0  0  0
   26.0714  -20.3578   -9.5665 C   0  0  1  0  0  0  0  0  0  0  0  0
   27.0055  -21.2076   -8.7565 C   0  0  0  0  0  0  0  0  0  0  0  0
   27.3355  -20.4900   -7.4999 C   0  0  0  0  0  0  0  0  0  0  0  0
   26.5381  -19.6441   -6.7406 C   0  0  0  0  0  0  0  0  0  0  0  0
   27.2427  -19.2119   -5.6684 N   0  0  0  0  0  0  0  0  0  0  0  0
   28.4763  -19.7435   -5.6947 C   0  0  0  0  0  0  0  0  0  0  0  0
   29.5533  -19.6179   -4.8474 C   0  0  0  0  0  0  0  0  0  0  0  0
   30.7287  -20.3006   -5.1339 C   0  0  0  0  0  0  0  0  0  0  0  0
   30.8320  -21.1014   -6.2533 C   0  0  0  0  0  0  0  0  0  0  0  0
   29.7382  -21.2076   -7.0821 C   0  0  0  0  0  0  0  0  0  0  0  0
   28.5395  -20.5347   -6.8247 C   0  0  0  0  0  0  0  0  0  0  0  0
   25.6866  -21.0079  -10.8453 C   0  0  0  0  0  0  0  0  0  0  0  0
   26.0209  -22.2072  -11.0188 O   0  0  0  0  0  0  0  0  0  0  0  0
   21.7876  -23.0492  -18.4749 O   0  0  0  0  0  0  0  0  0  0  0  0
   22.1857  -22.3701  -17.3330 C   0  0  0  0  0  0  0  0  0  0  0  0
   22.8507  -21.1635  -17.3713 C   0  0  0  0  0  0  0  0  0  0  0  0
   23.2261  -20.5262  -16.2090 C   0  0  0  0  0  0  0  0  0  0  0  0
   22.9544  -21.0649  -14.9652 C   0  0  0  0  0  0  0  0  0  0  0  0
   23.3559  -20.3827  -13.7091 C   0  0  0  0  0  0  0  0  0  0  0  0
   24.5598  -21.0373  -13.0768 C   0  0  2  0  0  0  0  0  0  0  0  0
   24.9746  -20.3631  -11.8655 N   0  0  0  0  0  0  0  0  0  0  0  0
   25.6769  -20.9571  -14.0763 C   0  0  0  0  0  0  0  0  0  0  0  0
   26.3434  -19.8777  -14.1943 O   0  0  0  0  0  0  0  0  0  0  0  0
   22.2912  -22.2676  -14.9280 C   0  0  0  0  0  0  0  0  0  0  0  0
   21.9098  -22.9156  -16.0993 C   0  0  0  0  0  0  0  0  0  0  0  0
   26.0174  -22.0428  -14.8954 N   0  0  0  0  0  0  0  0  0  0  0  0
   27.1478  -21.9577  -15.7825 C   0  0  1  0  0  0  0  0  0  0  0  0
   28.0706  -23.1536  -15.6384 C   0  0  0  0  0  0  0  0  0  0  0  0
   29.1978  -23.1253  -16.6396 C   0  0  0  0  0  0  0  0  0  0  0  0
   30.0578  -24.3356  -16.4468 C   0  0  0  0  0  0  0  0  0  0  0  0
   31.4893  -24.1176  -16.8894 C   0  0  0  0  0  0  0  0  0  0  0  0
   32.3494  -25.2121  -16.5662 N   0  0  0  0  0  0  0  0  0  0  0  0
   26.7354  -21.7343  -17.1706 C   0  0  0  0  0  0  0  0  0  0  0  0
   25.7039  -22.4701  -17.7284 O   0  0  0  0  0  0  0  0  0  0  0  0
   27.3061  -20.8746  -17.8809 O   0  0  0  0  0  0  0  0  0  0  0  0
  2  1  1  1
  2  3  1  0
  3  4  1  0
  4  5  2  0
  5  6  1  0
  7  6  1  0
  8  7  2  0
  9  8  1  0
 10 11  1  0
 10  9  2  0
 11 12  2  0
 12  4  1  0
 12  7  1  0
 13 14  2  0
 13  2  1  0
 15 16  1  0
 16 26  2  0
 17 16  1  0
 17 18  2  0
 18 19  1  0
 19 25  2  0
 19 20  1  0
 21 20  1  6
 21 22  1  0
 22 13  1  0
 23 27  1  0
 23 21  1  0
 24 23  2  0
 26 25  1  0
 28 27  1  0
 28 34  1  0
 29 30  1  0
 28 29  1  6
 31 30  1  0
 32 31  1  0
 33 32  1  0
 34 35  1  0
 36 34  2  0
M  END
$$$$
