WYK.pdb
     RDKit          3D

 36 38  0  0  1  0  0  0  0  0999 V2000
   28.2535  -21.0662  -15.1570 N   0  0  0  0  0  0  0  0  0  0  0  0
   27.2068  -20.1967  -14.6609 C   0  0  1  0  0  0  0  0  0  0  0  0
   26.4481  -19.6462  -15.8322 C   0  0  0  0  0  0  0  0  0  0  0  0
   27.2583  -18.5761  -16.4656 C   0  0  0  0  0  0  0  0  0  0  0  0
   27.9337  -18.5925  -17.6786 C   0  0  0  0  0  0  0  0  0  0  0  0
   28.5412  -17.3971  -17.8659 N   0  0  0  0  0  0  0  0  0  0  0  0
   28.2895  -16.5938  -16.8188 C   0  0  0  0  0  0  0  0  0  0  0  0
   28.6718  -15.3031  -16.5335 C   0  0  0  0  0  0  0  0  0  0  0  0
   28.2520  -14.7149  -15.3471 C   0  0  0  0  0  0  0  0  0  0  0  0
   27.4590  -15.4043  -14.4524 C   0  0  0  0  0  0  0  0  0  0  0  0
   27.0926  -16.6937  -14.7651 C   0  0  0  0  0  0  0  0  0  0  0  0
   27.4967  -17.3172  -15.9499 C   0  0  0  0  0  0  0  0  0  0  0  0
   26.3230  -20.9109  -13.7045 C   0  0  0  0  0  0  0  0  0  0  0  0
   26.0050  -22.0974  -13.9716 O   0  0  0  0  0  0  0  0  0  0  0  0
   29.6359  -20.4754   -7.4996 O   0  0  0  0  0  0  0  0  0  0  0  0
   28.4464  -20.4772   -8.2129 C   0  0  0  0  0  0  0  0  0  0  0  0
   28.1648  -21.3973   -9.1997 C   0  0  0  0  0  0  0  0  0  0  0  0
   26.9681  -21.3587   -9.8812 C   0  0  0  0  0  0  0  0  0  0  0  0
   26.0068  -20.4039   -9.6071 C   0  0  0  0  0  0  0  0  0  0  0  0
   24.7151  -20.3575  -10.3377 C   0  0  0  0  0  0  0  0  0  0  0  0
   24.8230  -20.9856  -11.7058 C   0  0  2  0  0  0  0  0  0  0  0  0
   25.8253  -20.3398  -12.5256 N   0  0  0  0  0  0  0  0  0  0  0  0
   23.4856  -20.8242  -12.3681 C   0  0  0  0  0  0  0  0  0  0  0  0
   23.3878  -20.1359  -13.4357 O   0  0  0  0  0  0  0  0  0  0  0  0
   26.2883  -19.4873   -8.6231 C   0  0  0  0  0  0  0  0  0  0  0  0
   27.4957  -19.5218   -7.9315 C   0  0  0  0  0  0  0  0  0  0  0  0
   22.3248  -21.4125  -11.8463 N   0  0  0  0  0  0  0  0  0  0  0  0
   21.3270  -21.9583  -12.7286 C   0  0  1  0  0  0  0  0  0  0  0  0
   21.9038  -23.0207  -13.6457 C   0  0  0  0  0  0  0  0  0  0  0  0
   20.8467  -23.6594  -14.5108 C   0  0  0  0  0  0  0  0  0  0  0  0
   21.4996  -24.6128  -15.4628 C   0  0  0  0  0  0  0  0  0  0  0  0
   20.5109  -25.2941  -16.3851 C   0  0  0  0  0  0  0  0  0  0  0  0
   20.2223  -24.5325  -17.5593 N   0  0  0  0  0  0  0  0  0  0  0  0
   20.1512  -22.4328  -11.9942 C   0  0  0  0  0  0  0  0  0  0  0  0
   20.1254  -22.4086  -10.6102 O   0  0  0  0  0  0  0  0  0  0  0  0
   19.1464  -22.8697  -12.6014 O   0  0  0  0  0  0  0  0  0  0  0  0
  2  1  1  6
  2  3  1  0
  3  4  1  0
  4  5  2  0
  5  6  1  0
  7  6  1  0
  8  7  2  0
  9  8  1  0
 10 11  1  0
 10  9  2  0
 11 12  2  0
 12  4  1  0
 12  7  1  0
 13 14  2  0
 13  2  1  0
 15 16  1  0
 16 26  2  0
 17 16  1  0
 17 18  2  0
 18 19  1  0
 19 25  2  0
 19 20  1  0
 21 20  1  1
 21 22  1  0
 22 13  1  0
 23 27  1  0
 23 21  1  0
 24 23  2  0
 26 25  1  0
 28 27  1  0
 28 34  1  0
 29 30  1  0
 28 29  1  1
 31 30  1  0
 32 31  1  0
 33 32  1  0
 34 35  1  0
 36 34  2  0
M  END
$$$$
