WYK.pdb
     RDKit          3D

 36 38  0  0  1  0  0  0  0  0999 V2000
   25.5106  -21.2687  -15.2633 N   0  0  0  0  0  0  0  0  0  0  0  0
   24.1657  -20.7314  -15.2550 C   0  0  1  0  0  0  0  0  0  0  0  0
   23.5055  -21.0762  -16.5574 C   0  0  0  0  0  0  0  0  0  0  0  0
   24.2300  -20.3903  -17.6562 C   0  0  0  0  0  0  0  0  0  0  0  0
   25.2758  -20.8587  -18.4403 C   0  0  0  0  0  0  0  0  0  0  0  0
   25.6310  -19.8997  -19.3275 N   0  0  0  0  0  0  0  0  0  0  0  0
   24.8557  -18.8159  -19.1554 C   0  0  0  0  0  0  0  0  0  0  0  0
   24.8184  -17.5976  -19.7938 C   0  0  0  0  0  0  0  0  0  0  0  0
   23.8885  -16.6466  -19.3928 C   0  0  0  0  0  0  0  0  0  0  0  0
   23.0036  -16.9052  -18.3658 C   0  0  0  0  0  0  0  0  0  0  0  0
   23.0647  -18.1327  -17.7461 C   0  0  0  0  0  0  0  0  0  0  0  0
   23.9876  -19.1134  -18.1235 C   0  0  0  0  0  0  0  0  0  0  0  0
   23.3956  -21.2280  -14.0861 C   0  0  0  0  0  0  0  0  0  0  0  0
   23.5209  -22.4385  -13.7710 O   0  0  0  0  0  0  0  0  0  0  0  0
   18.7645  -21.7579   -6.6030 O   0  0  0  0  0  0  0  0  0  0  0  0
   19.4523  -21.2840   -7.7102 C   0  0  0  0  0  0  0  0  0  0  0  0
   20.8252  -21.1679   -7.7475 C   0  0  0  0  0  0  0  0  0  0  0  0
   21.4639  -20.6914   -8.8713 C   0  0  0  0  0  0  0  0  0  0  0  0
   20.7615  -20.3125  -10.0000 C   0  0  0  0  0  0  0  0  0  0  0  0
   21.4442  -19.7987  -11.2142 C   0  0  0  0  0  0  0  0  0  0  0  0
   21.8588  -20.9172  -12.1388 C   0  0  2  0  0  0  0  0  0  0  0  0
   22.5406  -20.4271  -13.3173 N   0  0  0  0  0  0  0  0  0  0  0  0
   20.6028  -21.6179  -12.5687 C   0  0  0  0  0  0  0  0  0  0  0  0
   19.8634  -21.0966  -13.4657 O   0  0  0  0  0  0  0  0  0  0  0  0
   19.3931  -20.4287   -9.9621 C   0  0  0  0  0  0  0  0  0  0  0  0
   18.7428  -20.9095   -8.8292 C   0  0  0  0  0  0  0  0  0  0  0  0
   20.2096  -22.8425  -12.0105 N   0  0  0  0  0  0  0  0  0  0  0  0
   19.0139  -23.4997  -12.4690 C   0  0  1  0  0  0  0  0  0  0  0  0
   19.0524  -24.9931  -12.2028 C   0  0  0  0  0  0  0  0  0  0  0  0
   17.8535  -25.7039  -12.7786 C   0  0  0  0  0  0  0  0  0  0  0  0
   18.0269  -27.1809  -12.6053 C   0  0  0  0  0  0  0  0  0  0  0  0
   16.9397  -27.9855  -13.2857 C   0  0  0  0  0  0  0  0  0  0  0  0
   17.0787  -29.3943  -13.0904 N   0  0  0  0  0  0  0  0  0  0  0  0
   17.8053  -22.8678  -11.9335 C   0  0  0  0  0  0  0  0  0  0  0  0
   16.7697  -22.4976  -12.7743 O   0  0  0  0  0  0  0  0  0  0  0  0
   17.6835  -22.6493  -10.7060 O   0  0  0  0  0  0  0  0  0  0  0  0
  2  1  1  6
  2  3  1  0
  3  4  1  0
  4  5  2  0
  5  6  1  0
  7  6  1  0
  8  7  2  0
  9  8  1  0
 10 11  1  0
 10  9  2  0
 11 12  2  0
 12  4  1  0
 12  7  1  0
 13 14  2  0
 13  2  1  0
 15 16  1  0
 16 26  2  0
 17 16  1  0
 17 18  2  0
 18 19  1  0
 19 25  2  0
 19 20  1  0
 21 20  1  1
 21 22  1  0
 22 13  1  0
 23 27  1  0
 23 21  1  0
 24 23  2  0
 26 25  1  0
 28 27  1  0
 28 34  1  0
 29 30  1  0
 28 29  1  1
 31 30  1  0
 32 31  1  0
 33 32  1  0
 34 35  1  0
 36 34  2  0
M  END
$$$$
