WYK.pdb
     RDKit          3D

 36 38  0  0  1  0  0  0  0  0999 V2000
   29.3558   -8.6437  -21.2571 N   0  0  0  0  0  0  0  0  0  0  0  0
   28.0904   -9.2365  -20.8767 C   0  0  1  0  0  0  0  0  0  0  0  0
   27.5820   -8.5329  -19.6530 C   0  0  0  0  0  0  0  0  0  0  0  0
   28.2091   -9.1449  -18.4552 C   0  0  0  0  0  0  0  0  0  0  0  0
   29.3365   -8.7384  -17.7541 C   0  0  0  0  0  0  0  0  0  0  0  0
   29.5492   -9.5882  -16.7219 N   0  0  0  0  0  0  0  0  0  0  0  0
   28.6015  -10.5405  -16.7185 C   0  0  0  0  0  0  0  0  0  0  0  0
   28.3783  -11.6170  -15.8909 C   0  0  0  0  0  0  0  0  0  0  0  0
   27.2945  -12.4510  -16.1354 C   0  0  0  0  0  0  0  0  0  0  0  0
   26.4402  -12.2162  -17.1936 C   0  0  0  0  0  0  0  0  0  0  0  0
   26.6888  -11.1318  -18.0040 C   0  0  0  0  0  0  0  0  0  0  0  0
   27.7700  -10.2715  -17.7877 C   0  0  0  0  0  0  0  0  0  0  0  0
   27.1165   -9.1898  -21.9970 C   0  0  0  0  0  0  0  0  0  0  0  0
   26.9266   -8.0845  -22.5650 O   0  0  0  0  0  0  0  0  0  0  0  0
   22.5972  -10.0606  -29.2795 O   0  0  0  0  0  0  0  0  0  0  0  0
   23.4808  -10.1489  -28.2141 C   0  0  0  0  0  0  0  0  0  0  0  0
   23.9812  -11.3471  -27.7518 C   0  0  0  0  0  0  0  0  0  0  0  0
   24.8573  -11.3842  -26.6893 C   0  0  0  0  0  0  0  0  0  0  0  0
   25.2687  -10.2315  -26.0467 C   0  0  0  0  0  0  0  0  0  0  0  0
   26.2131  -10.2650  -24.9015 C   0  0  0  0  0  0  0  0  0  0  0  0
   25.4887  -10.2396  -23.5777 C   0  0  2  0  0  0  0  0  0  0  0  0
   26.3999  -10.3033  -22.4554 N   0  0  0  0  0  0  0  0  0  0  0  0
   24.5995  -11.4484  -23.5422 C   0  0  0  0  0  0  0  0  0  0  0  0
   25.0994  -12.5938  -23.2943 O   0  0  0  0  0  0  0  0  0  0  0  0
   24.7696   -9.0376  -26.5083 C   0  0  0  0  0  0  0  0  0  0  0  0
   23.8841   -8.9945  -27.5814 C   0  0  0  0  0  0  0  0  0  0  0  0
   23.2198  -11.3603  -23.7748 N   0  0  0  0  0  0  0  0  0  0  0  0
   22.3866  -12.5281  -23.6567 C   0  0  1  0  0  0  0  0  0  0  0  0
   20.9616  -12.1697  -23.2780 C   0  0  0  0  0  0  0  0  0  0  0  0
   20.1000  -13.3924  -23.0868 C   0  0  0  0  0  0  0  0  0  0  0  0
   18.7125  -12.9645  -22.7215 C   0  0  0  0  0  0  0  0  0  0  0  0
   17.7612  -14.1305  -22.5545 C   0  0  0  0  0  0  0  0  0  0  0  0
   16.3938  -13.7287  -22.4511 N   0  0  0  0  0  0  0  0  0  0  0  0
   22.4518  -13.3674  -24.8559 C   0  0  0  0  0  0  0  0  0  0  0  0
   22.7709  -14.7112  -24.7614 O   0  0  0  0  0  0  0  0  0  0  0  0
   22.2207  -12.8881  -25.9900 O   0  0  0  0  0  0  0  0  0  0  0  0
  2  1  1  6
  2  3  1  0
  3  4  1  0
  4  5  2  0
  5  6  1  0
  7  6  1  0
  8  7  2  0
  9  8  1  0
 10 11  1  0
 10  9  2  0
 11 12  2  0
 12  4  1  0
 12  7  1  0
 13 14  2  0
 13  2  1  0
 15 16  1  0
 16 26  2  0
 17 16  1  0
 17 18  2  0
 18 19  1  0
 19 25  2  0
 19 20  1  0
 21 20  1  6
 21 22  1  0
 22 13  1  0
 23 27  1  0
 23 21  1  0
 24 23  2  0
 26 25  1  0
 28 27  1  0
 28 34  1  0
 29 30  1  0
 28 29  1  6
 31 30  1  0
 32 31  1  0
 33 32  1  0
 34 35  1  0
 36 34  2  0
M  END
$$$$
