KFL.pdb
     RDKit          3D

 29 29  0  0  1  0  0  0  0  0999 V2000
    8.3665  -16.5160   19.5708 N   0  0  0  0  0  0  0  0  0  0  0  0
    9.1294  -15.3098   19.8073 C   0  0  1  0  0  0  0  0  0  0  0  0
    8.5039  -14.1748   19.0772 C   0  0  0  0  0  0  0  0  0  0  0  0
    8.1228  -14.5916   17.6880 C   0  0  0  0  0  0  0  0  0  0  0  0
    8.6507  -13.6740   16.6066 C   0  0  0  0  0  0  0  0  0  0  0  0
    8.2358  -14.1718   15.2274 C   0  0  0  0  0  0  0  0  0  0  0  0
    8.6433  -13.2790   14.1754 N   0  0  0  0  0  0  0  0  0  0  0  0
    9.2961  -15.0372   21.2587 C   0  0  0  0  0  0  0  0  0  0  0  0
   10.1531  -14.1859   21.6278 O   0  0  0  0  0  0  0  0  0  0  0  0
    8.5562  -15.6667   22.2923 N   0  0  0  0  0  0  0  0  0  0  0  0
    8.5555  -15.1871   23.6597 C   0  0  1  0  0  0  0  0  0  0  0  0
    7.1629  -15.1833   24.2532 C   0  0  0  0  0  0  0  0  0  0  0  0
    6.9699  -14.0373   25.1569 C   0  0  0  0  0  0  0  0  0  0  0  0
    7.6491  -12.8541   24.9345 C   0  0  0  0  0  0  0  0  0  0  0  0
    7.4556  -11.7891   25.7929 C   0  0  0  0  0  0  0  0  0  0  0  0
    6.6025  -11.8511   26.8797 C   0  0  0  0  0  0  0  0  0  0  0  0
    5.9337  -13.0405   27.0850 C   0  0  0  0  0  0  0  0  0  0  0  0
    6.1161  -14.1223   26.2317 C   0  0  0  0  0  0  0  0  0  0  0  0
    9.3800  -16.0937   24.4744 C   0  0  0  0  0  0  0  0  0  0  0  0
    9.9335  -17.0794   23.9526 O   0  0  0  0  0  0  0  0  0  0  0  0
   11.5030  -14.1008   27.7437 C   0  0  0  0  0  0  0  0  0  0  0  0
   10.1463  -14.6536   28.2040 C   0  0  2  0  0  0  0  0  0  0  0  0
    9.8787  -14.1698   29.5932 C   0  0  0  0  0  0  0  0  0  0  0  0
   10.2420  -16.1360   28.0941 C   0  0  0  0  0  0  0  0  0  0  0  0
   10.4117  -16.6565   26.6878 C   0  0  2  0  0  0  0  0  0  0  0  0
    9.5457  -15.8477   25.8522 N   0  0  0  0  0  0  0  0  0  0  0  0
   10.0481  -18.0663   26.5160 C   0  0  0  0  0  0  0  0  0  0  0  0
   11.0244  -19.0368   26.6739 O   0  0  0  0  0  0  0  0  0  0  0  0
    8.8784  -18.4375   26.2290 O   0  0  0  0  0  0  0  0  0  0  0  0
  2  3  1  0
  2  1  1  1
  4  3  1  0
  4  5  1  0
  6  5  1  0
  6  7  1  0
  8  2  1  0
  9  8  2  0
 10  8  1  0
 11 10  1  0
 11 12  1  1
 12 13  1  0
 13 14  2  0
 14 15  1  0
 16 15  2  0
 17 16  1  0
 18 13  1  0
 18 17  2  0
 19 11  1  0
 19 20  2  0
 22 21  1  1
 22 24  1  0
 23 22  1  0
 25 24  1  1
 25 26  1  0
 26 19  1  0
 27 25  1  0
 28 27  1  0
 29 27  2  0
M  END
$$$$
