KFL.pdb
     RDKit          3D

 29 29  0  0  1  0  0  0  0  0999 V2000
    9.1448  -18.7931   21.0953 N   0  0  0  0  0  0  0  0  0  0  0  0
    9.9004  -17.6536   20.6225 C   0  0  1  0  0  0  0  0  0  0  0  0
    9.5252  -17.3583   19.2137 C   0  0  0  0  0  0  0  0  0  0  0  0
   10.0293  -18.4356   18.3003 C   0  0  0  0  0  0  0  0  0  0  0  0
    9.7702  -18.1662   16.8339 C   0  0  0  0  0  0  0  0  0  0  0  0
    8.2978  -18.3727   16.5000 C   0  0  0  0  0  0  0  0  0  0  0  0
    8.0855  -19.4913   15.6204 N   0  0  0  0  0  0  0  0  0  0  0  0
    9.7441  -16.4773   21.5173 C   0  0  0  0  0  0  0  0  0  0  0  0
   10.4650  -15.4587   21.3218 O   0  0  0  0  0  0  0  0  0  0  0  0
    8.8312  -16.3975   22.5999 N   0  0  0  0  0  0  0  0  0  0  0  0
    8.7284  -15.2316   23.4542 C   0  0  1  0  0  0  0  0  0  0  0  0
    7.3786  -15.1509   24.1348 C   0  0  0  0  0  0  0  0  0  0  0  0
    7.2418  -13.9038   24.9050 C   0  0  0  0  0  0  0  0  0  0  0  0
    7.9205  -12.7655   24.5119 C   0  0  0  0  0  0  0  0  0  0  0  0
    7.7801  -11.6042   25.2467 C   0  0  0  0  0  0  0  0  0  0  0  0
    6.9815  -11.5248   26.3730 C   0  0  0  0  0  0  0  0  0  0  0  0
    6.3123  -12.6713   26.7494 C   0  0  0  0  0  0  0  0  0  0  0  0
    6.4416  -13.8486   26.0222 C   0  0  0  0  0  0  0  0  0  0  0  0
    9.7492  -15.3327   24.5093 C   0  0  0  0  0  0  0  0  0  0  0  0
   10.7476  -14.5891   24.4912 O   0  0  0  0  0  0  0  0  0  0  0  0
   10.7700  -13.7978   27.6450 C   0  0  0  0  0  0  0  0  0  0  0  0
    9.5194  -14.6370   27.9444 C   0  0  2  0  0  0  0  0  0  0  0  0
    8.9814  -14.2346   29.2801 C   0  0  0  0  0  0  0  0  0  0  0  0
    9.9482  -16.0619   27.8760 C   0  0  0  0  0  0  0  0  0  0  0  0
   10.6015  -16.4642   26.5766 C   0  0  2  0  0  0  0  0  0  0  0  0
    9.5988  -16.2750   25.5466 N   0  0  0  0  0  0  0  0  0  0  0  0
   11.0611  -17.8559   26.5355 C   0  0  0  0  0  0  0  0  0  0  0  0
   10.1805  -18.8431   26.1235 O   0  0  0  0  0  0  0  0  0  0  0  0
   12.2301  -18.1966   26.8607 O   0  0  0  0  0  0  0  0  0  0  0  0
  2  3  1  0
  2  1  1  1
  4  3  1  0
  4  5  1  0
  6  5  1  0
  6  7  1  0
  8  2  1  0
  9  8  2  0
 10  8  1  0
 11 10  1  0
 11 12  1  1
 12 13  1  0
 13 14  2  0
 14 15  1  0
 16 15  2  0
 17 16  1  0
 18 13  1  0
 18 17  2  0
 19 11  1  0
 19 20  2  0
 22 21  1  1
 22 24  1  0
 23 22  1  0
 25 24  1  1
 25 26  1  0
 26 19  1  0
 27 25  1  0
 28 27  1  0
 29 27  2  0
M  END
$$$$
