KFL.pdb
     RDKit          3D

 29 29  0  0  1  0  0  0  0  0999 V2000
    9.1347  -16.7875   19.4677 N   0  0  0  0  0  0  0  0  0  0  0  0
    9.7107  -15.4799   19.6940 C   0  0  1  0  0  0  0  0  0  0  0  0
    9.0420  -14.4832   18.8152 C   0  0  0  0  0  0  0  0  0  0  0  0
    9.0387  -14.9576   17.3926 C   0  0  0  0  0  0  0  0  0  0  0  0
    8.4766  -13.9508   16.4126 C   0  0  0  0  0  0  0  0  0  0  0  0
    8.4610  -14.5239   15.0007 C   0  0  0  0  0  0  0  0  0  0  0  0
    7.7301  -13.6952   14.0793 N   0  0  0  0  0  0  0  0  0  0  0  0
    9.6695  -15.0990   21.1299 C   0  0  0  0  0  0  0  0  0  0  0  0
   10.2587  -14.0453   21.5015 O   0  0  0  0  0  0  0  0  0  0  0  0
    9.0080  -15.8355   22.1457 N   0  0  0  0  0  0  0  0  0  0  0  0
    8.7790  -15.3063   23.4750 C   0  0  1  0  0  0  0  0  0  0  0  0
    7.3081  -15.3029   23.8329 C   0  0  0  0  0  0  0  0  0  0  0  0
    7.0072  -14.2801   24.8480 C   0  0  0  0  0  0  0  0  0  0  0  0
    6.2976  -14.6169   25.9856 C   0  0  0  0  0  0  0  0  0  0  0  0
    6.0244  -13.6440   26.9275 C   0  0  0  0  0  0  0  0  0  0  0  0
    6.4327  -12.3304   26.7848 C   0  0  0  0  0  0  0  0  0  0  0  0
    7.1396  -12.0139   25.6428 C   0  0  0  0  0  0  0  0  0  0  0  0
    7.4236  -12.9796   24.6844 C   0  0  0  0  0  0  0  0  0  0  0  0
    9.4679  -16.1693   24.4477 C   0  0  0  0  0  0  0  0  0  0  0  0
    9.8249  -17.3180   24.1265 O   0  0  0  0  0  0  0  0  0  0  0  0
   10.4969  -13.8193   29.4665 C   0  0  0  0  0  0  0  0  0  0  0  0
   10.5324  -14.3058   28.0104 C   0  0  2  0  0  0  0  0  0  0  0  0
    9.5290  -13.5277   27.2211 C   0  0  0  0  0  0  0  0  0  0  0  0
   10.2562  -15.7690   28.0537 C   0  0  0  0  0  0  0  0  0  0  0  0
   10.4350  -16.4858   26.7379 C   0  0  2  0  0  0  0  0  0  0  0  0
    9.7260  -15.6961   25.7500 N   0  0  0  0  0  0  0  0  0  0  0  0
    9.9048  -17.8525   26.7161 C   0  0  0  0  0  0  0  0  0  0  0  0
    8.6449  -18.0767   26.1849 O   0  0  0  0  0  0  0  0  0  0  0  0
   10.5489  -18.8396   27.1622 O   0  0  0  0  0  0  0  0  0  0  0  0
  2  3  1  0
  2  1  1  1
  4  3  1  0
  4  5  1  0
  6  5  1  0
  6  7  1  0
  8  2  1  0
  9  8  2  0
 10  8  1  0
 11 10  1  0
 11 12  1  1
 12 13  1  0
 13 14  2  0
 14 15  1  0
 16 15  2  0
 17 16  1  0
 18 13  1  0
 18 17  2  0
 19 11  1  0
 19 20  2  0
 22 21  1  1
 22 24  1  0
 23 22  1  0
 25 24  1  1
 25 26  1  0
 26 19  1  0
 27 25  1  0
 28 27  1  0
 29 27  2  0
M  END
$$$$
