KFL.pdb
     RDKit          3D

 29 29  0  0  1  0  0  0  0  0999 V2000
    9.2602  -18.9387   20.5727 N   0  0  0  0  0  0  0  0  0  0  0  0
   10.1754  -17.8186   20.5443 C   0  0  1  0  0  0  0  0  0  0  0  0
   10.0744  -17.1273   19.2311 C   0  0  0  0  0  0  0  0  0  0  0  0
   10.4951  -18.0447   18.1221 C   0  0  0  0  0  0  0  0  0  0  0  0
   10.4296  -17.4147   16.7478 C   0  0  0  0  0  0  0  0  0  0  0  0
   10.8789  -18.4039   15.6794 C   0  0  0  0  0  0  0  0  0  0  0  0
   10.7489  -17.8724   14.3488 N   0  0  0  0  0  0  0  0  0  0  0  0
    9.9620  -16.9017   21.6943 C   0  0  0  0  0  0  0  0  0  0  0  0
   10.7164  -15.8972   21.8251 O   0  0  0  0  0  0  0  0  0  0  0  0
    8.9578  -17.0612   22.6832 N   0  0  0  0  0  0  0  0  0  0  0  0
    8.7890  -16.1358   23.7854 C   0  0  1  0  0  0  0  0  0  0  0  0
    7.3278  -15.8571   24.0665 C   0  0  0  0  0  0  0  0  0  0  0  0
    7.1534  -14.5750   24.7685 C   0  0  0  0  0  0  0  0  0  0  0  0
    6.4258  -14.5182   25.9425 C   0  0  0  0  0  0  0  0  0  0  0  0
    6.2726  -13.3064   26.5878 C   0  0  0  0  0  0  0  0  0  0  0  0
    6.8202  -12.1303   26.1084 C   0  0  0  0  0  0  0  0  0  0  0  0
    7.5429  -12.2074   24.9354 C   0  0  0  0  0  0  0  0  0  0  0  0
    7.7074  -13.4179   24.2727 C   0  0  0  0  0  0  0  0  0  0  0  0
    9.3638  -16.7411   24.9973 C   0  0  0  0  0  0  0  0  0  0  0  0
    9.4382  -17.9790   25.1069 O   0  0  0  0  0  0  0  0  0  0  0  0
   11.3840  -13.5707   27.0180 C   0  0  0  0  0  0  0  0  0  0  0  0
   10.1653  -14.0432   27.8240 C   0  0  2  0  0  0  0  0  0  0  0  0
    9.9392  -13.0896   28.9531 C   0  0  0  0  0  0  0  0  0  0  0  0
   10.4716  -15.4325   28.2656 C   0  0  0  0  0  0  0  0  0  0  0  0
   10.6155  -16.4348   27.1467 C   0  0  2  0  0  0  0  0  0  0  0  0
    9.8333  -15.9179   26.0406 N   0  0  0  0  0  0  0  0  0  0  0  0
   10.1349  -17.7807   27.4741 C   0  0  0  0  0  0  0  0  0  0  0  0
    8.8804  -18.1722   27.0351 O   0  0  0  0  0  0  0  0  0  0  0  0
   10.8172  -18.6033   28.1419 O   0  0  0  0  0  0  0  0  0  0  0  0
  2  3  1  0
  2  1  1  6
  4  3  1  0
  4  5  1  0
  6  5  1  0
  6  7  1  0
  8  2  1  0
  9  8  2  0
 10  8  1  0
 11 10  1  0
 11 12  1  1
 12 13  1  0
 13 14  2  0
 14 15  1  0
 16 15  2  0
 17 16  1  0
 18 13  1  0
 18 17  2  0
 19 11  1  0
 19 20  2  0
 22 21  1  1
 22 24  1  0
 23 22  1  0
 25 24  1  1
 25 26  1  0
 26 19  1  0
 27 25  1  0
 28 27  1  0
 29 27  2  0
M  END
$$$$
