KFL.pdb
     RDKit          3D

 29 29  0  0  1  0  0  0  0  0999 V2000
    9.8288  -18.6313   20.1295 N   0  0  0  0  0  0  0  0  0  0  0  0
    9.5002  -18.6845   21.5373 C   0  0  1  0  0  0  0  0  0  0  0  0
   10.5134  -19.5047   22.2537 C   0  0  0  0  0  0  0  0  0  0  0  0
   10.8701  -20.7183   21.4481 C   0  0  0  0  0  0  0  0  0  0  0  0
   12.1519  -20.5733   20.6570 C   0  0  0  0  0  0  0  0  0  0  0  0
   12.5619  -21.9077   20.0460 C   0  0  0  0  0  0  0  0  0  0  0  0
   13.8133  -21.8278   19.3406 N   0  0  0  0  0  0  0  0  0  0  0  0
    9.3443  -17.3262   22.1200 C   0  0  0  0  0  0  0  0  0  0  0  0
   10.1466  -16.4147   21.7723 O   0  0  0  0  0  0  0  0  0  0  0  0
    8.3461  -16.9553   23.0569 N   0  0  0  0  0  0  0  0  0  0  0  0
    8.2033  -15.6025   23.5560 C   0  0  1  0  0  0  0  0  0  0  0  0
    6.7977  -15.3301   24.0474 C   0  0  0  0  0  0  0  0  0  0  0  0
    6.7117  -14.0269   24.7266 C   0  0  0  0  0  0  0  0  0  0  0  0
    7.3076  -12.9112   24.1688 C   0  0  0  0  0  0  0  0  0  0  0  0
    7.2167  -11.6964   24.8202 C   0  0  0  0  0  0  0  0  0  0  0  0
    6.5484  -11.5408   26.0210 C   0  0  0  0  0  0  0  0  0  0  0  0
    5.9603  -12.6659   26.5618 C   0  0  0  0  0  0  0  0  0  0  0  0
    6.0416  -13.8962   25.9205 C   0  0  0  0  0  0  0  0  0  0  0  0
    9.1125  -15.4269   24.6998 C   0  0  0  0  0  0  0  0  0  0  0  0
    9.4517  -14.2856   25.0637 O   0  0  0  0  0  0  0  0  0  0  0  0
    9.8786  -14.2041   29.4878 C   0  0  0  0  0  0  0  0  0  0  0  0
   10.3657  -14.4321   28.0494 C   0  0  2  0  0  0  0  0  0  0  0  0
   10.0002  -13.2392   27.2255 C   0  0  0  0  0  0  0  0  0  0  0  0
    9.7268  -15.6965   27.5891 C   0  0  0  0  0  0  0  0  0  0  0  0
   10.4951  -16.4431   26.5263 C   0  0  2  0  0  0  0  0  0  0  0  0
    9.6032  -16.5544   25.3886 N   0  0  0  0  0  0  0  0  0  0  0  0
   10.9234  -17.7885   26.9215 C   0  0  0  0  0  0  0  0  0  0  0  0
   10.0448  -18.8480   26.7621 O   0  0  0  0  0  0  0  0  0  0  0  0
   12.0635  -18.0258   27.4032 O   0  0  0  0  0  0  0  0  0  0  0  0
  2  3  1  0
  2  1  1  6
  4  3  1  0
  4  5  1  0
  6  5  1  0
  6  7  1  0
  8  2  1  0
  9  8  2  0
 10  8  1  0
 11 10  1  0
 11 12  1  1
 12 13  1  0
 13 14  2  0
 14 15  1  0
 16 15  2  0
 17 16  1  0
 18 13  1  0
 18 17  2  0
 19 11  1  0
 19 20  2  0
 22 21  1  1
 22 24  1  0
 23 22  1  0
 25 24  1  1
 25 26  1  0
 26 19  1  0
 27 25  1  0
 28 27  1  0
 29 27  2  0
M  END
$$$$
