KFL.pdb
     RDKit          3D

 29 29  0  0  1  0  0  0  0  0999 V2000
    9.8934  -17.8489   19.7007 N   0  0  0  0  0  0  0  0  0  0  0  0
    9.4805  -18.1370   21.0569 C   0  0  1  0  0  0  0  0  0  0  0  0
   10.4212  -19.1154   21.6657 C   0  0  0  0  0  0  0  0  0  0  0  0
   10.8224  -20.1525   20.6596 C   0  0  0  0  0  0  0  0  0  0  0  0
   11.3120  -21.4455   21.2747 C   0  0  0  0  0  0  0  0  0  0  0  0
   11.7028  -22.4436   20.1916 C   0  0  0  0  0  0  0  0  0  0  0  0
   11.3131  -23.7895   20.5181 N   0  0  0  0  0  0  0  0  0  0  0  0
    9.3369  -16.8984   21.8656 C   0  0  0  0  0  0  0  0  0  0  0  0
   10.1639  -15.9584   21.6987 O   0  0  0  0  0  0  0  0  0  0  0  0
    8.3246  -16.6747   22.8336 N   0  0  0  0  0  0  0  0  0  0  0  0
    8.2324  -15.4502   23.6029 C   0  0  1  0  0  0  0  0  0  0  0  0
    6.9019  -15.3329   24.3154 C   0  0  0  0  0  0  0  0  0  0  0  0
    6.7679  -14.0297   24.9867 C   0  0  0  0  0  0  0  0  0  0  0  0
    6.1039  -13.9349   26.1954 C   0  0  0  0  0  0  0  0  0  0  0  0
    5.9879  -12.7037   26.8110 C   0  0  0  0  0  0  0  0  0  0  0  0
    6.5119  -11.5447   26.2680 C   0  0  0  0  0  0  0  0  0  0  0  0
    7.1710  -11.6597   25.0612 C   0  0  0  0  0  0  0  0  0  0  0  0
    7.2974  -12.8902   24.4275 C   0  0  0  0  0  0  0  0  0  0  0  0
    9.2844  -15.4634   24.6319 C   0  0  0  0  0  0  0  0  0  0  0  0
   10.2023  -14.6228   24.6030 O   0  0  0  0  0  0  0  0  0  0  0  0
   11.2191  -14.0085   27.6217 C   0  0  0  0  0  0  0  0  0  0  0  0
    9.7960  -14.5086   27.9092 C   0  0  2  0  0  0  0  0  0  0  0  0
    9.3424  -13.9376   29.2144 C   0  0  0  0  0  0  0  0  0  0  0  0
    9.8677  -15.9964   27.8989 C   0  0  0  0  0  0  0  0  0  0  0  0
   10.3437  -16.5979   26.5994 C   0  0  2  0  0  0  0  0  0  0  0  0
    9.2552  -16.4311   25.6562 N   0  0  0  0  0  0  0  0  0  0  0  0
   10.6823  -18.0222   26.6796 C   0  0  0  0  0  0  0  0  0  0  0  0
   11.8636  -18.3989   27.2980 O   0  0  0  0  0  0  0  0  0  0  0  0
    9.9412  -18.9256   26.2075 O   0  0  0  0  0  0  0  0  0  0  0  0
  2  3  1  0
  2  1  1  6
  4  3  1  0
  4  5  1  0
  6  5  1  0
  6  7  1  0
  8  2  1  0
  9  8  2  0
 10  8  1  0
 11 10  1  0
 11 12  1  1
 12 13  1  0
 13 14  2  0
 14 15  1  0
 16 15  2  0
 17 16  1  0
 18 13  1  0
 18 17  2  0
 19 11  1  0
 19 20  2  0
 22 21  1  1
 22 24  1  0
 23 22  1  0
 25 24  1  1
 25 26  1  0
 26 19  1  0
 27 25  1  0
 28 27  1  0
 29 27  2  0
M  END
$$$$
