KFL.pdb
     RDKit          3D

 29 29  0  0  1  0  0  0  0  0999 V2000
    9.2692  -18.8348   20.3490 N   0  0  0  0  0  0  0  0  0  0  0  0
   10.3302  -17.8706   20.5421 C   0  0  1  0  0  0  0  0  0  0  0  0
   10.5395  -17.1033   19.2851 C   0  0  0  0  0  0  0  0  0  0  0  0
   11.2862  -17.9323   18.2831 C   0  0  0  0  0  0  0  0  0  0  0  0
   11.5346  -17.2267   16.9677 C   0  0  0  0  0  0  0  0  0  0  0  0
   12.4647  -18.0479   16.0829 C   0  0  0  0  0  0  0  0  0  0  0  0
   12.6338  -17.4689   14.7768 N   0  0  0  0  0  0  0  0  0  0  0  0
   10.0734  -16.9939   21.7144 C   0  0  0  0  0  0  0  0  0  0  0  0
   10.9516  -16.1520   22.0540 O   0  0  0  0  0  0  0  0  0  0  0  0
    8.8962  -17.0215   22.5052 N   0  0  0  0  0  0  0  0  0  0  0  0
    8.6464  -16.0736   23.5724 C   0  0  1  0  0  0  0  0  0  0  0  0
    7.1761  -15.7321   23.6879 C   0  0  0  0  0  0  0  0  0  0  0  0
    6.9594  -14.6084   24.6140 C   0  0  0  0  0  0  0  0  0  0  0  0
    7.4859  -13.3621   24.3306 C   0  0  0  0  0  0  0  0  0  0  0  0
    7.2723  -12.3193   25.2111 C   0  0  0  0  0  0  0  0  0  0  0  0
    6.5465  -12.4647   26.3794 C   0  0  0  0  0  0  0  0  0  0  0  0
    6.0291  -13.7161   26.6446 C   0  0  0  0  0  0  0  0  0  0  0  0
    6.2339  -14.7769   25.7702 C   0  0  0  0  0  0  0  0  0  0  0  0
    9.0592  -16.6834   24.8465 C   0  0  0  0  0  0  0  0  0  0  0  0
    8.9802  -17.9153   25.0084 O   0  0  0  0  0  0  0  0  0  0  0  0
   12.0459  -14.2022   27.1085 C   0  0  0  0  0  0  0  0  0  0  0  0
   10.5826  -13.9830   27.5195 C   0  0  2  0  0  0  0  0  0  0  0  0
   10.5201  -12.8320   28.4716 C   0  0  0  0  0  0  0  0  0  0  0  0
   10.1176  -15.2711   28.1056 C   0  0  0  0  0  0  0  0  0  0  0  0
   10.0532  -16.4224   27.1321 C   0  0  2  0  0  0  0  0  0  0  0  0
    9.5468  -15.8714   25.8903 N   0  0  0  0  0  0  0  0  0  0  0  0
    9.1774  -17.5210   27.5509 C   0  0  0  0  0  0  0  0  0  0  0  0
    9.6764  -18.4906   28.4057 O   0  0  0  0  0  0  0  0  0  0  0  0
    7.9820  -17.6235   27.1650 O   0  0  0  0  0  0  0  0  0  0  0  0
  2  3  1  0
  2  1  1  6
  4  3  1  0
  4  5  1  0
  6  5  1  0
  6  7  1  0
  8  2  1  0
  9  8  2  0
 10  8  1  0
 11 10  1  0
 11 12  1  1
 12 13  1  0
 13 14  2  0
 14 15  1  0
 16 15  2  0
 17 16  1  0
 18 13  1  0
 18 17  2  0
 19 11  1  0
 19 20  2  0
 22 21  1  1
 22 24  1  0
 23 22  1  0
 25 24  1  1
 25 26  1  0
 26 19  1  0
 27 25  1  0
 28 27  1  0
 29 27  2  0
M  END
$$$$
