CDP.pdb
     RDKit          3D

 22 22  0  0  1  0  0  0  0  0999 V2000
   24.7778  -11.7769  -16.6084 N   0  0  0  0  0  0  0  0  0  0  0  0
   24.7967  -10.5727  -15.8464 C   0  0  1  0  0  0  0  0  0  0  0  0
   26.0651   -9.8096  -16.2175 C   0  0  0  0  0  0  0  0  0  0  0  0
   27.5069  -10.6169  -15.4914 S   0  0  0  0  0  0  0  0  0  0  0  0
   23.6583   -9.6758  -16.2887 C   0  0  0  0  0  0  0  0  0  0  0  0
   23.4807   -9.6501  -17.5262 O   0  0  0  0  0  0  0  0  0  0  0  0
   22.9229   -8.9758  -15.3397 N   0  0  0  0  0  0  0  0  0  0  0  0
   21.7907   -8.1309  -15.6607 C   0  0  1  0  0  0  0  0  0  0  0  0
   20.7092   -8.5641  -14.6707 C   0  0  0  0  0  0  0  0  0  0  0  0
   20.0227   -9.8121  -14.9500 C   0  0  0  0  0  0  0  0  0  0  0  0
   19.7077  -10.2901  -16.0309 O   0  0  0  0  0  0  0  0  0  0  0  0
   22.2410   -6.7444  -15.4873 C   0  0  0  0  0  0  0  0  0  0  0  0
   22.9656   -6.4361  -14.4543 O   0  0  0  0  0  0  0  0  0  0  0  0
   19.6673  -10.5854  -13.8164 O   0  0  0  0  0  0  0  0  0  0  0  0
   21.9914   -5.6363  -16.3343 N   0  0  0  0  0  0  0  0  0  0  0  0
   21.2514   -5.7841  -17.6036 C   0  0  0  0  0  0  0  0  0  0  0  0
   21.6005   -4.4775  -18.3408 C   0  0  0  0  0  0  0  0  0  0  0  0
   21.4836   -3.5249  -17.1783 C   0  0  0  0  0  0  0  0  0  0  0  0
   22.2953   -4.2680  -16.0915 C   0  0  1  0  0  0  0  0  0  0  0  0
   21.7375   -3.7812  -14.7930 C   0  0  0  0  0  0  0  0  0  0  0  0
   20.8807   -4.4600  -14.2054 O   0  0  0  0  0  0  0  0  0  0  0  0
   22.1666   -2.5939  -14.2517 O   0  0  0  0  0  0  0  0  0  0  0  0
  2  1  1  6
  2  5  1  0
  2  3  1  0
  4  3  1  0
  5  6  2  0
  7  5  1  0
  7  8  1  0
  8 12  1  0
  8  9  1  1
 10  9  1  0
 10 11  2  0
 12 13  2  0
 12 15  1  0
 14 10  1  0
 15 16  1  0
 15 19  1  0
 16 17  1  0
 17 18  1  0
 19 18  1  0
 19 20  1  1
 20 22  1  0
 21 20  2  0
M  END
$$$$
