CDP.pdb
     RDKit          3D

 22 22  0  0  1  0  0  0  0  0999 V2000
   18.3478  -12.9922  -15.8757 N   0  0  0  0  0  0  0  0  0  0  0  0
   18.5809  -11.8707  -16.7237 C   0  0  1  0  0  0  0  0  0  0  0  0
   17.4985  -11.8706  -17.7995 C   0  0  0  0  0  0  0  0  0  0  0  0
   17.8925  -13.0875  -19.0730 S   0  0  0  0  0  0  0  0  0  0  0  0
   18.3562  -10.5912  -15.9441 C   0  0  0  0  0  0  0  0  0  0  0  0
   17.4353  -10.6627  -15.1012 O   0  0  0  0  0  0  0  0  0  0  0  0
   19.1470   -9.4780  -16.2024 N   0  0  0  0  0  0  0  0  0  0  0  0
   19.0728   -8.2442  -15.4468 C   0  0  1  0  0  0  0  0  0  0  0  0
   20.4382   -8.1403  -14.7667 C   0  0  0  0  0  0  0  0  0  0  0  0
   20.5308   -8.6184  -13.3994 C   0  0  0  0  0  0  0  0  0  0  0  0
   19.6395   -9.0204  -12.6644 O   0  0  0  0  0  0  0  0  0  0  0  0
   18.8036   -7.1754  -16.4165 C   0  0  0  0  0  0  0  0  0  0  0  0
   19.5003   -7.1204  -17.5114 O   0  0  0  0  0  0  0  0  0  0  0  0
   21.8314   -8.6209  -12.8356 O   0  0  0  0  0  0  0  0  0  0  0  0
   17.8360   -6.1440  -16.3281 N   0  0  0  0  0  0  0  0  0  0  0  0
   16.8828   -6.0720  -15.2026 C   0  0  0  0  0  0  0  0  0  0  0  0
   15.8104   -5.1071  -15.7424 C   0  0  0  0  0  0  0  0  0  0  0  0
   16.7221   -4.0988  -16.3940 C   0  0  0  0  0  0  0  0  0  0  0  0
   17.6801   -5.0196  -17.1855 C   0  0  1  0  0  0  0  0  0  0  0  0
   18.9422   -4.2317  -17.3285 C   0  0  0  0  0  0  0  0  0  0  0  0
   18.9910   -3.3033  -18.1506 O   0  0  0  0  0  0  0  0  0  0  0  0
   20.0403   -4.5293  -16.5588 O   0  0  0  0  0  0  0  0  0  0  0  0
  2  1  1  1
  2  5  1  0
  2  3  1  0
  4  3  1  0
  5  6  2  0
  7  5  1  0
  7  8  1  0
  8 12  1  0
  8  9  1  6
 10  9  1  0
 10 11  2  0
 12 13  2  0
 12 15  1  0
 14 10  1  0
 15 16  1  0
 15 19  1  0
 16 17  1  0
 17 18  1  0
 19 18  1  0
 19 20  1  1
 20 22  1  0
 21 20  2  0
M  END
$$$$
