CDP.pdb
     RDKit          3D

 22 22  0  0  1  0  0  0  0  0999 V2000
   23.0603  -13.0461  -16.8659 N   0  0  0  0  0  0  0  0  0  0  0  0
   23.1956  -12.0454  -15.8602 C   0  0  1  0  0  0  0  0  0  0  0  0
   24.6751  -11.6842  -15.7622 C   0  0  0  0  0  0  0  0  0  0  0  0
   25.5901  -13.0315  -14.9840 S   0  0  0  0  0  0  0  0  0  0  0  0
   22.5127  -10.7726  -16.3175 C   0  0  0  0  0  0  0  0  0  0  0  0
   22.5625  -10.5826  -17.5524 O   0  0  0  0  0  0  0  0  0  0  0  0
   21.9062   -9.9412  -15.3835 N   0  0  0  0  0  0  0  0  0  0  0  0
   21.1154   -8.7788  -15.7331 C   0  0  1  0  0  0  0  0  0  0  0  0
   19.7757   -9.0152  -15.0352 C   0  0  0  0  0  0  0  0  0  0  0  0
   18.8401   -9.9098  -15.6917 C   0  0  0  0  0  0  0  0  0  0  0  0
   17.8603  -10.4736  -15.2247 O   0  0  0  0  0  0  0  0  0  0  0  0
   21.8505   -7.6085  -15.2380 C   0  0  0  0  0  0  0  0  0  0  0  0
   22.3119   -7.6147  -14.0239 O   0  0  0  0  0  0  0  0  0  0  0  0
   19.0941  -10.1673  -17.0623 O   0  0  0  0  0  0  0  0  0  0  0  0
   22.1514   -6.4117  -15.9344 N   0  0  0  0  0  0  0  0  0  0  0  0
   21.7887   -6.2309  -17.3544 C   0  0  0  0  0  0  0  0  0  0  0  0
   22.6631   -5.0315  -17.7660 C   0  0  0  0  0  0  0  0  0  0  0  0
   22.4773   -4.1839  -16.5333 C   0  0  0  0  0  0  0  0  0  0  0  0
   22.7232   -5.2190  -15.4107 C   0  0  1  0  0  0  0  0  0  0  0  0
   21.9696   -4.6951  -14.2310 C   0  0  0  0  0  0  0  0  0  0  0  0
   22.4637   -3.7842  -13.5480 O   0  0  0  0  0  0  0  0  0  0  0  0
   20.7411   -5.2143  -13.9025 O   0  0  0  0  0  0  0  0  0  0  0  0
  2  1  1  6
  2  5  1  0
  2  3  1  0
  4  3  1  0
  5  6  2  0
  7  5  1  0
  7  8  1  0
  8 12  1  0
  8  9  1  1
 10  9  1  0
 10 11  2  0
 12 13  2  0
 12 15  1  0
 14 10  1  0
 15 16  1  0
 15 19  1  0
 16 17  1  0
 17 18  1  0
 19 18  1  0
 19 20  1  1
 20 22  1  0
 21 20  2  0
M  END
$$$$
