CDP.pdb
     RDKit          3D

 22 22  0  0  1  0  0  0  0  0999 V2000
   28.7919  -21.0923  -17.5618 N   0  0  0  0  0  0  0  0  0  0  0  0
   27.7912  -21.7385  -16.7795 C   0  0  1  0  0  0  0  0  0  0  0  0
   28.4961  -22.7071  -15.8340 C   0  0  0  0  0  0  0  0  0  0  0  0
   28.8228  -24.2682  -16.6790 S   0  0  0  0  0  0  0  0  0  0  0  0
   27.1241  -20.7243  -15.8728 C   0  0  0  0  0  0  0  0  0  0  0  0
   27.8971  -19.8427  -15.4382 O   0  0  0  0  0  0  0  0  0  0  0  0
   25.7664  -20.8333  -15.5969 N   0  0  0  0  0  0  0  0  0  0  0  0
   25.0364  -19.9004  -14.7630 C   0  0  1  0  0  0  0  0  0  0  0  0
   24.0357  -19.2498  -15.7184 C   0  0  0  0  0  0  0  0  0  0  0  0
   23.1755  -18.2180  -15.1686 C   0  0  0  0  0  0  0  0  0  0  0  0
   22.1337  -18.3414  -14.5398 O   0  0  0  0  0  0  0  0  0  0  0  0
   24.4160  -20.6921  -13.6937 C   0  0  0  0  0  0  0  0  0  0  0  0
   23.5542  -21.6132  -14.0032 O   0  0  0  0  0  0  0  0  0  0  0  0
   23.5984  -16.8831  -15.3890 O   0  0  0  0  0  0  0  0  0  0  0  0
   24.6400  -20.5954  -12.2979 N   0  0  0  0  0  0  0  0  0  0  0  0
   25.7145  -19.7476  -11.7437 C   0  0  0  0  0  0  0  0  0  0  0  0
   25.8460  -20.2831  -10.3055 C   0  0  0  0  0  0  0  0  0  0  0  0
   24.3804  -20.4376   -9.9880 C   0  0  0  0  0  0  0  0  0  0  0  0
   23.8701  -21.1721  -11.2498 C   0  0  1  0  0  0  0  0  0  0  0  0
   22.4214  -20.8164  -11.3438 C   0  0  0  0  0  0  0  0  0  0  0  0
   21.5976  -21.4262  -10.6439 O   0  0  0  0  0  0  0  0  0  0  0  0
   22.0014  -19.8242  -12.1958 O   0  0  0  0  0  0  0  0  0  0  0  0
  2  1  1  6
  2  5  1  0
  2  3  1  0
  4  3  1  0
  5  6  2  0
  7  5  1  0
  7  8  1  0
  8 12  1  0
  8  9  1  6
 10  9  1  0
 10 11  2  0
 12 13  2  0
 12 15  1  0
 14 10  1  0
 15 16  1  0
 15 19  1  0
 16 17  1  0
 17 18  1  0
 19 18  1  0
 19 20  1  6
 20 22  1  0
 21 20  2  0
M  END
$$$$
