CDP.pdb
     RDKit          3D

 22 22  0  0  1  0  0  0  0  0999 V2000
   25.7255  -13.0937  -16.0867 N   0  0  0  0  0  0  0  0  0  0  0  0
   25.7940  -11.6919  -15.8386 C   0  0  1  0  0  0  0  0  0  0  0  0
   26.8712  -11.1122  -16.7511 C   0  0  0  0  0  0  0  0  0  0  0  0
   26.9876   -9.3268  -16.5131 S   0  0  0  0  0  0  0  0  0  0  0  0
   24.5055  -11.0345  -16.2895 C   0  0  0  0  0  0  0  0  0  0  0  0
   23.8160  -11.7385  -17.0592 O   0  0  0  0  0  0  0  0  0  0  0  0
   24.1892   -9.7574  -15.8417 N   0  0  0  0  0  0  0  0  0  0  0  0
   22.8779   -9.1573  -15.9794 C   0  0  1  0  0  0  0  0  0  0  0  0
   21.9674  -10.0531  -15.1392 C   0  0  0  0  0  0  0  0  0  0  0  0
   20.5592   -9.7040  -15.0948 C   0  0  0  0  0  0  0  0  0  0  0  0
   19.7407   -9.6973  -16.0037 O   0  0  0  0  0  0  0  0  0  0  0  0
   22.9927   -7.7820  -15.4789 C   0  0  0  0  0  0  0  0  0  0  0  0
   23.4676   -7.5769  -14.2875 O   0  0  0  0  0  0  0  0  0  0  0  0
   20.0613   -9.3174  -13.8252 O   0  0  0  0  0  0  0  0  0  0  0  0
   22.6480   -6.5813  -16.1476 N   0  0  0  0  0  0  0  0  0  0  0  0
   22.0737   -6.5909  -17.5080 C   0  0  0  0  0  0  0  0  0  0  0  0
   22.2724   -5.1314  -17.9582 C   0  0  0  0  0  0  0  0  0  0  0  0
   21.8828   -4.4446  -16.6740 C   0  0  0  0  0  0  0  0  0  0  0  0
   22.6940   -5.2547  -15.6359 C   0  0  1  0  0  0  0  0  0  0  0  0
   21.9358   -5.1103  -14.3559 C   0  0  0  0  0  0  0  0  0  0  0  0
   22.1292   -4.1134  -13.6424 O   0  0  0  0  0  0  0  0  0  0  0  0
   21.0322   -6.0700  -13.9693 O   0  0  0  0  0  0  0  0  0  0  0  0
  2  1  1  6
  2  5  1  0
  2  3  1  0
  4  3  1  0
  5  6  2  0
  7  5  1  0
  7  8  1  0
  8 12  1  0
  8  9  1  1
 10  9  1  0
 10 11  2  0
 12 13  2  0
 12 15  1  0
 14 10  1  0
 15 16  1  0
 15 19  1  0
 16 17  1  0
 17 18  1  0
 19 18  1  0
 19 20  1  1
 20 22  1  0
 21 20  2  0
M  END
$$$$
