CDP.pdb
     RDKit          3D

 22 22  0  0  1  0  0  0  0  0999 V2000
   18.0111  -13.5974  -18.2628 N   0  0  0  0  0  0  0  0  0  0  0  0
   18.0807  -12.2213  -18.6269 C   0  0  1  0  0  0  0  0  0  0  0  0
   16.8130  -11.5424  -18.1160 C   0  0  0  0  0  0  0  0  0  0  0  0
   15.3997  -12.0312  -19.1266 S   0  0  0  0  0  0  0  0  0  0  0  0
   19.2121  -11.5543  -17.8714 C   0  0  0  0  0  0  0  0  0  0  0  0
   19.5765  -12.1734  -16.8479 O   0  0  0  0  0  0  0  0  0  0  0  0
   19.7445  -10.3593  -18.3403 N   0  0  0  0  0  0  0  0  0  0  0  0
   20.8709   -9.6843  -17.7285 C   0  0  1  0  0  0  0  0  0  0  0  0
   21.6523   -9.1140  -18.9125 C   0  0  0  0  0  0  0  0  0  0  0  0
   22.8366   -8.3334  -18.6051 C   0  0  0  0  0  0  0  0  0  0  0  0
   23.5976   -8.4350  -17.6528 O   0  0  0  0  0  0  0  0  0  0  0  0
   20.3114   -8.6645  -16.8329 C   0  0  0  0  0  0  0  0  0  0  0  0
   19.3754   -7.8780  -17.2715 O   0  0  0  0  0  0  0  0  0  0  0  0
   23.1583   -7.3123  -19.5342 O   0  0  0  0  0  0  0  0  0  0  0  0
   20.6595   -8.4060  -15.4839 N   0  0  0  0  0  0  0  0  0  0  0  0
   21.5597   -9.3028  -14.7317 C   0  0  0  0  0  0  0  0  0  0  0  0
   21.2981   -8.8823  -13.2733 C   0  0  0  0  0  0  0  0  0  0  0  0
   21.2543   -7.3889  -13.4740 C   0  0  0  0  0  0  0  0  0  0  0  0
   20.3145   -7.2723  -14.6969 C   0  0  1  0  0  0  0  0  0  0  0  0
   20.6943   -5.9846  -15.3539 C   0  0  0  0  0  0  0  0  0  0  0  0
   21.4666   -6.0008  -16.3253 O   0  0  0  0  0  0  0  0  0  0  0  0
   20.1953   -4.7919  -14.8899 O   0  0  0  0  0  0  0  0  0  0  0  0
  2  1  1  1
  2  5  1  0
  2  3  1  0
  4  3  1  0
  5  6  2  0
  7  5  1  0
  7  8  1  0
  8 12  1  0
  8  9  1  6
 10  9  1  0
 10 11  2  0
 12 13  2  0
 12 15  1  0
 14 10  1  0
 15 16  1  0
 15 19  1  0
 16 17  1  0
 17 18  1  0
 19 18  1  0
 19 20  1  6
 20 22  1  0
 21 20  2  0
M  END
$$$$
