CDP.pdb
     RDKit          3D

 22 22  0  0  1  0  0  0  0  0999 V2000
   14.4676   -8.7012   -9.1815 N   0  0  0  0  0  0  0  0  0  0  0  0
   15.1353   -7.5390   -9.6658 C   0  0  1  0  0  0  0  0  0  0  0  0
   15.4951   -6.6754   -8.4601 C   0  0  0  0  0  0  0  0  0  0  0  0
   13.9968   -5.9979   -7.7159 S   0  0  0  0  0  0  0  0  0  0  0  0
   16.4658   -7.9355  -10.2726 C   0  0  0  0  0  0  0  0  0  0  0  0
   16.8377   -9.0917   -9.9750 O   0  0  0  0  0  0  0  0  0  0  0  0
   17.1519   -7.0354  -11.0791 N   0  0  0  0  0  0  0  0  0  0  0  0
   17.9603   -7.4264  -12.2159 C   0  0  1  0  0  0  0  0  0  0  0  0
   16.9686   -8.0985  -13.1657 C   0  0  0  0  0  0  0  0  0  0  0  0
   17.0748   -9.5381  -13.3177 C   0  0  0  0  0  0  0  0  0  0  0  0
   18.0737  -10.2190  -13.5038 O   0  0  0  0  0  0  0  0  0  0  0  0
   18.5582   -6.1953  -12.7471 C   0  0  0  0  0  0  0  0  0  0  0  0
   17.7896   -5.1893  -13.0372 O   0  0  0  0  0  0  0  0  0  0  0  0
   15.8551  -10.2562  -13.2402 O   0  0  0  0  0  0  0  0  0  0  0  0
   19.9279   -5.9303  -12.9952 N   0  0  0  0  0  0  0  0  0  0  0  0
   20.9811   -6.9013  -12.6368 C   0  0  0  0  0  0  0  0  0  0  0  0
   22.2545   -6.0361  -12.6835 C   0  0  0  0  0  0  0  0  0  0  0  0
   21.9494   -5.2537  -13.9354 C   0  0  0  0  0  0  0  0  0  0  0  0
   20.4905   -4.8127  -13.6723 C   0  0  1  0  0  0  0  0  0  0  0  0
   19.8979   -4.6102  -15.0294 C   0  0  0  0  0  0  0  0  0  0  0  0
   19.9964   -3.5014  -15.5781 O   0  0  0  0  0  0  0  0  0  0  0  0
   19.2492   -5.6396  -15.6671 O   0  0  0  0  0  0  0  0  0  0  0  0
  2  1  1  1
  2  5  1  0
  2  3  1  0
  4  3  1  0
  5  6  2  0
  7  5  1  0
  7  8  1  0
  8 12  1  0
  8  9  1  6
 10  9  1  0
 10 11  2  0
 12 13  2  0
 12 15  1  0
 14 10  1  0
 15 16  1  0
 15 19  1  0
 16 17  1  0
 17 18  1  0
 19 18  1  0
 19 20  1  6
 20 22  1  0
 21 20  2  0
M  END
$$$$
