DSE.pdb
     RDKit          3D

 24 23  0  0  1  0  0  0  0  0999 V2000
   14.9831  -10.4240  -14.5463 N   0  0  0  0  0  0  0  0  0  0  0  0
   16.4030  -10.5459  -14.6402 C   0  0  1  0  0  0  0  0  0  0  0  0
   16.8182  -11.6582  -15.6006 C   0  0  0  0  0  0  0  0  0  0  0  0
   16.3342  -12.9660  -15.1408 C   0  0  0  0  0  0  0  0  0  0  0  0
   16.8775  -13.4985  -14.1278 O   0  0  0  0  0  0  0  0  0  0  0  0
   16.9764   -9.2428  -15.0634 C   0  0  0  0  0  0  0  0  0  0  0  0
   17.9501   -9.2259  -15.8645 O   0  0  0  0  0  0  0  0  0  0  0  0
   15.3036  -13.5689  -15.8296 O   0  0  0  0  0  0  0  0  0  0  0  0
   15.9057   -5.6652  -13.0906 O   0  0  0  0  0  0  0  0  0  0  0  0
   16.2371   -5.6101  -14.4273 C   0  0  0  0  0  0  0  0  0  0  0  0
   17.0951   -6.7452  -14.8801 C   0  0  2  0  0  0  0  0  0  0  0  0
   16.4575   -8.0064  -14.5897 N   0  0  0  0  0  0  0  0  0  0  0  0
   18.4127   -6.6865  -14.2074 C   0  0  0  0  0  0  0  0  0  0  0  0
   18.6677   -7.3245  -13.1714 O   0  0  0  0  0  0  0  0  0  0  0  0
   19.4225   -5.8690  -14.7696 N   0  0  0  0  0  0  0  0  0  0  0  0
   20.7871   -5.8596  -14.2216 C   0  0  1  0  0  0  0  0  0  0  0  0
   21.5886   -6.7860  -15.1007 C   0  0  0  0  0  0  0  0  0  0  0  0
   23.0505   -6.7943  -14.8059 C   0  0  0  0  0  0  0  0  0  0  0  0
   23.8321   -7.6871  -15.6802 C   0  0  0  0  0  0  0  0  0  0  0  0
   24.9121   -7.4102  -16.2348 O   0  0  0  0  0  0  0  0  0  0  0  0
   21.2722   -4.4669  -14.2945 C   0  0  0  0  0  0  0  0  0  0  0  0
   20.7999   -3.6333  -15.1174 O   0  0  0  0  0  0  0  0  0  0  0  0
   23.3071   -8.9641  -15.9047 O   0  0  0  0  0  0  0  0  0  0  0  0
   22.2780   -3.9952  -13.4595 O   0  0  0  0  0  0  0  0  0  0  0  0
  2  1  1  6
  2  3  1  0
  3  4  1  0
  4  8  1  0
  5  4  2  0
  6 12  1  0
  6  2  1  0
  7  6  2  0
  9 10  1  0
 11 10  1  1
 11 13  1  0
 11 12  1  0
 13 14  2  0
 15 13  1  0
 15 16  1  0
 16 17  1  6
 16 21  1  0
 18 17  1  0
 19 18  1  0
 20 19  2  0
 21 22  2  0
 21 24  1  0
 23 19  1  0
M  END
$$$$
