DSE.pdb
     RDKit          3D

 24 23  0  0  1  0  0  0  0  0999 V2000
   17.4081  -11.8560  -15.8280 N   0  0  0  0  0  0  0  0  0  0  0  0
   18.2709  -11.0250  -16.6056 C   0  0  1  0  0  0  0  0  0  0  0  0
   17.4895  -10.1323  -17.5671 C   0  0  0  0  0  0  0  0  0  0  0  0
   16.7544  -10.9309  -18.5559 C   0  0  0  0  0  0  0  0  0  0  0  0
   15.4879  -10.8987  -18.5496 O   0  0  0  0  0  0  0  0  0  0  0  0
   19.1118  -10.2083  -15.6936 C   0  0  0  0  0  0  0  0  0  0  0  0
   18.5612   -9.5377  -14.7786 O   0  0  0  0  0  0  0  0  0  0  0  0
   17.4702  -11.6889  -19.4576 O   0  0  0  0  0  0  0  0  0  0  0  0
   23.3535  -10.2225  -15.9602 O   0  0  0  0  0  0  0  0  0  0  0  0
   22.6926   -9.9981  -14.7717 C   0  0  0  0  0  0  0  0  0  0  0  0
   21.3504   -9.3663  -14.9416 C   0  0  2  0  0  0  0  0  0  0  0  0
   20.5273  -10.1595  -15.8217 N   0  0  0  0  0  0  0  0  0  0  0  0
   21.4975   -8.0004  -15.4937 C   0  0  0  0  0  0  0  0  0  0  0  0
   21.5282   -7.7684  -16.7146 O   0  0  0  0  0  0  0  0  0  0  0  0
   21.6077   -6.9151  -14.5914 N   0  0  0  0  0  0  0  0  0  0  0  0
   21.8052   -5.5404  -15.0747 C   0  0  1  0  0  0  0  0  0  0  0  0
   20.4590   -5.0854  -15.5788 C   0  0  0  0  0  0  0  0  0  0  0  0
   19.4572   -4.8351  -14.5028 C   0  0  0  0  0  0  0  0  0  0  0  0
   18.1836   -4.2752  -14.9896 C   0  0  0  0  0  0  0  0  0  0  0  0
   17.9690   -3.8220  -16.1294 O   0  0  0  0  0  0  0  0  0  0  0  0
   22.2665   -4.7398  -13.9230 C   0  0  0  0  0  0  0  0  0  0  0  0
   22.2439   -5.1868  -12.7420 O   0  0  0  0  0  0  0  0  0  0  0  0
   17.1193   -4.2533  -14.0821 O   0  0  0  0  0  0  0  0  0  0  0  0
   22.7522   -3.4467  -14.0753 O   0  0  0  0  0  0  0  0  0  0  0  0
  2  1  1  1
  2  3  1  0
  3  4  1  0
  4  8  1  0
  5  4  2  0
  6 12  1  0
  6  2  1  0
  7  6  2  0
  9 10  1  0
 11 10  1  6
 11 13  1  0
 11 12  1  0
 13 14  2  0
 15 13  1  0
 15 16  1  0
 16 17  1  1
 16 21  1  0
 18 17  1  0
 19 18  1  0
 20 19  2  0
 21 22  2  0
 21 24  1  0
 23 19  1  0
M  END
$$$$
