MMC.pdb
     RDKit          3D

 23 22  0  0  1  0  0  0  0  0999 V2000
   21.7596  -23.7504  -16.4428 C   0  0  0  0  0  0  0  0  0  0  0  0
   20.1975  -23.5274  -15.5558 S   0  0  0  0  0  0  0  0  0  0  0  0
   19.8237  -21.7341  -15.5920 C   0  0  0  0  0  0  0  0  0  0  0  0
   21.0000  -21.0308  -15.0017 C   0  0  0  0  0  0  0  0  0  0  0  0
   21.1061  -21.2004  -13.5009 C   0  0  2  0  0  0  0  0  0  0  0  0
   19.9991  -20.5319  -12.8938 N   0  0  0  0  0  0  0  0  0  0  0  0
   22.4184  -20.6754  -13.0896 C   0  0  0  0  0  0  0  0  0  0  0  0
   22.4605  -19.4909  -12.6599 O   0  0  0  0  0  0  0  0  0  0  0  0
   25.3332  -20.6398   -8.4436 C   0  0  0  0  0  0  0  0  0  0  0  0
   26.3659  -19.8825   -9.7413 S   0  0  0  0  0  0  0  0  0  0  0  0
   26.7370  -21.1090  -11.0401 C   0  0  0  0  0  0  0  0  0  0  0  0
   25.4196  -21.6622  -11.5184 C   0  0  0  0  0  0  0  0  0  0  0  0
   24.8842  -20.9226  -12.7215 C   0  0  2  0  0  0  0  0  0  0  0  0
   23.6136  -21.4371  -13.1573 N   0  0  0  0  0  0  0  0  0  0  0  0
   25.8224  -20.9521  -13.8636 C   0  0  0  0  0  0  0  0  0  0  0  0
   25.9763  -22.0101  -14.5226 O   0  0  0  0  0  0  0  0  0  0  0  0
   26.5822  -19.8251  -14.2739 N   0  0  0  0  0  0  0  0  0  0  0  0
   27.4410  -19.7978  -15.4302 C   0  0  1  0  0  0  0  0  0  0  0  0
   28.3309  -18.5499  -15.3686 C   0  0  0  0  0  0  0  0  0  0  0  0
   27.3166  -17.0721  -15.0507 S   0  0  0  0  0  0  0  0  0  0  0  0
   28.3054  -20.9700  -15.5456 C   0  0  0  0  0  0  0  0  0  0  0  0
   28.5621  -21.5144  -16.7836 O   0  0  0  0  0  0  0  0  0  0  0  0
   28.8121  -21.4802  -14.5285 O   0  0  0  0  0  0  0  0  0  0  0  0
  2  1  1  0
  2  3  1  0
  4  3  1  0
  4  5  1  0
  5  7  1  0
  5  6  1  1
  7  8  2  0
  7 14  1  0
  9 10  1  0
 11 12  1  0
 11 10  1  0
 13 15  1  0
 13 12  1  1
 14 13  1  0
 15 16  2  0
 17 18  1  0
 17 15  1  0
 18 19  1  1
 19 20  1  0
 21 22  1  0
 21 18  1  0
 23 21  2  0
M  END
$$$$
