MMC.pdb
     RDKit          3D

 23 22  0  0  1  0  0  0  0  0999 V2000
   17.3483  -15.0598  -17.4335 C   0  0  0  0  0  0  0  0  0  0  0  0
   17.6660  -15.8980  -19.0061 S   0  0  0  0  0  0  0  0  0  0  0  0
   19.4362  -16.3711  -19.0016 C   0  0  0  0  0  0  0  0  0  0  0  0
   20.1065  -15.5440  -17.9560 C   0  0  0  0  0  0  0  0  0  0  0  0
   21.5994  -15.7822  -17.8721 C   0  0  2  0  0  0  0  0  0  0  0  0
   21.8184  -17.0401  -17.2312 N   0  0  0  0  0  0  0  0  0  0  0  0
   22.1889  -14.6381  -17.1577 C   0  0  0  0  0  0  0  0  0  0  0  0
   22.1876  -14.6780  -15.8975 O   0  0  0  0  0  0  0  0  0  0  0  0
   27.6989  -10.7238  -14.8283 C   0  0  0  0  0  0  0  0  0  0  0  0
   26.8754  -11.9484  -15.8989 S   0  0  0  0  0  0  0  0  0  0  0  0
   25.5418  -11.1483  -16.8528 C   0  0  0  0  0  0  0  0  0  0  0  0
   24.8250  -12.2347  -17.6119 C   0  0  0  0  0  0  0  0  0  0  0  0
   23.4155  -12.4540  -17.1155 C   0  0  2  0  0  0  0  0  0  0  0  0
   22.7474  -13.5148  -17.8207 N   0  0  0  0  0  0  0  0  0  0  0  0
   22.5894  -11.2315  -17.2088 C   0  0  0  0  0  0  0  0  0  0  0  0
   22.1573  -10.8494  -18.3245 O   0  0  0  0  0  0  0  0  0  0  0  0
   22.2438  -10.4398  -16.0821 N   0  0  0  0  0  0  0  0  0  0  0  0
   21.5364   -9.1868  -16.1521 C   0  0  1  0  0  0  0  0  0  0  0  0
   21.0148   -8.8230  -14.7562 C   0  0  0  0  0  0  0  0  0  0  0  0
   20.0307   -7.2936  -14.8341 S   0  0  0  0  0  0  0  0  0  0  0  0
   22.3552   -8.0781  -16.6370 C   0  0  0  0  0  0  0  0  0  0  0  0
   21.8828   -7.2638  -17.6412 O   0  0  0  0  0  0  0  0  0  0  0  0
   23.4801   -7.8655  -16.1459 O   0  0  0  0  0  0  0  0  0  0  0  0
  2  1  1  0
  2  3  1  0
  4  3  1  0
  4  5  1  0
  5  7  1  0
  5  6  1  1
  7  8  2  0
  7 14  1  0
  9 10  1  0
 11 12  1  0
 11 10  1  0
 13 15  1  0
 13 12  1  6
 14 13  1  0
 15 16  2  0
 17 18  1  0
 17 15  1  0
 18 19  1  1
 19 20  1  0
 21 22  1  0
 21 18  1  0
 23 21  2  0
M  END
$$$$
