MMC.pdb
     RDKit          3D

 23 22  0  0  1  0  0  0  0  0999 V2000
   25.5253  -21.3945  -10.3479 C   0  0  0  0  0  0  0  0  0  0  0  0
   26.5442  -22.5255  -11.3275 S   0  0  0  0  0  0  0  0  0  0  0  0
   25.8675  -22.5019  -13.0301 C   0  0  0  0  0  0  0  0  0  0  0  0
   25.3552  -21.1223  -13.2773 C   0  0  0  0  0  0  0  0  0  0  0  0
   26.4063  -20.1855  -13.8339 C   0  0  2  0  0  0  0  0  0  0  0  0
   27.5698  -20.2751  -13.0096 N   0  0  0  0  0  0  0  0  0  0  0  0
   25.8140  -18.8388  -13.8853 C   0  0  0  0  0  0  0  0  0  0  0  0
   25.4877  -18.3065  -12.7900 O   0  0  0  0  0  0  0  0  0  0  0  0
   26.5715  -11.5469  -15.9310 C   0  0  0  0  0  0  0  0  0  0  0  0
   27.1073  -13.2879  -15.8554 S   0  0  0  0  0  0  0  0  0  0  0  0
   25.6843  -14.3638  -15.4728 C   0  0  0  0  0  0  0  0  0  0  0  0
   26.1891  -15.7835  -15.4683 C   0  0  0  0  0  0  0  0  0  0  0  0
   25.1076  -16.7810  -15.1273 C   0  0  2  0  0  0  0  0  0  0  0  0
   25.6009  -18.1318  -15.0968 N   0  0  0  0  0  0  0  0  0  0  0  0
   23.9663  -16.7162  -16.0649 C   0  0  0  0  0  0  0  0  0  0  0  0
   24.1319  -17.0040  -17.2762 O   0  0  0  0  0  0  0  0  0  0  0  0
   22.6564  -16.3382  -15.6690 N   0  0  0  0  0  0  0  0  0  0  0  0
   21.5246  -16.2672  -16.5575 C   0  0  1  0  0  0  0  0  0  0  0  0
   20.3599  -17.0638  -15.9560 C   0  0  0  0  0  0  0  0  0  0  0  0
   20.5987  -17.2653  -14.1627 S   0  0  0  0  0  0  0  0  0  0  0  0
   21.0633  -14.9042  -16.8106 C   0  0  0  0  0  0  0  0  0  0  0  0
   20.0115  -14.6841  -17.6710 O   0  0  0  0  0  0  0  0  0  0  0  0
   21.6171  -13.9388  -16.2513 O   0  0  0  0  0  0  0  0  0  0  0  0
  2  1  1  0
  2  3  1  0
  4  3  1  0
  4  5  1  0
  5  7  1  0
  5  6  1  1
  7  8  2  0
  7 14  1  0
  9 10  1  0
 11 12  1  0
 11 10  1  0
 13 15  1  0
 13 12  1  6
 14 13  1  0
 15 16  2  0
 17 18  1  0
 17 15  1  0
 18 19  1  1
 19 20  1  0
 21 22  1  0
 21 18  1  0
 23 21  2  0
M  END
$$$$
