MMC.pdb
     RDKit          3D

 23 22  0  0  1  0  0  0  0  0999 V2000
   17.1187  -13.1793  -19.0461 C   0  0  0  0  0  0  0  0  0  0  0  0
   17.5064  -14.8305  -19.6786 S   0  0  0  0  0  0  0  0  0  0  0  0
   19.3297  -15.0018  -19.6185 C   0  0  0  0  0  0  0  0  0  0  0  0
   19.7882  -14.3499  -18.3569 C   0  0  0  0  0  0  0  0  0  0  0  0
   21.1957  -14.7414  -17.9596 C   0  0  2  0  0  0  0  0  0  0  0  0
   21.1675  -16.0832  -17.4698 N   0  0  0  0  0  0  0  0  0  0  0  0
   21.6654  -13.7558  -16.9722 C   0  0  0  0  0  0  0  0  0  0  0  0
   21.2712  -13.8934  -15.7826 O   0  0  0  0  0  0  0  0  0  0  0  0
   27.4688  -10.7709  -15.8597 C   0  0  0  0  0  0  0  0  0  0  0  0
   27.0301  -12.5060  -16.2076 S   0  0  0  0  0  0  0  0  0  0  0  0
   25.2583  -12.7823  -15.8717 C   0  0  0  0  0  0  0  0  0  0  0  0
   24.5150  -11.5775  -16.3877 C   0  0  0  0  0  0  0  0  0  0  0  0
   23.0160  -11.7494  -16.3191 C   0  0  2  0  0  0  0  0  0  0  0  0
   22.5277  -12.6785  -17.3025 N   0  0  0  0  0  0  0  0  0  0  0  0
   22.2948  -10.4689  -16.4801 C   0  0  0  0  0  0  0  0  0  0  0  0
   22.1861   -9.9483  -17.6179 O   0  0  0  0  0  0  0  0  0  0  0  0
   21.6996   -9.7712  -15.3963 N   0  0  0  0  0  0  0  0  0  0  0  0
   20.8990   -8.5815  -15.5338 C   0  0  1  0  0  0  0  0  0  0  0  0
   19.8701   -8.5314  -14.3972 C   0  0  0  0  0  0  0  0  0  0  0  0
   18.9020  -10.0725  -14.3600 S   0  0  0  0  0  0  0  0  0  0  0  0
   21.6766   -7.3450  -15.5008 C   0  0  0  0  0  0  0  0  0  0  0  0
   21.0497   -6.1346  -15.6922 O   0  0  0  0  0  0  0  0  0  0  0  0
   22.9055   -7.3802  -15.3001 O   0  0  0  0  0  0  0  0  0  0  0  0
  2  1  1  0
  2  3  1  0
  4  3  1  0
  4  5  1  0
  5  7  1  0
  5  6  1  1
  7  8  2  0
  7 14  1  0
  9 10  1  0
 11 12  1  0
 11 10  1  0
 13 15  1  0
 13 12  1  6
 14 13  1  0
 15 16  2  0
 17 18  1  0
 17 15  1  0
 18 19  1  1
 19 20  1  0
 21 22  1  0
 21 18  1  0
 23 21  2  0
M  END
$$$$
