MMC.pdb
     RDKit          3D

 23 22  0  0  1  0  0  0  0  0999 V2000
   18.7063  -18.8131  -16.6770 C   0  0  0  0  0  0  0  0  0  0  0  0
   18.4241  -17.4786  -17.8671 S   0  0  0  0  0  0  0  0  0  0  0  0
   17.8889  -16.0168  -16.9008 C   0  0  0  0  0  0  0  0  0  0  0  0
   19.1220  -15.2611  -16.5330 C   0  0  0  0  0  0  0  0  0  0  0  0
   19.2658  -13.9523  -17.2803 C   0  0  2  0  0  0  0  0  0  0  0  0
   19.6335  -14.2435  -18.6298 N   0  0  0  0  0  0  0  0  0  0  0  0
   20.2541  -13.1369  -16.5555 C   0  0  0  0  0  0  0  0  0  0  0  0
   20.0156  -12.8768  -15.3451 O   0  0  0  0  0  0  0  0  0  0  0  0
   27.6472  -10.7630  -15.4400 C   0  0  0  0  0  0  0  0  0  0  0  0
   26.4229  -11.8761  -16.2056 S   0  0  0  0  0  0  0  0  0  0  0  0
   24.7385  -11.2229  -15.9504 C   0  0  0  0  0  0  0  0  0  0  0  0
   23.7849  -12.1803  -16.6169 C   0  0  0  0  0  0  0  0  0  0  0  0
   22.3428  -11.7561  -16.4707 C   0  0  2  0  0  0  0  0  0  0  0  0
   21.4410  -12.6429  -17.1558 N   0  0  0  0  0  0  0  0  0  0  0  0
   22.1094  -10.3789  -16.9549 C   0  0  0  0  0  0  0  0  0  0  0  0
   22.4227  -10.0649  -18.1299 O   0  0  0  0  0  0  0  0  0  0  0  0
   21.5357   -9.3595  -16.1502 N   0  0  0  0  0  0  0  0  0  0  0  0
   21.2638   -8.0193  -16.6032 C   0  0  1  0  0  0  0  0  0  0  0  0
   19.7480   -7.7844  -16.6038 C   0  0  0  0  0  0  0  0  0  0  0  0
   19.0688   -8.0720  -14.9395 S   0  0  0  0  0  0  0  0  0  0  0  0
   21.8860   -6.9852  -15.7798 C   0  0  0  0  0  0  0  0  0  0  0  0
   21.8365   -5.6684  -16.1780 O   0  0  0  0  0  0  0  0  0  0  0  0
   22.4619   -7.2888  -14.7178 O   0  0  0  0  0  0  0  0  0  0  0  0
  2  1  1  0
  2  3  1  0
  4  3  1  0
  4  5  1  0
  5  7  1  0
  5  6  1  6
  7  8  2  0
  7 14  1  0
  9 10  1  0
 11 12  1  0
 11 10  1  0
 13 15  1  0
 13 12  1  6
 14 13  1  0
 15 16  2  0
 17 18  1  0
 17 15  1  0
 18 19  1  1
 19 20  1  0
 21 22  1  0
 21 18  1  0
 23 21  2  0
M  END
$$$$
