MMC.pdb
     RDKit          3D

 23 22  0  0  1  0  0  0  0  0999 V2000
   21.9039  -17.6569  -21.5132 C   0  0  0  0  0  0  0  0  0  0  0  0
   23.6107  -17.0539  -21.5016 S   0  0  0  0  0  0  0  0  0  0  0  0
   23.8320  -16.1322  -19.9335 C   0  0  0  0  0  0  0  0  0  0  0  0
   22.6470  -15.2380  -19.7816 C   0  0  0  0  0  0  0  0  0  0  0  0
   23.0150  -13.8151  -19.4179 C   0  0  2  0  0  0  0  0  0  0  0  0
   23.8710  -13.8507  -18.2746 N   0  0  0  0  0  0  0  0  0  0  0  0
   21.7601  -13.0769  -19.2007 C   0  0  0  0  0  0  0  0  0  0  0  0
   20.9738  -12.9689  -20.1802 O   0  0  0  0  0  0  0  0  0  0  0  0
   16.7077  -15.6766  -15.9985 C   0  0  0  0  0  0  0  0  0  0  0  0
   17.6491  -14.1710  -15.5852 S   0  0  0  0  0  0  0  0  0  0  0  0
   18.5827  -13.5973  -17.0440 C   0  0  0  0  0  0  0  0  0  0  0  0
   19.3576  -12.3755  -16.6233 C   0  0  0  0  0  0  0  0  0  0  0  0
   20.1719  -11.7898  -17.7525 C   0  0  2  0  0  0  0  0  0  0  0  0
   21.4094  -12.4942  -17.9554 N   0  0  0  0  0  0  0  0  0  0  0  0
   20.4726  -10.3572  -17.5453 C   0  0  0  0  0  0  0  0  0  0  0  0
   21.4405  -10.0173  -16.8207 O   0  0  0  0  0  0  0  0  0  0  0  0
   19.7128   -9.3113  -18.1323 N   0  0  0  0  0  0  0  0  0  0  0  0
   19.9671   -7.9075  -17.9323 C   0  0  1  0  0  0  0  0  0  0  0  0
   19.4665   -7.1250  -19.1530 C   0  0  0  0  0  0  0  0  0  0  0  0
   20.3014   -7.7133  -20.6598 S   0  0  0  0  0  0  0  0  0  0  0  0
   19.3215   -7.3590  -16.7419 C   0  0  0  0  0  0  0  0  0  0  0  0
   19.5151   -6.0391  -16.4026 O   0  0  0  0  0  0  0  0  0  0  0  0
   18.5958   -8.0802  -16.0314 O   0  0  0  0  0  0  0  0  0  0  0  0
  2  1  1  0
  2  3  1  0
  4  3  1  0
  4  5  1  0
  5  7  1  0
  5  6  1  1
  7  8  2  0
  7 14  1  0
  9 10  1  0
 11 12  1  0
 11 10  1  0
 13 15  1  0
 13 12  1  1
 14 13  1  0
 15 16  2  0
 17 18  1  0
 17 15  1  0
 18 19  1  6
 19 20  1  0
 21 22  1  0
 21 18  1  0
 23 21  2  0
M  END
$$$$
