MMC.pdb
     RDKit          3D

 23 22  0  0  1  0  0  0  0  0999 V2000
   25.3683  -16.2710  -16.9407 C   0  0  0  0  0  0  0  0  0  0  0  0
   27.0199  -15.6257  -16.5768 S   0  0  0  0  0  0  0  0  0  0  0  0
   28.0846  -17.0745  -16.2240 C   0  0  0  0  0  0  0  0  0  0  0  0
   27.2089  -18.1246  -15.6261 C   0  0  0  0  0  0  0  0  0  0  0  0
   27.9770  -19.3309  -15.1289 C   0  0  2  0  0  0  0  0  0  0  0  0
   28.4805  -20.0410  -16.2617 N   0  0  0  0  0  0  0  0  0  0  0  0
   27.0620  -20.1204  -14.2885 C   0  0  0  0  0  0  0  0  0  0  0  0
   26.5635  -21.1623  -14.7939 O   0  0  0  0  0  0  0  0  0  0  0  0
   24.4625  -21.5993   -6.9188 C   0  0  0  0  0  0  0  0  0  0  0  0
   25.4005  -20.5353   -8.0643 S   0  0  0  0  0  0  0  0  0  0  0  0
   25.1428  -21.0881   -9.7838 C   0  0  0  0  0  0  0  0  0  0  0  0
   26.0404  -20.2519  -10.6587 C   0  0  0  0  0  0  0  0  0  0  0  0
   25.8815  -20.5739  -12.1257 C   0  0  2  0  0  0  0  0  0  0  0  0
   26.7269  -19.7601  -12.9576 N   0  0  0  0  0  0  0  0  0  0  0  0
   24.4842  -20.4274  -12.5860 C   0  0  0  0  0  0  0  0  0  0  0  0
   23.9950  -19.2828  -12.7532 O   0  0  0  0  0  0  0  0  0  0  0  0
   23.6365  -21.5331  -12.8590 N   0  0  0  0  0  0  0  0  0  0  0  0
   22.2886  -21.4240  -13.3554 C   0  0  1  0  0  0  0  0  0  0  0  0
   21.8894  -22.7444  -14.0264 C   0  0  0  0  0  0  0  0  0  0  0  0
   23.1706  -23.2559  -15.2141 S   0  0  0  0  0  0  0  0  0  0  0  0
   21.3048  -21.1232  -12.3179 C   0  0  0  0  0  0  0  0  0  0  0  0
   19.9928  -20.8898  -12.6630 O   0  0  0  0  0  0  0  0  0  0  0  0
   21.6472  -21.0768  -11.1212 O   0  0  0  0  0  0  0  0  0  0  0  0
  2  1  1  0
  2  3  1  0
  4  3  1  0
  4  5  1  0
  5  7  1  0
  5  6  1  6
  7  8  2  0
  7 14  1  0
  9 10  1  0
 11 12  1  0
 11 10  1  0
 13 15  1  0
 13 12  1  1
 14 13  1  0
 15 16  2  0
 17 18  1  0
 17 15  1  0
 18 19  1  1
 19 20  1  0
 21 22  1  0
 21 18  1  0
 23 21  2  0
M  END
$$$$
