MMC.pdb
     RDKit          3D

 23 22  0  0  1  0  0  0  0  0999 V2000
   14.4799  -12.1962  -17.1753 C   0  0  0  0  0  0  0  0  0  0  0  0
   15.2406  -12.8164  -18.6963 S   0  0  0  0  0  0  0  0  0  0  0  0
   16.9842  -13.2070  -18.2908 C   0  0  0  0  0  0  0  0  0  0  0  0
   17.4696  -12.1353  -17.3729 C   0  0  0  0  0  0  0  0  0  0  0  0
   18.9290  -12.2851  -16.9986 C   0  0  2  0  0  0  0  0  0  0  0  0
   19.1097  -13.5696  -16.3997 N   0  0  0  0  0  0  0  0  0  0  0  0
   19.2750  -11.1606  -16.1139 C   0  0  0  0  0  0  0  0  0  0  0  0
   18.7580  -11.1467  -14.9642 O   0  0  0  0  0  0  0  0  0  0  0  0
   25.3987  -10.8132  -13.8830 C   0  0  0  0  0  0  0  0  0  0  0  0
   24.4777   -9.5477  -14.8181 S   0  0  0  0  0  0  0  0  0  0  0  0
   22.6959   -9.9400  -14.8130 C   0  0  0  0  0  0  0  0  0  0  0  0
   21.9919   -8.8188  -15.5323 C   0  0  0  0  0  0  0  0  0  0  0  0
   20.4991   -9.0322  -15.6158 C   0  0  2  0  0  0  0  0  0  0  0  0
   20.1509  -10.1128  -16.4989 N   0  0  0  0  0  0  0  0  0  0  0  0
   19.7802   -7.8160  -16.0515 C   0  0  0  0  0  0  0  0  0  0  0  0
   19.7741   -7.4911  -17.2647 O   0  0  0  0  0  0  0  0  0  0  0  0
   19.0754   -6.9681  -15.1572 N   0  0  0  0  0  0  0  0  0  0  0  0
   18.4063   -5.7521  -15.5431 C   0  0  1  0  0  0  0  0  0  0  0  0
   17.1282   -5.5930  -14.7099 C   0  0  0  0  0  0  0  0  0  0  0  0
   16.3589   -3.9776  -15.0450 S   0  0  0  0  0  0  0  0  0  0  0  0
   19.2210   -4.5527  -15.3632 C   0  0  0  0  0  0  0  0  0  0  0  0
   19.1860   -3.5511  -16.3068 O   0  0  0  0  0  0  0  0  0  0  0  0
   19.9483   -4.4313  -14.3593 O   0  0  0  0  0  0  0  0  0  0  0  0
  2  1  1  0
  2  3  1  0
  4  3  1  0
  4  5  1  0
  5  7  1  0
  5  6  1  1
  7  8  2  0
  7 14  1  0
  9 10  1  0
 11 12  1  0
 11 10  1  0
 13 15  1  0
 13 12  1  6
 14 13  1  0
 15 16  2  0
 17 18  1  0
 17 15  1  0
 18 19  1  1
 19 20  1  0
 21 22  1  0
 21 18  1  0
 23 21  2  0
M  END
$$$$
