GFR.pdb
     RDKit          3D

 27 27  0  0  1  0  0  0  0  0999 V2000
    8.4388  -18.3685   18.4310 N   0  0  0  0  0  0  0  0  0  0  0  0
    7.5527  -18.1046   19.5412 C   0  0  0  0  0  0  0  0  0  0  0  0
    8.2218  -17.2340   20.5628 C   0  0  0  0  0  0  0  0  0  0  0  0
    9.4619  -17.0539   20.4632 O   0  0  0  0  0  0  0  0  0  0  0  0
    7.4973  -16.6272   21.6113 N   0  0  0  0  0  0  0  0  0  0  0  0
    8.1586  -15.9666   22.7301 C   0  0  1  0  0  0  0  0  0  0  0  0
    7.5681  -14.6269   22.9968 C   0  0  0  0  0  0  0  0  0  0  0  0
    7.6120  -13.7331   21.8185 C   0  0  0  0  0  0  0  0  0  0  0  0
    6.5678  -13.7668   20.9055 C   0  0  0  0  0  0  0  0  0  0  0  0
    6.5613  -12.9434   19.8006 C   0  0  0  0  0  0  0  0  0  0  0  0
    7.5842  -12.0684   19.5712 C   0  0  0  0  0  0  0  0  0  0  0  0
    8.6146  -12.0513   20.4937 C   0  0  0  0  0  0  0  0  0  0  0  0
    8.6402  -12.8605   21.5972 C   0  0  0  0  0  0  0  0  0  0  0  0
    8.2266  -16.8694   23.9096 C   0  0  0  0  0  0  0  0  0  0  0  0
    7.2134  -17.0497   24.6311 O   0  0  0  0  0  0  0  0  0  0  0  0
    5.5901  -23.4426   22.4418 N   0  0  0  0  0  0  0  0  0  0  0  0
    5.3832  -22.5116   23.5090 C   0  0  0  0  0  0  0  0  0  0  0  0
    4.2906  -21.8440   23.5239 N   0  0  0  0  0  0  0  0  0  0  0  0
    6.3293  -22.3082   24.5283 N   0  0  0  0  0  0  0  0  0  0  0  0
    7.7399  -21.9371   24.2103 C   0  0  0  0  0  0  0  0  0  0  0  0
    7.9925  -20.6238   24.8260 C   0  0  0  0  0  0  0  0  0  0  0  0
    9.2666  -19.9181   24.7185 C   0  0  0  0  0  0  0  0  0  0  0  0
    9.5217  -18.5945   25.2683 C   0  0  2  0  0  0  0  0  0  0  0  0
    9.4234  -17.5424   24.2465 N   0  0  0  0  0  0  0  0  0  0  0  0
   10.6642  -18.3763   26.1465 C   0  0  0  0  0  0  0  0  0  0  0  0
   11.6244  -17.4188   25.6350 O   0  0  0  0  0  0  0  0  0  0  0  0
   10.9297  -18.8726   27.2337 O   0  0  0  0  0  0  0  0  0  0  0  0
  2  1  1  0
  2  3  1  0
  3  4  2  0
  5  3  1  0
  5  6  1  0
  6 14  1  0
  6  7  1  1
  8  7  1  0
  9  8  2  0
 10  9  1  0
 11 10  2  0
 11 12  1  0
 12 13  2  0
 13  8  1  0
 14 15  2  0
 16 17  1  0
 17 18  2  0
 17 19  1  0
 19 20  1  0
 20 21  1  0
 21 22  1  0
 23 22  1  6
 23 25  1  0
 24 23  1  0
 24 14  1  0
 25 27  2  0
 25 26  1  0
M  END
$$$$
