GFR.pdb
     RDKit          3D

 27 27  0  0  1  0  0  0  0  0999 V2000
    9.9486  -17.0823   18.9626 N   0  0  0  0  0  0  0  0  0  0  0  0
    8.7865  -17.0066   19.8176 C   0  0  0  0  0  0  0  0  0  0  0  0
    8.9838  -15.9846   20.8973 C   0  0  0  0  0  0  0  0  0  0  0  0
   10.1466  -15.5474   21.0904 O   0  0  0  0  0  0  0  0  0  0  0  0
    7.9087  -15.5160   21.6828 N   0  0  0  0  0  0  0  0  0  0  0  0
    8.1159  -14.7041   22.8759 C   0  0  1  0  0  0  0  0  0  0  0  0
    6.8948  -13.9283   23.2246 C   0  0  0  0  0  0  0  0  0  0  0  0
    7.0094  -13.2263   24.5220 C   0  0  0  0  0  0  0  0  0  0  0  0
    6.4056  -13.7762   25.6436 C   0  0  0  0  0  0  0  0  0  0  0  0
    6.4970  -13.1630   26.8742 C   0  0  0  0  0  0  0  0  0  0  0  0
    7.1859  -11.9938   27.0265 C   0  0  0  0  0  0  0  0  0  0  0  0
    7.7799  -11.4632   25.8957 C   0  0  0  0  0  0  0  0  0  0  0  0
    7.7011  -12.0563   24.6647 C   0  0  0  0  0  0  0  0  0  0  0  0
    8.6754  -15.5258   23.9817 C   0  0  0  0  0  0  0  0  0  0  0  0
    8.1110  -16.5939   24.3281 O   0  0  0  0  0  0  0  0  0  0  0  0
   10.6973  -18.1200   31.5282 N   0  0  0  0  0  0  0  0  0  0  0  0
   11.9210  -18.0234   30.7921 C   0  0  0  0  0  0  0  0  0  0  0  0
   12.9712  -18.5565   31.2949 N   0  0  0  0  0  0  0  0  0  0  0  0
   12.0065  -17.3695   29.5509 N   0  0  0  0  0  0  0  0  0  0  0  0
   11.1536  -16.1841   29.2417 C   0  0  0  0  0  0  0  0  0  0  0  0
   10.2244  -16.5851   28.1723 C   0  0  0  0  0  0  0  0  0  0  0  0
    9.9288  -15.7507   27.0107 C   0  0  0  0  0  0  0  0  0  0  0  0
   10.5194  -15.9373   25.6933 C   0  0  2  0  0  0  0  0  0  0  0  0
    9.8473  -15.1291   24.6659 N   0  0  0  0  0  0  0  0  0  0  0  0
   10.8095  -17.2801   25.2065 C   0  0  0  0  0  0  0  0  0  0  0  0
   12.2196  -17.6150   25.2107 O   0  0  0  0  0  0  0  0  0  0  0  0
   10.0527  -18.1529   24.8013 O   0  0  0  0  0  0  0  0  0  0  0  0
  2  1  1  0
  2  3  1  0
  3  4  2  0
  5  3  1  0
  5  6  1  0
  6 14  1  0
  6  7  1  1
  8  7  1  0
  9  8  2  0
 10  9  1  0
 11 10  2  0
 11 12  1  0
 12 13  2  0
 13  8  1  0
 14 15  2  0
 16 17  1  0
 17 18  2  0
 17 19  1  0
 19 20  1  0
 20 21  1  0
 21 22  1  0
 23 22  1  1
 23 25  1  0
 24 23  1  0
 24 14  1  0
 25 27  2  0
 25 26  1  0
M  END
$$$$
