GFR.pdb
     RDKit          3D

 27 27  0  0  1  0  0  0  0  0999 V2000
    7.0379  -14.0788   19.9278 N   0  0  0  0  0  0  0  0  0  0  0  0
    6.6900  -14.9563   21.0216 C   0  0  0  0  0  0  0  0  0  0  0  0
    7.5584  -14.6915   22.2153 C   0  0  0  0  0  0  0  0  0  0  0  0
    8.5732  -13.9665   22.0574 O   0  0  0  0  0  0  0  0  0  0  0  0
    7.2611  -15.2313   23.4852 N   0  0  0  0  0  0  0  0  0  0  0  0
    8.1945  -15.1465   24.6019 C   0  0  1  0  0  0  0  0  0  0  0  0
    7.4835  -14.9164   25.8887 C   0  0  0  0  0  0  0  0  0  0  0  0
    6.9553  -13.5403   26.0168 C   0  0  0  0  0  0  0  0  0  0  0  0
    5.5824  -13.3398   26.0073 C   0  0  0  0  0  0  0  0  0  0  0  0
    5.0464  -12.0769   26.1361 C   0  0  0  0  0  0  0  0  0  0  0  0
    5.8519  -10.9834   26.2773 C   0  0  0  0  0  0  0  0  0  0  0  0
    7.2171  -11.2059   26.2842 C   0  0  0  0  0  0  0  0  0  0  0  0
    7.7695  -12.4518   26.1577 C   0  0  0  0  0  0  0  0  0  0  0  0
    9.1275  -16.3044   24.5979 C   0  0  0  0  0  0  0  0  0  0  0  0
    8.6932  -17.4711   24.7702 O   0  0  0  0  0  0  0  0  0  0  0  0
   15.2189  -15.3108   20.7135 N   0  0  0  0  0  0  0  0  0  0  0  0
   14.1287  -14.9520   19.8584 C   0  0  0  0  0  0  0  0  0  0  0  0
   14.3863  -14.2667   18.8078 N   0  0  0  0  0  0  0  0  0  0  0  0
   12.8007  -15.3222   20.1316 N   0  0  0  0  0  0  0  0  0  0  0  0
   12.2620  -15.2958   21.5236 C   0  0  0  0  0  0  0  0  0  0  0  0
   12.2703  -16.6824   22.0185 C   0  0  0  0  0  0  0  0  0  0  0  0
   12.5343  -17.0368   23.4105 C   0  0  0  0  0  0  0  0  0  0  0  0
   11.5037  -17.2114   24.4237 C   0  0  2  0  0  0  0  0  0  0  0  0
   10.5158  -16.1232   24.4016 N   0  0  0  0  0  0  0  0  0  0  0  0
   11.8736  -17.5648   25.7884 C   0  0  0  0  0  0  0  0  0  0  0  0
   12.6958  -18.7544   25.8852 O   0  0  0  0  0  0  0  0  0  0  0  0
   11.5983  -17.0162   26.8476 O   0  0  0  0  0  0  0  0  0  0  0  0
  2  1  1  0
  2  3  1  0
  3  4  2  0
  5  3  1  0
  5  6  1  0
  6 14  1  0
  6  7  1  1
  8  7  1  0
  9  8  2  0
 10  9  1  0
 11 10  2  0
 11 12  1  0
 12 13  2  0
 13  8  1  0
 14 15  2  0
 16 17  1  0
 17 18  2  0
 17 19  1  0
 19 20  1  0
 20 21  1  0
 21 22  1  0
 23 22  1  6
 23 25  1  0
 24 23  1  0
 24 14  1  0
 25 27  2  0
 25 26  1  0
M  END
$$$$
