GFR.pdb
     RDKit          3D

 27 27  0  0  1  0  0  0  0  0999 V2000
    9.5925  -16.8947   19.3593 N   0  0  0  0  0  0  0  0  0  0  0  0
    8.3458  -16.5019   19.9751 C   0  0  0  0  0  0  0  0  0  0  0  0
    8.5879  -15.8635   21.3104 C   0  0  0  0  0  0  0  0  0  0  0  0
    9.6184  -16.1999   21.9469 O   0  0  0  0  0  0  0  0  0  0  0  0
    7.6968  -14.9120   21.8519 N   0  0  0  0  0  0  0  0  0  0  0  0
    7.8509  -14.3859   23.2027 C   0  0  1  0  0  0  0  0  0  0  0  0
    7.1110  -13.1064   23.3757 C   0  0  0  0  0  0  0  0  0  0  0  0
    7.1758  -12.5860   24.7593 C   0  0  0  0  0  0  0  0  0  0  0  0
    8.3083  -11.8976   25.1700 C   0  0  0  0  0  0  0  0  0  0  0  0
    8.4065  -11.3852   26.4454 C   0  0  0  0  0  0  0  0  0  0  0  0
    7.3904  -11.5399   27.3443 C   0  0  0  0  0  0  0  0  0  0  0  0
    6.2710  -12.2292   26.9140 C   0  0  0  0  0  0  0  0  0  0  0  0
    6.1536  -12.7459   25.6521 C   0  0  0  0  0  0  0  0  0  0  0  0
    7.5425  -15.4316   24.2138 C   0  0  0  0  0  0  0  0  0  0  0  0
    6.4244  -16.0055   24.2140 O   0  0  0  0  0  0  0  0  0  0  0  0
    8.8218  -23.0198   23.8739 N   0  0  0  0  0  0  0  0  0  0  0  0
    7.5395  -22.9049   24.4993 C   0  0  0  0  0  0  0  0  0  0  0  0
    6.9692  -23.9764   24.9073 N   0  0  0  0  0  0  0  0  0  0  0  0
    6.8936  -21.6694   24.6772 N   0  0  0  0  0  0  0  0  0  0  0  0
    7.3855  -20.4353   23.9965 C   0  0  0  0  0  0  0  0  0  0  0  0
    7.8034  -19.4957   25.0502 C   0  0  0  0  0  0  0  0  0  0  0  0
    8.4019  -18.1927   24.7731 C   0  0  0  0  0  0  0  0  0  0  0  0
    8.6007  -17.1510   25.7705 C   0  0  2  0  0  0  0  0  0  0  0  0
    8.4922  -15.8037   25.1929 N   0  0  0  0  0  0  0  0  0  0  0  0
    9.7146  -17.2391   26.7064 C   0  0  0  0  0  0  0  0  0  0  0  0
    9.4073  -17.9718   27.9185 O   0  0  0  0  0  0  0  0  0  0  0  0
   10.8520  -16.7941   26.6231 O   0  0  0  0  0  0  0  0  0  0  0  0
  2  1  1  0
  2  3  1  0
  3  4  2  0
  5  3  1  0
  5  6  1  0
  6 14  1  0
  6  7  1  6
  8  7  1  0
  9  8  2  0
 10  9  1  0
 11 10  2  0
 11 12  1  0
 12 13  2  0
 13  8  1  0
 14 15  2  0
 16 17  1  0
 17 18  2  0
 17 19  1  0
 19 20  1  0
 20 21  1  0
 21 22  1  0
 23 22  1  6
 23 25  1  0
 24 23  1  0
 24 14  1  0
 25 27  2  0
 25 26  1  0
M  END
$$$$
