GFR.pdb
     RDKit          3D

 27 27  0  0  1  0  0  0  0  0999 V2000
    7.1066  -14.0142   20.5675 N   0  0  0  0  0  0  0  0  0  0  0  0
    6.7357  -15.0931   21.4540 C   0  0  0  0  0  0  0  0  0  0  0  0
    7.5865  -15.0857   22.6890 C   0  0  0  0  0  0  0  0  0  0  0  0
    8.7656  -14.6610   22.5905 O   0  0  0  0  0  0  0  0  0  0  0  0
    7.0954  -15.5378   23.9327 N   0  0  0  0  0  0  0  0  0  0  0  0
    7.9572  -15.6872   25.0990 C   0  0  1  0  0  0  0  0  0  0  0  0
    7.2756  -15.2316   26.3409 C   0  0  0  0  0  0  0  0  0  0  0  0
    7.1485  -13.7596   26.4213 C   0  0  0  0  0  0  0  0  0  0  0  0
    8.2950  -12.9792   26.3819 C   0  0  0  0  0  0  0  0  0  0  0  0
    8.2229  -11.6044   26.4415 C   0  0  0  0  0  0  0  0  0  0  0  0
    7.0188  -10.9683   26.5413 C   0  0  0  0  0  0  0  0  0  0  0  0
    5.8889  -11.7653   26.5790 C   0  0  0  0  0  0  0  0  0  0  0  0
    5.9388  -13.1318   26.5210 C   0  0  0  0  0  0  0  0  0  0  0  0
    8.5257  -17.0597   25.1618 C   0  0  0  0  0  0  0  0  0  0  0  0
    7.7815  -18.0629   25.0224 O   0  0  0  0  0  0  0  0  0  0  0  0
   16.9359  -18.9875   26.7436 N   0  0  0  0  0  0  0  0  0  0  0  0
   15.8562  -19.5429   27.5015 C   0  0  0  0  0  0  0  0  0  0  0  0
   16.1050  -19.9682   28.6835 N   0  0  0  0  0  0  0  0  0  0  0  0
   14.5480  -19.6363   26.9963 N   0  0  0  0  0  0  0  0  0  0  0  0
   14.2864  -19.6502   25.5267 C   0  0  0  0  0  0  0  0  0  0  0  0
   12.8278  -19.7365   25.3463 C   0  0  0  0  0  0  0  0  0  0  0  0
   11.9561  -18.5665   25.2802 C   0  0  0  0  0  0  0  0  0  0  0  0
   10.5263  -18.5906   25.5532 C   0  0  2  0  0  0  0  0  0  0  0  0
    9.9071  -17.2691   25.3782 N   0  0  0  0  0  0  0  0  0  0  0  0
   10.0217  -19.2595   26.7457 C   0  0  0  0  0  0  0  0  0  0  0  0
    9.7134  -18.3590   27.8387 O   0  0  0  0  0  0  0  0  0  0  0  0
    9.8226  -20.4485   26.9588 O   0  0  0  0  0  0  0  0  0  0  0  0
  2  1  1  0
  2  3  1  0
  3  4  2  0
  5  3  1  0
  5  6  1  0
  6 14  1  0
  6  7  1  1
  8  7  1  0
  9  8  2  0
 10  9  1  0
 11 10  2  0
 11 12  1  0
 12 13  2  0
 13  8  1  0
 14 15  2  0
 16 17  1  0
 17 18  2  0
 17 19  1  0
 19 20  1  0
 20 21  1  0
 21 22  1  0
 23 22  1  1
 23 25  1  0
 24 23  1  0
 24 14  1  0
 25 27  2  0
 25 26  1  0
M  END
$$$$
