GFR.pdb
     RDKit          3D

 27 27  0  0  1  0  0  0  0  0999 V2000
    5.0734  -19.0448   23.2203 N   0  0  0  0  0  0  0  0  0  0  0  0
    5.8217  -18.3821   24.2635 C   0  0  0  0  0  0  0  0  0  0  0  0
    6.8279  -17.4355   23.6797 C   0  0  0  0  0  0  0  0  0  0  0  0
    6.9725  -17.4247   22.4309 O   0  0  0  0  0  0  0  0  0  0  0  0
    7.5982  -16.5756   24.4919 N   0  0  0  0  0  0  0  0  0  0  0  0
    8.5710  -15.6451   23.9322 C   0  0  1  0  0  0  0  0  0  0  0  0
    8.9214  -14.5745   24.9045 C   0  0  0  0  0  0  0  0  0  0  0  0
    7.7404  -13.8241   25.3854 C   0  0  0  0  0  0  0  0  0  0  0  0
    7.2511  -14.0777   26.6588 C   0  0  0  0  0  0  0  0  0  0  0  0
    6.1613  -13.3938   27.1520 C   0  0  0  0  0  0  0  0  0  0  0  0
    5.5294  -12.4445   26.4009 C   0  0  0  0  0  0  0  0  0  0  0  0
    6.0336  -12.2076   25.1348 C   0  0  0  0  0  0  0  0  0  0  0  0
    7.1145  -12.8756   24.6263 C   0  0  0  0  0  0  0  0  0  0  0  0
    9.7311  -16.3774   23.3588 C   0  0  0  0  0  0  0  0  0  0  0  0
   10.5405  -15.7898   22.5978 O   0  0  0  0  0  0  0  0  0  0  0  0
   10.1717  -16.2871   29.3895 N   0  0  0  0  0  0  0  0  0  0  0  0
   10.9700  -15.3156   28.7058 C   0  0  0  0  0  0  0  0  0  0  0  0
   10.9229  -14.1022   29.1122 N   0  0  0  0  0  0  0  0  0  0  0  0
   11.7934  -15.6462   27.6157 N   0  0  0  0  0  0  0  0  0  0  0  0
   12.7441  -16.7949   27.6860 C   0  0  0  0  0  0  0  0  0  0  0  0
   12.4214  -17.6944   26.5660 C   0  0  0  0  0  0  0  0  0  0  0  0
   11.4408  -17.3711   25.5331 C   0  0  0  0  0  0  0  0  0  0  0  0
   11.0956  -18.2489   24.4242 C   0  0  2  0  0  0  0  0  0  0  0  0
    9.9512  -17.7426   23.6532 N   0  0  0  0  0  0  0  0  0  0  0  0
   10.9989  -19.6879   24.6347 C   0  0  0  0  0  0  0  0  0  0  0  0
   12.2611  -20.3199   24.9631 O   0  0  0  0  0  0  0  0  0  0  0  0
   10.0272  -20.4302   24.5765 O   0  0  0  0  0  0  0  0  0  0  0  0
  2  1  1  0
  2  3  1  0
  3  4  2  0
  5  3  1  0
  5  6  1  0
  6 14  1  0
  6  7  1  1
  8  7  1  0
  9  8  2  0
 10  9  1  0
 11 10  2  0
 11 12  1  0
 12 13  2  0
 13  8  1  0
 14 15  2  0
 16 17  1  0
 17 18  2  0
 17 19  1  0
 19 20  1  0
 20 21  1  0
 21 22  1  0
 23 22  1  1
 23 25  1  0
 24 23  1  0
 24 14  1  0
 25 27  2  0
 25 26  1  0
M  END
$$$$
