GFR.pdb
     RDKit          3D

 27 27  0  0  1  0  0  0  0  0999 V2000
    7.5453  -18.6651   17.9461 N   0  0  0  0  0  0  0  0  0  0  0  0
    7.5580  -18.6072   19.3897 C   0  0  0  0  0  0  0  0  0  0  0  0
    8.5376  -17.5801   19.8740 C   0  0  0  0  0  0  0  0  0  0  0  0
    9.4626  -17.2341   19.0962 O   0  0  0  0  0  0  0  0  0  0  0  0
    8.4397  -17.0082   21.1608 N   0  0  0  0  0  0  0  0  0  0  0  0
    9.4808  -16.1468   21.7080 C   0  0  1  0  0  0  0  0  0  0  0  0
    8.8997  -14.9825   22.4300 C   0  0  0  0  0  0  0  0  0  0  0  0
    8.0898  -14.1074   21.5539 C   0  0  0  0  0  0  0  0  0  0  0  0
    8.7054  -13.0503   20.8993 C   0  0  0  0  0  0  0  0  0  0  0  0
    7.9924  -12.2176   20.0644 C   0  0  0  0  0  0  0  0  0  0  0  0
    6.6565  -12.4084   19.8564 C   0  0  0  0  0  0  0  0  0  0  0  0
    6.0629  -13.4678   20.5187 C   0  0  0  0  0  0  0  0  0  0  0  0
    6.7529  -14.3063   21.3518 C   0  0  0  0  0  0  0  0  0  0  0  0
   10.4663  -16.9415   22.4879 C   0  0  0  0  0  0  0  0  0  0  0  0
   10.0925  -17.6293   23.4711 O   0  0  0  0  0  0  0  0  0  0  0  0
   14.1666  -23.3685   20.5297 N   0  0  0  0  0  0  0  0  0  0  0  0
   14.6335  -23.3619   21.8827 C   0  0  0  0  0  0  0  0  0  0  0  0
   15.4751  -24.2606   22.2348 N   0  0  0  0  0  0  0  0  0  0  0  0
   14.2030  -22.4132   22.8260 N   0  0  0  0  0  0  0  0  0  0  0  0
   13.2029  -21.3649   22.4663 C   0  0  0  0  0  0  0  0  0  0  0  0
   13.9377  -20.0982   22.3138 C   0  0  0  0  0  0  0  0  0  0  0  0
   13.3108  -18.8538   21.8762 C   0  0  0  0  0  0  0  0  0  0  0  0
   12.8470  -17.8070   22.7753 C   0  0  2  0  0  0  0  0  0  0  0  0
   11.8381  -16.9434   22.1455 N   0  0  0  0  0  0  0  0  0  0  0  0
   13.8078  -17.0266   23.5449 C   0  0  0  0  0  0  0  0  0  0  0  0
   14.3201  -17.7128   24.7142 O   0  0  0  0  0  0  0  0  0  0  0  0
   14.2396  -15.8970   23.3545 O   0  0  0  0  0  0  0  0  0  0  0  0
  2  1  1  0
  2  3  1  0
  3  4  2  0
  5  3  1  0
  5  6  1  0
  6 14  1  0
  6  7  1  1
  8  7  1  0
  9  8  2  0
 10  9  1  0
 11 10  2  0
 11 12  1  0
 12 13  2  0
 13  8  1  0
 14 15  2  0
 16 17  1  0
 17 18  2  0
 17 19  1  0
 19 20  1  0
 20 21  1  0
 21 22  1  0
 23 22  1  6
 23 25  1  0
 24 23  1  0
 24 14  1  0
 25 27  2  0
 25 26  1  0
M  END
$$$$
