QST.pdb
     RDKit          3D

 23 22  0  0  1  0  0  0  0  0999 V2000
   15.3159  -13.7705  -17.6673 N   0  0  0  0  0  0  0  0  0  0  0  0
   16.5430  -14.2127  -18.2304 C   0  0  0  0  0  0  0  0  0  0  0  0
   16.6164  -15.3904  -18.6266 O   0  0  0  0  0  0  0  0  0  0  0  0
   17.6795  -13.3001  -18.3310 C   0  0  0  0  0  0  0  0  0  0  0  0
   17.4808  -11.9146  -17.7978 C   0  0  0  0  0  0  0  0  0  0  0  0
   18.4817  -11.5080  -16.7825 C   0  0  2  0  0  0  0  0  0  0  0  0
   18.3965  -12.2453  -15.5774 N   0  0  0  0  0  0  0  0  0  0  0  0
   18.4092  -10.0581  -16.4497 C   0  0  0  0  0  0  0  0  0  0  0  0
   17.6491   -9.2773  -17.0772 O   0  0  0  0  0  0  0  0  0  0  0  0
   18.0520   -8.7159  -13.0199 O   0  0  0  0  0  0  0  0  0  0  0  0
   17.9004   -7.9177  -14.1517 C   0  0  0  0  0  0  0  0  0  0  0  0
   19.1143   -8.0822  -15.0767 C   0  0  2  0  0  0  0  0  0  0  0  0
   19.1923   -9.4756  -15.4073 N   0  0  0  0  0  0  0  0  0  0  0  0
   20.2800   -7.5854  -14.3352 C   0  0  0  0  0  0  0  0  0  0  0  0
   20.8391   -8.1824  -13.3834 O   0  0  0  0  0  0  0  0  0  0  0  0
   23.6267   -6.5675  -15.8724 C   0  0  0  0  0  0  0  0  0  0  0  0
   23.0046   -5.3735  -15.2125 C   0  0  1  0  0  0  0  0  0  0  0  0
   22.2756   -4.6885  -16.1856 O   0  0  0  0  0  0  0  0  0  0  0  0
   22.0199   -5.7869  -14.1190 C   0  0  2  0  0  0  0  0  0  0  0  0
   20.8217   -6.3280  -14.7234 N   0  0  0  0  0  0  0  0  0  0  0  0
   21.6577   -4.5517  -13.3922 C   0  0  0  0  0  0  0  0  0  0  0  0
   22.5376   -3.9944  -12.4837 O   0  0  0  0  0  0  0  0  0  0  0  0
   20.5535   -4.0198  -13.6071 O   0  0  0  0  0  0  0  0  0  0  0  0
  2  1  1  0
  2  3  2  0
  4  2  1  0
  5  4  1  0
  6  5  1  0
  6  7  1  1
  8  6  1  0
  8 13  1  0
  9  8  2  0
 10 11  1  0
 12 11  1  1
 12 13  1  0
 12 14  1  0
 14 15  2  0
 14 20  1  0
 17 16  1  6
 17 18  1  0
 19 21  1  0
 19 17  1  0
 19 20  1  6
 21 22  1  0
 23 21  2  0
M  END
$$$$
