QST.pdb
     RDKit          3D

 23 22  0  0  1  0  0  0  0  0999 V2000
   22.0466  -14.1732  -21.5585 N   0  0  0  0  0  0  0  0  0  0  0  0
   22.5964  -14.5288  -20.2977 C   0  0  0  0  0  0  0  0  0  0  0  0
   22.3768  -15.6744  -19.8634 O   0  0  0  0  0  0  0  0  0  0  0  0
   23.3919  -13.5642  -19.5416 C   0  0  0  0  0  0  0  0  0  0  0  0
   23.5209  -12.1912  -20.1262 C   0  0  0  0  0  0  0  0  0  0  0  0
   24.2488  -11.2318  -19.2616 C   0  0  2  0  0  0  0  0  0  0  0  0
   25.1278  -11.8529  -18.3424 N   0  0  0  0  0  0  0  0  0  0  0  0
   23.3359  -10.3334  -18.5014 C   0  0  0  0  0  0  0  0  0  0  0  0
   22.4946   -9.6045  -19.0862 O   0  0  0  0  0  0  0  0  0  0  0  0
   21.6718  -11.4075  -15.2965 O   0  0  0  0  0  0  0  0  0  0  0  0
   22.1540  -10.1283  -15.0277 C   0  0  0  0  0  0  0  0  0  0  0  0
   22.4708   -9.3998  -16.3412 C   0  0  2  0  0  0  0  0  0  0  0  0
   23.3632  -10.2486  -17.0762 N   0  0  0  0  0  0  0  0  0  0  0  0
   23.0566   -8.1045  -15.9744 C   0  0  0  0  0  0  0  0  0  0  0  0
   24.2857   -7.8607  -15.9055 O   0  0  0  0  0  0  0  0  0  0  0  0
   22.5275   -4.8612  -17.6723 C   0  0  0  0  0  0  0  0  0  0  0  0
   22.0231   -4.6854  -16.2712 C   0  0  1  0  0  0  0  0  0  0  0  0
   20.6457   -4.9087  -16.2899 O   0  0  0  0  0  0  0  0  0  0  0  0
   22.6343   -5.7160  -15.3221 C   0  0  2  0  0  0  0  0  0  0  0  0
   22.1633   -7.0385  -15.6723 N   0  0  0  0  0  0  0  0  0  0  0  0
   22.1362   -5.3874  -13.9696 C   0  0  0  0  0  0  0  0  0  0  0  0
   21.1504   -6.1588  -13.3837 O   0  0  0  0  0  0  0  0  0  0  0  0
   22.6136   -4.4101  -13.3653 O   0  0  0  0  0  0  0  0  0  0  0  0
  2  1  1  0
  2  3  2  0
  4  2  1  0
  5  4  1  0
  6  5  1  0
  6  7  1  1
  8  6  1  0
  8 13  1  0
  9  8  2  0
 10 11  1  0
 12 11  1  1
 12 13  1  0
 12 14  1  0
 14 15  2  0
 14 20  1  0
 17 16  1  6
 17 18  1  0
 19 21  1  0
 19 17  1  0
 19 20  1  6
 21 22  1  0
 23 21  2  0
M  END
$$$$
