QST.pdb
     RDKit          3D

 23 22  0  0  1  0  0  0  0  0999 V2000
   24.9863  -21.0623  -19.8249 N   0  0  0  0  0  0  0  0  0  0  0  0
   25.2826  -20.0905  -20.8179 C   0  0  0  0  0  0  0  0  0  0  0  0
   25.4040  -20.4732  -21.9961 O   0  0  0  0  0  0  0  0  0  0  0  0
   25.4415  -18.6853  -20.4503 C   0  0  0  0  0  0  0  0  0  0  0  0
   25.2187  -18.3356  -19.0111 C   0  0  0  0  0  0  0  0  0  0  0  0
   23.8095  -18.4638  -18.5687 C   0  0  2  0  0  0  0  0  0  0  0  0
   22.9493  -17.4910  -19.1317 N   0  0  0  0  0  0  0  0  0  0  0  0
   23.6636  -18.4158  -17.0873 C   0  0  0  0  0  0  0  0  0  0  0  0
   23.7954  -17.3407  -16.4488 O   0  0  0  0  0  0  0  0  0  0  0  0
   21.5288  -21.0773  -14.8383 O   0  0  0  0  0  0  0  0  0  0  0  0
   21.9595  -19.8241  -14.4080 C   0  0  0  0  0  0  0  0  0  0  0  0
   23.3988  -19.5732  -14.8790 C   0  0  2  0  0  0  0  0  0  0  0  0
   23.3680  -19.5786  -16.3129 N   0  0  0  0  0  0  0  0  0  0  0  0
   24.2236  -20.6422  -14.3024 C   0  0  0  0  0  0  0  0  0  0  0  0
   24.4761  -21.7392  -14.8572 O   0  0  0  0  0  0  0  0  0  0  0  0
   27.4130  -19.6755  -12.1473 C   0  0  0  0  0  0  0  0  0  0  0  0
   27.0884  -21.0705  -12.5909 C   0  0  1  0  0  0  0  0  0  0  0  0
   27.8399  -21.9461  -11.8058 O   0  0  0  0  0  0  0  0  0  0  0  0
   25.6156  -21.4050  -12.3559 C   0  0  2  0  0  0  0  0  0  0  0  0
   24.7829  -20.4207  -13.0126 N   0  0  0  0  0  0  0  0  0  0  0  0
   25.3909  -21.3069  -10.8981 C   0  0  0  0  0  0  0  0  0  0  0  0
   25.8737  -22.2865  -10.0511 O   0  0  0  0  0  0  0  0  0  0  0  0
   24.7632  -20.3339  -10.4425 O   0  0  0  0  0  0  0  0  0  0  0  0
  2  1  1  0
  2  3  2  0
  4  2  1  0
  5  4  1  0
  6  5  1  0
  6  7  1  6
  8  6  1  0
  8 13  1  0
  9  8  2  0
 10 11  1  0
 12 11  1  1
 12 13  1  0
 12 14  1  0
 14 15  2  0
 14 20  1  0
 17 16  1  1
 17 18  1  0
 19 21  1  0
 19 17  1  0
 19 20  1  6
 21 22  1  0
 23 21  2  0
M  END
$$$$
