QST.pdb
     RDKit          3D

 23 22  0  0  1  0  0  0  0  0999 V2000
   16.9813  -13.0299  -18.5598 N   0  0  0  0  0  0  0  0  0  0  0  0
   17.9610  -13.8315  -19.2048 C   0  0  0  0  0  0  0  0  0  0  0  0
   17.6495  -14.9923  -19.5286 O   0  0  0  0  0  0  0  0  0  0  0  0
   19.2942  -13.2957  -19.4700 C   0  0  0  0  0  0  0  0  0  0  0  0
   19.4966  -11.8340  -19.2134 C   0  0  0  0  0  0  0  0  0  0  0  0
   20.7606  -11.5131  -18.5081 C   0  0  2  0  0  0  0  0  0  0  0  0
   21.5076  -12.6568  -18.1378 N   0  0  0  0  0  0  0  0  0  0  0  0
   20.5468  -10.6803  -17.2920 C   0  0  0  0  0  0  0  0  0  0  0  0
   19.4681  -10.7236  -16.6474 O   0  0  0  0  0  0  0  0  0  0  0  0
   23.3269   -9.9907  -14.7010 O   0  0  0  0  0  0  0  0  0  0  0  0
   21.9754   -9.7651  -14.4492 C   0  0  0  0  0  0  0  0  0  0  0  0
   21.3452   -8.9938  -15.6173 C   0  0  2  0  0  0  0  0  0  0  0  0
   21.5466   -9.7916  -16.7919 N   0  0  0  0  0  0  0  0  0  0  0  0
   22.0135   -7.6875  -15.6695 C   0  0  0  0  0  0  0  0  0  0  0  0
   22.9903   -7.4044  -16.4046 O   0  0  0  0  0  0  0  0  0  0  0  0
   19.8190   -4.3560  -14.6270 C   0  0  0  0  0  0  0  0  0  0  0  0
   21.1350   -4.3142  -15.3444 C   0  0  1  0  0  0  0  0  0  0  0  0
   21.6908   -3.0524  -15.1286 O   0  0  0  0  0  0  0  0  0  0  0  0
   22.1150   -5.3415  -14.7781 C   0  0  2  0  0  0  0  0  0  0  0  0
   21.5172   -6.6584  -14.8209 N   0  0  0  0  0  0  0  0  0  0  0  0
   22.3345   -4.9756  -13.3628 C   0  0  0  0  0  0  0  0  0  0  0  0
   21.7719   -5.7321  -12.3521 O   0  0  0  0  0  0  0  0  0  0  0  0
   23.0304   -3.9804  -13.0916 O   0  0  0  0  0  0  0  0  0  0  0  0
  2  1  1  0
  2  3  2  0
  4  2  1  0
  5  4  1  0
  6  5  1  0
  6  7  1  1
  8  6  1  0
  8 13  1  0
  9  8  2  0
 10 11  1  0
 12 11  1  1
 12 13  1  0
 12 14  1  0
 14 15  2  0
 14 20  1  0
 17 16  1  1
 17 18  1  0
 19 21  1  0
 19 17  1  0
 19 20  1  1
 21 22  1  0
 23 21  2  0
M  END
$$$$
