QST.pdb
     RDKit          3D

 23 22  0  0  1  0  0  0  0  0999 V2000
   16.3855   -9.6022  -20.4013 N   0  0  0  0  0  0  0  0  0  0  0  0
   17.2958  -10.6928  -20.3800 C   0  0  0  0  0  0  0  0  0  0  0  0
   17.3075  -11.4668  -21.3547 O   0  0  0  0  0  0  0  0  0  0  0  0
   18.1843  -10.8895  -19.2369 C   0  0  0  0  0  0  0  0  0  0  0  0
   18.1134   -9.8676  -18.1442 C   0  0  0  0  0  0  0  0  0  0  0  0
   19.0908  -10.0829  -17.0505 C   0  0  2  0  0  0  0  0  0  0  0  0
   18.8541  -11.2622  -16.3045 N   0  0  0  0  0  0  0  0  0  0  0  0
   19.1580   -8.9357  -16.1031 C   0  0  0  0  0  0  0  0  0  0  0  0
   18.1947   -8.6513  -15.3466 O   0  0  0  0  0  0  0  0  0  0  0  0
   21.7386   -6.0131  -13.4187 O   0  0  0  0  0  0  0  0  0  0  0  0
   21.6747   -7.0366  -14.3618 C   0  0  0  0  0  0  0  0  0  0  0  0
   20.3527   -6.9541  -15.1375 C   0  0  2  0  0  0  0  0  0  0  0  0
   20.3108   -8.0994  -15.9999 N   0  0  0  0  0  0  0  0  0  0  0  0
   20.3648   -5.6741  -15.8566 C   0  0  0  0  0  0  0  0  0  0  0  0
   20.9493   -5.4633  -16.9469 O   0  0  0  0  0  0  0  0  0  0  0  0
   18.2181   -1.1878  -16.0279 C   0  0  0  0  0  0  0  0  0  0  0  0
   18.3239   -2.5567  -15.4253 C   0  0  1  0  0  0  0  0  0  0  0  0
   17.2146   -3.2892  -15.8502 O   0  0  0  0  0  0  0  0  0  0  0  0
   19.5679   -3.2931  -15.9219 C   0  0  2  0  0  0  0  0  0  0  0  0
   19.6592   -4.5839  -15.2745 N   0  0  0  0  0  0  0  0  0  0  0  0
   20.7303   -2.4802  -15.5058 C   0  0  0  0  0  0  0  0  0  0  0  0
   21.2196   -2.5727  -14.2165 O   0  0  0  0  0  0  0  0  0  0  0  0
   21.2628   -1.7129  -16.3279 O   0  0  0  0  0  0  0  0  0  0  0  0
  2  1  1  0
  2  3  2  0
  4  2  1  0
  5  4  1  0
  6  5  1  0
  6  7  1  1
  8  6  1  0
  8 13  1  0
  9  8  2  0
 10 11  1  0
 12 11  1  6
 12 13  1  0
 12 14  1  0
 14 15  2  0
 14 20  1  0
 17 16  1  6
 17 18  1  0
 19 21  1  0
 19 17  1  0
 19 20  1  1
 21 22  1  0
 23 21  2  0
M  END
$$$$
