QST.pdb
     RDKit          3D

 23 22  0  0  1  0  0  0  0  0999 V2000
   29.2828  -25.7307  -16.4329 N   0  0  0  0  0  0  0  0  0  0  0  0
   28.7060  -27.0210  -16.5776 C   0  0  0  0  0  0  0  0  0  0  0  0
   29.4598  -27.9742  -16.8474 O   0  0  0  0  0  0  0  0  0  0  0  0
   27.2659  -27.2074  -16.4155 C   0  0  0  0  0  0  0  0  0  0  0  0
   26.4660  -25.9948  -16.0510 C   0  0  0  0  0  0  0  0  0  0  0  0
   25.7722  -25.3608  -17.1976 C   0  0  2  0  0  0  0  0  0  0  0  0
   26.6440  -24.9786  -18.2450 N   0  0  0  0  0  0  0  0  0  0  0  0
   24.9695  -24.1711  -16.7996 C   0  0  0  0  0  0  0  0  0  0  0  0
   24.1101  -24.2349  -15.8840 O   0  0  0  0  0  0  0  0  0  0  0  0
   26.0496  -20.8289  -18.4767 O   0  0  0  0  0  0  0  0  0  0  0  0
   25.1874  -20.5185  -17.4272 C   0  0  0  0  0  0  0  0  0  0  0  0
   24.3571  -21.7524  -17.0472 C   0  0  2  0  0  0  0  0  0  0  0  0
   25.1283  -22.8995  -17.4298 N   0  0  0  0  0  0  0  0  0  0  0  0
   23.0787  -21.6363  -17.7597 C   0  0  0  0  0  0  0  0  0  0  0  0
   22.8392  -22.1111  -18.8964 O   0  0  0  0  0  0  0  0  0  0  0  0
   19.6019  -22.5502  -16.2493 C   0  0  0  0  0  0  0  0  0  0  0  0
   19.6505  -21.0971  -16.6158 C   0  0  1  0  0  0  0  0  0  0  0  0
   20.0340  -20.3893  -15.4758 O   0  0  0  0  0  0  0  0  0  0  0  0
   20.7026  -20.8250  -17.6907 C   0  0  2  0  0  0  0  0  0  0  0  0
   22.0253  -20.9303  -17.1137 N   0  0  0  0  0  0  0  0  0  0  0  0
   20.4978  -19.4298  -18.1341 C   0  0  0  0  0  0  0  0  0  0  0  0
   19.3808  -19.0907  -18.8741 O   0  0  0  0  0  0  0  0  0  0  0  0
   21.3408  -18.5651  -17.8343 O   0  0  0  0  0  0  0  0  0  0  0  0
  2  1  1  0
  2  3  2  0
  4  2  1  0
  5  4  1  0
  6  5  1  0
  6  7  1  6
  8  6  1  0
  8 13  1  0
  9  8  2  0
 10 11  1  0
 12 11  1  6
 12 13  1  0
 12 14  1  0
 14 15  2  0
 14 20  1  0
 17 16  1  1
 17 18  1  0
 19 21  1  0
 19 17  1  0
 19 20  1  1
 21 22  1  0
 23 21  2  0
M  END
$$$$
