QST.pdb
     RDKit          3D

 23 22  0  0  1  0  0  0  0  0999 V2000
   19.3103  -10.9870  -19.5227 N   0  0  0  0  0  0  0  0  0  0  0  0
   18.6310  -12.1782  -19.1511 C   0  0  0  0  0  0  0  0  0  0  0  0
   18.7730  -13.1839  -19.8707 O   0  0  0  0  0  0  0  0  0  0  0  0
   17.7892  -12.2053  -17.9572 C   0  0  0  0  0  0  0  0  0  0  0  0
   17.7014  -10.9370  -17.1653 C   0  0  0  0  0  0  0  0  0  0  0  0
   18.6803  -10.8480  -16.0555 C   0  0  2  0  0  0  0  0  0  0  0  0
   18.5102  -11.8493  -15.0696 N   0  0  0  0  0  0  0  0  0  0  0  0
   18.6678   -9.5204  -15.3806 C   0  0  0  0  0  0  0  0  0  0  0  0
   17.8212   -9.2424  -14.4936 O   0  0  0  0  0  0  0  0  0  0  0  0
   21.2337   -7.7718  -13.3984 O   0  0  0  0  0  0  0  0  0  0  0  0
   19.8868   -7.4609  -13.5719 C   0  0  0  0  0  0  0  0  0  0  0  0
   19.5924   -7.2123  -15.0578 C   0  0  2  0  0  0  0  0  0  0  0  0
   19.6090   -8.4948  -15.6995 N   0  0  0  0  0  0  0  0  0  0  0  0
   20.6298   -6.2949  -15.5456 C   0  0  0  0  0  0  0  0  0  0  0  0
   21.6422   -6.6339  -16.2052 O   0  0  0  0  0  0  0  0  0  0  0  0
   21.0968   -2.7293  -18.2500 C   0  0  0  0  0  0  0  0  0  0  0  0
   20.5830   -3.8919  -17.4547 C   0  0  1  0  0  0  0  0  0  0  0  0
   21.0475   -5.0570  -18.0666 O   0  0  0  0  0  0  0  0  0  0  0  0
   21.1321   -3.8818  -16.0283 C   0  0  2  0  0  0  0  0  0  0  0  0
   20.4791   -4.9112  -15.2489 N   0  0  0  0  0  0  0  0  0  0  0  0
   20.7786   -2.5671  -15.4524 C   0  0  0  0  0  0  0  0  0  0  0  0
   21.7596   -1.6217  -15.2198 O   0  0  0  0  0  0  0  0  0  0  0  0
   19.5897   -2.3211  -15.1796 O   0  0  0  0  0  0  0  0  0  0  0  0
  2  1  1  0
  2  3  2  0
  4  2  1  0
  5  4  1  0
  6  5  1  0
  6  7  1  1
  8  6  1  0
  8 13  1  0
  9  8  2  0
 10 11  1  0
 12 11  1  1
 12 13  1  0
 12 14  1  0
 14 15  2  0
 14 20  1  0
 17 16  1  6
 17 18  1  0
 19 21  1  0
 19 17  1  0
 19 20  1  1
 21 22  1  0
 23 21  2  0
M  END
$$$$
