QST.pdb
     RDKit          3D

 23 22  0  0  1  0  0  0  0  0999 V2000
   16.0685  -12.4126  -17.1966 N   0  0  0  0  0  0  0  0  0  0  0  0
   16.8629  -13.1619  -16.2878 C   0  0  0  0  0  0  0  0  0  0  0  0
   16.2833  -13.8025  -15.3916 O   0  0  0  0  0  0  0  0  0  0  0  0
   18.3187  -13.1672  -16.4118 C   0  0  0  0  0  0  0  0  0  0  0  0
   18.9007  -12.3948  -17.5556 C   0  0  0  0  0  0  0  0  0  0  0  0
   20.0681  -11.5581  -17.1883 C   0  0  2  0  0  0  0  0  0  0  0  0
   20.8677  -12.1206  -16.1648 N   0  0  0  0  0  0  0  0  0  0  0  0
   19.6827  -10.1797  -16.7764 C   0  0  0  0  0  0  0  0  0  0  0  0
   19.1087   -9.3928  -17.5715 O   0  0  0  0  0  0  0  0  0  0  0  0
   19.1972   -9.2743  -12.9270 O   0  0  0  0  0  0  0  0  0  0  0  0
   18.6796   -8.4108  -13.8901 C   0  0  0  0  0  0  0  0  0  0  0  0
   19.6357   -8.3266  -15.0881 C   0  0  2  0  0  0  0  0  0  0  0  0
   19.9409   -9.6763  -15.4652 N   0  0  0  0  0  0  0  0  0  0  0  0
   20.8054   -7.5600  -14.6411 C   0  0  0  0  0  0  0  0  0  0  0  0
   21.8452   -8.0539  -14.1413 O   0  0  0  0  0  0  0  0  0  0  0  0
   23.4255   -6.1430  -16.1388 C   0  0  0  0  0  0  0  0  0  0  0  0
   22.7101   -4.9408  -15.5992 C   0  0  1  0  0  0  0  0  0  0  0  0
   21.8389   -4.4902  -16.5919 O   0  0  0  0  0  0  0  0  0  0  0  0
   21.8596   -5.2953  -14.3797 C   0  0  2  0  0  0  0  0  0  0  0  0
   20.7603   -6.1447  -14.7842 N   0  0  0  0  0  0  0  0  0  0  0  0
   21.3028   -4.0231  -13.8729 C   0  0  0  0  0  0  0  0  0  0  0  0
   22.0978   -3.1532  -13.1508 O   0  0  0  0  0  0  0  0  0  0  0  0
   20.1122   -3.7444  -14.1031 O   0  0  0  0  0  0  0  0  0  0  0  0
  2  1  1  0
  2  3  2  0
  4  2  1  0
  5  4  1  0
  6  5  1  0
  6  7  1  1
  8  6  1  0
  8 13  1  0
  9  8  2  0
 10 11  1  0
 12 11  1  1
 12 13  1  0
 12 14  1  0
 14 15  2  0
 14 20  1  0
 17 16  1  6
 17 18  1  0
 19 21  1  0
 19 17  1  0
 19 20  1  6
 21 22  1  0
 23 21  2  0
M  END
$$$$
