QST.pdb
     RDKit          3D

 23 22  0  0  1  0  0  0  0  0999 V2000
   22.3560  -11.0278  -20.8974 N   0  0  0  0  0  0  0  0  0  0  0  0
   21.8338  -12.2903  -20.5077 C   0  0  0  0  0  0  0  0  0  0  0  0
   22.3633  -13.3147  -20.9764 O   0  0  0  0  0  0  0  0  0  0  0  0
   20.7037  -12.3678  -19.5849 C   0  0  0  0  0  0  0  0  0  0  0  0
   20.1965  -11.0724  -19.0298 C   0  0  0  0  0  0  0  0  0  0  0  0
   19.1140  -11.2261  -18.0285 C   0  0  2  0  0  0  0  0  0  0  0  0
   17.8755  -11.6184  -18.5903 N   0  0  0  0  0  0  0  0  0  0  0  0
   18.8928   -9.9921  -17.2245 C   0  0  0  0  0  0  0  0  0  0  0  0
   18.0770   -9.1077  -17.5895 O   0  0  0  0  0  0  0  0  0  0  0  0
   17.7318   -9.4380  -13.9100 O   0  0  0  0  0  0  0  0  0  0  0  0
   19.0020   -8.8673  -13.8672 C   0  0  0  0  0  0  0  0  0  0  0  0
   19.4642   -8.5078  -15.2862 C   0  0  2  0  0  0  0  0  0  0  0  0
   19.5890   -9.7441  -16.0025 N   0  0  0  0  0  0  0  0  0  0  0  0
   20.7299   -7.7773  -15.1451 C   0  0  0  0  0  0  0  0  0  0  0  0
   21.8667   -8.3057  -15.0867 O   0  0  0  0  0  0  0  0  0  0  0  0
   21.6725   -4.5610  -17.3047 C   0  0  0  0  0  0  0  0  0  0  0  0
   21.6489   -4.2685  -15.8343 C   0  0  1  0  0  0  0  0  0  0  0  0
   20.3796   -3.7783  -15.5242 O   0  0  0  0  0  0  0  0  0  0  0  0
   21.8570   -5.5369  -15.0071 C   0  0  2  0  0  0  0  0  0  0  0  0
   20.6669   -6.3576  -15.0683 N   0  0  0  0  0  0  0  0  0  0  0  0
   22.0489   -5.0985  -13.6085 C   0  0  0  0  0  0  0  0  0  0  0  0
   23.2439   -4.5260  -13.2155 O   0  0  0  0  0  0  0  0  0  0  0  0
   21.1241   -5.2502  -12.7901 O   0  0  0  0  0  0  0  0  0  0  0  0
  2  1  1  0
  2  3  2  0
  4  2  1  0
  5  4  1  0
  6  5  1  0
  6  7  1  6
  8  6  1  0
  8 13  1  0
  9  8  2  0
 10 11  1  0
 12 11  1  1
 12 13  1  0
 12 14  1  0
 14 15  2  0
 14 20  1  0
 17 16  1  6
 17 18  1  0
 19 21  1  0
 19 17  1  0
 19 20  1  1
 21 22  1  0
 23 21  2  0
M  END
$$$$
