QST.pdb
     RDKit          3D

 23 22  0  0  1  0  0  0  0  0999 V2000
   15.5380  -14.0223  -14.3948 N   0  0  0  0  0  0  0  0  0  0  0  0
   16.4794  -14.8351  -15.0815 C   0  0  0  0  0  0  0  0  0  0  0  0
   16.6393  -16.0061  -14.6908 O   0  0  0  0  0  0  0  0  0  0  0  0
   17.2345  -14.2961  -16.2103 C   0  0  0  0  0  0  0  0  0  0  0  0
   16.9849  -12.8625  -16.5652 C   0  0  0  0  0  0  0  0  0  0  0  0
   18.1801  -12.1490  -17.0756 C   0  0  2  0  0  0  0  0  0  0  0  0
   19.3931  -12.5904  -16.4950 N   0  0  0  0  0  0  0  0  0  0  0  0
   18.0883  -10.6727  -16.9016 C   0  0  0  0  0  0  0  0  0  0  0  0
   17.0728  -10.0297  -17.2707 O   0  0  0  0  0  0  0  0  0  0  0  0
   18.2425   -8.3021  -13.9249 O   0  0  0  0  0  0  0  0  0  0  0  0
   17.8659   -8.1907  -15.2616 C   0  0  0  0  0  0  0  0  0  0  0  0
   19.0671   -8.4828  -16.1717 C   0  0  2  0  0  0  0  0  0  0  0  0
   19.1397   -9.9085  -16.3102 N   0  0  0  0  0  0  0  0  0  0  0  0
   20.2431   -7.8926  -15.5203 C   0  0  0  0  0  0  0  0  0  0  0  0
   21.0013   -8.4903  -14.7187 O   0  0  0  0  0  0  0  0  0  0  0  0
   23.1870   -3.8653  -15.5360 C   0  0  0  0  0  0  0  0  0  0  0  0
   21.9106   -4.5244  -15.9658 C   0  0  1  0  0  0  0  0  0  0  0  0
   22.0086   -4.7762  -17.3349 O   0  0  0  0  0  0  0  0  0  0  0  0
   21.7147   -5.8723  -15.2722 C   0  0  2  0  0  0  0  0  0  0  0  0
   20.5509   -6.5356  -15.8192 N   0  0  0  0  0  0  0  0  0  0  0  0
   21.4553   -5.5767  -13.8472 C   0  0  0  0  0  0  0  0  0  0  0  0
   22.4537   -5.7483  -12.9070 O   0  0  0  0  0  0  0  0  0  0  0  0
   20.3298   -5.1723  -13.5039 O   0  0  0  0  0  0  0  0  0  0  0  0
  2  1  1  0
  2  3  2  0
  4  2  1  0
  5  4  1  0
  6  5  1  0
  6  7  1  1
  8  6  1  0
  8 13  1  0
  9  8  2  0
 10 11  1  0
 12 11  1  1
 12 13  1  0
 12 14  1  0
 14 15  2  0
 14 20  1  0
 17 16  1  1
 17 18  1  0
 19 21  1  0
 19 17  1  0
 19 20  1  6
 21 22  1  0
 23 21  2  0
M  END
$$$$
