KMV.pdb
     RDKit          3D

 25 24  0  0  1  0  0  0  0  0999 V2000
    4.8778  -19.2731   22.5357 N   0  0  0  0  0  0  0  0  0  0  0  0
    5.3239  -18.9728   23.9047 C   0  0  1  0  0  0  0  0  0  0  0  0
    6.0879  -20.1477   24.4752 C   0  0  0  0  0  0  0  0  0  0  0  0
    5.3899  -21.4556   24.3297 C   0  0  0  0  0  0  0  0  0  0  0  0
    6.1555  -22.6539   24.7794 C   0  0  0  0  0  0  0  0  0  0  0  0
    5.4502  -23.9303   24.4682 C   0  0  0  0  0  0  0  0  0  0  0  0
    6.2418  -25.0657   24.8026 N   0  0  0  0  0  0  0  0  0  0  0  0
    6.1913  -17.7888   23.8249 C   0  0  0  0  0  0  0  0  0  0  0  0
    6.8720  -17.6419   22.7499 O   0  0  0  0  0  0  0  0  0  0  0  0
    6.0118  -11.6069   26.3060 C   0  0  0  0  0  0  0  0  0  0  0  0
    7.6143  -12.2503   26.8039 S   0  0  0  0  0  0  0  0  0  0  0  0
    8.0635  -13.5861   25.6038 C   0  0  0  0  0  0  0  0  0  0  0  0
    7.0445  -14.6817   25.7308 C   0  0  0  0  0  0  0  0  0  0  0  0
    7.2986  -15.7637   24.7133 C   0  0  2  0  0  0  0  0  0  0  0  0
    6.3061  -16.8278   24.8560 N   0  0  0  0  0  0  0  0  0  0  0  0
    8.6620  -16.3112   24.9004 C   0  0  0  0  0  0  0  0  0  0  0  0
    8.9829  -17.1793   25.7392 O   0  0  0  0  0  0  0  0  0  0  0  0
   11.2225  -16.6018   21.6426 C   0  0  0  0  0  0  0  0  0  0  0  0
   11.9024  -16.1624   22.9173 C   0  0  2  0  0  0  0  0  0  0  0  0
   13.2577  -16.8454   22.9545 C   0  0  0  0  0  0  0  0  0  0  0  0
   11.0430  -16.5650   24.0709 C   0  0  2  0  0  0  0  0  0  0  0  0
    9.7673  -15.8569   24.0866 N   0  0  0  0  0  0  0  0  0  0  0  0
   11.7142  -16.2018   25.3420 C   0  0  0  0  0  0  0  0  0  0  0  0
   12.6924  -17.0351   25.8527 O   0  0  0  0  0  0  0  0  0  0  0  0
   11.4495  -15.1657   26.0024 O   0  0  0  0  0  0  0  0  0  0  0  0
  2  1  1  6
  2  3  1  0
  4  3  1  0
  5  4  1  0
  6  5  1  0
  7  6  1  0
  8  9  2  0
  8  2  1  0
 10 11  1  0
 11 12  1  0
 13 12  1  0
 14 13  1  1
 14 15  1  0
 15  8  1  0
 16 22  1  0
 16 14  1  0
 17 16  2  0
 19 18  1  6
 19 21  1  0
 20 19  1  0
 21 22  1  6
 21 23  1  0
 23 24  1  0
 25 23  2  0
M  END
$$$$
