KMV.pdb
     RDKit          3D

 25 24  0  0  1  0  0  0  0  0999 V2000
    6.8801  -16.2344   20.1747 N   0  0  0  0  0  0  0  0  0  0  0  0
    7.8200  -15.1145   20.0148 C   0  0  1  0  0  0  0  0  0  0  0  0
    7.1140  -13.9223   19.4065 C   0  0  0  0  0  0  0  0  0  0  0  0
    7.8700  -13.2651   18.3041 C   0  0  0  0  0  0  0  0  0  0  0  0
    7.2738  -13.3906   16.9428 C   0  0  0  0  0  0  0  0  0  0  0  0
    8.0860  -12.7014   15.8994 C   0  0  0  0  0  0  0  0  0  0  0  0
    8.6195  -13.6218   14.9527 N   0  0  0  0  0  0  0  0  0  0  0  0
    8.3247  -14.7813   21.3545 C   0  0  0  0  0  0  0  0  0  0  0  0
    9.4346  -14.1446   21.4125 O   0  0  0  0  0  0  0  0  0  0  0  0
    7.5636  -11.8728   28.3354 C   0  0  0  0  0  0  0  0  0  0  0  0
    6.7246  -12.4986   26.8744 S   0  0  0  0  0  0  0  0  0  0  0  0
    7.9300  -13.5745   25.9712 C   0  0  0  0  0  0  0  0  0  0  0  0
    7.2961  -13.9893   24.6747 C   0  0  0  0  0  0  0  0  0  0  0  0
    8.2757  -14.7591   23.8270 C   0  0  2  0  0  0  0  0  0  0  0  0
    7.6572  -15.1234   22.5533 N   0  0  0  0  0  0  0  0  0  0  0  0
    8.7077  -15.9775   24.5497 C   0  0  0  0  0  0  0  0  0  0  0  0
    7.9738  -16.9480   24.8323 O   0  0  0  0  0  0  0  0  0  0  0  0
   12.0227  -17.8270   23.5890 C   0  0  0  0  0  0  0  0  0  0  0  0
   11.9816  -17.6735   25.0907 C   0  0  2  0  0  0  0  0  0  0  0  0
   12.5135  -18.9663   25.6828 C   0  0  0  0  0  0  0  0  0  0  0  0
   10.5680  -17.4136   25.4978 C   0  0  2  0  0  0  0  0  0  0  0  0
   10.0728  -16.1348   24.9991 N   0  0  0  0  0  0  0  0  0  0  0  0
   10.4843  -17.3227   26.9752 C   0  0  0  0  0  0  0  0  0  0  0  0
   10.4454  -18.4848   27.7235 O   0  0  0  0  0  0  0  0  0  0  0  0
   10.4452  -16.2379   27.6089 O   0  0  0  0  0  0  0  0  0  0  0  0
  2  1  1  1
  2  3  1  0
  4  3  1  0
  5  4  1  0
  6  5  1  0
  7  6  1  0
  8  9  2  0
  8  2  1  0
 10 11  1  0
 11 12  1  0
 13 12  1  0
 14 13  1  1
 14 15  1  0
 15  8  1  0
 16 22  1  0
 16 14  1  0
 17 16  2  0
 19 18  1  6
 19 21  1  0
 20 19  1  0
 21 22  1  6
 21 23  1  0
 23 24  1  0
 25 23  2  0
M  END
$$$$
