KMV.pdb
     RDKit          3D

 25 24  0  0  1  0  0  0  0  0999 V2000
    7.0524  -18.1911   22.8219 N   0  0  0  0  0  0  0  0  0  0  0  0
    8.0846  -17.6338   21.9347 C   0  0  1  0  0  0  0  0  0  0  0  0
    7.5260  -17.4359   20.5424 C   0  0  0  0  0  0  0  0  0  0  0  0
    8.5482  -17.5060   19.4612 C   0  0  0  0  0  0  0  0  0  0  0  0
    8.8330  -18.8678   18.9239 C   0  0  0  0  0  0  0  0  0  0  0  0
    9.8295  -18.8456   17.8148 C   0  0  0  0  0  0  0  0  0  0  0  0
   10.1160  -20.1560   17.3366 N   0  0  0  0  0  0  0  0  0  0  0  0
    8.4955  -16.3445   22.5088 C   0  0  0  0  0  0  0  0  0  0  0  0
    9.4096  -15.6990   21.8856 O   0  0  0  0  0  0  0  0  0  0  0  0
    5.7038  -12.6122   27.4397 C   0  0  0  0  0  0  0  0  0  0  0  0
    6.2675  -11.5669   26.0908 S   0  0  0  0  0  0  0  0  0  0  0  0
    7.7204  -12.4120   25.3155 C   0  0  0  0  0  0  0  0  0  0  0  0
    7.2654  -13.7578   24.8290 C   0  0  0  0  0  0  0  0  0  0  0  0
    8.3877  -14.4750   24.1242 C   0  0  2  0  0  0  0  0  0  0  0  0
    7.9414  -15.7976   23.6892 N   0  0  0  0  0  0  0  0  0  0  0  0
    9.5460  -14.6040   25.0380 C   0  0  0  0  0  0  0  0  0  0  0  0
   10.4313  -13.7395   25.2086 O   0  0  0  0  0  0  0  0  0  0  0  0
    9.4472  -15.1613   28.6524 C   0  0  0  0  0  0  0  0  0  0  0  0
   10.7246  -14.8955   27.8923 C   0  0  2  0  0  0  0  0  0  0  0  0
   10.6349  -13.4776   27.3573 C   0  0  0  0  0  0  0  0  0  0  0  0
   10.8349  -15.9007   26.7929 C   0  0  2  0  0  0  0  0  0  0  0  0
    9.7410  -15.7959   25.8329 N   0  0  0  0  0  0  0  0  0  0  0  0
   10.7379  -17.2682   27.3573 C   0  0  0  0  0  0  0  0  0  0  0  0
   11.7068  -17.7053   28.2418 O   0  0  0  0  0  0  0  0  0  0  0  0
    9.8154  -18.0758   27.0811 O   0  0  0  0  0  0  0  0  0  0  0  0
  2  1  1  1
  2  3  1  0
  4  3  1  0
  5  4  1  0
  6  5  1  0
  7  6  1  0
  8  9  2  0
  8  2  1  0
 10 11  1  0
 11 12  1  0
 13 12  1  0
 14 13  1  1
 14 15  1  0
 15  8  1  0
 16 22  1  0
 16 14  1  0
 17 16  2  0
 19 18  1  6
 19 21  1  0
 20 19  1  0
 21 22  1  6
 21 23  1  0
 23 24  1  0
 25 23  2  0
M  END
$$$$
