KMV.pdb
     RDKit          3D

 25 24  0  0  1  0  0  0  0  0999 V2000
    8.9464  -15.5828   18.8550 N   0  0  0  0  0  0  0  0  0  0  0  0
    7.9155  -15.9654   19.8317 C   0  0  1  0  0  0  0  0  0  0  0  0
    7.6777  -17.4589   19.7828 C   0  0  0  0  0  0  0  0  0  0  0  0
    8.5723  -18.1868   18.8402 C   0  0  0  0  0  0  0  0  0  0  0  0
    8.9016  -19.5930   19.2122 C   0  0  0  0  0  0  0  0  0  0  0  0
    9.7889  -20.2539   18.2125 C   0  0  0  0  0  0  0  0  0  0  0  0
   10.1098  -21.5883   18.5923 N   0  0  0  0  0  0  0  0  0  0  0  0
    8.4106  -15.5694   21.1579 C   0  0  0  0  0  0  0  0  0  0  0  0
    9.6814  -15.5350   21.3142 O   0  0  0  0  0  0  0  0  0  0  0  0
    7.2117  -12.0622   28.0709 C   0  0  0  0  0  0  0  0  0  0  0  0
    6.4399  -12.7188   26.5866 S   0  0  0  0  0  0  0  0  0  0  0  0
    7.7687  -13.5508   25.6024 C   0  0  0  0  0  0  0  0  0  0  0  0
    7.1594  -14.0268   24.3152 C   0  0  0  0  0  0  0  0  0  0  0  0
    8.1807  -14.7582   23.4828 C   0  0  2  0  0  0  0  0  0  0  0  0
    7.5684  -15.2331   22.2429 N   0  0  0  0  0  0  0  0  0  0  0  0
    8.7227  -15.9012   24.2529 C   0  0  0  0  0  0  0  0  0  0  0  0
    8.0910  -16.9375   24.5485 O   0  0  0  0  0  0  0  0  0  0  0  0
   12.2674  -17.3570   23.4161 C   0  0  0  0  0  0  0  0  0  0  0  0
   12.1561  -17.1984   24.9137 C   0  0  2  0  0  0  0  0  0  0  0  0
   12.8147  -18.4155   25.5381 C   0  0  0  0  0  0  0  0  0  0  0  0
   10.7085  -17.1032   25.2696 C   0  0  2  0  0  0  0  0  0  0  0  0
   10.0844  -15.8958   24.7387 N   0  0  0  0  0  0  0  0  0  0  0  0
   10.5633  -17.0104   26.7422 C   0  0  0  0  0  0  0  0  0  0  0  0
   10.5709  -18.1688   27.4972 O   0  0  0  0  0  0  0  0  0  0  0  0
   10.4304  -15.9272   27.3657 O   0  0  0  0  0  0  0  0  0  0  0  0
  2  1  1  6
  2  3  1  0
  4  3  1  0
  5  4  1  0
  6  5  1  0
  7  6  1  0
  8  9  2  0
  8  2  1  0
 10 11  1  0
 11 12  1  0
 13 12  1  0
 14 13  1  1
 14 15  1  0
 15  8  1  0
 16 22  1  0
 16 14  1  0
 17 16  2  0
 19 18  1  6
 19 21  1  0
 20 19  1  0
 21 22  1  6
 21 23  1  0
 23 24  1  0
 25 23  2  0
M  END
$$$$
