KMV.pdb
     RDKit          3D

 25 24  0  0  1  0  0  0  0  0999 V2000
    8.4173  -16.3391   20.6369 N   0  0  0  0  0  0  0  0  0  0  0  0
    8.5766  -14.8779   20.6884 C   0  0  1  0  0  0  0  0  0  0  0  0
    7.4662  -14.2033   19.9128 C   0  0  0  0  0  0  0  0  0  0  0  0
    7.9435  -13.2821   18.8440 C   0  0  0  0  0  0  0  0  0  0  0  0
    8.0838  -13.8809   17.4853 C   0  0  0  0  0  0  0  0  0  0  0  0
    8.6908  -12.9347   16.5056 C   0  0  0  0  0  0  0  0  0  0  0  0
    8.6479  -13.4496   15.1787 N   0  0  0  0  0  0  0  0  0  0  0  0
    8.5210  -14.4883   22.1046 C   0  0  0  0  0  0  0  0  0  0  0  0
    7.9573  -13.3705   22.3753 O   0  0  0  0  0  0  0  0  0  0  0  0
    6.8660  -11.5512   26.3800 C   0  0  0  0  0  0  0  0  0  0  0  0
    5.9562  -13.0795   26.1222 S   0  0  0  0  0  0  0  0  0  0  0  0
    6.5317  -13.7931   24.5141 C   0  0  0  0  0  0  0  0  0  0  0  0
    7.2808  -15.0596   24.8135 C   0  0  0  0  0  0  0  0  0  0  0  0
    8.7514  -14.8852   24.5348 C   0  0  2  0  0  0  0  0  0  0  0  0
    9.0490  -15.2721   23.1566 N   0  0  0  0  0  0  0  0  0  0  0  0
    9.5373  -15.7146   25.4771 C   0  0  0  0  0  0  0  0  0  0  0  0
    9.9848  -16.8554   25.2349 O   0  0  0  0  0  0  0  0  0  0  0  0
    9.9221  -14.9157   29.6972 C   0  0  0  0  0  0  0  0  0  0  0  0
   11.1651  -15.1690   28.8781 C   0  0  2  0  0  0  0  0  0  0  0  0
   11.7347  -13.8117   28.5063 C   0  0  0  0  0  0  0  0  0  0  0  0
   10.7795  -15.9615   27.6720 C   0  0  2  0  0  0  0  0  0  0  0  0
    9.8553  -15.2385   26.8047 N   0  0  0  0  0  0  0  0  0  0  0  0
   10.0552  -17.1853   28.0915 C   0  0  0  0  0  0  0  0  0  0  0  0
   10.7666  -18.2412   28.6308 O   0  0  0  0  0  0  0  0  0  0  0  0
    8.8113  -17.3326   27.9881 O   0  0  0  0  0  0  0  0  0  0  0  0
  2  1  1  1
  2  3  1  0
  4  3  1  0
  5  4  1  0
  6  5  1  0
  7  6  1  0
  8  9  2  0
  8  2  1  0
 10 11  1  0
 11 12  1  0
 13 12  1  0
 14 13  1  1
 14 15  1  0
 15  8  1  0
 16 22  1  0
 16 14  1  0
 17 16  2  0
 19 18  1  1
 19 21  1  0
 20 19  1  0
 21 22  1  6
 21 23  1  0
 23 24  1  0
 25 23  2  0
M  END
$$$$
