KMV.pdb
     RDKit          3D

 25 24  0  0  1  0  0  0  0  0999 V2000
    8.6903  -16.3014   19.3026 N   0  0  0  0  0  0  0  0  0  0  0  0
    8.0178  -16.9644   20.4301 C   0  0  1  0  0  0  0  0  0  0  0  0
    8.3606  -18.4381   20.4499 C   0  0  0  0  0  0  0  0  0  0  0  0
    7.6122  -19.2502   19.4502 C   0  0  0  0  0  0  0  0  0  0  0  0
    6.2053  -19.5890   19.8109 C   0  0  0  0  0  0  0  0  0  0  0  0
    5.4982  -20.3207   18.7208 C   0  0  0  0  0  0  0  0  0  0  0  0
    4.1301  -20.5517   19.0415 N   0  0  0  0  0  0  0  0  0  0  0  0
    8.4929  -16.3123   21.6587 C   0  0  0  0  0  0  0  0  0  0  0  0
    9.7612  -16.2455   21.8247 O   0  0  0  0  0  0  0  0  0  0  0  0
    7.3496  -11.3524   27.3562 C   0  0  0  0  0  0  0  0  0  0  0  0
    6.5024  -12.7835   26.6747 S   0  0  0  0  0  0  0  0  0  0  0  0
    7.7870  -13.8475   25.8721 C   0  0  0  0  0  0  0  0  0  0  0  0
    7.2324  -14.3319   24.5634 C   0  0  0  0  0  0  0  0  0  0  0  0
    8.2263  -15.2213   23.8621 C   0  0  2  0  0  0  0  0  0  0  0  0
    7.6346  -15.7686   22.6423 N   0  0  0  0  0  0  0  0  0  0  0  0
    8.6345  -16.3203   24.7670 C   0  0  0  0  0  0  0  0  0  0  0  0
    7.9046  -17.2677   25.1277 O   0  0  0  0  0  0  0  0  0  0  0  0
   12.7552  -16.9310   25.6252 C   0  0  0  0  0  0  0  0  0  0  0  0
   11.7452  -18.0511   25.5506 C   0  0  2  0  0  0  0  0  0  0  0  0
   11.6578  -18.4724   24.0947 C   0  0  0  0  0  0  0  0  0  0  0  0
   10.4384  -17.5403   26.0630 C   0  0  2  0  0  0  0  0  0  0  0  0
    9.9686  -16.3747   25.3215 N   0  0  0  0  0  0  0  0  0  0  0  0
   10.5982  -17.0815   27.4638 C   0  0  0  0  0  0  0  0  0  0  0  0
   10.4979  -15.7324   27.7495 O   0  0  0  0  0  0  0  0  0  0  0  0
   10.8238  -17.8515   28.4312 O   0  0  0  0  0  0  0  0  0  0  0  0
  2  1  1  6
  2  3  1  0
  4  3  1  0
  5  4  1  0
  6  5  1  0
  7  6  1  0
  8  9  2  0
  8  2  1  0
 10 11  1  0
 11 12  1  0
 13 12  1  0
 14 13  1  1
 14 15  1  0
 15  8  1  0
 16 22  1  0
 16 14  1  0
 17 16  2  0
 19 18  1  6
 19 21  1  0
 20 19  1  0
 21 22  1  6
 21 23  1  0
 23 24  1  0
 25 23  2  0
M  END
$$$$
