KMV.pdb
     RDKit          3D

 25 24  0  0  1  0  0  0  0  0999 V2000
    8.7392  -16.0885   19.1153 N   0  0  0  0  0  0  0  0  0  0  0  0
    7.7320  -16.3524   20.1541 C   0  0  1  0  0  0  0  0  0  0  0  0
    7.5360  -17.8429   20.3256 C   0  0  0  0  0  0  0  0  0  0  0  0
    6.7764  -18.4880   19.2184 C   0  0  0  0  0  0  0  0  0  0  0  0
    5.4271  -19.0130   19.5761 C   0  0  0  0  0  0  0  0  0  0  0  0
    4.7099  -19.5880   18.4020 C   0  0  0  0  0  0  0  0  0  0  0  0
    5.2937  -20.8150   17.9761 N   0  0  0  0  0  0  0  0  0  0  0  0
    8.2325  -15.7556   21.4007 C   0  0  0  0  0  0  0  0  0  0  0  0
    9.5024  -15.7434   21.5669 O   0  0  0  0  0  0  0  0  0  0  0  0
    7.1253  -11.6891   28.0267 C   0  0  0  0  0  0  0  0  0  0  0  0
    6.3477  -12.3445   26.5448 S   0  0  0  0  0  0  0  0  0  0  0  0
    7.5943  -13.4262   25.7068 C   0  0  0  0  0  0  0  0  0  0  0  0
    7.0143  -13.8661   24.3934 C   0  0  0  0  0  0  0  0  0  0  0  0
    8.0120  -14.6906   23.6218 C   0  0  2  0  0  0  0  0  0  0  0  0
    7.3962  -15.2077   22.4007 N   0  0  0  0  0  0  0  0  0  0  0  0
    8.4885  -15.8110   24.4651 C   0  0  0  0  0  0  0  0  0  0  0  0
    7.7799  -16.7484   24.8886 O   0  0  0  0  0  0  0  0  0  0  0  0
   11.9664  -17.5568   23.5912 C   0  0  0  0  0  0  0  0  0  0  0  0
   11.8648  -17.3172   25.0787 C   0  0  2  0  0  0  0  0  0  0  0  0
   12.4640  -18.5317   25.7649 C   0  0  0  0  0  0  0  0  0  0  0  0
   10.4241  -17.1335   25.4277 C   0  0  2  0  0  0  0  0  0  0  0  0
    9.8719  -15.9008   24.8757 N   0  0  0  0  0  0  0  0  0  0  0  0
   10.2801  -17.0093   26.8980 C   0  0  0  0  0  0  0  0  0  0  0  0
   10.3834  -15.7616   27.4850 O   0  0  0  0  0  0  0  0  0  0  0  0
   10.0661  -17.9816   27.6652 O   0  0  0  0  0  0  0  0  0  0  0  0
  2  1  1  6
  2  3  1  0
  4  3  1  0
  5  4  1  0
  6  5  1  0
  7  6  1  0
  8  9  2  0
  8  2  1  0
 10 11  1  0
 11 12  1  0
 13 12  1  0
 14 13  1  1
 14 15  1  0
 15  8  1  0
 16 22  1  0
 16 14  1  0
 17 16  2  0
 19 18  1  6
 19 21  1  0
 20 19  1  0
 21 22  1  6
 21 23  1  0
 23 24  1  0
 25 23  2  0
M  END
$$$$
