KMV.pdb
     RDKit          3D

 25 24  0  0  1  0  0  0  0  0999 V2000
    8.3851  -17.6765   20.9269 N   0  0  0  0  0  0  0  0  0  0  0  0
    9.7330  -17.1425   21.1742 C   0  0  1  0  0  0  0  0  0  0  0  0
   10.2240  -16.3806   19.9626 C   0  0  0  0  0  0  0  0  0  0  0  0
   10.5790  -17.2455   18.8029 C   0  0  0  0  0  0  0  0  0  0  0  0
   12.0265  -17.2919   18.4465 C   0  0  0  0  0  0  0  0  0  0  0  0
   12.2947  -18.1624   17.2659 C   0  0  0  0  0  0  0  0  0  0  0  0
   12.1910  -17.4399   16.0431 N   0  0  0  0  0  0  0  0  0  0  0  0
    9.6352  -16.2475   22.3361 C   0  0  0  0  0  0  0  0  0  0  0  0
   10.7045  -15.6355   22.6864 O   0  0  0  0  0  0  0  0  0  0  0  0
    5.8003  -11.2397   25.0671 C   0  0  0  0  0  0  0  0  0  0  0  0
    5.4804  -12.8653   25.7634 S   0  0  0  0  0  0  0  0  0  0  0  0
    7.0860  -13.7864   25.7603 C   0  0  0  0  0  0  0  0  0  0  0  0
    7.0703  -14.7362   24.5973 C   0  0  0  0  0  0  0  0  0  0  0  0
    8.4740  -15.1194   24.2057 C   0  0  2  0  0  0  0  0  0  0  0  0
    8.4434  -16.0363   23.0673 N   0  0  0  0  0  0  0  0  0  0  0  0
    9.1535  -15.7589   25.3559 C   0  0  0  0  0  0  0  0  0  0  0  0
    9.5393  -16.9462   25.3979 O   0  0  0  0  0  0  0  0  0  0  0  0
   10.9636  -13.3292   28.3014 C   0  0  0  0  0  0  0  0  0  0  0  0
   10.4039  -14.6451   28.7869 C   0  0  2  0  0  0  0  0  0  0  0  0
   11.3691  -15.1790   29.8300 C   0  0  0  0  0  0  0  0  0  0  0  0
   10.2830  -15.5648   27.6161 C   0  0  2  0  0  0  0  0  0  0  0  0
    9.4297  -15.0180   26.5663 N   0  0  0  0  0  0  0  0  0  0  0  0
    9.6311  -16.8271   28.0401 C   0  0  0  0  0  0  0  0  0  0  0  0
   10.4026  -17.8372   28.5847 O   0  0  0  0  0  0  0  0  0  0  0  0
    8.3981  -17.0475   27.9362 O   0  0  0  0  0  0  0  0  0  0  0  0
  2  1  1  6
  2  3  1  0
  4  3  1  0
  5  4  1  0
  6  5  1  0
  7  6  1  0
  8  9  2  0
  8  2  1  0
 10 11  1  0
 11 12  1  0
 13 12  1  0
 14 13  1  1
 14 15  1  0
 15  8  1  0
 16 22  1  0
 16 14  1  0
 17 16  2  0
 19 18  1  6
 19 21  1  0
 20 19  1  0
 21 22  1  6
 21 23  1  0
 23 24  1  0
 25 23  2  0
M  END
$$$$
