KMV.pdb
     RDKit          3D

 25 24  0  0  1  0  0  0  0  0999 V2000
    9.8237  -16.1570   20.3503 N   0  0  0  0  0  0  0  0  0  0  0  0
    8.7662  -16.5515   21.2933 C   0  0  1  0  0  0  0  0  0  0  0  0
    8.7153  -18.0584   21.4212 C   0  0  0  0  0  0  0  0  0  0  0  0
    8.7645  -18.7814   20.1198 C   0  0  0  0  0  0  0  0  0  0  0  0
    8.6263  -20.2644   20.1950 C   0  0  0  0  0  0  0  0  0  0  0  0
    8.7041  -20.9126   18.8543 C   0  0  0  0  0  0  0  0  0  0  0  0
   10.0333  -21.3145   18.5388 N   0  0  0  0  0  0  0  0  0  0  0  0
    9.0940  -15.9391   22.5888 C   0  0  0  0  0  0  0  0  0  0  0  0
   10.3357  -15.8577   22.8923 O   0  0  0  0  0  0  0  0  0  0  0  0
    6.0662  -11.3040   25.7601 C   0  0  0  0  0  0  0  0  0  0  0  0
    6.6536  -12.2045   27.2002 S   0  0  0  0  0  0  0  0  0  0  0  0
    7.9778  -13.3600   26.6191 C   0  0  0  0  0  0  0  0  0  0  0  0
    7.4978  -14.0128   25.3548 C   0  0  0  0  0  0  0  0  0  0  0  0
    8.5759  -14.8850   24.7652 C   0  0  2  0  0  0  0  0  0  0  0  0
    8.1245  -15.4478   23.4935 N   0  0  0  0  0  0  0  0  0  0  0  0
    8.9087  -15.9729   25.7134 C   0  0  0  0  0  0  0  0  0  0  0  0
    8.1387  -16.8962   26.0525 O   0  0  0  0  0  0  0  0  0  0  0  0
   12.9398  -16.5281   27.0992 C   0  0  0  0  0  0  0  0  0  0  0  0
   11.9769  -17.6657   26.8562 C   0  0  2  0  0  0  0  0  0  0  0  0
   12.1261  -18.0689   25.4002 C   0  0  0  0  0  0  0  0  0  0  0  0
   10.5960  -17.1861   27.1636 C   0  0  2  0  0  0  0  0  0  0  0  0
   10.2089  -16.0443   26.3416 N   0  0  0  0  0  0  0  0  0  0  0  0
   10.5368  -16.7047   28.5647 C   0  0  0  0  0  0  0  0  0  0  0  0
   10.6796  -17.6119   29.5984 O   0  0  0  0  0  0  0  0  0  0  0  0
   10.3617  -15.5020   28.8849 O   0  0  0  0  0  0  0  0  0  0  0  0
  2  1  1  6
  2  3  1  0
  4  3  1  0
  5  4  1  0
  6  5  1  0
  7  6  1  0
  8  9  2  0
  8  2  1  0
 10 11  1  0
 11 12  1  0
 13 12  1  0
 14 13  1  1
 14 15  1  0
 15  8  1  0
 16 22  1  0
 16 14  1  0
 17 16  2  0
 19 18  1  6
 19 21  1  0
 20 19  1  0
 21 22  1  6
 21 23  1  0
 23 24  1  0
 25 23  2  0
M  END
$$$$
