KNI.pdb
     RDKit          3D

 26 25  0  0  1  0  0  0  0  0999 V2000
    8.5147  -15.9799   16.0838 N   0  0  0  0  0  0  0  0  0  0  0  0
    8.3873  -17.3439   15.6695 C   0  0  1  0  0  0  0  0  0  0  0  0
    9.2154  -17.6977   14.4714 C   0  0  0  0  0  0  0  0  0  0  0  0
   10.2425  -16.7015   14.0873 C   0  0  0  0  0  0  0  0  0  0  0  0
   10.1264  -16.1028   12.7266 C   0  0  0  0  0  0  0  0  0  0  0  0
   10.9081  -16.9728   11.7207 C   0  0  0  0  0  0  0  0  0  0  0  0
   10.6594  -16.3995   10.4123 N   0  0  0  0  0  0  0  0  0  0  0  0
    8.6915  -18.2963   16.7751 C   0  0  0  0  0  0  0  0  0  0  0  0
    8.7858  -19.5449   16.5202 O   0  0  0  0  0  0  0  0  0  0  0  0
   12.5121  -19.3901   17.9739 N   0  0  0  0  0  0  0  0  0  0  0  0
   12.1278  -18.2414   17.2552 C   0  0  0  0  0  0  0  0  0  0  0  0
   12.5942  -18.1018   16.0937 O   0  0  0  0  0  0  0  0  0  0  0  0
   11.2243  -17.1788   17.7376 C   0  0  0  0  0  0  0  0  0  0  0  0
   10.1605  -17.6312   18.6775 C   0  0  2  0  0  0  0  0  0  0  0  0
    8.8696  -17.7901   18.0856 N   0  0  0  0  0  0  0  0  0  0  0  0
   10.1311  -16.7157   19.8619 C   0  0  0  0  0  0  0  0  0  0  0  0
   11.1866  -16.3898   20.4581 O   0  0  0  0  0  0  0  0  0  0  0  0
    7.3426  -12.3970   19.4820 C   0  0  0  0  0  0  0  0  0  0  0  0
    8.3996  -13.3858   19.9327 C   0  0  0  0  0  0  0  0  0  0  0  0
    7.9508  -14.1686   21.1340 C   0  0  2  0  0  0  0  0  0  0  0  0
    7.6000  -13.2904   22.3002 C   0  0  0  0  0  0  0  0  0  0  0  0
    8.8747  -15.2891   21.5243 C   0  0  2  0  0  0  0  0  0  0  0  0
    8.9102  -16.1843   20.3521 N   0  0  0  0  0  0  0  0  0  0  0  0
    8.4796  -16.0214   22.7284 C   0  0  0  0  0  0  0  0  0  0  0  0
    7.7781  -17.2352   22.6741 O   0  0  0  0  0  0  0  0  0  0  0  0
    8.7469  -15.6034   23.8792 O   0  0  0  0  0  0  0  0  0  0  0  0
  2  3  1  0
  2  1  1  1
  4  5  1  0
  4  3  1  0
  6  7  1  0
  6  5  1  0
  8  2  1  0
  9  8  2  0
 10 11  1  0
 11 13  1  0
 12 11  2  0
 14 13  1  6
 14 15  1  0
 15  8  1  0
 16 14  1  0
 16 17  2  0
 18 19  1  0
 19 20  1  0
 20 22  1  0
 20 21  1  1
 22 23  1  6
 23 16  1  0
 24 22  1  0
 25 24  1  0
 26 24  2  0
M  END
$$$$
