KNI.pdb
     RDKit          3D

 26 25  0  0  1  0  0  0  0  0999 V2000
    6.8005  -16.7756   19.0478 N   0  0  0  0  0  0  0  0  0  0  0  0
    7.4688  -16.0443   20.0807 C   0  0  1  0  0  0  0  0  0  0  0  0
    7.3722  -14.5558   19.9350 C   0  0  0  0  0  0  0  0  0  0  0  0
    8.0979  -13.9780   18.7798 C   0  0  0  0  0  0  0  0  0  0  0  0
    7.3891  -13.9802   17.4679 C   0  0  0  0  0  0  0  0  0  0  0  0
    8.2979  -13.3394   16.3987 C   0  0  0  0  0  0  0  0  0  0  0  0
    7.5524  -13.3841   15.1559 N   0  0  0  0  0  0  0  0  0  0  0  0
    6.9977  -16.4361   21.4397 C   0  0  0  0  0  0  0  0  0  0  0  0
    5.7583  -16.6837   21.6275 O   0  0  0  0  0  0  0  0  0  0  0  0
    7.8703  -19.5179   26.3937 N   0  0  0  0  0  0  0  0  0  0  0  0
    7.2230  -18.5476   25.6043 C   0  0  0  0  0  0  0  0  0  0  0  0
    6.3160  -17.8665   26.1517 O   0  0  0  0  0  0  0  0  0  0  0  0
    7.5089  -18.2513   24.1870 C   0  0  0  0  0  0  0  0  0  0  0  0
    7.5605  -16.8029   23.8414 C   0  0  2  0  0  0  0  0  0  0  0  0
    7.9409  -16.5248   22.4923 N   0  0  0  0  0  0  0  0  0  0  0  0
    8.4302  -16.0933   24.8323 C   0  0  0  0  0  0  0  0  0  0  0  0
    9.6696  -16.2894   24.8673 O   0  0  0  0  0  0  0  0  0  0  0  0
    6.2680  -11.4599   26.5868 C   0  0  0  0  0  0  0  0  0  0  0  0
    7.2261  -12.5042   26.0486 C   0  0  0  0  0  0  0  0  0  0  0  0
    7.9010  -13.2615   27.1570 C   0  0  2  0  0  0  0  0  0  0  0  0
    8.6399  -12.3633   28.1066 C   0  0  0  0  0  0  0  0  0  0  0  0
    8.7457  -14.4163   26.6939 C   0  0  2  0  0  0  0  0  0  0  0  0
    7.8849  -15.1746   25.7661 N   0  0  0  0  0  0  0  0  0  0  0  0
    9.2475  -15.2797   27.7639 C   0  0  0  0  0  0  0  0  0  0  0  0
   10.4764  -15.0510   28.4008 O   0  0  0  0  0  0  0  0  0  0  0  0
    8.6049  -16.2752   28.1721 O   0  0  0  0  0  0  0  0  0  0  0  0
  2  3  1  0
  2  1  1  6
  4  5  1  0
  4  3  1  0
  6  7  1  0
  6  5  1  0
  8  2  1  0
  9  8  2  0
 10 11  1  0
 11 13  1  0
 12 11  2  0
 14 13  1  1
 14 15  1  0
 15  8  1  0
 16 14  1  0
 16 17  2  0
 18 19  1  0
 19 20  1  0
 20 22  1  0
 20 21  1  6
 22 23  1  6
 23 16  1  0
 24 22  1  0
 25 24  1  0
 26 24  2  0
M  END
$$$$
