KNI.pdb
     RDKit          3D

 26 25  0  0  1  0  0  0  0  0999 V2000
    7.9462  -16.1116   18.3294 N   0  0  0  0  0  0  0  0  0  0  0  0
    8.1750  -15.0438   19.2545 C   0  0  1  0  0  0  0  0  0  0  0  0
    7.7491  -13.6980   18.7507 C   0  0  0  0  0  0  0  0  0  0  0  0
    7.5744  -13.5904   17.2835 C   0  0  0  0  0  0  0  0  0  0  0  0
    8.6868  -14.1017   16.4322 C   0  0  0  0  0  0  0  0  0  0  0  0
    8.3566  -13.8320   14.9496 C   0  0  0  0  0  0  0  0  0  0  0  0
    9.3265  -14.5835   14.1769 N   0  0  0  0  0  0  0  0  0  0  0  0
    7.5330  -15.2992   20.5754 C   0  0  0  0  0  0  0  0  0  0  0  0
    6.4438  -14.6998   20.8706 O   0  0  0  0  0  0  0  0  0  0  0  0
    5.7103  -18.2336   24.9482 N   0  0  0  0  0  0  0  0  0  0  0  0
    7.0394  -18.2031   24.4834 C   0  0  0  0  0  0  0  0  0  0  0  0
    7.9509  -18.4429   25.3188 O   0  0  0  0  0  0  0  0  0  0  0  0
    7.4682  -17.9148   23.1009 C   0  0  0  0  0  0  0  0  0  0  0  0
    7.6256  -16.4693   22.7758 C   0  0  2  0  0  0  0  0  0  0  0  0
    8.1496  -16.2046   21.4729 N   0  0  0  0  0  0  0  0  0  0  0  0
    8.4287  -15.8092   23.8534 C   0  0  0  0  0  0  0  0  0  0  0  0
    9.6835  -15.8406   23.8409 O   0  0  0  0  0  0  0  0  0  0  0  0
    5.8456  -12.1571   27.4972 C   0  0  0  0  0  0  0  0  0  0  0  0
    6.5114  -13.4346   27.0252 C   0  0  0  0  0  0  0  0  0  0  0  0
    7.7532  -13.1512   26.2284 C   0  0  2  0  0  0  0  0  0  0  0  0
    7.4806  -12.3259   25.0040 C   0  0  0  0  0  0  0  0  0  0  0  0
    8.5832  -14.3670   25.9206 C   0  0  2  0  0  0  0  0  0  0  0  0
    7.8004  -15.1253   24.9261 N   0  0  0  0  0  0  0  0  0  0  0  0
    8.9044  -15.2022   27.0788 C   0  0  0  0  0  0  0  0  0  0  0  0
    9.8778  -14.8386   28.0214 O   0  0  0  0  0  0  0  0  0  0  0  0
    8.3255  -16.2927   27.2938 O   0  0  0  0  0  0  0  0  0  0  0  0
  2  3  1  0
  2  1  1  6
  4  5  1  0
  4  3  1  0
  6  7  1  0
  6  5  1  0
  8  2  1  0
  9  8  2  0
 10 11  1  0
 11 13  1  0
 12 11  2  0
 14 13  1  1
 14 15  1  0
 15  8  1  0
 16 14  1  0
 16 17  2  0
 18 19  1  0
 19 20  1  0
 20 22  1  0
 20 21  1  6
 22 23  1  6
 23 16  1  0
 24 22  1  0
 25 24  1  0
 26 24  2  0
M  END
$$$$
