KNI.pdb
     RDKit          3D

 26 25  0  0  1  0  0  0  0  0999 V2000
    6.5244  -15.7127   21.1598 N   0  0  0  0  0  0  0  0  0  0  0  0
    7.1022  -17.0180   21.0551 C   0  0  1  0  0  0  0  0  0  0  0  0
    7.1613  -17.5487   19.6547 C   0  0  0  0  0  0  0  0  0  0  0  0
    6.8612  -16.5676   18.5859 C   0  0  0  0  0  0  0  0  0  0  0  0
    7.9768  -15.6771   18.1546 C   0  0  0  0  0  0  0  0  0  0  0  0
    7.5039  -14.8074   16.9716 C   0  0  0  0  0  0  0  0  0  0  0  0
    8.6021  -13.9117   16.6647 N   0  0  0  0  0  0  0  0  0  0  0  0
    8.4628  -17.0790   21.6610 C   0  0  0  0  0  0  0  0  0  0  0  0
    9.0832  -18.1954   21.7004 O   0  0  0  0  0  0  0  0  0  0  0  0
   11.7708  -16.6531   20.3255 N   0  0  0  0  0  0  0  0  0  0  0  0
   11.9331  -15.3802   20.9061 C   0  0  0  0  0  0  0  0  0  0  0  0
   12.7005  -14.5705   20.3216 O   0  0  0  0  0  0  0  0  0  0  0  0
   11.2846  -14.9021   22.1427 C   0  0  0  0  0  0  0  0  0  0  0  0
   10.3357  -15.8633   22.7717 C   0  0  2  0  0  0  0  0  0  0  0  0
    9.0356  -15.8921   22.1793 N   0  0  0  0  0  0  0  0  0  0  0  0
   10.2804  -15.6040   24.2453 C   0  0  0  0  0  0  0  0  0  0  0  0
   11.3291  -15.5085   24.9285 O   0  0  0  0  0  0  0  0  0  0  0  0
    6.5334  -12.2861   25.6516 C   0  0  0  0  0  0  0  0  0  0  0  0
    7.8195  -13.0841   25.5659 C   0  0  0  0  0  0  0  0  0  0  0  0
    7.8274  -14.2295   26.5382 C   0  0  2  0  0  0  0  0  0  0  0  0
    7.6649  -13.7822   27.9623 C   0  0  0  0  0  0  0  0  0  0  0  0
    8.9819  -15.1782   26.3690 C   0  0  2  0  0  0  0  0  0  0  0  0
    9.0416  -15.4570   24.9214 N   0  0  0  0  0  0  0  0  0  0  0  0
    8.8751  -16.4204   27.1357 C   0  0  0  0  0  0  0  0  0  0  0  0
    8.1892  -17.5452   26.6534 O   0  0  0  0  0  0  0  0  0  0  0  0
    9.3924  -16.5489   28.2699 O   0  0  0  0  0  0  0  0  0  0  0  0
  2  3  1  0
  2  1  1  6
  4  5  1  0
  4  3  1  0
  6  7  1  0
  6  5  1  0
  8  2  1  0
  9  8  2  0
 10 11  1  0
 11 13  1  0
 12 11  2  0
 14 13  1  6
 14 15  1  0
 15  8  1  0
 16 14  1  0
 16 17  2  0
 18 19  1  0
 19 20  1  0
 20 22  1  0
 20 21  1  1
 22 23  1  6
 23 16  1  0
 24 22  1  0
 25 24  1  0
 26 24  2  0
M  END
$$$$
