KNI.pdb
     RDKit          3D

 26 25  0  0  1  0  0  0  0  0999 V2000
    9.4145  -15.9093   18.8821 N   0  0  0  0  0  0  0  0  0  0  0  0
    8.6435  -14.7972   19.3481 C   0  0  1  0  0  0  0  0  0  0  0  0
    7.5130  -14.4155   18.4411 C   0  0  0  0  0  0  0  0  0  0  0  0
    7.7381  -14.6662   16.9984 C   0  0  0  0  0  0  0  0  0  0  0  0
    8.3242  -13.5496   16.2028 C   0  0  0  0  0  0  0  0  0  0  0  0
    8.3344  -13.9402   14.7105 C   0  0  0  0  0  0  0  0  0  0  0  0
    9.0373  -12.8768   14.0196 N   0  0  0  0  0  0  0  0  0  0  0  0
    8.1154  -15.0186   20.7244 C   0  0  0  0  0  0  0  0  0  0  0  0
    7.3412  -14.1470   21.2477 O   0  0  0  0  0  0  0  0  0  0  0  0
   10.2785  -18.6585   24.4485 N   0  0  0  0  0  0  0  0  0  0  0  0
    9.5741  -18.3860   23.2597 C   0  0  0  0  0  0  0  0  0  0  0  0
   10.1789  -18.5762   22.1714 O   0  0  0  0  0  0  0  0  0  0  0  0
    8.1851  -17.8956   23.1679 C   0  0  0  0  0  0  0  0  0  0  0  0
    8.0429  -16.4729   22.7491 C   0  0  2  0  0  0  0  0  0  0  0  0
    8.4867  -16.1952   21.4194 N   0  0  0  0  0  0  0  0  0  0  0  0
    8.7085  -15.5947   23.7627 C   0  0  0  0  0  0  0  0  0  0  0  0
    9.9460  -15.3866   23.7301 O   0  0  0  0  0  0  0  0  0  0  0  0
    5.7276  -11.7346   26.8202 C   0  0  0  0  0  0  0  0  0  0  0  0
    6.3739  -13.0432   26.4100 C   0  0  0  0  0  0  0  0  0  0  0  0
    7.7100  -12.8220   25.7593 C   0  0  2  0  0  0  0  0  0  0  0  0
    7.5965  -12.1854   24.4042 C   0  0  0  0  0  0  0  0  0  0  0  0
    8.6006  -14.0336   25.7449 C   0  0  2  0  0  0  0  0  0  0  0  0
    7.9649  -14.9669   24.7953 N   0  0  0  0  0  0  0  0  0  0  0  0
    8.7966  -14.6689   27.0488 C   0  0  0  0  0  0  0  0  0  0  0  0
    9.5822  -14.0901   28.0568 O   0  0  0  0  0  0  0  0  0  0  0  0
    8.2716  -15.7694   27.3384 O   0  0  0  0  0  0  0  0  0  0  0  0
  2  3  1  0
  2  1  1  6
  4  5  1  0
  4  3  1  0
  6  7  1  0
  6  5  1  0
  8  2  1  0
  9  8  2  0
 10 11  1  0
 11 13  1  0
 12 11  2  0
 14 13  1  1
 14 15  1  0
 15  8  1  0
 16 14  1  0
 16 17  2  0
 18 19  1  0
 19 20  1  0
 20 22  1  0
 20 21  1  6
 22 23  1  6
 23 16  1  0
 24 22  1  0
 25 24  1  0
 26 24  2  0
M  END
$$$$
