QKR.pdb
     RDKit          3D

 30 29  0  0  1  0  0  0  0  0999 V2000
    9.9596  -13.8746   16.7604 N   0  0  0  0  0  0  0  0  0  0  0  0
    8.7661  -13.2185   16.2773 C   0  0  0  0  0  0  0  0  0  0  0  0
    8.6824  -13.0730   15.0422 O   0  0  0  0  0  0  0  0  0  0  0  0
    7.7244  -12.7585   17.1978 C   0  0  0  0  0  0  0  0  0  0  0  0
    7.8163  -13.3259   18.5605 C   0  0  0  0  0  0  0  0  0  0  0  0
    8.0144  -14.8087   18.6284 C   0  0  2  0  0  0  0  0  0  0  0  0
    7.3923  -15.3981   17.4587 N   0  0  0  0  0  0  0  0  0  0  0  0
    7.4310  -15.3404   19.8874 C   0  0  0  0  0  0  0  0  0  0  0  0
    7.8299  -14.8014   20.9599 O   0  0  0  0  0  0  0  0  0  0  0  0
    6.4923  -16.3716   19.9768 N   0  0  0  0  0  0  0  0  0  0  0  0
    5.8866  -16.7993   21.2253 C   0  0  1  0  0  0  0  0  0  0  0  0
    4.8033  -17.8204   20.9843 C   0  0  0  0  0  0  0  0  0  0  0  0
    4.1915  -18.3553   22.2366 C   0  0  0  0  0  0  0  0  0  0  0  0
    3.1991  -19.4310   21.8467 C   0  0  0  0  0  0  0  0  0  0  0  0
    2.3963  -19.9146   23.0193 C   0  0  0  0  0  0  0  0  0  0  0  0
    1.4344  -20.9170   22.6226 N   0  0  0  0  0  0  0  0  0  0  0  0
    6.8775  -17.2437   22.2125 C   0  0  0  0  0  0  0  0  0  0  0  0
    7.6228  -18.2260   21.9787 O   0  0  0  0  0  0  0  0  0  0  0  0
   10.0329  -13.5316   29.9626 N   0  0  0  0  0  0  0  0  0  0  0  0
   10.4204  -14.8824   29.8207 C   0  0  0  0  0  0  0  0  0  0  0  0
   11.1150  -15.5150   30.7337 N   0  0  0  0  0  0  0  0  0  0  0  0
   10.0776  -15.6408   28.6689 N   0  0  0  0  0  0  0  0  0  0  0  0
    9.1796  -15.1766   27.6534 C   0  0  0  0  0  0  0  0  0  0  0  0
    9.0184  -16.2754   26.6043 C   0  0  0  0  0  0  0  0  0  0  0  0
    8.1010  -15.8643   25.4951 C   0  0  0  0  0  0  0  0  0  0  0  0
    7.9467  -16.9530   24.4913 C   0  0  2  0  0  0  0  0  0  0  0  0
    6.9903  -16.5511   23.4447 N   0  0  0  0  0  0  0  0  0  0  0  0
    7.3632  -18.1494   25.1127 C   0  0  0  0  0  0  0  0  0  0  0  0
    6.1347  -18.2696   25.2490 O   0  0  0  0  0  0  0  0  0  0  0  0
    8.1573  -19.1814   25.5667 O   0  0  0  0  0  0  0  0  0  0  0  0
  1  2  1  0
  2  3  2  0
  4  5  1  0
  4  2  1  0
  6  7  1  6
  6  5  1  0
  8  6  1  0
  8 10  1  0
  9  8  2  0
 11 10  1  0
 11 12  1  6
 13 12  1  0
 13 14  1  0
 14 15  1  0
 15 16  1  0
 17 11  1  0
 18 17  2  0
 19 20  1  0
 20 21  2  0
 22 23  1  0
 22 20  1  0
 23 24  1  0
 25 24  1  0
 26 25  1  1
 26 27  1  0
 27 17  1  0
 28 26  1  0
 29 28  2  0
 30 28  1  0
M  END
$$$$
