QKR.pdb
     RDKit          3D

 30 29  0  0  1  0  0  0  0  0999 V2000
    6.6249  -12.7487   17.4371 N   0  0  0  0  0  0  0  0  0  0  0  0
    7.7383  -12.9725   16.5435 C   0  0  0  0  0  0  0  0  0  0  0  0
    7.4733  -12.9667   15.3255 O   0  0  0  0  0  0  0  0  0  0  0  0
    9.0931  -13.1904   17.0546 C   0  0  0  0  0  0  0  0  0  0  0  0
    9.1847  -13.2843   18.5277 C   0  0  0  0  0  0  0  0  0  0  0  0
    9.9035  -14.4887   19.0525 C   0  0  2  0  0  0  0  0  0  0  0  0
   10.1571  -15.3805   17.9376 N   0  0  0  0  0  0  0  0  0  0  0  0
    9.0880  -15.1456   20.1068 C   0  0  0  0  0  0  0  0  0  0  0  0
    8.7288  -14.4132   21.0734 O   0  0  0  0  0  0  0  0  0  0  0  0
    8.6940  -16.4863   20.1130 N   0  0  0  0  0  0  0  0  0  0  0  0
    7.9097  -17.0872   21.1770 C   0  0  1  0  0  0  0  0  0  0  0  0
    7.3415  -18.4177   20.7511 C   0  0  0  0  0  0  0  0  0  0  0  0
    6.6411  -19.1510   21.8466 C   0  0  0  0  0  0  0  0  0  0  0  0
    6.0734  -20.4279   21.2625 C   0  0  0  0  0  0  0  0  0  0  0  0
    5.3274  -21.2368   22.2837 C   0  0  0  0  0  0  0  0  0  0  0  0
    4.8138  -22.4612   21.7142 N   0  0  0  0  0  0  0  0  0  0  0  0
    8.6411  -17.1616   22.4472 C   0  0  0  0  0  0  0  0  0  0  0  0
    9.7721  -17.7023   22.5076 O   0  0  0  0  0  0  0  0  0  0  0  0
    9.6063  -16.1496   29.8463 N   0  0  0  0  0  0  0  0  0  0  0  0
    9.9620  -14.7830   29.8715 C   0  0  0  0  0  0  0  0  0  0  0  0
   10.6855  -14.2616   30.8312 N   0  0  0  0  0  0  0  0  0  0  0  0
    9.5517  -13.8852   28.8492 N   0  0  0  0  0  0  0  0  0  0  0  0
    8.5272  -14.1874   27.8942 C   0  0  0  0  0  0  0  0  0  0  0  0
    8.9793  -15.3800   27.0533 C   0  0  0  0  0  0  0  0  0  0  0  0
    8.3284  -15.3973   25.7053 C   0  0  0  0  0  0  0  0  0  0  0  0
    8.7678  -16.5763   24.9093 C   0  0  2  0  0  0  0  0  0  0  0  0
    8.0584  -16.6142   23.6183 N   0  0  0  0  0  0  0  0  0  0  0  0
    8.4018  -17.8250   25.5910 C   0  0  0  0  0  0  0  0  0  0  0  0
    7.2712  -18.3219   25.4606 O   0  0  0  0  0  0  0  0  0  0  0  0
    9.2993  -18.4903   26.3996 O   0  0  0  0  0  0  0  0  0  0  0  0
  1  2  1  0
  2  3  2  0
  4  5  1  0
  4  2  1  0
  6  7  1  6
  6  5  1  0
  8  6  1  0
  8 10  1  0
  9  8  2  0
 11 10  1  0
 11 12  1  6
 13 12  1  0
 13 14  1  0
 14 15  1  0
 15 16  1  0
 17 11  1  0
 18 17  2  0
 19 20  1  0
 20 21  2  0
 22 23  1  0
 22 20  1  0
 23 24  1  0
 25 24  1  0
 26 25  1  1
 26 27  1  0
 27 17  1  0
 28 26  1  0
 29 28  2  0
 30 28  1  0
M  END
$$$$
