QKR.pdb
     RDKit          3D

 30 29  0  0  1  0  0  0  0  0999 V2000
   12.5175  -13.6208   20.1116 N   0  0  0  0  0  0  0  0  0  0  0  0
   11.8338  -14.8653   19.8430 C   0  0  0  0  0  0  0  0  0  0  0  0
   12.5441  -15.8896   19.8319 O   0  0  0  0  0  0  0  0  0  0  0  0
   10.3902  -14.9043   19.6013 C   0  0  0  0  0  0  0  0  0  0  0  0
    9.7231  -13.5855   19.6591 C   0  0  0  0  0  0  0  0  0  0  0  0
    8.2348  -13.6092   19.4955 C   0  0  2  0  0  0  0  0  0  0  0  0
    7.7538  -12.2433   19.5700 N   0  0  0  0  0  0  0  0  0  0  0  0
    7.6235  -14.4648   20.5453 C   0  0  0  0  0  0  0  0  0  0  0  0
    7.7952  -14.0910   21.7415 O   0  0  0  0  0  0  0  0  0  0  0  0
    6.8864  -15.6299   20.3177 N   0  0  0  0  0  0  0  0  0  0  0  0
    6.2594  -16.4022   21.3754 C   0  0  1  0  0  0  0  0  0  0  0  0
    5.1162  -17.2292   20.8427 C   0  0  0  0  0  0  0  0  0  0  0  0
    4.4897  -18.1185   21.8650 C   0  0  0  0  0  0  0  0  0  0  0  0
    3.4527  -18.9726   21.1655 C   0  0  0  0  0  0  0  0  0  0  0  0
    2.7121  -19.8626   22.1209 C   0  0  0  0  0  0  0  0  0  0  0  0
    3.4573  -21.0672   22.4054 N   0  0  0  0  0  0  0  0  0  0  0  0
    7.2244  -17.1955   22.1458 C   0  0  0  0  0  0  0  0  0  0  0  0
    8.2047  -17.7403   21.5826 O   0  0  0  0  0  0  0  0  0  0  0  0
    9.6011  -14.0689   29.2278 N   0  0  0  0  0  0  0  0  0  0  0  0
    8.9941  -13.8827   27.9662 C   0  0  0  0  0  0  0  0  0  0  0  0
    8.8568  -12.7003   27.4189 N   0  0  0  0  0  0  0  0  0  0  0  0
    8.4914  -14.9760   27.2105 N   0  0  0  0  0  0  0  0  0  0  0  0
    8.2466  -16.2750   27.7633 C   0  0  0  0  0  0  0  0  0  0  0  0
    7.6878  -17.1766   26.6639 C   0  0  0  0  0  0  0  0  0  0  0  0
    8.5523  -17.1757   25.4417 C   0  0  0  0  0  0  0  0  0  0  0  0
    8.0018  -18.0758   24.3911 C   0  0  2  0  0  0  0  0  0  0  0  0
    7.0424  -17.3453   23.5441 N   0  0  0  0  0  0  0  0  0  0  0  0
    7.2307  -19.1682   24.9993 C   0  0  0  0  0  0  0  0  0  0  0  0
    7.7694  -19.9926   25.7559 O   0  0  0  0  0  0  0  0  0  0  0  0
    5.8822  -19.3179   24.7528 O   0  0  0  0  0  0  0  0  0  0  0  0
  1  2  1  0
  2  3  2  0
  4  5  1  0
  4  2  1  0
  6  7  1  1
  6  5  1  0
  8  6  1  0
  8 10  1  0
  9  8  2  0
 11 10  1  0
 11 12  1  6
 13 12  1  0
 13 14  1  0
 14 15  1  0
 15 16  1  0
 17 11  1  0
 18 17  2  0
 19 20  1  0
 20 21  2  0
 22 23  1  0
 22 20  1  0
 23 24  1  0
 25 24  1  0
 26 25  1  1
 26 27  1  0
 27 17  1  0
 28 26  1  0
 29 28  2  0
 30 28  1  0
M  END
$$$$
