QKR.pdb
     RDKit          3D

 30 29  0  0  1  0  0  0  0  0999 V2000
    7.6188  -12.4821   15.9390 N   0  0  0  0  0  0  0  0  0  0  0  0
    8.0870  -13.8283   16.1779 C   0  0  0  0  0  0  0  0  0  0  0  0
    8.9839  -14.2399   15.4164 O   0  0  0  0  0  0  0  0  0  0  0  0
    7.5309  -14.6477   17.2564 C   0  0  0  0  0  0  0  0  0  0  0  0
    8.3532  -14.6838   18.4852 C   0  0  0  0  0  0  0  0  0  0  0  0
    8.6592  -16.0505   19.0152 C   0  0  2  0  0  0  0  0  0  0  0  0
    8.2099  -17.0217   18.0367 N   0  0  0  0  0  0  0  0  0  0  0  0
    7.9922  -16.2454   20.3286 C   0  0  0  0  0  0  0  0  0  0  0  0
    8.2545  -15.3888   21.2216 O   0  0  0  0  0  0  0  0  0  0  0  0
    7.1129  -17.2834   20.6483 N   0  0  0  0  0  0  0  0  0  0  0  0
    6.4847  -17.4309   21.9490 C   0  0  1  0  0  0  0  0  0  0  0  0
    5.4100  -18.4885   21.9189 C   0  0  0  0  0  0  0  0  0  0  0  0
    4.2646  -18.1567   21.0209 C   0  0  0  0  0  0  0  0  0  0  0  0
    3.3754  -19.3795   20.9301 C   0  0  0  0  0  0  0  0  0  0  0  0
    2.1267  -19.1160   20.1397 C   0  0  0  0  0  0  0  0  0  0  0  0
    1.2926  -20.2932   20.0632 N   0  0  0  0  0  0  0  0  0  0  0  0
    7.4578  -17.6397   23.0277 C   0  0  0  0  0  0  0  0  0  0  0  0
    8.4809  -18.3430   22.8440 O   0  0  0  0  0  0  0  0  0  0  0  0
    9.4189  -15.9414   30.1486 N   0  0  0  0  0  0  0  0  0  0  0  0
   10.5511  -15.1504   29.8532 C   0  0  0  0  0  0  0  0  0  0  0  0
   11.5799  -15.0653   30.6598 N   0  0  0  0  0  0  0  0  0  0  0  0
   10.6411  -14.3931   28.6542 N   0  0  0  0  0  0  0  0  0  0  0  0
    9.5922  -14.3239   27.6805 C   0  0  0  0  0  0  0  0  0  0  0  0
    9.3872  -15.7151   27.0834 C   0  0  0  0  0  0  0  0  0  0  0  0
    8.4066  -15.7033   25.9524 C   0  0  0  0  0  0  0  0  0  0  0  0
    8.2421  -17.0624   25.3669 C   0  0  2  0  0  0  0  0  0  0  0  0
    7.2348  -17.0368   24.2916 N   0  0  0  0  0  0  0  0  0  0  0  0
    7.7157  -17.9967   26.3709 C   0  0  0  0  0  0  0  0  0  0  0  0
    6.5044  -18.2643   26.4284 O   0  0  0  0  0  0  0  0  0  0  0  0
    8.5464  -18.6101   27.2848 O   0  0  0  0  0  0  0  0  0  0  0  0
  1  2  1  0
  2  3  2  0
  4  5  1  0
  4  2  1  0
  6  7  1  6
  6  5  1  0
  8  6  1  0
  8 10  1  0
  9  8  2  0
 11 10  1  0
 11 12  1  6
 13 12  1  0
 13 14  1  0
 14 15  1  0
 15 16  1  0
 17 11  1  0
 18 17  2  0
 19 20  1  0
 20 21  2  0
 22 23  1  0
 22 20  1  0
 23 24  1  0
 25 24  1  0
 26 25  1  1
 26 27  1  0
 27 17  1  0
 28 26  1  0
 29 28  2  0
 30 28  1  0
M  END
$$$$
