QKR.pdb
     RDKit          3D

 30 29  0  0  1  0  0  0  0  0999 V2000
    6.9787  -12.6362   16.1935 N   0  0  0  0  0  0  0  0  0  0  0  0
    7.6038  -13.7294   15.4847 C   0  0  0  0  0  0  0  0  0  0  0  0
    7.0858  -14.0440   14.3955 O   0  0  0  0  0  0  0  0  0  0  0  0
    8.7776  -14.4165   16.0271 C   0  0  0  0  0  0  0  0  0  0  0  0
    8.6463  -14.8311   17.4407 C   0  0  0  0  0  0  0  0  0  0  0  0
    9.8018  -15.6063   17.9942 C   0  0  2  0  0  0  0  0  0  0  0  0
   10.1257  -16.6612   17.0535 N   0  0  0  0  0  0  0  0  0  0  0  0
    9.4518  -16.1514   19.3315 C   0  0  0  0  0  0  0  0  0  0  0  0
    9.1335  -15.3040   20.2150 O   0  0  0  0  0  0  0  0  0  0  0  0
    9.4471  -17.5039   19.6827 N   0  0  0  0  0  0  0  0  0  0  0  0
    9.2442  -17.9799   21.0394 C   0  0  1  0  0  0  0  0  0  0  0  0
    9.0206  -19.4711   21.0664 C   0  0  0  0  0  0  0  0  0  0  0  0
    8.8985  -20.0361   22.4428 C   0  0  0  0  0  0  0  0  0  0  0  0
    8.7124  -21.5339   22.3159 C   0  0  0  0  0  0  0  0  0  0  0  0
    8.5912  -22.2062   23.6525 C   0  0  0  0  0  0  0  0  0  0  0  0
    8.5541  -23.6443   23.5183 N   0  0  0  0  0  0  0  0  0  0  0  0
   10.3056  -17.5474   21.9561 C   0  0  0  0  0  0  0  0  0  0  0  0
   11.5138  -17.7493   21.6827 O   0  0  0  0  0  0  0  0  0  0  0  0
   11.0706  -16.3838   30.4734 N   0  0  0  0  0  0  0  0  0  0  0  0
   10.3056  -15.4001   29.8086 C   0  0  0  0  0  0  0  0  0  0  0  0
    9.9935  -14.2560   30.3654 N   0  0  0  0  0  0  0  0  0  0  0  0
    9.8245  -15.5955   28.4859 N   0  0  0  0  0  0  0  0  0  0  0  0
   10.5348  -15.1754   27.3145 C   0  0  0  0  0  0  0  0  0  0  0  0
    9.7377  -15.5982   26.0818 C   0  0  0  0  0  0  0  0  0  0  0  0
   10.3924  -15.1574   24.8097 C   0  0  0  0  0  0  0  0  0  0  0  0
   10.9660  -16.3148   24.0692 C   0  0  2  0  0  0  0  0  0  0  0  0
    9.9565  -16.8935   23.1649 N   0  0  0  0  0  0  0  0  0  0  0  0
   11.3224  -17.3963   24.9973 C   0  0  0  0  0  0  0  0  0  0  0  0
   10.5016  -18.2753   25.3069 O   0  0  0  0  0  0  0  0  0  0  0  0
   12.5799  -17.4748   25.5579 O   0  0  0  0  0  0  0  0  0  0  0  0
  1  2  1  0
  2  3  2  0
  4  5  1  0
  4  2  1  0
  6  7  1  6
  6  5  1  0
  8  6  1  0
  8 10  1  0
  9  8  2  0
 11 10  1  0
 11 12  1  6
 13 12  1  0
 13 14  1  0
 14 15  1  0
 15 16  1  0
 17 11  1  0
 18 17  2  0
 19 20  1  0
 20 21  2  0
 22 23  1  0
 22 20  1  0
 23 24  1  0
 25 24  1  0
 26 25  1  1
 26 27  1  0
 27 17  1  0
 28 26  1  0
 29 28  2  0
 30 28  1  0
M  END
$$$$
