QKR.pdb
     RDKit          3D

 30 29  0  0  1  0  0  0  0  0999 V2000
   14.7853  -16.6266   17.4212 N   0  0  0  0  0  0  0  0  0  0  0  0
   13.3792  -16.5379   17.0995 C   0  0  0  0  0  0  0  0  0  0  0  0
   13.0920  -15.8982   16.0690 O   0  0  0  0  0  0  0  0  0  0  0  0
   12.3635  -17.1693   17.9443 C   0  0  0  0  0  0  0  0  0  0  0  0
   12.9077  -17.9914   19.0468 C   0  0  0  0  0  0  0  0  0  0  0  0
   11.8881  -18.6125   19.9506 C   0  0  2  0  0  0  0  0  0  0  0  0
   10.7110  -18.9132   19.1589 N   0  0  0  0  0  0  0  0  0  0  0  0
   11.5748  -17.6883   21.0712 C   0  0  0  0  0  0  0  0  0  0  0  0
   12.5458  -17.3568   21.8109 O   0  0  0  0  0  0  0  0  0  0  0  0
   10.3126  -17.1660   21.3660 N   0  0  0  0  0  0  0  0  0  0  0  0
   10.0277  -16.3766   22.5510 C   0  0  1  0  0  0  0  0  0  0  0  0
    8.8857  -15.4219   22.3088 C   0  0  0  0  0  0  0  0  0  0  0  0
    9.2492  -14.2541   21.4528 C   0  0  0  0  0  0  0  0  0  0  0  0
    8.2711  -14.2021   20.2975 C   0  0  0  0  0  0  0  0  0  0  0  0
    8.5797  -13.0860   19.3422 C   0  0  0  0  0  0  0  0  0  0  0  0
    7.6261  -13.0409   18.2578 N   0  0  0  0  0  0  0  0  0  0  0  0
    9.8342  -17.2025   23.7487 C   0  0  0  0  0  0  0  0  0  0  0  0
    8.9872  -18.1286   23.7617 O   0  0  0  0  0  0  0  0  0  0  0  0
   11.4387  -21.5573   30.2847 N   0  0  0  0  0  0  0  0  0  0  0  0
   12.6203  -20.8177   30.5116 C   0  0  0  0  0  0  0  0  0  0  0  0
   13.4635  -21.1146   31.4693 N   0  0  0  0  0  0  0  0  0  0  0  0
   12.9665  -19.6979   29.7082 N   0  0  0  0  0  0  0  0  0  0  0  0
   12.5487  -19.5404   28.3468 C   0  0  0  0  0  0  0  0  0  0  0  0
   11.6424  -18.3141   28.2525 C   0  0  0  0  0  0  0  0  0  0  0  0
   11.7729  -17.6178   26.9337 C   0  0  0  0  0  0  0  0  0  0  0  0
   10.5471  -17.7942   26.1071 C   0  0  2  0  0  0  0  0  0  0  0  0
   10.6165  -16.9470   24.9034 N   0  0  0  0  0  0  0  0  0  0  0  0
    9.3599  -17.3332   26.8393 C   0  0  0  0  0  0  0  0  0  0  0  0
    8.9434  -17.9421   27.8384 O   0  0  0  0  0  0  0  0  0  0  0  0
    8.6656  -16.2091   26.4446 O   0  0  0  0  0  0  0  0  0  0  0  0
  1  2  1  0
  2  3  2  0
  4  5  1  0
  4  2  1  0
  6  7  1  6
  6  5  1  0
  8  6  1  0
  8 10  1  0
  9  8  2  0
 11 10  1  0
 11 12  1  6
 13 12  1  0
 13 14  1  0
 14 15  1  0
 15 16  1  0
 17 11  1  0
 18 17  2  0
 19 20  1  0
 20 21  2  0
 22 23  1  0
 22 20  1  0
 23 24  1  0
 25 24  1  0
 26 25  1  1
 26 27  1  0
 27 17  1  0
 28 26  1  0
 29 28  2  0
 30 28  1  0
M  END
$$$$
