QKR.pdb
     RDKit          3D

 30 29  0  0  1  0  0  0  0  0999 V2000
    7.8846  -12.2448   15.9707 N   0  0  0  0  0  0  0  0  0  0  0  0
    8.4900  -13.3160   15.2128 C   0  0  0  0  0  0  0  0  0  0  0  0
    8.6745  -13.0933   14.0003 O   0  0  0  0  0  0  0  0  0  0  0  0
    8.8604  -14.5826   15.8470 C   0  0  0  0  0  0  0  0  0  0  0  0
    8.4292  -14.7119   17.2559 C   0  0  0  0  0  0  0  0  0  0  0  0
    8.7740  -16.0100   17.9181 C   0  0  2  0  0  0  0  0  0  0  0  0
    8.5137  -17.0785   16.9730 N   0  0  0  0  0  0  0  0  0  0  0  0
    7.9774  -16.1710   19.1621 C   0  0  0  0  0  0  0  0  0  0  0  0
    8.1351  -15.2804   20.0463 O   0  0  0  0  0  0  0  0  0  0  0  0
    7.0833  -17.2119   19.4264 N   0  0  0  0  0  0  0  0  0  0  0  0
    6.2878  -17.2981   20.6380 C   0  0  1  0  0  0  0  0  0  0  0  0
    5.0770  -18.1738   20.4343 C   0  0  0  0  0  0  0  0  0  0  0  0
    4.2666  -18.3770   21.6715 C   0  0  0  0  0  0  0  0  0  0  0  0
    3.1604  -19.3593   21.3467 C   0  0  0  0  0  0  0  0  0  0  0  0
    2.2613  -19.6108   22.5223 C   0  0  0  0  0  0  0  0  0  0  0  0
    1.2524  -20.5977   22.2132 N   0  0  0  0  0  0  0  0  0  0  0  0
    7.0808  -17.6881   21.8098 C   0  0  0  0  0  0  0  0  0  0  0  0
    7.7851  -18.7268   21.7934 O   0  0  0  0  0  0  0  0  0  0  0  0
    9.4027  -13.3459   29.4403 N   0  0  0  0  0  0  0  0  0  0  0  0
   10.1739  -14.5117   29.2378 C   0  0  0  0  0  0  0  0  0  0  0  0
   11.0752  -14.9174   30.0977 N   0  0  0  0  0  0  0  0  0  0  0  0
   10.0171  -15.3192   28.0792 N   0  0  0  0  0  0  0  0  0  0  0  0
    9.1004  -15.0160   27.0206 C   0  0  0  0  0  0  0  0  0  0  0  0
    9.2186  -16.0967   25.9472 C   0  0  0  0  0  0  0  0  0  0  0  0
    8.2797  -15.8609   24.8053 C   0  0  0  0  0  0  0  0  0  0  0  0
    7.9045  -17.1403   24.1426 C   0  0  2  0  0  0  0  0  0  0  0  0
    7.0477  -16.8776   22.9728 N   0  0  0  0  0  0  0  0  0  0  0  0
    7.0908  -17.9687   25.0425 C   0  0  0  0  0  0  0  0  0  0  0  0
    5.8613  -17.8137   25.1241 O   0  0  0  0  0  0  0  0  0  0  0  0
    7.6617  -18.9474   25.8285 O   0  0  0  0  0  0  0  0  0  0  0  0
  1  2  1  0
  2  3  2  0
  4  5  1  0
  4  2  1  0
  6  7  1  6
  6  5  1  0
  8  6  1  0
  8 10  1  0
  9  8  2  0
 11 10  1  0
 11 12  1  6
 13 12  1  0
 13 14  1  0
 14 15  1  0
 15 16  1  0
 17 11  1  0
 18 17  2  0
 19 20  1  0
 20 21  2  0
 22 23  1  0
 22 20  1  0
 23 24  1  0
 25 24  1  0
 26 25  1  1
 26 27  1  0
 27 17  1  0
 28 26  1  0
 29 28  2  0
 30 28  1  0
M  END
$$$$
