QKR.pdb
     RDKit          3D

 30 29  0  0  1  0  0  0  0  0999 V2000
    7.5661  -12.9347   18.3737 N   0  0  0  0  0  0  0  0  0  0  0  0
    7.5660  -13.5994   17.0905 C   0  0  0  0  0  0  0  0  0  0  0  0
    7.5697  -12.8573   16.0889 O   0  0  0  0  0  0  0  0  0  0  0  0
    7.5630  -15.0601   16.9895 C   0  0  0  0  0  0  0  0  0  0  0  0
    7.5329  -15.7644   18.2897 C   0  0  0  0  0  0  0  0  0  0  0  0
    8.5997  -16.7964   18.4877 C   0  0  2  0  0  0  0  0  0  0  0  0
    8.5396  -17.7227   17.3737 N   0  0  0  0  0  0  0  0  0  0  0  0
    8.4006  -17.4876   19.7879 C   0  0  0  0  0  0  0  0  0  0  0  0
    8.3142  -16.7452   20.8084 O   0  0  0  0  0  0  0  0  0  0  0  0
    8.3032  -18.8699   19.9677 N   0  0  0  0  0  0  0  0  0  0  0  0
    8.1259  -19.5000   21.2638 C   0  0  1  0  0  0  0  0  0  0  0  0
    7.4061  -20.8190   21.1352 C   0  0  0  0  0  0  0  0  0  0  0  0
    6.1849  -20.7568   20.2789 C   0  0  0  0  0  0  0  0  0  0  0  0
    5.7266  -22.1768   20.0187 C   0  0  0  0  0  0  0  0  0  0  0  0
    4.5582  -22.2328   19.0779 C   0  0  0  0  0  0  0  0  0  0  0  0
    4.1912  -23.5965   18.7730 N   0  0  0  0  0  0  0  0  0  0  0  0
    9.3805  -19.6080   22.0176 C   0  0  0  0  0  0  0  0  0  0  0  0
   10.3421  -20.2811   21.5732 O   0  0  0  0  0  0  0  0  0  0  0  0
   12.8674  -13.4002   19.6461 N   0  0  0  0  0  0  0  0  0  0  0  0
   13.3612  -14.7082   19.8466 C   0  0  0  0  0  0  0  0  0  0  0  0
   14.1359  -15.3089   18.9774 N   0  0  0  0  0  0  0  0  0  0  0  0
   13.0432  -15.4564   21.0121 N   0  0  0  0  0  0  0  0  0  0  0  0
   12.1846  -14.9742   22.0529 C   0  0  0  0  0  0  0  0  0  0  0  0
   11.9603  -16.0994   23.0617 C   0  0  0  0  0  0  0  0  0  0  0  0
   10.8508  -17.0147   22.6465 C   0  0  0  0  0  0  0  0  0  0  0  0
   10.6853  -18.1346   23.6136 C   0  0  2  0  0  0  0  0  0  0  0  0
    9.5030  -18.9415   23.2631 N   0  0  0  0  0  0  0  0  0  0  0  0
   10.4171  -17.6170   24.9621 C   0  0  0  0  0  0  0  0  0  0  0  0
    9.2795  -17.6702   25.4573 O   0  0  0  0  0  0  0  0  0  0  0  0
   11.4176  -17.0541   25.7261 O   0  0  0  0  0  0  0  0  0  0  0  0
  1  2  1  0
  2  3  2  0
  4  5  1  0
  4  2  1  0
  6  7  1  6
  6  5  1  0
  8  6  1  0
  8 10  1  0
  9  8  2  0
 11 10  1  0
 11 12  1  6
 13 12  1  0
 13 14  1  0
 14 15  1  0
 15 16  1  0
 17 11  1  0
 18 17  2  0
 19 20  1  0
 20 21  2  0
 22 23  1  0
 22 20  1  0
 23 24  1  0
 25 24  1  0
 26 25  1  6
 26 27  1  0
 27 17  1  0
 28 26  1  0
 29 28  2  0
 30 28  1  0
M  END
$$$$
