QKR.pdb
     RDKit          3D

 30 29  0  0  1  0  0  0  0  0999 V2000
    8.0184  -21.9038   17.9821 N   0  0  0  0  0  0  0  0  0  0  0  0
    9.3982  -21.5434   18.2158 C   0  0  0  0  0  0  0  0  0  0  0  0
   10.0794  -22.3686   18.8551 O   0  0  0  0  0  0  0  0  0  0  0  0
    9.9491  -20.2795   17.7228 C   0  0  0  0  0  0  0  0  0  0  0  0
    8.9919  -19.4500   16.9592 C   0  0  0  0  0  0  0  0  0  0  0  0
    9.4199  -18.0365   16.7114 C   0  0  2  0  0  0  0  0  0  0  0  0
   10.7354  -18.0667   16.1021 N   0  0  0  0  0  0  0  0  0  0  0  0
    9.4235  -17.2772   17.9887 C   0  0  0  0  0  0  0  0  0  0  0  0
   10.4911  -17.3260   18.6652 O   0  0  0  0  0  0  0  0  0  0  0  0
    8.3576  -16.5266   18.4916 N   0  0  0  0  0  0  0  0  0  0  0  0
    8.4121  -15.7951   19.7447 C   0  0  1  0  0  0  0  0  0  0  0  0
    7.1532  -14.9942   19.9640 C   0  0  0  0  0  0  0  0  0  0  0  0
    7.1806  -14.1568   21.1995 C   0  0  0  0  0  0  0  0  0  0  0  0
    7.7378  -12.7982   20.8282 C   0  0  0  0  0  0  0  0  0  0  0  0
    7.7938  -11.8669   22.0041 C   0  0  0  0  0  0  0  0  0  0  0  0
    8.3013  -10.5684   21.6250 N   0  0  0  0  0  0  0  0  0  0  0  0
    8.7463  -16.6533   20.8875 C   0  0  0  0  0  0  0  0  0  0  0  0
    8.6095  -17.8989   20.8184 O   0  0  0  0  0  0  0  0  0  0  0  0
   16.5740  -16.4560   20.8597 N   0  0  0  0  0  0  0  0  0  0  0  0
   15.5530  -15.5028   21.0685 C   0  0  0  0  0  0  0  0  0  0  0  0
   15.6801  -14.2470   20.7175 N   0  0  0  0  0  0  0  0  0  0  0  0
   14.3178  -15.8525   21.6777 N   0  0  0  0  0  0  0  0  0  0  0  0
   14.0469  -17.1448   22.2339 C   0  0  0  0  0  0  0  0  0  0  0  0
   12.7331  -17.0769   23.0107 C   0  0  0  0  0  0  0  0  0  0  0  0
   11.6061  -16.5681   22.1668 C   0  0  0  0  0  0  0  0  0  0  0  0
   10.3057  -16.6714   22.8846 C   0  0  2  0  0  0  0  0  0  0  0  0
    9.2297  -16.0627   22.0826 N   0  0  0  0  0  0  0  0  0  0  0  0
   10.3431  -15.9003   24.1344 C   0  0  0  0  0  0  0  0  0  0  0  0
   11.0812  -16.2351   25.0754 O   0  0  0  0  0  0  0  0  0  0  0  0
    9.5611  -14.7779   24.3082 O   0  0  0  0  0  0  0  0  0  0  0  0
  1  2  1  0
  2  3  2  0
  4  5  1  0
  4  2  1  0
  6  7  1  1
  6  5  1  0
  8  6  1  0
  8 10  1  0
  9  8  2  0
 11 10  1  0
 11 12  1  1
 13 12  1  0
 13 14  1  0
 14 15  1  0
 15 16  1  0
 17 11  1  0
 18 17  2  0
 19 20  1  0
 20 21  2  0
 22 23  1  0
 22 20  1  0
 23 24  1  0
 25 24  1  0
 26 25  1  6
 26 27  1  0
 27 17  1  0
 28 26  1  0
 29 28  2  0
 30 28  1  0
M  END
$$$$
