QKR.pdb
     RDKit          3D

 30 29  0  0  1  0  0  0  0  0999 V2000
   13.0741  -13.7948   17.7363 N   0  0  0  0  0  0  0  0  0  0  0  0
   12.3603  -13.2829   18.8838 C   0  0  0  0  0  0  0  0  0  0  0  0
   12.8551  -13.5429   19.9979 O   0  0  0  0  0  0  0  0  0  0  0  0
   11.1296  -12.5046   18.7300 C   0  0  0  0  0  0  0  0  0  0  0  0
    9.9334  -13.1216   19.3431 C   0  0  0  0  0  0  0  0  0  0  0  0
    9.4371  -14.3665   18.6749 C   0  0  2  0  0  0  0  0  0  0  0  0
    8.1878  -14.0508   18.0100 N   0  0  0  0  0  0  0  0  0  0  0  0
    9.2663  -15.4471   19.6804 C   0  0  0  0  0  0  0  0  0  0  0  0
    8.3771  -15.2575   20.5597 O   0  0  0  0  0  0  0  0  0  0  0  0
    9.9991  -16.6360   19.7291 N   0  0  0  0  0  0  0  0  0  0  0  0
    9.8601  -17.6216   20.7863 C   0  0  1  0  0  0  0  0  0  0  0  0
   10.1820  -19.0073   20.2859 C   0  0  0  0  0  0  0  0  0  0  0  0
    8.9994  -19.9167   20.2307 C   0  0  0  0  0  0  0  0  0  0  0  0
    9.4464  -21.2236   19.6092 C   0  0  0  0  0  0  0  0  0  0  0  0
    8.3046  -22.1778   19.4110 C   0  0  0  0  0  0  0  0  0  0  0  0
    8.7273  -23.3678   18.7091 N   0  0  0  0  0  0  0  0  0  0  0  0
   10.6114  -17.2649   21.9956 C   0  0  0  0  0  0  0  0  0  0  0  0
   11.7968  -16.8597   21.9204 O   0  0  0  0  0  0  0  0  0  0  0  0
   11.7497  -16.1677   29.2141 N   0  0  0  0  0  0  0  0  0  0  0  0
   10.7277  -15.2376   29.5062 C   0  0  0  0  0  0  0  0  0  0  0  0
   10.8800  -14.2774   30.3844 N   0  0  0  0  0  0  0  0  0  0  0  0
    9.4631  -15.2898   28.8602 N   0  0  0  0  0  0  0  0  0  0  0  0
    9.1035  -16.2937   27.9033 C   0  0  0  0  0  0  0  0  0  0  0  0
   10.0821  -16.2255   26.7321 C   0  0  0  0  0  0  0  0  0  0  0  0
    9.7731  -17.2450   25.6804 C   0  0  0  0  0  0  0  0  0  0  0  0
   10.7033  -17.1258   24.5239 C   0  0  2  0  0  0  0  0  0  0  0  0
    9.9855  -17.3813   23.2626 N   0  0  0  0  0  0  0  0  0  0  0  0
   11.7477  -18.1566   24.5929 C   0  0  0  0  0  0  0  0  0  0  0  0
   11.4983  -19.3440   24.3283 O   0  0  0  0  0  0  0  0  0  0  0  0
   13.0414  -17.8436   24.9534 O   0  0  0  0  0  0  0  0  0  0  0  0
  1  2  1  0
  2  3  2  0
  4  5  1  0
  4  2  1  0
  6  7  1  1
  6  5  1  0
  8  6  1  0
  8 10  1  0
  9  8  2  0
 11 10  1  0
 11 12  1  6
 13 12  1  0
 13 14  1  0
 14 15  1  0
 15 16  1  0
 17 11  1  0
 18 17  2  0
 19 20  1  0
 20 21  2  0
 22 23  1  0
 22 20  1  0
 23 24  1  0
 25 24  1  0
 26 25  1  1
 26 27  1  0
 27 17  1  0
 28 26  1  0
 29 28  2  0
 30 28  1  0
M  END
$$$$
