QKR.pdb
     RDKit          3D

 30 29  0  0  1  0  0  0  0  0999 V2000
   11.2372  -16.8628   13.6647 N   0  0  0  0  0  0  0  0  0  0  0  0
   10.1302  -16.1664   14.2795 C   0  0  0  0  0  0  0  0  0  0  0  0
    9.3148  -15.6367   13.4997 O   0  0  0  0  0  0  0  0  0  0  0  0
    9.9882  -16.0973   15.7352 C   0  0  0  0  0  0  0  0  0  0  0  0
   11.0053  -16.8635   16.4875 C   0  0  0  0  0  0  0  0  0  0  0  0
   10.4982  -17.5998   17.6888 C   0  0  2  0  0  0  0  0  0  0  0  0
    9.2047  -18.1641   17.3558 N   0  0  0  0  0  0  0  0  0  0  0  0
   10.4121  -16.6762   18.8497 C   0  0  0  0  0  0  0  0  0  0  0  0
   11.5025  -16.1712   19.2447 O   0  0  0  0  0  0  0  0  0  0  0  0
    9.2404  -16.3283   19.5270 N   0  0  0  0  0  0  0  0  0  0  0  0
    9.2136  -15.4580   20.6890 C   0  0  1  0  0  0  0  0  0  0  0  0
    8.0859  -14.4609   20.5978 C   0  0  0  0  0  0  0  0  0  0  0  0
    8.1557  -13.5825   19.3927 C   0  0  0  0  0  0  0  0  0  0  0  0
    6.7981  -13.6050   18.7216 C   0  0  0  0  0  0  0  0  0  0  0  0
    6.7522  -12.7285   17.5038 C   0  0  0  0  0  0  0  0  0  0  0  0
    5.4321  -12.7093   16.9170 N   0  0  0  0  0  0  0  0  0  0  0  0
    9.2137  -16.2020   21.9541 C   0  0  0  0  0  0  0  0  0  0  0  0
    8.4960  -17.2210   22.1013 O   0  0  0  0  0  0  0  0  0  0  0  0
   15.3289  -18.3262   21.8035 N   0  0  0  0  0  0  0  0  0  0  0  0
   15.6746  -18.8577   23.0656 C   0  0  0  0  0  0  0  0  0  0  0  0
   16.2972  -20.0025   23.2006 N   0  0  0  0  0  0  0  0  0  0  0  0
   15.3638  -18.1768   24.2735 N   0  0  0  0  0  0  0  0  0  0  0  0
   14.6563  -16.9317   24.3213 C   0  0  0  0  0  0  0  0  0  0  0  0
   13.1687  -17.2220   24.5129 C   0  0  0  0  0  0  0  0  0  0  0  0
   12.3091  -16.3407   23.6612 C   0  0  0  0  0  0  0  0  0  0  0  0
   10.8683  -16.6848   23.8115 C   0  0  2  0  0  0  0  0  0  0  0  0
   10.0371  -15.7601   23.0206 N   0  0  0  0  0  0  0  0  0  0  0  0
   10.4363  -16.5023   25.2037 C   0  0  0  0  0  0  0  0  0  0  0  0
    9.6327  -15.6086   25.5162 O   0  0  0  0  0  0  0  0  0  0  0  0
   10.9068  -17.3157   26.2130 O   0  0  0  0  0  0  0  0  0  0  0  0
  1  2  1  0
  2  3  2  0
  4  5  1  0
  4  2  1  0
  6  7  1  6
  6  5  1  0
  8  6  1  0
  8 10  1  0
  9  8  2  0
 11 10  1  0
 11 12  1  6
 13 12  1  0
 13 14  1  0
 14 15  1  0
 15 16  1  0
 17 11  1  0
 18 17  2  0
 19 20  1  0
 20 21  2  0
 22 23  1  0
 22 20  1  0
 23 24  1  0
 25 24  1  0
 26 25  1  1
 26 27  1  0
 27 17  1  0
 28 26  1  0
 29 28  2  0
 30 28  1  0
M  END
$$$$
