QKR.pdb
     RDKit          3D

 30 29  0  0  1  0  0  0  0  0999 V2000
    7.9403  -12.6499   16.8266 N   0  0  0  0  0  0  0  0  0  0  0  0
    8.2413  -13.4614   15.6693 C   0  0  0  0  0  0  0  0  0  0  0  0
    8.0854  -12.9138   14.5605 O   0  0  0  0  0  0  0  0  0  0  0  0
    8.7026  -14.8441   15.8080 C   0  0  0  0  0  0  0  0  0  0  0  0
    8.7841  -15.3260   17.2038 C   0  0  0  0  0  0  0  0  0  0  0  0
    9.2029  -16.7544   17.3683 C   0  0  2  0  0  0  0  0  0  0  0  0
    8.4240  -17.5588   16.4471 N   0  0  0  0  0  0  0  0  0  0  0  0
    9.0012  -17.1822   18.7769 C   0  0  0  0  0  0  0  0  0  0  0  0
    8.3462  -16.3897   19.5138 O   0  0  0  0  0  0  0  0  0  0  0  0
    9.4706  -18.3714   19.3409 N   0  0  0  0  0  0  0  0  0  0  0  0
    9.1873  -18.7790   20.7055 C   0  0  1  0  0  0  0  0  0  0  0  0
    9.2691  -20.2774   20.8553 C   0  0  0  0  0  0  0  0  0  0  0  0
    9.0490  -20.7551   22.2524 C   0  0  0  0  0  0  0  0  0  0  0  0
    9.2440  -22.2570   22.2665 C   0  0  0  0  0  0  0  0  0  0  0  0
    9.1000  -22.8353   23.6442 C   0  0  0  0  0  0  0  0  0  0  0  0
    9.4047  -24.2475   23.6582 N   0  0  0  0  0  0  0  0  0  0  0  0
   10.0054  -18.0635   21.6918 C   0  0  0  0  0  0  0  0  0  0  0  0
   11.2244  -17.8499   21.4832 O   0  0  0  0  0  0  0  0  0  0  0  0
   10.2278  -16.2759   30.1691 N   0  0  0  0  0  0  0  0  0  0  0  0
   10.3494  -15.0218   29.5309 C   0  0  0  0  0  0  0  0  0  0  0  0
   10.4336  -13.8977   30.1984 N   0  0  0  0  0  0  0  0  0  0  0  0
   10.3866  -14.9045   28.1153 N   0  0  0  0  0  0  0  0  0  0  0  0
    9.6773  -15.7791   27.2292 C   0  0  0  0  0  0  0  0  0  0  0  0
    9.8278  -15.2556   25.8019 C   0  0  0  0  0  0  0  0  0  0  0  0
    9.1350  -16.1317   24.8051 C   0  0  0  0  0  0  0  0  0  0  0  0
   10.1020  -16.7115   23.8326 C   0  0  2  0  0  0  0  0  0  0  0  0
    9.4062  -17.6097   22.8942 N   0  0  0  0  0  0  0  0  0  0  0  0
   11.0851  -17.5566   24.5235 C   0  0  0  0  0  0  0  0  0  0  0  0
   12.0893  -17.0651   25.0642 O   0  0  0  0  0  0  0  0  0  0  0  0
   10.9289  -18.9247   24.5969 O   0  0  0  0  0  0  0  0  0  0  0  0
  1  2  1  0
  2  3  2  0
  4  5  1  0
  4  2  1  0
  6  7  1  6
  6  5  1  0
  8  6  1  0
  8 10  1  0
  9  8  2  0
 11 10  1  0
 11 12  1  6
 13 12  1  0
 13 14  1  0
 14 15  1  0
 15 16  1  0
 17 11  1  0
 18 17  2  0
 19 20  1  0
 20 21  2  0
 22 23  1  0
 22 20  1  0
 23 24  1  0
 25 24  1  0
 26 25  1  1
 26 27  1  0
 27 17  1  0
 28 26  1  0
 29 28  2  0
 30 28  1  0
M  END
$$$$
