FRK.pdb
     RDKit          3D

 32 32  0  0  1  0  0  0  0  0999 V2000
   25.1373  -18.6540  -20.7843 N   0  0  0  0  0  0  0  0  0  0  0  0
   24.9511  -17.6870  -19.7350 C   0  0  1  0  0  0  0  0  0  0  0  0
   23.5744  -17.0579  -19.9123 C   0  0  0  0  0  0  0  0  0  0  0  0
   23.5033  -16.1614  -21.0869 C   0  0  0  0  0  0  0  0  0  0  0  0
   22.8876  -16.5219  -22.2746 C   0  0  0  0  0  0  0  0  0  0  0  0
   22.8501  -15.6625  -23.3437 C   0  0  0  0  0  0  0  0  0  0  0  0
   23.4267  -14.3907  -23.2869 C   0  0  0  0  0  0  0  0  0  0  0  0
   24.0345  -14.0411  -22.1054 C   0  0  0  0  0  0  0  0  0  0  0  0
   24.0731  -14.8892  -21.0466 C   0  0  0  0  0  0  0  0  0  0  0  0
   25.0442  -18.3588  -18.4164 C   0  0  0  0  0  0  0  0  0  0  0  0
   24.5031  -19.4804  -18.2621 O   0  0  0  0  0  0  0  0  0  0  0  0
   28.3165  -21.3968  -11.9588 N   0  0  0  0  0  0  0  0  0  0  0  0
   26.9911  -21.0418  -11.6061 C   0  0  0  0  0  0  0  0  0  0  0  0
   26.5350  -21.3528  -10.4232 N   0  0  0  0  0  0  0  0  0  0  0  0
   26.1520  -20.3547  -12.5311 N   0  0  0  0  0  0  0  0  0  0  0  0
   26.7184  -19.7100  -13.6769 C   0  0  0  0  0  0  0  0  0  0  0  0
   26.5604  -18.1841  -13.6160 C   0  0  0  0  0  0  0  0  0  0  0  0
   26.6932  -17.7160  -15.0385 C   0  0  0  0  0  0  0  0  0  0  0  0
   25.7549  -18.3452  -16.0096 C   0  0  2  0  0  0  0  0  0  0  0  0
   25.7268  -17.7762  -17.3153 N   0  0  0  0  0  0  0  0  0  0  0  0
   24.3762  -18.5112  -15.4423 C   0  0  0  0  0  0  0  0  0  0  0  0
   23.6186  -17.5157  -15.2673 O   0  0  0  0  0  0  0  0  0  0  0  0
   25.5930  -21.0241  -10.1445 N   0  0  0  0  0  0  0  0  0  0  0  0
   23.8453  -19.7735  -15.0719 C   0  0  2  0  0  0  0  0  0  0  0  0
   22.4971  -19.9446  -14.5251 C   0  0  0  0  0  0  0  0  0  0  0  0
   21.7190  -20.9667  -15.2683 C   0  0  0  0  0  0  0  0  0  0  0  0
   20.3378  -21.2397  -14.7802 C   0  0  0  0  0  0  0  0  0  0  0  0
   19.7093  -22.3505  -15.6382 C   0  0  0  0  0  0  0  0  0  0  0  0
   18.2628  -22.5693  -15.2210 N   0  0  0  0  0  0  0  0  0  0  0  0
   17.4145  -21.4447  -15.5195 C   0  0  0  0  0  0  0  0  0  0  0  0
   22.5369  -20.1037  -13.0595 O   0  0  0  0  0  0  0  0  0  0  0  0
   23.5037  -20.5761  -12.4678 O   0  0  0  0  0  0  0  0  0  0  0  0
  2  1  1  6
  2  3  1  0
  3  4  1  0
  4  5  2  0
  5  6  1  0
  7  6  2  0
  8  7  1  0
  9  4  1  0
  9  8  2  0
 10  2  1  0
 11 10  2  0
 13 15  1  0
 13 12  1  0
 14 13  2  0
 16 17  1  0
 16 15  1  0
 17 18  1  0
 19 18  1  1
 19 21  1  0
 19 20  1  0
 20 10  1  0
 21 23  1  0
 22 21  2  0
 23 24  1  0
 24 25  1  6
 24 30  1  0
 25 26  1  0
 27 26  1  0
 28 27  1  0
 29 28  1  0
 30 31  2  0
 30 32  1  0
M  END
$$$$
