FRK.pdb
     RDKit          3D

 32 32  0  0  1  0  0  0  0  0999 V2000
   27.5934  -15.4930  -19.5331 N   0  0  0  0  0  0  0  0  0  0  0  0
   27.5549  -15.4591  -18.0951 C   0  0  1  0  0  0  0  0  0  0  0  0
   26.7949  -14.2073  -17.6731 C   0  0  0  0  0  0  0  0  0  0  0  0
   27.5190  -12.9607  -18.0049 C   0  0  0  0  0  0  0  0  0  0  0  0
   28.7210  -12.6066  -17.4136 C   0  0  0  0  0  0  0  0  0  0  0  0
   29.3570  -11.4366  -17.7447 C   0  0  0  0  0  0  0  0  0  0  0  0
   28.8274  -10.5519  -18.6880 C   0  0  0  0  0  0  0  0  0  0  0  0
   27.6358  -10.9111  -19.2699 C   0  0  0  0  0  0  0  0  0  0  0  0
   27.0046  -12.0674  -18.9441 C   0  0  0  0  0  0  0  0  0  0  0  0
   26.8710  -16.6725  -17.5865 C   0  0  0  0  0  0  0  0  0  0  0  0
   25.8078  -17.0504  -18.1353 O   0  0  0  0  0  0  0  0  0  0  0  0
   26.0310  -20.8640  -10.7251 N   0  0  0  0  0  0  0  0  0  0  0  0
   26.0077  -21.9527  -11.6316 C   0  0  0  0  0  0  0  0  0  0  0  0
   24.9915  -22.7719  -11.6270 N   0  0  0  0  0  0  0  0  0  0  0  0
   27.0841  -22.1635  -12.5419 N   0  0  0  0  0  0  0  0  0  0  0  0
   27.6669  -21.0567  -13.2380 C   0  0  0  0  0  0  0  0  0  0  0  0
   26.6575  -20.3620  -14.1630 C   0  0  0  0  0  0  0  0  0  0  0  0
   27.4441  -19.2999  -14.8795 C   0  0  0  0  0  0  0  0  0  0  0  0
   26.6872  -18.5215  -15.8997 C   0  0  2  0  0  0  0  0  0  0  0  0
   27.3779  -17.4269  -16.4947 N   0  0  0  0  0  0  0  0  0  0  0  0
   25.3234  -18.1258  -15.4163 C   0  0  0  0  0  0  0  0  0  0  0  0
   25.1802  -17.2906  -14.4795 O   0  0  0  0  0  0  0  0  0  0  0  0
   25.0050  -23.5943  -12.2567 N   0  0  0  0  0  0  0  0  0  0  0  0
   24.1292  -18.6555  -15.9695 C   0  0  1  0  0  0  0  0  0  0  0  0
   22.7973  -18.3365  -15.4499 C   0  0  0  0  0  0  0  0  0  0  0  0
   21.9574  -17.6408  -16.4566 C   0  0  0  0  0  0  0  0  0  0  0  0
   20.5346  -17.3982  -16.0863 C   0  0  0  0  0  0  0  0  0  0  0  0
   20.1919  -15.9206  -16.3394 C   0  0  0  0  0  0  0  0  0  0  0  0
   18.7561  -15.6441  -15.9192 N   0  0  0  0  0  0  0  0  0  0  0  0
   18.4114  -14.2473  -15.9778 C   0  0  0  0  0  0  0  0  0  0  0  0
   22.1868  -19.5121  -14.8018 O   0  0  0  0  0  0  0  0  0  0  0  0
   21.1967  -19.4342  -14.0796 O   0  0  0  0  0  0  0  0  0  0  0  0
  2  1  1  6
  2  3  1  0
  3  4  1  0
  4  5  2  0
  5  6  1  0
  7  6  2  0
  8  7  1  0
  9  4  1  0
  9  8  2  0
 10  2  1  0
 11 10  2  0
 13 15  1  0
 13 12  1  0
 14 13  2  0
 16 17  1  0
 16 15  1  0
 17 18  1  0
 19 18  1  1
 19 21  1  0
 19 20  1  0
 20 10  1  0
 21 23  1  0
 22 21  2  0
 23 24  1  0
 24 25  1  6
 24 30  1  0
 25 26  1  0
 27 26  1  0
 28 27  1  0
 29 28  1  0
 30 31  2  0
 30 32  1  0
M  END
$$$$
