FRK.pdb
     RDKit          3D

 32 32  0  0  1  0  0  0  0  0999 V2000
   23.5944  -18.3299  -19.1282 N   0  0  0  0  0  0  0  0  0  0  0  0
   23.0661  -17.9071  -17.8583 C   0  0  1  0  0  0  0  0  0  0  0  0
   21.8323  -17.0523  -18.1218 C   0  0  0  0  0  0  0  0  0  0  0  0
   22.1499  -15.7958  -18.8351 C   0  0  0  0  0  0  0  0  0  0  0  0
   21.7933  -15.5666  -20.1542 C   0  0  0  0  0  0  0  0  0  0  0  0
   22.1139  -14.3890  -20.7815 C   0  0  0  0  0  0  0  0  0  0  0  0
   22.8104  -13.3707  -20.1250 C   0  0  0  0  0  0  0  0  0  0  0  0
   23.1595  -13.6060  -18.8172 C   0  0  0  0  0  0  0  0  0  0  0  0
   22.8438  -14.7697  -18.1945 C   0  0  0  0  0  0  0  0  0  0  0  0
   22.7055  -19.0957  -17.0483 C   0  0  0  0  0  0  0  0  0  0  0  0
   22.0124  -20.0028  -17.5688 O   0  0  0  0  0  0  0  0  0  0  0  0
   26.4366  -23.3887  -16.0963 N   0  0  0  0  0  0  0  0  0  0  0  0
   25.6238  -24.4025  -15.5317 C   0  0  0  0  0  0  0  0  0  0  0  0
   26.0206  -25.6452  -15.5779 N   0  0  0  0  0  0  0  0  0  0  0  0
   24.3777  -24.0786  -14.9203 N   0  0  0  0  0  0  0  0  0  0  0  0
   23.9110  -22.7253  -14.9078 C   0  0  0  0  0  0  0  0  0  0  0  0
   24.1002  -22.0634  -13.5355 C   0  0  0  0  0  0  0  0  0  0  0  0
   23.6870  -20.6307  -13.7276 C   0  0  0  0  0  0  0  0  0  0  0  0
   22.7914  -20.3732  -14.8899 C   0  0  2  0  0  0  0  0  0  0  0  0
   23.1179  -19.2458  -15.6972 N   0  0  0  0  0  0  0  0  0  0  0  0
   21.3419  -20.3836  -14.5041 C   0  0  0  0  0  0  0  0  0  0  0  0
   20.8705  -19.5168  -13.7154 O   0  0  0  0  0  0  0  0  0  0  0  0
   25.4656  -26.3694  -15.0874 N   0  0  0  0  0  0  0  0  0  0  0  0
   20.4249  -21.3505  -14.9908 C   0  0  2  0  0  0  0  0  0  0  0  0
   19.0382  -21.4416  -14.5275 C   0  0  0  0  0  0  0  0  0  0  0  0
   18.1987  -22.2608  -15.4367 C   0  0  0  0  0  0  0  0  0  0  0  0
   16.7484  -22.3508  -15.1065 C   0  0  0  0  0  0  0  0  0  0  0  0
   16.0411  -23.2091  -16.1685 C   0  0  0  0  0  0  0  0  0  0  0  0
   14.5343  -23.1364  -15.9715 N   0  0  0  0  0  0  0  0  0  0  0  0
   13.8017  -23.9061  -16.9432 C   0  0  0  0  0  0  0  0  0  0  0  0
   18.9805  -21.8000  -13.0981 O   0  0  0  0  0  0  0  0  0  0  0  0
   19.7103  -22.6501  -12.5956 O   0  0  0  0  0  0  0  0  0  0  0  0
  2  1  1  6
  2  3  1  0
  3  4  1  0
  4  5  2  0
  5  6  1  0
  7  6  2  0
  8  7  1  0
  9  4  1  0
  9  8  2  0
 10  2  1  0
 11 10  2  0
 13 15  1  0
 13 12  1  0
 14 13  2  0
 16 17  1  0
 16 15  1  0
 17 18  1  0
 19 18  1  1
 19 21  1  0
 19 20  1  0
 20 10  1  0
 21 23  1  0
 22 21  2  0
 23 24  1  0
 24 25  1  6
 24 30  1  0
 25 26  1  0
 27 26  1  0
 28 27  1  0
 29 28  1  0
 30 31  2  0
 30 32  1  0
M  END
$$$$
