FRK.pdb
     RDKit          3D

 32 32  0  0  1  0  0  0  0  0999 V2000
   28.6918  -22.6864  -12.8385 N   0  0  0  0  0  0  0  0  0  0  0  0
   28.0035  -21.9969  -11.7795 C   0  0  1  0  0  0  0  0  0  0  0  0
   28.8277  -20.7723  -11.4005 C   0  0  0  0  0  0  0  0  0  0  0  0
   30.0173  -21.1132  -10.5899 C   0  0  0  0  0  0  0  0  0  0  0  0
   29.9633  -21.3187   -9.2207 C   0  0  0  0  0  0  0  0  0  0  0  0
   31.0926  -21.6264   -8.5044 C   0  0  0  0  0  0  0  0  0  0  0  0
   32.3430  -21.7471   -9.1167 C   0  0  0  0  0  0  0  0  0  0  0  0
   32.3874  -21.5425  -10.4745 C   0  0  0  0  0  0  0  0  0  0  0  0
   31.2722  -21.2379  -11.1853 C   0  0  0  0  0  0  0  0  0  0  0  0
   26.6566  -21.5871  -12.2450 C   0  0  0  0  0  0  0  0  0  0  0  0
   26.4319  -21.5135  -13.4772 O   0  0  0  0  0  0  0  0  0  0  0  0
   19.0053  -22.0488  -11.2993 N   0  0  0  0  0  0  0  0  0  0  0  0
   19.5598  -22.6356  -10.1350 C   0  0  0  0  0  0  0  0  0  0  0  0
   19.1354  -23.8049   -9.7395 N   0  0  0  0  0  0  0  0  0  0  0  0
   20.5703  -21.9595   -9.3911 N   0  0  0  0  0  0  0  0  0  0  0  0
   21.0136  -20.6592   -9.7937 C   0  0  0  0  0  0  0  0  0  0  0  0
   21.8369  -20.7068  -11.0887 C   0  0  0  0  0  0  0  0  0  0  0  0
   23.2565  -20.9288  -10.6465 C   0  0  0  0  0  0  0  0  0  0  0  0
   24.2574  -21.0487  -11.7435 C   0  0  2  0  0  0  0  0  0  0  0  0
   25.6057  -21.2728  -11.3423 N   0  0  0  0  0  0  0  0  0  0  0  0
   24.1483  -19.9305  -12.7374 C   0  0  0  0  0  0  0  0  0  0  0  0
   24.4920  -18.7532  -12.4352 O   0  0  0  0  0  0  0  0  0  0  0  0
   19.5242  -24.2142   -8.8710 N   0  0  0  0  0  0  0  0  0  0  0  0
   23.6601  -20.1202  -14.0559 C   0  0  2  0  0  0  0  0  0  0  0  0
   23.5478  -19.0328  -15.0310 C   0  0  0  0  0  0  0  0  0  0  0  0
   24.4951  -19.1970  -16.1616 C   0  0  0  0  0  0  0  0  0  0  0  0
   24.4832  -18.1311  -17.2029 C   0  0  0  0  0  0  0  0  0  0  0  0
   25.4576  -18.5146  -18.3291 C   0  0  0  0  0  0  0  0  0  0  0  0
   25.4685  -17.4287  -19.3945 N   0  0  0  0  0  0  0  0  0  0  0  0
   26.4813  -17.6339  -20.3972 C   0  0  0  0  0  0  0  0  0  0  0  0
   22.1395  -18.7954  -15.3986 O   0  0  0  0  0  0  0  0  0  0  0  0
   21.2821  -19.6731  -15.3495 O   0  0  0  0  0  0  0  0  0  0  0  0
  2  1  1  6
  2  3  1  0
  3  4  1  0
  4  5  2  0
  5  6  1  0
  7  6  2  0
  8  7  1  0
  9  4  1  0
  9  8  2  0
 10  2  1  0
 11 10  2  0
 13 15  1  0
 13 12  1  0
 14 13  2  0
 16 17  1  0
 16 15  1  0
 17 18  1  0
 19 18  1  1
 19 21  1  0
 19 20  1  0
 20 10  1  0
 21 23  1  0
 22 21  2  0
 23 24  1  0
 24 25  1  1
 24 30  1  0
 25 26  1  0
 27 26  1  0
 28 27  1  0
 29 28  1  0
 30 31  2  0
 30 32  1  0
M  END
$$$$
