FRK.pdb
     RDKit          3D

 32 32  0  0  1  0  0  0  0  0999 V2000
   22.4667  -18.1282  -15.7605 N   0  0  0  0  0  0  0  0  0  0  0  0
   22.7770  -19.3520  -16.4511 C   0  0  1  0  0  0  0  0  0  0  0  0
   22.8362  -19.0493  -17.9436 C   0  0  0  0  0  0  0  0  0  0  0  0
   21.5195  -18.6715  -18.5021 C   0  0  0  0  0  0  0  0  0  0  0  0
   21.2545  -17.4164  -19.0259 C   0  0  0  0  0  0  0  0  0  0  0  0
   20.0162  -17.1042  -19.5280 C   0  0  0  0  0  0  0  0  0  0  0  0
   18.9697  -18.0304  -19.5359 C   0  0  0  0  0  0  0  0  0  0  0  0
   19.2413  -19.2725  -19.0154 C   0  0  0  0  0  0  0  0  0  0  0  0
   20.4650  -19.5839  -18.5181 C   0  0  0  0  0  0  0  0  0  0  0  0
   24.0827  -19.8728  -15.9792 C   0  0  0  0  0  0  0  0  0  0  0  0
   25.0759  -19.1062  -15.9603 O   0  0  0  0  0  0  0  0  0  0  0  0
   23.4410  -20.5521   -9.9184 N   0  0  0  0  0  0  0  0  0  0  0  0
   24.8356  -20.7740  -10.0337 C   0  0  0  0  0  0  0  0  0  0  0  0
   25.4165  -21.6386   -9.2471 N   0  0  0  0  0  0  0  0  0  0  0  0
   25.6083  -20.0591  -10.9948 N   0  0  0  0  0  0  0  0  0  0  0  0
   25.5679  -20.4344  -12.3756 C   0  0  0  0  0  0  0  0  0  0  0  0
   24.6906  -21.6723  -12.6106 C   0  0  0  0  0  0  0  0  0  0  0  0
   25.3731  -22.4373  -13.7101 C   0  0  0  0  0  0  0  0  0  0  0  0
   25.4704  -21.7295  -15.0174 C   0  0  2  0  0  0  0  0  0  0  0  0
   24.2515  -21.2150  -15.5457 N   0  0  0  0  0  0  0  0  0  0  0  0
   26.2316  -22.5223  -16.0382 C   0  0  0  0  0  0  0  0  0  0  0  0
   25.6622  -23.4128  -16.7298 O   0  0  0  0  0  0  0  0  0  0  0  0
   26.4376  -21.7908   -9.3330 N   0  0  0  0  0  0  0  0  0  0  0  0
   27.6146  -22.3269  -16.2868 C   0  0  2  0  0  0  0  0  0  0  0  0
   28.1655  -22.1303  -17.6298 C   0  0  0  0  0  0  0  0  0  0  0  0
   27.3663  -21.1652  -18.4251 C   0  0  0  0  0  0  0  0  0  0  0  0
   27.8630  -20.8564  -19.7957 C   0  0  0  0  0  0  0  0  0  0  0  0
   26.8987  -21.4604  -20.8301 C   0  0  0  0  0  0  0  0  0  0  0  0
   27.3664  -21.1144  -22.2358 N   0  0  0  0  0  0  0  0  0  0  0  0
   26.5111  -21.6518  -23.2620 C   0  0  0  0  0  0  0  0  0  0  0  0
   29.6169  -21.8748  -17.5741 O   0  0  0  0  0  0  0  0  0  0  0  0
   30.1173  -21.0430  -16.8220 O   0  0  0  0  0  0  0  0  0  0  0  0
  2  1  1  1
  2  3  1  0
  3  4  1  0
  4  5  2  0
  5  6  1  0
  7  6  2  0
  8  7  1  0
  9  4  1  0
  9  8  2  0
 10  2  1  0
 11 10  2  0
 13 15  1  0
 13 12  1  0
 14 13  2  0
 16 17  1  0
 16 15  1  0
 17 18  1  0
 19 18  1  1
 19 21  1  0
 19 20  1  0
 20 10  1  0
 21 23  1  0
 22 21  2  0
 23 24  1  0
 24 25  1  6
 24 30  1  0
 25 26  1  0
 27 26  1  0
 28 27  1  0
 29 28  1  0
 30 31  2  0
 30 32  1  0
M  END
$$$$
