FRK.pdb
     RDKit          3D

 32 32  0  0  1  0  0  0  0  0999 V2000
   27.7108  -21.3492  -16.3005 N   0  0  0  0  0  0  0  0  0  0  0  0
   27.3459  -20.2537  -15.4418 C   0  0  1  0  0  0  0  0  0  0  0  0
   26.5606  -19.2453  -16.2718 C   0  0  0  0  0  0  0  0  0  0  0  0
   27.2916  -17.9742  -16.4675 C   0  0  0  0  0  0  0  0  0  0  0  0
   28.2583  -17.8030  -17.4452 C   0  0  0  0  0  0  0  0  0  0  0  0
   28.9187  -16.6086  -17.5886 C   0  0  0  0  0  0  0  0  0  0  0  0
   28.6500  -15.5146  -16.7616 C   0  0  0  0  0  0  0  0  0  0  0  0
   27.6897  -15.6928  -15.7953 C   0  0  0  0  0  0  0  0  0  0  0  0
   27.0352  -16.8729  -15.6513 C   0  0  0  0  0  0  0  0  0  0  0  0
   26.5157  -20.7553  -14.3202 C   0  0  0  0  0  0  0  0  0  0  0  0
   25.7423  -21.7235  -14.5175 O   0  0  0  0  0  0  0  0  0  0  0  0
   22.1250  -22.3466   -9.6664 N   0  0  0  0  0  0  0  0  0  0  0  0
   22.4393  -21.9648   -8.3387 C   0  0  0  0  0  0  0  0  0  0  0  0
   21.5289  -22.0634   -7.4085 N   0  0  0  0  0  0  0  0  0  0  0  0
   23.7356  -21.4701   -8.0123 N   0  0  0  0  0  0  0  0  0  0  0  0
   24.7691  -21.4477   -9.0025 C   0  0  0  0  0  0  0  0  0  0  0  0
   24.9818  -20.0417   -9.5813 C   0  0  0  0  0  0  0  0  0  0  0  0
   26.0792  -20.1946  -10.5976 C   0  0  0  0  0  0  0  0  0  0  0  0
   25.6277  -20.4697  -11.9904 C   0  0  2  0  0  0  0  0  0  0  0  0
   26.5635  -20.1766  -13.0238 N   0  0  0  0  0  0  0  0  0  0  0  0
   24.2770  -19.8835  -12.2767 C   0  0  0  0  0  0  0  0  0  0  0  0
   24.0687  -18.6422  -12.1704 O   0  0  0  0  0  0  0  0  0  0  0  0
   21.7522  -21.7415   -6.4495 N   0  0  0  0  0  0  0  0  0  0  0  0
   23.1673  -20.6716  -12.6767 C   0  0  2  0  0  0  0  0  0  0  0  0
   21.8462  -20.1061  -12.9612 C   0  0  0  0  0  0  0  0  0  0  0  0
   21.3695  -20.4584  -14.3218 C   0  0  0  0  0  0  0  0  0  0  0  0
   21.6863  -19.4923  -15.4113 C   0  0  0  0  0  0  0  0  0  0  0  0
   22.2276  -20.2624  -16.6274 C   0  0  0  0  0  0  0  0  0  0  0  0
   22.6190  -19.2848  -17.7253 N   0  0  0  0  0  0  0  0  0  0  0  0
   22.2230  -19.7244  -19.0380 C   0  0  0  0  0  0  0  0  0  0  0  0
   20.9059  -20.3772  -11.8579 O   0  0  0  0  0  0  0  0  0  0  0  0
   21.0293  -21.3348  -11.0990 O   0  0  0  0  0  0  0  0  0  0  0  0
  2  1  1  6
  2  3  1  0
  3  4  1  0
  4  5  2  0
  5  6  1  0
  7  6  2  0
  8  7  1  0
  9  4  1  0
  9  8  2  0
 10  2  1  0
 11 10  2  0
 13 15  1  0
 13 12  1  0
 14 13  2  0
 16 17  1  0
 16 15  1  0
 17 18  1  0
 19 18  1  1
 19 21  1  0
 19 20  1  0
 20 10  1  0
 21 23  1  0
 22 21  2  0
 23 24  1  0
 24 25  1  6
 24 30  1  0
 25 26  1  0
 27 26  1  0
 28 27  1  0
 29 28  1  0
 30 31  2  0
 30 32  1  0
M  END
$$$$
