FRK.pdb
     RDKit          3D

 32 32  0  0  1  0  0  0  0  0999 V2000
   27.6889  -19.9361  -18.2191 N   0  0  0  0  0  0  0  0  0  0  0  0
   27.4268  -19.2812  -16.9648 C   0  0  1  0  0  0  0  0  0  0  0  0
   26.5419  -18.0714  -17.2404 C   0  0  0  0  0  0  0  0  0  0  0  0
   27.2964  -16.9272  -17.7973 C   0  0  0  0  0  0  0  0  0  0  0  0
   27.5139  -16.7565  -19.1549 C   0  0  0  0  0  0  0  0  0  0  0  0
   28.2261  -15.6839  -19.6300 C   0  0  0  0  0  0  0  0  0  0  0  0
   28.7623  -14.7184  -18.7737 C   0  0  0  0  0  0  0  0  0  0  0  0
   28.5413  -14.8950  -17.4292 C   0  0  0  0  0  0  0  0  0  0  0  0
   27.8375  -15.9549  -16.9568 C   0  0  0  0  0  0  0  0  0  0  0  0
   26.7415  -20.2216  -16.0456 C   0  0  0  0  0  0  0  0  0  0  0  0
   25.8078  -20.9351  -16.4856 O   0  0  0  0  0  0  0  0  0  0  0  0
   24.0358  -20.1811   -8.9340 N   0  0  0  0  0  0  0  0  0  0  0  0
   24.6511  -21.3080   -8.3350 C   0  0  0  0  0  0  0  0  0  0  0  0
   24.0569  -21.9140   -7.3433 N   0  0  0  0  0  0  0  0  0  0  0  0
   25.9124  -21.7807   -8.8012 N   0  0  0  0  0  0  0  0  0  0  0  0
   26.5726  -21.1221   -9.8873 C   0  0  0  0  0  0  0  0  0  0  0  0
   25.8168  -21.2974  -11.2122 C   0  0  0  0  0  0  0  0  0  0  0  0
   26.7152  -20.7036  -12.2612 C   0  0  0  0  0  0  0  0  0  0  0  0
   26.2218  -20.8125  -13.6627 C   0  0  2  0  0  0  0  0  0  0  0  0
   27.1049  -20.3449  -14.6779 N   0  0  0  0  0  0  0  0  0  0  0  0
   24.8390  -20.2538  -13.8237 C   0  0  0  0  0  0  0  0  0  0  0  0
   24.6177  -19.0158  -13.7052 O   0  0  0  0  0  0  0  0  0  0  0  0
   24.4823  -22.7732   -6.9509 N   0  0  0  0  0  0  0  0  0  0  0  0
   23.7120  -21.0654  -14.1131 C   0  0  1  0  0  0  0  0  0  0  0  0
   22.3527  -20.5327  -14.2325 C   0  0  0  0  0  0  0  0  0  0  0  0
   21.8497  -20.5944  -15.6274 C   0  0  0  0  0  0  0  0  0  0  0  0
   21.9639  -19.3468  -16.4343 C   0  0  0  0  0  0  0  0  0  0  0  0
   21.3469  -19.5850  -17.8226 C   0  0  0  0  0  0  0  0  0  0  0  0
   21.5381  -18.3509  -18.6914 N   0  0  0  0  0  0  0  0  0  0  0  0
   20.9561  -18.4889  -20.0012 C   0  0  0  0  0  0  0  0  0  0  0  0
   21.4675  -21.1056  -13.2015 O   0  0  0  0  0  0  0  0  0  0  0  0
   20.3601  -20.6420  -12.9432 O   0  0  0  0  0  0  0  0  0  0  0  0
  2  1  1  6
  2  3  1  0
  3  4  1  0
  4  5  2  0
  5  6  1  0
  7  6  2  0
  8  7  1  0
  9  4  1  0
  9  8  2  0
 10  2  1  0
 11 10  2  0
 13 15  1  0
 13 12  1  0
 14 13  2  0
 16 17  1  0
 16 15  1  0
 17 18  1  0
 19 18  1  1
 19 21  1  0
 19 20  1  0
 20 10  1  0
 21 23  1  0
 22 21  2  0
 23 24  1  0
 24 25  1  6
 24 30  1  0
 25 26  1  0
 27 26  1  0
 28 27  1  0
 29 28  1  0
 30 31  2  0
 30 32  1  0
M  END
$$$$
