GTL.pdb
     RDKit          3D

 20 19  0  0  1  0  0  0  0  0999 V2000
    8.4024  -13.1419   17.0567 N   0  0  0  0  0  0  0  0  0  0  0  0
    9.1251  -13.7250   18.1476 C   0  0  0  0  0  0  0  0  0  0  0  0
    8.1929  -14.1777   19.1983 C   0  0  0  0  0  0  0  0  0  0  0  0
    6.9811  -13.8965   19.2059 O   0  0  0  0  0  0  0  0  0  0  0  0
    7.2973  -17.4473   19.9744 C   0  0  0  0  0  0  0  0  0  0  0  0
    7.8695  -16.9600   21.2878 C   0  0  1  0  0  0  0  0  0  0  0  0
    9.1237  -17.5155   21.5456 O   0  0  0  0  0  0  0  0  0  0  0  0
    7.8990  -15.4503   21.3518 C   0  0  2  0  0  0  0  0  0  0  0  0
    8.7181  -14.9790   20.2561 N   0  0  0  0  0  0  0  0  0  0  0  0
    8.4230  -14.9703   22.6796 C   0  0  0  0  0  0  0  0  0  0  0  0
    9.6281  -14.6780   22.8230 O   0  0  0  0  0  0  0  0  0  0  0  0
    7.9266  -11.5951   26.6172 C   0  0  0  0  0  0  0  0  0  0  0  0
    6.9088  -12.7077   26.8462 C   0  0  1  0  0  0  0  0  0  0  0  0
    5.6437  -11.9520   27.3313 C   0  0  0  0  0  0  0  0  0  0  0  0
    6.6501  -13.3253   25.5122 C   0  0  0  0  0  0  0  0  0  0  0  0
    7.7340  -14.2757   25.0378 C   0  0  2  0  0  0  0  0  0  0  0  0
    7.5335  -14.8571   23.7533 N   0  0  0  0  0  0  0  0  0  0  0  0
    8.2444  -15.1582   26.0867 C   0  0  0  0  0  0  0  0  0  0  0  0
    8.3748  -16.5370   25.9877 O   0  0  0  0  0  0  0  0  0  0  0  0
    8.5980  -14.6359   27.1741 O   0  0  0  0  0  0  0  0  0  0  0  0
  1  2  1  0
  3  4  2  0
  3  2  1  0
  6  5  1  6
  6  7  1  0
  6  8  1  0
  8  9  1  6
  9  3  1  0
 10 11  2  0
 10  8  1  0
 13 14  1  6
 13 12  1  0
 15 13  1  0
 16 15  1  1
 16 17  1  0
 17 10  1  0
 18 16  1  0
 19 18  1  0
 20 18  2  0
M  END
$$$$
