GTL.pdb
     RDKit          3D

 20 19  0  0  1  0  0  0  0  0999 V2000
   12.0160  -17.4589   18.4217 N   0  0  0  0  0  0  0  0  0  0  0  0
   11.4463  -17.8080   19.6889 C   0  0  0  0  0  0  0  0  0  0  0  0
   10.4663  -16.7882   20.1104 C   0  0  0  0  0  0  0  0  0  0  0  0
   10.3297  -15.6921   19.5381 O   0  0  0  0  0  0  0  0  0  0  0  0
    6.9840  -17.0574   20.0468 C   0  0  0  0  0  0  0  0  0  0  0  0
    7.2779  -16.8283   21.5134 C   0  0  1  0  0  0  0  0  0  0  0  0
    7.1618  -18.0043   22.2561 O   0  0  0  0  0  0  0  0  0  0  0  0
    8.6232  -16.1686   21.7112 C   0  0  2  0  0  0  0  0  0  0  0  0
    9.6369  -17.0839   21.2336 N   0  0  0  0  0  0  0  0  0  0  0  0
    8.8450  -15.8030   23.1552 C   0  0  0  0  0  0  0  0  0  0  0  0
    9.6569  -16.4395   23.8580 O   0  0  0  0  0  0  0  0  0  0  0  0
    7.9594  -11.8391   26.9536 C   0  0  0  0  0  0  0  0  0  0  0  0
    6.8330  -12.8480   26.7551 C   0  0  1  0  0  0  0  0  0  0  0  0
    5.5469  -12.0086   26.9752 C   0  0  0  0  0  0  0  0  0  0  0  0
    6.9103  -13.2939   25.3327 C   0  0  0  0  0  0  0  0  0  0  0  0
    7.9749  -14.3399   25.0579 C   0  0  2  0  0  0  0  0  0  0  0  0
    8.1234  -14.7345   23.6977 N   0  0  0  0  0  0  0  0  0  0  0  0
    8.0289  -15.4033   26.0609 C   0  0  0  0  0  0  0  0  0  0  0  0
    7.1891  -16.5078   26.1110 O   0  0  0  0  0  0  0  0  0  0  0  0
    8.9054  -15.3213   26.9583 O   0  0  0  0  0  0  0  0  0  0  0  0
  1  2  1  0
  3  4  2  0
  3  2  1  0
  6  5  1  6
  6  7  1  0
  6  8  1  0
  8  9  1  1
  9  3  1  0
 10 11  2  0
 10  8  1  0
 13 14  1  6
 13 12  1  0
 15 13  1  0
 16 15  1  6
 16 17  1  0
 17 10  1  0
 18 16  1  0
 19 18  1  0
 20 18  2  0
M  END
$$$$
