GTL.pdb
     RDKit          3D

 20 19  0  0  1  0  0  0  0  0999 V2000
    3.4621  -18.9078   21.2500 N   0  0  0  0  0  0  0  0  0  0  0  0
    3.9039  -17.5858   21.5807 C   0  0  0  0  0  0  0  0  0  0  0  0
    5.3229  -17.6042   21.9858 C   0  0  0  0  0  0  0  0  0  0  0  0
    5.8015  -18.4477   22.7651 O   0  0  0  0  0  0  0  0  0  0  0  0
    9.8802  -16.2120   21.0149 C   0  0  0  0  0  0  0  0  0  0  0  0
    8.4077  -16.2219   20.6661 C   0  0  1  0  0  0  0  0  0  0  0  0
    8.1176  -17.1493   19.6642 O   0  0  0  0  0  0  0  0  0  0  0  0
    7.5503  -16.4324   21.8928 C   0  0  2  0  0  0  0  0  0  0  0  0
    6.1826  -16.5985   21.4509 N   0  0  0  0  0  0  0  0  0  0  0  0
    7.6839  -15.2825   22.8561 C   0  0  0  0  0  0  0  0  0  0  0  0
    7.1872  -14.1679   22.5933 O   0  0  0  0  0  0  0  0  0  0  0  0
    8.0536  -11.7406   26.4222 C   0  0  0  0  0  0  0  0  0  0  0  0
    7.3965  -13.0553   26.8296 C   0  0  1  0  0  0  0  0  0  0  0  0
    5.9958  -12.6224   27.3372 C   0  0  0  0  0  0  0  0  0  0  0  0
    7.2565  -13.8626   25.5820 C   0  0  0  0  0  0  0  0  0  0  0  0
    8.5062  -14.6250   25.1820 C   0  0  2  0  0  0  0  0  0  0  0  0
    8.3764  -15.4852   24.0545 N   0  0  0  0  0  0  0  0  0  0  0  0
    9.2712  -15.1397   26.3175 C   0  0  0  0  0  0  0  0  0  0  0  0
    8.7932  -16.0199   27.2791 O   0  0  0  0  0  0  0  0  0  0  0  0
   10.4630  -14.7606   26.4441 O   0  0  0  0  0  0  0  0  0  0  0  0
  1  2  1  0
  3  4  2  0
  3  2  1  0
  6  5  1  1
  6  7  1  0
  6  8  1  0
  8  9  1  6
  9  3  1  0
 10 11  2  0
 10  8  1  0
 13 14  1  6
 13 12  1  0
 15 13  1  0
 16 15  1  1
 16 17  1  0
 17 10  1  0
 18 16  1  0
 19 18  1  0
 20 18  2  0
M  END
$$$$
