GTL.pdb
     RDKit          3D

 20 19  0  0  1  0  0  0  0  0999 V2000
    3.7197  -19.6301   22.2833 N   0  0  0  0  0  0  0  0  0  0  0  0
    4.3064  -18.3916   21.8660 C   0  0  0  0  0  0  0  0  0  0  0  0
    5.6994  -18.2958   22.3441 C   0  0  0  0  0  0  0  0  0  0  0  0
    6.2617  -19.1919   22.9986 O   0  0  0  0  0  0  0  0  0  0  0  0
    8.4195  -18.2078   20.2924 C   0  0  0  0  0  0  0  0  0  0  0  0
    8.6135  -16.9299   21.0794 C   0  0  1  0  0  0  0  0  0  0  0  0
    8.3225  -15.7996   20.3141 O   0  0  0  0  0  0  0  0  0  0  0  0
    7.8292  -16.9517   22.3712 C   0  0  2  0  0  0  0  0  0  0  0  0
    6.4309  -17.1100   22.0346 N   0  0  0  0  0  0  0  0  0  0  0  0
    8.0658  -15.7003   23.1748 C   0  0  0  0  0  0  0  0  0  0  0  0
    7.8059  -14.5762   22.6982 O   0  0  0  0  0  0  0  0  0  0  0  0
    7.9691  -11.9691   26.3355 C   0  0  0  0  0  0  0  0  0  0  0  0
    7.1635  -13.1695   26.8215 C   0  0  1  0  0  0  0  0  0  0  0  0
    5.7290  -12.6035   26.9902 C   0  0  0  0  0  0  0  0  0  0  0  0
    7.1867  -14.1705   25.7145 C   0  0  0  0  0  0  0  0  0  0  0  0
    8.5024  -14.9116   25.5634 C   0  0  2  0  0  0  0  0  0  0  0  0
    8.5836  -15.8190   24.4688 N   0  0  0  0  0  0  0  0  0  0  0  0
    9.0759  -15.3588   26.8325 C   0  0  0  0  0  0  0  0  0  0  0  0
    8.6800  -16.4832   27.5445 O   0  0  0  0  0  0  0  0  0  0  0  0
   10.0063  -14.6759   27.3306 O   0  0  0  0  0  0  0  0  0  0  0  0
  1  2  1  0
  3  4  2  0
  3  2  1  0
  6  5  1  6
  6  7  1  0
  6  8  1  0
  8  9  1  6
  9  3  1  0
 10 11  2  0
 10  8  1  0
 13 14  1  6
 13 12  1  0
 15 13  1  0
 16 15  1  1
 16 17  1  0
 17 10  1  0
 18 16  1  0
 19 18  1  0
 20 18  2  0
M  END
$$$$
