GTL.pdb
     RDKit          3D

 20 19  0  0  1  0  0  0  0  0999 V2000
    8.6703  -12.2145   18.0243 N   0  0  0  0  0  0  0  0  0  0  0  0
    9.1806  -13.3518   18.7302 C   0  0  0  0  0  0  0  0  0  0  0  0
    8.3509  -13.6348   19.9174 C   0  0  0  0  0  0  0  0  0  0  0  0
    7.5343  -12.8243   20.3909 O   0  0  0  0  0  0  0  0  0  0  0  0
    6.6472  -17.0113   20.3649 C   0  0  0  0  0  0  0  0  0  0  0  0
    7.4049  -16.7256   21.6433 C   0  0  1  0  0  0  0  0  0  0  0  0
    8.5163  -17.5579   21.7852 O   0  0  0  0  0  0  0  0  0  0  0  0
    7.7786  -15.2651   21.7499 C   0  0  2  0  0  0  0  0  0  0  0  0
    8.5000  -14.9064   20.5480 N   0  0  0  0  0  0  0  0  0  0  0  0
    8.5975  -14.9998   22.9856 C   0  0  0  0  0  0  0  0  0  0  0  0
    9.7089  -14.4369   22.9070 O   0  0  0  0  0  0  0  0  0  0  0  0
    8.1106  -11.6165   26.6886 C   0  0  0  0  0  0  0  0  0  0  0  0
    7.1181  -12.7671   26.8198 C   0  0  1  0  0  0  0  0  0  0  0  0
    5.7547  -12.0536   27.0171 C   0  0  0  0  0  0  0  0  0  0  0  0
    7.1294  -13.4865   25.5120 C   0  0  0  0  0  0  0  0  0  0  0  0
    8.0579  -14.6858   25.4612 C   0  0  2  0  0  0  0  0  0  0  0  0
    8.0901  -15.3963   24.2275 N   0  0  0  0  0  0  0  0  0  0  0  0
    8.0494  -15.4897   26.6832 C   0  0  0  0  0  0  0  0  0  0  0  0
    7.6185  -16.8061   26.7794 O   0  0  0  0  0  0  0  0  0  0  0  0
    8.4650  -14.9546   27.7421 O   0  0  0  0  0  0  0  0  0  0  0  0
  1  2  1  0
  3  4  2  0
  3  2  1  0
  6  5  1  6
  6  7  1  0
  6  8  1  0
  8  9  1  6
  9  3  1  0
 10 11  2  0
 10  8  1  0
 13 14  1  6
 13 12  1  0
 15 13  1  0
 16 15  1  6
 16 17  1  0
 17 10  1  0
 18 16  1  0
 19 18  1  0
 20 18  2  0
M  END
$$$$
