GTL.pdb
     RDKit          3D

 20 19  0  0  1  0  0  0  0  0999 V2000
    8.2966  -12.1948   18.4225 N   0  0  0  0  0  0  0  0  0  0  0  0
    9.1426  -13.0718   19.1759 C   0  0  0  0  0  0  0  0  0  0  0  0
    8.3655  -13.7600   20.2249 C   0  0  0  0  0  0  0  0  0  0  0  0
    7.1992  -13.4503   20.5273 O   0  0  0  0  0  0  0  0  0  0  0  0
    7.6718  -17.9027   22.6147 C   0  0  0  0  0  0  0  0  0  0  0  0
    8.4768  -17.0488   21.6594 C   0  0  1  0  0  0  0  0  0  0  0  0
    8.1749  -17.3346   20.3270 O   0  0  0  0  0  0  0  0  0  0  0  0
    8.3218  -15.5774   21.9681 C   0  0  2  0  0  0  0  0  0  0  0  0
    8.9929  -14.8351   20.9230 N   0  0  0  0  0  0  0  0  0  0  0  0
    8.8776  -15.2432   23.3273 C   0  0  0  0  0  0  0  0  0  0  0  0
   10.1100  -15.1973   23.5200 O   0  0  0  0  0  0  0  0  0  0  0  0
    5.6057  -12.2288   26.8467 C   0  0  0  0  0  0  0  0  0  0  0  0
    6.7675  -12.7226   25.9907 C   0  0  1  0  0  0  0  0  0  0  0  0
    7.8918  -11.6906   26.2694 C   0  0  0  0  0  0  0  0  0  0  0  0
    7.1571  -14.0565   26.5354 C   0  0  0  0  0  0  0  0  0  0  0  0
    8.2521  -14.7598   25.7549 C   0  0  2  0  0  0  0  0  0  0  0  0
    7.9864  -14.9842   24.3739 N   0  0  0  0  0  0  0  0  0  0  0  0
    8.8891  -15.8534   26.4883 C   0  0  0  0  0  0  0  0  0  0  0  0
    9.8748  -15.7091   27.4556 O   0  0  0  0  0  0  0  0  0  0  0  0
    8.5216  -17.0274   26.2299 O   0  0  0  0  0  0  0  0  0  0  0  0
  1  2  1  0
  3  4  2  0
  3  2  1  0
  6  5  1  1
  6  7  1  0
  6  8  1  0
  8  9  1  6
  9  3  1  0
 10 11  2  0
 10  8  1  0
 13 14  1  1
 13 12  1  0
 15 13  1  0
 16 15  1  1
 16 17  1  0
 17 10  1  0
 18 16  1  0
 19 18  1  0
 20 18  2  0
M  END
$$$$
