GTL.pdb
     RDKit          3D

 20 19  0  0  1  0  0  0  0  0999 V2000
    8.4978  -13.0366   17.4684 N   0  0  0  0  0  0  0  0  0  0  0  0
    9.2264  -13.4707   18.6230 C   0  0  0  0  0  0  0  0  0  0  0  0
    8.3071  -14.0433   19.6256 C   0  0  0  0  0  0  0  0  0  0  0  0
    7.0689  -14.0305   19.5053 O   0  0  0  0  0  0  0  0  0  0  0  0
    7.2746  -16.9497   20.2375 C   0  0  0  0  0  0  0  0  0  0  0  0
    7.9321  -16.6890   21.5754 C   0  0  1  0  0  0  0  0  0  0  0  0
    9.1548  -17.3521   21.6909 O   0  0  0  0  0  0  0  0  0  0  0  0
    8.0675  -15.2082   21.8457 C   0  0  2  0  0  0  0  0  0  0  0  0
    8.8774  -14.6402   20.7898 N   0  0  0  0  0  0  0  0  0  0  0  0
    8.6704  -14.9537   23.2020 C   0  0  0  0  0  0  0  0  0  0  0  0
    9.9036  -14.8154   23.3374 O   0  0  0  0  0  0  0  0  0  0  0  0
    5.6117  -12.0906   26.8375 C   0  0  0  0  0  0  0  0  0  0  0  0
    6.7608  -12.6055   25.9769 C   0  0  1  0  0  0  0  0  0  0  0  0
    7.9050  -11.5943   26.2512 C   0  0  0  0  0  0  0  0  0  0  0  0
    7.1281  -13.9464   26.5200 C   0  0  0  0  0  0  0  0  0  0  0  0
    8.1455  -14.7054   25.6882 C   0  0  2  0  0  0  0  0  0  0  0  0
    7.8223  -14.8747   24.3117 N   0  0  0  0  0  0  0  0  0  0  0  0
    8.7243  -15.8600   26.3748 C   0  0  0  0  0  0  0  0  0  0  0  0
    8.8402  -17.1383   25.8452 O   0  0  0  0  0  0  0  0  0  0  0  0
    9.1569  -15.6934   27.5433 O   0  0  0  0  0  0  0  0  0  0  0  0
  1  2  1  0
  3  4  2  0
  3  2  1  0
  6  5  1  6
  6  7  1  0
  6  8  1  0
  8  9  1  6
  9  3  1  0
 10 11  2  0
 10  8  1  0
 13 14  1  1
 13 12  1  0
 15 13  1  0
 16 15  1  1
 16 17  1  0
 17 10  1  0
 18 16  1  0
 19 18  1  0
 20 18  2  0
M  END
$$$$
