GTL.pdb
     RDKit          3D

 20 19  0  0  1  0  0  0  0  0999 V2000
    7.8109  -12.4331   18.4020 N   0  0  0  0  0  0  0  0  0  0  0  0
    8.8241  -12.9434   19.2769 C   0  0  0  0  0  0  0  0  0  0  0  0
    8.2192  -13.7822   20.3298 C   0  0  0  0  0  0  0  0  0  0  0  0
    7.0144  -13.7334   20.6361 O   0  0  0  0  0  0  0  0  0  0  0  0
    8.3808  -17.9986   22.6393 C   0  0  0  0  0  0  0  0  0  0  0  0
    9.0249  -16.9772   21.7272 C   0  0  1  0  0  0  0  0  0  0  0  0
    8.8183  -17.2803   20.3806 O   0  0  0  0  0  0  0  0  0  0  0  0
    8.5750  -15.5742   22.0635 C   0  0  2  0  0  0  0  0  0  0  0  0
    9.0681  -14.6933   21.0269 N   0  0  0  0  0  0  0  0  0  0  0  0
    9.0655  -15.1549   23.4242 C   0  0  0  0  0  0  0  0  0  0  0  0
   10.2722  -14.9006   23.6180 O   0  0  0  0  0  0  0  0  0  0  0  0
    5.7474  -12.1821   26.6635 C   0  0  0  0  0  0  0  0  0  0  0  0
    6.9498  -12.7408   25.9097 C   0  0  1  0  0  0  0  0  0  0  0  0
    8.0582  -11.6830   26.1535 C   0  0  0  0  0  0  0  0  0  0  0  0
    7.3140  -14.0215   26.5841 C   0  0  0  0  0  0  0  0  0  0  0  0
    8.3697  -14.8364   25.8599 C   0  0  2  0  0  0  0  0  0  0  0  0
    8.1431  -15.0549   24.4710 N   0  0  0  0  0  0  0  0  0  0  0  0
    8.8681  -15.9744   26.6320 C   0  0  0  0  0  0  0  0  0  0  0  0
    8.8584  -17.2985   26.2143 O   0  0  0  0  0  0  0  0  0  0  0  0
    9.3480  -15.7471   27.7714 O   0  0  0  0  0  0  0  0  0  0  0  0
  1  2  1  0
  3  4  2  0
  3  2  1  0
  6  5  1  1
  6  7  1  0
  6  8  1  0
  8  9  1  6
  9  3  1  0
 10 11  2  0
 10  8  1  0
 13 14  1  1
 13 12  1  0
 15 13  1  0
 16 15  1  1
 16 17  1  0
 17 10  1  0
 18 16  1  0
 19 18  1  0
 20 18  2  0
M  END
$$$$
