EQM.pdb
     RDKit          3D

 27 26  0  0  1  0  0  0  0  0999 V2000
   21.7085  -15.9726  -18.6278 N   0  0  0  0  0  0  0  0  0  0  0  0
   21.1140  -15.1507  -17.5889 C   0  0  1  0  0  0  0  0  0  0  0  0
   21.7032  -15.4649  -16.2440 C   0  0  0  0  0  0  0  0  0  0  0  0
   21.4665  -16.9027  -15.8346 C   0  0  0  0  0  0  0  0  0  0  0  0
   20.1352  -16.9689  -15.1810 C   0  0  0  0  0  0  0  0  0  0  0  0
   19.3756  -15.9684  -15.0895 O   0  0  0  0  0  0  0  0  0  0  0  0
   21.3422  -13.7165  -17.8604 C   0  0  0  0  0  0  0  0  0  0  0  0
   22.3771  -13.3766  -18.4765 O   0  0  0  0  0  0  0  0  0  0  0  0
   19.7161  -18.1937  -14.6489 O   0  0  0  0  0  0  0  0  0  0  0  0
   16.7256   -9.7575  -17.7404 N   0  0  0  0  0  0  0  0  0  0  0  0
   17.7466   -8.8088  -18.0212 C   0  0  0  0  0  0  0  0  0  0  0  0
   17.4355   -7.6281  -18.2474 O   0  0  0  0  0  0  0  0  0  0  0  0
   19.1818   -9.2502  -18.0393 C   0  0  0  0  0  0  0  0  0  0  0  0
   19.2129  -10.7153  -17.7254 C   0  0  0  0  0  0  0  0  0  0  0  0
   20.5543  -11.3506  -17.7696 C   0  0  2  0  0  0  0  0  0  0  0  0
   20.3936  -12.7662  -17.4210 N   0  0  0  0  0  0  0  0  0  0  0  0
   21.4629  -10.7402  -16.7733 C   0  0  0  0  0  0  0  0  0  0  0  0
   21.7682  -11.3153  -15.6792 O   0  0  0  0  0  0  0  0  0  0  0  0
   28.4072  -10.5731  -15.3479 C   0  0  0  0  0  0  0  0  0  0  0  0
   26.8380  -10.9565  -16.1800 S   0  0  0  0  0  0  0  0  0  0  0  0
   25.6097   -9.6496  -15.8562 C   0  0  0  0  0  0  0  0  0  0  0  0
   24.2873  -10.0096  -16.4343 C   0  0  0  0  0  0  0  0  0  0  0  0
   23.2000   -8.9927  -16.2742 C   0  0  2  0  0  0  0  0  0  0  0  0
   22.0312   -9.4676  -17.0148 N   0  0  0  0  0  0  0  0  0  0  0  0
   23.5855   -7.6385  -16.7449 C   0  0  0  0  0  0  0  0  0  0  0  0
   23.3992   -7.2788  -17.9464 O   0  0  0  0  0  0  0  0  0  0  0  0
   24.1561   -6.7617  -15.8422 O   0  0  0  0  0  0  0  0  0  0  0  0
  2  1  1  6
  3  4  1  0
  3  2  1  0
  5  4  1  0
  5  6  2  0
  7  2  1  0
  7  8  2  0
  9  5  1  0
 10 11  1  0
 11 13  1  0
 12 11  2  0
 13 14  1  0
 15 14  1  1
 15 16  1  0
 16  7  1  0
 17 15  1  0
 18 17  2  0
 19 20  1  0
 20 21  1  0
 21 22  1  0
 23 22  1  6
 23 24  1  0
 23 25  1  0
 24 17  1  0
 25 27  1  0
 26 25  2  0
M  END
$$$$
