EQM.pdb
     RDKit          3D

 27 26  0  0  1  0  0  0  0  0999 V2000
   25.9327  -18.0727  -16.4730 N   0  0  0  0  0  0  0  0  0  0  0  0
   26.7022  -18.9055  -15.5660 C   0  0  1  0  0  0  0  0  0  0  0  0
   27.8087  -18.1242  -14.9179 C   0  0  0  0  0  0  0  0  0  0  0  0
   29.1203  -18.2610  -15.6608 C   0  0  0  0  0  0  0  0  0  0  0  0
   28.8078  -18.3441  -17.1097 C   0  0  0  0  0  0  0  0  0  0  0  0
   27.9583  -19.1500  -17.5737 O   0  0  0  0  0  0  0  0  0  0  0  0
   25.8416  -19.4476  -14.4944 C   0  0  0  0  0  0  0  0  0  0  0  0
   25.0029  -18.6919  -13.9543 O   0  0  0  0  0  0  0  0  0  0  0  0
   29.4876  -17.4909  -17.9864 O   0  0  0  0  0  0  0  0  0  0  0  0
   24.2936  -25.3161  -14.0958 N   0  0  0  0  0  0  0  0  0  0  0  0
   23.3447  -24.3857  -14.6010 C   0  0  0  0  0  0  0  0  0  0  0  0
   22.3722  -24.8003  -15.2523 O   0  0  0  0  0  0  0  0  0  0  0  0
   23.5347  -22.9193  -14.3387 C   0  0  0  0  0  0  0  0  0  0  0  0
   24.7683  -22.7611  -13.5026 C   0  0  0  0  0  0  0  0  0  0  0  0
   25.0893  -21.3703  -13.0931 C   0  0  2  0  0  0  0  0  0  0  0  0
   25.9837  -20.7982  -14.1051 N   0  0  0  0  0  0  0  0  0  0  0  0
   25.8029  -21.3509  -11.7965 C   0  0  0  0  0  0  0  0  0  0  0  0
   26.9094  -21.9534  -11.6126 O   0  0  0  0  0  0  0  0  0  0  0  0
   29.8512  -19.4240   -7.4615 C   0  0  0  0  0  0  0  0  0  0  0  0
   28.2086  -18.8519   -6.9357 S   0  0  0  0  0  0  0  0  0  0  0  0
   26.9360  -20.0811   -7.3732 C   0  0  0  0  0  0  0  0  0  0  0  0
   26.5861  -19.9917   -8.8162 C   0  0  0  0  0  0  0  0  0  0  0  0
   25.5944  -20.9958   -9.3164 C   0  0  2  0  0  0  0  0  0  0  0  0
   25.2610  -20.6451  -10.6970 N   0  0  0  0  0  0  0  0  0  0  0  0
   24.3592  -21.0638   -8.4957 C   0  0  0  0  0  0  0  0  0  0  0  0
   23.2338  -20.7171   -8.9655 O   0  0  0  0  0  0  0  0  0  0  0  0
   24.4537  -21.5191   -7.1944 O   0  0  0  0  0  0  0  0  0  0  0  0
  2  1  1  6
  3  4  1  0
  3  2  1  0
  5  4  1  0
  5  6  2  0
  7  2  1  0
  7  8  2  0
  9  5  1  0
 10 11  1  0
 11 13  1  0
 12 11  2  0
 13 14  1  0
 15 14  1  6
 15 16  1  0
 16  7  1  0
 17 15  1  0
 18 17  2  0
 19 20  1  0
 20 21  1  0
 21 22  1  0
 23 22  1  1
 23 24  1  0
 23 25  1  0
 24 17  1  0
 25 27  1  0
 26 25  2  0
M  END
$$$$
