EQM.pdb
     RDKit          3D

 27 26  0  0  1  0  0  0  0  0999 V2000
   20.7951  -13.9563  -17.0481 N   0  0  0  0  0  0  0  0  0  0  0  0
   20.5427  -12.5429  -17.2644 C   0  0  1  0  0  0  0  0  0  0  0  0
   19.0699  -12.2511  -17.2856 C   0  0  0  0  0  0  0  0  0  0  0  0
   18.7775  -10.7879  -17.5391 C   0  0  0  0  0  0  0  0  0  0  0  0
   17.3024  -10.6208  -17.5474 C   0  0  0  0  0  0  0  0  0  0  0  0
   16.5688  -11.1286  -18.4363 O   0  0  0  0  0  0  0  0  0  0  0  0
   21.1507  -11.7314  -16.1899 C   0  0  0  0  0  0  0  0  0  0  0  0
   20.7850  -11.9237  -15.0086 O   0  0  0  0  0  0  0  0  0  0  0  0
   16.7128   -9.8689  -16.5247 O   0  0  0  0  0  0  0  0  0  0  0  0
   26.7025  -10.5747  -14.9068 N   0  0  0  0  0  0  0  0  0  0  0  0
   26.1041  -11.3999  -15.8978 C   0  0  0  0  0  0  0  0  0  0  0  0
   26.8045  -12.2232  -16.5089 O   0  0  0  0  0  0  0  0  0  0  0  0
   24.6372  -11.2619  -16.1881 C   0  0  0  0  0  0  0  0  0  0  0  0
   24.1095  -10.1380  -15.3491 C   0  0  0  0  0  0  0  0  0  0  0  0
   22.6545   -9.8712  -15.4793 C   0  0  2  0  0  0  0  0  0  0  0  0
   22.1248  -10.7619  -16.5174 N   0  0  0  0  0  0  0  0  0  0  0  0
   22.4078   -8.4771  -15.9110 C   0  0  0  0  0  0  0  0  0  0  0  0
   22.6216   -8.0788  -17.1012 O   0  0  0  0  0  0  0  0  0  0  0  0
   17.4804   -7.2187  -18.6744 C   0  0  0  0  0  0  0  0  0  0  0  0
   18.0256   -6.4134  -17.1394 S   0  0  0  0  0  0  0  0  0  0  0  0
   19.8416   -6.4749  -16.9984 C   0  0  0  0  0  0  0  0  0  0  0  0
   20.2917   -5.9163  -15.6954 C   0  0  0  0  0  0  0  0  0  0  0  0
   21.7358   -6.1191  -15.3558 C   0  0  2  0  0  0  0  0  0  0  0  0
   21.9158   -7.5238  -14.9891 N   0  0  0  0  0  0  0  0  0  0  0  0
   22.2121   -5.2409  -14.2576 C   0  0  0  0  0  0  0  0  0  0  0  0
   22.5391   -5.7143  -13.1278 O   0  0  0  0  0  0  0  0  0  0  0  0
   22.2978   -3.8811  -14.4876 O   0  0  0  0  0  0  0  0  0  0  0  0
  2  1  1  1
  3  4  1  0
  3  2  1  0
  5  4  1  0
  5  6  2  0
  7  2  1  0
  7  8  2  0
  9  5  1  0
 10 11  1  0
 11 13  1  0
 12 11  2  0
 13 14  1  0
 15 14  1  6
 15 16  1  0
 16  7  1  0
 17 15  1  0
 18 17  2  0
 19 20  1  0
 20 21  1  0
 21 22  1  0
 23 22  1  1
 23 24  1  0
 23 25  1  0
 24 17  1  0
 25 27  1  0
 26 25  2  0
M  END
$$$$
