EQM.pdb
     RDKit          3D

 27 26  0  0  1  0  0  0  0  0999 V2000
   13.7189  -10.3060  -13.2105 N   0  0  0  0  0  0  0  0  0  0  0  0
   14.9654  -10.2696  -12.4666 C   0  0  1  0  0  0  0  0  0  0  0  0
   16.0394  -11.0504  -13.1678 C   0  0  0  0  0  0  0  0  0  0  0  0
   15.4719  -12.1031  -14.0955 C   0  0  0  0  0  0  0  0  0  0  0  0
   15.6616  -13.4235  -13.4441 C   0  0  0  0  0  0  0  0  0  0  0  0
   16.0451  -13.5402  -12.2501 O   0  0  0  0  0  0  0  0  0  0  0  0
   15.4427   -8.8801  -12.3110 C   0  0  0  0  0  0  0  0  0  0  0  0
   15.1524   -8.0406  -13.1926 O   0  0  0  0  0  0  0  0  0  0  0  0
   15.4020  -14.5773  -14.1924 O   0  0  0  0  0  0  0  0  0  0  0  0
   15.1657   -6.1095   -7.2447 N   0  0  0  0  0  0  0  0  0  0  0  0
   14.1790   -6.1417   -8.2677 C   0  0  0  0  0  0  0  0  0  0  0  0
   12.9933   -5.9136   -7.9780 O   0  0  0  0  0  0  0  0  0  0  0  0
   14.5873   -6.4507   -9.6795 C   0  0  0  0  0  0  0  0  0  0  0  0
   16.0691   -6.6741   -9.6878 C   0  0  0  0  0  0  0  0  0  0  0  0
   16.6380   -7.1430  -10.9769 C   0  0  2  0  0  0  0  0  0  0  0  0
   16.2117   -8.5319  -11.1782 N   0  0  0  0  0  0  0  0  0  0  0  0
   18.1175   -7.1250  -10.9410 C   0  0  0  0  0  0  0  0  0  0  0  0
   18.7977   -7.9493  -10.2489 O   0  0  0  0  0  0  0  0  0  0  0  0
   23.5995   -9.8328  -14.6117 C   0  0  0  0  0  0  0  0  0  0  0  0
   21.9037   -9.4847  -14.0596 S   0  0  0  0  0  0  0  0  0  0  0  0
   21.8397   -7.9017  -13.1586 C   0  0  0  0  0  0  0  0  0  0  0  0
   20.4580   -7.6140  -12.6892 C   0  0  0  0  0  0  0  0  0  0  0  0
   20.2644   -6.3157  -11.9688 C   0  0  2  0  0  0  0  0  0  0  0  0
   18.8355   -6.1661  -11.6932 N   0  0  0  0  0  0  0  0  0  0  0  0
   20.7626   -5.1407  -12.7272 C   0  0  0  0  0  0  0  0  0  0  0  0
   19.9923   -4.4559  -13.4655 O   0  0  0  0  0  0  0  0  0  0  0  0
   22.0962   -4.7970  -12.6139 O   0  0  0  0  0  0  0  0  0  0  0  0
  2  1  1  6
  3  4  1  0
  3  2  1  0
  5  4  1  0
  5  6  2  0
  7  2  1  0
  7  8  2  0
  9  5  1  0
 10 11  1  0
 11 13  1  0
 12 11  2  0
 13 14  1  0
 15 14  1  1
 15 16  1  0
 16  7  1  0
 17 15  1  0
 18 17  2  0
 19 20  1  0
 20 21  1  0
 21 22  1  0
 23 22  1  6
 23 24  1  0
 23 25  1  0
 24 17  1  0
 25 27  1  0
 26 25  2  0
M  END
$$$$
