EQM.pdb
     RDKit          3D

 27 26  0  0  1  0  0  0  0  0999 V2000
   26.6128  -23.6141  -16.9910 N   0  0  0  0  0  0  0  0  0  0  0  0
   26.7580  -22.4626  -16.1185 C   0  0  1  0  0  0  0  0  0  0  0  0
   26.8922  -21.1942  -16.9109 C   0  0  0  0  0  0  0  0  0  0  0  0
   25.8255  -21.0671  -17.9771 C   0  0  0  0  0  0  0  0  0  0  0  0
   26.0483  -19.7800  -18.6825 C   0  0  0  0  0  0  0  0  0  0  0  0
   25.2517  -18.8091  -18.5870 O   0  0  0  0  0  0  0  0  0  0  0  0
   25.5825  -22.3231  -15.2345 C   0  0  0  0  0  0  0  0  0  0  0  0
   24.4887  -22.8051  -15.6052 O   0  0  0  0  0  0  0  0  0  0  0  0
   27.1896  -19.6490  -19.4818 O   0  0  0  0  0  0  0  0  0  0  0  0
   26.2286  -20.7491   -9.3556 N   0  0  0  0  0  0  0  0  0  0  0  0
   24.8258  -20.9793   -9.3337 C   0  0  0  0  0  0  0  0  0  0  0  0
   24.2251  -20.9771   -8.2469 O   0  0  0  0  0  0  0  0  0  0  0  0
   24.0956  -21.2209  -10.6235 C   0  0  0  0  0  0  0  0  0  0  0  0
   25.1135  -21.2683  -11.7224 C   0  0  0  0  0  0  0  0  0  0  0  0
   24.5815  -21.5768  -13.0740 C   0  0  2  0  0  0  0  0  0  0  0  0
   25.7179  -21.6525  -13.9984 N   0  0  0  0  0  0  0  0  0  0  0  0
   23.6838  -20.5000  -13.5487 C   0  0  0  0  0  0  0  0  0  0  0  0
   24.1003  -19.3273  -13.8175 O   0  0  0  0  0  0  0  0  0  0  0  0
   21.4165  -20.0116  -18.6489 C   0  0  0  0  0  0  0  0  0  0  0  0
   19.9140  -19.2449  -17.9731 S   0  0  0  0  0  0  0  0  0  0  0  0
   20.1036  -18.9393  -16.1864 C   0  0  0  0  0  0  0  0  0  0  0  0
   21.0838  -19.8844  -15.5876 C   0  0  0  0  0  0  0  0  0  0  0  0
   21.3737  -19.6968  -14.1307 C   0  0  2  0  0  0  0  0  0  0  0  0
   22.3022  -20.7502  -13.7204 N   0  0  0  0  0  0  0  0  0  0  0  0
   20.1582  -19.7290  -13.2788 C   0  0  0  0  0  0  0  0  0  0  0  0
   19.3686  -18.7389  -13.2167 O   0  0  0  0  0  0  0  0  0  0  0  0
   19.8940  -20.8701  -12.5457 O   0  0  0  0  0  0  0  0  0  0  0  0
  2  1  1  6
  3  4  1  0
  3  2  1  0
  5  4  1  0
  5  6  2  0
  7  2  1  0
  7  8  2  0
  9  5  1  0
 10 11  1  0
 11 13  1  0
 12 11  2  0
 13 14  1  0
 15 14  1  1
 15 16  1  0
 16  7  1  0
 17 15  1  0
 18 17  2  0
 19 20  1  0
 20 21  1  0
 21 22  1  0
 23 22  1  6
 23 24  1  0
 23 25  1  0
 24 17  1  0
 25 27  1  0
 26 25  2  0
M  END
$$$$
