EQM.pdb
     RDKit          3D

 27 26  0  0  1  0  0  0  0  0999 V2000
   18.1610  -13.5719  -19.7802 N   0  0  0  0  0  0  0  0  0  0  0  0
   17.7545  -12.4647  -18.9334 C   0  0  1  0  0  0  0  0  0  0  0  0
   17.2641  -12.9519  -17.6004 C   0  0  0  0  0  0  0  0  0  0  0  0
   18.2412  -13.9008  -16.9403 C   0  0  0  0  0  0  0  0  0  0  0  0
   17.5941  -14.4275  -15.7124 C   0  0  0  0  0  0  0  0  0  0  0  0
   17.7210  -15.6242  -15.3406 O   0  0  0  0  0  0  0  0  0  0  0  0
   18.8863  -11.5461  -18.6923 C   0  0  0  0  0  0  0  0  0  0  0  0
   20.0455  -11.9343  -18.9601 O   0  0  0  0  0  0  0  0  0  0  0  0
   16.8152  -13.5543  -14.9447 O   0  0  0  0  0  0  0  0  0  0  0  0
   20.3925   -4.8767  -16.0767 N   0  0  0  0  0  0  0  0  0  0  0  0
   19.6061   -5.9684  -16.5361 C   0  0  0  0  0  0  0  0  0  0  0  0
   18.5065   -6.1932  -16.0048 O   0  0  0  0  0  0  0  0  0  0  0  0
   20.1182   -6.8299  -17.6545 C   0  0  0  0  0  0  0  0  0  0  0  0
   19.1394   -7.9468  -17.8554 C   0  0  0  0  0  0  0  0  0  0  0  0
   19.7350   -9.2964  -18.0254 C   0  0  2  0  0  0  0  0  0  0  0  0
   18.6369  -10.2583  -18.1678 N   0  0  0  0  0  0  0  0  0  0  0  0
   20.5222   -9.6824  -16.8329 C   0  0  0  0  0  0  0  0  0  0  0  0
   20.0031  -10.2637  -15.8262 O   0  0  0  0  0  0  0  0  0  0  0  0
   27.8066  -11.4320  -14.3676 C   0  0  0  0  0  0  0  0  0  0  0  0
   26.6341  -11.0011  -15.6873 S   0  0  0  0  0  0  0  0  0  0  0  0
   25.0559  -10.4312  -14.9758 C   0  0  0  0  0  0  0  0  0  0  0  0
   24.0706  -10.1257  -16.0473 C   0  0  0  0  0  0  0  0  0  0  0  0
   22.7066   -9.7118  -15.5888 C   0  0  2  0  0  0  0  0  0  0  0  0
   21.9087   -9.4082  -16.7768 N   0  0  0  0  0  0  0  0  0  0  0  0
   22.7218   -8.5433  -14.6732 C   0  0  0  0  0  0  0  0  0  0  0  0
   22.9087   -7.3666  -15.1068 O   0  0  0  0  0  0  0  0  0  0  0  0
   22.5242   -8.7583  -13.3226 O   0  0  0  0  0  0  0  0  0  0  0  0
  2  1  1  6
  3  4  1  0
  3  2  1  0
  5  4  1  0
  5  6  2  0
  7  2  1  0
  7  8  2  0
  9  5  1  0
 10 11  1  0
 11 13  1  0
 12 11  2  0
 13 14  1  0
 15 14  1  1
 15 16  1  0
 16  7  1  0
 17 15  1  0
 18 17  2  0
 19 20  1  0
 20 21  1  0
 21 22  1  0
 23 22  1  6
 23 24  1  0
 23 25  1  0
 24 17  1  0
 25 27  1  0
 26 25  2  0
M  END
$$$$
