EQM.pdb
     RDKit          3D

 27 26  0  0  1  0  0  0  0  0999 V2000
   17.1375  -11.7501  -10.9303 N   0  0  0  0  0  0  0  0  0  0  0  0
   16.3388  -10.5387  -10.9848 C   0  0  1  0  0  0  0  0  0  0  0  0
   14.9522  -10.7782  -10.4605 C   0  0  0  0  0  0  0  0  0  0  0  0
   14.1536  -11.7060  -11.3505 C   0  0  0  0  0  0  0  0  0  0  0  0
   13.5362  -10.8805  -12.4188 C   0  0  0  0  0  0  0  0  0  0  0  0
   13.4692   -9.6247  -12.3502 O   0  0  0  0  0  0  0  0  0  0  0  0
   16.9529   -9.4689  -10.1717 C   0  0  0  0  0  0  0  0  0  0  0  0
   17.4286   -9.7606   -9.0515 O   0  0  0  0  0  0  0  0  0  0  0  0
   13.0111  -11.5306  -13.5415 O   0  0  0  0  0  0  0  0  0  0  0  0
   21.2958   -5.8989  -11.1587 N   0  0  0  0  0  0  0  0  0  0  0  0
   20.2805   -5.7968  -12.1486 C   0  0  0  0  0  0  0  0  0  0  0  0
   20.5672   -5.3514  -13.2716 O   0  0  0  0  0  0  0  0  0  0  0  0
   18.8804   -6.2289  -11.8193 C   0  0  0  0  0  0  0  0  0  0  0  0
   18.8728   -6.7099  -10.4001 C   0  0  0  0  0  0  0  0  0  0  0  0
   17.5391   -7.0646   -9.8520 C   0  0  2  0  0  0  0  0  0  0  0  0
   16.9890   -8.1486  -10.6730 N   0  0  0  0  0  0  0  0  0  0  0  0
   16.6087   -5.9166   -9.9371 C   0  0  0  0  0  0  0  0  0  0  0  0
   16.0628   -5.5546  -11.0288 O   0  0  0  0  0  0  0  0  0  0  0  0
   10.8493   -3.4026   -5.7015 C   0  0  0  0  0  0  0  0  0  0  0  0
   12.6500   -3.6451   -5.7190 S   0  0  0  0  0  0  0  0  0  0  0  0
   13.2544   -3.8047   -7.4310 C   0  0  0  0  0  0  0  0  0  0  0  0
   14.7372   -3.9180   -7.4617 C   0  0  0  0  0  0  0  0  0  0  0  0
   15.3599   -4.0438   -8.8175 C   0  0  2  0  0  0  0  0  0  0  0  0
   16.2931   -5.1697   -8.7781 N   0  0  0  0  0  0  0  0  0  0  0  0
   16.0641   -2.8138   -9.2593 C   0  0  0  0  0  0  0  0  0  0  0  0
   17.3297   -2.7599   -9.3119 O   0  0  0  0  0  0  0  0  0  0  0  0
   15.3105   -1.7132   -9.6200 O   0  0  0  0  0  0  0  0  0  0  0  0
  2  1  1  1
  3  4  1  0
  3  2  1  0
  5  4  1  0
  5  6  2  0
  7  2  1  0
  7  8  2  0
  9  5  1  0
 10 11  1  0
 11 13  1  0
 12 11  2  0
 13 14  1  0
 15 14  1  6
 15 16  1  0
 16  7  1  0
 17 15  1  0
 18 17  2  0
 19 20  1  0
 20 21  1  0
 21 22  1  0
 23 22  1  1
 23 24  1  0
 23 25  1  0
 24 17  1  0
 25 27  1  0
 26 25  2  0
M  END
$$$$
