EQM.pdb
     RDKit          3D

 27 26  0  0  1  0  0  0  0  0999 V2000
   26.2471  -21.6681  -15.1216 N   0  0  0  0  0  0  0  0  0  0  0  0
   25.0058  -21.0291  -15.5204 C   0  0  1  0  0  0  0  0  0  0  0  0
   24.4869  -21.6053  -16.8062 C   0  0  0  0  0  0  0  0  0  0  0  0
   25.2850  -21.1433  -18.0064 C   0  0  0  0  0  0  0  0  0  0  0  0
   24.8218  -19.7761  -18.3531 C   0  0  0  0  0  0  0  0  0  0  0  0
   25.2923  -18.7433  -17.8069 O   0  0  0  0  0  0  0  0  0  0  0  0
   23.9655  -21.2144  -14.4877 C   0  0  0  0  0  0  0  0  0  0  0  0
   24.0765  -22.1672  -13.6841 O   0  0  0  0  0  0  0  0  0  0  0  0
   23.8240  -19.6388  -19.3248 O   0  0  0  0  0  0  0  0  0  0  0  0
   19.7094  -16.9527  -13.2887 N   0  0  0  0  0  0  0  0  0  0  0  0
   19.2067  -17.9635  -12.4244 C   0  0  0  0  0  0  0  0  0  0  0  0
   18.2689  -17.6965  -11.6556 O   0  0  0  0  0  0  0  0  0  0  0  0
   19.8177  -19.3350  -12.4562 C   0  0  0  0  0  0  0  0  0  0  0  0
   20.9936  -19.2895  -13.3842 C   0  0  0  0  0  0  0  0  0  0  0  0
   21.7889  -20.5406  -13.4705 C   0  0  2  0  0  0  0  0  0  0  0  0
   22.8750  -20.3180  -14.4308 N   0  0  0  0  0  0  0  0  0  0  0  0
   20.9625  -21.6603  -13.9744 C   0  0  0  0  0  0  0  0  0  0  0  0
   21.1068  -22.1495  -15.1410 O   0  0  0  0  0  0  0  0  0  0  0  0
   21.9785  -26.6165  -15.8771 C   0  0  0  0  0  0  0  0  0  0  0  0
   21.0899  -27.0631  -14.3563 S   0  0  0  0  0  0  0  0  0  0  0  0
   19.7351  -25.8854  -14.0412 C   0  0  0  0  0  0  0  0  0  0  0  0
   20.2696  -24.5311  -13.7367 C   0  0  0  0  0  0  0  0  0  0  0  0
   19.2519  -23.4507  -13.5399 C   0  0  2  0  0  0  0  0  0  0  0  0
   19.9627  -22.2320  -13.1532 N   0  0  0  0  0  0  0  0  0  0  0  0
   18.2251  -23.7864  -12.5216 C   0  0  0  0  0  0  0  0  0  0  0  0
   17.4378  -24.7681  -12.6759 O   0  0  0  0  0  0  0  0  0  0  0  0
   18.1395  -23.0044  -11.3855 O   0  0  0  0  0  0  0  0  0  0  0  0
  2  1  1  1
  3  4  1  0
  3  2  1  0
  5  4  1  0
  5  6  2  0
  7  2  1  0
  7  8  2  0
  9  5  1  0
 10 11  1  0
 11 13  1  0
 12 11  2  0
 13 14  1  0
 15 14  1  6
 15 16  1  0
 16  7  1  0
 17 15  1  0
 18 17  2  0
 19 20  1  0
 20 21  1  0
 21 22  1  0
 23 22  1  1
 23 24  1  0
 23 25  1  0
 24 17  1  0
 25 27  1  0
 26 25  2  0
M  END
$$$$
