EQM.pdb
     RDKit          3D

 27 26  0  0  1  0  0  0  0  0999 V2000
   27.9990  -21.5301  -16.0745 N   0  0  0  0  0  0  0  0  0  0  0  0
   27.4881  -20.5340  -15.1498 C   0  0  1  0  0  0  0  0  0  0  0  0
   27.0747  -19.2839  -15.8718 C   0  0  0  0  0  0  0  0  0  0  0  0
   27.3555  -19.3587  -17.3572 C   0  0  0  0  0  0  0  0  0  0  0  0
   26.9172  -18.0753  -17.9611 C   0  0  0  0  0  0  0  0  0  0  0  0
   25.7666  -17.9143  -18.4476 O   0  0  0  0  0  0  0  0  0  0  0  0
   26.3093  -21.0491  -14.4232 C   0  0  0  0  0  0  0  0  0  0  0  0
   25.6513  -21.9859  -14.9287 O   0  0  0  0  0  0  0  0  0  0  0  0
   27.8232  -17.0089  -17.9866 O   0  0  0  0  0  0  0  0  0  0  0  0
   25.2870  -20.0927   -8.4046 N   0  0  0  0  0  0  0  0  0  0  0  0
   26.4074  -20.7382   -8.9956 C   0  0  0  0  0  0  0  0  0  0  0  0
   27.4385  -20.9051   -8.3242 O   0  0  0  0  0  0  0  0  0  0  0  0
   26.3246  -21.2066  -10.4200 C   0  0  0  0  0  0  0  0  0  0  0  0
   25.0339  -20.7037  -10.9918 C   0  0  0  0  0  0  0  0  0  0  0  0
   24.8105  -21.0047  -12.4287 C   0  0  2  0  0  0  0  0  0  0  0  0
   25.9528  -20.4762  -13.1820 N   0  0  0  0  0  0  0  0  0  0  0  0
   23.5901  -20.3322  -12.9275 C   0  0  0  0  0  0  0  0  0  0  0  0
   23.6136  -19.1807  -13.4703 O   0  0  0  0  0  0  0  0  0  0  0  0
   22.1169  -18.4910  -17.6765 C   0  0  0  0  0  0  0  0  0  0  0  0
   20.7723  -19.7010  -17.5038 S   0  0  0  0  0  0  0  0  0  0  0  0
   20.2676  -19.8471  -15.7587 C   0  0  0  0  0  0  0  0  0  0  0  0
   21.3907  -20.3478  -14.9218 C   0  0  0  0  0  0  0  0  0  0  0  0
   21.1323  -20.4212  -13.4488 C   0  0  2  0  0  0  0  0  0  0  0  0
   22.3309  -20.9660  -12.8112 N   0  0  0  0  0  0  0  0  0  0  0  0
   19.9490  -21.2465  -13.0983 C   0  0  0  0  0  0  0  0  0  0  0  0
   20.0661  -22.4690  -12.7833 O   0  0  0  0  0  0  0  0  0  0  0  0
   18.7004  -20.6550  -13.1179 O   0  0  0  0  0  0  0  0  0  0  0  0
  2  1  1  6
  3  4  1  0
  3  2  1  0
  5  4  1  0
  5  6  2  0
  7  2  1  0
  7  8  2  0
  9  5  1  0
 10 11  1  0
 11 13  1  0
 12 11  2  0
 13 14  1  0
 15 14  1  1
 15 16  1  0
 16  7  1  0
 17 15  1  0
 18 17  2  0
 19 20  1  0
 20 21  1  0
 21 22  1  0
 23 22  1  6
 23 24  1  0
 23 25  1  0
 24 17  1  0
 25 27  1  0
 26 25  2  0
M  END
$$$$
