EQM.pdb
     RDKit          3D

 27 26  0  0  1  0  0  0  0  0999 V2000
   15.5677   -8.7261  -16.6567 N   0  0  0  0  0  0  0  0  0  0  0  0
   16.4772   -8.7480  -15.5250 C   0  0  1  0  0  0  0  0  0  0  0  0
   17.9072   -8.8128  -15.9785 C   0  0  0  0  0  0  0  0  0  0  0  0
   18.2394  -10.1303  -16.6455 C   0  0  0  0  0  0  0  0  0  0  0  0
   19.6958  -10.1319  -16.9332 C   0  0  0  0  0  0  0  0  0  0  0  0
   20.2267   -9.3261  -17.7426 O   0  0  0  0  0  0  0  0  0  0  0  0
   16.3173   -7.5325  -14.7005 C   0  0  0  0  0  0  0  0  0  0  0  0
   15.6804   -6.5637  -15.1717 O   0  0  0  0  0  0  0  0  0  0  0  0
   20.5022  -11.0679  -16.2756 O   0  0  0  0  0  0  0  0  0  0  0  0
   15.6095   -7.6161   -8.8267 N   0  0  0  0  0  0  0  0  0  0  0  0
   15.8306   -6.2137   -8.9024 C   0  0  0  0  0  0  0  0  0  0  0  0
   15.6400   -5.5118   -7.8959 O   0  0  0  0  0  0  0  0  0  0  0  0
   16.2903   -5.6061  -10.1965 C   0  0  0  0  0  0  0  0  0  0  0  0
   16.4135   -6.7111  -11.2013 C   0  0  0  0  0  0  0  0  0  0  0  0
   16.7489   -6.2842  -12.5835 C   0  0  2  0  0  0  0  0  0  0  0  0
   16.8836   -7.4906  -13.4069 N   0  0  0  0  0  0  0  0  0  0  0  0
   18.0433   -5.5671  -12.6173 C   0  0  0  0  0  0  0  0  0  0  0  0
   18.2746   -4.5338  -11.9104 O   0  0  0  0  0  0  0  0  0  0  0  0
   22.8708  -10.1547  -12.4404 C   0  0  0  0  0  0  0  0  0  0  0  0
   22.7239   -8.7536  -13.5881 S   0  0  0  0  0  0  0  0  0  0  0  0
   21.4504   -7.5861  -13.0079 C   0  0  0  0  0  0  0  0  0  0  0  0
   21.4175   -6.3692  -13.8627 C   0  0  0  0  0  0  0  0  0  0  0  0
   20.3825   -5.3458  -13.5114 C   0  0  2  0  0  0  0  0  0  0  0  0
   19.0859   -6.0211  -13.4585 N   0  0  0  0  0  0  0  0  0  0  0  0
   20.3272   -4.2112  -14.4672 C   0  0  0  0  0  0  0  0  0  0  0  0
   21.2947   -3.4006  -14.5872 O   0  0  0  0  0  0  0  0  0  0  0  0
   19.1914   -4.0495  -15.2375 O   0  0  0  0  0  0  0  0  0  0  0  0
  2  1  1  6
  3  4  1  0
  3  2  1  0
  5  4  1  0
  5  6  2  0
  7  2  1  0
  7  8  2  0
  9  5  1  0
 10 11  1  0
 11 13  1  0
 12 11  2  0
 13 14  1  0
 15 14  1  1
 15 16  1  0
 16  7  1  0
 17 15  1  0
 18 17  2  0
 19 20  1  0
 20 21  1  0
 21 22  1  0
 23 22  1  6
 23 24  1  0
 23 25  1  0
 24 17  1  0
 25 27  1  0
 26 25  2  0
M  END
$$$$
