DGR.pdb
     RDKit          3D

 24 23  0  0  1  0  0  0  0  0999 V2000
   15.0534  -22.0803    0.2934 N   0  0  0  0  0  0  0  0  0  0  0  0
   13.8242  -22.3718    0.9621 C   0  0  1  0  0  0  0  0  0  0  0  0
   13.7483  -23.8315    1.3557 C   0  0  0  0  0  0  0  0  0  0  0  0
   13.8496  -24.7423    0.1985 C   0  0  0  0  0  0  0  0  0  0  0  0
   13.9928  -24.2696   -0.9405 O   0  0  0  0  0  0  0  0  0  0  0  0
   13.6391  -21.5816    2.2015 C   0  0  0  0  0  0  0  0  0  0  0  0
   12.5706  -21.6006    2.8594 O   0  0  0  0  0  0  0  0  0  0  0  0
   13.7796  -26.1129    0.4318 O   0  0  0  0  0  0  0  0  0  0  0  0
   14.6943  -20.7321    2.7298 N   0  0  0  0  0  0  0  0  0  0  0  0
   14.4734  -19.9929    3.9398 C   0  0  0  0  0  0  0  0  0  0  0  0
   15.6673  -19.2232    4.3362 C   0  0  0  0  0  0  0  0  0  0  0  0
   16.7494  -19.4432    3.6646 O   0  0  0  0  0  0  0  0  0  0  0  0
   18.3015  -11.1763    6.0862 N   0  0  0  0  0  0  0  0  0  0  0  0
   19.4166  -11.9956    6.3795 C   0  0  0  0  0  0  0  0  0  0  0  0
   20.5954  -11.4969    6.5642 N   0  0  0  0  0  0  0  0  0  0  0  0
   19.2953  -13.4225    6.4871 N   0  0  0  0  0  0  0  0  0  0  0  0
   18.0560  -14.1050    6.1862 C   0  0  0  0  0  0  0  0  0  0  0  0
   18.1610  -15.5843    6.4873 C   0  0  0  0  0  0  0  0  0  0  0  0
   16.8651  -16.2640    6.1620 C   0  0  0  0  0  0  0  0  0  0  0  0
   17.0857  -17.6755    5.6952 C   0  0  2  0  0  0  0  0  0  0  0  0
   15.7584  -18.2745    5.3660 N   0  0  0  0  0  0  0  0  0  0  0  0
   17.7135  -18.4571    6.7760 C   0  0  0  0  0  0  0  0  0  0  0  0
   19.0865  -18.6509    6.7451 O   0  0  0  0  0  0  0  0  0  0  0  0
   17.0848  -18.9504    7.7098 O   0  0  0  0  0  0  0  0  0  0  0  0
  2  1  1  1
  2  3  1  0
  3  4  1  0
  4  8  1  0
  4  5  2  0
  6  7  2  0
  6  2  1  0
  9  6  1  0
 10 11  1  0
 10  9  1  0
 11 21  1  0
 12 11  2  0
 14 13  1  0
 14 16  1  0
 15 14  2  0
 17 18  1  0
 17 16  1  0
 20 19  1  1
 19 18  1  0
 21 20  1  0
 22 20  1  0
 22 23  1  0
 24 22  2  0
M  END
$$$$
