DGR.pdb
     RDKit          3D

 24 23  0  0  1  0  0  0  0  0999 V2000
   27.6451  -12.5137  -17.8690 N   0  0  0  0  0  0  0  0  0  0  0  0
   28.5958  -11.8236  -17.0549 C   0  0  1  0  0  0  0  0  0  0  0  0
   29.7075  -11.2315  -17.8946 C   0  0  0  0  0  0  0  0  0  0  0  0
   30.4227  -12.2453  -18.6944 C   0  0  0  0  0  0  0  0  0  0  0  0
   31.3727  -11.8973  -19.4137 O   0  0  0  0  0  0  0  0  0  0  0  0
   27.9963  -10.7083  -16.2859 C   0  0  0  0  0  0  0  0  0  0  0  0
   28.6609  -10.0105  -15.4819 O   0  0  0  0  0  0  0  0  0  0  0  0
   29.9989  -13.5686  -18.6103 O   0  0  0  0  0  0  0  0  0  0  0  0
   26.5920  -10.3563  -16.4206 N   0  0  0  0  0  0  0  0  0  0  0  0
   26.0262   -9.3497  -15.5687 C   0  0  0  0  0  0  0  0  0  0  0  0
   24.6147   -9.0815  -15.9017 C   0  0  0  0  0  0  0  0  0  0  0  0
   24.2589   -9.2836  -17.1277 O   0  0  0  0  0  0  0  0  0  0  0  0
   17.5780  -13.1072  -15.2110 N   0  0  0  0  0  0  0  0  0  0  0  0
   17.9468  -12.5512  -16.4583 C   0  0  0  0  0  0  0  0  0  0  0  0
   17.6140  -13.1104  -17.5758 N   0  0  0  0  0  0  0  0  0  0  0  0
   18.7092  -11.3374  -16.5458 N   0  0  0  0  0  0  0  0  0  0  0  0
   19.1616  -10.6367  -15.3640 C   0  0  0  0  0  0  0  0  0  0  0  0
   19.9857   -9.4220  -15.7320 C   0  0  0  0  0  0  0  0  0  0  0  0
   21.3966   -9.6005  -15.2580 C   0  0  0  0  0  0  0  0  0  0  0  0
   22.2358   -8.3906  -15.5593 C   0  0  2  0  0  0  0  0  0  0  0  0
   23.6116   -8.6295  -15.0310 N   0  0  0  0  0  0  0  0  0  0  0  0
   21.6580   -7.2130  -14.8867 C   0  0  0  0  0  0  0  0  0  0  0  0
   20.4971   -6.6559  -15.4022 O   0  0  0  0  0  0  0  0  0  0  0  0
   22.1500   -6.6928  -13.8877 O   0  0  0  0  0  0  0  0  0  0  0  0
  2  1  1  6
  2  3  1  0
  3  4  1  0
  4  8  1  0
  4  5  2  0
  6  7  2  0
  6  2  1  0
  9  6  1  0
 10 11  1  0
 10  9  1  0
 11 21  1  0
 12 11  2  0
 14 13  1  0
 14 16  1  0
 15 14  2  0
 17 18  1  0
 17 16  1  0
 20 19  1  1
 19 18  1  0
 21 20  1  0
 22 20  1  0
 22 23  1  0
 24 22  2  0
M  END
$$$$
