DGR.pdb
     RDKit          3D

 24 23  0  0  1  0  0  0  0  0999 V2000
   22.0561  -18.0926  -18.5040 N   0  0  0  0  0  0  0  0  0  0  0  0
   22.1390  -16.7661  -17.9781 C   0  0  1  0  0  0  0  0  0  0  0  0
   20.7901  -16.2874  -17.4856 C   0  0  0  0  0  0  0  0  0  0  0  0
   19.7599  -16.2929  -18.5429 C   0  0  0  0  0  0  0  0  0  0  0  0
   19.0913  -17.3203  -18.7392 O   0  0  0  0  0  0  0  0  0  0  0  0
   23.0781  -16.6544  -16.8377 C   0  0  0  0  0  0  0  0  0  0  0  0
   23.3024  -15.5664  -16.2536 O   0  0  0  0  0  0  0  0  0  0  0  0
   19.5760  -15.1317  -19.2883 O   0  0  0  0  0  0  0  0  0  0  0  0
   23.7989  -17.8090  -16.3265 N   0  0  0  0  0  0  0  0  0  0  0  0
   24.6503  -17.6657  -15.1803 C   0  0  0  0  0  0  0  0  0  0  0  0
   25.1873  -18.9641  -14.7320 C   0  0  0  0  0  0  0  0  0  0  0  0
   24.8434  -20.0031  -15.4194 O   0  0  0  0  0  0  0  0  0  0  0  0
   26.9221  -19.2784   -6.9018 N   0  0  0  0  0  0  0  0  0  0  0  0
   25.9598  -20.2593   -7.2376 C   0  0  0  0  0  0  0  0  0  0  0  0
   25.0625  -20.6476   -6.3912 N   0  0  0  0  0  0  0  0  0  0  0  0
   25.9311  -20.8729   -8.5357 N   0  0  0  0  0  0  0  0  0  0  0  0
   26.6537  -20.3138   -9.6571 C   0  0  0  0  0  0  0  0  0  0  0  0
   26.5238  -21.1925  -10.8823 C   0  0  0  0  0  0  0  0  0  0  0  0
   27.2447  -20.5659  -12.0376 C   0  0  0  0  0  0  0  0  0  0  0  0
   26.4125  -20.5981  -13.2888 C   0  0  2  0  0  0  0  0  0  0  0  0
   26.0336  -19.1966  -13.6373 N   0  0  0  0  0  0  0  0  0  0  0  0
   25.1887  -21.3825  -13.0438 C   0  0  0  0  0  0  0  0  0  0  0  0
   25.1619  -22.7125  -13.4361 O   0  0  0  0  0  0  0  0  0  0  0  0
   24.1833  -20.9216  -12.5079 O   0  0  0  0  0  0  0  0  0  0  0  0
  2  1  1  1
  2  3  1  0
  3  4  1  0
  4  8  1  0
  4  5  2  0
  6  7  2  0
  6  2  1  0
  9  6  1  0
 10 11  1  0
 10  9  1  0
 11 21  1  0
 12 11  2  0
 14 13  1  0
 14 16  1  0
 15 14  2  0
 17 18  1  0
 17 16  1  0
 20 19  1  1
 19 18  1  0
 21 20  1  0
 22 20  1  0
 22 23  1  0
 24 22  2  0
M  END
$$$$
