DGR.pdb
     RDKit          3D

 24 23  0  0  1  0  0  0  0  0999 V2000
   27.2291  -21.3155  -18.2787 N   0  0  0  0  0  0  0  0  0  0  0  0
   27.4246  -20.2397  -17.3581 C   0  0  1  0  0  0  0  0  0  0  0  0
   26.2810  -19.2500  -17.4224 C   0  0  0  0  0  0  0  0  0  0  0  0
   26.1287  -18.6373  -18.7567 C   0  0  0  0  0  0  0  0  0  0  0  0
   25.0185  -18.6509  -19.3121 O   0  0  0  0  0  0  0  0  0  0  0  0
   27.5225  -20.6938  -15.9513 C   0  0  0  0  0  0  0  0  0  0  0  0
   26.8499  -21.6549  -15.5052 O   0  0  0  0  0  0  0  0  0  0  0  0
   27.2495  -18.0613  -19.3480 O   0  0  0  0  0  0  0  0  0  0  0  0
   28.4110  -20.0458  -15.0002 N   0  0  0  0  0  0  0  0  0  0  0  0
   28.5084  -20.5503  -13.6603 C   0  0  0  0  0  0  0  0  0  0  0  0
   27.3195  -20.2057  -12.8584 C   0  0  0  0  0  0  0  0  0  0  0  0
   27.1033  -18.9484  -12.6513 O   0  0  0  0  0  0  0  0  0  0  0  0
   19.2332  -22.3229  -13.1002 N   0  0  0  0  0  0  0  0  0  0  0  0
   20.1129  -21.3794  -13.6805 C   0  0  0  0  0  0  0  0  0  0  0  0
   19.9256  -20.9222  -14.8756 N   0  0  0  0  0  0  0  0  0  0  0  0
   21.2581  -20.8817  -12.9711 N   0  0  0  0  0  0  0  0  0  0  0  0
   21.5516  -21.2945  -11.6163 C   0  0  0  0  0  0  0  0  0  0  0  0
   22.8309  -20.6584  -11.1173 C   0  0  0  0  0  0  0  0  0  0  0  0
   23.9902  -21.1300  -11.9424 C   0  0  0  0  0  0  0  0  0  0  0  0
   25.2888  -20.5617  -11.4430 C   0  0  2  0  0  0  0  0  0  0  0  0
   26.3936  -21.0957  -12.2934 N   0  0  0  0  0  0  0  0  0  0  0  0
   25.5054  -20.9855  -10.0478 C   0  0  0  0  0  0  0  0  0  0  0  0
   24.8852  -20.2726   -9.0325 O   0  0  0  0  0  0  0  0  0  0  0  0
   26.2095  -21.9416   -9.7306 O   0  0  0  0  0  0  0  0  0  0  0  0
  2  1  1  6
  2  3  1  0
  3  4  1  0
  4  8  1  0
  4  5  2  0
  6  7  2  0
  6  2  1  0
  9  6  1  0
 10 11  1  0
 10  9  1  0
 11 21  1  0
 12 11  2  0
 14 13  1  0
 14 16  1  0
 15 14  2  0
 17 18  1  0
 17 16  1  0
 20 19  1  6
 19 18  1  0
 21 20  1  0
 22 20  1  0
 22 23  1  0
 24 22  2  0
M  END
$$$$
