DGR.pdb
     RDKit          3D

 24 23  0  0  1  0  0  0  0  0999 V2000
   27.1997  -25.2161  -15.9396 N   0  0  0  0  0  0  0  0  0  0  0  0
   26.8398  -24.4674  -17.1028 C   0  0  1  0  0  0  0  0  0  0  0  0
   25.8992  -25.2540  -17.9904 C   0  0  0  0  0  0  0  0  0  0  0  0
   24.7259  -25.7747  -17.2615 C   0  0  0  0  0  0  0  0  0  0  0  0
   23.6475  -25.1628  -17.3226 O   0  0  0  0  0  0  0  0  0  0  0  0
   26.1612  -23.1905  -16.7809 C   0  0  0  0  0  0  0  0  0  0  0  0
   25.6257  -22.4719  -17.6595 O   0  0  0  0  0  0  0  0  0  0  0  0
   24.8759  -26.9461  -16.5245 O   0  0  0  0  0  0  0  0  0  0  0  0
   26.0767  -22.6937  -15.4170 N   0  0  0  0  0  0  0  0  0  0  0  0
   25.3958  -21.4588  -15.1509 C   0  0  0  0  0  0  0  0  0  0  0  0
   23.9314  -21.6337  -15.1367 C   0  0  0  0  0  0  0  0  0  0  0  0
   23.4058  -22.2122  -16.1660 O   0  0  0  0  0  0  0  0  0  0  0  0
   17.8672  -26.0686  -12.2433 N   0  0  0  0  0  0  0  0  0  0  0  0
   18.2944  -26.5327  -13.5094 C   0  0  0  0  0  0  0  0  0  0  0  0
   17.5626  -27.3233  -14.2248 N   0  0  0  0  0  0  0  0  0  0  0  0
   19.5623  -26.1487  -14.0637 N   0  0  0  0  0  0  0  0  0  0  0  0
   20.5069  -25.3469  -13.3174 C   0  0  0  0  0  0  0  0  0  0  0  0
   20.3808  -23.8818  -13.6746 C   0  0  0  0  0  0  0  0  0  0  0  0
   21.7399  -23.2518  -13.7301 C   0  0  0  0  0  0  0  0  0  0  0  0
   21.6584  -21.7992  -14.1074 C   0  0  2  0  0  0  0  0  0  0  0  0
   23.0425  -21.2399  -14.1251 N   0  0  0  0  0  0  0  0  0  0  0  0
   20.8580  -21.0757  -13.1028 C   0  0  0  0  0  0  0  0  0  0  0  0
   21.5008  -20.1838  -12.2574 O   0  0  0  0  0  0  0  0  0  0  0  0
   19.6445  -21.2191  -12.9708 O   0  0  0  0  0  0  0  0  0  0  0  0
  2  1  1  1
  2  3  1  0
  3  4  1  0
  4  8  1  0
  4  5  2  0
  6  7  2  0
  6  2  1  0
  9  6  1  0
 10 11  1  0
 10  9  1  0
 11 21  1  0
 12 11  2  0
 14 13  1  0
 14 16  1  0
 15 14  2  0
 17 18  1  0
 17 16  1  0
 20 19  1  1
 19 18  1  0
 21 20  1  0
 22 20  1  0
 22 23  1  0
 24 22  2  0
M  END
$$$$
