DGR.pdb
     RDKit          3D

 24 23  0  0  1  0  0  0  0  0999 V2000
   23.2683  -19.5179  -17.0492 N   0  0  0  0  0  0  0  0  0  0  0  0
   23.9059  -19.2127  -15.8069 C   0  0  1  0  0  0  0  0  0  0  0  0
   24.3984  -17.7816  -15.7817 C   0  0  0  0  0  0  0  0  0  0  0  0
   25.4364  -17.5156  -16.7970 C   0  0  0  0  0  0  0  0  0  0  0  0
   25.7583  -16.3435  -17.0492 O   0  0  0  0  0  0  0  0  0  0  0  0
   23.0079  -19.3796  -14.6404 C   0  0  0  0  0  0  0  0  0  0  0  0
   23.3830  -19.1555  -13.4639 O   0  0  0  0  0  0  0  0  0  0  0  0
   26.0211  -18.6027  -17.4406 O   0  0  0  0  0  0  0  0  0  0  0  0
   21.6296  -19.8162  -14.7944 N   0  0  0  0  0  0  0  0  0  0  0  0
   20.8506  -20.1354  -13.6323 C   0  0  0  0  0  0  0  0  0  0  0  0
   20.3110  -21.5065  -13.6953 C   0  0  0  0  0  0  0  0  0  0  0  0
   20.0764  -21.9846  -14.8729 O   0  0  0  0  0  0  0  0  0  0  0  0
   15.5983  -26.4850   -9.8806 N   0  0  0  0  0  0  0  0  0  0  0  0
   16.3406  -27.6518  -10.1776 C   0  0  0  0  0  0  0  0  0  0  0  0
   15.7757  -28.8118  -10.2651 N   0  0  0  0  0  0  0  0  0  0  0  0
   17.7591  -27.6064  -10.3972 N   0  0  0  0  0  0  0  0  0  0  0  0
   18.5012  -26.3673  -10.3196 C   0  0  0  0  0  0  0  0  0  0  0  0
   18.6176  -25.7151  -11.6802 C   0  0  0  0  0  0  0  0  0  0  0  0
   19.4590  -24.4783  -11.5824 C   0  0  0  0  0  0  0  0  0  0  0  0
   19.4631  -23.7116  -12.8751 C   0  0  2  0  0  0  0  0  0  0  0  0
   20.0231  -22.3525  -12.6136 N   0  0  0  0  0  0  0  0  0  0  0  0
   18.0811  -23.5774  -13.3702 C   0  0  0  0  0  0  0  0  0  0  0  0
   17.5540  -24.5931  -14.1538 O   0  0  0  0  0  0  0  0  0  0  0  0
   17.3640  -22.6094  -13.1264 O   0  0  0  0  0  0  0  0  0  0  0  0
  2  1  1  6
  2  3  1  0
  3  4  1  0
  4  8  1  0
  4  5  2  0
  6  7  2  0
  6  2  1  0
  9  6  1  0
 10 11  1  0
 10  9  1  0
 11 21  1  0
 12 11  2  0
 14 13  1  0
 14 16  1  0
 15 14  2  0
 17 18  1  0
 17 16  1  0
 20 19  1  1
 19 18  1  0
 21 20  1  0
 22 20  1  0
 22 23  1  0
 24 22  2  0
M  END
$$$$
