DGR.pdb
     RDKit          3D

 24 23  0  0  1  0  0  0  0  0999 V2000
   27.2761  -21.3228   -9.2809 N   0  0  0  0  0  0  0  0  0  0  0  0
   27.7391  -20.8748  -10.5568 C   0  0  1  0  0  0  0  0  0  0  0  0
   28.9303  -21.6849  -11.0219 C   0  0  0  0  0  0  0  0  0  0  0  0
   29.9907  -21.7820   -9.9995 C   0  0  0  0  0  0  0  0  0  0  0  0
   29.8285  -21.2349   -8.8971 O   0  0  0  0  0  0  0  0  0  0  0  0
   26.7077  -20.9795  -11.6151 C   0  0  0  0  0  0  0  0  0  0  0  0
   26.8219  -20.4074  -12.7262 O   0  0  0  0  0  0  0  0  0  0  0  0
   31.1458  -22.4920  -10.3151 O   0  0  0  0  0  0  0  0  0  0  0  0
   25.4944  -21.7578  -11.4241 N   0  0  0  0  0  0  0  0  0  0  0  0
   24.5811  -21.9309  -12.5173 C   0  0  0  0  0  0  0  0  0  0  0  0
   23.3326  -21.1731  -12.3122 C   0  0  0  0  0  0  0  0  0  0  0  0
   23.4006  -20.1406  -11.5378 O   0  0  0  0  0  0  0  0  0  0  0  0
   23.3845  -17.3033  -19.1743 N   0  0  0  0  0  0  0  0  0  0  0  0
   22.1756  -16.8043  -18.6354 C   0  0  0  0  0  0  0  0  0  0  0  0
   21.5592  -15.7994  -19.1670 N   0  0  0  0  0  0  0  0  0  0  0  0
   21.5722  -17.3890  -17.4708 N   0  0  0  0  0  0  0  0  0  0  0  0
   22.2163  -18.4544  -16.7344 C   0  0  0  0  0  0  0  0  0  0  0  0
   21.4272  -18.8150  -15.4945 C   0  0  0  0  0  0  0  0  0  0  0  0
   22.0975  -19.9463  -14.7748 C   0  0  0  0  0  0  0  0  0  0  0  0
   21.3211  -20.3608  -13.5564 C   0  0  2  0  0  0  0  0  0  0  0  0
   22.0742  -21.4503  -12.8674 N   0  0  0  0  0  0  0  0  0  0  0  0
   20.0004  -20.8712  -13.9666 C   0  0  0  0  0  0  0  0  0  0  0  0
   18.8743  -20.1199  -13.6650 O   0  0  0  0  0  0  0  0  0  0  0  0
   19.8392  -21.9326  -14.5650 O   0  0  0  0  0  0  0  0  0  0  0  0
  2  1  1  1
  2  3  1  0
  3  4  1  0
  4  8  1  0
  4  5  2  0
  6  7  2  0
  6  2  1  0
  9  6  1  0
 10 11  1  0
 10  9  1  0
 11 21  1  0
 12 11  2  0
 14 13  1  0
 14 16  1  0
 15 14  2  0
 17 18  1  0
 17 16  1  0
 20 19  1  6
 19 18  1  0
 21 20  1  0
 22 20  1  0
 22 23  1  0
 24 22  2  0
M  END
$$$$
