DGR.pdb
     RDKit          3D

 24 23  0  0  1  0  0  0  0  0999 V2000
   25.4751  -20.5539  -17.6672 N   0  0  0  0  0  0  0  0  0  0  0  0
   26.0980  -19.5088  -16.9170 C   0  0  1  0  0  0  0  0  0  0  0  0
   26.0496  -18.1941  -17.6657 C   0  0  0  0  0  0  0  0  0  0  0  0
   26.7964  -18.2325  -18.9384 C   0  0  0  0  0  0  0  0  0  0  0  0
   26.9231  -19.3109  -19.5402 O   0  0  0  0  0  0  0  0  0  0  0  0
   25.4551  -19.2794  -15.6021 C   0  0  0  0  0  0  0  0  0  0  0  0
   25.8433  -18.3879  -14.8086 O   0  0  0  0  0  0  0  0  0  0  0  0
   27.3365  -17.0435  -19.4205 O   0  0  0  0  0  0  0  0  0  0  0  0
   24.3282  -20.0811  -15.1532 N   0  0  0  0  0  0  0  0  0  0  0  0
   23.7261  -19.8110  -13.8788 C   0  0  0  0  0  0  0  0  0  0  0  0
   22.5370  -20.6520  -13.6465 C   0  0  0  0  0  0  0  0  0  0  0  0
   22.2435  -21.5097  -14.5678 O   0  0  0  0  0  0  0  0  0  0  0  0
   18.4175  -24.5913   -7.4032 N   0  0  0  0  0  0  0  0  0  0  0  0
   18.0788  -25.2548   -8.6057 C   0  0  0  0  0  0  0  0  0  0  0  0
   17.2233  -26.2243   -8.6281 N   0  0  0  0  0  0  0  0  0  0  0  0
   18.6680  -24.8846   -9.8619 N   0  0  0  0  0  0  0  0  0  0  0  0
   19.6098  -23.7919   -9.9674 C   0  0  0  0  0  0  0  0  0  0  0  0
   19.0285  -22.6460  -10.7669 C   0  0  0  0  0  0  0  0  0  0  0  0
   20.0775  -21.5998  -10.9950 C   0  0  0  0  0  0  0  0  0  0  0  0
   20.6233  -21.6632  -12.3940 C   0  0  2  0  0  0  0  0  0  0  0  0
   21.6860  -20.6236  -12.5314 N   0  0  0  0  0  0  0  0  0  0  0  0
   19.5425  -21.3791  -13.3554 C   0  0  0  0  0  0  0  0  0  0  0  0
   18.7957  -22.4387  -13.8483 O   0  0  0  0  0  0  0  0  0  0  0  0
   19.2636  -20.2484  -13.7480 O   0  0  0  0  0  0  0  0  0  0  0  0
  2  1  1  6
  2  3  1  0
  3  4  1  0
  4  8  1  0
  4  5  2  0
  6  7  2  0
  6  2  1  0
  9  6  1  0
 10 11  1  0
 10  9  1  0
 11 21  1  0
 12 11  2  0
 14 13  1  0
 14 16  1  0
 15 14  2  0
 17 18  1  0
 17 16  1  0
 20 19  1  1
 19 18  1  0
 21 20  1  0
 22 20  1  0
 22 23  1  0
 24 22  2  0
M  END
$$$$
