DGR.pdb
     RDKit          3D

 24 23  0  0  1  0  0  0  0  0999 V2000
   27.5109  -16.2538  -19.0027 N   0  0  0  0  0  0  0  0  0  0  0  0
   26.2181  -16.5690  -18.4807 C   0  0  1  0  0  0  0  0  0  0  0  0
   25.5950  -17.7295  -19.2266 C   0  0  0  0  0  0  0  0  0  0  0  0
   25.3647  -17.4346  -20.6546 C   0  0  0  0  0  0  0  0  0  0  0  0
   25.3703  -16.2557  -21.0436 O   0  0  0  0  0  0  0  0  0  0  0  0
   26.2494  -16.9451  -17.0481 C   0  0  0  0  0  0  0  0  0  0  0  0
   25.2131  -17.2476  -16.4081 O   0  0  0  0  0  0  0  0  0  0  0  0
   25.1472  -18.5028  -21.5203 O   0  0  0  0  0  0  0  0  0  0  0  0
   27.4934  -16.9852  -16.2965 N   0  0  0  0  0  0  0  0  0  0  0  0
   27.4722  -17.3315  -14.9040 C   0  0  0  0  0  0  0  0  0  0  0  0
   27.1358  -18.7527  -14.6989 C   0  0  0  0  0  0  0  0  0  0  0  0
   27.1246  -19.5043  -15.7503 O   0  0  0  0  0  0  0  0  0  0  0  0
   24.9953  -20.9070   -6.8598 N   0  0  0  0  0  0  0  0  0  0  0  0
   23.9580  -21.0284   -7.8138 C   0  0  0  0  0  0  0  0  0  0  0  0
   22.7593  -21.3739   -7.4729 N   0  0  0  0  0  0  0  0  0  0  0  0
   24.1842  -20.7737   -9.2089 N   0  0  0  0  0  0  0  0  0  0  0  0
   25.3650  -21.2592   -9.8888 C   0  0  0  0  0  0  0  0  0  0  0  0
   25.4100  -20.7704  -11.3202 C   0  0  0  0  0  0  0  0  0  0  0  0
   26.6386  -21.2956  -11.9998 C   0  0  0  0  0  0  0  0  0  0  0  0
   26.6967  -20.8681  -13.4396 C   0  0  2  0  0  0  0  0  0  0  0  0
   26.8256  -19.3814  -13.4835 N   0  0  0  0  0  0  0  0  0  0  0  0
   25.4506  -21.2652  -14.1198 C   0  0  0  0  0  0  0  0  0  0  0  0
   25.3302  -22.5681  -14.5795 O   0  0  0  0  0  0  0  0  0  0  0  0
   24.5053  -20.5016  -14.3041 O   0  0  0  0  0  0  0  0  0  0  0  0
  2  1  1  6
  2  3  1  0
  3  4  1  0
  4  8  1  0
  4  5  2  0
  6  7  2  0
  6  2  1  0
  9  6  1  0
 10 11  1  0
 10  9  1  0
 11 21  1  0
 12 11  2  0
 14 13  1  0
 14 16  1  0
 15 14  2  0
 17 18  1  0
 17 16  1  0
 20 19  1  1
 19 18  1  0
 21 20  1  0
 22 20  1  0
 22 23  1  0
 24 22  2  0
M  END
$$$$
