GAN.pdb
     RDKit          3D

 18 17  0  0  1  0  0  0  0  0999 V2000
   29.2496  -23.1644  -16.5165 N   0  0  0  0  0  0  0  0  0  0  0  0
   28.5828  -22.1306  -17.2368 C   0  0  0  0  0  0  0  0  0  0  0  0
   27.7351  -21.2641  -16.3979 C   0  0  0  0  0  0  0  0  0  0  0  0
   27.4242  -21.6876  -15.2542 O   0  0  0  0  0  0  0  0  0  0  0  0
   26.3332  -17.7967  -16.5853 C   0  0  0  0  0  0  0  0  0  0  0  0
   26.4031  -19.2279  -16.0320 C   0  0  2  0  0  0  0  0  0  0  0  0
   27.2886  -20.0014  -16.8657 N   0  0  0  0  0  0  0  0  0  0  0  0
   25.0324  -19.7349  -16.0126 C   0  0  0  0  0  0  0  0  0  0  0  0
   24.5875  -20.3530  -17.0092 O   0  0  0  0  0  0  0  0  0  0  0  0
   20.4187  -21.2024  -14.3785 N   0  0  0  0  0  0  0  0  0  0  0  0
   20.9815  -20.5451  -13.2381 C   0  0  0  0  0  0  0  0  0  0  0  0
   20.2988  -20.5209  -12.1855 O   0  0  0  0  0  0  0  0  0  0  0  0
   22.3275  -19.9339  -13.3592 C   0  0  0  0  0  0  0  0  0  0  0  0
   22.8792  -20.0492  -14.7492 C   0  0  2  0  0  0  0  0  0  0  0  0
   24.2258  -19.5206  -14.8679 N   0  0  0  0  0  0  0  0  0  0  0  0
   22.0029  -19.3771  -15.7429 C   0  0  0  0  0  0  0  0  0  0  0  0
   21.0637  -20.0791  -16.4967 O   0  0  0  0  0  0  0  0  0  0  0  0
   22.0706  -18.1382  -15.9488 O   0  0  0  0  0  0  0  0  0  0  0  0
  2  1  1  0
  3  2  1  0
  4  3  2  0
  6  5  1  6
  6  7  1  0
  7  3  1  0
  8  9  2  0
  8  6  1  0
 11 10  1  0
 11 13  1  0
 12 11  2  0
 14 13  1  1
 14 15  1  0
 15  8  1  0
 16 14  1  0
 17 16  1  0
 18 16  2  0
M  END
$$$$
