GAN.pdb
     RDKit          3D

 18 17  0  0  1  0  0  0  0  0999 V2000
   16.9760  -13.4295  -14.9670 N   0  0  0  0  0  0  0  0  0  0  0  0
   16.9560  -12.0580  -15.3550 C   0  0  0  0  0  0  0  0  0  0  0  0
   17.4239  -11.1306  -14.3090 C   0  0  0  0  0  0  0  0  0  0  0  0
   17.3896  -11.5342  -13.1174 O   0  0  0  0  0  0  0  0  0  0  0  0
   19.0135   -7.7399  -14.1697 C   0  0  0  0  0  0  0  0  0  0  0  0
   18.2699   -8.9419  -13.5684 C   0  0  2  0  0  0  0  0  0  0  0  0
   17.8943   -9.8330  -14.6373 N   0  0  0  0  0  0  0  0  0  0  0  0
   17.1278   -8.4010  -12.8342 C   0  0  0  0  0  0  0  0  0  0  0  0
   16.0221   -8.2782  -13.4135 O   0  0  0  0  0  0  0  0  0  0  0  0
   14.1164   -6.7431   -9.0434 N   0  0  0  0  0  0  0  0  0  0  0  0
   15.3066   -7.1800   -8.3789 C   0  0  0  0  0  0  0  0  0  0  0  0
   15.3402   -7.0897   -7.1277 O   0  0  0  0  0  0  0  0  0  0  0  0
   16.4254   -7.7107   -9.1952 C   0  0  0  0  0  0  0  0  0  0  0  0
   16.1838   -7.5418  -10.6658 C   0  0  2  0  0  0  0  0  0  0  0  0
   17.2862   -8.0230  -11.4781 N   0  0  0  0  0  0  0  0  0  0  0  0
   15.9036   -6.1254  -11.0149 C   0  0  0  0  0  0  0  0  0  0  0  0
   14.6042   -5.6398  -11.1533 O   0  0  0  0  0  0  0  0  0  0  0  0
   16.8317   -5.2975  -11.2019 O   0  0  0  0  0  0  0  0  0  0  0  0
  2  1  1  0
  3  2  1  0
  4  3  2  0
  6  5  1  6
  6  7  1  0
  7  3  1  0
  8  9  2  0
  8  6  1  0
 11 10  1  0
 11 13  1  0
 12 11  2  0
 14 13  1  1
 14 15  1  0
 15  8  1  0
 16 14  1  0
 17 16  1  0
 18 16  2  0
M  END
$$$$
