GAN.pdb
     RDKit          3D

 18 17  0  0  1  0  0  0  0  0999 V2000
   17.7538  -12.6818  -16.0460 N   0  0  0  0  0  0  0  0  0  0  0  0
   17.3285  -11.4631  -16.6510 C   0  0  0  0  0  0  0  0  0  0  0  0
   18.3984  -10.4595  -16.7975 C   0  0  0  0  0  0  0  0  0  0  0  0
   19.5232  -10.7335  -16.3039 O   0  0  0  0  0  0  0  0  0  0  0  0
   18.9158   -7.2899  -18.7007 C   0  0  0  0  0  0  0  0  0  0  0  0
   19.2463   -8.2859  -17.5792 C   0  0  2  0  0  0  0  0  0  0  0  0
   18.1647   -9.2324  -17.4701 N   0  0  0  0  0  0  0  0  0  0  0  0
   19.4517   -7.4958  -16.3668 C   0  0  0  0  0  0  0  0  0  0  0  0
   18.5030   -7.3416  -15.5610 O   0  0  0  0  0  0  0  0  0  0  0  0
   21.6497   -5.2815  -12.3673 N   0  0  0  0  0  0  0  0  0  0  0  0
   21.4240   -6.6941  -12.4194 C   0  0  0  0  0  0  0  0  0  0  0  0
   21.5801   -7.3471  -11.3592 O   0  0  0  0  0  0  0  0  0  0  0  0
   21.0219   -7.3052  -13.7096 C   0  0  0  0  0  0  0  0  0  0  0  0
   21.0742   -6.3234  -14.8423 C   0  0  2  0  0  0  0  0  0  0  0  0
   20.7201   -6.9153  -16.1195 N   0  0  0  0  0  0  0  0  0  0  0  0
   22.4125   -5.6883  -14.9543 C   0  0  0  0  0  0  0  0  0  0  0  0
   22.7510   -4.5427  -14.2358 O   0  0  0  0  0  0  0  0  0  0  0  0
   23.3037   -6.1591  -15.7064 O   0  0  0  0  0  0  0  0  0  0  0  0
  2  1  1  0
  3  2  1  0
  4  3  2  0
  6  5  1  6
  6  7  1  0
  7  3  1  0
  8  9  2  0
  8  6  1  0
 11 10  1  0
 11 13  1  0
 12 11  2  0
 14 13  1  1
 14 15  1  0
 15  8  1  0
 16 14  1  0
 17 16  1  0
 18 16  2  0
M  END
$$$$
