GAN.pdb
     RDKit          3D

 18 17  0  0  1  0  0  0  0  0999 V2000
   19.3607  -12.8799  -18.2150 N   0  0  0  0  0  0  0  0  0  0  0  0
   19.1898  -11.5682  -18.7465 C   0  0  0  0  0  0  0  0  0  0  0  0
   20.3497  -10.6814  -18.5427 C   0  0  0  0  0  0  0  0  0  0  0  0
   21.0318  -10.8481  -17.4983 O   0  0  0  0  0  0  0  0  0  0  0  0
   22.1506   -8.0336  -20.4828 C   0  0  0  0  0  0  0  0  0  0  0  0
   21.7691   -8.7807  -19.1962 C   0  0  2  0  0  0  0  0  0  0  0  0
   20.6811   -9.6792  -19.4905 N   0  0  0  0  0  0  0  0  0  0  0  0
   21.4288   -7.7603  -18.2067 C   0  0  0  0  0  0  0  0  0  0  0  0
   20.2278   -7.4431  -18.0334 O   0  0  0  0  0  0  0  0  0  0  0  0
   21.7921   -4.2549  -14.4941 N   0  0  0  0  0  0  0  0  0  0  0  0
   22.2503   -5.5364  -14.0504 C   0  0  0  0  0  0  0  0  0  0  0  0
   22.4284   -5.6954  -12.8185 O   0  0  0  0  0  0  0  0  0  0  0  0
   22.4880   -6.5975  -15.0591 C   0  0  0  0  0  0  0  0  0  0  0  0
   22.2002   -6.1278  -16.4542 C   0  0  2  0  0  0  0  0  0  0  0  0
   22.4610   -7.1441  -17.4572 N   0  0  0  0  0  0  0  0  0  0  0  0
   22.9721   -4.9036  -16.7892 C   0  0  0  0  0  0  0  0  0  0  0  0
   23.8265   -4.8445  -17.8891 O   0  0  0  0  0  0  0  0  0  0  0  0
   22.8879   -3.8608  -16.0912 O   0  0  0  0  0  0  0  0  0  0  0  0
  2  1  1  0
  3  2  1  0
  4  3  2  0
  6  5  1  6
  6  7  1  0
  7  3  1  0
  8  9  2  0
  8  6  1  0
 11 10  1  0
 11 13  1  0
 12 11  2  0
 14 13  1  1
 14 15  1  0
 15  8  1  0
 16 14  1  0
 17 16  1  0
 18 16  2  0
M  END
$$$$
