GAN.pdb
     RDKit          3D

 18 17  0  0  1  0  0  0  0  0999 V2000
   22.9241  -17.4636  -15.8132 N   0  0  0  0  0  0  0  0  0  0  0  0
   23.5515  -16.3996  -16.5249 C   0  0  0  0  0  0  0  0  0  0  0  0
   23.6629  -15.1463  -15.7569 C   0  0  0  0  0  0  0  0  0  0  0  0
   22.7002  -14.8368  -15.0076 O   0  0  0  0  0  0  0  0  0  0  0  0
   26.3077  -12.5952  -15.0647 C   0  0  0  0  0  0  0  0  0  0  0  0
   24.8555  -13.0937  -15.1096 C   0  0  2  0  0  0  0  0  0  0  0  0
   24.8134  -14.3228  -15.8614 N   0  0  0  0  0  0  0  0  0  0  0  0
   24.0642  -12.0197  -15.7069 C   0  0  0  0  0  0  0  0  0  0  0  0
   23.8947  -11.9939  -16.9493 O   0  0  0  0  0  0  0  0  0  0  0  0
   20.8351   -8.0793  -16.2203 N   0  0  0  0  0  0  0  0  0  0  0  0
   20.8102   -8.3775  -14.8204 C   0  0  0  0  0  0  0  0  0  0  0  0
   19.9819   -7.7590  -14.1091 O   0  0  0  0  0  0  0  0  0  0  0  0
   21.7544   -9.3909  -14.2900 C   0  0  0  0  0  0  0  0  0  0  0  0
   22.5890  -10.0090  -15.3722 C   0  0  2  0  0  0  0  0  0  0  0  0
   23.4998  -11.0231  -14.8732 N   0  0  0  0  0  0  0  0  0  0  0  0
   23.3630   -8.9841  -16.1187 C   0  0  0  0  0  0  0  0  0  0  0  0
   22.8113   -8.2659  -17.1785 O   0  0  0  0  0  0  0  0  0  0  0  0
   24.5568   -8.7180  -15.8257 O   0  0  0  0  0  0  0  0  0  0  0  0
  2  1  1  0
  3  2  1  0
  4  3  2  0
  6  5  1  6
  6  7  1  0
  7  3  1  0
  8  9  2  0
  8  6  1  0
 11 10  1  0
 11 13  1  0
 12 11  2  0
 14 13  1  1
 14 15  1  0
 15  8  1  0
 16 14  1  0
 17 16  1  0
 18 16  2  0
M  END
$$$$
