GAN.pdb
     RDKit          3D

 18 17  0  0  1  0  0  0  0  0999 V2000
   20.5907  -12.6327  -16.6931 N   0  0  0  0  0  0  0  0  0  0  0  0
   19.2994  -12.0957  -16.4165 C   0  0  0  0  0  0  0  0  0  0  0  0
   19.2219  -10.6280  -16.5305 C   0  0  0  0  0  0  0  0  0  0  0  0
   20.2335  -10.0258  -16.9754 O   0  0  0  0  0  0  0  0  0  0  0  0
   16.5779   -8.0064  -16.0665 C   0  0  0  0  0  0  0  0  0  0  0  0
   18.0076   -8.4963  -16.3409 C   0  0  2  0  0  0  0  0  0  0  0  0
   18.0494   -9.9247  -16.1519 N   0  0  0  0  0  0  0  0  0  0  0  0
   18.8821   -7.7633  -15.4276 C   0  0  0  0  0  0  0  0  0  0  0  0
   19.1921   -8.2741  -14.3248 O   0  0  0  0  0  0  0  0  0  0  0  0
   22.0660   -4.2511  -13.5002 N   0  0  0  0  0  0  0  0  0  0  0  0
   22.6206   -5.0275  -14.5672 C   0  0  0  0  0  0  0  0  0  0  0  0
   23.8619   -4.9715  -14.7425 O   0  0  0  0  0  0  0  0  0  0  0  0
   21.7089   -5.8485  -15.4006 C   0  0  0  0  0  0  0  0  0  0  0  0
   20.2779   -5.7204  -14.9699 C   0  0  2  0  0  0  0  0  0  0  0  0
   19.3672   -6.4859  -15.8015 N   0  0  0  0  0  0  0  0  0  0  0  0
   19.8390   -4.3014  -14.9455 C   0  0  0  0  0  0  0  0  0  0  0  0
   19.4628   -3.6225  -16.1034 O   0  0  0  0  0  0  0  0  0  0  0  0
   19.7875   -3.6467  -13.8729 O   0  0  0  0  0  0  0  0  0  0  0  0
  2  1  1  0
  3  2  1  0
  4  3  2  0
  6  5  1  1
  6  7  1  0
  7  3  1  0
  8  9  2  0
  8  6  1  0
 11 10  1  0
 11 13  1  0
 12 11  2  0
 14 13  1  6
 14 15  1  0
 15  8  1  0
 16 14  1  0
 17 16  1  0
 18 16  2  0
M  END
$$$$
