GAN.pdb
     RDKit          3D

 18 17  0  0  1  0  0  0  0  0999 V2000
   19.5303  -11.5766  -18.5299 N   0  0  0  0  0  0  0  0  0  0  0  0
   20.4217  -12.2191  -17.6217 C   0  0  0  0  0  0  0  0  0  0  0  0
   20.9594  -11.3292  -16.5766 C   0  0  0  0  0  0  0  0  0  0  0  0
   20.1331  -10.7594  -15.8174 O   0  0  0  0  0  0  0  0  0  0  0  0
   24.3460  -10.3605  -15.2917 C   0  0  0  0  0  0  0  0  0  0  0  0
   22.8236  -10.2081  -15.4266 C   0  0  2  0  0  0  0  0  0  0  0  0
   22.3563  -11.1256  -16.4354 N   0  0  0  0  0  0  0  0  0  0  0  0
   22.5722   -8.8062  -15.7547 C   0  0  0  0  0  0  0  0  0  0  0  0
   22.4937   -8.4568  -16.9567 O   0  0  0  0  0  0  0  0  0  0  0  0
   19.1313   -4.5470  -16.3791 N   0  0  0  0  0  0  0  0  0  0  0  0
   20.4477   -4.8873  -15.9315 C   0  0  0  0  0  0  0  0  0  0  0  0
   21.2772   -3.9545  -15.8030 O   0  0  0  0  0  0  0  0  0  0  0  0
   20.7588   -6.3091  -15.6462 C   0  0  0  0  0  0  0  0  0  0  0  0
   22.0792   -6.4724  -14.9537 C   0  0  2  0  0  0  0  0  0  0  0  0
   22.4208   -7.8619  -14.7096 N   0  0  0  0  0  0  0  0  0  0  0  0
   22.1185   -5.7282  -13.6686 C   0  0  0  0  0  0  0  0  0  0  0  0
   22.5697   -4.4117  -13.5886 O   0  0  0  0  0  0  0  0  0  0  0  0
   21.7442   -6.2564  -12.5903 O   0  0  0  0  0  0  0  0  0  0  0  0
  2  1  1  0
  3  2  1  0
  4  3  2  0
  6  5  1  6
  6  7  1  0
  7  3  1  0
  8  9  2  0
  8  6  1  0
 11 10  1  0
 11 13  1  0
 12 11  2  0
 14 13  1  1
 14 15  1  0
 15  8  1  0
 16 14  1  0
 17 16  1  0
 18 16  2  0
M  END
$$$$
