GAN.pdb
     RDKit          3D

 18 17  0  0  1  0  0  0  0  0999 V2000
   17.0392  -14.8620  -15.8373 N   0  0  0  0  0  0  0  0  0  0  0  0
   17.4551  -13.7590  -16.6388 C   0  0  0  0  0  0  0  0  0  0  0  0
   18.4296  -12.8707  -15.9796 C   0  0  0  0  0  0  0  0  0  0  0  0
   18.1738  -12.4979  -14.8051 O   0  0  0  0  0  0  0  0  0  0  0  0
   21.8143  -11.4598  -16.7105 C   0  0  0  0  0  0  0  0  0  0  0  0
   20.4386  -11.4508  -16.0275 C   0  0  2  0  0  0  0  0  0  0  0  0
   19.6098  -12.4541  -16.6475 N   0  0  0  0  0  0  0  0  0  0  0  0
   19.9122  -10.0945  -16.1676 C   0  0  0  0  0  0  0  0  0  0  0  0
   18.9738   -9.8752  -16.9704 O   0  0  0  0  0  0  0  0  0  0  0  0
   17.4727   -5.5160  -15.9400 N   0  0  0  0  0  0  0  0  0  0  0  0
   18.1723   -6.1114  -14.8422 C   0  0  0  0  0  0  0  0  0  0  0  0
   18.4023   -5.3916  -13.8405 O   0  0  0  0  0  0  0  0  0  0  0  0
   18.5843   -7.5325  -14.9454 C   0  0  0  0  0  0  0  0  0  0  0  0
   19.9847   -7.6805  -15.4617 C   0  0  2  0  0  0  0  0  0  0  0  0
   20.4700   -9.0468  -15.3943 N   0  0  0  0  0  0  0  0  0  0  0  0
   20.9307   -6.7915  -14.7394 C   0  0  0  0  0  0  0  0  0  0  0  0
   21.8749   -7.2878  -13.8420 O   0  0  0  0  0  0  0  0  0  0  0  0
   20.9210   -5.5451  -14.9068 O   0  0  0  0  0  0  0  0  0  0  0  0
  2  1  1  0
  3  2  1  0
  4  3  2  0
  6  5  1  6
  6  7  1  0
  7  3  1  0
  8  9  2  0
  8  6  1  0
 11 10  1  0
 11 13  1  0
 12 11  2  0
 14 13  1  1
 14 15  1  0
 15  8  1  0
 16 14  1  0
 17 16  1  0
 18 16  2  0
M  END
$$$$
