GAN.pdb
     RDKit          3D

 18 17  0  0  1  0  0  0  0  0999 V2000
   16.1030  -14.1036  -15.7081 N   0  0  0  0  0  0  0  0  0  0  0  0
   16.0603  -12.6822  -15.8080 C   0  0  0  0  0  0  0  0  0  0  0  0
   16.7560  -11.9816  -14.7134 C   0  0  0  0  0  0  0  0  0  0  0  0
   16.5401  -12.3797  -13.5392 O   0  0  0  0  0  0  0  0  0  0  0  0
   19.3775   -9.3388  -14.3623 C   0  0  0  0  0  0  0  0  0  0  0  0
   18.1810  -10.1637  -13.8653 C   0  0  2  0  0  0  0  0  0  0  0  0
   17.6351  -10.8999  -14.9778 N   0  0  0  0  0  0  0  0  0  0  0  0
   17.2370   -9.2161  -13.2762 C   0  0  0  0  0  0  0  0  0  0  0  0
   16.3939   -8.6463  -14.0094 O   0  0  0  0  0  0  0  0  0  0  0  0
   15.9160   -6.5649   -7.8971 N   0  0  0  0  0  0  0  0  0  0  0  0
   15.4750   -7.0824   -9.1567 C   0  0  0  0  0  0  0  0  0  0  0  0
   14.4395   -6.5832   -9.6598 O   0  0  0  0  0  0  0  0  0  0  0  0
   16.2567   -8.1698   -9.7942 C   0  0  0  0  0  0  0  0  0  0  0  0
   16.4933   -7.9171  -11.2536 C   0  0  2  0  0  0  0  0  0  0  0  0
   17.2881   -8.9547  -11.8848 N   0  0  0  0  0  0  0  0  0  0  0  0
   17.1413   -6.6001  -11.4826 C   0  0  0  0  0  0  0  0  0  0  0  0
   18.5263   -6.4433  -11.4656 O   0  0  0  0  0  0  0  0  0  0  0  0
   16.4648   -5.5631  -11.7031 O   0  0  0  0  0  0  0  0  0  0  0  0
  2  1  1  0
  3  2  1  0
  4  3  2  0
  6  5  1  6
  6  7  1  0
  7  3  1  0
  8  9  2  0
  8  6  1  0
 11 10  1  0
 11 13  1  0
 12 11  2  0
 14 13  1  1
 14 15  1  0
 15  8  1  0
 16 14  1  0
 17 16  1  0
 18 16  2  0
M  END
$$$$
