SIC.pdb
     RDKit          3D

 21 20  0  0  1  0  0  0  0  0999 V2000
   16.4384  -13.0328  -14.1495 O   0  0  0  0  0  0  0  0  0  0  0  0
   17.0994  -11.8498  -14.3500 C   0  0  0  0  0  0  0  0  0  0  0  0
   17.6323  -11.7674  -15.7734 C   0  0  2  0  0  0  0  0  0  0  0  0
   18.6972  -12.7549  -15.9463 N   0  0  0  0  0  0  0  0  0  0  0  0
   18.2260  -10.4452  -16.0463 C   0  0  0  0  0  0  0  0  0  0  0  0
   19.4923  -10.2761  -16.1330 O   0  0  0  0  0  0  0  0  0  0  0  0
   15.0219   -7.9323  -18.8652 C   0  0  0  0  0  0  0  0  0  0  0  0
   16.5278   -7.8664  -18.7143 C   0  0  0  0  0  0  0  0  0  0  0  0
   16.8278   -7.3120  -17.3591 C   0  0  2  0  0  0  0  0  0  0  0  0
   17.3097   -5.8740  -17.5476 C   0  0  0  0  0  0  0  0  0  0  0  0
   17.9490   -8.0462  -16.6566 C   0  0  2  0  0  0  0  0  0  0  0  0
   17.3863   -9.3241  -16.2200 N   0  0  0  0  0  0  0  0  0  0  0  0
   18.5058   -7.3067  -15.5295 C   0  0  0  0  0  0  0  0  0  0  0  0
   17.8287   -7.1086  -14.4998 O   0  0  0  0  0  0  0  0  0  0  0  0
   19.8250   -6.8013  -15.5861 N   0  0  0  0  0  0  0  0  0  0  0  0
   20.4796   -6.1148  -14.5169 C   0  0  1  0  0  0  0  0  0  0  0  0
   21.9678   -6.4762  -14.5287 C   0  0  0  0  0  0  0  0  0  0  0  0
   22.8370   -5.5602  -13.2201 S   0  0  0  0  0  0  0  0  0  0  0  0
   20.3989   -4.6610  -14.7514 C   0  0  0  0  0  0  0  0  0  0  0  0
   20.1616   -3.7805  -13.7135 O   0  0  0  0  0  0  0  0  0  0  0  0
   20.5466   -4.2107  -15.9045 O   0  0  0  0  0  0  0  0  0  0  0  0
  2  1  1  0
  3  2  1  0
  3  4  1  1
  5  3  1  0
  6  5  2  0
  7  8  1  0
  9  8  1  0
  9 10  1  6
 11  9  1  0
 11 12  1  1
 12  5  1  0
 13 14  2  0
 13 11  1  0
 15 13  1  0
 16 15  1  0
 16 17  1  6
 18 17  1  0
 19 20  1  0
 19 16  1  0
 21 19  2  0
M  END
$$$$
