SIC.pdb
     RDKit          3D

 21 20  0  0  1  0  0  0  0  0999 V2000
   19.9940  -12.6044  -19.9443 O   0  0  0  0  0  0  0  0  0  0  0  0
   20.3503  -11.8609  -18.8501 C   0  0  0  0  0  0  0  0  0  0  0  0
   21.4974  -12.5242  -18.1010 C   0  0  2  0  0  0  0  0  0  0  0  0
   21.0035  -13.7277  -17.4327 N   0  0  0  0  0  0  0  0  0  0  0  0
   22.0318  -11.6390  -17.0493 C   0  0  0  0  0  0  0  0  0  0  0  0
   21.3886  -11.4090  -15.9662 O   0  0  0  0  0  0  0  0  0  0  0  0
   27.2007  -11.8396  -15.8778 C   0  0  0  0  0  0  0  0  0  0  0  0
   25.6923  -11.7296  -15.7905 C   0  0  0  0  0  0  0  0  0  0  0  0
   25.3119  -10.3378  -16.1806 C   0  0  2  0  0  0  0  0  0  0  0  0
   25.8667   -9.3941  -15.1143 C   0  0  0  0  0  0  0  0  0  0  0  0
   23.8147  -10.1199  -16.2022 C   0  0  2  0  0  0  0  0  0  0  0  0
   23.2880  -11.0208  -17.2274 N   0  0  0  0  0  0  0  0  0  0  0  0
   23.4367   -8.7379  -16.4751 C   0  0  0  0  0  0  0  0  0  0  0  0
   23.7567   -8.1896  -17.5497 O   0  0  0  0  0  0  0  0  0  0  0  0
   22.6997   -7.9958  -15.5236 N   0  0  0  0  0  0  0  0  0  0  0  0
   22.2256   -6.6622  -15.7224 C   0  0  1  0  0  0  0  0  0  0  0  0
   20.7150   -6.7015  -15.9719 C   0  0  0  0  0  0  0  0  0  0  0  0
   20.0466   -5.0103  -15.9877 S   0  0  0  0  0  0  0  0  0  0  0  0
   22.4264   -5.8855  -14.4848 C   0  0  0  0  0  0  0  0  0  0  0  0
   22.6930   -4.5305  -14.5254 O   0  0  0  0  0  0  0  0  0  0  0  0
   22.3557   -6.4550  -13.3781 O   0  0  0  0  0  0  0  0  0  0  0  0
  2  1  1  0
  3  2  1  0
  3  4  1  1
  5  3  1  0
  6  5  2  0
  7  8  1  0
  9  8  1  0
  9 10  1  1
 11  9  1  0
 11 12  1  6
 12  5  1  0
 13 14  2  0
 13 11  1  0
 15 13  1  0
 16 15  1  0
 16 17  1  1
 18 17  1  0
 19 20  1  0
 19 16  1  0
 21 19  2  0
M  END
$$$$
