SIC.pdb
     RDKit          3D

 21 20  0  0  1  0  0  0  0  0999 V2000
   17.5820  -10.6606  -19.6083 O   0  0  0  0  0  0  0  0  0  0  0  0
   18.0754   -9.9775  -18.5282 C   0  0  0  0  0  0  0  0  0  0  0  0
   18.2840  -10.9168  -17.3487 C   0  0  2  0  0  0  0  0  0  0  0  0
   16.9926  -11.1952  -16.7212 N   0  0  0  0  0  0  0  0  0  0  0  0
   19.1370  -10.2980  -16.3169 C   0  0  0  0  0  0  0  0  0  0  0  0
   18.6554   -9.8543  -15.2165 O   0  0  0  0  0  0  0  0  0  0  0  0
   23.5565  -12.4073  -14.5105 C   0  0  0  0  0  0  0  0  0  0  0  0
   22.2715  -11.6141  -14.6304 C   0  0  0  0  0  0  0  0  0  0  0  0
   22.5845  -10.3425  -15.3509 C   0  0  2  0  0  0  0  0  0  0  0  0
   23.5332   -9.5347  -14.4659 C   0  0  0  0  0  0  0  0  0  0  0  0
   21.3654   -9.4733  -15.5696 C   0  0  2  0  0  0  0  0  0  0  0  0
   20.5270  -10.1853  -16.5342 N   0  0  0  0  0  0  0  0  0  0  0  0
   21.6900   -8.1336  -16.0463 C   0  0  0  0  0  0  0  0  0  0  0  0
   22.3025   -7.9703  -17.1215 O   0  0  0  0  0  0  0  0  0  0  0  0
   21.3147   -6.9958  -15.2954 N   0  0  0  0  0  0  0  0  0  0  0  0
   21.5577   -5.6440  -15.6908 C   0  0  1  0  0  0  0  0  0  0  0  0
   20.2349   -5.0052  -16.1241 C   0  0  0  0  0  0  0  0  0  0  0  0
   18.9828   -5.2342  -14.8253 S   0  0  0  0  0  0  0  0  0  0  0  0
   22.0332   -4.8749  -14.5257 C   0  0  0  0  0  0  0  0  0  0  0  0
   22.4739   -3.5723  -14.6593 O   0  0  0  0  0  0  0  0  0  0  0  0
   22.0407   -5.4030  -13.3964 O   0  0  0  0  0  0  0  0  0  0  0  0
  2  1  1  0
  3  2  1  0
  3  4  1  1
  5  3  1  0
  6  5  2  0
  7  8  1  0
  9  8  1  0
  9 10  1  1
 11  9  1  0
 11 12  1  6
 12  5  1  0
 13 14  2  0
 13 11  1  0
 15 13  1  0
 16 15  1  0
 16 17  1  1
 18 17  1  0
 19 20  1  0
 19 16  1  0
 21 19  2  0
M  END
$$$$
