SIC.pdb
     RDKit          3D

 21 20  0  0  1  0  0  0  0  0999 V2000
   17.7114  -10.4093  -17.4073 O   0  0  0  0  0  0  0  0  0  0  0  0
   18.6016  -11.0335  -18.2408 C   0  0  0  0  0  0  0  0  0  0  0  0
   19.5412  -11.9306  -17.4473 C   0  0  2  0  0  0  0  0  0  0  0  0
   18.7612  -12.9688  -16.7746 N   0  0  0  0  0  0  0  0  0  0  0  0
   20.2425  -11.1721  -16.3946 C   0  0  0  0  0  0  0  0  0  0  0  0
   19.8111  -11.1283  -15.1897 O   0  0  0  0  0  0  0  0  0  0  0  0
   25.8304  -10.0529  -14.8367 C   0  0  0  0  0  0  0  0  0  0  0  0
   24.4373   -9.4674  -14.7307 C   0  0  0  0  0  0  0  0  0  0  0  0
   23.5574  -10.2040  -15.6885 C   0  0  2  0  0  0  0  0  0  0  0  0
   24.0870   -9.9369  -17.0969 C   0  0  0  0  0  0  0  0  0  0  0  0
   22.1267   -9.7116  -15.6730 C   0  0  2  0  0  0  0  0  0  0  0  0
   21.4254  -10.4695  -16.7093 N   0  0  0  0  0  0  0  0  0  0  0  0
   22.0079   -8.2763  -15.9029 C   0  0  0  0  0  0  0  0  0  0  0  0
   22.2206   -7.7918  -17.0333 O   0  0  0  0  0  0  0  0  0  0  0  0
   21.6490   -7.4089  -14.8456 N   0  0  0  0  0  0  0  0  0  0  0  0
   21.4045   -6.0081  -14.9901 C   0  0  1  0  0  0  0  0  0  0  0  0
   20.1045   -5.6508  -14.2635 C   0  0  0  0  0  0  0  0  0  0  0  0
   18.7086   -6.5349  -15.0229 S   0  0  0  0  0  0  0  0  0  0  0  0
   22.4807   -5.2553  -14.3191 C   0  0  0  0  0  0  0  0  0  0  0  0
   22.6119   -3.8903  -14.4875 O   0  0  0  0  0  0  0  0  0  0  0  0
   23.2907   -5.8545  -13.5850 O   0  0  0  0  0  0  0  0  0  0  0  0
  2  1  1  0
  3  2  1  0
  3  4  1  1
  5  3  1  0
  6  5  2  0
  7  8  1  0
  9  8  1  0
  9 10  1  6
 11  9  1  0
 11 12  1  6
 12  5  1  0
 13 14  2  0
 13 11  1  0
 15 13  1  0
 16 15  1  0
 16 17  1  1
 18 17  1  0
 19 20  1  0
 19 16  1  0
 21 19  2  0
M  END
$$$$
