SIC.pdb
     RDKit          3D

 21 20  0  0  1  0  0  0  0  0999 V2000
   22.7451  -16.4097  -16.5531 O   0  0  0  0  0  0  0  0  0  0  0  0
   23.0049  -15.1615  -16.0519 C   0  0  0  0  0  0  0  0  0  0  0  0
   24.4818  -14.8222  -16.1957 C   0  0  2  0  0  0  0  0  0  0  0  0
   25.2712  -15.7641  -15.4028 N   0  0  0  0  0  0  0  0  0  0  0  0
   24.7738  -13.4738  -15.6745 C   0  0  0  0  0  0  0  0  0  0  0  0
   24.9168  -13.2479  -14.4222 O   0  0  0  0  0  0  0  0  0  0  0  0
   28.8509  -10.8589  -16.8036 C   0  0  0  0  0  0  0  0  0  0  0  0
   27.5988  -11.3831  -16.1310 C   0  0  0  0  0  0  0  0  0  0  0  0
   26.4416  -10.5777  -16.6274 C   0  0  2  0  0  0  0  0  0  0  0  0
   26.6405   -9.1416  -16.1439 C   0  0  0  0  0  0  0  0  0  0  0  0
   25.1166  -11.0368  -16.0589 C   0  0  2  0  0  0  0  0  0  0  0  0
   24.9029  -12.3907  -16.5703 N   0  0  0  0  0  0  0  0  0  0  0  0
   24.0037  -10.1623  -16.4109 C   0  0  0  0  0  0  0  0  0  0  0  0
   23.6051  -10.0810  -17.5909 O   0  0  0  0  0  0  0  0  0  0  0  0
   23.3573   -9.3908  -15.4179 N   0  0  0  0  0  0  0  0  0  0  0  0
   22.1846   -8.6032  -15.6351 C   0  0  1  0  0  0  0  0  0  0  0  0
   21.4500   -8.4238  -14.3032 C   0  0  0  0  0  0  0  0  0  0  0  0
   20.9657  -10.0465  -13.6406 S   0  0  0  0  0  0  0  0  0  0  0  0
   22.5809   -7.2543  -16.0806 C   0  0  0  0  0  0  0  0  0  0  0  0
   21.6429   -6.3434  -16.5270 O   0  0  0  0  0  0  0  0  0  0  0  0
   23.7824   -6.9225  -16.0570 O   0  0  0  0  0  0  0  0  0  0  0  0
  2  1  1  0
  3  2  1  0
  3  4  1  1
  5  3  1  0
  6  5  2  0
  7  8  1  0
  9  8  1  0
  9 10  1  1
 11  9  1  0
 11 12  1  6
 12  5  1  0
 13 14  2  0
 13 11  1  0
 15 13  1  0
 16 15  1  0
 16 17  1  1
 18 17  1  0
 19 20  1  0
 19 16  1  0
 21 19  2  0
M  END
$$$$
