SIC.pdb
     RDKit          3D

 21 20  0  0  1  0  0  0  0  0999 V2000
   29.2447  -12.0920  -20.2160 O   0  0  0  0  0  0  0  0  0  0  0  0
   27.9511  -12.0974  -19.7649 C   0  0  0  0  0  0  0  0  0  0  0  0
   27.5595  -13.4842  -19.2748 C   0  0  2  0  0  0  0  0  0  0  0  0
   27.5275  -14.4047  -20.4109 N   0  0  0  0  0  0  0  0  0  0  0  0
   26.2064  -13.4814  -18.6878 C   0  0  0  0  0  0  0  0  0  0  0  0
   25.1596  -13.6815  -19.3976 O   0  0  0  0  0  0  0  0  0  0  0  0
   25.1452  -16.3740  -14.6117 C   0  0  0  0  0  0  0  0  0  0  0  0
   24.9914  -15.5788  -15.8919 C   0  0  0  0  0  0  0  0  0  0  0  0
   24.7560  -14.1509  -15.5178 C   0  0  2  0  0  0  0  0  0  0  0  0
   23.3804  -14.0700  -14.8570 C   0  0  0  0  0  0  0  0  0  0  0  0
   24.7058  -13.2281  -16.7159 C   0  0  2  0  0  0  0  0  0  0  0  0
   26.0450  -13.2535  -17.3043 N   0  0  0  0  0  0  0  0  0  0  0  0
   24.3076  -11.8661  -16.3789 C   0  0  0  0  0  0  0  0  0  0  0  0
   24.9498  -11.2034  -15.5385 O   0  0  0  0  0  0  0  0  0  0  0  0
   23.1844  -11.2737  -17.0007 N   0  0  0  0  0  0  0  0  0  0  0  0
   22.7614   -9.9233  -16.7996 C   0  0  1  0  0  0  0  0  0  0  0  0
   21.8747   -9.4979  -17.9736 C   0  0  0  0  0  0  0  0  0  0  0  0
   22.8504   -9.4717  -19.5079 S   0  0  0  0  0  0  0  0  0  0  0  0
   21.9195   -9.8527  -15.5908 C   0  0  0  0  0  0  0  0  0  0  0  0
   21.9042   -8.7242  -14.7940 O   0  0  0  0  0  0  0  0  0  0  0  0
   21.2059  -10.8252  -15.2756 O   0  0  0  0  0  0  0  0  0  0  0  0
  2  1  1  0
  3  2  1  0
  3  4  1  6
  5  3  1  0
  6  5  2  0
  7  8  1  0
  9  8  1  0
  9 10  1  6
 11  9  1  0
 11 12  1  1
 12  5  1  0
 13 14  2  0
 13 11  1  0
 15 13  1  0
 16 15  1  0
 16 17  1  6
 18 17  1  0
 19 20  1  0
 19 16  1  0
 21 19  2  0
M  END
$$$$
