SIC.pdb
     RDKit          3D

 21 20  0  0  1  0  0  0  0  0999 V2000
   18.9730  -10.5057  -12.9871 O   0  0  0  0  0  0  0  0  0  0  0  0
   18.0968   -9.4811  -12.7435 C   0  0  0  0  0  0  0  0  0  0  0  0
   16.9556   -9.9514  -11.8528 C   0  0  2  0  0  0  0  0  0  0  0  0
   16.1606  -10.9450  -12.5738 N   0  0  0  0  0  0  0  0  0  0  0  0
   16.0474   -8.8393  -11.5155 C   0  0  0  0  0  0  0  0  0  0  0  0
   15.1663   -8.4104  -12.3398 O   0  0  0  0  0  0  0  0  0  0  0  0
   12.0518   -7.2227   -8.2306 C   0  0  0  0  0  0  0  0  0  0  0  0
   13.4484   -6.6369   -8.1920 C   0  0  0  0  0  0  0  0  0  0  0  0
   14.3890   -7.6607   -8.7409 C   0  0  2  0  0  0  0  0  0  0  0  0
   15.3748   -8.0210   -7.6300 C   0  0  0  0  0  0  0  0  0  0  0  0
   15.2204   -7.1400   -9.8930 C   0  0  2  0  0  0  0  0  0  0  0  0
   16.1401   -8.2200  -10.2506 N   0  0  0  0  0  0  0  0  0  0  0  0
   15.9478   -5.9170   -9.5732 C   0  0  0  0  0  0  0  0  0  0  0  0
   17.0767   -5.9666   -9.0431 O   0  0  0  0  0  0  0  0  0  0  0  0
   15.3837   -4.6525   -9.8595 N   0  0  0  0  0  0  0  0  0  0  0  0
   16.0276   -3.4003   -9.6143 C   0  0  1  0  0  0  0  0  0  0  0  0
   16.6660   -2.9041  -10.9150 C   0  0  0  0  0  0  0  0  0  0  0  0
   17.3938   -1.2576  -10.6579 S   0  0  0  0  0  0  0  0  0  0  0  0
   15.0137   -2.3984   -9.2358 C   0  0  0  0  0  0  0  0  0  0  0  0
   15.3013   -1.3957   -8.3299 O   0  0  0  0  0  0  0  0  0  0  0  0
   13.8739   -2.4507   -9.7382 O   0  0  0  0  0  0  0  0  0  0  0  0
  2  1  1  0
  3  2  1  0
  3  4  1  6
  5  3  1  0
  6  5  2  0
  7  8  1  0
  9  8  1  0
  9 10  1  1
 11  9  1  0
 11 12  1  1
 12  5  1  0
 13 14  2  0
 13 11  1  0
 15 13  1  0
 16 15  1  0
 16 17  1  6
 18 17  1  0
 19 20  1  0
 19 16  1  0
 21 19  2  0
M  END
$$$$
