SIC.pdb
     RDKit          3D

 21 20  0  0  1  0  0  0  0  0999 V2000
   15.3657   -9.2022  -17.4702 O   0  0  0  0  0  0  0  0  0  0  0  0
   16.2716   -8.7323  -16.5563 C   0  0  0  0  0  0  0  0  0  0  0  0
   16.9726   -9.8863  -15.8535 C   0  0  2  0  0  0  0  0  0  0  0  0
   16.0281  -10.5459  -14.9525 N   0  0  0  0  0  0  0  0  0  0  0  0
   18.0923   -9.4054  -15.0227 C   0  0  0  0  0  0  0  0  0  0  0  0
   17.9665   -9.2106  -13.7633 O   0  0  0  0  0  0  0  0  0  0  0  0
   23.8053  -10.4020  -14.3434 C   0  0  0  0  0  0  0  0  0  0  0  0
   22.7978   -9.2820  -14.1838 C   0  0  0  0  0  0  0  0  0  0  0  0
   21.5661   -9.6636  -14.9397 C   0  0  2  0  0  0  0  0  0  0  0  0
   21.9329   -9.7089  -16.4226 C   0  0  0  0  0  0  0  0  0  0  0  0
   20.4546   -8.6452  -14.8087 C   0  0  2  0  0  0  0  0  0  0  0  0
   19.3455   -9.1484  -15.6191 N   0  0  0  0  0  0  0  0  0  0  0  0
   20.8467   -7.3056  -15.2318 C   0  0  0  0  0  0  0  0  0  0  0  0
   21.1204   -7.0686  -16.4262 O   0  0  0  0  0  0  0  0  0  0  0  0
   20.9231   -6.2516  -14.2924 N   0  0  0  0  0  0  0  0  0  0  0  0
   21.1704   -4.8834  -14.6235 C   0  0  1  0  0  0  0  0  0  0  0  0
   20.0431   -4.0195  -14.0504 C   0  0  0  0  0  0  0  0  0  0  0  0
   18.4536   -4.5097  -14.7855 S   0  0  0  0  0  0  0  0  0  0  0  0
   22.4139   -4.4413  -13.9651 C   0  0  0  0  0  0  0  0  0  0  0  0
   23.1225   -3.3510  -14.4320 O   0  0  0  0  0  0  0  0  0  0  0  0
   22.8397   -5.0575  -12.9686 O   0  0  0  0  0  0  0  0  0  0  0  0
  2  1  1  0
  3  2  1  0
  3  4  1  1
  5  3  1  0
  6  5  2  0
  7  8  1  0
  9  8  1  0
  9 10  1  6
 11  9  1  0
 11 12  1  6
 12  5  1  0
 13 14  2  0
 13 11  1  0
 15 13  1  0
 16 15  1  0
 16 17  1  1
 18 17  1  0
 19 20  1  0
 19 16  1  0
 21 19  2  0
M  END
$$$$
