LCR.pdb
     RDKit          3D

 26 25  0  0  1  0  0  0  0  0999 V2000
   28.8767  -14.2793  -19.3528 C   0  0  0  0  0  0  0  0  0  0  0  0
   27.6318  -14.9199  -19.9398 C   0  0  1  0  0  0  0  0  0  0  0  0
   28.0569  -16.2681  -20.5459 C   0  0  0  0  0  0  0  0  0  0  0  0
   26.6423  -15.1489  -18.8366 C   0  0  0  0  0  0  0  0  0  0  0  0
   25.3814  -15.8545  -19.2831 C   0  0  2  0  0  0  0  0  0  0  0  0
   24.8043  -15.0912  -20.3820 N   0  0  0  0  0  0  0  0  0  0  0  0
   24.3999  -16.0508  -18.1957 C   0  0  0  0  0  0  0  0  0  0  0  0
   24.7055  -16.6157  -17.1196 O   0  0  0  0  0  0  0  0  0  0  0  0
   23.0344  -15.6026  -18.3123 N   0  0  0  0  0  0  0  0  0  0  0  0
   22.1232  -15.7836  -17.2147 C   0  0  1  0  0  0  0  0  0  0  0  0
   20.9704  -14.8175  -17.3984 C   0  0  0  0  0  0  0  0  0  0  0  0
   19.7840  -15.1431  -16.0698 S   0  0  0  0  0  0  0  0  0  0  0  0
   21.6454  -17.1844  -17.0961 C   0  0  0  0  0  0  0  0  0  0  0  0
   21.2925  -17.7899  -18.1406 O   0  0  0  0  0  0  0  0  0  0  0  0
   25.1127  -23.2807  -12.7428 N   0  0  0  0  0  0  0  0  0  0  0  0
   24.7083  -21.9255  -12.4756 C   0  0  0  0  0  0  0  0  0  0  0  0
   25.2557  -21.2491  -11.5423 N   0  0  0  0  0  0  0  0  0  0  0  0
   23.6823  -21.4007  -13.3005 N   0  0  0  0  0  0  0  0  0  0  0  0
   22.8944  -22.3107  -14.1266 C   0  0  0  0  0  0  0  0  0  0  0  0
   21.8124  -21.5232  -14.8339 C   0  0  0  0  0  0  0  0  0  0  0  0
   22.1690  -20.1002  -15.0454 C   0  0  0  0  0  0  0  0  0  0  0  0
   21.1427  -19.2811  -15.7853 C   0  0  2  0  0  0  0  0  0  0  0  0
   21.5659  -17.8768  -15.8671 N   0  0  0  0  0  0  0  0  0  0  0  0
   19.8846  -19.3105  -15.0299 C   0  0  0  0  0  0  0  0  0  0  0  0
   19.0945  -20.4344  -15.0378 O   0  0  0  0  0  0  0  0  0  0  0  0
   19.5254  -18.3123  -14.3751 O   0  0  0  0  0  0  0  0  0  0  0  0
  2  3  1  1
  2  1  1  0
  4  2  1  0
  5  6  1  6
  5  4  1  0
  7  5  1  0
  8  7  2  0
  9  7  1  0
 10  9  1  0
 11 12  1  0
 10 11  1  6
 13 23  1  0
 13 10  1  0
 14 13  2  0
 16 15  1  0
 16 17  2  0
 18 16  1  0
 19 18  1  0
 20 19  1  0
 20 21  1  0
 22 21  1  1
 22 23  1  0
 24 22  1  0
 25 24  1  0
 26 24  2  0
M  END
$$$$
