LCR.pdb
     RDKit          3D

 26 25  0  0  1  0  0  0  0  0999 V2000
   24.0937  -28.2579  -16.2845 C   0  0  0  0  0  0  0  0  0  0  0  0
   22.6925  -27.6905  -16.4237 C   0  0  1  0  0  0  0  0  0  0  0  0
   21.7256  -28.8835  -16.5109 C   0  0  0  0  0  0  0  0  0  0  0  0
   22.3811  -26.8726  -15.2061 C   0  0  0  0  0  0  0  0  0  0  0  0
   21.0072  -26.2411  -15.2289 C   0  0  2  0  0  0  0  0  0  0  0  0
   20.9452  -25.3409  -16.3731 N   0  0  0  0  0  0  0  0  0  0  0  0
   20.6618  -25.5371  -13.9761 C   0  0  0  0  0  0  0  0  0  0  0  0
   21.3726  -25.6249  -12.9477 O   0  0  0  0  0  0  0  0  0  0  0  0
   19.4865  -24.7089  -13.8671 N   0  0  0  0  0  0  0  0  0  0  0  0
   19.2414  -23.9658  -12.6607 C   0  0  1  0  0  0  0  0  0  0  0  0
   18.5745  -22.6597  -13.0422 C   0  0  0  0  0  0  0  0  0  0  0  0
   17.5400  -22.1596  -11.6427 S   0  0  0  0  0  0  0  0  0  0  0  0
   18.4273  -24.7258  -11.6789 C   0  0  0  0  0  0  0  0  0  0  0  0
   17.4069  -25.3368  -12.0885 O   0  0  0  0  0  0  0  0  0  0  0  0
   17.5207  -25.0459   -3.9709 N   0  0  0  0  0  0  0  0  0  0  0  0
   16.7557  -26.2615   -4.0637 C   0  0  0  0  0  0  0  0  0  0  0  0
   15.6575  -26.3961   -3.4280 N   0  0  0  0  0  0  0  0  0  0  0  0
   17.2909  -27.2803   -4.8910 N   0  0  0  0  0  0  0  0  0  0  0  0
   18.2516  -26.9246   -5.9311 C   0  0  0  0  0  0  0  0  0  0  0  0
   17.6110  -25.9297   -6.8750 C   0  0  0  0  0  0  0  0  0  0  0  0
   18.5124  -25.4992   -7.9700 C   0  0  0  0  0  0  0  0  0  0  0  0
   17.9249  -25.5736   -9.3560 C   0  0  2  0  0  0  0  0  0  0  0  0
   18.7390  -24.8000  -10.3028 N   0  0  0  0  0  0  0  0  0  0  0  0
   16.5902  -24.9635   -9.3339 C   0  0  0  0  0  0  0  0  0  0  0  0
   15.4891  -25.7109   -8.9928 O   0  0  0  0  0  0  0  0  0  0  0  0
   16.4485  -23.7598   -9.6257 O   0  0  0  0  0  0  0  0  0  0  0  0
  2  3  1  1
  2  1  1  0
  4  2  1  0
  5  6  1  6
  5  4  1  0
  7  5  1  0
  8  7  2  0
  9  7  1  0
 10  9  1  0
 11 12  1  0
 10 11  1  6
 13 23  1  0
 13 10  1  0
 14 13  2  0
 16 15  1  0
 16 17  2  0
 18 16  1  0
 19 18  1  0
 20 19  1  0
 20 21  1  0
 22 21  1  1
 22 23  1  0
 24 22  1  0
 25 24  1  0
 26 24  2  0
M  END
$$$$
