LCR.pdb
     RDKit          3D

 26 25  0  0  1  0  0  0  0  0999 V2000
   27.5134  -17.4420  -17.5273 C   0  0  0  0  0  0  0  0  0  0  0  0
   28.1607  -18.5784  -16.7565 C   0  0  1  0  0  0  0  0  0  0  0  0
   29.1741  -17.9497  -15.7852 C   0  0  0  0  0  0  0  0  0  0  0  0
   27.0989  -19.3024  -15.9839 C   0  0  0  0  0  0  0  0  0  0  0  0
   27.6098  -20.5044  -15.2215 C   0  0  2  0  0  0  0  0  0  0  0  0
   28.1778  -21.4391  -16.1844 N   0  0  0  0  0  0  0  0  0  0  0  0
   26.5771  -21.1564  -14.3893 C   0  0  0  0  0  0  0  0  0  0  0  0
   25.6891  -21.8883  -14.8858 O   0  0  0  0  0  0  0  0  0  0  0  0
   26.5335  -20.9868  -12.9581 N   0  0  0  0  0  0  0  0  0  0  0  0
   25.3993  -21.4624  -12.2130 C   0  0  1  0  0  0  0  0  0  0  0  0
   25.7438  -21.3920  -10.7391 C   0  0  0  0  0  0  0  0  0  0  0  0
   25.8867  -19.6393  -10.3073 S   0  0  0  0  0  0  0  0  0  0  0  0
   24.1590  -20.7055  -12.5186 C   0  0  0  0  0  0  0  0  0  0  0  0
   24.2638  -19.5305  -12.9550 O   0  0  0  0  0  0  0  0  0  0  0  0
   20.7245  -18.3937  -18.7922 N   0  0  0  0  0  0  0  0  0  0  0  0
   21.5465  -17.7626  -17.7933 C   0  0  0  0  0  0  0  0  0  0  0  0
   22.3548  -16.8257  -18.1047 N   0  0  0  0  0  0  0  0  0  0  0  0
   21.4028  -18.2401  -16.4666 N   0  0  0  0  0  0  0  0  0  0  0  0
   20.4315  -19.2938  -16.1880 C   0  0  0  0  0  0  0  0  0  0  0  0
   20.4003  -19.5543  -14.6973 C   0  0  0  0  0  0  0  0  0  0  0  0
   21.6154  -20.2410  -14.1986 C   0  0  0  0  0  0  0  0  0  0  0  0
   21.6526  -20.4881  -12.7122 C   0  0  2  0  0  0  0  0  0  0  0  0
   22.8616  -21.2371  -12.3446 N   0  0  0  0  0  0  0  0  0  0  0  0
   20.5002  -21.3195  -12.3452 C   0  0  0  0  0  0  0  0  0  0  0  0
   20.5758  -22.6888  -12.4274 O   0  0  0  0  0  0  0  0  0  0  0  0
   19.4431  -20.7855  -11.9557 O   0  0  0  0  0  0  0  0  0  0  0  0
  2  3  1  1
  2  1  1  0
  4  2  1  0
  5  6  1  6
  5  4  1  0
  7  5  1  0
  8  7  2  0
  9  7  1  0
 10  9  1  0
 11 12  1  0
 10 11  1  1
 13 23  1  0
 13 10  1  0
 14 13  2  0
 16 15  1  0
 16 17  2  0
 18 16  1  0
 19 18  1  0
 20 19  1  0
 20 21  1  0
 22 21  1  6
 22 23  1  0
 24 22  1  0
 25 24  1  0
 26 24  2  0
M  END
$$$$
