LCR.pdb
     RDKit          3D

 26 25  0  0  1  0  0  0  0  0999 V2000
   18.5706  -26.8820  -15.9550 C   0  0  0  0  0  0  0  0  0  0  0  0
   18.3770  -25.4890  -15.3833 C   0  0  1  0  0  0  0  0  0  0  0  0
   16.9743  -25.4469  -14.7538 C   0  0  0  0  0  0  0  0  0  0  0  0
   19.4148  -25.2536  -14.3269 C   0  0  0  0  0  0  0  0  0  0  0  0
   19.2534  -23.9411  -13.5930 C   0  0  2  0  0  0  0  0  0  0  0  0
   20.0262  -22.9308  -14.3039 N   0  0  0  0  0  0  0  0  0  0  0  0
   19.6457  -24.0102  -12.1698 C   0  0  0  0  0  0  0  0  0  0  0  0
   20.8362  -23.8758  -11.8021 O   0  0  0  0  0  0  0  0  0  0  0  0
   18.6794  -24.2362  -11.1237 N   0  0  0  0  0  0  0  0  0  0  0  0
   19.0720  -24.1157   -9.7456 C   0  0  1  0  0  0  0  0  0  0  0  0
   19.5227  -22.6883   -9.5098 C   0  0  0  0  0  0  0  0  0  0  0  0
   19.9300  -22.5405   -7.7517 S   0  0  0  0  0  0  0  0  0  0  0  0
   17.9886  -24.5060   -8.8084 C   0  0  0  0  0  0  0  0  0  0  0  0
   16.8755  -23.9277   -8.9017 O   0  0  0  0  0  0  0  0  0  0  0  0
   18.7079  -30.2995   -2.6835 N   0  0  0  0  0  0  0  0  0  0  0  0
   18.5791  -28.9098   -2.3313 C   0  0  0  0  0  0  0  0  0  0  0  0
   18.9906  -28.4778   -1.2034 N   0  0  0  0  0  0  0  0  0  0  0  0
   17.9771  -28.0684   -3.2999 N   0  0  0  0  0  0  0  0  0  0  0  0
   16.9388  -28.6109   -4.1710 C   0  0  0  0  0  0  0  0  0  0  0  0
   16.4394  -27.5134   -5.0860 C   0  0  0  0  0  0  0  0  0  0  0  0
   17.5033  -26.9376   -5.9424 C   0  0  0  0  0  0  0  0  0  0  0  0
   17.0499  -25.8688   -6.9035 C   0  0  2  0  0  0  0  0  0  0  0  0
   18.1419  -25.4969   -7.8130 N   0  0  0  0  0  0  0  0  0  0  0  0
   16.6967  -24.6675   -6.1377 C   0  0  0  0  0  0  0  0  0  0  0  0
   15.4221  -24.5014   -5.6527 O   0  0  0  0  0  0  0  0  0  0  0  0
   17.5545  -23.7888   -5.9228 O   0  0  0  0  0  0  0  0  0  0  0  0
  2  3  1  1
  2  1  1  0
  4  2  1  0
  5  6  1  6
  5  4  1  0
  7  5  1  0
  8  7  2  0
  9  7  1  0
 10  9  1  0
 11 12  1  0
 10 11  1  1
 13 23  1  0
 13 10  1  0
 14 13  2  0
 16 15  1  0
 16 17  2  0
 18 16  1  0
 19 18  1  0
 20 19  1  0
 20 21  1  0
 22 21  1  1
 22 23  1  0
 24 22  1  0
 25 24  1  0
 26 24  2  0
M  END
$$$$
