LCR.pdb
     RDKit          3D

 26 25  0  0  1  0  0  0  0  0999 V2000
   26.9949  -16.9887  -15.2466 C   0  0  0  0  0  0  0  0  0  0  0  0
   26.5447  -16.0459  -16.3479 C   0  0  1  0  0  0  0  0  0  0  0  0
   25.2545  -16.6303  -16.9476 C   0  0  0  0  0  0  0  0  0  0  0  0
   26.2612  -14.7023  -15.7456 C   0  0  0  0  0  0  0  0  0  0  0  0
   25.7265  -13.6898  -16.7336 C   0  0  2  0  0  0  0  0  0  0  0  0
   26.6127  -13.6793  -17.8903 N   0  0  0  0  0  0  0  0  0  0  0  0
   25.5754  -12.3344  -16.1642 C   0  0  0  0  0  0  0  0  0  0  0  0
   24.9904  -12.1338  -15.0742 O   0  0  0  0  0  0  0  0  0  0  0  0
   26.0932  -11.1659  -16.8317 N   0  0  0  0  0  0  0  0  0  0  0  0
   25.8622   -9.8601  -16.2756 C   0  0  1  0  0  0  0  0  0  0  0  0
   27.1112   -9.0302  -16.4937 C   0  0  0  0  0  0  0  0  0  0  0  0
   28.4390   -9.8014  -15.5340 S   0  0  0  0  0  0  0  0  0  0  0  0
   24.6631   -9.2000  -16.8506 C   0  0  0  0  0  0  0  0  0  0  0  0
   24.4538   -9.3043  -18.0865 O   0  0  0  0  0  0  0  0  0  0  0  0
   18.6017  -13.3623  -16.5164 N   0  0  0  0  0  0  0  0  0  0  0  0
   18.2174  -12.4768  -15.4487 C   0  0  0  0  0  0  0  0  0  0  0  0
   17.2919  -12.7977  -14.6310 N   0  0  0  0  0  0  0  0  0  0  0  0
   18.9199  -11.2487  -15.3659 N   0  0  0  0  0  0  0  0  0  0  0  0
   19.8597  -10.8908  -16.4242 C   0  0  0  0  0  0  0  0  0  0  0  0
   20.5910   -9.6262  -16.0275 C   0  0  0  0  0  0  0  0  0  0  0  0
   21.6087   -9.2044  -17.0190 C   0  0  0  0  0  0  0  0  0  0  0  0
   22.4464   -8.0171  -16.6184 C   0  0  2  0  0  0  0  0  0  0  0  0
   23.7402   -8.4577  -16.0802 N   0  0  0  0  0  0  0  0  0  0  0  0
   21.7543   -7.2949  -15.5443 C   0  0  0  0  0  0  0  0  0  0  0  0
   20.7078   -6.4532  -15.8338 O   0  0  0  0  0  0  0  0  0  0  0  0
   22.1140   -7.4420  -14.3598 O   0  0  0  0  0  0  0  0  0  0  0  0
  2  3  1  1
  2  1  1  0
  4  2  1  0
  5  6  1  6
  5  4  1  0
  7  5  1  0
  8  7  2  0
  9  7  1  0
 10  9  1  0
 11 12  1  0
 10 11  1  6
 13 23  1  0
 13 10  1  0
 14 13  2  0
 16 15  1  0
 16 17  2  0
 18 16  1  0
 19 18  1  0
 20 19  1  0
 20 21  1  0
 22 21  1  1
 22 23  1  0
 24 22  1  0
 25 24  1  0
 26 24  2  0
M  END
$$$$
