LCR.pdb
     RDKit          3D

 26 25  0  0  1  0  0  0  0  0999 V2000
   25.9480  -28.9162  -19.0329 C   0  0  0  0  0  0  0  0  0  0  0  0
   26.9474  -27.8851  -18.5404 C   0  0  1  0  0  0  0  0  0  0  0  0
   27.3999  -27.0700  -19.7637 C   0  0  0  0  0  0  0  0  0  0  0  0
   26.2643  -26.9847  -17.5550 C   0  0  0  0  0  0  0  0  0  0  0  0
   27.2010  -26.0330  -16.8449 C   0  0  2  0  0  0  0  0  0  0  0  0
   28.2023  -26.8269  -16.1446 N   0  0  0  0  0  0  0  0  0  0  0  0
   26.5116  -25.1077  -15.9216 C   0  0  0  0  0  0  0  0  0  0  0  0
   26.1973  -25.4445  -14.7561 O   0  0  0  0  0  0  0  0  0  0  0  0
   26.1617  -23.7639  -16.3105 N   0  0  0  0  0  0  0  0  0  0  0  0
   25.5190  -22.8882  -15.3683 C   0  0  1  0  0  0  0  0  0  0  0  0
   25.9863  -21.4743  -15.6486 C   0  0  0  0  0  0  0  0  0  0  0  0
   25.4351  -21.0514  -17.3207 S   0  0  0  0  0  0  0  0  0  0  0  0
   24.0385  -22.9909  -15.4133 C   0  0  0  0  0  0  0  0  0  0  0  0
   23.4987  -23.4463  -16.4542 O   0  0  0  0  0  0  0  0  0  0  0  0
   18.1224  -25.9690  -10.0403 N   0  0  0  0  0  0  0  0  0  0  0  0
   19.1616  -26.4753  -10.8979 C   0  0  0  0  0  0  0  0  0  0  0  0
   19.5504  -27.6876  -10.8126 N   0  0  0  0  0  0  0  0  0  0  0  0
   19.7146  -25.5576  -11.8256 N   0  0  0  0  0  0  0  0  0  0  0  0
   19.2418  -24.1764  -11.8323 C   0  0  0  0  0  0  0  0  0  0  0  0
   19.7257  -23.4955  -13.0946 C   0  0  0  0  0  0  0  0  0  0  0  0
   21.1997  -23.3511  -13.1523 C   0  0  0  0  0  0  0  0  0  0  0  0
   21.7376  -22.7238  -14.4128 C   0  0  2  0  0  0  0  0  0  0  0  0
   23.1999  -22.6028  -14.3445 N   0  0  0  0  0  0  0  0  0  0  0  0
   21.1960  -21.3647  -14.5293 C   0  0  0  0  0  0  0  0  0  0  0  0
   20.0682  -21.1268  -15.2769 O   0  0  0  0  0  0  0  0  0  0  0  0
   21.7586  -20.4159  -13.9483 O   0  0  0  0  0  0  0  0  0  0  0  0
  2  3  1  6
  2  1  1  0
  4  2  1  0
  5  6  1  1
  5  4  1  0
  7  5  1  0
  8  7  2  0
  9  7  1  0
 10  9  1  0
 11 12  1  0
 10 11  1  6
 13 23  1  0
 13 10  1  0
 14 13  2  0
 16 15  1  0
 16 17  2  0
 18 16  1  0
 19 18  1  0
 20 19  1  0
 20 21  1  0
 22 21  1  1
 22 23  1  0
 24 22  1  0
 25 24  1  0
 26 24  2  0
M  END
$$$$
