LCR.pdb
     RDKit          3D

 26 25  0  0  1  0  0  0  0  0999 V2000
   16.4680  -12.8777  -13.1317 C   0  0  0  0  0  0  0  0  0  0  0  0
   15.7221  -12.5757  -11.8444 C   0  0  1  0  0  0  0  0  0  0  0  0
   16.5588  -13.1501  -10.6887 C   0  0  0  0  0  0  0  0  0  0  0  0
   15.6031  -11.0885  -11.6945 C   0  0  0  0  0  0  0  0  0  0  0  0
   14.7920  -10.6581  -10.4928 C   0  0  2  0  0  0  0  0  0  0  0  0
   13.4601  -11.2354  -10.6194 N   0  0  0  0  0  0  0  0  0  0  0  0
   14.7246   -9.1916  -10.3225 C   0  0  0  0  0  0  0  0  0  0  0  0
   14.0553   -8.4639  -11.0927 O   0  0  0  0  0  0  0  0  0  0  0  0
   15.4257   -8.5153   -9.2594 N   0  0  0  0  0  0  0  0  0  0  0  0
   15.3255   -7.0868   -9.1283 C   0  0  1  0  0  0  0  0  0  0  0  0
   15.2607   -6.7552   -7.6512 C   0  0  0  0  0  0  0  0  0  0  0  0
   13.7099   -7.4423   -7.0172 S   0  0  0  0  0  0  0  0  0  0  0  0
   16.4425   -6.3736   -9.7976 C   0  0  0  0  0  0  0  0  0  0  0  0
   17.6149   -6.7947   -9.6237 O   0  0  0  0  0  0  0  0  0  0  0  0
   21.7316   -8.3095  -13.0719 N   0  0  0  0  0  0  0  0  0  0  0  0
   20.7625   -8.4033  -14.1319 C   0  0  0  0  0  0  0  0  0  0  0  0
   20.8843   -9.2731  -15.0575 N   0  0  0  0  0  0  0  0  0  0  0  0
   19.6845   -7.4844  -14.0822 N   0  0  0  0  0  0  0  0  0  0  0  0
   19.9340   -6.1137  -13.6462 C   0  0  0  0  0  0  0  0  0  0  0  0
   18.6182   -5.3679  -13.5865 C   0  0  0  0  0  0  0  0  0  0  0  0
   17.7401   -5.8196  -12.4811 C   0  0  0  0  0  0  0  0  0  0  0  0
   17.3127   -4.7437  -11.5160 C   0  0  2  0  0  0  0  0  0  0  0  0
   16.2580   -5.2419  -10.6232 N   0  0  0  0  0  0  0  0  0  0  0  0
   16.7418   -3.6276  -12.2794 C   0  0  0  0  0  0  0  0  0  0  0  0
   17.5424   -2.5974  -12.7096 O   0  0  0  0  0  0  0  0  0  0  0  0
   15.5233   -3.6088  -12.5420 O   0  0  0  0  0  0  0  0  0  0  0  0
  2  3  1  1
  2  1  1  0
  4  2  1  0
  5  6  1  6
  5  4  1  0
  7  5  1  0
  8  7  2  0
  9  7  1  0
 10  9  1  0
 11 12  1  0
 10 11  1  1
 13 23  1  0
 13 10  1  0
 14 13  2  0
 16 15  1  0
 16 17  2  0
 18 16  1  0
 19 18  1  0
 20 19  1  0
 20 21  1  0
 22 21  1  6
 22 23  1  0
 24 22  1  0
 25 24  1  0
 26 24  2  0
M  END
$$$$
