TDW.pdb
     RDKit          3D

 30 31  0  0  1  0  0  0  0  0999 V2000
    6.2694  -14.8742   20.1885 C   0  0  0  0  0  0  0  0  0  0  0  0
    7.3832  -15.8165   20.5415 C   0  0  1  0  0  0  0  0  0  0  0  0
    8.4293  -15.8150   19.6319 O   0  0  0  0  0  0  0  0  0  0  0  0
    7.8405  -15.6511   21.9774 C   0  0  2  0  0  0  0  0  0  0  0  0
    8.2029  -14.2607   22.1718 N   0  0  0  0  0  0  0  0  0  0  0  0
    8.9491  -16.5639   22.3387 C   0  0  0  0  0  0  0  0  0  0  0  0
    8.6493  -17.8044   22.4091 O   0  0  0  0  0  0  0  0  0  0  0  0
   10.2820  -16.1602   22.6035 N   0  0  0  0  0  0  0  0  0  0  0  0
   11.2540  -17.1339   22.9768 C   0  0  1  0  0  0  0  0  0  0  0  0
   12.6213  -16.8220   22.3520 C   0  0  0  0  0  0  0  0  0  0  0  0
   12.4421  -16.8464   20.8860 C   0  0  0  0  0  0  0  0  0  0  0  0
   12.1729  -15.7682   20.3002 O   0  0  0  0  0  0  0  0  0  0  0  0
   11.4589  -17.2458   24.4386 C   0  0  0  0  0  0  0  0  0  0  0  0
   12.3486  -17.9500   24.9745 O   0  0  0  0  0  0  0  0  0  0  0  0
   12.5496  -17.9778   20.1021 O   0  0  0  0  0  0  0  0  0  0  0  0
   10.5879  -16.5041   25.2924 N   0  0  0  0  0  0  0  0  0  0  0  0
   10.6575  -16.5328   26.7169 C   0  0  1  0  0  0  0  0  0  0  0  0
    9.9806  -15.3728   27.3951 C   0  0  0  0  0  0  0  0  0  0  0  0
    8.5832  -15.1949   26.9267 C   0  0  0  0  0  0  0  0  0  0  0  0
    7.6408  -16.1456   26.5904 C   0  0  0  0  0  0  0  0  0  0  0  0
    6.4838  -15.5694   26.2165 N   0  0  0  0  0  0  0  0  0  0  0  0
    6.6313  -14.2150   26.2958 C   0  0  0  0  0  0  0  0  0  0  0  0
    5.7461  -13.1903   26.0217 C   0  0  0  0  0  0  0  0  0  0  0  0
    6.1786  -11.8869   26.1942 C   0  0  0  0  0  0  0  0  0  0  0  0
    7.4715  -11.6369   26.6318 C   0  0  0  0  0  0  0  0  0  0  0  0
    8.3345  -12.6773   26.8981 C   0  0  0  0  0  0  0  0  0  0  0  0
    7.9200  -13.9836   26.7317 C   0  0  0  0  0  0  0  0  0  0  0  0
   10.0635  -17.7987   27.2020 C   0  0  0  0  0  0  0  0  0  0  0  0
    9.4036  -18.6875   26.3702 O   0  0  0  0  0  0  0  0  0  0  0  0
   10.1583  -18.0844   28.4156 O   0  0  0  0  0  0  0  0  0  0  0  0
  2  1  1  6
  2  3  1  0
  4  2  1  0
  4  5  1  6
  6  7  2  0
  6  4  1  0
  8  6  1  0
  9 13  1  0
  9  8  1  0
  9 10  1  6
 11 15  1  0
 11 10  1  0
 12 11  2  0
 13 14  2  0
 16 17  1  0
 16 13  1  0
 17 18  1  1
 19 18  1  0
 20 19  2  0
 21 20  1  0
 22 21  1  0
 22 27  2  0
 23 24  2  0
 23 22  1  0
 24 25  1  0
 25 26  2  0
 27 26  1  0
 27 19  1  0
 28 17  1  0
 28 29  1  0
 30 28  2  0
M  END
$$$$
