TDW.pdb
     RDKit          3D

 30 31  0  0  1  0  0  0  0  0999 V2000
    9.1389  -13.0073   20.7024 C   0  0  0  0  0  0  0  0  0  0  0  0
    7.8228  -13.6291   20.3359 C   0  0  1  0  0  0  0  0  0  0  0  0
    7.1074  -12.9118   19.3895 O   0  0  0  0  0  0  0  0  0  0  0  0
    7.9592  -15.0994   19.9928 C   0  0  2  0  0  0  0  0  0  0  0  0
    6.6416  -15.6020   19.6557 N   0  0  0  0  0  0  0  0  0  0  0  0
    8.5881  -15.8889   21.0764 C   0  0  0  0  0  0  0  0  0  0  0  0
    7.8044  -16.2817   22.0066 O   0  0  0  0  0  0  0  0  0  0  0  0
    9.9633  -16.2262   21.1446 N   0  0  0  0  0  0  0  0  0  0  0  0
   10.4474  -16.9996   22.2398 C   0  0  1  0  0  0  0  0  0  0  0  0
   11.8896  -17.4663   21.9960 C   0  0  0  0  0  0  0  0  0  0  0  0
   11.8709  -18.3129   20.7857 C   0  0  0  0  0  0  0  0  0  0  0  0
   12.4130  -17.8725   19.7415 O   0  0  0  0  0  0  0  0  0  0  0  0
   10.4359  -16.2794   23.5331 C   0  0  0  0  0  0  0  0  0  0  0  0
   10.9526  -15.1507   23.7168 O   0  0  0  0  0  0  0  0  0  0  0  0
   11.2961  -19.5662   20.7148 O   0  0  0  0  0  0  0  0  0  0  0  0
    9.7950  -16.9103   24.6416 N   0  0  0  0  0  0  0  0  0  0  0  0
    9.8922  -16.4443   25.9863 C   0  0  1  0  0  0  0  0  0  0  0  0
    8.5944  -16.4684   26.7472 C   0  0  0  0  0  0  0  0  0  0  0  0
    7.5685  -15.5967   26.1215 C   0  0  0  0  0  0  0  0  0  0  0  0
    6.4821  -15.9377   25.3413 C   0  0  0  0  0  0  0  0  0  0  0  0
    5.7890  -14.8451   24.9722 N   0  0  0  0  0  0  0  0  0  0  0  0
    6.4020  -13.7466   25.5012 C   0  0  0  0  0  0  0  0  0  0  0  0
    6.0865  -12.4043   25.4150 C   0  0  0  0  0  0  0  0  0  0  0  0
    6.9040  -11.4959   26.0648 C   0  0  0  0  0  0  0  0  0  0  0  0
    8.0070  -11.9419   26.7790 C   0  0  0  0  0  0  0  0  0  0  0  0
    8.2993  -13.2864   26.8491 C   0  0  0  0  0  0  0  0  0  0  0  0
    7.4949  -14.2066   26.2072 C   0  0  0  0  0  0  0  0  0  0  0  0
   10.8974  -17.2584   26.7059 C   0  0  0  0  0  0  0  0  0  0  0  0
   11.3071  -16.9781   27.9984 O   0  0  0  0  0  0  0  0  0  0  0  0
   11.4026  -18.2447   26.1267 O   0  0  0  0  0  0  0  0  0  0  0  0
  2  1  1  6
  2  3  1  0
  4  2  1  0
  4  5  1  1
  6  7  2  0
  6  4  1  0
  8  6  1  0
  9 13  1  0
  9  8  1  0
  9 10  1  6
 11 15  1  0
 11 10  1  0
 12 11  2  0
 13 14  2  0
 16 17  1  0
 16 13  1  0
 17 18  1  1
 19 18  1  0
 20 19  2  0
 21 20  1  0
 22 21  1  0
 22 27  2  0
 23 24  2  0
 23 22  1  0
 24 25  1  0
 25 26  2  0
 27 26  1  0
 27 19  1  0
 28 17  1  0
 28 29  1  0
 30 28  2  0
M  END
$$$$
