TDW.pdb
     RDKit          3D

 30 31  0  0  1  0  0  0  0  0999 V2000
    5.1926  -19.7267   23.3503 C   0  0  0  0  0  0  0  0  0  0  0  0
    6.6077  -19.3011   23.6132 C   0  0  1  0  0  0  0  0  0  0  0  0
    7.1334  -19.7995   24.7952 O   0  0  0  0  0  0  0  0  0  0  0  0
    7.5077  -19.5321   22.4154 C   0  0  2  0  0  0  0  0  0  0  0  0
    7.5041  -20.9523   22.1231 N   0  0  0  0  0  0  0  0  0  0  0  0
    8.8809  -19.0159   22.6172 C   0  0  0  0  0  0  0  0  0  0  0  0
    9.7794  -19.8962   22.8442 O   0  0  0  0  0  0  0  0  0  0  0  0
    9.2503  -17.6479   22.5755 N   0  0  0  0  0  0  0  0  0  0  0  0
   10.6070  -17.2753   22.8048 C   0  0  1  0  0  0  0  0  0  0  0  0
   11.0112  -16.0816   21.9280 C   0  0  0  0  0  0  0  0  0  0  0  0
   12.4785  -15.9470   22.0312 C   0  0  0  0  0  0  0  0  0  0  0  0
   12.9655  -14.7940   22.1395 O   0  0  0  0  0  0  0  0  0  0  0  0
   10.8969  -16.9025   24.2079 C   0  0  0  0  0  0  0  0  0  0  0  0
   12.0125  -16.4962   24.6139 O   0  0  0  0  0  0  0  0  0  0  0  0
   13.3655  -17.0050   22.0175 O   0  0  0  0  0  0  0  0  0  0  0  0
    9.8381  -17.0123   25.1589 N   0  0  0  0  0  0  0  0  0  0  0  0
    9.9815  -16.7117   26.5460 C   0  0  1  0  0  0  0  0  0  0  0  0
    8.6804  -16.5518   27.2845 C   0  0  0  0  0  0  0  0  0  0  0  0
    7.6597  -15.8521   26.4646 C   0  0  0  0  0  0  0  0  0  0  0  0
    6.6275  -16.3743   25.7117 C   0  0  0  0  0  0  0  0  0  0  0  0
    5.9182  -15.3969   25.1184 N   0  0  0  0  0  0  0  0  0  0  0  0
    6.4656  -14.1958   25.4649 C   0  0  0  0  0  0  0  0  0  0  0  0
    6.1101  -12.9058   25.1209 C   0  0  0  0  0  0  0  0  0  0  0  0
    6.8616  -11.8610   25.6300 C   0  0  0  0  0  0  0  0  0  0  0  0
    7.9403  -12.1233   26.4626 C   0  0  0  0  0  0  0  0  0  0  0  0
    8.2737  -13.4194   26.7902 C   0  0  0  0  0  0  0  0  0  0  0  0
    7.5351  -14.4737   26.2915 C   0  0  0  0  0  0  0  0  0  0  0  0
   10.7820  -17.7780   27.1888 C   0  0  0  0  0  0  0  0  0  0  0  0
   11.2057  -18.9108   26.5146 O   0  0  0  0  0  0  0  0  0  0  0  0
   11.0931  -17.6565   28.3937 O   0  0  0  0  0  0  0  0  0  0  0  0
  2  1  1  6
  2  3  1  0
  4  2  1  0
  4  5  1  1
  6  7  2  0
  6  4  1  0
  8  6  1  0
  9 13  1  0
  9  8  1  0
  9 10  1  6
 11 15  1  0
 11 10  1  0
 12 11  2  0
 13 14  2  0
 16 17  1  0
 16 13  1  0
 17 18  1  1
 19 18  1  0
 20 19  2  0
 21 20  1  0
 22 21  1  0
 22 27  2  0
 23 24  2  0
 23 22  1  0
 24 25  1  0
 25 26  2  0
 27 26  1  0
 27 19  1  0
 28 17  1  0
 28 29  1  0
 30 28  2  0
M  END
$$$$
