TDW.pdb
     RDKit          3D

 30 31  0  0  1  0  0  0  0  0999 V2000
    8.6646  -13.2157   20.8698 C   0  0  0  0  0  0  0  0  0  0  0  0
    7.3902  -13.9629   20.6043 C   0  0  1  0  0  0  0  0  0  0  0  0
    6.5393  -13.3237   19.7159 O   0  0  0  0  0  0  0  0  0  0  0  0
    7.6406  -15.4157   20.2507 C   0  0  2  0  0  0  0  0  0  0  0  0
    6.3550  -16.0460   20.0215 N   0  0  0  0  0  0  0  0  0  0  0  0
    8.4287  -16.1325   21.2792 C   0  0  0  0  0  0  0  0  0  0  0  0
    7.7524  -16.7115   22.1962 O   0  0  0  0  0  0  0  0  0  0  0  0
    9.8437  -16.2143   21.3095 N   0  0  0  0  0  0  0  0  0  0  0  0
   10.4875  -16.9294   22.3612 C   0  0  1  0  0  0  0  0  0  0  0  0
   11.9772  -17.1429   22.0573 C   0  0  0  0  0  0  0  0  0  0  0  0
   12.4766  -18.1416   23.0242 C   0  0  0  0  0  0  0  0  0  0  0  0
   13.4556  -17.8330   23.7484 O   0  0  0  0  0  0  0  0  0  0  0  0
   10.4038  -16.2604   23.6791 C   0  0  0  0  0  0  0  0  0  0  0  0
   10.7815  -15.0840   23.8986 O   0  0  0  0  0  0  0  0  0  0  0  0
   11.9422  -19.4034   23.1940 O   0  0  0  0  0  0  0  0  0  0  0  0
    9.8576  -17.0023   24.7696 N   0  0  0  0  0  0  0  0  0  0  0  0
    9.9271  -16.5816   26.1308 C   0  0  1  0  0  0  0  0  0  0  0  0
    8.6023  -16.5641   26.8437 C   0  0  0  0  0  0  0  0  0  0  0  0
    7.6464  -15.6183   26.2148 C   0  0  0  0  0  0  0  0  0  0  0  0
    6.5831  -15.8729   25.3724 C   0  0  0  0  0  0  0  0  0  0  0  0
    5.9574  -14.7337   25.0244 N   0  0  0  0  0  0  0  0  0  0  0  0
    6.5939  -13.6898   25.6306 C   0  0  0  0  0  0  0  0  0  0  0  0
    6.3432  -12.3316   25.5933 C   0  0  0  0  0  0  0  0  0  0  0  0
    7.1697  -11.4924   26.3201 C   0  0  0  0  0  0  0  0  0  0  0  0
    8.2174  -12.0210   27.0606 C   0  0  0  0  0  0  0  0  0  0  0  0
    8.4457  -13.3796   27.0808 C   0  0  0  0  0  0  0  0  0  0  0  0
    7.6313  -14.2314   26.3618 C   0  0  0  0  0  0  0  0  0  0  0  0
   10.8644  -17.4652   26.8599 C   0  0  0  0  0  0  0  0  0  0  0  0
   11.2149  -17.2614   28.1839 O   0  0  0  0  0  0  0  0  0  0  0  0
   11.3653  -18.4410   26.2596 O   0  0  0  0  0  0  0  0  0  0  0  0
  2  1  1  6
  2  3  1  0
  4  2  1  0
  4  5  1  1
  6  7  2  0
  6  4  1  0
  8  6  1  0
  9 13  1  0
  9  8  1  0
  9 10  1  6
 11 15  1  0
 11 10  1  0
 12 11  2  0
 13 14  2  0
 16 17  1  0
 16 13  1  0
 17 18  1  1
 19 18  1  0
 20 19  2  0
 21 20  1  0
 22 21  1  0
 22 27  2  0
 23 24  2  0
 23 22  1  0
 24 25  1  0
 25 26  2  0
 27 26  1  0
 27 19  1  0
 28 17  1  0
 28 29  1  0
 30 28  2  0
M  END
$$$$
