TDW.pdb
     RDKit          3D

 30 31  0  0  1  0  0  0  0  0999 V2000
    6.8598  -13.5085   21.3210 C   0  0  0  0  0  0  0  0  0  0  0  0
    7.7782  -14.4740   22.0118 C   0  0  1  0  0  0  0  0  0  0  0  0
    7.3115  -14.9102   23.2421 O   0  0  0  0  0  0  0  0  0  0  0  0
    8.2093  -15.6066   21.1011 C   0  0  2  0  0  0  0  0  0  0  0  0
    7.0169  -16.3116   20.6724 N   0  0  0  0  0  0  0  0  0  0  0  0
    9.1879  -16.5180   21.7372 C   0  0  0  0  0  0  0  0  0  0  0  0
    8.7586  -17.6888   22.0176 O   0  0  0  0  0  0  0  0  0  0  0  0
   10.5306  -16.1834   22.0452 N   0  0  0  0  0  0  0  0  0  0  0  0
   11.4064  -17.1820   22.5628 C   0  0  1  0  0  0  0  0  0  0  0  0
   12.8424  -16.9764   22.0599 C   0  0  0  0  0  0  0  0  0  0  0  0
   12.8536  -17.3338   20.6267 C   0  0  0  0  0  0  0  0  0  0  0  0
   12.2906  -18.3999   20.2736 O   0  0  0  0  0  0  0  0  0  0  0  0
   11.4645  -17.2197   24.0415 C   0  0  0  0  0  0  0  0  0  0  0  0
   12.2749  -17.9173   24.6982 O   0  0  0  0  0  0  0  0  0  0  0  0
   13.4428  -16.5757   19.6345 O   0  0  0  0  0  0  0  0  0  0  0  0
   10.5388  -16.4096   24.7657 N   0  0  0  0  0  0  0  0  0  0  0  0
   10.5622  -16.2497   26.1830 C   0  0  1  0  0  0  0  0  0  0  0  0
    9.9141  -14.9845   26.6758 C   0  0  0  0  0  0  0  0  0  0  0  0
    8.4561  -14.9632   26.3972 C   0  0  0  0  0  0  0  0  0  0  0  0
    7.5753  -16.0143   26.2407 C   0  0  0  0  0  0  0  0  0  0  0  0
    6.3279  -15.5695   26.0030 N   0  0  0  0  0  0  0  0  0  0  0  0
    6.3508  -14.2050   25.9957 C   0  0  0  0  0  0  0  0  0  0  0  0
    5.3406  -13.2835   25.7976 C   0  0  0  0  0  0  0  0  0  0  0  0
    5.6620  -11.9381   25.8456 C   0  0  0  0  0  0  0  0  0  0  0  0
    6.9708  -11.5456   26.0876 C   0  0  0  0  0  0  0  0  0  0  0  0
    7.9596  -12.4851   26.2819 C   0  0  0  0  0  0  0  0  0  0  0  0
    7.6570  -13.8313   26.2376 C   0  0  0  0  0  0  0  0  0  0  0  0
    9.9000  -17.4158   26.8095 C   0  0  0  0  0  0  0  0  0  0  0  0
   10.0319  -17.7239   28.1530 O   0  0  0  0  0  0  0  0  0  0  0  0
    9.1884  -18.1596   26.0998 O   0  0  0  0  0  0  0  0  0  0  0  0
  2  1  1  6
  2  3  1  0
  4  2  1  0
  4  5  1  1
  6  7  2  0
  6  4  1  0
  8  6  1  0
  9 13  1  0
  9  8  1  0
  9 10  1  6
 11 15  1  0
 11 10  1  0
 12 11  2  0
 13 14  2  0
 16 17  1  0
 16 13  1  0
 17 18  1  6
 19 18  1  0
 20 19  2  0
 21 20  1  0
 22 21  1  0
 22 27  2  0
 23 24  2  0
 23 22  1  0
 24 25  1  0
 25 26  2  0
 27 26  1  0
 27 19  1  0
 28 17  1  0
 28 29  1  0
 30 28  2  0
M  END
$$$$
