TDW.pdb
     RDKit          3D

 30 31  0  0  1  0  0  0  0  0999 V2000
    7.6749  -14.2831   22.8570 C   0  0  0  0  0  0  0  0  0  0  0  0
    7.0938  -15.4988   22.1958 C   0  0  1  0  0  0  0  0  0  0  0  0
    5.7833  -15.3361   21.7742 O   0  0  0  0  0  0  0  0  0  0  0  0
    8.0031  -16.0546   21.1176 C   0  0  2  0  0  0  0  0  0  0  0  0
    7.2744  -17.0901   20.4109 N   0  0  0  0  0  0  0  0  0  0  0  0
    9.2911  -16.5547   21.6501 C   0  0  0  0  0  0  0  0  0  0  0  0
    9.3337  -17.8022   21.9254 O   0  0  0  0  0  0  0  0  0  0  0  0
   10.4452  -15.7606   21.8671 N   0  0  0  0  0  0  0  0  0  0  0  0
   11.6616  -16.3798   22.2782 C   0  0  1  0  0  0  0  0  0  0  0  0
   12.8808  -15.5597   21.8329 C   0  0  0  0  0  0  0  0  0  0  0  0
   14.0812  -16.3477   22.1789 C   0  0  0  0  0  0  0  0  0  0  0  0
   14.1518  -17.5353   21.7752 O   0  0  0  0  0  0  0  0  0  0  0  0
   11.7739  -16.5661   23.7425 C   0  0  0  0  0  0  0  0  0  0  0  0
   12.7838  -17.0387   24.3183 O   0  0  0  0  0  0  0  0  0  0  0  0
   15.1440  -15.8719   22.9209 O   0  0  0  0  0  0  0  0  0  0  0  0
   10.6612  -16.1826   24.5504 N   0  0  0  0  0  0  0  0  0  0  0  0
   10.6033  -16.3695   25.9633 C   0  0  1  0  0  0  0  0  0  0  0  0
    9.9705  -15.2300   26.7150 C   0  0  0  0  0  0  0  0  0  0  0  0
    8.5427  -15.0502   26.3506 C   0  0  0  0  0  0  0  0  0  0  0  0
    7.5960  -15.9955   26.0112 C   0  0  0  0  0  0  0  0  0  0  0  0
    6.4077  -15.4196   25.7528 N   0  0  0  0  0  0  0  0  0  0  0  0
    6.5378  -14.0709   25.9150 C   0  0  0  0  0  0  0  0  0  0  0  0
    5.6199  -13.0486   25.7692 C   0  0  0  0  0  0  0  0  0  0  0  0
    6.0414  -11.7511   26.0024 C   0  0  0  0  0  0  0  0  0  0  0  0
    7.3559  -11.5043   26.3721 C   0  0  0  0  0  0  0  0  0  0  0  0
    8.2514  -12.5421   26.5106 C   0  0  0  0  0  0  0  0  0  0  0  0
    7.8483  -13.8425   26.2820 C   0  0  0  0  0  0  0  0  0  0  0  0
    9.8638  -17.6185   26.2533 C   0  0  0  0  0  0  0  0  0  0  0  0
    9.8531  -18.2136   27.5035 O   0  0  0  0  0  0  0  0  0  0  0  0
    9.2179  -18.1655   25.3330 O   0  0  0  0  0  0  0  0  0  0  0  0
  2  1  1  6
  2  3  1  0
  4  2  1  0
  4  5  1  1
  6  7  2  0
  6  4  1  0
  8  6  1  0
  9 13  1  0
  9  8  1  0
  9 10  1  1
 11 15  1  0
 11 10  1  0
 12 11  2  0
 13 14  2  0
 16 17  1  0
 16 13  1  0
 17 18  1  1
 19 18  1  0
 20 19  2  0
 21 20  1  0
 22 21  1  0
 22 27  2  0
 23 24  2  0
 23 22  1  0
 24 25  1  0
 25 26  2  0
 27 26  1  0
 27 19  1  0
 28 17  1  0
 28 29  1  0
 30 28  2  0
M  END
$$$$
