TDW.pdb
     RDKit          3D

 30 31  0  0  1  0  0  0  0  0999 V2000
    8.3664  -12.8904   18.1958 C   0  0  0  0  0  0  0  0  0  0  0  0
    8.6275  -13.6802   19.4452 C   0  0  1  0  0  0  0  0  0  0  0  0
    9.0967  -12.9176   20.5036 O   0  0  0  0  0  0  0  0  0  0  0  0
    7.4543  -14.5640   19.8203 C   0  0  2  0  0  0  0  0  0  0  0  0
    6.3090  -13.7068   20.0569 N   0  0  0  0  0  0  0  0  0  0  0  0
    7.7374  -15.4365   20.9828 C   0  0  0  0  0  0  0  0  0  0  0  0
    7.2456  -15.0546   22.0990 O   0  0  0  0  0  0  0  0  0  0  0  0
    8.4969  -16.6327   20.9366 N   0  0  0  0  0  0  0  0  0  0  0  0
    8.6821  -17.3980   22.1248 C   0  0  1  0  0  0  0  0  0  0  0  0
    9.1911  -18.8102   21.8025 C   0  0  0  0  0  0  0  0  0  0  0  0
    8.1642  -19.4580   20.9613 C   0  0  0  0  0  0  0  0  0  0  0  0
    7.0564  -19.7389   21.4830 O   0  0  0  0  0  0  0  0  0  0  0  0
    9.6401  -16.7979   23.0806 C   0  0  0  0  0  0  0  0  0  0  0  0
   10.6878  -16.1945   22.7445 O   0  0  0  0  0  0  0  0  0  0  0  0
    8.3318  -19.7817   19.6296 O   0  0  0  0  0  0  0  0  0  0  0  0
    9.3520  -16.9132   24.4740 N   0  0  0  0  0  0  0  0  0  0  0  0
   10.2775  -16.5799   25.5070 C   0  0  1  0  0  0  0  0  0  0  0  0
    9.8724  -15.3986   26.3461 C   0  0  0  0  0  0  0  0  0  0  0  0
    8.4329  -15.0727   26.1869 C   0  0  0  0  0  0  0  0  0  0  0  0
    7.3656  -15.9084   25.9270 C   0  0  0  0  0  0  0  0  0  0  0  0
    6.2135  -15.2164   25.8618 N   0  0  0  0  0  0  0  0  0  0  0  0
    6.4898  -13.8975   26.0778 C   0  0  0  0  0  0  0  0  0  0  0  0
    5.6611  -12.7926   26.1119 C   0  0  0  0  0  0  0  0  0  0  0  0
    6.2294  -11.5545   26.3564 C   0  0  0  0  0  0  0  0  0  0  0  0
    7.5979  -11.4469   26.5592 C   0  0  0  0  0  0  0  0  0  0  0  0
    8.4021  -12.5649   26.5199 C   0  0  0  0  0  0  0  0  0  0  0  0
    7.8523  -13.8077   26.2775 C   0  0  0  0  0  0  0  0  0  0  0  0
   10.4683  -17.7593   26.3807 C   0  0  0  0  0  0  0  0  0  0  0  0
    9.7193  -18.9172   26.2558 O   0  0  0  0  0  0  0  0  0  0  0  0
   11.3430  -17.7148   27.2731 O   0  0  0  0  0  0  0  0  0  0  0  0
  2  1  1  6
  2  3  1  0
  4  2  1  0
  4  5  1  1
  6  7  2  0
  6  4  1  0
  8  6  1  0
  9 13  1  0
  9  8  1  0
  9 10  1  6
 11 15  1  0
 11 10  1  0
 12 11  2  0
 13 14  2  0
 16 17  1  0
 16 13  1  0
 17 18  1  1
 19 18  1  0
 20 19  2  0
 21 20  1  0
 22 21  1  0
 22 27  2  0
 23 24  2  0
 23 22  1  0
 24 25  1  0
 25 26  2  0
 27 26  1  0
 27 19  1  0
 28 17  1  0
 28 29  1  0
 30 28  2  0
M  END
$$$$
