TDW.pdb
     RDKit          3D

 30 31  0  0  1  0  0  0  0  0999 V2000
    8.8167  -13.1530   21.3262 C   0  0  0  0  0  0  0  0  0  0  0  0
    7.6402  -13.8695   20.7300 C   0  0  1  0  0  0  0  0  0  0  0  0
    6.9288  -13.1131   19.8115 O   0  0  0  0  0  0  0  0  0  0  0  0
    8.0094  -15.2455   20.2119 C   0  0  2  0  0  0  0  0  0  0  0  0
    6.7966  -15.8826   19.7370 N   0  0  0  0  0  0  0  0  0  0  0  0
    8.7067  -16.0744   21.2217 C   0  0  0  0  0  0  0  0  0  0  0  0
    7.9576  -16.6577   22.0774 O   0  0  0  0  0  0  0  0  0  0  0  0
   10.1106  -16.2562   21.2964 N   0  0  0  0  0  0  0  0  0  0  0  0
   10.6758  -16.9413   22.4113 C   0  0  1  0  0  0  0  0  0  0  0  0
   12.1825  -17.1661   22.2199 C   0  0  0  0  0  0  0  0  0  0  0  0
   12.3501  -18.5281   21.6735 C   0  0  0  0  0  0  0  0  0  0  0  0
   11.3651  -19.0717   21.1143 O   0  0  0  0  0  0  0  0  0  0  0  0
   10.5017  -16.2340   23.7001 C   0  0  0  0  0  0  0  0  0  0  0  0
   10.7965  -15.0290   23.8890 O   0  0  0  0  0  0  0  0  0  0  0  0
   13.5211  -19.2572   21.7315 O   0  0  0  0  0  0  0  0  0  0  0  0
    9.9632  -16.9712   24.7975 N   0  0  0  0  0  0  0  0  0  0  0  0
    9.9116  -16.4800   26.1357 C   0  0  1  0  0  0  0  0  0  0  0  0
    8.5495  -16.5505   26.7709 C   0  0  0  0  0  0  0  0  0  0  0  0
    7.5460  -15.7538   26.0211 C   0  0  0  0  0  0  0  0  0  0  0  0
    6.5313  -16.1781   25.1873 C   0  0  0  0  0  0  0  0  0  0  0  0
    5.8338  -15.1342   24.7033 N   0  0  0  0  0  0  0  0  0  0  0  0
    6.3719  -13.9856   25.2068 C   0  0  0  0  0  0  0  0  0  0  0  0
    6.0223  -12.6626   25.0164 C   0  0  0  0  0  0  0  0  0  0  0  0
    6.7611  -11.6893   25.6664 C   0  0  0  0  0  0  0  0  0  0  0  0
    7.8217  -12.0535   26.4838 C   0  0  0  0  0  0  0  0  0  0  0  0
    8.1495  -13.3804   26.6567 C   0  0  0  0  0  0  0  0  0  0  0  0
    7.4234  -14.3644   26.0162 C   0  0  0  0  0  0  0  0  0  0  0  0
   10.8780  -17.2365   26.9632 C   0  0  0  0  0  0  0  0  0  0  0  0
   11.1493  -16.9182   28.2832 O   0  0  0  0  0  0  0  0  0  0  0  0
   11.4792  -18.2074   26.4539 O   0  0  0  0  0  0  0  0  0  0  0  0
  2  1  1  6
  2  3  1  0
  4  2  1  0
  4  5  1  1
  6  7  2  0
  6  4  1  0
  8  6  1  0
  9 13  1  0
  9  8  1  0
  9 10  1  6
 11 15  1  0
 11 10  1  0
 12 11  2  0
 13 14  2  0
 16 17  1  0
 16 13  1  0
 17 18  1  1
 19 18  1  0
 20 19  2  0
 21 20  1  0
 22 21  1  0
 22 27  2  0
 23 24  2  0
 23 22  1  0
 24 25  1  0
 25 26  2  0
 27 26  1  0
 27 19  1  0
 28 17  1  0
 28 29  1  0
 30 28  2  0
M  END
$$$$
