TDW.pdb
     RDKit          3D

 30 31  0  0  1  0  0  0  0  0999 V2000
    6.7496  -13.5981   20.4189 C   0  0  0  0  0  0  0  0  0  0  0  0
    7.6138  -14.3618   21.3796 C   0  0  1  0  0  0  0  0  0  0  0  0
    7.1767  -14.3061   22.6940 O   0  0  0  0  0  0  0  0  0  0  0  0
    7.8922  -15.7736   20.9024 C   0  0  2  0  0  0  0  0  0  0  0  0
    6.6176  -16.4341   20.6986 N   0  0  0  0  0  0  0  0  0  0  0  0
    8.7637  -16.5340   21.8272 C   0  0  0  0  0  0  0  0  0  0  0  0
    8.1767  -17.4022   22.5589 O   0  0  0  0  0  0  0  0  0  0  0  0
   10.1660  -16.3644   21.9481 N   0  0  0  0  0  0  0  0  0  0  0  0
   10.8805  -17.0833   22.9505 C   0  0  1  0  0  0  0  0  0  0  0  0
   12.3367  -17.3258   22.5287 C   0  0  0  0  0  0  0  0  0  0  0  0
   12.9314  -18.2331   23.5311 C   0  0  0  0  0  0  0  0  0  0  0  0
   12.3007  -19.2744   23.8414 O   0  0  0  0  0  0  0  0  0  0  0  0
   10.9157  -16.4032   24.2649 C   0  0  0  0  0  0  0  0  0  0  0  0
   11.6043  -15.3842   24.5139 O   0  0  0  0  0  0  0  0  0  0  0  0
   14.1421  -18.0207   24.1599 O   0  0  0  0  0  0  0  0  0  0  0  0
   10.1139  -16.9422   25.3158 N   0  0  0  0  0  0  0  0  0  0  0  0
   10.1581  -16.4816   26.6651 C   0  0  1  0  0  0  0  0  0  0  0  0
    8.8140  -16.3926   27.3352 C   0  0  0  0  0  0  0  0  0  0  0  0
    7.7957  -15.7664   26.4549 C   0  0  0  0  0  0  0  0  0  0  0  0
    6.9122  -16.3568   25.5741 C   0  0  0  0  0  0  0  0  0  0  0  0
    6.1456  -15.4335   24.9654 N   0  0  0  0  0  0  0  0  0  0  0  0
    6.5041  -14.2014   25.4299 C   0  0  0  0  0  0  0  0  0  0  0  0
    6.0246  -12.9429   25.1216 C   0  0  0  0  0  0  0  0  0  0  0  0
    6.5889  -11.8521   25.7599 C   0  0  0  0  0  0  0  0  0  0  0  0
    7.6087  -12.0388   26.6823 C   0  0  0  0  0  0  0  0  0  0  0  0
    8.0685  -13.3048   26.9717 C   0  0  0  0  0  0  0  0  0  0  0  0
    7.5172  -14.4042   26.3446 C   0  0  0  0  0  0  0  0  0  0  0  0
   11.0387  -17.3759   27.4498 C   0  0  0  0  0  0  0  0  0  0  0  0
   11.3737  -17.1321   28.7710 O   0  0  0  0  0  0  0  0  0  0  0  0
   11.5038  -18.3988   26.9014 O   0  0  0  0  0  0  0  0  0  0  0  0
  2  1  1  6
  2  3  1  0
  4  2  1  0
  4  5  1  1
  6  7  2  0
  6  4  1  0
  8  6  1  0
  9 13  1  0
  9  8  1  0
  9 10  1  6
 11 15  1  0
 11 10  1  0
 12 11  2  0
 13 14  2  0
 16 17  1  0
 16 13  1  0
 17 18  1  1
 19 18  1  0
 20 19  2  0
 21 20  1  0
 22 21  1  0
 22 27  2  0
 23 24  2  0
 23 22  1  0
 24 25  1  0
 25 26  2  0
 27 26  1  0
 27 19  1  0
 28 17  1  0
 28 29  1  0
 30 28  2  0
M  END
$$$$
