TIS.pdb
     RDKit          3D

 22 21  0  0  1  0  0  0  0  0999 V2000
    6.3916  -17.1609   22.0321 C   0  0  0  0  0  0  0  0  0  0  0  0
    7.2363  -16.5050   20.9477 C   0  0  1  0  0  0  0  0  0  0  0  0
    6.7066  -16.7908   19.6994 O   0  0  0  0  0  0  0  0  0  0  0  0
    7.2947  -15.0078   21.1542 C   0  0  2  0  0  0  0  0  0  0  0  0
    7.8980  -14.3869   20.0169 N   0  0  0  0  0  0  0  0  0  0  0  0
    8.0071  -14.6992   22.4235 C   0  0  0  0  0  0  0  0  0  0  0  0
    9.2648  -14.6728   22.4163 O   0  0  0  0  0  0  0  0  0  0  0  0
    5.6423  -11.5032   26.2607 C   0  0  0  0  0  0  0  0  0  0  0  0
    6.7387  -12.1113   25.4499 C   0  0  0  0  0  0  0  0  0  0  0  0
    7.2227  -13.4378   25.9038 C   0  0  2  0  0  0  0  0  0  0  0  0
    7.9904  -13.2974   27.2359 C   0  0  0  0  0  0  0  0  0  0  0  0
    8.0170  -14.2438   24.9243 C   0  0  2  0  0  0  0  0  0  0  0  0
    7.3459  -14.4337   23.6381 N   0  0  0  0  0  0  0  0  0  0  0  0
    8.2837  -15.6103   25.5126 C   0  0  0  0  0  0  0  0  0  0  0  0
    7.3360  -16.3711   25.7788 O   0  0  0  0  0  0  0  0  0  0  0  0
   11.6794  -17.4970   24.8377 O   0  0  0  0  0  0  0  0  0  0  0  0
   10.6004  -18.2386   25.2709 C   0  0  0  0  0  0  0  0  0  0  0  0
    9.8391  -17.4144   26.2825 C   0  0  2  0  0  0  0  0  0  0  0  0
    9.6044  -16.0559   25.7734 N   0  0  0  0  0  0  0  0  0  0  0  0
   10.6099  -17.3553   27.5490 C   0  0  0  0  0  0  0  0  0  0  0  0
   10.9408  -16.2153   27.9614 O   0  0  0  0  0  0  0  0  0  0  0  0
   10.9623  -18.4853   28.2643 O   0  0  0  0  0  0  0  0  0  0  0  0
  2  1  1  1
  2  3  1  0
  4  2  1  0
  4  6  1  0
  4  5  1  6
  6 13  1  0
  7  6  2  0
  8  9  1  0
  9 10  1  0
 10 11  1  1
 10 12  1  0
 12 14  1  0
 12 13  1  6
 14 15  2  0
 14 19  1  0
 17 16  1  0
 18 17  1  6
 19 18  1  0
 20 18  1  0
 20 22  1  0
 21 20  2  0
M  END
$$$$
