TIS.pdb
     RDKit          3D

 22 21  0  0  1  0  0  0  0  0999 V2000
    7.7633  -19.4066   26.0381 C   0  0  0  0  0  0  0  0  0  0  0  0
    6.7004  -19.8347   25.0346 C   0  0  1  0  0  0  0  0  0  0  0  0
    6.1061  -21.0152   25.4515 O   0  0  0  0  0  0  0  0  0  0  0  0
    5.6527  -18.7550   24.8792 C   0  0  2  0  0  0  0  0  0  0  0  0
    4.6284  -19.2013   23.9878 N   0  0  0  0  0  0  0  0  0  0  0  0
    6.2930  -17.4887   24.4319 C   0  0  0  0  0  0  0  0  0  0  0  0
    6.5359  -17.3375   23.2069 O   0  0  0  0  0  0  0  0  0  0  0  0
    5.9167  -12.5949   27.2046 C   0  0  0  0  0  0  0  0  0  0  0  0
    6.0866  -13.5009   26.0300 C   0  0  0  0  0  0  0  0  0  0  0  0
    7.4072  -14.1650   25.9082 C   0  0  2  0  0  0  0  0  0  0  0  0
    8.5029  -13.1204   25.6054 C   0  0  0  0  0  0  0  0  0  0  0  0
    7.5043  -15.3165   24.9569 C   0  0  2  0  0  0  0  0  0  0  0  0
    6.6435  -16.4454   25.3104 N   0  0  0  0  0  0  0  0  0  0  0  0
    8.9313  -15.8140   24.9300 C   0  0  0  0  0  0  0  0  0  0  0  0
    9.4536  -16.2679   25.9640 O   0  0  0  0  0  0  0  0  0  0  0  0
   11.0699  -15.8877   21.4047 O   0  0  0  0  0  0  0  0  0  0  0  0
   11.2186  -16.9787   22.2350 C   0  0  0  0  0  0  0  0  0  0  0  0
   10.9633  -16.5279   23.6541 C   0  0  2  0  0  0  0  0  0  0  0  0
    9.7029  -15.7772   23.7409 N   0  0  0  0  0  0  0  0  0  0  0  0
   12.0915  -15.6795   24.1111 C   0  0  0  0  0  0  0  0  0  0  0  0
   11.8164  -14.5017   24.4523 O   0  0  0  0  0  0  0  0  0  0  0  0
   13.3958  -16.1359   24.1696 O   0  0  0  0  0  0  0  0  0  0  0  0
  2  1  1  1
  2  3  1  0
  4  2  1  0
  4  6  1  0
  4  5  1  6
  6 13  1  0
  7  6  2  0
  8  9  1  0
  9 10  1  0
 10 11  1  6
 10 12  1  0
 12 14  1  0
 12 13  1  1
 14 15  2  0
 14 19  1  0
 17 16  1  0
 18 17  1  6
 19 18  1  0
 20 18  1  0
 20 22  1  0
 21 20  2  0
M  END
$$$$
