TIS.pdb
     RDKit          3D

 22 21  0  0  1  0  0  0  0  0999 V2000
    6.3978  -16.8921   21.5601 C   0  0  0  0  0  0  0  0  0  0  0  0
    7.2957  -16.1046   20.6149 C   0  0  1  0  0  0  0  0  0  0  0  0
    6.8333  -16.2259   19.3142 O   0  0  0  0  0  0  0  0  0  0  0  0
    7.3376  -14.6467   21.0152 C   0  0  2  0  0  0  0  0  0  0  0  0
    7.9149  -13.8732   19.9609 N   0  0  0  0  0  0  0  0  0  0  0  0
    8.0654  -14.4961   22.3041 C   0  0  0  0  0  0  0  0  0  0  0  0
    9.3230  -14.5214   22.2913 O   0  0  0  0  0  0  0  0  0  0  0  0
    5.9351  -11.5637   26.6070 C   0  0  0  0  0  0  0  0  0  0  0  0
    6.8389  -12.1825   25.5923 C   0  0  0  0  0  0  0  0  0  0  0  0
    7.3128  -13.5547   25.8960 C   0  0  2  0  0  0  0  0  0  0  0  0
    8.0780  -13.5694   27.2369 C   0  0  0  0  0  0  0  0  0  0  0  0
    8.1042  -14.2517   24.8340 C   0  0  2  0  0  0  0  0  0  0  0  0
    7.4188  -14.3261   23.5435 N   0  0  0  0  0  0  0  0  0  0  0  0
    8.3958  -15.6646   25.2845 C   0  0  0  0  0  0  0  0  0  0  0  0
    7.4601  -16.4460   25.5335 O   0  0  0  0  0  0  0  0  0  0  0  0
   11.8702  -17.4619   24.4305 O   0  0  0  0  0  0  0  0  0  0  0  0
   10.7712  -18.2366   24.7368 C   0  0  0  0  0  0  0  0  0  0  0  0
    9.9816  -17.5283   25.8125 C   0  0  2  0  0  0  0  0  0  0  0  0
    9.7264  -16.1314   25.4336 N   0  0  0  0  0  0  0  0  0  0  0  0
   10.7357  -17.5778   27.0894 C   0  0  0  0  0  0  0  0  0  0  0  0
   11.0847  -16.4781   27.5876 O   0  0  0  0  0  0  0  0  0  0  0  0
   11.0544  -18.7640   27.7252 O   0  0  0  0  0  0  0  0  0  0  0  0
  2  1  1  1
  2  3  1  0
  4  2  1  0
  4  6  1  0
  4  5  1  6
  6 13  1  0
  7  6  2  0
  8  9  1  0
  9 10  1  0
 10 11  1  1
 10 12  1  0
 12 14  1  0
 12 13  1  6
 14 15  2  0
 14 19  1  0
 17 16  1  0
 18 17  1  6
 19 18  1  0
 20 18  1  0
 20 22  1  0
 21 20  2  0
M  END
$$$$
