TIS.pdb
     RDKit          3D

 22 21  0  0  1  0  0  0  0  0999 V2000
    6.0098  -16.8979   20.1289 C   0  0  0  0  0  0  0  0  0  0  0  0
    6.9193  -16.5425   21.2978 C   0  0  1  0  0  0  0  0  0  0  0  0
    8.0603  -17.3282   21.2637 O   0  0  0  0  0  0  0  0  0  0  0  0
    7.2976  -15.0789   21.2492 C   0  0  2  0  0  0  0  0  0  0  0  0
    7.9969  -14.8013   20.0340 N   0  0  0  0  0  0  0  0  0  0  0  0
    8.0831  -14.7185   22.4603 C   0  0  0  0  0  0  0  0  0  0  0  0
    9.3338  -14.6277   22.3610 O   0  0  0  0  0  0  0  0  0  0  0  0
    5.8929  -11.5819   26.4990 C   0  0  0  0  0  0  0  0  0  0  0  0
    6.9399  -12.1512   25.5996 C   0  0  0  0  0  0  0  0  0  0  0  0
    7.4772  -13.4782   25.9875 C   0  0  2  0  0  0  0  0  0  0  0  0
    8.2961  -13.3610   27.2910 C   0  0  0  0  0  0  0  0  0  0  0  0
    8.2506  -14.2289   24.9490 C   0  0  2  0  0  0  0  0  0  0  0  0
    7.4988  -14.4723   23.7177 N   0  0  0  0  0  0  0  0  0  0  0  0
    8.6597  -15.5700   25.5134 C   0  0  0  0  0  0  0  0  0  0  0  0
    7.7929  -16.4028   25.8345 O   0  0  0  0  0  0  0  0  0  0  0  0
   12.0733  -18.8974   26.0315 O   0  0  0  0  0  0  0  0  0  0  0  0
   11.6966  -17.6909   25.4797 C   0  0  0  0  0  0  0  0  0  0  0  0
   10.3990  -17.2636   26.1246 C   0  0  2  0  0  0  0  0  0  0  0  0
   10.0248  -15.9105   25.6900 N   0  0  0  0  0  0  0  0  0  0  0  0
   10.5481  -17.2992   27.6004 C   0  0  0  0  0  0  0  0  0  0  0  0
   10.5444  -16.1947   28.1999 O   0  0  0  0  0  0  0  0  0  0  0  0
   10.6866  -18.4778   28.3107 O   0  0  0  0  0  0  0  0  0  0  0  0
  2  1  1  6
  2  3  1  0
  4  2  1  0
  4  6  1  0
  4  5  1  6
  6 13  1  0
  7  6  2  0
  8  9  1  0
  9 10  1  0
 10 11  1  1
 10 12  1  0
 12 14  1  0
 12 13  1  6
 14 15  2  0
 14 19  1  0
 17 16  1  0
 18 17  1  6
 19 18  1  0
 20 18  1  0
 20 22  1  0
 21 20  2  0
M  END
$$$$
