TIS.pdb
     RDKit          3D

 22 21  0  0  1  0  0  0  0  0999 V2000
    5.9886  -16.2237   19.8328 C   0  0  0  0  0  0  0  0  0  0  0  0
    6.8644  -15.9830   21.0555 C   0  0  1  0  0  0  0  0  0  0  0  0
    8.0268  -16.7312   20.9580 O   0  0  0  0  0  0  0  0  0  0  0  0
    7.2036  -14.5147   21.1838 C   0  0  2  0  0  0  0  0  0  0  0  0
    7.9185  -14.0814   20.0244 N   0  0  0  0  0  0  0  0  0  0  0  0
    7.9557  -14.2771   22.4455 C   0  0  0  0  0  0  0  0  0  0  0  0
    9.2111  -14.2156   22.3950 O   0  0  0  0  0  0  0  0  0  0  0  0
    5.7657  -11.4719   26.7368 C   0  0  0  0  0  0  0  0  0  0  0  0
    6.8319  -11.9889   25.8283 C   0  0  0  0  0  0  0  0  0  0  0  0
    7.2657  -13.3871   26.0663 C   0  0  2  0  0  0  0  0  0  0  0  0
    8.0199  -13.4895   27.4095 C   0  0  0  0  0  0  0  0  0  0  0  0
    8.0459  -14.0522   24.9758 C   0  0  2  0  0  0  0  0  0  0  0  0
    7.3344  -14.1165   23.6990 N   0  0  0  0  0  0  0  0  0  0  0  0
    8.3709  -15.4673   25.3956 C   0  0  0  0  0  0  0  0  0  0  0  0
    7.4548  -16.2854   25.5943 O   0  0  0  0  0  0  0  0  0  0  0  0
   12.0663  -17.0291   24.9108 O   0  0  0  0  0  0  0  0  0  0  0  0
   11.0124  -17.9070   25.0546 C   0  0  0  0  0  0  0  0  0  0  0  0
    9.9986  -17.2771   25.9807 C   0  0  2  0  0  0  0  0  0  0  0  0
    9.7113  -15.8949   25.5719 N   0  0  0  0  0  0  0  0  0  0  0  0
   10.5216  -17.2970   27.3690 C   0  0  0  0  0  0  0  0  0  0  0  0
   10.6160  -16.1908   27.9579 O   0  0  0  0  0  0  0  0  0  0  0  0
   10.8958  -18.4633   28.0115 O   0  0  0  0  0  0  0  0  0  0  0  0
  2  1  1  6
  2  3  1  0
  4  2  1  0
  4  6  1  0
  4  5  1  6
  6 13  1  0
  7  6  2  0
  8  9  1  0
  9 10  1  0
 10 11  1  1
 10 12  1  0
 12 14  1  0
 12 13  1  6
 14 15  2  0
 14 19  1  0
 17 16  1  0
 18 17  1  6
 19 18  1  0
 20 18  1  0
 20 22  1  0
 21 20  2  0
M  END
$$$$
