TIS.pdb
     RDKit          3D

 22 21  0  0  1  0  0  0  0  0999 V2000
    6.2349  -16.0682   19.7070 C   0  0  0  0  0  0  0  0  0  0  0  0
    6.9565  -15.8252   21.0261 C   0  0  1  0  0  0  0  0  0  0  0  0
    8.0551  -16.6641   21.1245 O   0  0  0  0  0  0  0  0  0  0  0  0
    7.3966  -14.3820   21.1315 C   0  0  2  0  0  0  0  0  0  0  0  0
    8.2423  -14.0535   20.0270 N   0  0  0  0  0  0  0  0  0  0  0  0
    8.0510  -14.1470   22.4469 C   0  0  0  0  0  0  0  0  0  0  0  0
    9.3061  -14.0735   22.4898 O   0  0  0  0  0  0  0  0  0  0  0  0
    5.6109  -11.2648   26.5155 C   0  0  0  0  0  0  0  0  0  0  0  0
    6.6702  -11.8483   25.6399 C   0  0  0  0  0  0  0  0  0  0  0  0
    7.1232  -13.2159   25.9925 C   0  0  2  0  0  0  0  0  0  0  0  0
    7.8344  -13.2047   27.3628 C   0  0  0  0  0  0  0  0  0  0  0  0
    7.9519  -13.9406   24.9785 C   0  0  2  0  0  0  0  0  0  0  0  0
    7.3374  -14.0017   23.6522 N   0  0  0  0  0  0  0  0  0  0  0  0
    8.1770  -15.3591   25.4494 C   0  0  0  0  0  0  0  0  0  0  0  0
    7.2057  -16.0944   25.7021 O   0  0  0  0  0  0  0  0  0  0  0  0
   11.7655  -17.1256   24.9431 O   0  0  0  0  0  0  0  0  0  0  0  0
   10.6707  -17.9558   25.0612 C   0  0  0  0  0  0  0  0  0  0  0  0
    9.6749  -17.2924   25.9836 C   0  0  2  0  0  0  0  0  0  0  0  0
    9.4844  -15.8829   25.6136 N   0  0  0  0  0  0  0  0  0  0  0  0
   10.1604  -17.3885   27.3824 C   0  0  0  0  0  0  0  0  0  0  0  0
   10.4055  -16.3080   27.9755 O   0  0  0  0  0  0  0  0  0  0  0  0
   10.3443  -18.5967   28.0298 O   0  0  0  0  0  0  0  0  0  0  0  0
  2  1  1  6
  2  3  1  0
  4  2  1  0
  4  6  1  0
  4  5  1  6
  6 13  1  0
  7  6  2  0
  8  9  1  0
  9 10  1  0
 10 11  1  1
 10 12  1  0
 12 14  1  0
 12 13  1  6
 14 15  2  0
 14 19  1  0
 17 16  1  0
 18 17  1  6
 19 18  1  0
 20 18  1  0
 20 22  1  0
 21 20  2  0
M  END
$$$$
