TIS.pdb
     RDKit          3D

 22 21  0  0  1  0  0  0  0  0999 V2000
    6.4047  -17.1426   21.7496 C   0  0  0  0  0  0  0  0  0  0  0  0
    7.3915  -16.6615   20.6939 C   0  0  1  0  0  0  0  0  0  0  0  0
    6.9222  -16.9798   19.4294 O   0  0  0  0  0  0  0  0  0  0  0  0
    7.6021  -15.1680   20.8066 C   0  0  2  0  0  0  0  0  0  0  0  0
    8.3487  -14.6996   19.6814 N   0  0  0  0  0  0  0  0  0  0  0  0
    8.2541  -14.8450   22.1044 C   0  0  0  0  0  0  0  0  0  0  0  0
    9.4971  -15.0072   22.2098 O   0  0  0  0  0  0  0  0  0  0  0  0
    7.1857  -11.8585   27.5373 C   0  0  0  0  0  0  0  0  0  0  0  0
    7.8888  -12.9223   26.7607 C   0  0  0  0  0  0  0  0  0  0  0  0
    7.3797  -13.1689   25.3896 C   0  0  2  0  0  0  0  0  0  0  0  0
    5.8865  -13.5584   25.4379 C   0  0  0  0  0  0  0  0  0  0  0  0
    8.1461  -14.1367   24.5432 C   0  0  2  0  0  0  0  0  0  0  0  0
    7.5511  -14.3654   23.2263 N   0  0  0  0  0  0  0  0  0  0  0  0
    8.2151  -15.4674   25.2565 C   0  0  0  0  0  0  0  0  0  0  0  0
    7.1869  -16.1534   25.3990 O   0  0  0  0  0  0  0  0  0  0  0  0
   11.4785  -17.6572   25.2038 O   0  0  0  0  0  0  0  0  0  0  0  0
   10.2760  -18.2529   25.5219 C   0  0  0  0  0  0  0  0  0  0  0  0
    9.4931  -17.2969   26.3910 C   0  0  2  0  0  0  0  0  0  0  0  0
    9.4379  -15.9633   25.7758 N   0  0  0  0  0  0  0  0  0  0  0  0
   10.1310  -17.2126   27.7280 C   0  0  0  0  0  0  0  0  0  0  0  0
   10.5333  -16.0805   28.0966 O   0  0  0  0  0  0  0  0  0  0  0  0
   10.2894  -18.3116   28.5526 O   0  0  0  0  0  0  0  0  0  0  0  0
  2  1  1  1
  2  3  1  0
  4  2  1  0
  4  6  1  0
  4  5  1  6
  6 13  1  0
  7  6  2  0
  8  9  1  0
  9 10  1  0
 10 11  1  1
 10 12  1  0
 12 14  1  0
 12 13  1  6
 14 15  2  0
 14 19  1  0
 17 16  1  0
 18 17  1  6
 19 18  1  0
 20 18  1  0
 20 22  1  0
 21 20  2  0
M  END
$$$$
