TIS.pdb
     RDKit          3D

 22 21  0  0  1  0  0  0  0  0999 V2000
    6.3063  -16.8188   21.6832 C   0  0  0  0  0  0  0  0  0  0  0  0
    7.3667  -16.2359   20.7582 C   0  0  1  0  0  0  0  0  0  0  0  0
    6.9876  -16.4103   19.4367 O   0  0  0  0  0  0  0  0  0  0  0  0
    7.5724  -14.7657   21.0476 C   0  0  2  0  0  0  0  0  0  0  0  0
    8.3430  -14.1710   20.0010 N   0  0  0  0  0  0  0  0  0  0  0  0
    8.1951  -14.5958   22.3882 C   0  0  0  0  0  0  0  0  0  0  0  0
    9.4446  -14.7010   22.4887 O   0  0  0  0  0  0  0  0  0  0  0  0
    5.8402  -11.3859   26.3808 C   0  0  0  0  0  0  0  0  0  0  0  0
    6.7865  -12.0854   25.4618 C   0  0  0  0  0  0  0  0  0  0  0  0
    7.1855  -13.4567   25.8620 C   0  0  2  0  0  0  0  0  0  0  0  0
    7.8422  -13.4341   27.2591 C   0  0  0  0  0  0  0  0  0  0  0  0
    8.0322  -14.2274   24.8980 C   0  0  2  0  0  0  0  0  0  0  0  0
    7.4572  -14.3222   23.5560 N   0  0  0  0  0  0  0  0  0  0  0  0
    8.2188  -15.6331   25.4211 C   0  0  0  0  0  0  0  0  0  0  0  0
    7.2295  -16.3588   25.6274 O   0  0  0  0  0  0  0  0  0  0  0  0
   11.5414  -17.6938   24.7570 O   0  0  0  0  0  0  0  0  0  0  0  0
   10.3941  -18.3694   25.1164 C   0  0  0  0  0  0  0  0  0  0  0  0
    9.6654  -17.5421   26.1493 C   0  0  2  0  0  0  0  0  0  0  0  0
    9.5098  -16.1556   25.6875 N   0  0  0  0  0  0  0  0  0  0  0  0
   10.4224  -17.5699   27.4251 C   0  0  0  0  0  0  0  0  0  0  0  0
   10.5757  -18.6909   27.9719 O   0  0  0  0  0  0  0  0  0  0  0  0
   10.9469  -16.4313   28.0094 O   0  0  0  0  0  0  0  0  0  0  0  0
  2  1  1  1
  2  3  1  0
  4  2  1  0
  4  6  1  0
  4  5  1  6
  6 13  1  0
  7  6  2  0
  8  9  1  0
  9 10  1  0
 10 11  1  1
 10 12  1  0
 12 14  1  0
 12 13  1  6
 14 15  2  0
 14 19  1  0
 17 16  1  0
 18 17  1  6
 19 18  1  0
 20 18  1  0
 20 22  1  0
 21 20  2  0
M  END
$$$$
