TIS.pdb
     RDKit          3D

 22 21  0  0  1  0  0  0  0  0999 V2000
    6.6921  -16.5273   21.0158 C   0  0  0  0  0  0  0  0  0  0  0  0
    7.4523  -15.5988   20.0777 C   0  0  1  0  0  0  0  0  0  0  0  0
    6.9615  -15.7259   18.7880 O   0  0  0  0  0  0  0  0  0  0  0  0
    7.3300  -14.1635   20.5386 C   0  0  2  0  0  0  0  0  0  0  0  0
    7.7731  -13.2844   19.5023 N   0  0  0  0  0  0  0  0  0  0  0  0
    8.0770  -13.9749   21.8115 C   0  0  0  0  0  0  0  0  0  0  0  0
    9.3216  -13.7996   21.7582 O   0  0  0  0  0  0  0  0  0  0  0  0
    7.3229  -12.0770   27.6999 C   0  0  0  0  0  0  0  0  0  0  0  0
    8.0839  -12.8788   26.6963 C   0  0  0  0  0  0  0  0  0  0  0  0
    7.4227  -13.0707   25.3826 C   0  0  2  0  0  0  0  0  0  0  0  0
    6.0106  -13.6634   25.5785 C   0  0  0  0  0  0  0  0  0  0  0  0
    8.1770  -13.8462   24.3482 C   0  0  2  0  0  0  0  0  0  0  0  0
    7.4627  -13.9822   23.0786 N   0  0  0  0  0  0  0  0  0  0  0  0
    8.4496  -15.2359   24.8762 C   0  0  0  0  0  0  0  0  0  0  0  0
    7.5292  -16.0704   24.9417 O   0  0  0  0  0  0  0  0  0  0  0  0
   11.2793  -17.1780   23.8559 O   0  0  0  0  0  0  0  0  0  0  0  0
   11.2386  -17.5604   25.1803 C   0  0  0  0  0  0  0  0  0  0  0  0
    9.9860  -16.9843   25.7978 C   0  0  2  0  0  0  0  0  0  0  0  0
    9.7451  -15.6206   25.3056 N   0  0  0  0  0  0  0  0  0  0  0  0
   10.1262  -16.9730   27.2749 C   0  0  0  0  0  0  0  0  0  0  0  0
   10.1024  -15.8510   27.8405 O   0  0  0  0  0  0  0  0  0  0  0  0
   10.2774  -18.1274   28.0215 O   0  0  0  0  0  0  0  0  0  0  0  0
  2  1  1  1
  2  3  1  0
  4  2  1  0
  4  6  1  0
  4  5  1  6
  6 13  1  0
  7  6  2  0
  8  9  1  0
  9 10  1  0
 10 11  1  1
 10 12  1  0
 12 14  1  0
 12 13  1  6
 14 15  2  0
 14 19  1  0
 17 16  1  0
 18 17  1  6
 19 18  1  0
 20 18  1  0
 20 22  1  0
 21 20  2  0
M  END
$$$$
