VTK.pdb
     RDKit          3D

 24 23  0  0  1  0  0  0  0  0999 V2000
    7.7992  -12.2518   18.4273 C   0  0  0  0  0  0  0  0  0  0  0  0
    7.7752  -13.2333   19.5780 C   0  0  2  0  0  0  0  0  0  0  0  0
    8.5691  -12.6609   20.7387 C   0  0  0  0  0  0  0  0  0  0  0  0
    8.3648  -14.5369   19.0856 C   0  0  2  0  0  0  0  0  0  0  0  0
    7.5307  -15.0282   18.0125 N   0  0  0  0  0  0  0  0  0  0  0  0
    8.4527  -15.4933   20.2089 C   0  0  0  0  0  0  0  0  0  0  0  0
    7.3562  -15.8806   20.7101 O   0  0  0  0  0  0  0  0  0  0  0  0
    9.0837  -18.7616   20.5959 C   0  0  0  0  0  0  0  0  0  0  0  0
   10.1474  -18.1805   21.4708 C   0  0  1  0  0  0  0  0  0  0  0  0
   11.4003  -18.1436   20.8986 O   0  0  0  0  0  0  0  0  0  0  0  0
    9.6963  -16.7766   21.8847 C   0  0  2  0  0  0  0  0  0  0  0  0
    9.6909  -15.9670   20.7163 N   0  0  0  0  0  0  0  0  0  0  0  0
   10.6181  -16.2825   22.9389 C   0  0  0  0  0  0  0  0  0  0  0  0
   11.6393  -15.6113   22.7148 O   0  0  0  0  0  0  0  0  0  0  0  0
   10.3138  -16.5969   24.2899 N   0  0  0  0  0  0  0  0  0  0  0  0
   11.1655  -16.0946   25.4079 C   0  0  1  0  0  0  0  0  0  0  0  0
   10.2233  -15.7978   26.5409 C   0  0  0  0  0  0  0  0  0  0  0  0
   10.9691  -15.3495   27.7581 C   0  0  0  0  0  0  0  0  0  0  0  0
   10.0034  -15.1574   28.9005 C   0  0  0  0  0  0  0  0  0  0  0  0
   10.7107  -14.6536   30.1469 C   0  0  0  0  0  0  0  0  0  0  0  0
    9.8031  -14.3551   31.2105 N   0  0  0  0  0  0  0  0  0  0  0  0
   12.0436  -17.2184   25.7901 C   0  0  0  0  0  0  0  0  0  0  0  0
   13.3300  -17.0295   26.2743 O   0  0  0  0  0  0  0  0  0  0  0  0
   11.6516  -18.4000   25.6890 O   0  0  0  0  0  0  0  0  0  0  0  0
  2  1  1  6
  2  4  1  0
  3  2  1  0
  4  5  1  6
  6  7  2  0
  6  4  1  0
  9  8  1  6
 10  9  1  0
 11  9  1  0
 11 12  1  6
 12  6  1  0
 13 11  1  0
 14 13  2  0
 15 13  1  0
 16 15  1  0
 16 17  1  1
 17 18  1  0
 19 18  1  0
 20 19  1  0
 21 20  1  0
 22 23  1  0
 22 16  1  0
 24 22  2  0
M  END
$$$$
