VTK.pdb
     RDKit          3D

 24 23  0  0  1  0  0  0  0  0999 V2000
    7.5595  -12.2044   19.3861 C   0  0  0  0  0  0  0  0  0  0  0  0
    7.9696  -13.4430   20.1515 C   0  0  2  0  0  0  0  0  0  0  0  0
    9.0807  -13.0848   21.1221 C   0  0  0  0  0  0  0  0  0  0  0  0
    8.4181  -14.4804   19.1455 C   0  0  2  0  0  0  0  0  0  0  0  0
    7.3104  -14.7510   18.2576 N   0  0  0  0  0  0  0  0  0  0  0  0
    8.8737  -15.6927   19.8576 C   0  0  0  0  0  0  0  0  0  0  0  0
    7.9715  -16.4376   20.3419 O   0  0  0  0  0  0  0  0  0  0  0  0
   11.9188  -19.2651   20.5093 C   0  0  0  0  0  0  0  0  0  0  0  0
   11.4824  -18.0471   19.7604 C   0  0  1  0  0  0  0  0  0  0  0  0
   10.8293  -18.3088   18.5757 O   0  0  0  0  0  0  0  0  0  0  0  0
   10.6006  -17.2146   20.6959 C   0  0  2  0  0  0  0  0  0  0  0  0
   10.2460  -16.0249   20.0035 N   0  0  0  0  0  0  0  0  0  0  0  0
   11.3573  -16.9632   21.9487 C   0  0  0  0  0  0  0  0  0  0  0  0
   12.2560  -16.1129   22.0629 O   0  0  0  0  0  0  0  0  0  0  0  0
   11.0336  -17.7441   23.0898 N   0  0  0  0  0  0  0  0  0  0  0  0
   11.8367  -17.6445   24.3438 C   0  0  1  0  0  0  0  0  0  0  0  0
   11.1555  -18.5402   25.3404 C   0  0  0  0  0  0  0  0  0  0  0  0
   11.9611  -18.6603   26.5955 C   0  0  0  0  0  0  0  0  0  0  0  0
   11.2122  -19.5019   27.5982 C   0  0  0  0  0  0  0  0  0  0  0  0
   11.9466  -19.5682   28.9264 C   0  0  0  0  0  0  0  0  0  0  0  0
   11.2848  -20.4046   29.8785 N   0  0  0  0  0  0  0  0  0  0  0  0
   13.1667  -18.2001   24.0234 C   0  0  0  0  0  0  0  0  0  0  0  0
   13.3318  -19.3608   23.2813 O   0  0  0  0  0  0  0  0  0  0  0  0
   14.2084  -17.6341   24.4164 O   0  0  0  0  0  0  0  0  0  0  0  0
  2  1  1  6
  2  4  1  0
  3  2  1  0
  4  5  1  6
  6  7  2  0
  6  4  1  0
  9  8  1  1
 10  9  1  0
 11  9  1  0
 11 12  1  6
 12  6  1  0
 13 11  1  0
 14 13  2  0
 15 13  1  0
 16 15  1  0
 16 17  1  1
 17 18  1  0
 19 18  1  0
 20 19  1  0
 21 20  1  0
 22 23  1  0
 22 16  1  0
 24 22  2  0
M  END
$$$$
