VTK.pdb
     RDKit          3D

 24 23  0  0  1  0  0  0  0  0999 V2000
    6.4277  -11.8576   27.0930 C   0  0  0  0  0  0  0  0  0  0  0  0
    7.1139  -13.0004   26.3781 C   0  0  2  0  0  0  0  0  0  0  0  0
    8.3231  -12.4673   25.6307 C   0  0  0  0  0  0  0  0  0  0  0  0
    6.1076  -13.6286   25.4389 C   0  0  2  0  0  0  0  0  0  0  0  0
    4.9548  -14.0223   26.2165 N   0  0  0  0  0  0  0  0  0  0  0  0
    6.7310  -14.7738   24.7431 C   0  0  0  0  0  0  0  0  0  0  0  0
    5.9641  -15.7311   24.4286 O   0  0  0  0  0  0  0  0  0  0  0  0
    6.4259  -15.7524   22.4626 C   0  0  0  0  0  0  0  0  0  0  0  0
    7.9002  -15.6870   22.2243 C   0  0  1  0  0  0  0  0  0  0  0  0
    8.3250  -14.5424   21.5855 O   0  0  0  0  0  0  0  0  0  0  0  0
    8.5995  -15.8469   23.5774 C   0  0  2  0  0  0  0  0  0  0  0  0
    8.1155  -14.8202   24.4332 N   0  0  0  0  0  0  0  0  0  0  0  0
   10.0663  -15.7844   23.3545 C   0  0  0  0  0  0  0  0  0  0  0  0
   10.6724  -14.7679   22.9762 O   0  0  0  0  0  0  0  0  0  0  0  0
   10.8257  -16.9614   23.5883 N   0  0  0  0  0  0  0  0  0  0  0  0
   12.1702  -16.8947   24.2329 C   0  0  1  0  0  0  0  0  0  0  0  0
   12.2794  -18.1286   25.0844 C   0  0  0  0  0  0  0  0  0  0  0  0
   11.4431  -18.0066   26.3191 C   0  0  0  0  0  0  0  0  0  0  0  0
   11.6029  -19.2468   27.1624 C   0  0  0  0  0  0  0  0  0  0  0  0
   10.8558  -19.1229   28.4793 C   0  0  0  0  0  0  0  0  0  0  0  0
   11.1000  -20.2264   29.3549 N   0  0  0  0  0  0  0  0  0  0  0  0
   13.1547  -16.9752   23.1354 C   0  0  0  0  0  0  0  0  0  0  0  0
   14.4918  -16.6463   23.3062 O   0  0  0  0  0  0  0  0  0  0  0  0
   12.8117  -17.3491   21.9941 O   0  0  0  0  0  0  0  0  0  0  0  0
  2  1  1  6
  2  4  1  0
  3  2  1  0
  4  5  1  1
  6  7  2  0
  6  4  1  0
  9  8  1  1
 10  9  1  0
 11  9  1  0
 11 12  1  1
 12  6  1  0
 13 11  1  0
 14 13  2  0
 15 13  1  0
 16 15  1  0
 16 17  1  1
 17 18  1  0
 19 18  1  0
 20 19  1  0
 21 20  1  0
 22 23  1  0
 22 16  1  0
 24 22  2  0
M  END
$$$$
