RHS.pdb
     RDKit          3D

 28 28  0  0  1  0  0  0  0  0999 V2000
    8.6529  -14.3188   16.0472 N   0  0  0  0  0  0  0  0  0  0  0  0
    7.9677  -14.5824   17.2609 C   0  0  0  0  0  0  0  0  0  0  0  0
    7.0964  -13.7676   17.6988 N   0  0  0  0  0  0  0  0  0  0  0  0
    8.2349  -15.7689   18.0246 N   0  0  0  0  0  0  0  0  0  0  0  0
    9.5376  -16.2948   18.2031 C   0  0  0  0  0  0  0  0  0  0  0  0
   10.4641  -15.5413   19.0916 C   0  0  0  0  0  0  0  0  0  0  0  0
   11.6041  -16.4065   19.5426 C   0  0  0  0  0  0  0  0  0  0  0  0
   11.1110  -17.5251   20.4731 C   0  0  2  0  0  0  0  0  0  0  0  0
    9.9465  -18.1786   19.9774 N   0  0  0  0  0  0  0  0  0  0  0  0
   10.9652  -17.0415   21.8660 C   0  0  0  0  0  0  0  0  0  0  0  0
   11.8920  -16.3530   22.3962 O   0  0  0  0  0  0  0  0  0  0  0  0
    6.6336  -13.9366   18.6139 N   0  0  0  0  0  0  0  0  0  0  0  0
    9.8225  -17.3146   22.6518 C   0  0  1  0  0  0  0  0  0  0  0  0
    9.7210  -16.7254   24.0490 C   0  0  0  0  0  0  0  0  0  0  0  0
    8.3646  -16.1523   24.0579 C   0  0  0  0  0  0  0  0  0  0  0  0
    8.0641  -14.9908   23.2128 C   0  0  0  0  0  0  0  0  0  0  0  0
    8.8057  -14.3037   22.2954 N   0  0  0  0  0  0  0  0  0  0  0  0
    8.0828  -13.3256   21.6840 C   0  0  0  0  0  0  0  0  0  0  0  0
    6.8748  -13.4238   22.2433 N   0  0  0  0  0  0  0  0  0  0  0  0
    6.8196  -14.3878   23.1448 C   0  0  0  0  0  0  0  0  0  0  0  0
    9.9114  -17.9251   24.9208 O   0  0  0  0  0  0  0  0  0  0  0  0
    9.8608  -19.0571   24.3033 O   0  0  0  0  0  0  0  0  0  0  0  0
   12.9381  -20.2408   26.8210 C   0  0  0  0  0  0  0  0  0  0  0  0
   12.2764  -19.1811   26.2191 C   0  0  1  0  0  0  0  0  0  0  0  0
   10.8901  -19.0985   26.8558 N   0  0  0  0  0  0  0  0  0  0  0  0
   10.1343  -17.9958   26.2765 C   0  0  0  0  0  0  0  0  0  0  0  0
   11.0011  -18.9615   28.3240 O   0  0  0  0  0  0  0  0  0  0  0  0
   11.4589  -19.8921   29.0284 O   0  0  0  0  0  0  0  0  0  0  0  0
  2  3  2  0
  2  1  1  0
  4  2  1  0
  5  4  1  0
  6  5  1  0
  7  6  1  0
  7  8  1  0
  8  9  1  6
 10  8  1  0
 10 11  2  0
 12 10  1  0
 13 12  1  0
 13 14  1  1
 15 14  1  0
 15 16  2  0
 17 16  1  0
 18 17  1  0
 19 18  2  0
 19 15  1  0
 20 13  1  0
 21 20  2  0
 23 22  1  0
 24 23  1  6
 24 26  1  0
 24 25  1  0
 25 20  1  0
 26 28  1  0
 27 26  2  0
M  END
$$$$
