RHS.pdb
     RDKit          3D

 28 28  0  0  1  0  0  0  0  0999 V2000
    8.8898  -12.3181   17.1265 N   0  0  0  0  0  0  0  0  0  0  0  0
    7.9483  -13.3201   16.7776 C   0  0  0  0  0  0  0  0  0  0  0  0
    7.8092  -13.6796   15.5667 N   0  0  0  0  0  0  0  0  0  0  0  0
    7.1316  -13.9542   17.7741 N   0  0  0  0  0  0  0  0  0  0  0  0
    7.3836  -13.8434   19.1633 C   0  0  0  0  0  0  0  0  0  0  0  0
    6.9418  -14.9691   20.0310 C   0  0  0  0  0  0  0  0  0  0  0  0
    7.2617  -14.6990   21.4720 C   0  0  0  0  0  0  0  0  0  0  0  0
    8.6236  -15.2981   21.8547 C   0  0  2  0  0  0  0  0  0  0  0  0
    8.7382  -16.6729   21.5000 N   0  0  0  0  0  0  0  0  0  0  0  0
    8.9505  -15.0285   23.2744 C   0  0  0  0  0  0  0  0  0  0  0  0
    8.8207  -13.8539   23.7408 O   0  0  0  0  0  0  0  0  0  0  0  0
    7.2115  -14.4955   15.3273 N   0  0  0  0  0  0  0  0  0  0  0  0
    9.4107  -16.0341   24.1547 C   0  0  1  0  0  0  0  0  0  0  0  0
    9.6029  -15.7055   25.6260 C   0  0  0  0  0  0  0  0  0  0  0  0
    8.2182  -15.6198   26.1194 C   0  0  0  0  0  0  0  0  0  0  0  0
    7.5059  -14.3382   26.0578 C   0  0  0  0  0  0  0  0  0  0  0  0
    7.8628  -13.1089   25.5837 N   0  0  0  0  0  0  0  0  0  0  0  0
    6.8389  -12.2151   25.6605 C   0  0  0  0  0  0  0  0  0  0  0  0
    5.8382  -12.9203   26.1924 N   0  0  0  0  0  0  0  0  0  0  0  0
    6.1859  -14.1704   26.4404 C   0  0  0  0  0  0  0  0  0  0  0  0
   10.3839  -16.8805   26.1208 O   0  0  0  0  0  0  0  0  0  0  0  0
   11.3169  -17.2844   25.3260 O   0  0  0  0  0  0  0  0  0  0  0  0
   11.4502  -14.8555   28.6714 C   0  0  0  0  0  0  0  0  0  0  0  0
   10.3996  -15.7340   28.8896 C   0  0  2  0  0  0  0  0  0  0  0  0
   10.8983  -17.1298   28.5192 N   0  0  0  0  0  0  0  0  0  0  0  0
   10.2546  -17.5864   27.2945 C   0  0  0  0  0  0  0  0  0  0  0  0
   10.6676  -18.0752   29.6325 O   0  0  0  0  0  0  0  0  0  0  0  0
    9.5353  -18.5747   29.8338 O   0  0  0  0  0  0  0  0  0  0  0  0
  2  3  2  0
  2  1  1  0
  4  2  1  0
  5  4  1  0
  6  5  1  0
  7  6  1  0
  7  8  1  0
  8  9  1  1
 10  8  1  0
 10 11  2  0
 12 10  1  0
 13 12  1  0
 13 14  1  1
 15 14  1  0
 15 16  2  0
 17 16  1  0
 18 17  1  0
 19 18  2  0
 19 15  1  0
 20 13  1  0
 21 20  2  0
 23 22  1  0
 24 23  1  6
 24 26  1  0
 24 25  1  0
 25 20  1  0
 26 28  1  0
 27 26  2  0
M  END
$$$$
