RHS.pdb
     RDKit          3D

 28 28  0  0  1  0  0  0  0  0999 V2000
   15.0508  -16.4041   18.3149 N   0  0  0  0  0  0  0  0  0  0  0  0
   14.8849  -15.0023   18.4541 C   0  0  0  0  0  0  0  0  0  0  0  0
   15.8631  -14.2152   18.2578 N   0  0  0  0  0  0  0  0  0  0  0  0
   13.6166  -14.4347   18.8169 N   0  0  0  0  0  0  0  0  0  0  0  0
   12.4460  -15.2116   18.9947 C   0  0  0  0  0  0  0  0  0  0  0  0
   11.2052  -14.4968   19.4009 C   0  0  0  0  0  0  0  0  0  0  0  0
   10.0465  -15.4440   19.5099 C   0  0  0  0  0  0  0  0  0  0  0  0
    8.7450  -14.6879   19.8174 C   0  0  2  0  0  0  0  0  0  0  0  0
    8.3841  -13.7737   18.7865 N   0  0  0  0  0  0  0  0  0  0  0  0
    8.7871  -14.0691   21.1630 C   0  0  0  0  0  0  0  0  0  0  0  0
    9.0747  -12.8375   21.2835 O   0  0  0  0  0  0  0  0  0  0  0  0
   15.7482  -13.1915   18.3959 N   0  0  0  0  0  0  0  0  0  0  0  0
    8.5187  -14.7963   22.3449 C   0  0  1  0  0  0  0  0  0  0  0  0
    8.6298  -14.0985   23.6904 C   0  0  0  0  0  0  0  0  0  0  0  0
    7.2215  -13.9613   24.0982 C   0  0  0  0  0  0  0  0  0  0  0  0
    6.8972  -13.3096   25.3724 C   0  0  0  0  0  0  0  0  0  0  0  0
    7.6664  -12.6679   26.2999 N   0  0  0  0  0  0  0  0  0  0  0  0
    6.9179  -12.1404   27.3071 C   0  0  0  0  0  0  0  0  0  0  0  0
    5.6660  -12.4692   26.9810 N   0  0  0  0  0  0  0  0  0  0  0  0
    5.6081  -13.1548   25.8534 C   0  0  0  0  0  0  0  0  0  0  0  0
    9.4337  -15.0702   24.4936 O   0  0  0  0  0  0  0  0  0  0  0  0
    9.5923  -16.2269   23.9439 O   0  0  0  0  0  0  0  0  0  0  0  0
   10.4563  -14.7198   28.3272 C   0  0  0  0  0  0  0  0  0  0  0  0
   11.3578  -15.5496   27.6778 C   0  0  1  0  0  0  0  0  0  0  0  0
   10.6830  -16.0257   26.3924 N   0  0  0  0  0  0  0  0  0  0  0  0
   10.0275  -14.9092   25.7241 C   0  0  0  0  0  0  0  0  0  0  0  0
    9.7265  -17.1156   26.6818 O   0  0  0  0  0  0  0  0  0  0  0  0
    8.5050  -16.9890   26.4296 O   0  0  0  0  0  0  0  0  0  0  0  0
  2  3  2  0
  2  1  1  0
  4  2  1  0
  5  4  1  0
  6  5  1  0
  7  6  1  0
  7  8  1  0
  8  9  1  6
 10  8  1  0
 10 11  2  0
 12 10  1  0
 13 12  1  0
 13 14  1  1
 15 14  1  0
 15 16  2  0
 17 16  1  0
 18 17  1  0
 19 18  2  0
 19 15  1  0
 20 13  1  0
 21 20  2  0
 23 22  1  0
 24 23  1  6
 24 26  1  0
 24 25  1  0
 25 20  1  0
 26 28  1  0
 27 26  2  0
M  END
$$$$
