RHS.pdb
     RDKit          3D

 28 28  0  0  1  0  0  0  0  0999 V2000
    8.8238  -15.0571   15.0008 N   0  0  0  0  0  0  0  0  0  0  0  0
    8.1459  -13.8172   14.8768 C   0  0  0  0  0  0  0  0  0  0  0  0
    7.8974  -13.3309   13.7294 N   0  0  0  0  0  0  0  0  0  0  0  0
    7.7224  -13.0808   16.0346 N   0  0  0  0  0  0  0  0  0  0  0  0
    7.6173  -13.6608   17.3223 C   0  0  0  0  0  0  0  0  0  0  0  0
    8.5989  -14.7219   17.6773 C   0  0  0  0  0  0  0  0  0  0  0  0
    9.2786  -14.4160   18.9797 C   0  0  0  0  0  0  0  0  0  0  0  0
    9.0682  -15.5536   19.9904 C   0  0  2  0  0  0  0  0  0  0  0  0
    7.8207  -16.2189   19.8169 N   0  0  0  0  0  0  0  0  0  0  0  0
    9.2984  -15.0898   21.3786 C   0  0  0  0  0  0  0  0  0  0  0  0
    9.6747  -13.8951   21.5915 O   0  0  0  0  0  0  0  0  0  0  0  0
    7.4899  -12.3789   13.6405 N   0  0  0  0  0  0  0  0  0  0  0  0
    9.1177  -15.9282   22.5021 C   0  0  1  0  0  0  0  0  0  0  0  0
    9.2474  -15.3417   23.8980 C   0  0  0  0  0  0  0  0  0  0  0  0
    7.8870  -14.8453   24.1653 C   0  0  0  0  0  0  0  0  0  0  0  0
    7.6461  -13.9857   25.3301 C   0  0  0  0  0  0  0  0  0  0  0  0
    8.4815  -13.4526   26.2689 N   0  0  0  0  0  0  0  0  0  0  0  0
    7.8209  -12.6373   27.1361 C   0  0  0  0  0  0  0  0  0  0  0  0
    6.5561  -12.6766   26.7113 N   0  0  0  0  0  0  0  0  0  0  0  0
    6.4091  -13.4550   25.6542 C   0  0  0  0  0  0  0  0  0  0  0  0
    9.6642  -16.5263   24.7095 O   0  0  0  0  0  0  0  0  0  0  0  0
    9.1545  -17.6494   24.3298 O   0  0  0  0  0  0  0  0  0  0  0  0
   12.9715  -17.2997   26.4299 C   0  0  0  0  0  0  0  0  0  0  0  0
   12.1041  -18.3755   26.3143 C   0  0  1  0  0  0  0  0  0  0  0  0
   10.6907  -17.8365   26.5285 N   0  0  0  0  0  0  0  0  0  0  0  0
   10.5092  -16.5918   25.7931 C   0  0  0  0  0  0  0  0  0  0  0  0
   10.4184  -17.6536   27.9704 O   0  0  0  0  0  0  0  0  0  0  0  0
   10.5329  -18.6067   28.7769 O   0  0  0  0  0  0  0  0  0  0  0  0
  2  3  2  0
  2  1  1  0
  4  2  1  0
  5  4  1  0
  6  5  1  0
  7  6  1  0
  7  8  1  0
  8  9  1  1
 10  8  1  0
 10 11  2  0
 12 10  1  0
 13 12  1  0
 13 14  1  1
 15 14  1  0
 15 16  2  0
 17 16  1  0
 18 17  1  0
 19 18  2  0
 19 15  1  0
 20 13  1  0
 21 20  2  0
 23 22  1  0
 24 23  1  6
 24 26  1  0
 24 25  1  0
 25 20  1  0
 26 28  1  0
 27 26  2  0
M  END
$$$$
