CYS.pdb
     RDKit          3D

 25 25  0  0  1  0  0  0  0  0999 V2000
    7.9634  -13.0576   19.5485 N   0  0  0  0  0  0  0  0  0  0  0  0
    7.2652  -13.6281   20.6585 C   0  0  1  0  0  0  0  0  0  0  0  0
    6.6111  -14.9468   20.2719 C   0  0  0  0  0  0  0  0  0  0  0  0
    7.8696  -16.1477   19.7831 S   0  0  0  0  0  0  0  0  0  0  0  0
    8.1768  -13.8089   21.8085 C   0  0  0  0  0  0  0  0  0  0  0  0
    9.4187  -13.7786   21.5785 O   0  0  0  0  0  0  0  0  0  0  0  0
   10.8691  -15.2571   30.1835 O   0  0  0  0  0  0  0  0  0  0  0  0
   10.1199  -14.9609   29.0420 C   0  0  0  0  0  0  0  0  0  0  0  0
    9.3143  -15.9122   28.4463 C   0  0  0  0  0  0  0  0  0  0  0  0
    8.5742  -15.6213   27.3198 C   0  0  0  0  0  0  0  0  0  0  0  0
    8.6068  -14.3590   26.7355 C   0  0  0  0  0  0  0  0  0  0  0  0
    7.8217  -14.0576   25.5244 C   0  0  0  0  0  0  0  0  0  0  0  0
    8.5380  -14.3096   24.2326 C   0  0  2  0  0  0  0  0  0  0  0  0
    7.6528  -14.0063   23.1044 N   0  0  0  0  0  0  0  0  0  0  0  0
    8.9229  -15.7247   24.1279 C   0  0  0  0  0  0  0  0  0  0  0  0
    8.0692  -16.6433   23.9044 O   0  0  0  0  0  0  0  0  0  0  0  0
    9.4158  -13.4207   27.3418 C   0  0  0  0  0  0  0  0  0  0  0  0
   10.1610  -13.7062   28.4726 C   0  0  0  0  0  0  0  0  0  0  0  0
   12.4091  -16.9555   22.7430 O   0  0  0  0  0  0  0  0  0  0  0  0
   11.3213  -17.8382   22.8202 C   0  0  0  0  0  0  0  0  0  0  0  0
   10.6082  -17.5449   24.1396 C   0  0  2  0  0  0  0  0  0  0  0  0
   10.2782  -16.1585   24.2704 N   0  0  0  0  0  0  0  0  0  0  0  0
   11.4204  -18.0227   25.2900 C   0  0  0  0  0  0  0  0  0  0  0  0
   11.8347  -19.3324   25.3722 O   0  0  0  0  0  0  0  0  0  0  0  0
   11.7332  -17.2249   26.1975 O   0  0  0  0  0  0  0  0  0  0  0  0
  2  3  1  0
  2  1  1  6
  3  4  1  0
  5  2  1  0
  6  5  2  0
  7  8  1  0
  8  9  2  0
  8 18  1  0
  9 10  1  0
 10 11  2  0
 11 12  1  0
 13 12  1  1
 13 14  1  0
 14  5  1  0
 15 13  1  0
 15 22  1  0
 16 15  2  0
 17 11  1  0
 18 17  2  0
 19 20  1  0
 21 20  1  6
 21 22  1  0
 21 23  1  0
 23 24  1  0
 25 23  2  0
M  END
$$$$
