CYS.pdb
     RDKit          3D

 25 25  0  0  1  0  0  0  0  0999 V2000
    7.5110  -16.1485   21.1133 N   0  0  0  0  0  0  0  0  0  0  0  0
    8.7085  -15.3782   21.2456 C   0  0  1  0  0  0  0  0  0  0  0  0
    8.4691  -13.9266   20.8562 C   0  0  0  0  0  0  0  0  0  0  0  0
    7.3835  -13.8384   19.4144 S   0  0  0  0  0  0  0  0  0  0  0  0
    9.2388  -15.4741   22.6225 C   0  0  0  0  0  0  0  0  0  0  0  0
   10.3401  -14.9042   22.8642 O   0  0  0  0  0  0  0  0  0  0  0  0
    6.4454  -10.4319   26.6200 O   0  0  0  0  0  0  0  0  0  0  0  0
    6.7700  -11.7797   26.4467 C   0  0  0  0  0  0  0  0  0  0  0  0
    8.0047  -12.2737   26.8213 C   0  0  0  0  0  0  0  0  0  0  0  0
    8.3265  -13.6037   26.6510 C   0  0  0  0  0  0  0  0  0  0  0  0
    7.4229  -14.5040   26.0955 C   0  0  0  0  0  0  0  0  0  0  0  0
    7.7772  -15.9227   25.9057 C   0  0  0  0  0  0  0  0  0  0  0  0
    8.9550  -16.1617   25.0108 C   0  0  2  0  0  0  0  0  0  0  0  0
    8.5213  -16.1820   23.6109 N   0  0  0  0  0  0  0  0  0  0  0  0
    9.5663  -17.4658   25.3060 C   0  0  0  0  0  0  0  0  0  0  0  0
    9.0157  -18.5634   24.9673 O   0  0  0  0  0  0  0  0  0  0  0  0
    6.1950  -13.9954   25.7265 C   0  0  0  0  0  0  0  0  0  0  0  0
    5.8657  -12.6616   25.8949 C   0  0  0  0  0  0  0  0  0  0  0  0
   13.4916  -18.2764   25.5830 O   0  0  0  0  0  0  0  0  0  0  0  0
   12.5082  -19.2632   25.4170 C   0  0  0  0  0  0  0  0  0  0  0  0
   11.3378  -18.8756   26.3199 C   0  0  2  0  0  0  0  0  0  0  0  0
   10.8161  -17.5841   25.9913 N   0  0  0  0  0  0  0  0  0  0  0  0
   11.7332  -18.9556   27.7512 C   0  0  0  0  0  0  0  0  0  0  0  0
   12.1905  -20.1330   28.2974 O   0  0  0  0  0  0  0  0  0  0  0  0
   11.6500  -17.9397   28.4715 O   0  0  0  0  0  0  0  0  0  0  0  0
  2  3  1  0
  2  1  1  1
  3  4  1  0
  5  2  1  0
  6  5  2  0
  7  8  1  0
  8  9  2  0
  8 18  1  0
  9 10  1  0
 10 11  2  0
 11 12  1  0
 13 12  1  1
 13 14  1  0
 14  5  1  0
 15 13  1  0
 15 22  1  0
 16 15  2  0
 17 11  1  0
 18 17  2  0
 19 20  1  0
 21 20  1  6
 21 22  1  0
 21 23  1  0
 23 24  1  0
 25 23  2  0
M  END
$$$$
