CYS.pdb
     RDKit          3D

 25 25  0  0  1  0  0  0  0  0999 V2000
    8.8249  -15.2520   19.1792 N   0  0  0  0  0  0  0  0  0  0  0  0
    8.2313  -15.8722   20.3229 C   0  0  1  0  0  0  0  0  0  0  0  0
    8.1136  -17.3769   20.1280 C   0  0  0  0  0  0  0  0  0  0  0  0
    6.4570  -17.8028   19.5456 S   0  0  0  0  0  0  0  0  0  0  0  0
    9.0034  -15.5575   21.5441 C   0  0  0  0  0  0  0  0  0  0  0  0
   10.2459  -15.3679   21.4156 O   0  0  0  0  0  0  0  0  0  0  0  0
   10.6579  -14.9660   30.2923 O   0  0  0  0  0  0  0  0  0  0  0  0
   10.0484  -14.9688   29.0352 C   0  0  0  0  0  0  0  0  0  0  0  0
    9.6387  -16.1462   28.4396 C   0  0  0  0  0  0  0  0  0  0  0  0
    9.0369  -16.1506   27.1989 C   0  0  0  0  0  0  0  0  0  0  0  0
    8.8166  -14.9711   26.4946 C   0  0  0  0  0  0  0  0  0  0  0  0
    8.1827  -14.9836   25.1634 C   0  0  0  0  0  0  0  0  0  0  0  0
    9.1170  -15.2615   24.0253 C   0  0  2  0  0  0  0  0  0  0  0  0
    8.3520  -15.4780   22.7940 N   0  0  0  0  0  0  0  0  0  0  0  0
    9.8939  -16.4821   24.2868 C   0  0  0  0  0  0  0  0  0  0  0  0
    9.4269  -17.6441   24.0538 O   0  0  0  0  0  0  0  0  0  0  0  0
    9.2314  -13.8044   27.1024 C   0  0  0  0  0  0  0  0  0  0  0  0
    9.8359  -13.7932   28.3474 C   0  0  0  0  0  0  0  0  0  0  0  0
   13.3104  -18.7369   22.9253 O   0  0  0  0  0  0  0  0  0  0  0  0
   12.3977  -17.6798   23.0592 C   0  0  0  0  0  0  0  0  0  0  0  0
   12.1351  -17.5108   24.5552 C   0  0  2  0  0  0  0  0  0  0  0  0
   11.2209  -16.4416   24.8185 N   0  0  0  0  0  0  0  0  0  0  0  0
   13.4134  -17.3289   25.2928 C   0  0  0  0  0  0  0  0  0  0  0  0
   14.3867  -18.3017   25.2787 O   0  0  0  0  0  0  0  0  0  0  0  0
   13.6098  -16.2776   25.9361 O   0  0  0  0  0  0  0  0  0  0  0  0
  2  3  1  0
  2  1  1  6
  3  4  1  0
  5  2  1  0
  6  5  2  0
  7  8  1  0
  8  9  2  0
  8 18  1  0
  9 10  1  0
 10 11  2  0
 11 12  1  0
 13 12  1  1
 13 14  1  0
 14  5  1  0
 15 13  1  0
 15 22  1  0
 16 15  2  0
 17 11  1  0
 18 17  2  0
 19 20  1  0
 21 20  1  6
 21 22  1  0
 21 23  1  0
 23 24  1  0
 25 23  2  0
M  END
$$$$
