CYS.pdb
     RDKit          3D

 25 25  0  0  1  0  0  0  0  0999 V2000
    9.3189  -15.4310   19.2173 N   0  0  0  0  0  0  0  0  0  0  0  0
    8.5798  -15.9034   20.3468 C   0  0  1  0  0  0  0  0  0  0  0  0
    8.1834  -17.3618   20.1681 C   0  0  0  0  0  0  0  0  0  0  0  0
    6.6574  -17.4803   19.2077 S   0  0  0  0  0  0  0  0  0  0  0  0
    9.3565  -15.7167   21.5911 C   0  0  0  0  0  0  0  0  0  0  0  0
   10.6161  -15.7619   21.5044 O   0  0  0  0  0  0  0  0  0  0  0  0
   10.7040  -15.0699   30.4131 O   0  0  0  0  0  0  0  0  0  0  0  0
   10.1827  -15.0074   29.1183 C   0  0  0  0  0  0  0  0  0  0  0  0
   10.2574  -13.8480   28.3705 C   0  0  0  0  0  0  0  0  0  0  0  0
    9.7435  -13.7848   27.0925 C   0  0  0  0  0  0  0  0  0  0  0  0
    9.1285  -14.8843   26.5020 C   0  0  0  0  0  0  0  0  0  0  0  0
    8.5710  -14.8068   25.1392 C   0  0  0  0  0  0  0  0  0  0  0  0
    9.4433  -15.3901   24.0695 C   0  0  2  0  0  0  0  0  0  0  0  0
    8.6907  -15.4979   22.8164 N   0  0  0  0  0  0  0  0  0  0  0  0
    9.8784  -16.7434   24.4449 C   0  0  0  0  0  0  0  0  0  0  0  0
    9.0875  -17.7414   24.4135 O   0  0  0  0  0  0  0  0  0  0  0  0
    9.0616  -16.0338   27.2614 C   0  0  0  0  0  0  0  0  0  0  0  0
    9.5755  -16.1038   28.5446 C   0  0  0  0  0  0  0  0  0  0  0  0
   12.9688  -18.3808   23.2687 O   0  0  0  0  0  0  0  0  0  0  0  0
   12.0069  -19.1509   23.9396 C   0  0  0  0  0  0  0  0  0  0  0  0
   11.6036  -18.3643   25.1862 C   0  0  2  0  0  0  0  0  0  0  0  0
   11.2153  -17.0241   24.8683 N   0  0  0  0  0  0  0  0  0  0  0  0
   12.6947  -18.3906   26.1963 C   0  0  0  0  0  0  0  0  0  0  0  0
   13.1501  -19.5790   26.7196 O   0  0  0  0  0  0  0  0  0  0  0  0
   13.2077  -17.3187   26.5776 O   0  0  0  0  0  0  0  0  0  0  0  0
  2  3  1  0
  2  1  1  6
  3  4  1  0
  5  2  1  0
  6  5  2  0
  7  8  1  0
  8  9  2  0
  8 18  1  0
  9 10  1  0
 10 11  2  0
 11 12  1  0
 13 12  1  1
 13 14  1  0
 14  5  1  0
 15 13  1  0
 15 22  1  0
 16 15  2  0
 17 11  1  0
 18 17  2  0
 19 20  1  0
 21 20  1  6
 21 22  1  0
 21 23  1  0
 23 24  1  0
 25 23  2  0
M  END
$$$$
