CYS.pdb
     RDKit          3D

 25 25  0  0  1  0  0  0  0  0999 V2000
    7.9383  -12.5315   19.5162 N   0  0  0  0  0  0  0  0  0  0  0  0
    7.3697  -13.5592   20.3320 C   0  0  1  0  0  0  0  0  0  0  0  0
    7.1299  -14.8266   19.5244 C   0  0  0  0  0  0  0  0  0  0  0  0
    6.5432  -16.1521   20.6033 S   0  0  0  0  0  0  0  0  0  0  0  0
    8.2342  -13.8337   21.4997 C   0  0  0  0  0  0  0  0  0  0  0  0
    9.4835  -13.7428   21.3345 O   0  0  0  0  0  0  0  0  0  0  0  0
   10.5184  -15.0612   30.0253 O   0  0  0  0  0  0  0  0  0  0  0  0
    9.8230  -14.8345   28.8348 C   0  0  0  0  0  0  0  0  0  0  0  0
    9.1878  -15.8645   28.1682 C   0  0  0  0  0  0  0  0  0  0  0  0
    8.5010  -15.6423   26.9934 C   0  0  0  0  0  0  0  0  0  0  0  0
    8.4184  -14.3731   26.4295 C   0  0  0  0  0  0  0  0  0  0  0  0
    7.6920  -14.1442   25.1670 C   0  0  0  0  0  0  0  0  0  0  0  0
    8.4987  -14.3801   23.9264 C   0  0  2  0  0  0  0  0  0  0  0  0
    7.6595  -14.1823   22.7411 N   0  0  0  0  0  0  0  0  0  0  0  0
    8.9955  -15.7634   23.8939 C   0  0  0  0  0  0  0  0  0  0  0  0
    8.2139  -16.7600   23.7576 O   0  0  0  0  0  0  0  0  0  0  0  0
    9.0580  -13.3558   27.1067 C   0  0  0  0  0  0  0  0  0  0  0  0
    9.7488  -13.5721   28.2863 C   0  0  0  0  0  0  0  0  0  0  0  0
   12.5407  -16.7968   22.5452 O   0  0  0  0  0  0  0  0  0  0  0  0
   11.5782  -17.7991   22.7385 C   0  0  0  0  0  0  0  0  0  0  0  0
   10.8188  -17.4409   24.0153 C   0  0  2  0  0  0  0  0  0  0  0  0
   10.3858  -16.0769   24.0131 N   0  0  0  0  0  0  0  0  0  0  0  0
   11.6402  -17.7500   25.2158 C   0  0  0  0  0  0  0  0  0  0  0  0
   12.1654  -19.0065   25.4133 O   0  0  0  0  0  0  0  0  0  0  0  0
   11.8586  -16.8570   26.0600 O   0  0  0  0  0  0  0  0  0  0  0  0
  2  3  1  0
  2  1  1  6
  3  4  1  0
  5  2  1  0
  6  5  2  0
  7  8  1  0
  8  9  2  0
  8 18  1  0
  9 10  1  0
 10 11  2  0
 11 12  1  0
 13 12  1  1
 13 14  1  0
 14  5  1  0
 15 13  1  0
 15 22  1  0
 16 15  2  0
 17 11  1  0
 18 17  2  0
 19 20  1  0
 21 20  1  6
 21 22  1  0
 21 23  1  0
 23 24  1  0
 25 23  2  0
M  END
$$$$
