CYS.pdb
     RDKit          3D

 25 25  0  0  1  0  0  0  0  0999 V2000
    8.0021  -13.4658   19.5989 N   0  0  0  0  0  0  0  0  0  0  0  0
    7.7230  -14.6719   20.3147 C   0  0  1  0  0  0  0  0  0  0  0  0
    7.9000  -15.8904   19.4203 C   0  0  0  0  0  0  0  0  0  0  0  0
    6.5578  -15.9786   18.2136 S   0  0  0  0  0  0  0  0  0  0  0  0
    8.5775  -14.7721   21.5173 C   0  0  0  0  0  0  0  0  0  0  0  0
    9.7090  -14.2115   21.4769 O   0  0  0  0  0  0  0  0  0  0  0  0
    6.1912  -10.7389   27.1172 O   0  0  0  0  0  0  0  0  0  0  0  0
    6.6616  -11.9540   26.6128 C   0  0  0  0  0  0  0  0  0  0  0  0
    5.7911  -12.9339   26.1757 C   0  0  0  0  0  0  0  0  0  0  0  0
    6.2538  -14.1336   25.6775 C   0  0  0  0  0  0  0  0  0  0  0  0
    7.6152  -14.4083   25.5936 C   0  0  0  0  0  0  0  0  0  0  0  0
    8.1032  -15.6975   25.0703 C   0  0  0  0  0  0  0  0  0  0  0  0
    8.9638  -15.5940   23.8481 C   0  0  2  0  0  0  0  0  0  0  0  0
    8.1218  -15.4737   22.6544 N   0  0  0  0  0  0  0  0  0  0  0  0
    9.7829  -16.8052   23.6943 C   0  0  0  0  0  0  0  0  0  0  0  0
    9.5063  -17.7045   22.8357 O   0  0  0  0  0  0  0  0  0  0  0  0
    8.4709  -13.4202   26.0341 C   0  0  0  0  0  0  0  0  0  0  0  0
    8.0130  -12.2140   26.5351 C   0  0  0  0  0  0  0  0  0  0  0  0
   12.6644  -17.8234   21.6466 O   0  0  0  0  0  0  0  0  0  0  0  0
   12.6054  -16.9034   22.7041 C   0  0  0  0  0  0  0  0  0  0  0  0
   12.0971  -17.6679   23.9258 C   0  0  2  0  0  0  0  0  0  0  0  0
   10.9403  -17.0497   24.4981 N   0  0  0  0  0  0  0  0  0  0  0  0
   13.1820  -17.8291   24.9299 C   0  0  0  0  0  0  0  0  0  0  0  0
   14.2862  -18.6064   24.6647 O   0  0  0  0  0  0  0  0  0  0  0  0
   13.0925  -17.2510   26.0324 O   0  0  0  0  0  0  0  0  0  0  0  0
  2  3  1  0
  2  1  1  6
  3  4  1  0
  5  2  1  0
  6  5  2  0
  7  8  1  0
  8  9  2  0
  8 18  1  0
  9 10  1  0
 10 11  2  0
 11 12  1  0
 13 12  1  1
 13 14  1  0
 14  5  1  0
 15 13  1  0
 15 22  1  0
 16 15  2  0
 17 11  1  0
 18 17  2  0
 19 20  1  0
 21 20  1  6
 21 22  1  0
 21 23  1  0
 23 24  1  0
 25 23  2  0
M  END
$$$$
