CYS.pdb
     RDKit          3D

 25 25  0  0  1  0  0  0  0  0999 V2000
    7.9528  -12.8027   19.7004 N   0  0  0  0  0  0  0  0  0  0  0  0
    7.4985  -14.0083   20.3211 C   0  0  1  0  0  0  0  0  0  0  0  0
    7.4816  -15.1606   19.3271 C   0  0  0  0  0  0  0  0  0  0  0  0
    6.8670  -16.6620   20.1228 S   0  0  0  0  0  0  0  0  0  0  0  0
    8.3363  -14.3364   21.4944 C   0  0  0  0  0  0  0  0  0  0  0  0
    9.5614  -14.0323   21.4394 O   0  0  0  0  0  0  0  0  0  0  0  0
    5.9732  -10.3538   27.1874 O   0  0  0  0  0  0  0  0  0  0  0  0
    6.3869  -11.5785   26.6571 C   0  0  0  0  0  0  0  0  0  0  0  0
    7.7205  -11.8368   26.4050 C   0  0  0  0  0  0  0  0  0  0  0  0
    8.1303  -13.0450   25.8818 C   0  0  0  0  0  0  0  0  0  0  0  0
    7.2196  -14.0544   25.5858 C   0  0  0  0  0  0  0  0  0  0  0  0
    7.6631  -15.3400   25.0160 C   0  0  0  0  0  0  0  0  0  0  0  0
    8.5621  -15.2216   23.8231 C   0  0  2  0  0  0  0  0  0  0  0  0
    7.7638  -14.9659   22.6207 N   0  0  0  0  0  0  0  0  0  0  0  0
    9.2981  -16.4763   23.6098 C   0  0  0  0  0  0  0  0  0  0  0  0
    8.7097  -17.5598   23.2897 O   0  0  0  0  0  0  0  0  0  0  0  0
    5.8923  -13.7809   25.8429 C   0  0  0  0  0  0  0  0  0  0  0  0
    5.4745  -12.5705   26.3680 C   0  0  0  0  0  0  0  0  0  0  0  0
   13.3012  -16.6746   22.7987 O   0  0  0  0  0  0  0  0  0  0  0  0
   12.4469  -17.7369   22.4671 C   0  0  0  0  0  0  0  0  0  0  0  0
   11.3884  -17.8113   23.5669 C   0  0  2  0  0  0  0  0  0  0  0  0
   10.7191  -16.5593   23.7481 N   0  0  0  0  0  0  0  0  0  0  0  0
   11.9886  -18.2974   24.8377 C   0  0  0  0  0  0  0  0  0  0  0  0
   11.8658  -17.5762   26.0032 O   0  0  0  0  0  0  0  0  0  0  0  0
   12.6147  -19.3770   24.8504 O   0  0  0  0  0  0  0  0  0  0  0  0
  2  3  1  0
  2  1  1  6
  3  4  1  0
  5  2  1  0
  6  5  2  0
  7  8  1  0
  8  9  2  0
  8 18  1  0
  9 10  1  0
 10 11  2  0
 11 12  1  0
 13 12  1  1
 13 14  1  0
 14  5  1  0
 15 13  1  0
 15 22  1  0
 16 15  2  0
 17 11  1  0
 18 17  2  0
 19 20  1  0
 21 20  1  6
 21 22  1  0
 21 23  1  0
 23 24  1  0
 25 23  2  0
M  END
$$$$
