CYS.pdb
     RDKit          3D

 25 25  0  0  1  0  0  0  0  0999 V2000
   10.4636  -16.5900   18.8521 N   0  0  0  0  0  0  0  0  0  0  0  0
    9.1917  -16.5143   19.5016 C   0  0  1  0  0  0  0  0  0  0  0  0
    8.5647  -17.8945   19.6356 C   0  0  0  0  0  0  0  0  0  0  0  0
    9.6419  -18.9780   20.6004 S   0  0  0  0  0  0  0  0  0  0  0  0
    9.3208  -15.8633   20.8229 C   0  0  0  0  0  0  0  0  0  0  0  0
   10.4650  -15.8534   21.3586 O   0  0  0  0  0  0  0  0  0  0  0  0
    6.7163  -11.9774   28.4420 O   0  0  0  0  0  0  0  0  0  0  0  0
    6.7957  -12.4660   27.1355 C   0  0  0  0  0  0  0  0  0  0  0  0
    7.5006  -11.7893   26.1586 C   0  0  0  0  0  0  0  0  0  0  0  0
    7.5800  -12.2704   24.8687 C   0  0  0  0  0  0  0  0  0  0  0  0
    6.9547  -13.4561   24.4962 C   0  0  0  0  0  0  0  0  0  0  0  0
    7.0342  -13.9593   23.1125 C   0  0  0  0  0  0  0  0  0  0  0  0
    8.2814  -14.7262   22.7936 C   0  0  2  0  0  0  0  0  0  0  0  0
    8.1921  -15.2825   21.4405 N   0  0  0  0  0  0  0  0  0  0  0  0
    8.4439  -15.8506   23.7268 C   0  0  0  0  0  0  0  0  0  0  0  0
    7.8479  -16.9633   23.5560 O   0  0  0  0  0  0  0  0  0  0  0  0
    6.2550  -14.1194   25.4826 C   0  0  0  0  0  0  0  0  0  0  0  0
    6.1715  -13.6421   26.7790 C   0  0  0  0  0  0  0  0  0  0  0  0
   11.1494  -18.8126   25.5474 O   0  0  0  0  0  0  0  0  0  0  0  0
   10.7856  -17.6986   24.7759 C   0  0  0  0  0  0  0  0  0  0  0  0
    9.7015  -16.9567   25.5567 C   0  0  2  0  0  0  0  0  0  0  0  0
    9.2803  -15.7659   24.8838 N   0  0  0  0  0  0  0  0  0  0  0  0
   10.1603  -16.6671   26.9412 C   0  0  0  0  0  0  0  0  0  0  0  0
   10.1385  -15.3862   27.4438 O   0  0  0  0  0  0  0  0  0  0  0  0
   10.5726  -17.5991   27.6617 O   0  0  0  0  0  0  0  0  0  0  0  0
  2  3  1  0
  2  1  1  1
  3  4  1  0
  5  2  1  0
  6  5  2  0
  7  8  1  0
  8  9  2  0
  8 18  1  0
  9 10  1  0
 10 11  2  0
 11 12  1  0
 13 12  1  1
 13 14  1  0
 14  5  1  0
 15 13  1  0
 15 22  1  0
 16 15  2  0
 17 11  1  0
 18 17  2  0
 19 20  1  0
 21 20  1  6
 21 22  1  0
 21 23  1  0
 23 24  1  0
 25 23  2  0
M  END
$$$$
