CYS.pdb
     RDKit          3D

 25 25  0  0  1  0  0  0  0  0999 V2000
    5.6757  -15.2726   20.5993 N   0  0  0  0  0  0  0  0  0  0  0  0
    6.4538  -16.2760   21.2573 C   0  0  1  0  0  0  0  0  0  0  0  0
    6.9216  -17.3369   20.2716 C   0  0  0  0  0  0  0  0  0  0  0  0
    7.7640  -18.6742   21.1475 S   0  0  0  0  0  0  0  0  0  0  0  0
    7.6029  -15.6653   21.9593 C   0  0  0  0  0  0  0  0  0  0  0  0
    8.1905  -14.7033   21.3886 O   0  0  0  0  0  0  0  0  0  0  0  0
    5.8380  -10.9765   26.8976 O   0  0  0  0  0  0  0  0  0  0  0  0
    6.5970  -12.0887   26.5248 C   0  0  0  0  0  0  0  0  0  0  0  0
    7.8260  -11.9446   25.9102 C   0  0  0  0  0  0  0  0  0  0  0  0
    8.5763  -13.0413   25.5418 C   0  0  0  0  0  0  0  0  0  0  0  0
    8.1286  -14.3382   25.7728 C   0  0  0  0  0  0  0  0  0  0  0  0
    8.9307  -15.5067   25.3663 C   0  0  0  0  0  0  0  0  0  0  0  0
    9.1879  -15.6105   23.8937 C   0  0  2  0  0  0  0  0  0  0  0  0
    8.0074  -16.1577   23.2189 N   0  0  0  0  0  0  0  0  0  0  0  0
   10.3117  -16.5219   23.6330 C   0  0  0  0  0  0  0  0  0  0  0  0
   10.2640  -17.7585   23.9349 O   0  0  0  0  0  0  0  0  0  0  0  0
    6.9000  -14.4652   26.3868 C   0  0  0  0  0  0  0  0  0  0  0  0
    6.1421  -13.3686   26.7591 C   0  0  0  0  0  0  0  0  0  0  0  0
   13.7125  -15.4640   21.3719 O   0  0  0  0  0  0  0  0  0  0  0  0
   13.1738  -16.7590   21.3399 C   0  0  0  0  0  0  0  0  0  0  0  0
   12.5632  -17.0167   22.7169 C   0  0  2  0  0  0  0  0  0  0  0  0
   11.5276  -16.0781   23.0249 N   0  0  0  0  0  0  0  0  0  0  0  0
   13.6196  -17.0257   23.7634 C   0  0  0  0  0  0  0  0  0  0  0  0
   14.6976  -17.8767   23.6778 O   0  0  0  0  0  0  0  0  0  0  0  0
   13.5297  -16.2497   24.7368 O   0  0  0  0  0  0  0  0  0  0  0  0
  2  3  1  0
  2  1  1  6
  3  4  1  0
  5  2  1  0
  6  5  2  0
  7  8  1  0
  8  9  2  0
  8 18  1  0
  9 10  1  0
 10 11  2  0
 11 12  1  0
 13 12  1  1
 13 14  1  0
 14  5  1  0
 15 13  1  0
 15 22  1  0
 16 15  2  0
 17 11  1  0
 18 17  2  0
 19 20  1  0
 21 20  1  6
 21 22  1  0
 21 23  1  0
 23 24  1  0
 25 23  2  0
M  END
$$$$
