CYS.pdb
     RDKit          3D

 25 25  0  0  1  0  0  0  0  0999 V2000
    7.9236  -13.8736   19.5461 N   0  0  0  0  0  0  0  0  0  0  0  0
    7.4762  -14.7809   20.5569 C   0  0  1  0  0  0  0  0  0  0  0  0
    7.3949  -16.2016   20.0173 C   0  0  0  0  0  0  0  0  0  0  0  0
    5.7785  -16.4910   19.2632 S   0  0  0  0  0  0  0  0  0  0  0  0
    8.3594  -14.7164   21.7411 C   0  0  0  0  0  0  0  0  0  0  0  0
    9.6002  -14.5947   21.5369 O   0  0  0  0  0  0  0  0  0  0  0  0
   10.7139  -14.8947   30.3670 O   0  0  0  0  0  0  0  0  0  0  0  0
   10.0216  -14.7918   29.1578 C   0  0  0  0  0  0  0  0  0  0  0  0
    9.8684  -13.5754   28.5206 C   0  0  0  0  0  0  0  0  0  0  0  0
    9.1856  -13.4723   27.3271 C   0  0  0  0  0  0  0  0  0  0  0  0
    8.6224  -14.5871   26.7141 C   0  0  0  0  0  0  0  0  0  0  0  0
    7.8838  -14.4683   25.4435 C   0  0  0  0  0  0  0  0  0  0  0  0
    8.6792  -14.8094   24.2202 C   0  0  2  0  0  0  0  0  0  0  0  0
    7.8107  -14.7903   23.0396 N   0  0  0  0  0  0  0  0  0  0  0  0
    9.2423  -16.1625   24.3362 C   0  0  0  0  0  0  0  0  0  0  0  0
    8.5096  -17.2043   24.3162 O   0  0  0  0  0  0  0  0  0  0  0  0
    8.7838  -15.7936   27.3627 C   0  0  0  0  0  0  0  0  0  0  0  0
    9.4681  -15.9040   28.5607 C   0  0  0  0  0  0  0  0  0  0  0  0
   13.0677  -17.0500   23.3639 O   0  0  0  0  0  0  0  0  0  0  0  0
   12.0841  -18.0502   23.3822 C   0  0  0  0  0  0  0  0  0  0  0  0
   11.1522  -17.7308   24.5506 C   0  0  2  0  0  0  0  0  0  0  0  0
   10.6464  -16.3940   24.4789 N   0  0  0  0  0  0  0  0  0  0  0  0
   11.8335  -17.9870   25.8473 C   0  0  0  0  0  0  0  0  0  0  0  0
   12.3754  -19.2189   26.1343 O   0  0  0  0  0  0  0  0  0  0  0  0
   11.9167  -17.0714   26.6914 O   0  0  0  0  0  0  0  0  0  0  0  0
  2  3  1  0
  2  1  1  6
  3  4  1  0
  5  2  1  0
  6  5  2  0
  7  8  1  0
  8  9  2  0
  8 18  1  0
  9 10  1  0
 10 11  2  0
 11 12  1  0
 13 12  1  1
 13 14  1  0
 14  5  1  0
 15 13  1  0
 15 22  1  0
 16 15  2  0
 17 11  1  0
 18 17  2  0
 19 20  1  0
 21 20  1  6
 21 22  1  0
 21 23  1  0
 23 24  1  0
 25 23  2  0
M  END
$$$$
