CYS.pdb
     RDKit          3D

 25 25  0  0  1  0  0  0  0  0999 V2000
    8.2840  -12.8215   19.3510 N   0  0  0  0  0  0  0  0  0  0  0  0
    8.0663  -14.1391   19.8625 C   0  0  1  0  0  0  0  0  0  0  0  0
    8.5765  -15.1929   18.8902 C   0  0  0  0  0  0  0  0  0  0  0  0
    7.3815  -15.4433   17.5581 S   0  0  0  0  0  0  0  0  0  0  0  0
    8.7019  -14.2935   21.1885 C   0  0  0  0  0  0  0  0  0  0  0  0
    9.8401  -13.7705   21.3539 O   0  0  0  0  0  0  0  0  0  0  0  0
    6.0934  -10.5789   27.1703 O   0  0  0  0  0  0  0  0  0  0  0  0
    6.4749  -11.7639   26.5361 C   0  0  0  0  0  0  0  0  0  0  0  0
    7.7076  -11.8848   25.9240 C   0  0  0  0  0  0  0  0  0  0  0  0
    8.0857  -13.0538   25.2978 C   0  0  0  0  0  0  0  0  0  0  0  0
    7.2431  -14.1602   25.2556 C   0  0  0  0  0  0  0  0  0  0  0  0
    7.6489  -15.4035   24.5747 C   0  0  0  0  0  0  0  0  0  0  0  0
    8.6879  -15.2260   23.5096 C   0  0  2  0  0  0  0  0  0  0  0  0
    8.0402  -15.0033   22.2137 N   0  0  0  0  0  0  0  0  0  0  0  0
    9.5130  -16.4372   23.3921 C   0  0  0  0  0  0  0  0  0  0  0  0
    9.0482  -17.5305   22.9323 O   0  0  0  0  0  0  0  0  0  0  0  0
    6.0162  -14.0235   25.8709 C   0  0  0  0  0  0  0  0  0  0  0  0
    5.6308  -12.8531   26.5012 C   0  0  0  0  0  0  0  0  0  0  0  0
   13.6422  -16.4273   23.8079 O   0  0  0  0  0  0  0  0  0  0  0  0
   13.0179  -17.4173   23.0343 C   0  0  0  0  0  0  0  0  0  0  0  0
   11.6483  -17.6701   23.6633 C   0  0  2  0  0  0  0  0  0  0  0  0
   10.8875  -16.4642   23.7862 N   0  0  0  0  0  0  0  0  0  0  0  0
   11.7941  -18.3584   24.9734 C   0  0  0  0  0  0  0  0  0  0  0  0
   12.5549  -19.4985   25.0964 O   0  0  0  0  0  0  0  0  0  0  0  0
   11.2181  -17.8968   25.9798 O   0  0  0  0  0  0  0  0  0  0  0  0
  2  3  1  0
  2  1  1  6
  3  4  1  0
  5  2  1  0
  6  5  2  0
  7  8  1  0
  8  9  2  0
  8 18  1  0
  9 10  1  0
 10 11  2  0
 11 12  1  0
 13 12  1  1
 13 14  1  0
 14  5  1  0
 15 13  1  0
 15 22  1  0
 16 15  2  0
 17 11  1  0
 18 17  2  0
 19 20  1  0
 21 20  1  1
 21 22  1  0
 21 23  1  0
 23 24  1  0
 25 23  2  0
M  END
$$$$
