WIW.pdb
     RDKit          3D

 37 40  0  0  1  0  0  0  0  0999 V2000
   24.1372  -17.3843  -14.2521 N   0  0  0  0  0  0  0  0  0  0  0  0
   23.8673  -18.5262  -15.0952 C   0  0  1  0  0  0  0  0  0  0  0  0
   23.5919  -18.0140  -16.4905 C   0  0  0  0  0  0  0  0  0  0  0  0
   22.5209  -16.9885  -16.5068 C   0  0  0  0  0  0  0  0  0  0  0  0
   22.6260  -15.6467  -16.7920 C   0  0  0  0  0  0  0  0  0  0  0  0
   21.3979  -15.1124  -16.6853 N   0  0  0  0  0  0  0  0  0  0  0  0
   20.5129  -16.0781  -16.3398 C   0  0  0  0  0  0  0  0  0  0  0  0
   19.1316  -16.0435  -16.1086 C   0  0  0  0  0  0  0  0  0  0  0  0
   18.4418  -17.1850  -15.7632 C   0  0  0  0  0  0  0  0  0  0  0  0
   19.1729  -18.3511  -15.6578 C   0  0  0  0  0  0  0  0  0  0  0  0
   20.5173  -18.4272  -15.8745 C   0  0  0  0  0  0  0  0  0  0  0  0
   21.1980  -17.2572  -16.2242 C   0  0  0  0  0  0  0  0  0  0  0  0
   25.0148  -19.4595  -15.0670 C   0  0  0  0  0  0  0  0  0  0  0  0
   25.0345  -20.3865  -15.9321 O   0  0  0  0  0  0  0  0  0  0  0  0
   30.1879  -18.8808  -14.7708 C   0  0  0  0  0  0  0  0  0  0  0  0
   28.7036  -19.2448  -14.8593 C   0  0  0  0  0  0  0  0  0  0  0  0
   28.2962  -20.0964  -13.7051 C   0  0  2  0  0  0  0  0  0  0  0  0
   29.2248  -21.2628  -13.4746 C   0  0  0  0  0  0  0  0  0  0  0  0
   26.8525  -20.3806  -13.6875 C   0  0  2  0  0  0  0  0  0  0  0  0
   26.0212  -19.2682  -14.0824 N   0  0  0  0  0  0  0  0  0  0  0  0
   26.3165  -21.1685  -12.5701 C   0  0  0  0  0  0  0  0  0  0  0  0
   25.7334  -22.2736  -12.6944 O   0  0  0  0  0  0  0  0  0  0  0  0
   26.4440  -20.6761  -11.2424 N   0  0  0  0  0  0  0  0  0  0  0  0
   25.8820  -21.4115  -10.0963 C   0  0  1  0  0  0  0  0  0  0  0  0
   26.9467  -21.6548   -9.0516 C   0  0  0  0  0  0  0  0  0  0  0  0
   27.1577  -20.4213   -8.2503 C   0  0  0  0  0  0  0  0  0  0  0  0
   26.5737  -19.1699   -8.4792 C   0  0  0  0  0  0  0  0  0  0  0  0
   27.0249  -18.3209   -7.5371 N   0  0  0  0  0  0  0  0  0  0  0  0
   27.8695  -18.9271   -6.6983 C   0  0  0  0  0  0  0  0  0  0  0  0
   28.5691  -18.4822   -5.6008 C   0  0  0  0  0  0  0  0  0  0  0  0
   29.3722  -19.3954   -4.9417 C   0  0  0  0  0  0  0  0  0  0  0  0
   29.4912  -20.7144   -5.3439 C   0  0  0  0  0  0  0  0  0  0  0  0
   28.7658  -21.1167   -6.4570 C   0  0  0  0  0  0  0  0  0  0  0  0
   27.9577  -20.2309   -7.1338 C   0  0  0  0  0  0  0  0  0  0  0  0
   24.6712  -20.7681   -9.5886 C   0  0  0  0  0  0  0  0  0  0  0  0
   23.8438  -21.3510   -8.6407 O   0  0  0  0  0  0  0  0  0  0  0  0
   24.2923  -19.6161   -9.9891 O   0  0  0  0  0  0  0  0  0  0  0  0
  2  1  1  1
  2  3  1  0
  4  3  1  0
  5  4  2  0
  6  7  1  0
  6  5  1  0
  7 12  2  0
  8  7  1  0
  8  9  2  0
  9 10  1  0
 10 11  2  0
 12  4  1  0
 12 11  1  0
 13 20  1  0
 13  2  1  0
 14 13  2  0
 16 15  1  0
 16 17  1  0
 17 18  1  6
 19 17  1  0
 19 20  1  1
 21 19  1  0
 21 22  2  0
 23 24  1  0
 23 21  1  0
 24 25  1  1
 26 25  1  0
 26 27  2  0
 28 27  1  0
 29 28  1  0
 30 29  2  0
 31 30  1  0
 32 31  2  0
 32 33  1  0
 33 34  2  0
 34 29  1  0
 34 26  1  0
 35 24  1  0
 35 36  1  0
 37 35  2  0
M  END
$$$$
