WIW.pdb
     RDKit          3D

 37 40  0  0  1  0  0  0  0  0999 V2000
   22.9587  -20.3630  -15.8538 N   0  0  0  0  0  0  0  0  0  0  0  0
   23.5955  -20.0593  -14.5928 C   0  0  1  0  0  0  0  0  0  0  0  0
   22.5089  -19.9044  -13.5534 C   0  0  0  0  0  0  0  0  0  0  0  0
   21.4069  -19.0312  -14.0246 C   0  0  0  0  0  0  0  0  0  0  0  0
   20.0598  -19.3063  -14.0749 C   0  0  0  0  0  0  0  0  0  0  0  0
   19.4428  -18.2204  -14.5702 N   0  0  0  0  0  0  0  0  0  0  0  0
   20.3609  -17.2605  -14.8367 C   0  0  0  0  0  0  0  0  0  0  0  0
   20.2379  -15.9646  -15.3545 C   0  0  0  0  0  0  0  0  0  0  0  0
   21.3455  -15.1652  -15.5350 C   0  0  0  0  0  0  0  0  0  0  0  0
   22.5685  -15.7005  -15.1837 C   0  0  0  0  0  0  0  0  0  0  0  0
   22.7309  -16.9562  -14.6768 C   0  0  0  0  0  0  0  0  0  0  0  0
   21.5939  -17.7507  -14.5013 C   0  0  0  0  0  0  0  0  0  0  0  0
   24.5508  -21.1312  -14.2364 C   0  0  0  0  0  0  0  0  0  0  0  0
   24.6178  -22.1341  -15.0098 O   0  0  0  0  0  0  0  0  0  0  0  0
   29.5053  -19.0449  -14.8499 C   0  0  0  0  0  0  0  0  0  0  0  0
   28.8863  -20.1854  -14.0379 C   0  0  0  0  0  0  0  0  0  0  0  0
   27.4174  -19.9860  -13.8767 C   0  0  2  0  0  0  0  0  0  0  0  0
   27.0533  -18.5805  -13.4670 C   0  0  0  0  0  0  0  0  0  0  0  0
   26.7701  -21.0834  -13.1406 C   0  0  2  0  0  0  0  0  0  0  0  0
   25.3323  -20.9802  -13.0595 N   0  0  0  0  0  0  0  0  0  0  0  0
   27.4116  -21.5634  -11.9099 C   0  0  0  0  0  0  0  0  0  0  0  0
   28.6498  -21.5504  -11.7017 O   0  0  0  0  0  0  0  0  0  0  0  0
   26.6080  -22.0900  -10.8618 N   0  0  0  0  0  0  0  0  0  0  0  0
   26.5018  -21.4059   -9.5615 C   0  0  1  0  0  0  0  0  0  0  0  0
   27.6865  -20.4924   -9.3469 C   0  0  0  0  0  0  0  0  0  0  0  0
   27.5704  -19.8179   -8.0280 C   0  0  0  0  0  0  0  0  0  0  0  0
   26.6455  -18.8269   -7.6784 C   0  0  0  0  0  0  0  0  0  0  0  0
   26.8745  -18.4757   -6.3993 N   0  0  0  0  0  0  0  0  0  0  0  0
   27.8904  -19.1688   -5.8776 C   0  0  0  0  0  0  0  0  0  0  0  0
   28.4787  -19.1622   -4.6343 C   0  0  0  0  0  0  0  0  0  0  0  0
   29.5347  -20.0301   -4.4225 C   0  0  0  0  0  0  0  0  0  0  0  0
   30.0076  -20.8862   -5.4019 C   0  0  0  0  0  0  0  0  0  0  0  0
   29.3819  -20.8567   -6.6406 C   0  0  0  0  0  0  0  0  0  0  0  0
   28.3280  -20.0039   -6.8817 C   0  0  0  0  0  0  0  0  0  0  0  0
   25.2008  -20.7581   -9.4018 C   0  0  0  0  0  0  0  0  0  0  0  0
   24.3937  -20.9426   -8.2893 O   0  0  0  0  0  0  0  0  0  0  0  0
   24.7175  -19.9724  -10.2851 O   0  0  0  0  0  0  0  0  0  0  0  0
  2  1  1  6
  2  3  1  0
  4  3  1  0
  5  4  2  0
  6  7  1  0
  6  5  1  0
  7 12  2  0
  8  7  1  0
  8  9  2  0
  9 10  1  0
 10 11  2  0
 12  4  1  0
 12 11  1  0
 13 20  1  0
 13  2  1  0
 14 13  2  0
 16 15  1  0
 16 17  1  0
 17 18  1  1
 19 17  1  0
 19 20  1  1
 21 19  1  0
 21 22  2  0
 23 24  1  0
 23 21  1  0
 24 25  1  6
 26 25  1  0
 26 27  2  0
 28 27  1  0
 29 28  1  0
 30 29  2  0
 31 30  1  0
 32 31  2  0
 32 33  1  0
 33 34  2  0
 34 29  1  0
 34 26  1  0
 35 24  1  0
 35 36  1  0
 37 35  2  0
M  END
$$$$
