WIW.pdb
     RDKit          3D

 37 40  0  0  1  0  0  0  0  0999 V2000
   27.0556  -20.2123  -16.2897 N   0  0  0  0  0  0  0  0  0  0  0  0
   26.1972  -19.4000  -15.4584 C   0  0  1  0  0  0  0  0  0  0  0  0
   25.3310  -18.5620  -16.3707 C   0  0  0  0  0  0  0  0  0  0  0  0
   26.1218  -17.5599  -17.1251 C   0  0  0  0  0  0  0  0  0  0  0  0
   26.4143  -17.5374  -18.4693 C   0  0  0  0  0  0  0  0  0  0  0  0
   27.1547  -16.4412  -18.7045 N   0  0  0  0  0  0  0  0  0  0  0  0
   27.3418  -15.7645  -17.5459 C   0  0  0  0  0  0  0  0  0  0  0  0
   28.0282  -14.5786  -17.2541 C   0  0  0  0  0  0  0  0  0  0  0  0
   28.0731  -14.0833  -15.9692 C   0  0  0  0  0  0  0  0  0  0  0  0
   27.4150  -14.8072  -14.9953 C   0  0  0  0  0  0  0  0  0  0  0  0
   26.7361  -15.9650  -15.2376 C   0  0  0  0  0  0  0  0  0  0  0  0
   26.7026  -16.4499  -16.5485 C   0  0  0  0  0  0  0  0  0  0  0  0
   25.3886  -20.2630  -14.5695 C   0  0  0  0  0  0  0  0  0  0  0  0
   25.0481  -21.4012  -15.0130 O   0  0  0  0  0  0  0  0  0  0  0  0
   26.8524  -21.5065   -9.8193 C   0  0  0  0  0  0  0  0  0  0  0  0
   26.2527  -21.2683  -11.2075 C   0  0  0  0  0  0  0  0  0  0  0  0
   24.8169  -20.8787  -11.1057 C   0  0  2  0  0  0  0  0  0  0  0  0
   24.0277  -21.7683  -10.1775 C   0  0  0  0  0  0  0  0  0  0  0  0
   24.2134  -20.5779  -12.4135 C   0  0  2  0  0  0  0  0  0  0  0  0
   25.0412  -19.7743  -13.2814 N   0  0  0  0  0  0  0  0  0  0  0  0
   22.7857  -20.2362  -12.4541 C   0  0  0  0  0  0  0  0  0  0  0  0
   22.2956  -19.1737  -11.9987 O   0  0  0  0  0  0  0  0  0  0  0  0
   21.8644  -21.1487  -13.0374 N   0  0  0  0  0  0  0  0  0  0  0  0
   20.4187  -20.8665  -13.0605 C   0  0  1  0  0  0  0  0  0  0  0  0
   20.1207  -19.7124  -13.9897 C   0  0  0  0  0  0  0  0  0  0  0  0
   20.5263  -20.0635  -15.3755 C   0  0  0  0  0  0  0  0  0  0  0  0
   20.1925  -21.2323  -16.0697 C   0  0  0  0  0  0  0  0  0  0  0  0
   20.7577  -21.1682  -17.2897 N   0  0  0  0  0  0  0  0  0  0  0  0
   21.4441  -20.0335  -17.4502 C   0  0  0  0  0  0  0  0  0  0  0  0
   22.1729  -19.5288  -18.5020 C   0  0  0  0  0  0  0  0  0  0  0  0
   22.7684  -18.2920  -18.3315 C   0  0  0  0  0  0  0  0  0  0  0  0
   22.6563  -17.5626  -17.1605 C   0  0  0  0  0  0  0  0  0  0  0  0
   21.9107  -18.1131  -16.1271 C   0  0  0  0  0  0  0  0  0  0  0  0
   21.3058  -19.3422  -16.2669 C   0  0  0  0  0  0  0  0  0  0  0  0
   19.6412  -22.0755  -13.3276 C   0  0  0  0  0  0  0  0  0  0  0  0
   20.2181  -23.2824  -13.6930 O   0  0  0  0  0  0  0  0  0  0  0  0
   18.3672  -22.0995  -13.2412 O   0  0  0  0  0  0  0  0  0  0  0  0
  2  1  1  6
  2  3  1  0
  4  3  1  0
  5  4  2  0
  6  7  1  0
  6  5  1  0
  7 12  2  0
  8  7  1  0
  8  9  2  0
  9 10  1  0
 10 11  2  0
 12  4  1  0
 12 11  1  0
 13 20  1  0
 13  2  1  0
 14 13  2  0
 16 15  1  0
 16 17  1  0
 17 18  1  6
 19 17  1  0
 19 20  1  1
 21 19  1  0
 21 22  2  0
 23 24  1  0
 23 21  1  0
 24 25  1  6
 26 25  1  0
 26 27  2  0
 28 27  1  0
 29 28  1  0
 30 29  2  0
 31 30  1  0
 32 31  2  0
 32 33  1  0
 33 34  2  0
 34 29  1  0
 34 26  1  0
 35 24  1  0
 35 36  1  0
 37 35  2  0
M  END
$$$$
