WIW.pdb
     RDKit          3D

 37 40  0  0  1  0  0  0  0  0999 V2000
   27.8827  -23.0770  -19.2261 N   0  0  0  0  0  0  0  0  0  0  0  0
   27.0288  -21.9336  -18.9998 C   0  0  1  0  0  0  0  0  0  0  0  0
   25.8763  -22.0192  -19.9742 C   0  0  0  0  0  0  0  0  0  0  0  0
   26.3103  -21.7882  -21.3731 C   0  0  0  0  0  0  0  0  0  0  0  0
   26.7219  -22.7133  -22.3045 C   0  0  0  0  0  0  0  0  0  0  0  0
   27.0158  -22.0478  -23.4341 N   0  0  0  0  0  0  0  0  0  0  0  0
   26.8023  -20.7231  -23.2473 C   0  0  0  0  0  0  0  0  0  0  0  0
   26.9534  -19.6207  -24.0985 C   0  0  0  0  0  0  0  0  0  0  0  0
   26.6635  -18.3454  -23.6651 C   0  0  0  0  0  0  0  0  0  0  0  0
   26.2218  -18.2110  -22.3642 C   0  0  0  0  0  0  0  0  0  0  0  0
   26.0614  -19.2575  -21.5043 C   0  0  0  0  0  0  0  0  0  0  0  0
   26.3609  -20.5433  -21.9643 C   0  0  0  0  0  0  0  0  0  0  0  0
   26.5637  -21.9186  -17.5955 C   0  0  0  0  0  0  0  0  0  0  0  0
   26.1627  -23.0157  -17.1017 O   0  0  0  0  0  0  0  0  0  0  0  0
   27.6888  -19.6853  -12.1773 C   0  0  0  0  0  0  0  0  0  0  0  0
   26.6223  -20.2086  -13.1427 C   0  0  0  0  0  0  0  0  0  0  0  0
   27.1483  -20.2611  -14.5370 C   0  0  2  0  0  0  0  0  0  0  0  0
   28.0202  -19.0801  -14.8845 C   0  0  0  0  0  0  0  0  0  0  0  0
   26.1222  -20.6438  -15.5198 C   0  0  2  0  0  0  0  0  0  0  0  0
   26.5913  -20.6888  -16.8845 N   0  0  0  0  0  0  0  0  0  0  0  0
   24.7726  -20.0865  -15.3630 C   0  0  0  0  0  0  0  0  0  0  0  0
   24.4954  -18.8639  -15.4340 O   0  0  0  0  0  0  0  0  0  0  0  0
   23.6803  -20.9602  -15.1077 N   0  0  0  0  0  0  0  0  0  0  0  0
   22.3201  -20.4401  -14.8856 C   0  0  1  0  0  0  0  0  0  0  0  0
   21.5231  -20.4804  -16.1691 C   0  0  0  0  0  0  0  0  0  0  0  0
   20.1853  -19.8714  -15.9510 C   0  0  0  0  0  0  0  0  0  0  0  0
   19.9141  -18.5165  -15.7268 C   0  0  0  0  0  0  0  0  0  0  0  0
   18.5841  -18.3777  -15.5729 N   0  0  0  0  0  0  0  0  0  0  0  0
   17.9554  -19.5515  -15.6806 C   0  0  0  0  0  0  0  0  0  0  0  0
   16.6289  -19.9062  -15.6011 C   0  0  0  0  0  0  0  0  0  0  0  0
   16.3139  -21.2429  -15.7661 C   0  0  0  0  0  0  0  0  0  0  0  0
   17.2717  -22.2136  -16.0032 C   0  0  0  0  0  0  0  0  0  0  0  0
   18.5971  -21.8073  -16.0749 C   0  0  0  0  0  0  0  0  0  0  0  0
   18.9419  -20.4838  -15.9151 C   0  0  0  0  0  0  0  0  0  0  0  0
   21.6739  -21.0974  -13.7506 C   0  0  0  0  0  0  0  0  0  0  0  0
   20.7531  -20.4625  -12.9309 O   0  0  0  0  0  0  0  0  0  0  0  0
   21.9179  -22.3110  -13.4365 O   0  0  0  0  0  0  0  0  0  0  0  0
  2  1  1  1
  2  3  1  0
  4  3  1  0
  5  4  2  0
  6  7  1  0
  6  5  1  0
  7 12  2  0
  8  7  1  0
  8  9  2  0
  9 10  1  0
 10 11  2  0
 12  4  1  0
 12 11  1  0
 13 20  1  0
 13  2  1  0
 14 13  2  0
 16 15  1  0
 16 17  1  0
 17 18  1  6
 19 17  1  0
 19 20  1  6
 21 19  1  0
 21 22  2  0
 23 24  1  0
 23 21  1  0
 24 25  1  6
 26 25  1  0
 26 27  2  0
 28 27  1  0
 29 28  1  0
 30 29  2  0
 31 30  1  0
 32 31  2  0
 32 33  1  0
 33 34  2  0
 34 29  1  0
 34 26  1  0
 35 24  1  0
 35 36  1  0
 37 35  2  0
M  END
$$$$
