WIW.pdb
     RDKit          3D

 37 40  0  0  1  0  0  0  0  0999 V2000
   25.6810  -18.9077  -16.1023 N   0  0  0  0  0  0  0  0  0  0  0  0
   26.4432  -19.5697  -15.0687 C   0  0  1  0  0  0  0  0  0  0  0  0
   27.7932  -18.8946  -14.9876 C   0  0  0  0  0  0  0  0  0  0  0  0
   28.5622  -19.0325  -16.2480 C   0  0  0  0  0  0  0  0  0  0  0  0
   28.9754  -18.0432  -17.1102 C   0  0  0  0  0  0  0  0  0  0  0  0
   29.6417  -18.6346  -18.1159 N   0  0  0  0  0  0  0  0  0  0  0  0
   29.6641  -19.9745  -17.9176 C   0  0  0  0  0  0  0  0  0  0  0  0
   30.2226  -21.0223  -18.6610 C   0  0  0  0  0  0  0  0  0  0  0  0
   30.1094  -22.3293  -18.2400 C   0  0  0  0  0  0  0  0  0  0  0  0
   29.4251  -22.5510  -17.0618 C   0  0  0  0  0  0  0  0  0  0  0  0
   28.8672  -21.5598  -16.3091 C   0  0  0  0  0  0  0  0  0  0  0  0
   28.9939  -20.2405  -16.7542 C   0  0  0  0  0  0  0  0  0  0  0  0
   25.7158  -19.5042  -13.7820 C   0  0  0  0  0  0  0  0  0  0  0  0
   25.3267  -18.3629  -13.3891 O   0  0  0  0  0  0  0  0  0  0  0  0
   21.2260  -21.0570  -12.8230 C   0  0  0  0  0  0  0  0  0  0  0  0
   22.6696  -20.5505  -12.8744 C   0  0  0  0  0  0  0  0  0  0  0  0
   23.4689  -21.1098  -11.7467 C   0  0  2  0  0  0  0  0  0  0  0  0
   22.7480  -21.0464  -10.4230 C   0  0  0  0  0  0  0  0  0  0  0  0
   24.8706  -20.6626  -11.7640 C   0  0  2  0  0  0  0  0  0  0  0  0
   25.4955  -20.7106  -13.0646 N   0  0  0  0  0  0  0  0  0  0  0  0
   25.7432  -21.0793  -10.6588 C   0  0  0  0  0  0  0  0  0  0  0  0
   26.2776  -22.2115  -10.5628 O   0  0  0  0  0  0  0  0  0  0  0  0
   26.0212  -20.1666   -9.6047 N   0  0  0  0  0  0  0  0  0  0  0  0
   26.8973  -20.5396   -8.4807 C   0  0  1  0  0  0  0  0  0  0  0  0
   27.8922  -19.4376   -8.1982 C   0  0  0  0  0  0  0  0  0  0  0  0
   28.7706  -19.8298   -7.0657 C   0  0  0  0  0  0  0  0  0  0  0  0
   29.8700  -20.6942   -7.1255 C   0  0  0  0  0  0  0  0  0  0  0  0
   30.3918  -20.7911   -5.8885 N   0  0  0  0  0  0  0  0  0  0  0  0
   29.7108  -20.0475   -5.0122 C   0  0  0  0  0  0  0  0  0  0  0  0
   29.8632  -19.8280   -3.6630 C   0  0  0  0  0  0  0  0  0  0  0  0
   28.9626  -18.9769   -3.0483 C   0  0  0  0  0  0  0  0  0  0  0  0
   27.9350  -18.3529   -3.7342 C   0  0  0  0  0  0  0  0  0  0  0  0
   27.8216  -18.6053   -5.0945 C   0  0  0  0  0  0  0  0  0  0  0  0
   28.7030  -19.4476   -5.7345 C   0  0  0  0  0  0  0  0  0  0  0  0
   26.1227  -20.9690   -7.3174 C   0  0  0  0  0  0  0  0  0  0  0  0
   26.5969  -21.8795   -6.3851 O   0  0  0  0  0  0  0  0  0  0  0  0
   24.9469  -20.5297   -7.0814 O   0  0  0  0  0  0  0  0  0  0  0  0
  2  1  1  6
  2  3  1  0
  4  3  1  0
  5  4  2  0
  6  7  1  0
  6  5  1  0
  7 12  2  0
  8  7  1  0
  8  9  2  0
  9 10  1  0
 10 11  2  0
 12  4  1  0
 12 11  1  0
 13 20  1  0
 13  2  1  0
 14 13  2  0
 16 15  1  0
 16 17  1  0
 17 18  1  1
 19 17  1  0
 19 20  1  6
 21 19  1  0
 21 22  2  0
 23 24  1  0
 23 21  1  0
 24 25  1  1
 26 25  1  0
 26 27  2  0
 28 27  1  0
 29 28  1  0
 30 29  2  0
 31 30  1  0
 32 31  2  0
 32 33  1  0
 33 34  2  0
 34 29  1  0
 34 26  1  0
 35 24  1  0
 35 36  1  0
 37 35  2  0
M  END
$$$$
