WIW.pdb
     RDKit          3D

 37 40  0  0  1  0  0  0  0  0999 V2000
   23.3910  -19.6581  -16.2202 N   0  0  0  0  0  0  0  0  0  0  0  0
   23.5367  -19.7395  -14.7850 C   0  0  1  0  0  0  0  0  0  0  0  0
   22.2324  -20.2513  -14.2177 C   0  0  0  0  0  0  0  0  0  0  0  0
   21.1238  -19.2852  -14.4090 C   0  0  0  0  0  0  0  0  0  0  0  0
   20.3284  -19.1046  -15.5170 C   0  0  0  0  0  0  0  0  0  0  0  0
   19.4580  -18.1209  -15.2349 N   0  0  0  0  0  0  0  0  0  0  0  0
   19.6774  -17.6697  -13.9765 C   0  0  0  0  0  0  0  0  0  0  0  0
   19.0525  -16.6722  -13.2167 C   0  0  0  0  0  0  0  0  0  0  0  0
   19.4665  -16.3957  -11.9320 C   0  0  0  0  0  0  0  0  0  0  0  0
   20.5166  -17.1430  -11.4376 C   0  0  0  0  0  0  0  0  0  0  0  0
   21.1513  -18.1220  -12.1440 C   0  0  0  0  0  0  0  0  0  0  0  0
   20.7153  -18.3867  -13.4457 C   0  0  0  0  0  0  0  0  0  0  0  0
   24.6723  -20.6228  -14.4401 C   0  0  0  0  0  0  0  0  0  0  0  0
   24.7244  -21.7552  -15.0086 O   0  0  0  0  0  0  0  0  0  0  0  0
   30.0476  -19.3983  -13.3624 C   0  0  0  0  0  0  0  0  0  0  0  0
   28.6207  -19.6090  -12.8498 C   0  0  0  0  0  0  0  0  0  0  0  0
   27.9966  -20.8013  -13.4919 C   0  0  2  0  0  0  0  0  0  0  0  0
   28.2030  -20.8439  -14.9857 C   0  0  0  0  0  0  0  0  0  0  0  0
   26.6358  -21.0676  -12.9995 C   0  0  2  0  0  0  0  0  0  0  0  0
   25.6321  -20.1589  -13.5008 N   0  0  0  0  0  0  0  0  0  0  0  0
   26.4704  -21.4304  -11.5862 C   0  0  0  0  0  0  0  0  0  0  0  0
   27.1568  -22.2959  -10.9891 O   0  0  0  0  0  0  0  0  0  0  0  0
   25.4718  -20.7813  -10.8096 N   0  0  0  0  0  0  0  0  0  0  0  0
   25.4165  -20.9410   -9.3462 C   0  0  1  0  0  0  0  0  0  0  0  0
   26.0372  -19.7457   -8.6607 C   0  0  0  0  0  0  0  0  0  0  0  0
   27.3179  -20.1414   -8.0193 C   0  0  0  0  0  0  0  0  0  0  0  0
   28.3865  -20.8048   -8.6338 C   0  0  0  0  0  0  0  0  0  0  0  0
   29.3519  -20.9822   -7.7128 N   0  0  0  0  0  0  0  0  0  0  0  0
   28.9939  -20.4797   -6.5279 C   0  0  0  0  0  0  0  0  0  0  0  0
   29.6334  -20.4212   -5.3115 C   0  0  0  0  0  0  0  0  0  0  0  0
   28.9626  -19.8134   -4.2656 C   0  0  0  0  0  0  0  0  0  0  0  0
   27.6952  -19.2742   -4.4022 C   0  0  0  0  0  0  0  0  0  0  0  0
   27.0904  -19.3573   -5.6489 C   0  0  0  0  0  0  0  0  0  0  0  0
   27.7329  -19.9562   -6.7094 C   0  0  0  0  0  0  0  0  0  0  0  0
   24.0644  -21.2642   -8.8934 C   0  0  0  0  0  0  0  0  0  0  0  0
   23.7777  -21.6874   -7.6043 O   0  0  0  0  0  0  0  0  0  0  0  0
   23.0488  -21.1775   -9.6629 O   0  0  0  0  0  0  0  0  0  0  0  0
  2  1  1  6
  2  3  1  0
  4  3  1  0
  5  4  2  0
  6  7  1  0
  6  5  1  0
  7 12  2  0
  8  7  1  0
  8  9  2  0
  9 10  1  0
 10 11  2  0
 12  4  1  0
 12 11  1  0
 13 20  1  0
 13  2  1  0
 14 13  2  0
 16 15  1  0
 16 17  1  0
 17 18  1  6
 19 17  1  0
 19 20  1  1
 21 19  1  0
 21 22  2  0
 23 24  1  0
 23 21  1  0
 24 25  1  1
 26 25  1  0
 26 27  2  0
 28 27  1  0
 29 28  1  0
 30 29  2  0
 31 30  1  0
 32 31  2  0
 32 33  1  0
 33 34  2  0
 34 29  1  0
 34 26  1  0
 35 24  1  0
 35 36  1  0
 37 35  2  0
M  END
$$$$
