WIW.pdb
     RDKit          3D

 37 40  0  0  1  0  0  0  0  0999 V2000
   22.0061  -21.4796  -14.7455 N   0  0  0  0  0  0  0  0  0  0  0  0
   22.8281  -20.3207  -14.4835 C   0  0  1  0  0  0  0  0  0  0  0  0
   22.1820  -19.5418  -13.3606 C   0  0  0  0  0  0  0  0  0  0  0  0
   20.8252  -19.0646  -13.7215 C   0  0  0  0  0  0  0  0  0  0  0  0
   19.6090  -19.5281  -13.2755 C   0  0  0  0  0  0  0  0  0  0  0  0
   18.6532  -18.7946  -13.8701 N   0  0  0  0  0  0  0  0  0  0  0  0
   19.2279  -17.8760  -14.6831 C   0  0  0  0  0  0  0  0  0  0  0  0
   18.6825  -16.8868  -15.5118 C   0  0  0  0  0  0  0  0  0  0  0  0
   19.4942  -16.0579  -16.2550 C   0  0  0  0  0  0  0  0  0  0  0  0
   20.8566  -16.2498  -16.1428 C   0  0  0  0  0  0  0  0  0  0  0  0
   21.4270  -17.2003  -15.3481 C   0  0  0  0  0  0  0  0  0  0  0  0
   20.5853  -18.0307  -14.6021 C   0  0  0  0  0  0  0  0  0  0  0  0
   24.2043  -20.7424  -14.1415 C   0  0  0  0  0  0  0  0  0  0  0  0
   24.3711  -21.9431  -13.7689 O   0  0  0  0  0  0  0  0  0  0  0  0
   27.8741  -19.1330  -17.6499 C   0  0  0  0  0  0  0  0  0  0  0  0
   26.9431  -19.7791  -16.6207 C   0  0  0  0  0  0  0  0  0  0  0  0
   27.4862  -19.6215  -15.2410 C   0  0  2  0  0  0  0  0  0  0  0  0
   28.9646  -19.9079  -15.1516 C   0  0  0  0  0  0  0  0  0  0  0  0
   26.6259  -20.2334  -14.2159 C   0  0  2  0  0  0  0  0  0  0  0  0
   25.2525  -19.7892  -14.2477 N   0  0  0  0  0  0  0  0  0  0  0  0
   27.1745  -20.4037  -12.8645 C   0  0  0  0  0  0  0  0  0  0  0  0
   28.2182  -21.0485  -12.5966 O   0  0  0  0  0  0  0  0  0  0  0  0
   26.5026  -19.8163  -11.7576 N   0  0  0  0  0  0  0  0  0  0  0  0
   27.0663  -19.8810  -10.3981 C   0  0  1  0  0  0  0  0  0  0  0  0
   26.0775  -19.3421   -9.3902 C   0  0  0  0  0  0  0  0  0  0  0  0
   26.7751  -19.0342   -8.1148 C   0  0  0  0  0  0  0  0  0  0  0  0
   27.6445  -17.9627   -7.8791 C   0  0  0  0  0  0  0  0  0  0  0  0
   28.0667  -18.0414   -6.6034 N   0  0  0  0  0  0  0  0  0  0  0  0
   27.5343  -19.0946   -5.9775 C   0  0  0  0  0  0  0  0  0  0  0  0
   27.6622  -19.5764   -4.6955 C   0  0  0  0  0  0  0  0  0  0  0  0
   26.9515  -20.7169   -4.3677 C   0  0  0  0  0  0  0  0  0  0  0  0
   26.1336  -21.3742   -5.2703 C   0  0  0  0  0  0  0  0  0  0  0  0
   26.0366  -20.8503   -6.5521 C   0  0  0  0  0  0  0  0  0  0  0  0
   26.7316  -19.7163   -6.9083 C   0  0  0  0  0  0  0  0  0  0  0  0
   27.5756  -21.2170  -10.0924 C   0  0  0  0  0  0  0  0  0  0  0  0
   28.8239  -21.4423   -9.5320 O   0  0  0  0  0  0  0  0  0  0  0  0
   26.8978  -22.2743  -10.3239 O   0  0  0  0  0  0  0  0  0  0  0  0
  2  1  1  1
  2  3  1  0
  4  3  1  0
  5  4  2  0
  6  7  1  0
  6  5  1  0
  7 12  2  0
  8  7  1  0
  8  9  2  0
  9 10  1  0
 10 11  2  0
 12  4  1  0
 12 11  1  0
 13 20  1  0
 13  2  1  0
 14 13  2  0
 16 15  1  0
 16 17  1  0
 17 18  1  6
 19 17  1  0
 19 20  1  1
 21 19  1  0
 21 22  2  0
 23 24  1  0
 23 21  1  0
 24 25  1  1
 26 25  1  0
 26 27  2  0
 28 27  1  0
 29 28  1  0
 30 29  2  0
 31 30  1  0
 32 31  2  0
 32 33  1  0
 33 34  2  0
 34 29  1  0
 34 26  1  0
 35 24  1  0
 35 36  1  0
 37 35  2  0
M  END
$$$$
