WIW.pdb
     RDKit          3D

 37 40  0  0  1  0  0  0  0  0999 V2000
   21.6697  -20.4924  -14.7358 N   0  0  0  0  0  0  0  0  0  0  0  0
   22.7061  -19.5251  -14.4567 C   0  0  1  0  0  0  0  0  0  0  0  0
   22.1094  -18.4518  -13.5753 C   0  0  0  0  0  0  0  0  0  0  0  0
   21.0188  -17.7133  -14.2565 C   0  0  0  0  0  0  0  0  0  0  0  0
   19.6704  -17.7363  -13.9842 C   0  0  0  0  0  0  0  0  0  0  0  0
   19.0670  -16.9101  -14.8551 N   0  0  0  0  0  0  0  0  0  0  0  0
   19.9950  -16.3610  -15.6751 C   0  0  0  0  0  0  0  0  0  0  0  0
   19.8877  -15.4504  -16.7343 C   0  0  0  0  0  0  0  0  0  0  0  0
   21.0034  -15.0350  -17.4279 C   0  0  0  0  0  0  0  0  0  0  0  0
   22.2183  -15.5562  -17.0305 C   0  0  0  0  0  0  0  0  0  0  0  0
   22.3655  -16.4440  -16.0056 C   0  0  0  0  0  0  0  0  0  0  0  0
   21.2206  -16.8522  -15.3147 C   0  0  0  0  0  0  0  0  0  0  0  0
   23.8596  -20.1901  -13.8118 C   0  0  0  0  0  0  0  0  0  0  0  0
   23.6146  -21.1717  -13.0472 O   0  0  0  0  0  0  0  0  0  0  0  0
   28.3251  -21.1448  -16.6040 C   0  0  0  0  0  0  0  0  0  0  0  0
   27.0878  -20.9880  -15.7164 C   0  0  0  0  0  0  0  0  0  0  0  0
   27.4657  -20.4918  -14.3620 C   0  0  2  0  0  0  0  0  0  0  0  0
   28.6761  -21.1899  -13.7934 C   0  0  0  0  0  0  0  0  0  0  0  0
   26.3071  -20.3335  -13.4688 C   0  0  2  0  0  0  0  0  0  0  0  0
   25.1647  -19.6976  -14.0813 N   0  0  0  0  0  0  0  0  0  0  0  0
   26.5550  -19.9226  -12.0809 C   0  0  0  0  0  0  0  0  0  0  0  0
   26.7054  -18.7333  -11.7073 O   0  0  0  0  0  0  0  0  0  0  0  0
   26.6414  -20.9120  -11.0633 N   0  0  0  0  0  0  0  0  0  0  0  0
   27.0688  -20.5682   -9.6961 C   0  0  1  0  0  0  0  0  0  0  0  0
   26.1281  -19.5536   -9.0880 C   0  0  0  0  0  0  0  0  0  0  0  0
   26.7447  -18.9589   -7.8739 C   0  0  0  0  0  0  0  0  0  0  0  0
   27.2136  -17.6472   -7.7357 C   0  0  0  0  0  0  0  0  0  0  0  0
   27.7013  -17.5081   -6.4888 N   0  0  0  0  0  0  0  0  0  0  0  0
   27.5865  -18.6414   -5.7909 C   0  0  0  0  0  0  0  0  0  0  0  0
   27.9334  -18.9795   -4.5036 C   0  0  0  0  0  0  0  0  0  0  0  0
   27.6653  -20.2712   -4.0879 C   0  0  0  0  0  0  0  0  0  0  0  0
   27.0718  -21.2137   -4.9096 C   0  0  0  0  0  0  0  0  0  0  0  0
   26.7398  -20.8257   -6.2004 C   0  0  0  0  0  0  0  0  0  0  0  0
   26.9940  -19.5469   -6.6431 C   0  0  0  0  0  0  0  0  0  0  0  0
   27.2765  -21.7653   -8.8828 C   0  0  0  0  0  0  0  0  0  0  0  0
   28.4097  -21.9695   -8.1102 O   0  0  0  0  0  0  0  0  0  0  0  0
   26.4195  -22.7108   -8.8303 O   0  0  0  0  0  0  0  0  0  0  0  0
  2  1  1  1
  2  3  1  0
  4  3  1  0
  5  4  2  0
  6  7  1  0
  6  5  1  0
  7 12  2  0
  8  7  1  0
  8  9  2  0
  9 10  1  0
 10 11  2  0
 12  4  1  0
 12 11  1  0
 13 20  1  0
 13  2  1  0
 14 13  2  0
 16 15  1  0
 16 17  1  0
 17 18  1  1
 19 17  1  0
 19 20  1  6
 21 19  1  0
 21 22  2  0
 23 24  1  0
 23 21  1  0
 24 25  1  1
 26 25  1  0
 26 27  2  0
 28 27  1  0
 29 28  1  0
 30 29  2  0
 31 30  1  0
 32 31  2  0
 32 33  1  0
 33 34  2  0
 34 29  1  0
 34 26  1  0
 35 24  1  0
 35 36  1  0
 37 35  2  0
M  END
$$$$
