MWM.pdb
     RDKit          3D

 31 32  0  0  1  0  0  0  0  0999 V2000
    7.5265  -12.5861   17.5320 C   0  0  0  0  0  0  0  0  0  0  0  0
    7.9384  -13.8810   16.3308 S   0  0  0  0  0  0  0  0  0  0  0  0
    8.8514  -15.2256   17.1431 C   0  0  0  0  0  0  0  0  0  0  0  0
    9.2621  -14.7862   18.5513 C   0  0  0  0  0  0  0  0  0  0  0  0
    9.9750  -15.9196   19.2624 C   0  0  2  0  0  0  0  0  0  0  0  0
    9.2922  -17.1744   19.0828 N   0  0  0  0  0  0  0  0  0  0  0  0
   10.0331  -15.5310   20.7072 C   0  0  0  0  0  0  0  0  0  0  0  0
   10.7279  -14.5842   21.1167 O   0  0  0  0  0  0  0  0  0  0  0  0
    9.2765  -16.2628   21.6241 N   0  0  0  0  0  0  0  0  0  0  0  0
    8.9126  -15.7899   22.9784 C   0  0  1  0  0  0  0  0  0  0  0  0
    7.4623  -15.9298   23.1846 C   0  0  0  0  0  0  0  0  0  0  0  0
    6.9069  -15.4118   24.4395 C   0  0  0  0  0  0  0  0  0  0  0  0
    6.2084  -16.1910   25.3663 C   0  0  0  0  0  0  0  0  0  0  0  0
    5.8424  -15.3663   26.3522 N   0  0  0  0  0  0  0  0  0  0  0  0
    6.2540  -14.1084   26.1318 C   0  0  0  0  0  0  0  0  0  0  0  0
    6.1207  -12.9306   26.8758 C   0  0  0  0  0  0  0  0  0  0  0  0
    6.6904  -11.7670   26.3659 C   0  0  0  0  0  0  0  0  0  0  0  0
    7.3529  -11.8168   25.1679 C   0  0  0  0  0  0  0  0  0  0  0  0
    7.4964  -12.9664   24.4162 C   0  0  0  0  0  0  0  0  0  0  0  0
    6.9280  -14.1077   24.9327 C   0  0  0  0  0  0  0  0  0  0  0  0
    9.8708  -16.3655   23.8973 C   0  0  0  0  0  0  0  0  0  0  0  0
   10.5107  -17.4309   23.5414 O   0  0  0  0  0  0  0  0  0  0  0  0
    9.5363  -14.4114   30.7456 C   0  0  0  0  0  0  0  0  0  0  0  0
   10.9635  -14.5822   29.6423 S   0  0  0  0  0  0  0  0  0  0  0  0
   10.4937  -15.5856   28.2259 C   0  0  0  0  0  0  0  0  0  0  0  0
   11.5731  -15.8156   27.2220 C   0  0  0  0  0  0  0  0  0  0  0  0
   11.2465  -16.5930   26.0190 C   0  0  2  0  0  0  0  0  0  0  0  0
   10.2317  -15.8961   25.1944 N   0  0  0  0  0  0  0  0  0  0  0  0
   10.8998  -18.0070   26.1413 C   0  0  0  0  0  0  0  0  0  0  0  0
    9.6343  -18.5196   26.0137 O   0  0  0  0  0  0  0  0  0  0  0  0
   11.8126  -18.8680   26.3923 O   0  0  0  0  0  0  0  0  0  0  0  0
  1  2  1  0
  3  2  1  0
  4  3  1  0
  5  4  1  0
  5  6  1  1
  7  5  1  0
  8  7  2  0
  9  7  1  0
 10  9  1  0
 11 12  1  0
 10 11  1  1
 12 13  2  0
 12 20  1  0
 13 14  1  0
 14 15  1  0
 15 16  2  0
 16 17  1  0
 18 17  2  0
 19 18  1  0
 20 19  2  0
 20 15  1  0
 21 10  1  0
 21 22  2  0
 23 24  1  0
 24 25  1  0
 25 26  1  0
 27 26  1  1
 27 28  1  0
 28 21  1  0
 29 27  1  0
 30 29  1  0
 31 29  2  0
M  END
$$$$
