MWM.pdb
     RDKit          3D

 31 32  0  0  1  0  0  0  0  0999 V2000
    8.1882  -11.3698   17.2789 C   0  0  0  0  0  0  0  0  0  0  0  0
    8.3421  -12.7700   18.4214 S   0  0  0  0  0  0  0  0  0  0  0  0
    7.3862  -14.1890   17.8102 C   0  0  0  0  0  0  0  0  0  0  0  0
    7.4006  -15.3044   18.8591 C   0  0  0  0  0  0  0  0  0  0  0  0
    8.8205  -15.5640   19.3227 C   0  0  2  0  0  0  0  0  0  0  0  0
    9.1677  -16.9577   19.2212 N   0  0  0  0  0  0  0  0  0  0  0  0
    8.8878  -15.0859   20.7400 C   0  0  0  0  0  0  0  0  0  0  0  0
    9.1035  -13.8969   21.0342 O   0  0  0  0  0  0  0  0  0  0  0  0
    8.7002  -16.0146   21.7652 N   0  0  0  0  0  0  0  0  0  0  0  0
    8.6637  -15.6778   23.2058 C   0  0  1  0  0  0  0  0  0  0  0  0
    7.2720  -15.6728   23.6837 C   0  0  0  0  0  0  0  0  0  0  0  0
    7.0459  -15.3525   25.0972 C   0  0  0  0  0  0  0  0  0  0  0  0
    6.7779  -16.3073   26.0824 C   0  0  0  0  0  0  0  0  0  0  0  0
    6.6052  -15.6332   27.2234 N   0  0  0  0  0  0  0  0  0  0  0  0
    6.7426  -14.3099   27.0492 C   0  0  0  0  0  0  0  0  0  0  0  0
    6.6653  -13.2308   27.9368 C   0  0  0  0  0  0  0  0  0  0  0  0
    6.8794  -11.9514   27.4311 C   0  0  0  0  0  0  0  0  0  0  0  0
    7.1546  -11.7972   26.0981 C   0  0  0  0  0  0  0  0  0  0  0  0
    7.2351  -12.8464   25.2035 C   0  0  0  0  0  0  0  0  0  0  0  0
    7.0209  -14.1041   25.7178 C   0  0  0  0  0  0  0  0  0  0  0  0
    9.6867  -16.4728   23.8504 C   0  0  0  0  0  0  0  0  0  0  0  0
    9.7426  -17.7390   23.5953 O   0  0  0  0  0  0  0  0  0  0  0  0
   15.0711  -15.6559   21.2567 C   0  0  0  0  0  0  0  0  0  0  0  0
   14.9470  -15.8548   23.0534 S   0  0  0  0  0  0  0  0  0  0  0  0
   13.2833  -16.3948   23.4707 C   0  0  0  0  0  0  0  0  0  0  0  0
   13.0409  -16.6494   24.9207 C   0  0  0  0  0  0  0  0  0  0  0  0
   11.6741  -16.9770   25.3478 C   0  0  2  0  0  0  0  0  0  0  0  0
   10.6929  -16.0346   24.7606 N   0  0  0  0  0  0  0  0  0  0  0  0
   11.3850  -17.1733   26.7664 C   0  0  0  0  0  0  0  0  0  0  0  0
   12.0193  -18.0771   27.5797 O   0  0  0  0  0  0  0  0  0  0  0  0
   10.4747  -16.4760   27.3342 O   0  0  0  0  0  0  0  0  0  0  0  0
  1  2  1  0
  3  2  1  0
  4  3  1  0
  5  4  1  0
  5  6  1  1
  7  5  1  0
  8  7  2  0
  9  7  1  0
 10  9  1  0
 11 12  1  0
 10 11  1  1
 12 13  2  0
 12 20  1  0
 13 14  1  0
 14 15  1  0
 15 16  2  0
 16 17  1  0
 18 17  2  0
 19 18  1  0
 20 19  2  0
 20 15  1  0
 21 10  1  0
 21 22  2  0
 23 24  1  0
 24 25  1  0
 25 26  1  0
 27 26  1  1
 27 28  1  0
 28 21  1  0
 29 27  1  0
 30 29  1  0
 31 29  2  0
M  END
$$$$
