MWM.pdb
     RDKit          3D

 31 32  0  0  1  0  0  0  0  0999 V2000
   12.5915  -22.6864   21.8493 C   0  0  0  0  0  0  0  0  0  0  0  0
   13.0686  -22.2434   20.1565 S   0  0  0  0  0  0  0  0  0  0  0  0
   11.8365  -21.1245   19.4277 C   0  0  0  0  0  0  0  0  0  0  0  0
   11.8860  -19.7730   20.1458 C   0  0  0  0  0  0  0  0  0  0  0  0
   10.7931  -18.8639   19.6188 C   0  0  2  0  0  0  0  0  0  0  0  0
   11.0266  -18.4892   18.2484 N   0  0  0  0  0  0  0  0  0  0  0  0
   10.7801  -17.6668   20.5181 C   0  0  0  0  0  0  0  0  0  0  0  0
   11.6794  -16.8080   20.4997 O   0  0  0  0  0  0  0  0  0  0  0  0
    9.7156  -17.5148   21.4083 N   0  0  0  0  0  0  0  0  0  0  0  0
    9.5147  -16.3377   22.2824 C   0  0  1  0  0  0  0  0  0  0  0  0
    8.1451  -15.8236   22.1231 C   0  0  0  0  0  0  0  0  0  0  0  0
    7.8143  -14.5655   22.8009 C   0  0  0  0  0  0  0  0  0  0  0  0
    8.0736  -13.2989   22.2692 C   0  0  0  0  0  0  0  0  0  0  0  0
    7.6598  -12.4150   23.1823 N   0  0  0  0  0  0  0  0  0  0  0  0
    7.1499  -13.0173   24.2675 C   0  0  0  0  0  0  0  0  0  0  0  0
    6.5927  -12.5142   25.4485 C   0  0  0  0  0  0  0  0  0  0  0  0
    6.1290  -13.4260   26.3930 C   0  0  0  0  0  0  0  0  0  0  0  0
    6.2341  -14.7671   26.1349 C   0  0  0  0  0  0  0  0  0  0  0  0
    6.7806  -15.2867   24.9778 C   0  0  0  0  0  0  0  0  0  0  0  0
    7.2347  -14.3737   24.0545 C   0  0  0  0  0  0  0  0  0  0  0  0
   10.0523  -16.6808   23.5814 C   0  0  0  0  0  0  0  0  0  0  0  0
   10.2403  -17.9277   23.8665 O   0  0  0  0  0  0  0  0  0  0  0  0
   10.8793  -12.6445   28.6071 C   0  0  0  0  0  0  0  0  0  0  0  0
   11.2208  -14.1759   29.5135 S   0  0  0  0  0  0  0  0  0  0  0  0
   11.2865  -15.5449   28.3494 C   0  0  0  0  0  0  0  0  0  0  0  0
   10.8819  -15.2132   26.9522 C   0  0  0  0  0  0  0  0  0  0  0  0
   10.8307  -16.3028   25.9682 C   0  0  2  0  0  0  0  0  0  0  0  0
   10.4300  -15.7968   24.6344 N   0  0  0  0  0  0  0  0  0  0  0  0
   10.0921  -17.5249   26.2772 C   0  0  0  0  0  0  0  0  0  0  0  0
   10.6250  -18.6326   26.8849 O   0  0  0  0  0  0  0  0  0  0  0  0
    8.8532  -17.6160   25.9702 O   0  0  0  0  0  0  0  0  0  0  0  0
  1  2  1  0
  3  2  1  0
  4  3  1  0
  5  4  1  0
  5  6  1  6
  7  5  1  0
  8  7  2  0
  9  7  1  0
 10  9  1  0
 11 12  1  0
 10 11  1  1
 12 13  2  0
 12 20  1  0
 13 14  1  0
 14 15  1  0
 15 16  2  0
 16 17  1  0
 18 17  2  0
 19 18  1  0
 20 19  2  0
 20 15  1  0
 21 10  1  0
 21 22  2  0
 23 24  1  0
 24 25  1  0
 25 26  1  0
 27 26  1  1
 27 28  1  0
 28 21  1  0
 29 27  1  0
 30 29  1  0
 31 29  2  0
M  END
$$$$
