MWM.pdb
     RDKit          3D

 31 32  0  0  1  0  0  0  0  0999 V2000
    6.9445  -12.2471   18.3937 C   0  0  0  0  0  0  0  0  0  0  0  0
    7.6171  -13.1240   16.9556 S   0  0  0  0  0  0  0  0  0  0  0  0
    8.4533  -14.6484   17.4825 C   0  0  0  0  0  0  0  0  0  0  0  0
    9.1316  -14.4174   18.8358 C   0  0  0  0  0  0  0  0  0  0  0  0
    9.7013  -15.7205   19.3612 C   0  0  2  0  0  0  0  0  0  0  0  0
    8.8756  -16.8449   19.0049 N   0  0  0  0  0  0  0  0  0  0  0  0
    9.7972  -15.5619   20.8469 C   0  0  0  0  0  0  0  0  0  0  0  0
   10.7660  -15.0106   21.3985 O   0  0  0  0  0  0  0  0  0  0  0  0
    8.7565  -16.0531   21.6371 N   0  0  0  0  0  0  0  0  0  0  0  0
    8.6466  -15.8520   23.0991 C   0  0  1  0  0  0  0  0  0  0  0  0
    7.2484  -15.5712   23.4621 C   0  0  0  0  0  0  0  0  0  0  0  0
    6.9675  -15.2525   24.8661 C   0  0  0  0  0  0  0  0  0  0  0  0
    6.4485  -16.1671   25.7871 C   0  0  0  0  0  0  0  0  0  0  0  0
    6.3073  -15.5035   26.9385 N   0  0  0  0  0  0  0  0  0  0  0  0
    6.6981  -14.2244   26.8307 C   0  0  0  0  0  0  0  0  0  0  0  0
    6.7454  -13.1738   27.7539 C   0  0  0  0  0  0  0  0  0  0  0  0
    7.2309  -11.9432   27.3200 C   0  0  0  0  0  0  0  0  0  0  0  0
    7.6398  -11.8071   26.0197 C   0  0  0  0  0  0  0  0  0  0  0  0
    7.6017  -12.8286   25.0910 C   0  0  0  0  0  0  0  0  0  0  0  0
    7.1192  -14.0382   25.5345 C   0  0  0  0  0  0  0  0  0  0  0  0
    9.3968  -16.9173   23.7287 C   0  0  0  0  0  0  0  0  0  0  0  0
    9.6632  -17.9797   23.0419 O   0  0  0  0  0  0  0  0  0  0  0  0
   15.0662  -15.6882   23.4720 C   0  0  0  0  0  0  0  0  0  0  0  0
   14.9765  -17.0644   24.6472 S   0  0  0  0  0  0  0  0  0  0  0  0
   13.4945  -18.0264   24.3127 C   0  0  0  0  0  0  0  0  0  0  0  0
   12.2173  -17.2555   24.3291 C   0  0  0  0  0  0  0  0  0  0  0  0
   11.2242  -17.5814   25.3613 C   0  0  2  0  0  0  0  0  0  0  0  0
    9.9152  -16.9575   25.0562 N   0  0  0  0  0  0  0  0  0  0  0  0
   11.5516  -17.3824   26.7712 C   0  0  0  0  0  0  0  0  0  0  0  0
   10.8469  -16.5854   27.6365 O   0  0  0  0  0  0  0  0  0  0  0  0
   12.5678  -17.9713   27.2791 O   0  0  0  0  0  0  0  0  0  0  0  0
  1  2  1  0
  3  2  1  0
  4  3  1  0
  5  4  1  0
  5  6  1  1
  7  5  1  0
  8  7  2  0
  9  7  1  0
 10  9  1  0
 11 12  1  0
 10 11  1  1
 12 13  2  0
 12 20  1  0
 13 14  1  0
 14 15  1  0
 15 16  2  0
 16 17  1  0
 18 17  2  0
 19 18  1  0
 20 19  2  0
 20 15  1  0
 21 10  1  0
 21 22  2  0
 23 24  1  0
 24 25  1  0
 25 26  1  0
 27 26  1  6
 27 28  1  0
 28 21  1  0
 29 27  1  0
 30 29  1  0
 31 29  2  0
M  END
$$$$
