MWM.pdb
     RDKit          3D

 31 32  0  0  1  0  0  0  0  0999 V2000
    7.7336  -12.7751   16.8949 C   0  0  0  0  0  0  0  0  0  0  0  0
    8.0821  -14.2148   15.8483 S   0  0  0  0  0  0  0  0  0  0  0  0
    8.8324  -15.5432   16.8349 C   0  0  0  0  0  0  0  0  0  0  0  0
    9.3069  -14.9775   18.1764 C   0  0  0  0  0  0  0  0  0  0  0  0
    9.9283  -16.0778   19.0142 C   0  0  2  0  0  0  0  0  0  0  0  0
    9.2007  -17.3144   18.8938 N   0  0  0  0  0  0  0  0  0  0  0  0
    9.9248  -15.5767   20.4251 C   0  0  0  0  0  0  0  0  0  0  0  0
   10.5435  -14.5554   20.7726 O   0  0  0  0  0  0  0  0  0  0  0  0
    9.1975  -16.2871   21.3817 N   0  0  0  0  0  0  0  0  0  0  0  0
    8.9180  -15.8037   22.7522 C   0  0  1  0  0  0  0  0  0  0  0  0
    7.4995  -16.0189   23.0795 C   0  0  0  0  0  0  0  0  0  0  0  0
    6.9993  -15.4324   24.3275 C   0  0  0  0  0  0  0  0  0  0  0  0
    6.3816  -16.1665   25.3442 C   0  0  0  0  0  0  0  0  0  0  0  0
    6.0446  -15.2871   26.2925 N   0  0  0  0  0  0  0  0  0  0  0  0
    6.4001  -14.0356   25.9642 C   0  0  0  0  0  0  0  0  0  0  0  0
    6.2695  -12.8139   26.6341 C   0  0  0  0  0  0  0  0  0  0  0  0
    6.7693  -11.6717   26.0145 C   0  0  0  0  0  0  0  0  0  0  0  0
    7.3638  -11.7840   24.7855 C   0  0  0  0  0  0  0  0  0  0  0  0
    7.5032  -12.9779   24.1053 C   0  0  0  0  0  0  0  0  0  0  0  0
    7.0042  -14.0974   24.7300 C   0  0  0  0  0  0  0  0  0  0  0  0
    9.9788  -16.3039   23.6000 C   0  0  0  0  0  0  0  0  0  0  0  0
   10.3394  -17.5396   23.4805 O   0  0  0  0  0  0  0  0  0  0  0  0
    9.7472  -13.7644   29.9331 C   0  0  0  0  0  0  0  0  0  0  0  0
   11.1925  -14.8262   29.6749 S   0  0  0  0  0  0  0  0  0  0  0  0
   10.8231  -16.0153   28.3775 C   0  0  0  0  0  0  0  0  0  0  0  0
   10.6546  -15.4371   27.0125 C   0  0  0  0  0  0  0  0  0  0  0  0
   11.1249  -16.2231   25.8640 C   0  0  2  0  0  0  0  0  0  0  0  0
   10.7221  -15.5909   24.5858 N   0  0  0  0  0  0  0  0  0  0  0  0
   10.8615  -17.6592   25.8113 C   0  0  0  0  0  0  0  0  0  0  0  0
   11.7681  -18.6366   26.1328 O   0  0  0  0  0  0  0  0  0  0  0  0
    9.7140  -18.0837   25.4364 O   0  0  0  0  0  0  0  0  0  0  0  0
  1  2  1  0
  3  2  1  0
  4  3  1  0
  5  4  1  0
  5  6  1  1
  7  5  1  0
  8  7  2  0
  9  7  1  0
 10  9  1  0
 11 12  1  0
 10 11  1  1
 12 13  2  0
 12 20  1  0
 13 14  1  0
 14 15  1  0
 15 16  2  0
 16 17  1  0
 18 17  2  0
 19 18  1  0
 20 19  2  0
 20 15  1  0
 21 10  1  0
 21 22  2  0
 23 24  1  0
 24 25  1  0
 25 26  1  0
 27 26  1  1
 27 28  1  0
 28 21  1  0
 29 27  1  0
 30 29  1  0
 31 29  2  0
M  END
$$$$
