MWM.pdb
     RDKit          3D

 31 32  0  0  1  0  0  0  0  0999 V2000
   14.9739  -18.2506   18.8969 C   0  0  0  0  0  0  0  0  0  0  0  0
   13.9084  -19.7050   18.7007 S   0  0  0  0  0  0  0  0  0  0  0  0
   12.1839  -19.1922   18.4474 C   0  0  0  0  0  0  0  0  0  0  0  0
   11.8226  -18.0990   19.4568 C   0  0  0  0  0  0  0  0  0  0  0  0
   10.3893  -17.6511   19.2475 C   0  0  2  0  0  0  0  0  0  0  0  0
   10.2181  -16.9876   17.9812 N   0  0  0  0  0  0  0  0  0  0  0  0
   10.0691  -16.7384   20.3904 C   0  0  0  0  0  0  0  0  0  0  0  0
   10.3832  -15.5350   20.3923 O   0  0  0  0  0  0  0  0  0  0  0  0
    9.3921  -17.2640   21.4922 N   0  0  0  0  0  0  0  0  0  0  0  0
    8.9040  -16.4633   22.6371 C   0  0  1  0  0  0  0  0  0  0  0  0
    7.5718  -16.9355   23.0466 C   0  0  0  0  0  0  0  0  0  0  0  0
    6.8495  -16.1353   24.0414 C   0  0  0  0  0  0  0  0  0  0  0  0
    5.6569  -16.5358   24.6509 C   0  0  0  0  0  0  0  0  0  0  0  0
    5.2972  -15.5396   25.4660 N   0  0  0  0  0  0  0  0  0  0  0  0
    6.1713  -14.5222   25.4296 C   0  0  0  0  0  0  0  0  0  0  0  0
    6.2194  -13.2982   26.1063 C   0  0  0  0  0  0  0  0  0  0  0  0
    7.2951  -12.4519   25.8513 C   0  0  0  0  0  0  0  0  0  0  0  0
    8.2562  -12.8435   24.9572 C   0  0  0  0  0  0  0  0  0  0  0  0
    8.2295  -14.0454   24.2773 C   0  0  0  0  0  0  0  0  0  0  0  0
    7.1605  -14.8706   24.5395 C   0  0  0  0  0  0  0  0  0  0  0  0
    9.9985  -16.3634   23.5785 C   0  0  0  0  0  0  0  0  0  0  0  0
   11.0676  -17.0581   23.3646 O   0  0  0  0  0  0  0  0  0  0  0  0
   10.1921  -12.7749   29.0103 C   0  0  0  0  0  0  0  0  0  0  0  0
   11.4515  -13.9771   29.5122 S   0  0  0  0  0  0  0  0  0  0  0  0
   11.7750  -15.0952   28.1415 C   0  0  0  0  0  0  0  0  0  0  0  0
   10.9006  -14.9089   26.9471 C   0  0  0  0  0  0  0  0  0  0  0  0
   11.0942  -15.8056   25.7997 C   0  0  2  0  0  0  0  0  0  0  0  0
   10.0705  -15.5631   24.7562 N   0  0  0  0  0  0  0  0  0  0  0  0
   11.2474  -17.2418   26.0195 C   0  0  0  0  0  0  0  0  0  0  0  0
   10.2123  -18.1343   26.1317 O   0  0  0  0  0  0  0  0  0  0  0  0
   12.4172  -17.7490   26.1282 O   0  0  0  0  0  0  0  0  0  0  0  0
  1  2  1  0
  3  2  1  0
  4  3  1  0
  5  4  1  0
  5  6  1  6
  7  5  1  0
  8  7  2  0
  9  7  1  0
 10  9  1  0
 11 12  1  0
 10 11  1  1
 12 13  2  0
 12 20  1  0
 13 14  1  0
 14 15  1  0
 15 16  2  0
 16 17  1  0
 18 17  2  0
 19 18  1  0
 20 19  2  0
 20 15  1  0
 21 10  1  0
 21 22  2  0
 23 24  1  0
 24 25  1  0
 25 26  1  0
 27 26  1  1
 27 28  1  0
 28 21  1  0
 29 27  1  0
 30 29  1  0
 31 29  2  0
M  END
$$$$
