MWM.pdb
     RDKit          3D

 31 32  0  0  1  0  0  0  0  0999 V2000
    7.3167  -12.1657   18.8808 C   0  0  0  0  0  0  0  0  0  0  0  0
    8.0188  -13.1064   17.4983 S   0  0  0  0  0  0  0  0  0  0  0  0
    8.7592  -14.6523   18.1006 C   0  0  0  0  0  0  0  0  0  0  0  0
    9.0687  -14.5223   19.5946 C   0  0  0  0  0  0  0  0  0  0  0  0
    9.7298  -15.7893   20.1009 C   0  0  2  0  0  0  0  0  0  0  0  0
    8.9302  -16.9544   19.8247 N   0  0  0  0  0  0  0  0  0  0  0  0
    9.9237  -15.5960   21.5729 C   0  0  0  0  0  0  0  0  0  0  0  0
   10.6782  -14.7236   22.0382 O   0  0  0  0  0  0  0  0  0  0  0  0
    9.2284  -16.4294   22.4508 N   0  0  0  0  0  0  0  0  0  0  0  0
    9.1392  -16.2197   23.9131 C   0  0  1  0  0  0  0  0  0  0  0  0
    7.8321  -16.6820   24.4064 C   0  0  0  0  0  0  0  0  0  0  0  0
    6.9959  -15.7073   25.1150 C   0  0  0  0  0  0  0  0  0  0  0  0
    5.7363  -15.9977   25.6472 C   0  0  0  0  0  0  0  0  0  0  0  0
    5.2827  -14.8608   26.1837 N   0  0  0  0  0  0  0  0  0  0  0  0
    6.1579  -13.8542   26.0384 C   0  0  0  0  0  0  0  0  0  0  0  0
    6.1266  -12.5145   26.4416 C   0  0  0  0  0  0  0  0  0  0  0  0
    7.2281  -11.7163   26.1448 C   0  0  0  0  0  0  0  0  0  0  0  0
    8.2902  -12.2653   25.4762 C   0  0  0  0  0  0  0  0  0  0  0  0
    8.3432  -13.5835   25.0678 C   0  0  0  0  0  0  0  0  0  0  0  0
    7.2475  -14.3593   25.3679 C   0  0  0  0  0  0  0  0  0  0  0  0
   10.3802  -16.6975   24.4838 C   0  0  0  0  0  0  0  0  0  0  0  0
   11.1455  -17.4513   23.7644 O   0  0  0  0  0  0  0  0  0  0  0  0
   10.1056  -13.5969   28.5460 C   0  0  0  0  0  0  0  0  0  0  0  0
   11.6306  -14.4366   29.0485 S   0  0  0  0  0  0  0  0  0  0  0  0
   11.5160  -16.1759   28.6065 C   0  0  0  0  0  0  0  0  0  0  0  0
   12.5110  -16.6440   27.5981 C   0  0  0  0  0  0  0  0  0  0  0  0
   12.0082  -17.2423   26.3542 C   0  0  2  0  0  0  0  0  0  0  0  0
   10.9057  -16.4338   25.7827 N   0  0  0  0  0  0  0  0  0  0  0  0
   11.6518  -18.6588   26.3232 C   0  0  0  0  0  0  0  0  0  0  0  0
   10.3769  -19.1454   26.1878 O   0  0  0  0  0  0  0  0  0  0  0  0
   12.5647  -19.5486   26.4336 O   0  0  0  0  0  0  0  0  0  0  0  0
  1  2  1  0
  3  2  1  0
  4  3  1  0
  5  4  1  0
  5  6  1  1
  7  5  1  0
  8  7  2  0
  9  7  1  0
 10  9  1  0
 11 12  1  0
 10 11  1  1
 12 13  2  0
 12 20  1  0
 13 14  1  0
 14 15  1  0
 15 16  2  0
 16 17  1  0
 18 17  2  0
 19 18  1  0
 20 19  2  0
 20 15  1  0
 21 10  1  0
 21 22  2  0
 23 24  1  0
 24 25  1  0
 25 26  1  0
 27 26  1  1
 27 28  1  0
 28 21  1  0
 29 27  1  0
 30 29  1  0
 31 29  2  0
M  END
$$$$
