MWM.pdb
     RDKit          3D

 31 32  0  0  1  0  0  0  0  0999 V2000
    8.0571  -12.1820   18.3655 C   0  0  0  0  0  0  0  0  0  0  0  0
    8.0735  -13.5915   17.2242 S   0  0  0  0  0  0  0  0  0  0  0  0
    8.6126  -15.0954   18.0894 C   0  0  0  0  0  0  0  0  0  0  0  0
    9.0100  -14.7438   19.5257 C   0  0  0  0  0  0  0  0  0  0  0  0
    9.5780  -15.9650   20.2219 C   0  0  2  0  0  0  0  0  0  0  0  0
    8.7046  -17.1029   20.0985 N   0  0  0  0  0  0  0  0  0  0  0  0
    9.7678  -15.5745   21.6549 C   0  0  0  0  0  0  0  0  0  0  0  0
   10.6026  -14.7239   22.0103 O   0  0  0  0  0  0  0  0  0  0  0  0
    8.9745  -16.1920   22.6235 N   0  0  0  0  0  0  0  0  0  0  0  0
    9.0350  -15.8940   24.0718 C   0  0  1  0  0  0  0  0  0  0  0  0
    7.8179  -16.3873   24.7357 C   0  0  0  0  0  0  0  0  0  0  0  0
    6.9493  -15.3935   25.3757 C   0  0  0  0  0  0  0  0  0  0  0  0
    5.6861  -15.6812   25.9007 C   0  0  0  0  0  0  0  0  0  0  0  0
    5.2000  -14.5268   26.3669 N   0  0  0  0  0  0  0  0  0  0  0  0
    6.0574  -13.5114   26.1827 C   0  0  0  0  0  0  0  0  0  0  0  0
    5.9920  -12.1529   26.5121 C   0  0  0  0  0  0  0  0  0  0  0  0
    7.0827  -11.3490   26.1919 C   0  0  0  0  0  0  0  0  0  0  0  0
    8.1679  -11.9107   25.5727 C   0  0  0  0  0  0  0  0  0  0  0  0
    8.2547  -13.2477   25.2373 C   0  0  0  0  0  0  0  0  0  0  0  0
    7.1693  -14.0290   25.5597 C   0  0  0  0  0  0  0  0  0  0  0  0
   10.3559  -16.2732   24.5252 C   0  0  0  0  0  0  0  0  0  0  0  0
   11.3247  -15.4274   24.3937 O   0  0  0  0  0  0  0  0  0  0  0  0
   11.1591  -13.3884   28.2762 C   0  0  0  0  0  0  0  0  0  0  0  0
   11.4583  -15.0036   29.0409 S   0  0  0  0  0  0  0  0  0  0  0  0
   11.1235  -16.2950   27.8353 C   0  0  0  0  0  0  0  0  0  0  0  0
   12.1995  -16.5193   26.8264 C   0  0  0  0  0  0  0  0  0  0  0  0
   12.0342  -17.6223   25.8702 C   0  0  2  0  0  0  0  0  0  0  0  0
   10.7548  -17.4998   25.1327 N   0  0  0  0  0  0  0  0  0  0  0  0
   12.2199  -19.0015   26.3150 C   0  0  0  0  0  0  0  0  0  0  0  0
   11.3015  -20.0078   26.1588 O   0  0  0  0  0  0  0  0  0  0  0  0
   13.3033  -19.3407   26.9054 O   0  0  0  0  0  0  0  0  0  0  0  0
  1  2  1  0
  3  2  1  0
  4  3  1  0
  5  4  1  0
  5  6  1  1
  7  5  1  0
  8  7  2  0
  9  7  1  0
 10  9  1  0
 11 12  1  0
 10 11  1  1
 12 13  2  0
 12 20  1  0
 13 14  1  0
 14 15  1  0
 15 16  2  0
 16 17  1  0
 18 17  2  0
 19 18  1  0
 20 19  2  0
 20 15  1  0
 21 10  1  0
 21 22  2  0
 23 24  1  0
 24 25  1  0
 25 26  1  0
 27 26  1  1
 27 28  1  0
 28 21  1  0
 29 27  1  0
 30 29  1  0
 31 29  2  0
M  END
$$$$
