ASV.pdb
     RDKit          3D

 19 18  0  0  1  0  0  0  0  0999 V2000
   29.3366  -19.7273  -13.5323 C   0  0  0  0  0  0  0  0  0  0  0  0
   27.8691  -20.0696  -13.7672 C   0  0  2  0  0  0  0  0  0  0  0  0
   27.4281  -19.3018  -14.8974 N   0  0  0  0  0  0  0  0  0  0  0  0
   27.1383  -19.6752  -12.5407 C   0  0  0  0  0  0  0  0  0  0  0  0
   26.8879  -18.4495  -12.3554 O   0  0  0  0  0  0  0  0  0  0  0  0
   24.2944  -21.9030  -10.7503 O   0  0  0  0  0  0  0  0  0  0  0  0
   24.4662  -20.5431  -10.5143 C   0  0  0  0  0  0  0  0  0  0  0  0
   25.9141  -20.1421  -10.4396 C   0  0  2  0  0  0  0  0  0  0  0  0
   26.6946  -20.5633  -11.5534 N   0  0  0  0  0  0  0  0  0  0  0  0
   26.4399  -20.6195   -9.1377 C   0  0  0  0  0  0  0  0  0  0  0  0
   27.0335  -21.7267   -9.0830 O   0  0  0  0  0  0  0  0  0  0  0  0
   28.9053  -19.2440   -6.6598 C   0  0  0  0  0  0  0  0  0  0  0  0
   27.6267  -19.4845   -5.8862 C   0  0  2  0  0  0  0  0  0  0  0  0
   27.9843  -19.9855   -4.5213 C   0  0  0  0  0  0  0  0  0  0  0  0
   26.7824  -20.4637   -6.6704 C   0  0  2  0  0  0  0  0  0  0  0  0
   26.3199  -19.9013   -7.9181 N   0  0  0  0  0  0  0  0  0  0  0  0
   25.6947  -21.0388   -5.8638 C   0  0  0  0  0  0  0  0  0  0  0  0
   25.9714  -21.7477   -4.8824 O   0  0  0  0  0  0  0  0  0  0  0  0
   24.3838  -20.7987   -6.1863 O   0  0  0  0  0  0  0  0  0  0  0  0
  2  4  1  0
  2  1  1  1
  2  3  1  0
  4  5  2  0
  6  7  1  0
  8  7  1  6
  8  9  1  0
  8 10  1  0
  9  4  1  0
 10 11  2  0
 10 16  1  0
 13 12  1  6
 13 15  1  0
 14 13  1  0
 15 17  1  0
 15 16  1  6
 17 18  2  0
 17 19  1  0
M  END
$$$$
