ASV.pdb
     RDKit          3D

 19 18  0  0  1  0  0  0  0  0999 V2000
   12.8094  -12.6990  -15.7341 C   0  0  0  0  0  0  0  0  0  0  0  0
   14.2727  -12.9180  -16.1033 C   0  0  2  0  0  0  0  0  0  0  0  0
   14.6379  -14.2270  -15.6400 N   0  0  0  0  0  0  0  0  0  0  0  0
   15.0503  -11.8711  -15.4008 C   0  0  0  0  0  0  0  0  0  0  0  0
   14.6571  -11.4904  -14.2609 O   0  0  0  0  0  0  0  0  0  0  0  0
   18.7922  -11.7074  -15.6274 O   0  0  0  0  0  0  0  0  0  0  0  0
   18.4070  -10.4530  -15.1663 C   0  0  0  0  0  0  0  0  0  0  0  0
   16.9157  -10.2572  -15.1845 C   0  0  2  0  0  0  0  0  0  0  0  0
   16.2042  -11.2585  -15.9044 N   0  0  0  0  0  0  0  0  0  0  0  0
   16.6548   -8.8820  -15.6745 C   0  0  0  0  0  0  0  0  0  0  0  0
   16.4836   -8.6900  -16.9054 O   0  0  0  0  0  0  0  0  0  0  0  0
   14.5682   -5.9189  -13.7384 C   0  0  0  0  0  0  0  0  0  0  0  0
   14.8594   -6.0359  -15.2191 C   0  0  2  0  0  0  0  0  0  0  0  0
   13.9162   -7.0367  -15.8112 C   0  0  0  0  0  0  0  0  0  0  0  0
   16.3111   -6.4275  -15.3811 C   0  0  2  0  0  0  0  0  0  0  0  0
   16.5822   -7.7376  -14.8361 N   0  0  0  0  0  0  0  0  0  0  0  0
   17.2305   -5.3960  -14.8757 C   0  0  0  0  0  0  0  0  0  0  0  0
   17.7865   -5.5588  -13.7772 O   0  0  0  0  0  0  0  0  0  0  0  0
   17.4766   -4.2616  -15.6055 O   0  0  0  0  0  0  0  0  0  0  0  0
  2  4  1  0
  2  1  1  1
  2  3  1  0
  4  5  2  0
  6  7  1  0
  8  7  1  6
  8  9  1  0
  8 10  1  0
  9  4  1  0
 10 11  2  0
 10 16  1  0
 13 12  1  1
 13 15  1  0
 14 13  1  0
 15 17  1  0
 15 16  1  1
 17 18  2  0
 17 19  1  0
M  END
$$$$
