ASV.pdb
     RDKit          3D

 19 18  0  0  1  0  0  0  0  0999 V2000
   19.9802   -9.2038  -20.4284 C   0  0  0  0  0  0  0  0  0  0  0  0
   20.4894  -10.0826  -19.2908 C   0  0  2  0  0  0  0  0  0  0  0  0
   19.7939  -11.3358  -19.3763 N   0  0  0  0  0  0  0  0  0  0  0  0
   20.1608   -9.3791  -18.0294 C   0  0  0  0  0  0  0  0  0  0  0  0
   18.9508   -9.0973  -17.7933 O   0  0  0  0  0  0  0  0  0  0  0  0
   21.9951   -9.8615  -14.4401 O   0  0  0  0  0  0  0  0  0  0  0  0
   20.7489   -9.2781  -14.6434 C   0  0  0  0  0  0  0  0  0  0  0  0
   20.7194   -8.3668  -15.8398 C   0  0  2  0  0  0  0  0  0  0  0  0
   21.0960   -8.9943  -17.0611 N   0  0  0  0  0  0  0  0  0  0  0  0
   21.5412   -7.1767  -15.5112 C   0  0  0  0  0  0  0  0  0  0  0  0
   22.7438   -7.1401  -15.8766 O   0  0  0  0  0  0  0  0  0  0  0  0
   20.0094   -3.3901  -14.4090 C   0  0  0  0  0  0  0  0  0  0  0  0
   21.3563   -3.6282  -15.0574 C   0  0  2  0  0  0  0  0  0  0  0  0
   21.1702   -3.6557  -16.5428 C   0  0  0  0  0  0  0  0  0  0  0  0
   21.9170   -4.9216  -14.5101 C   0  0  2  0  0  0  0  0  0  0  0  0
   21.0587   -6.0476  -14.7970 N   0  0  0  0  0  0  0  0  0  0  0  0
   22.2727   -4.8213  -13.0861 C   0  0  0  0  0  0  0  0  0  0  0  0
   21.6044   -5.4437  -12.2445 O   0  0  0  0  0  0  0  0  0  0  0  0
   23.3318   -4.0490  -12.6835 O   0  0  0  0  0  0  0  0  0  0  0  0
  2  4  1  0
  2  1  1  6
  2  3  1  0
  4  5  2  0
  6  7  1  0
  8  7  1  1
  8  9  1  0
  8 10  1  0
  9  4  1  0
 10 11  2  0
 10 16  1  0
 13 12  1  1
 13 15  1  0
 14 13  1  0
 15 17  1  0
 15 16  1  1
 17 18  2  0
 17 19  1  0
M  END
$$$$
