ASV.pdb
     RDKit          3D

 19 18  0  0  1  0  0  0  0  0999 V2000
   20.0086   -9.3021  -20.4124 C   0  0  0  0  0  0  0  0  0  0  0  0
   20.4781  -10.4649  -19.5445 C   0  0  2  0  0  0  0  0  0  0  0  0
   19.4749  -11.4889  -19.6249 N   0  0  0  0  0  0  0  0  0  0  0  0
   20.5948   -9.9446  -18.1626 C   0  0  0  0  0  0  0  0  0  0  0  0
   19.5755   -9.4225  -17.6264 O   0  0  0  0  0  0  0  0  0  0  0  0
   22.5613  -11.5415  -15.0399 O   0  0  0  0  0  0  0  0  0  0  0  0
   22.8150  -10.1807  -15.1760 C   0  0  0  0  0  0  0  0  0  0  0  0
   21.8129   -9.4854  -16.0563 C   0  0  2  0  0  0  0  0  0  0  0  0
   21.7609   -9.9845  -17.3887 N   0  0  0  0  0  0  0  0  0  0  0  0
   22.0919   -8.0306  -15.9828 C   0  0  0  0  0  0  0  0  0  0  0  0
   22.9646   -7.5329  -16.7390 O   0  0  0  0  0  0  0  0  0  0  0  0
   20.1972   -5.3290  -16.9821 C   0  0  0  0  0  0  0  0  0  0  0  0
   20.5423   -4.9002  -15.5721 C   0  0  2  0  0  0  0  0  0  0  0  0
   20.8209   -3.4291  -15.5775 C   0  0  0  0  0  0  0  0  0  0  0  0
   21.7247   -5.7217  -15.1094 C   0  0  2  0  0  0  0  0  0  0  0  0
   21.4303   -7.1360  -15.0998 N   0  0  0  0  0  0  0  0  0  0  0  0
   22.2752   -5.2431  -13.8317 C   0  0  0  0  0  0  0  0  0  0  0  0
   21.9901   -5.8415  -12.7816 O   0  0  0  0  0  0  0  0  0  0  0  0
   23.0969   -4.1461  -13.7925 O   0  0  0  0  0  0  0  0  0  0  0  0
  2  4  1  0
  2  1  1  6
  2  3  1  0
  4  5  2  0
  6  7  1  0
  8  7  1  1
  8  9  1  0
  8 10  1  0
  9  4  1  0
 10 11  2  0
 10 16  1  0
 13 12  1  6
 13 15  1  0
 14 13  1  0
 15 17  1  0
 15 16  1  1
 17 18  2  0
 17 19  1  0
M  END
$$$$
