ASV.pdb
     RDKit          3D

 19 18  0  0  1  0  0  0  0  0999 V2000
   21.0734   -9.9636  -20.5021 C   0  0  0  0  0  0  0  0  0  0  0  0
   20.9336  -10.9987  -19.3909 C   0  0  2  0  0  0  0  0  0  0  0  0
   19.6772  -11.6658  -19.5854 N   0  0  0  0  0  0  0  0  0  0  0  0
   20.9453  -10.2535  -18.1108 C   0  0  0  0  0  0  0  0  0  0  0  0
   19.9237   -9.5776  -17.7969 O   0  0  0  0  0  0  0  0  0  0  0  0
   24.2647  -10.0042  -15.4279 O   0  0  0  0  0  0  0  0  0  0  0  0
   22.9584   -9.9547  -14.9529 C   0  0  0  0  0  0  0  0  0  0  0  0
   21.9764   -9.4897  -15.9931 C   0  0  2  0  0  0  0  0  0  0  0  0
   22.0128  -10.2360  -17.2051 N   0  0  0  0  0  0  0  0  0  0  0  0
   22.1936   -8.0359  -16.1898 C   0  0  0  0  0  0  0  0  0  0  0  0
   22.9780   -7.6480  -17.0929 O   0  0  0  0  0  0  0  0  0  0  0  0
   20.3301   -5.4633  -17.5354 C   0  0  0  0  0  0  0  0  0  0  0  0
   20.6686   -4.8759  -16.1821 C   0  0  2  0  0  0  0  0  0  0  0  0
   20.9299   -3.4114  -16.3517 C   0  0  0  0  0  0  0  0  0  0  0  0
   21.8600   -5.6265  -15.6308 C   0  0  2  0  0  0  0  0  0  0  0  0
   21.5661   -7.0243  -15.4148 N   0  0  0  0  0  0  0  0  0  0  0  0
   22.4358   -4.9729  -14.4451 C   0  0  0  0  0  0  0  0  0  0  0  0
   23.1840   -3.9925  -14.5913 O   0  0  0  0  0  0  0  0  0  0  0  0
   22.1534   -5.4362  -13.1859 O   0  0  0  0  0  0  0  0  0  0  0  0
  2  4  1  0
  2  1  1  6
  2  3  1  0
  4  5  2  0
  6  7  1  0
  8  7  1  1
  8  9  1  0
  8 10  1  0
  9  4  1  0
 10 11  2  0
 10 16  1  0
 13 12  1  6
 13 15  1  0
 14 13  1  0
 15 17  1  0
 15 16  1  1
 17 18  2  0
 17 19  1  0
M  END
$$$$
