ASV.pdb
     RDKit          3D

 19 18  0  0  1  0  0  0  0  0999 V2000
   18.9639  -12.2483  -18.2741 C   0  0  0  0  0  0  0  0  0  0  0  0
   19.7356  -10.9890  -18.6540 C   0  0  2  0  0  0  0  0  0  0  0  0
   20.9323  -11.4092  -19.3269 N   0  0  0  0  0  0  0  0  0  0  0  0
   20.0571  -10.2887  -17.3889 C   0  0  0  0  0  0  0  0  0  0  0  0
   19.1045   -9.9360  -16.6357 O   0  0  0  0  0  0  0  0  0  0  0  0
   23.9604   -9.7695  -15.7069 O   0  0  0  0  0  0  0  0  0  0  0  0
   22.7839   -9.7677  -14.9650 C   0  0  0  0  0  0  0  0  0  0  0  0
   21.6017   -9.2642  -15.7470 C   0  0  2  0  0  0  0  0  0  0  0  0
   21.3509   -9.9804  -16.9518 N   0  0  0  0  0  0  0  0  0  0  0  0
   21.7955   -7.8089  -15.9563 C   0  0  0  0  0  0  0  0  0  0  0  0
   22.3891   -7.4101  -16.9906 O   0  0  0  0  0  0  0  0  0  0  0  0
   19.2369   -4.9152  -14.6174 C   0  0  0  0  0  0  0  0  0  0  0  0
   20.2222   -4.7463  -15.7539 C   0  0  2  0  0  0  0  0  0  0  0  0
   19.6277   -5.3446  -16.9910 C   0  0  0  0  0  0  0  0  0  0  0  0
   21.5221   -5.4039  -15.3479 C   0  0  2  0  0  0  0  0  0  0  0  0
   21.3494   -6.8075  -15.0530 N   0  0  0  0  0  0  0  0  0  0  0  0
   22.2086   -4.6731  -14.2713 C   0  0  0  0  0  0  0  0  0  0  0  0
   22.2190   -5.1456  -13.1228 O   0  0  0  0  0  0  0  0  0  0  0  0
   22.8341   -3.4797  -14.5257 O   0  0  0  0  0  0  0  0  0  0  0  0
  2  4  1  0
  2  1  1  1
  2  3  1  0
  4  5  2  0
  6  7  1  0
  8  7  1  6
  8  9  1  0
  8 10  1  0
  9  4  1  0
 10 11  2  0
 10 16  1  0
 13 12  1  1
 13 15  1  0
 14 13  1  0
 15 17  1  0
 15 16  1  1
 17 18  2  0
 17 19  1  0
M  END
$$$$
