ASV.pdb
     RDKit          3D

 19 18  0  0  1  0  0  0  0  0999 V2000
   18.2013  -10.7725  -18.7987 C   0  0  0  0  0  0  0  0  0  0  0  0
   19.5769  -11.1580  -18.2651 C   0  0  2  0  0  0  0  0  0  0  0  0
   19.5453  -12.5652  -17.9821 N   0  0  0  0  0  0  0  0  0  0  0  0
   19.7886  -10.3730  -17.0269 C   0  0  0  0  0  0  0  0  0  0  0  0
   18.8395  -10.2903  -16.1953 O   0  0  0  0  0  0  0  0  0  0  0  0
   23.3927   -9.9354  -15.1680 O   0  0  0  0  0  0  0  0  0  0  0  0
   22.1656   -9.7296  -14.5464 C   0  0  0  0  0  0  0  0  0  0  0  0
   21.1629   -9.0563  -15.4430 C   0  0  2  0  0  0  0  0  0  0  0  0
   20.9734   -9.7040  -16.6967 N   0  0  0  0  0  0  0  0  0  0  0  0
   21.5653   -7.6345  -15.5695 C   0  0  0  0  0  0  0  0  0  0  0  0
   22.2494   -7.2750  -16.5614 O   0  0  0  0  0  0  0  0  0  0  0  0
   19.5336   -4.2971  -14.3289 C   0  0  0  0  0  0  0  0  0  0  0  0
   20.6880   -4.3301  -15.3072 C   0  0  2  0  0  0  0  0  0  0  0  0
   20.1638   -4.7452  -16.6469 C   0  0  0  0  0  0  0  0  0  0  0  0
   21.7341   -5.2780  -14.7648 C   0  0  2  0  0  0  0  0  0  0  0  0
   21.2269   -6.6239  -14.6303 N   0  0  0  0  0  0  0  0  0  0  0  0
   22.3606   -4.7766  -13.5317 C   0  0  0  0  0  0  0  0  0  0  0  0
   22.1043   -5.3279  -12.4488 O   0  0  0  0  0  0  0  0  0  0  0  0
   23.2214   -3.7100  -13.5695 O   0  0  0  0  0  0  0  0  0  0  0  0
  2  4  1  0
  2  1  1  1
  2  3  1  0
  4  5  2  0
  6  7  1  0
  8  7  1  6
  8  9  1  0
  8 10  1  0
  9  4  1  0
 10 11  2  0
 10 16  1  0
 13 12  1  1
 13 15  1  0
 14 13  1  0
 15 17  1  0
 15 16  1  1
 17 18  2  0
 17 19  1  0
M  END
$$$$
