EMD.pdb
     RDKit          3D

 26 25  0  0  1  0  0  0  0  0999 V2000
    6.9807  -17.9530   22.4162 N   0  0  0  0  0  0  0  0  0  0  0  0
    7.9674  -17.2400   21.6264 C   0  0  1  0  0  0  0  0  0  0  0  0
    7.3550  -16.6034   20.4234 C   0  0  0  0  0  0  0  0  0  0  0  0
    8.3114  -15.9680   19.4812 C   0  0  0  0  0  0  0  0  0  0  0  0
    8.2230  -16.4737   18.1016 C   0  0  0  0  0  0  0  0  0  0  0  0
    9.2496  -16.7860   17.4850 O   0  0  0  0  0  0  0  0  0  0  0  0
    8.6004  -16.2144   22.4949 C   0  0  0  0  0  0  0  0  0  0  0  0
    9.5845  -15.5905   22.0839 O   0  0  0  0  0  0  0  0  0  0  0  0
    6.9946  -16.6160   17.4511 O   0  0  0  0  0  0  0  0  0  0  0  0
    6.7099  -11.3067   27.1204 C   0  0  0  0  0  0  0  0  0  0  0  0
    5.8270  -12.2685   25.8812 S   0  0  0  0  0  0  0  0  0  0  0  0
    6.9530  -13.1722   24.7841 C   0  0  0  0  0  0  0  0  0  0  0  0
    7.7484  -14.2130   25.5540 C   0  0  0  0  0  0  0  0  0  0  0  0
    8.6943  -14.9678   24.6893 C   0  0  2  0  0  0  0  0  0  0  0  0
    8.1272  -15.9057   23.7969 N   0  0  0  0  0  0  0  0  0  0  0  0
    9.6798  -15.6494   25.5642 C   0  0  0  0  0  0  0  0  0  0  0  0
    9.7255  -15.4024   26.8144 O   0  0  0  0  0  0  0  0  0  0  0  0
   10.5973  -16.5937   25.0339 N   0  0  0  0  0  0  0  0  0  0  0  0
   11.4974  -17.3408   25.9551 C   0  0  1  0  0  0  0  0  0  0  0  0
   10.6487  -18.1098   26.9335 C   0  0  0  0  0  0  0  0  0  0  0  0
   11.3661  -18.9217   27.9032 C   0  0  0  0  0  0  0  0  0  0  0  0
   12.6103  -19.0001   27.9000 O   0  0  0  0  0  0  0  0  0  0  0  0
   12.2059  -18.3260   25.0837 C   0  0  0  0  0  0  0  0  0  0  0  0
   11.9907  -18.4180   23.7127 O   0  0  0  0  0  0  0  0  0  0  0  0
   10.5904  -19.6169   28.8483 O   0  0  0  0  0  0  0  0  0  0  0  0
   13.0279  -19.1091   25.5772 O   0  0  0  0  0  0  0  0  0  0  0  0
  2  3  1  0
  2  1  1  1
  4  3  1  0
  5  6  2  0
  5  4  1  0
  7  8  2  0
  7  2  1  0
  9  5  1  0
 10 11  1  0
 11 12  1  0
 14 13  1  1
 13 12  1  0
 14 15  1  0
 15  7  1  0
 16 14  1  0
 17 16  2  0
 18 16  1  0
 19 20  1  1
 19 18  1  0
 21 25  1  0
 21 20  1  0
 22 21  2  0
 23 19  1  0
 24 23  1  0
 26 23  2  0
M  END
$$$$
