EMD.pdb
     RDKit          3D

 26 25  0  0  1  0  0  0  0  0999 V2000
    8.6086  -15.1799   19.8039 N   0  0  0  0  0  0  0  0  0  0  0  0
    8.4120  -16.2620   20.7506 C   0  0  1  0  0  0  0  0  0  0  0  0
    9.1347  -17.4988   20.3320 C   0  0  0  0  0  0  0  0  0  0  0  0
    9.0181  -17.8501   18.8936 C   0  0  0  0  0  0  0  0  0  0  0  0
    9.6922  -19.1054   18.5239 C   0  0  0  0  0  0  0  0  0  0  0  0
   10.4340  -19.1467   17.5342 O   0  0  0  0  0  0  0  0  0  0  0  0
    8.8882  -15.8036   22.0810 C   0  0  0  0  0  0  0  0  0  0  0  0
   10.0799  -15.5165   22.2363 O   0  0  0  0  0  0  0  0  0  0  0  0
    9.5196  -20.2758   19.2674 O   0  0  0  0  0  0  0  0  0  0  0  0
    6.4307  -11.9558   27.4060 C   0  0  0  0  0  0  0  0  0  0  0  0
    7.4160  -11.8733   25.9019 S   0  0  0  0  0  0  0  0  0  0  0  0
    7.0080  -13.2049   24.7407 C   0  0  0  0  0  0  0  0  0  0  0  0
    7.3822  -14.5623   25.3119 C   0  0  0  0  0  0  0  0  0  0  0  0
    8.4156  -15.2608   24.5018 C   0  0  2  0  0  0  0  0  0  0  0  0
    8.0324  -15.6748   23.2058 N   0  0  0  0  0  0  0  0  0  0  0  0
    8.8969  -16.4325   25.2742 C   0  0  0  0  0  0  0  0  0  0  0  0
    8.1294  -17.4245   25.5042 O   0  0  0  0  0  0  0  0  0  0  0  0
   10.2233  -16.4810   25.7774 N   0  0  0  0  0  0  0  0  0  0  0  0
   10.7288  -17.7373   26.3962 C   0  0  1  0  0  0  0  0  0  0  0  0
   12.2016  -17.8558   26.1029 C   0  0  0  0  0  0  0  0  0  0  0  0
   12.8993  -18.9487   26.7610 C   0  0  0  0  0  0  0  0  0  0  0  0
   13.6839  -18.7492   27.7090 O   0  0  0  0  0  0  0  0  0  0  0  0
   10.5654  -17.5331   27.8671 C   0  0  0  0  0  0  0  0  0  0  0  0
   10.0305  -16.3729   28.4168 O   0  0  0  0  0  0  0  0  0  0  0  0
   12.6483  -20.2456   26.2780 O   0  0  0  0  0  0  0  0  0  0  0  0
   10.9135  -18.4203   28.6571 O   0  0  0  0  0  0  0  0  0  0  0  0
  2  3  1  0
  2  1  1  6
  4  3  1  0
  5  6  2  0
  5  4  1  0
  7  8  2  0
  7  2  1  0
  9  5  1  0
 10 11  1  0
 11 12  1  0
 14 13  1  1
 13 12  1  0
 14 15  1  0
 15  7  1  0
 16 14  1  0
 17 16  2  0
 18 16  1  0
 19 20  1  1
 19 18  1  0
 21 25  1  0
 21 20  1  0
 22 21  2  0
 23 19  1  0
 24 23  1  0
 26 23  2  0
M  END
$$$$
