EMD.pdb
     RDKit          3D

 26 25  0  0  1  0  0  0  0  0999 V2000
    7.7033  -18.1376   21.3468 N   0  0  0  0  0  0  0  0  0  0  0  0
    9.1065  -17.7757   21.2713 C   0  0  1  0  0  0  0  0  0  0  0  0
    9.5085  -17.4145   19.8801 C   0  0  0  0  0  0  0  0  0  0  0  0
    8.6719  -16.3780   19.2230 C   0  0  0  0  0  0  0  0  0  0  0  0
    9.1522  -15.9716   17.8921 C   0  0  0  0  0  0  0  0  0  0  0  0
    8.5268  -15.1311   17.2335 O   0  0  0  0  0  0  0  0  0  0  0  0
    9.3396  -16.6358   22.1949 C   0  0  0  0  0  0  0  0  0  0  0  0
   10.4335  -16.0613   22.1906 O   0  0  0  0  0  0  0  0  0  0  0  0
   10.3137  -16.5136   17.3357 O   0  0  0  0  0  0  0  0  0  0  0  0
    6.8742  -10.9568   25.9671 C   0  0  0  0  0  0  0  0  0  0  0  0
    6.5438  -12.6431   26.5032 S   0  0  0  0  0  0  0  0  0  0  0  0
    7.8675  -13.7866   26.0253 C   0  0  0  0  0  0  0  0  0  0  0  0
    7.4935  -14.5635   24.7741 C   0  0  0  0  0  0  0  0  0  0  0  0
    8.5962  -15.4360   24.2892 C   0  0  2  0  0  0  0  0  0  0  0  0
    8.3549  -16.1610   23.1001 N   0  0  0  0  0  0  0  0  0  0  0  0
    8.9569  -16.3765   25.3785 C   0  0  0  0  0  0  0  0  0  0  0  0
    8.2047  -17.3657   25.6644 O   0  0  0  0  0  0  0  0  0  0  0  0
   10.1476  -16.2009   26.1308 N   0  0  0  0  0  0  0  0  0  0  0  0
   10.5500  -17.2368   27.1218 C   0  0  1  0  0  0  0  0  0  0  0  0
   12.0108  -17.5467   26.9231 C   0  0  0  0  0  0  0  0  0  0  0  0
   12.3162  -18.8401   26.3333 C   0  0  0  0  0  0  0  0  0  0  0  0
   11.4248  -19.6775   26.0917 O   0  0  0  0  0  0  0  0  0  0  0  0
   10.3947  -16.5756   28.4524 C   0  0  0  0  0  0  0  0  0  0  0  0
   10.3412  -17.2827   29.6489 O   0  0  0  0  0  0  0  0  0  0  0  0
   13.6675  -19.1049   26.0466 O   0  0  0  0  0  0  0  0  0  0  0  0
   10.3071  -15.3429   28.5239 O   0  0  0  0  0  0  0  0  0  0  0  0
  2  3  1  0
  2  1  1  6
  4  3  1  0
  5  6  2  0
  5  4  1  0
  7  8  2  0
  7  2  1  0
  9  5  1  0
 10 11  1  0
 11 12  1  0
 14 13  1  1
 13 12  1  0
 14 15  1  0
 15  7  1  0
 16 14  1  0
 17 16  2  0
 18 16  1  0
 19 20  1  6
 19 18  1  0
 21 25  1  0
 21 20  1  0
 22 21  2  0
 23 19  1  0
 24 23  1  0
 26 23  2  0
M  END
$$$$
