EMD.pdb
     RDKit          3D

 26 25  0  0  1  0  0  0  0  0999 V2000
    9.1216  -15.6969   18.9815 N   0  0  0  0  0  0  0  0  0  0  0  0
    8.0589  -15.8827   19.9520 C   0  0  1  0  0  0  0  0  0  0  0  0
    7.5989  -17.3017   20.0009 C   0  0  0  0  0  0  0  0  0  0  0  0
    8.6702  -18.3240   19.8865 C   0  0  0  0  0  0  0  0  0  0  0  0
    8.1881  -19.7126   19.9675 C   0  0  0  0  0  0  0  0  0  0  0  0
    6.9800  -19.9465   20.0984 O   0  0  0  0  0  0  0  0  0  0  0  0
    8.5662  -15.4520   21.2801 C   0  0  0  0  0  0  0  0  0  0  0  0
    9.7831  -15.4433   21.4945 O   0  0  0  0  0  0  0  0  0  0  0  0
    9.0660  -20.7976   19.9005 O   0  0  0  0  0  0  0  0  0  0  0  0
    7.1293  -11.6993   28.1804 C   0  0  0  0  0  0  0  0  0  0  0  0
    6.4715  -12.3559   26.6388 S   0  0  0  0  0  0  0  0  0  0  0  0
    7.7034  -13.3221   25.7238 C   0  0  0  0  0  0  0  0  0  0  0  0
    7.1373  -13.8208   24.4049 C   0  0  0  0  0  0  0  0  0  0  0  0
    8.1223  -14.6123   23.6203 C   0  0  2  0  0  0  0  0  0  0  0  0
    7.7128  -15.0416   22.3373 N   0  0  0  0  0  0  0  0  0  0  0  0
    8.5243  -15.7879   24.4313 C   0  0  0  0  0  0  0  0  0  0  0  0
    7.7294  -16.7710   24.5970 O   0  0  0  0  0  0  0  0  0  0  0  0
    9.8033  -15.8498   25.0438 N   0  0  0  0  0  0  0  0  0  0  0  0
   10.1913  -17.0640   25.8134 C   0  0  1  0  0  0  0  0  0  0  0  0
   11.6528  -17.3368   25.5712 C   0  0  0  0  0  0  0  0  0  0  0  0
   12.0344  -17.6036   24.1937 C   0  0  0  0  0  0  0  0  0  0  0  0
   11.3667  -18.3620   23.4636 O   0  0  0  0  0  0  0  0  0  0  0  0
   10.0244  -16.6789   27.2471 C   0  0  0  0  0  0  0  0  0  0  0  0
    9.6550  -15.4002   27.6509 O   0  0  0  0  0  0  0  0  0  0  0  0
   13.1949  -16.9651   23.7205 O   0  0  0  0  0  0  0  0  0  0  0  0
   10.2171  -17.5158   28.1387 O   0  0  0  0  0  0  0  0  0  0  0  0
  2  3  1  0
  2  1  1  6
  4  3  1  0
  5  6  2  0
  5  4  1  0
  7  8  2  0
  7  2  1  0
  9  5  1  0
 10 11  1  0
 11 12  1  0
 14 13  1  1
 13 12  1  0
 14 15  1  0
 15  7  1  0
 16 14  1  0
 17 16  2  0
 18 16  1  0
 19 20  1  1
 19 18  1  0
 21 25  1  0
 21 20  1  0
 22 21  2  0
 23 19  1  0
 24 23  1  0
 26 23  2  0
M  END
$$$$
