EMD.pdb
     RDKit          3D

 26 25  0  0  1  0  0  0  0  0999 V2000
   10.4295  -16.1332   19.6269 N   0  0  0  0  0  0  0  0  0  0  0  0
    9.2336  -16.3687   20.4144 C   0  0  1  0  0  0  0  0  0  0  0  0
    8.9162  -17.8237   20.5130 C   0  0  0  0  0  0  0  0  0  0  0  0
    9.5062  -18.6788   19.4516 C   0  0  0  0  0  0  0  0  0  0  0  0
    8.7740  -18.6446   18.1749 C   0  0  0  0  0  0  0  0  0  0  0  0
    7.5547  -18.4336   18.1610 O   0  0  0  0  0  0  0  0  0  0  0  0
    9.4483  -15.7882   21.7648 C   0  0  0  0  0  0  0  0  0  0  0  0
   10.5971  -15.6819   22.2072 O   0  0  0  0  0  0  0  0  0  0  0  0
    9.4219  -18.8466   16.9535 O   0  0  0  0  0  0  0  0  0  0  0  0
    6.6020  -11.6195   27.9379 C   0  0  0  0  0  0  0  0  0  0  0  0
    6.2960  -12.3323   26.3136 S   0  0  0  0  0  0  0  0  0  0  0  0
    7.6039  -13.4841   25.8125 C   0  0  0  0  0  0  0  0  0  0  0  0
    7.4085  -13.9422   24.3770 C   0  0  0  0  0  0  0  0  0  0  0  0
    8.5082  -14.8235   23.9011 C   0  0  2  0  0  0  0  0  0  0  0  0
    8.3851  -15.3398   22.5911 N   0  0  0  0  0  0  0  0  0  0  0  0
    8.6549  -15.9432   24.8634 C   0  0  0  0  0  0  0  0  0  0  0  0
    7.7617  -16.8487   24.9544 O   0  0  0  0  0  0  0  0  0  0  0  0
    9.7922  -16.0366   25.7075 N   0  0  0  0  0  0  0  0  0  0  0  0
   10.1399  -17.3439   26.3296 C   0  0  1  0  0  0  0  0  0  0  0  0
   11.4588  -17.8054   25.7669 C   0  0  0  0  0  0  0  0  0  0  0  0
   12.0594  -18.9628   26.4104 C   0  0  0  0  0  0  0  0  0  0  0  0
   11.3665  -19.9000   26.8528 O   0  0  0  0  0  0  0  0  0  0  0  0
   10.3370  -17.0388   27.7787 C   0  0  0  0  0  0  0  0  0  0  0  0
   10.5354  -18.0234   28.7408 O   0  0  0  0  0  0  0  0  0  0  0  0
   13.4622  -18.9772   26.5117 O   0  0  0  0  0  0  0  0  0  0  0  0
   10.3283  -15.8644   28.1702 O   0  0  0  0  0  0  0  0  0  0  0  0
  2  3  1  0
  2  1  1  6
  4  3  1  0
  5  6  2  0
  5  4  1  0
  7  8  2  0
  7  2  1  0
  9  5  1  0
 10 11  1  0
 11 12  1  0
 14 13  1  1
 13 12  1  0
 14 15  1  0
 15  7  1  0
 16 14  1  0
 17 16  2  0
 18 16  1  0
 19 20  1  6
 19 18  1  0
 21 25  1  0
 21 20  1  0
 22 21  2  0
 23 19  1  0
 24 23  1  0
 26 23  2  0
M  END
$$$$
