EMD.pdb
     RDKit          3D

 26 25  0  0  1  0  0  0  0  0999 V2000
    8.9343  -15.3256   18.8211 N   0  0  0  0  0  0  0  0  0  0  0  0
    7.8064  -15.3866   19.7322 C   0  0  1  0  0  0  0  0  0  0  0  0
    7.0982  -16.6975   19.6458 C   0  0  0  0  0  0  0  0  0  0  0  0
    7.7621  -17.8285   20.3429 C   0  0  0  0  0  0  0  0  0  0  0  0
    6.9414  -19.0475   20.4290 C   0  0  0  0  0  0  0  0  0  0  0  0
    7.3123  -20.0010   21.1253 O   0  0  0  0  0  0  0  0  0  0  0  0
    8.3127  -15.1562   21.1097 C   0  0  0  0  0  0  0  0  0  0  0  0
    9.5044  -15.3613   21.3635 O   0  0  0  0  0  0  0  0  0  0  0  0
    5.7333  -19.1674   19.7372 O   0  0  0  0  0  0  0  0  0  0  0  0
    6.9789  -11.7902   28.2480 C   0  0  0  0  0  0  0  0  0  0  0  0
    6.3087  -12.3127   26.6612 S   0  0  0  0  0  0  0  0  0  0  0  0
    7.5291  -13.2079   25.6624 C   0  0  0  0  0  0  0  0  0  0  0  0
    6.9505  -13.5984   24.3128 C   0  0  0  0  0  0  0  0  0  0  0  0
    7.9159  -14.3552   23.4717 C   0  0  2  0  0  0  0  0  0  0  0  0
    7.4862  -14.7043   22.1712 N   0  0  0  0  0  0  0  0  0  0  0  0
    8.3120  -15.5806   24.2084 C   0  0  0  0  0  0  0  0  0  0  0  0
    7.5931  -16.6327   24.1621 O   0  0  0  0  0  0  0  0  0  0  0  0
    9.5005  -15.6149   24.9837 N   0  0  0  0  0  0  0  0  0  0  0  0
   10.0298  -16.9227   25.4595 C   0  0  1  0  0  0  0  0  0  0  0  0
   11.4017  -17.1257   24.8715 C   0  0  0  0  0  0  0  0  0  0  0  0
   12.1358  -18.2877   25.3458 C   0  0  0  0  0  0  0  0  0  0  0  0
   11.5822  -19.3937   25.5029 O   0  0  0  0  0  0  0  0  0  0  0  0
   10.1796  -16.7611   26.9371 C   0  0  0  0  0  0  0  0  0  0  0  0
   10.5298  -17.8083   27.7828 O   0  0  0  0  0  0  0  0  0  0  0  0
   13.5034  -18.1071   25.6203 O   0  0  0  0  0  0  0  0  0  0  0  0
    9.9896  -15.6556   27.4608 O   0  0  0  0  0  0  0  0  0  0  0  0
  2  3  1  0
  2  1  1  6
  4  3  1  0
  5  6  2  0
  5  4  1  0
  7  8  2  0
  7  2  1  0
  9  5  1  0
 10 11  1  0
 11 12  1  0
 14 13  1  1
 13 12  1  0
 14 15  1  0
 15  7  1  0
 16 14  1  0
 17 16  2  0
 18 16  1  0
 19 20  1  6
 19 18  1  0
 21 25  1  0
 21 20  1  0
 22 21  2  0
 23 19  1  0
 24 23  1  0
 26 23  2  0
M  END
$$$$
