EMD.pdb
     RDKit          3D

 26 25  0  0  1  0  0  0  0  0999 V2000
    6.8312  -17.5403   20.5436 N   0  0  0  0  0  0  0  0  0  0  0  0
    8.2773  -17.4560   20.4581 C   0  0  1  0  0  0  0  0  0  0  0  0
    8.7201  -16.8842   19.1526 C   0  0  0  0  0  0  0  0  0  0  0  0
    9.8400  -17.5998   18.4896 C   0  0  0  0  0  0  0  0  0  0  0  0
   10.2880  -16.9816   17.2309 C   0  0  0  0  0  0  0  0  0  0  0  0
   11.4836  -16.7119   17.0597 O   0  0  0  0  0  0  0  0  0  0  0  0
    8.7583  -16.6171   21.5858 C   0  0  0  0  0  0  0  0  0  0  0  0
    9.9675  -16.3947   21.7079 O   0  0  0  0  0  0  0  0  0  0  0  0
    9.3912  -16.6829   16.2019 O   0  0  0  0  0  0  0  0  0  0  0  0
    7.3074  -11.5146   27.4130 C   0  0  0  0  0  0  0  0  0  0  0  0
    6.6705  -12.5128   26.0572 S   0  0  0  0  0  0  0  0  0  0  0  0
    7.7181  -13.9527   25.7146 C   0  0  0  0  0  0  0  0  0  0  0  0
    7.1914  -14.7421   24.5280 C   0  0  0  0  0  0  0  0  0  0  0  0
    8.2773  -15.3697   23.7285 C   0  0  2  0  0  0  0  0  0  0  0  0
    7.8875  -16.0457   22.5500 N   0  0  0  0  0  0  0  0  0  0  0  0
    9.0237  -16.3008   24.6100 C   0  0  0  0  0  0  0  0  0  0  0  0
    8.5277  -17.4282   24.9401 O   0  0  0  0  0  0  0  0  0  0  0  0
   10.3087  -15.9623   25.1091 N   0  0  0  0  0  0  0  0  0  0  0  0
   11.0706  -16.9580   25.9121 C   0  0  1  0  0  0  0  0  0  0  0  0
   12.5403  -16.7638   25.6449 C   0  0  0  0  0  0  0  0  0  0  0  0
   13.0000  -17.1135   24.3105 C   0  0  0  0  0  0  0  0  0  0  0  0
   12.5605  -18.1115   23.7063 O   0  0  0  0  0  0  0  0  0  0  0  0
   10.8065  -16.5864   27.3348 C   0  0  0  0  0  0  0  0  0  0  0  0
   10.0726  -15.4632   27.7014 O   0  0  0  0  0  0  0  0  0  0  0  0
   13.9660  -16.2720   23.7300 O   0  0  0  0  0  0  0  0  0  0  0  0
   11.2487  -17.2921   28.2507 O   0  0  0  0  0  0  0  0  0  0  0  0
  2  3  1  0
  2  1  1  6
  4  3  1  0
  5  6  2  0
  5  4  1  0
  7  8  2  0
  7  2  1  0
  9  5  1  0
 10 11  1  0
 11 12  1  0
 14 13  1  1
 13 12  1  0
 14 15  1  0
 15  7  1  0
 16 14  1  0
 17 16  2  0
 18 16  1  0
 19 20  1  6
 19 18  1  0
 21 25  1  0
 21 20  1  0
 22 21  2  0
 23 19  1  0
 24 23  1  0
 26 23  2  0
M  END
$$$$
