EMD.pdb
     RDKit          3D

 26 25  0  0  1  0  0  0  0  0999 V2000
    8.3426  -14.9770   19.5187 N   0  0  0  0  0  0  0  0  0  0  0  0
    7.9637  -15.3483   20.8694 C   0  0  1  0  0  0  0  0  0  0  0  0
    7.4171  -16.7359   20.9269 C   0  0  0  0  0  0  0  0  0  0  0  0
    7.3658  -17.4557   19.6288 C   0  0  0  0  0  0  0  0  0  0  0  0
    6.8018  -18.8127   19.7149 C   0  0  0  0  0  0  0  0  0  0  0  0
    5.5762  -18.9763   19.7675 O   0  0  0  0  0  0  0  0  0  0  0  0
    9.1635  -15.2231   21.7364 C   0  0  0  0  0  0  0  0  0  0  0  0
   10.0756  -16.0508   21.6383 O   0  0  0  0  0  0  0  0  0  0  0  0
    7.6195  -19.9455   19.7399 O   0  0  0  0  0  0  0  0  0  0  0  0
    6.5327  -11.7798   27.3996 C   0  0  0  0  0  0  0  0  0  0  0  0
    7.4142  -12.4583   25.9845 S   0  0  0  0  0  0  0  0  0  0  0  0
    6.4356  -13.7014   25.0984 C   0  0  0  0  0  0  0  0  0  0  0  0
    7.1235  -14.1226   23.8107 C   0  0  0  0  0  0  0  0  0  0  0  0
    8.6061  -14.0468   23.9006 C   0  0  2  0  0  0  0  0  0  0  0  0
    9.3227  -14.1841   22.6900 N   0  0  0  0  0  0  0  0  0  0  0  0
    9.0654  -15.0741   24.8676 C   0  0  0  0  0  0  0  0  0  0  0  0
    8.7021  -15.0315   26.0891 O   0  0  0  0  0  0  0  0  0  0  0  0
    9.9206  -16.1309   24.4594 N   0  0  0  0  0  0  0  0  0  0  0  0
   10.3889  -17.1262   25.4630 C   0  0  1  0  0  0  0  0  0  0  0  0
   11.8803  -17.2834   25.3204 C   0  0  0  0  0  0  0  0  0  0  0  0
   12.3759  -17.4893   23.9690 C   0  0  0  0  0  0  0  0  0  0  0  0
   11.8589  -18.3244   23.2013 O   0  0  0  0  0  0  0  0  0  0  0  0
   10.1155  -16.4926   26.7880 C   0  0  0  0  0  0  0  0  0  0  0  0
   10.0866  -17.2092   27.9797 O   0  0  0  0  0  0  0  0  0  0  0  0
   13.4687  -16.7009   23.5657 O   0  0  0  0  0  0  0  0  0  0  0  0
    9.9015  -15.2754   26.8591 O   0  0  0  0  0  0  0  0  0  0  0  0
  2  3  1  0
  2  1  1  6
  4  3  1  0
  5  6  2  0
  5  4  1  0
  7  8  2  0
  7  2  1  0
  9  5  1  0
 10 11  1  0
 11 12  1  0
 14 13  1  6
 13 12  1  0
 14 15  1  0
 15  7  1  0
 16 14  1  0
 17 16  2  0
 18 16  1  0
 19 20  1  6
 19 18  1  0
 21 25  1  0
 21 20  1  0
 22 21  2  0
 23 19  1  0
 24 23  1  0
 26 23  2  0
M  END
$$$$
