EMD.pdb
     RDKit          3D

 26 25  0  0  1  0  0  0  0  0999 V2000
    6.8610  -15.5305   20.6516 N   0  0  0  0  0  0  0  0  0  0  0  0
    8.2461  -15.1214   20.5104 C   0  0  1  0  0  0  0  0  0  0  0  0
    8.3706  -13.8592   19.7238 C   0  0  0  0  0  0  0  0  0  0  0  0
    7.3793  -13.6880   18.6311 C   0  0  0  0  0  0  0  0  0  0  0  0
    7.9401  -13.8471   17.2793 C   0  0  0  0  0  0  0  0  0  0  0  0
    8.1329  -12.8560   16.5637 O   0  0  0  0  0  0  0  0  0  0  0  0
    8.8170  -14.9475   21.8708 C   0  0  0  0  0  0  0  0  0  0  0  0
    9.9748  -14.5352   21.9980 O   0  0  0  0  0  0  0  0  0  0  0  0
    8.2687  -15.1045   16.7661 O   0  0  0  0  0  0  0  0  0  0  0  0
    6.4246  -10.6182   26.7038 C   0  0  0  0  0  0  0  0  0  0  0  0
    6.4335  -12.4167   26.6266 S   0  0  0  0  0  0  0  0  0  0  0  0
    7.5995  -13.0442   25.3877 C   0  0  0  0  0  0  0  0  0  0  0  0
    7.6316  -14.5633   25.3872 C   0  0  0  0  0  0  0  0  0  0  0  0
    8.5745  -15.1171   24.3789 C   0  0  2  0  0  0  0  0  0  0  0  0
    8.0910  -15.2348   23.0560 N   0  0  0  0  0  0  0  0  0  0  0  0
    9.0387  -16.4428   24.8567 C   0  0  0  0  0  0  0  0  0  0  0  0
    8.2921  -17.4718   24.7579 O   0  0  0  0  0  0  0  0  0  0  0  0
   10.3248  -16.6013   25.4358 N   0  0  0  0  0  0  0  0  0  0  0  0
   10.7468  -17.9400   25.9328 C   0  0  1  0  0  0  0  0  0  0  0  0
   12.2293  -18.0871   25.7100 C   0  0  0  0  0  0  0  0  0  0  0  0
   12.6774  -18.0325   24.3278 C   0  0  0  0  0  0  0  0  0  0  0  0
   12.9655  -16.9533   23.7742 O   0  0  0  0  0  0  0  0  0  0  0  0
   10.5030  -17.8965   27.4061 C   0  0  0  0  0  0  0  0  0  0  0  0
   10.6210  -19.0126   28.2275 O   0  0  0  0  0  0  0  0  0  0  0  0
   12.7713  -19.2564   23.6411 O   0  0  0  0  0  0  0  0  0  0  0  0
   10.1797  -16.8316   27.9483 O   0  0  0  0  0  0  0  0  0  0  0  0
  2  3  1  0
  2  1  1  1
  4  3  1  0
  5  6  2  0
  5  4  1  0
  7  8  2  0
  7  2  1  0
  9  5  1  0
 10 11  1  0
 11 12  1  0
 14 13  1  1
 13 12  1  0
 14 15  1  0
 15  7  1  0
 16 14  1  0
 17 16  2  0
 18 16  1  0
 19 20  1  1
 19 18  1  0
 21 25  1  0
 21 20  1  0
 22 21  2  0
 23 19  1  0
 24 23  1  0
 26 23  2  0
M  END
$$$$
