EMD.pdb
     RDKit          3D

 26 25  0  0  1  0  0  0  0  0999 V2000
    7.1987  -15.8394   20.6978 N   0  0  0  0  0  0  0  0  0  0  0  0
    8.5708  -15.3922   20.8502 C   0  0  1  0  0  0  0  0  0  0  0  0
    8.8293  -14.1361   20.0866 C   0  0  0  0  0  0  0  0  0  0  0  0
    7.7577  -13.7327   19.1405 C   0  0  0  0  0  0  0  0  0  0  0  0
    8.0793  -13.9808   17.7256 C   0  0  0  0  0  0  0  0  0  0  0  0
    7.5927  -14.9546   17.1371 O   0  0  0  0  0  0  0  0  0  0  0  0
    8.8310  -15.1861   22.2982 C   0  0  0  0  0  0  0  0  0  0  0  0
    9.9128  -14.7129   22.6620 O   0  0  0  0  0  0  0  0  0  0  0  0
    8.9328  -13.1372   17.0098 O   0  0  0  0  0  0  0  0  0  0  0  0
    6.8636  -10.6352   26.1207 C   0  0  0  0  0  0  0  0  0  0  0  0
    7.3566  -12.3502   26.3575 S   0  0  0  0  0  0  0  0  0  0  0  0
    6.5068  -13.4722   25.2142 C   0  0  0  0  0  0  0  0  0  0  0  0
    6.8855  -14.9186   25.4852 C   0  0  0  0  0  0  0  0  0  0  0  0
    8.0696  -15.3586   24.7000 C   0  0  2  0  0  0  0  0  0  0  0  0
    7.8861  -15.5095   23.3067 N   0  0  0  0  0  0  0  0  0  0  0  0
    8.5603  -16.6347   25.2763 C   0  0  0  0  0  0  0  0  0  0  0  0
    7.7460  -17.4963   25.7460 O   0  0  0  0  0  0  0  0  0  0  0  0
    9.9479  -16.9307   25.3201 N   0  0  0  0  0  0  0  0  0  0  0  0
   10.4041  -18.2316   25.8825 C   0  0  1  0  0  0  0  0  0  0  0  0
   11.8167  -18.4821   25.4229 C   0  0  0  0  0  0  0  0  0  0  0  0
   12.4567  -19.6789   25.9446 C   0  0  0  0  0  0  0  0  0  0  0  0
   13.3599  -19.6187   26.8019 O   0  0  0  0  0  0  0  0  0  0  0  0
   10.4296  -18.0222   27.3615 C   0  0  0  0  0  0  0  0  0  0  0  0
   10.1957  -19.0436   28.2761 O   0  0  0  0  0  0  0  0  0  0  0  0
   12.0093  -20.9119   25.4367 O   0  0  0  0  0  0  0  0  0  0  0  0
   10.6672  -16.8984   27.8230 O   0  0  0  0  0  0  0  0  0  0  0  0
  2  3  1  0
  2  1  1  1
  4  3  1  0
  5  6  2  0
  5  4  1  0
  7  8  2  0
  7  2  1  0
  9  5  1  0
 10 11  1  0
 11 12  1  0
 14 13  1  1
 13 12  1  0
 14 15  1  0
 15  7  1  0
 16 14  1  0
 17 16  2  0
 18 16  1  0
 19 20  1  6
 19 18  1  0
 21 25  1  0
 21 20  1  0
 22 21  2  0
 23 19  1  0
 24 23  1  0
 26 23  2  0
M  END
$$$$
