PKF.pdb
     RDKit          3D

 28 29  0  0  1  0  0  0  0  0999 V2000
   28.8643  -17.8127  -16.4202 N   0  0  0  0  0  0  0  0  0  0  0  0
   29.7576  -17.1177  -17.3300 C   0  0  0  0  0  0  0  0  0  0  0  0
   29.8117  -18.1076  -18.4906 C   0  0  0  0  0  0  0  0  0  0  0  0
   28.3781  -18.6396  -18.5219 C   0  0  0  0  0  0  0  0  0  0  0  0
   27.7613  -18.1586  -17.2661 C   0  0  1  0  0  0  0  0  0  0  0  0
   26.8257  -19.1152  -16.6346 C   0  0  0  0  0  0  0  0  0  0  0  0
   25.6919  -18.6744  -16.3487 O   0  0  0  0  0  0  0  0  0  0  0  0
   27.1809  -20.4502  -16.3654 N   0  0  0  0  0  0  0  0  0  0  0  0
   26.4261  -21.4386  -15.6749 C   0  0  1  0  0  0  0  0  0  0  0  0
   26.4912  -22.8382  -16.3071 C   0  0  0  0  0  0  0  0  0  0  0  0
   25.5333  -23.7810  -15.6309 C   0  0  0  0  0  0  0  0  0  0  0  0
   25.7123  -25.1526  -16.2747 C   0  0  0  0  0  0  0  0  0  0  0  0
   24.3672  -25.7802  -16.5792 C   0  0  0  0  0  0  0  0  0  0  0  0
   24.5815  -27.0327  -17.2789 N   0  0  0  0  0  0  0  0  0  0  0  0
   26.5321  -21.4389  -14.2262 C   0  0  0  0  0  0  0  0  0  0  0  0
   27.6840  -21.6986  -13.7231 O   0  0  0  0  0  0  0  0  0  0  0  0
   25.4758  -21.1772  -13.3160 N   0  0  0  0  0  0  0  0  0  0  0  0
   25.6973  -21.1490  -11.8814 C   0  0  1  0  0  0  0  0  0  0  0  0
   26.7754  -20.1716  -11.5550 C   0  0  0  0  0  0  0  0  0  0  0  0
   26.9789  -19.9672  -10.1185 C   0  0  0  0  0  0  0  0  0  0  0  0
   27.8478  -20.7806   -9.4240 C   0  0  0  0  0  0  0  0  0  0  0  0
   28.0316  -20.5767   -8.0723 C   0  0  0  0  0  0  0  0  0  0  0  0
   27.3841  -19.5912   -7.3733 C   0  0  0  0  0  0  0  0  0  0  0  0
   26.5187  -18.7813   -8.0650 C   0  0  0  0  0  0  0  0  0  0  0  0
   26.3109  -18.9636   -9.4392 C   0  0  0  0  0  0  0  0  0  0  0  0
   24.4252  -20.9289  -11.1513 C   0  0  0  0  0  0  0  0  0  0  0  0
   23.4432  -20.3291  -11.6488 O   0  0  0  0  0  0  0  0  0  0  0  0
   24.3041  -21.4048   -9.8557 O   0  0  0  0  0  0  0  0  0  0  0  0
  1  2  1  0
  3  2  1  0
  4  5  1  0
  4  3  1  0
  5  1  1  0
  6  8  1  0
  5  6  1  1
  7  6  2  0
  9 15  1  0
  9  8  1  0
  9 10  1  6
 11 10  1  0
 12 11  1  0
 13 12  1  0
 14 13  1  0
 15 17  1  0
 16 15  2  0
 17 18  1  0
 18 19  1  6
 18 26  1  0
 20 25  1  0
 20 19  1  0
 21 20  2  0
 22 21  1  0
 23 22  2  0
 23 24  1  0
 24 25  2  0
 26 27  2  0
 26 28  1  0
M  END
$$$$
