PKF.pdb
     RDKit          3D

 28 29  0  0  1  0  0  0  0  0999 V2000
   14.8084  -22.9308    0.9576 N   0  0  0  0  0  0  0  0  0  0  0  0
   14.6079  -23.6429   -0.2919 C   0  0  0  0  0  0  0  0  0  0  0  0
   13.9850  -22.5454   -1.1507 C   0  0  0  0  0  0  0  0  0  0  0  0
   14.7464  -21.3045   -0.6821 C   0  0  0  0  0  0  0  0  0  0  0  0
   15.4714  -21.7338    0.5340 C   0  0  1  0  0  0  0  0  0  0  0  0
   15.5495  -20.7083    1.5978 C   0  0  0  0  0  0  0  0  0  0  0  0
   16.1530  -19.6535    1.3071 O   0  0  0  0  0  0  0  0  0  0  0  0
   14.9797  -20.8983    2.8706 N   0  0  0  0  0  0  0  0  0  0  0  0
   14.9096  -19.9736    3.9493 C   0  0  1  0  0  0  0  0  0  0  0  0
   13.9420  -20.3845    5.0708 C   0  0  0  0  0  0  0  0  0  0  0  0
   12.5110  -20.2395    4.6291 C   0  0  0  0  0  0  0  0  0  0  0  0
   11.6273  -20.6414    5.8062 C   0  0  0  0  0  0  0  0  0  0  0  0
   10.1627  -20.4653    5.4601 C   0  0  0  0  0  0  0  0  0  0  0  0
    9.3614  -20.8236    6.6150 N   0  0  0  0  0  0  0  0  0  0  0  0
   16.1729  -19.4377    4.4255 C   0  0  0  0  0  0  0  0  0  0  0  0
   17.1866  -20.2247    4.4091 O   0  0  0  0  0  0  0  0  0  0  0  0
   16.3876  -18.1207    4.9073 N   0  0  0  0  0  0  0  0  0  0  0  0
   17.6858  -17.6913    5.3950 C   0  0  1  0  0  0  0  0  0  0  0  0
   18.5438  -17.2731    4.2490 C   0  0  0  0  0  0  0  0  0  0  0  0
   18.1178  -16.0249    3.6107 C   0  0  0  0  0  0  0  0  0  0  0  0
   18.5623  -14.8156    4.0994 C   0  0  0  0  0  0  0  0  0  0  0  0
   18.1552  -13.6479    3.4885 C   0  0  0  0  0  0  0  0  0  0  0  0
   17.3179  -13.6283    2.4032 C   0  0  0  0  0  0  0  0  0  0  0  0
   16.8753  -14.8328    1.9166 C   0  0  0  0  0  0  0  0  0  0  0  0
   17.2715  -16.0363    2.5159 C   0  0  0  0  0  0  0  0  0  0  0  0
   17.5422  -16.6703    6.4612 C   0  0  0  0  0  0  0  0  0  0  0  0
   16.4504  -16.1238    6.7455 O   0  0  0  0  0  0  0  0  0  0  0  0
   18.6620  -16.2940    7.1850 O   0  0  0  0  0  0  0  0  0  0  0  0
  1  2  1  0
  3  2  1  0
  4  5  1  0
  4  3  1  0
  5  1  1  0
  6  8  1  0
  5  6  1  1
  7  6  2  0
  9 15  1  0
  9  8  1  0
  9 10  1  1
 11 10  1  0
 12 11  1  0
 13 12  1  0
 14 13  1  0
 15 17  1  0
 16 15  2  0
 17 18  1  0
 18 19  1  6
 18 26  1  0
 20 25  1  0
 20 19  1  0
 21 20  2  0
 22 21  1  0
 23 22  2  0
 23 24  1  0
 24 25  2  0
 26 27  2  0
 26 28  1  0
M  END
$$$$
