PKF.pdb
     RDKit          3D

 28 29  0  0  1  0  0  0  0  0999 V2000
   27.3137  -22.2771  -17.4052 N   0  0  0  0  0  0  0  0  0  0  0  0
   28.5879  -22.6690  -17.9808 C   0  0  0  0  0  0  0  0  0  0  0  0
   29.3789  -21.3714  -17.8363 C   0  0  0  0  0  0  0  0  0  0  0  0
   28.8761  -20.8405  -16.4930 C   0  0  0  0  0  0  0  0  0  0  0  0
   27.7010  -21.6769  -16.1637 C   0  0  1  0  0  0  0  0  0  0  0  0
   26.5947  -20.9503  -15.5023 C   0  0  0  0  0  0  0  0  0  0  0  0
   26.8253  -20.5171  -14.3532 O   0  0  0  0  0  0  0  0  0  0  0  0
   25.3470  -20.7515  -16.1225 N   0  0  0  0  0  0  0  0  0  0  0  0
   24.2680  -19.9343  -15.6848 C   0  0  1  0  0  0  0  0  0  0  0  0
   23.3782  -19.4027  -16.8199 C   0  0  0  0  0  0  0  0  0  0  0  0
   22.3003  -18.5005  -16.2833 C   0  0  0  0  0  0  0  0  0  0  0  0
   21.4487  -18.0529  -17.4675 C   0  0  0  0  0  0  0  0  0  0  0  0
   20.3509  -17.1130  -17.0119 C   0  0  0  0  0  0  0  0  0  0  0  0
   19.4597  -16.8570  -18.1274 N   0  0  0  0  0  0  0  0  0  0  0  0
   23.5295  -20.4039  -14.5254 C   0  0  0  0  0  0  0  0  0  0  0  0
   23.0314  -21.5850  -14.5870 O   0  0  0  0  0  0  0  0  0  0  0  0
   23.3094  -19.6735  -13.3292 N   0  0  0  0  0  0  0  0  0  0  0  0
   22.6227  -20.2625  -12.1938 C   0  0  1  0  0  0  0  0  0  0  0  0
   23.0127  -19.5515  -10.9421 C   0  0  0  0  0  0  0  0  0  0  0  0
   22.4265  -20.1214   -9.7262 C   0  0  0  0  0  0  0  0  0  0  0  0
   23.1561  -21.0028   -8.9583 C   0  0  0  0  0  0  0  0  0  0  0  0
   22.5933  -21.5309   -7.8152 C   0  0  0  0  0  0  0  0  0  0  0  0
   21.3255  -21.2193   -7.3972 C   0  0  0  0  0  0  0  0  0  0  0  0
   20.5989  -20.3416   -8.1621 C   0  0  0  0  0  0  0  0  0  0  0  0
   21.1435  -19.7881   -9.3291 C   0  0  0  0  0  0  0  0  0  0  0  0
   21.1606  -20.3300  -12.4333 C   0  0  0  0  0  0  0  0  0  0  0  0
   20.5141  -19.4145  -12.9949 O   0  0  0  0  0  0  0  0  0  0  0  0
   20.4643  -21.4546  -12.0207 O   0  0  0  0  0  0  0  0  0  0  0  0
  1  2  1  0
  3  2  1  0
  4  5  1  0
  4  3  1  0
  5  1  1  0
  6  8  1  0
  5  6  1  6
  7  6  2  0
  9 15  1  0
  9  8  1  0
  9 10  1  6
 11 10  1  0
 12 11  1  0
 13 12  1  0
 14 13  1  0
 15 17  1  0
 16 15  2  0
 17 18  1  0
 18 19  1  1
 18 26  1  0
 20 25  1  0
 20 19  1  0
 21 20  2  0
 22 21  1  0
 23 22  2  0
 23 24  1  0
 24 25  2  0
 26 27  2  0
 26 28  1  0
M  END
$$$$
