PKF.pdb
     RDKit          3D

 28 29  0  0  1  0  0  0  0  0999 V2000
   27.2952  -21.6303  -15.9294 N   0  0  0  0  0  0  0  0  0  0  0  0
   27.8941  -21.4422  -17.2387 C   0  0  0  0  0  0  0  0  0  0  0  0
   28.0010  -19.9203  -17.2892 C   0  0  0  0  0  0  0  0  0  0  0  0
   28.3525  -19.5781  -15.8405 C   0  0  0  0  0  0  0  0  0  0  0  0
   28.1300  -20.8300  -15.0842 C   0  0  1  0  0  0  0  0  0  0  0  0
   27.5670  -20.6382  -13.7293 C   0  0  0  0  0  0  0  0  0  0  0  0
   28.2535  -19.9603  -12.9351 O   0  0  0  0  0  0  0  0  0  0  0  0
   26.3282  -21.1839  -13.3440 N   0  0  0  0  0  0  0  0  0  0  0  0
   25.4431  -20.7253  -12.3293 C   0  0  1  0  0  0  0  0  0  0  0  0
   23.9582  -21.0013  -12.6153 C   0  0  0  0  0  0  0  0  0  0  0  0
   23.0884  -20.4792  -11.5040 C   0  0  0  0  0  0  0  0  0  0  0  0
   21.6415  -20.7966  -11.8698 C   0  0  0  0  0  0  0  0  0  0  0  0
   20.6980  -20.3141  -10.7868 C   0  0  0  0  0  0  0  0  0  0  0  0
   19.3456  -20.7082  -11.1332 N   0  0  0  0  0  0  0  0  0  0  0  0
   25.8396  -20.9889  -10.9570 C   0  0  0  0  0  0  0  0  0  0  0  0
   25.8434  -22.2136  -10.5732 O   0  0  0  0  0  0  0  0  0  0  0  0
   26.2242  -20.0132  -10.0015 N   0  0  0  0  0  0  0  0  0  0  0  0
   26.6140  -20.3819   -8.6525 C   0  0  1  0  0  0  0  0  0  0  0  0
   27.7332  -19.5097   -8.1931 C   0  0  0  0  0  0  0  0  0  0  0  0
   28.1312  -19.7354   -6.8012 C   0  0  0  0  0  0  0  0  0  0  0  0
   27.7395  -18.8494   -5.8211 C   0  0  0  0  0  0  0  0  0  0  0  0
   28.1195  -19.0742   -4.5145 C   0  0  0  0  0  0  0  0  0  0  0  0
   28.8788  -20.1505   -4.1346 C   0  0  0  0  0  0  0  0  0  0  0  0
   29.2689  -21.0327   -5.1107 C   0  0  0  0  0  0  0  0  0  0  0  0
   28.8984  -20.8314   -6.4475 C   0  0  0  0  0  0  0  0  0  0  0  0
   25.4396  -20.4044   -7.7470 C   0  0  0  0  0  0  0  0  0  0  0  0
   24.4285  -19.6828   -7.9163 O   0  0  0  0  0  0  0  0  0  0  0  0
   25.4486  -21.2603   -6.6576 O   0  0  0  0  0  0  0  0  0  0  0  0
  1  2  1  0
  3  2  1  0
  4  5  1  0
  4  3  1  0
  5  1  1  0
  6  8  1  0
  5  6  1  1
  7  6  2  0
  9 15  1  0
  9  8  1  0
  9 10  1  6
 11 10  1  0
 12 11  1  0
 13 12  1  0
 14 13  1  0
 15 17  1  0
 16 15  2  0
 17 18  1  0
 18 19  1  1
 18 26  1  0
 20 25  1  0
 20 19  1  0
 21 20  2  0
 22 21  1  0
 23 22  2  0
 23 24  1  0
 24 25  2  0
 26 27  2  0
 26 28  1  0
M  END
$$$$
