EFY.pdb
     RDKit          3D

 33 34  0  0  1  0  0  0  0  0999 V2000
   28.2806  -22.1960  -18.2542 N   0  0  0  0  0  0  0  0  0  0  0  0
   27.7269  -20.9839  -17.7099 C   0  0  1  0  0  0  0  0  0  0  0  0
   26.7116  -20.3537  -18.6428 C   0  0  0  0  0  0  0  0  0  0  0  0
   27.3620  -19.7604  -19.8607 C   0  0  0  0  0  0  0  0  0  0  0  0
   27.8675  -18.4102  -19.5212 C   0  0  0  0  0  0  0  0  0  0  0  0
   28.9748  -18.0257  -19.9593 O   0  0  0  0  0  0  0  0  0  0  0  0
   26.9657  -21.3693  -16.4639 C   0  0  0  0  0  0  0  0  0  0  0  0
   26.4014  -22.4797  -16.3656 O   0  0  0  0  0  0  0  0  0  0  0  0
   27.1291  -17.5636  -18.7225 O   0  0  0  0  0  0  0  0  0  0  0  0
   26.9342  -20.4144  -15.4405 N   0  0  0  0  0  0  0  0  0  0  0  0
   26.2367  -20.7619  -14.1579 C   0  0  1  0  0  0  0  0  0  0  0  0
   27.1336  -20.4561  -13.0286 C   0  0  0  0  0  0  0  0  0  0  0  0
   26.5245  -20.6077  -11.7193 C   0  0  0  0  0  0  0  0  0  0  0  0
   25.6938  -19.6223  -11.1708 C   0  0  0  0  0  0  0  0  0  0  0  0
   25.0811  -19.8112   -9.9546 C   0  0  0  0  0  0  0  0  0  0  0  0
   25.2418  -20.9589   -9.2124 C   0  0  0  0  0  0  0  0  0  0  0  0
   26.0573  -21.9315   -9.7458 C   0  0  0  0  0  0  0  0  0  0  0  0
   26.6784  -21.7538  -10.9661 C   0  0  0  0  0  0  0  0  0  0  0  0
   24.9027  -20.1851  -14.2188 C   0  0  0  0  0  0  0  0  0  0  0  0
   24.7018  -19.1094  -14.9052 O   0  0  0  0  0  0  0  0  0  0  0  0
   17.0304  -18.1684  -16.6109 O   0  0  0  0  0  0  0  0  0  0  0  0
   18.2920  -18.6531  -16.3064 C   0  0  0  0  0  0  0  0  0  0  0  0
   18.4648  -19.9615  -15.9156 C   0  0  0  0  0  0  0  0  0  0  0  0
   19.7324  -20.4445  -15.6108 C   0  0  0  0  0  0  0  0  0  0  0  0
   20.8527  -19.6543  -15.6834 C   0  0  0  0  0  0  0  0  0  0  0  0
   22.2287  -20.0672  -15.3767 C   0  0  0  0  0  0  0  0  0  0  0  0
   22.4147  -20.2319  -13.9048 C   0  0  2  0  0  0  0  0  0  0  0  0
   23.7684  -20.6984  -13.5950 N   0  0  0  0  0  0  0  0  0  0  0  0
   21.4460  -21.1658  -13.3702 C   0  0  0  0  0  0  0  0  0  0  0  0
   20.5133  -20.7930  -12.6380 O   0  0  0  0  0  0  0  0  0  0  0  0
   20.6366  -18.3330  -16.0838 C   0  0  0  0  0  0  0  0  0  0  0  0
   19.4001  -17.8392  -16.3875 C   0  0  0  0  0  0  0  0  0  0  0  0
   21.5144  -22.5163  -13.6548 O   0  0  0  0  0  0  0  0  0  0  0  0
  2  1  1  6
  2  3  1  0
  3  4  1  0
  4  5  1  0
  5  6  2  0
  5  9  1  0
  7  2  1  0
  7  8  2  0
 10  7  1  0
 11 10  1  0
 11 12  1  1
 12 13  1  0
 13 18  1  0
 13 14  2  0
 14 15  1  0
 15 16  2  0
 17 16  1  0
 18 17  2  0
 19 11  1  0
 20 19  2  0
 22 32  2  0
 22 21  1  0
 23 22  1  0
 24 25  1  0
 24 23  2  0
 25 31  2  0
 26 25  1  0
 27 26  1  6
 27 28  1  0
 28 19  1  0
 29 33  1  0
 29 27  1  0
 30 29  2  0
 31 32  1  0
M  END
$$$$
