EFY.pdb
     RDKit          3D

 33 34  0  0  1  0  0  0  0  0999 V2000
   27.8429  -21.7714  -17.9102 N   0  0  0  0  0  0  0  0  0  0  0  0
   26.6986  -20.9551  -17.5997 C   0  0  1  0  0  0  0  0  0  0  0  0
   25.5956  -21.1076  -18.6286 C   0  0  0  0  0  0  0  0  0  0  0  0
   25.8191  -20.2259  -19.8247 C   0  0  0  0  0  0  0  0  0  0  0  0
   27.1109  -20.5903  -20.4509 C   0  0  0  0  0  0  0  0  0  0  0  0
   28.0579  -19.7723  -20.4587 O   0  0  0  0  0  0  0  0  0  0  0  0
   26.1304  -21.4714  -16.2993 C   0  0  0  0  0  0  0  0  0  0  0  0
   25.7696  -22.6612  -16.1757 O   0  0  0  0  0  0  0  0  0  0  0  0
   27.2866  -21.8286  -21.0303 O   0  0  0  0  0  0  0  0  0  0  0  0
   26.0358  -20.5427  -15.2559 N   0  0  0  0  0  0  0  0  0  0  0  0
   25.5797  -21.0226  -13.9090 C   0  0  1  0  0  0  0  0  0  0  0  0
   26.3480  -20.3188  -12.8661 C   0  0  0  0  0  0  0  0  0  0  0  0
   25.9448  -20.6337  -11.5072 C   0  0  0  0  0  0  0  0  0  0  0  0
   26.6156  -21.5945  -10.7399 C   0  0  0  0  0  0  0  0  0  0  0  0
   26.2535  -21.8360   -9.4357 C   0  0  0  0  0  0  0  0  0  0  0  0
   25.2283  -21.1618   -8.8126 C   0  0  0  0  0  0  0  0  0  0  0  0
   24.5646  -20.2161   -9.5614 C   0  0  0  0  0  0  0  0  0  0  0  0
   24.9185  -19.9643  -10.8721 C   0  0  0  0  0  0  0  0  0  0  0  0
   24.1255  -20.9879  -13.9052 C   0  0  0  0  0  0  0  0  0  0  0  0
   23.5090  -19.9589  -14.3842 O   0  0  0  0  0  0  0  0  0  0  0  0
   15.5756  -22.5226  -12.3884 O   0  0  0  0  0  0  0  0  0  0  0  0
   16.9364  -22.6690  -12.6031 C   0  0  0  0  0  0  0  0  0  0  0  0
   17.4639  -22.5447  -13.8682 C   0  0  0  0  0  0  0  0  0  0  0  0
   18.8300  -22.6924  -14.0800 C   0  0  0  0  0  0  0  0  0  0  0  0
   19.7032  -22.9645  -13.0561 C   0  0  0  0  0  0  0  0  0  0  0  0
   21.1560  -23.1443  -13.1777 C   0  0  0  0  0  0  0  0  0  0  0  0
   21.8444  -21.8239  -13.2817 C   0  0  2  0  0  0  0  0  0  0  0  0
   23.2920  -21.9957  -13.4267 N   0  0  0  0  0  0  0  0  0  0  0  0
   21.5671  -21.0114  -12.1157 C   0  0  0  0  0  0  0  0  0  0  0  0
   20.8512  -19.9974  -12.1805 O   0  0  0  0  0  0  0  0  0  0  0  0
   19.1300  -23.0832  -11.7872 C   0  0  0  0  0  0  0  0  0  0  0  0
   17.7912  -22.9417  -11.5581 C   0  0  0  0  0  0  0  0  0  0  0  0
   22.0852  -21.3314  -10.8753 O   0  0  0  0  0  0  0  0  0  0  0  0
  2  1  1  6
  2  3  1  0
  3  4  1  0
  4  5  1  0
  5  6  2  0
  5  9  1  0
  7  2  1  0
  7  8  2  0
 10  7  1  0
 11 10  1  0
 11 12  1  1
 12 13  1  0
 13 18  1  0
 13 14  2  0
 14 15  1  0
 15 16  2  0
 17 16  1  0
 18 17  2  0
 19 11  1  0
 20 19  2  0
 22 32  2  0
 22 21  1  0
 23 22  1  0
 24 25  1  0
 24 23  2  0
 25 31  2  0
 26 25  1  0
 27 26  1  1
 27 28  1  0
 28 19  1  0
 29 33  1  0
 29 27  1  0
 30 29  2  0
 31 32  1  0
M  END
$$$$
