EFY.pdb
     RDKit          3D

 33 34  0  0  1  0  0  0  0  0999 V2000
   29.1179  -22.5965  -17.3967 N   0  0  0  0  0  0  0  0  0  0  0  0
   28.3175  -21.4201  -17.1788 C   0  0  1  0  0  0  0  0  0  0  0  0
   27.3227  -21.1938  -18.3003 C   0  0  0  0  0  0  0  0  0  0  0  0
   27.9989  -20.7596  -19.5701 C   0  0  0  0  0  0  0  0  0  0  0  0
   28.2110  -21.9482  -20.4279 C   0  0  0  0  0  0  0  0  0  0  0  0
   27.2334  -22.6293  -20.8103 O   0  0  0  0  0  0  0  0  0  0  0  0
   27.4960  -21.6713  -15.9369 C   0  0  0  0  0  0  0  0  0  0  0  0
   27.1502  -22.8267  -15.6103 O   0  0  0  0  0  0  0  0  0  0  0  0
   29.4813  -22.3183  -20.8143 O   0  0  0  0  0  0  0  0  0  0  0  0
   27.1521  -20.5409  -15.1860 N   0  0  0  0  0  0  0  0  0  0  0  0
   26.5460  -20.7405  -13.8276 C   0  0  1  0  0  0  0  0  0  0  0  0
   27.2190  -19.8460  -12.8683 C   0  0  0  0  0  0  0  0  0  0  0  0
   28.0476  -20.5280  -11.8903 C   0  0  0  0  0  0  0  0  0  0  0  0
   29.3772  -20.8760  -12.1604 C   0  0  0  0  0  0  0  0  0  0  0  0
   30.1615  -21.4697  -11.1999 C   0  0  0  0  0  0  0  0  0  0  0  0
   29.6991  -21.7546   -9.9354 C   0  0  0  0  0  0  0  0  0  0  0  0
   28.3928  -21.4152   -9.6633 C   0  0  0  0  0  0  0  0  0  0  0  0
   27.5948  -20.8187  -10.6194 C   0  0  0  0  0  0  0  0  0  0  0  0
   25.1007  -20.6998  -13.9867 C   0  0  0  0  0  0  0  0  0  0  0  0
   24.5661  -19.8039  -14.7484 O   0  0  0  0  0  0  0  0  0  0  0  0
   16.4464  -22.3664  -13.8775 O   0  0  0  0  0  0  0  0  0  0  0  0
   17.8235  -22.4648  -13.7628 C   0  0  0  0  0  0  0  0  0  0  0  0
   18.6133  -22.5874  -14.8833 C   0  0  0  0  0  0  0  0  0  0  0  0
   19.9950  -22.6860  -14.7644 C   0  0  0  0  0  0  0  0  0  0  0  0
   20.6271  -22.6665  -13.5459 C   0  0  0  0  0  0  0  0  0  0  0  0
   22.0742  -22.7707  -13.3158 C   0  0  0  0  0  0  0  0  0  0  0  0
   22.7465  -21.4650  -13.5830 C   0  0  2  0  0  0  0  0  0  0  0  0
   24.1942  -21.5689  -13.3849 N   0  0  0  0  0  0  0  0  0  0  0  0
   22.2123  -20.4311  -12.7215 C   0  0  0  0  0  0  0  0  0  0  0  0
   22.6354  -20.2600  -11.5653 O   0  0  0  0  0  0  0  0  0  0  0  0
   19.7918  -22.5407  -12.4327 C   0  0  0  0  0  0  0  0  0  0  0  0
   18.4330  -22.4424  -12.5279 C   0  0  0  0  0  0  0  0  0  0  0  0
   21.2079  -19.5843  -13.1502 O   0  0  0  0  0  0  0  0  0  0  0  0
  2  1  1  6
  2  3  1  0
  3  4  1  0
  4  5  1  0
  5  6  2  0
  5  9  1  0
  7  2  1  0
  7  8  2  0
 10  7  1  0
 11 10  1  0
 11 12  1  1
 12 13  1  0
 13 18  1  0
 13 14  2  0
 14 15  1  0
 15 16  2  0
 17 16  1  0
 18 17  2  0
 19 11  1  0
 20 19  2  0
 22 32  2  0
 22 21  1  0
 23 22  1  0
 24 25  1  0
 24 23  2  0
 25 31  2  0
 26 25  1  0
 27 26  1  1
 27 28  1  0
 28 19  1  0
 29 33  1  0
 29 27  1  0
 30 29  2  0
 31 32  1  0
M  END
$$$$
