EFY.pdb
     RDKit          3D

 33 34  0  0  1  0  0  0  0  0999 V2000
   26.8298  -23.8245  -16.1616 N   0  0  0  0  0  0  0  0  0  0  0  0
   27.0433  -22.4742  -15.7107 C   0  0  1  0  0  0  0  0  0  0  0  0
   26.4188  -21.4573  -16.6457 C   0  0  0  0  0  0  0  0  0  0  0  0
   26.5333  -21.8745  -18.0848 C   0  0  0  0  0  0  0  0  0  0  0  0
   26.0482  -20.7683  -18.9419 C   0  0  0  0  0  0  0  0  0  0  0  0
   26.4982  -19.6108  -18.7881 O   0  0  0  0  0  0  0  0  0  0  0  0
   26.3181  -22.3307  -14.3939 C   0  0  0  0  0  0  0  0  0  0  0  0
   25.1770  -22.8111  -14.2258 O   0  0  0  0  0  0  0  0  0  0  0  0
   25.0996  -20.9976  -19.9154 O   0  0  0  0  0  0  0  0  0  0  0  0
   26.9985  -21.6342  -13.3879 N   0  0  0  0  0  0  0  0  0  0  0  0
   26.3027  -21.4070  -12.0777 C   0  0  1  0  0  0  0  0  0  0  0  0
   27.3023  -21.0129  -11.0684 C   0  0  0  0  0  0  0  0  0  0  0  0
   26.7392  -20.5836   -9.8007 C   0  0  0  0  0  0  0  0  0  0  0  0
   25.8556  -21.3902   -9.0722 C   0  0  0  0  0  0  0  0  0  0  0  0
   25.3793  -20.9887   -7.8466 C   0  0  0  0  0  0  0  0  0  0  0  0
   25.7335  -19.7913   -7.2680 C   0  0  0  0  0  0  0  0  0  0  0  0
   26.6017  -18.9936   -7.9790 C   0  0  0  0  0  0  0  0  0  0  0  0
   27.0870  -19.3854   -9.2109 C   0  0  0  0  0  0  0  0  0  0  0  0
   25.1464  -20.5645  -12.3404 C   0  0  0  0  0  0  0  0  0  0  0  0
   25.2634  -19.5439  -13.1235 O   0  0  0  0  0  0  0  0  0  0  0  0
   20.7157  -25.1887  -14.9668 O   0  0  0  0  0  0  0  0  0  0  0  0
   21.1008  -23.9047  -14.6169 C   0  0  0  0  0  0  0  0  0  0  0  0
   20.1963  -23.0284  -14.0616 C   0  0  0  0  0  0  0  0  0  0  0  0
   20.5862  -21.7406  -13.7117 C   0  0  0  0  0  0  0  0  0  0  0  0
   21.8689  -21.2887  -13.8998 C   0  0  0  0  0  0  0  0  0  0  0  0
   22.3755  -19.9497  -13.5708 C   0  0  0  0  0  0  0  0  0  0  0  0
   22.7470  -19.8658  -12.1275 C   0  0  2  0  0  0  0  0  0  0  0  0
   23.8688  -20.7566  -11.8207 N   0  0  0  0  0  0  0  0  0  0  0  0
   21.6157  -20.2048  -11.2896 C   0  0  0  0  0  0  0  0  0  0  0  0
   20.5475  -19.5718  -11.3456 O   0  0  0  0  0  0  0  0  0  0  0  0
   22.7574  -22.2071  -14.4654 C   0  0  0  0  0  0  0  0  0  0  0  0
   22.3945  -23.4762  -14.8159 C   0  0  0  0  0  0  0  0  0  0  0  0
   21.6737  -21.2529  -10.3909 O   0  0  0  0  0  0  0  0  0  0  0  0
  2  1  1  6
  2  3  1  0
  3  4  1  0
  4  5  1  0
  5  6  2  0
  5  9  1  0
  7  2  1  0
  7  8  2  0
 10  7  1  0
 11 10  1  0
 11 12  1  1
 12 13  1  0
 13 18  1  0
 13 14  2  0
 14 15  1  0
 15 16  2  0
 17 16  1  0
 18 17  2  0
 19 11  1  0
 20 19  2  0
 22 32  2  0
 22 21  1  0
 23 22  1  0
 24 25  1  0
 24 23  2  0
 25 31  2  0
 26 25  1  0
 27 26  1  6
 27 28  1  0
 28 19  1  0
 29 33  1  0
 29 27  1  0
 30 29  2  0
 31 32  1  0
M  END
$$$$
