EFY.pdb
     RDKit          3D

 33 34  0  0  1  0  0  0  0  0999 V2000
   29.4791  -22.3302  -17.9261 N   0  0  0  0  0  0  0  0  0  0  0  0
   28.2545  -21.5854  -17.7940 C   0  0  1  0  0  0  0  0  0  0  0  0
   27.2104  -22.0248  -18.8016 C   0  0  0  0  0  0  0  0  0  0  0  0
   27.3011  -21.2412  -20.0806 C   0  0  0  0  0  0  0  0  0  0  0  0
   27.3056  -19.7963  -19.7552 C   0  0  0  0  0  0  0  0  0  0  0  0
   26.2294  -19.2014  -19.5232 O   0  0  0  0  0  0  0  0  0  0  0  0
   27.6855  -21.9127  -16.4340 C   0  0  0  0  0  0  0  0  0  0  0  0
   27.4914  -23.0949  -16.0792 O   0  0  0  0  0  0  0  0  0  0  0  0
   28.4889  -19.0912  -19.7037 O   0  0  0  0  0  0  0  0  0  0  0  0
   27.3940  -20.8202  -15.6084 N   0  0  0  0  0  0  0  0  0  0  0  0
   26.8359  -21.0850  -14.2406 C   0  0  1  0  0  0  0  0  0  0  0  0
   27.5195  -20.2122  -13.2689 C   0  0  0  0  0  0  0  0  0  0  0  0
   27.0089  -20.3070  -11.9129 C   0  0  0  0  0  0  0  0  0  0  0  0
   25.9572  -19.5004  -11.4600 C   0  0  0  0  0  0  0  0  0  0  0  0
   25.4508  -19.6465  -10.1901 C   0  0  0  0  0  0  0  0  0  0  0  0
   25.9357  -20.5771   -9.2997 C   0  0  0  0  0  0  0  0  0  0  0  0
   26.9698  -21.3731   -9.7386 C   0  0  0  0  0  0  0  0  0  0  0  0
   27.4873  -21.2361  -11.0115 C   0  0  0  0  0  0  0  0  0  0  0  0
   25.3857  -21.0714  -14.3531 C   0  0  0  0  0  0  0  0  0  0  0  0
   24.7980  -20.0743  -14.9265 O   0  0  0  0  0  0  0  0  0  0  0  0
   16.7763  -22.7036  -13.8638 O   0  0  0  0  0  0  0  0  0  0  0  0
   18.1504  -22.8077  -13.7220 C   0  0  0  0  0  0  0  0  0  0  0  0
   18.7585  -22.4867  -12.5298 C   0  0  0  0  0  0  0  0  0  0  0  0
   20.1378  -22.5923  -12.3911 C   0  0  0  0  0  0  0  0  0  0  0  0
   20.9456  -23.0141  -13.4180 C   0  0  0  0  0  0  0  0  0  0  0  0
   22.4073  -23.1521  -13.3733 C   0  0  0  0  0  0  0  0  0  0  0  0
   23.0697  -21.9292  -13.9157 C   0  0  2  0  0  0  0  0  0  0  0  0
   24.5279  -22.0685  -13.8955 N   0  0  0  0  0  0  0  0  0  0  0  0
   22.6839  -20.7601  -13.1537 C   0  0  0  0  0  0  0  0  0  0  0  0
   23.1687  -20.5195  -12.0348 O   0  0  0  0  0  0  0  0  0  0  0  0
   20.2916  -23.3307  -14.6116 C   0  0  0  0  0  0  0  0  0  0  0  0
   18.9384  -23.2339  -14.7683 C   0  0  0  0  0  0  0  0  0  0  0  0
   21.7592  -19.8560  -13.6407 O   0  0  0  0  0  0  0  0  0  0  0  0
  2  1  1  6
  2  3  1  0
  3  4  1  0
  4  5  1  0
  5  6  2  0
  5  9  1  0
  7  2  1  0
  7  8  2  0
 10  7  1  0
 11 10  1  0
 11 12  1  1
 12 13  1  0
 13 18  1  0
 13 14  2  0
 14 15  1  0
 15 16  2  0
 17 16  1  0
 18 17  2  0
 19 11  1  0
 20 19  2  0
 22 32  2  0
 22 21  1  0
 23 22  1  0
 24 25  1  0
 24 23  2  0
 25 31  2  0
 26 25  1  0
 27 26  1  1
 27 28  1  0
 28 19  1  0
 29 33  1  0
 29 27  1  0
 30 29  2  0
 31 32  1  0
M  END
$$$$
