EFY.pdb
     RDKit          3D

 33 34  0  0  1  0  0  0  0  0999 V2000
   22.3487  -33.6028  -14.3600 N   0  0  0  0  0  0  0  0  0  0  0  0
   21.9988  -33.9417  -13.0054 C   0  0  1  0  0  0  0  0  0  0  0  0
   22.5214  -35.3084  -12.6084 C   0  0  0  0  0  0  0  0  0  0  0  0
   21.4116  -36.3094  -12.4528 C   0  0  0  0  0  0  0  0  0  0  0  0
   21.0679  -36.8515  -13.7876 C   0  0  0  0  0  0  0  0  0  0  0  0
   19.9819  -37.4480  -13.9627 O   0  0  0  0  0  0  0  0  0  0  0  0
   22.7008  -32.9500  -12.1089 C   0  0  0  0  0  0  0  0  0  0  0  0
   23.7165  -32.3326  -12.4941 O   0  0  0  0  0  0  0  0  0  0  0  0
   21.9350  -36.7071  -14.8493 O   0  0  0  0  0  0  0  0  0  0  0  0
   22.1470  -32.7700  -10.8357 N   0  0  0  0  0  0  0  0  0  0  0  0
   22.7827  -31.7720   -9.9126 C   0  0  1  0  0  0  0  0  0  0  0  0
   21.7561  -30.8124   -9.4668 C   0  0  0  0  0  0  0  0  0  0  0  0
   21.3455  -29.8576  -10.4806 C   0  0  0  0  0  0  0  0  0  0  0  0
   22.0880  -28.7014  -10.7526 C   0  0  0  0  0  0  0  0  0  0  0  0
   21.7124  -27.8401  -11.7562 C   0  0  0  0  0  0  0  0  0  0  0  0
   20.6038  -28.0546  -12.5429 C   0  0  0  0  0  0  0  0  0  0  0  0
   19.8694  -29.1893  -12.2807 C   0  0  0  0  0  0  0  0  0  0  0  0
   20.2360  -30.0622  -11.2756 C   0  0  0  0  0  0  0  0  0  0  0  0
   23.5683  -32.5174   -8.9415 C   0  0  0  0  0  0  0  0  0  0  0  0
   23.1854  -33.6966   -8.5789 O   0  0  0  0  0  0  0  0  0  0  0  0
   29.5270  -35.3911   -3.1638 O   0  0  0  0  0  0  0  0  0  0  0  0
   28.8547  -34.6200   -4.0980 C   0  0  0  0  0  0  0  0  0  0  0  0
   28.0706  -33.5614   -3.6994 C   0  0  0  0  0  0  0  0  0  0  0  0
   27.3973  -32.7896   -4.6396 C   0  0  0  0  0  0  0  0  0  0  0  0
   27.4801  -33.0416   -5.9867 C   0  0  0  0  0  0  0  0  0  0  0  0
   26.8046  -32.2919   -7.0541 C   0  0  0  0  0  0  0  0  0  0  0  0
   25.4400  -32.8428   -7.3039 C   0  0  2  0  0  0  0  0  0  0  0  0
   24.7461  -32.0776   -8.3427 N   0  0  0  0  0  0  0  0  0  0  0  0
   24.6551  -32.8307   -6.0872 C   0  0  0  0  0  0  0  0  0  0  0  0
   24.9207  -33.5781   -5.1302 O   0  0  0  0  0  0  0  0  0  0  0  0
   28.2853  -34.1238   -6.3516 C   0  0  0  0  0  0  0  0  0  0  0  0
   28.9549  -34.8940   -5.4441 C   0  0  0  0  0  0  0  0  0  0  0  0
   23.5751  -31.9822   -5.9353 O   0  0  0  0  0  0  0  0  0  0  0  0
  2  1  1  6
  2  3  1  0
  3  4  1  0
  4  5  1  0
  5  6  2  0
  5  9  1  0
  7  2  1  0
  7  8  2  0
 10  7  1  0
 11 10  1  0
 11 12  1  1
 12 13  1  0
 13 18  1  0
 13 14  2  0
 14 15  1  0
 15 16  2  0
 17 16  1  0
 18 17  2  0
 19 11  1  0
 20 19  2  0
 22 32  2  0
 22 21  1  0
 23 22  1  0
 24 25  1  0
 24 23  2  0
 25 31  2  0
 26 25  1  0
 27 26  1  1
 27 28  1  0
 28 19  1  0
 29 33  1  0
 29 27  1  0
 30 29  2  0
 31 32  1  0
M  END
$$$$
