EFY.pdb
     RDKit          3D

 33 34  0  0  1  0  0  0  0  0999 V2000
   27.5696  -21.6210  -13.6023 N   0  0  0  0  0  0  0  0  0  0  0  0
   27.1866  -20.4356  -12.8811 C   0  0  1  0  0  0  0  0  0  0  0  0
   25.8547  -19.8877  -13.3548 C   0  0  0  0  0  0  0  0  0  0  0  0
   26.0037  -19.0381  -14.5852 C   0  0  0  0  0  0  0  0  0  0  0  0
   26.6364  -19.8491  -15.6509 C   0  0  0  0  0  0  0  0  0  0  0  0
   26.0205  -20.8153  -16.1540 O   0  0  0  0  0  0  0  0  0  0  0  0
   26.9816  -20.8438  -11.4418 C   0  0  0  0  0  0  0  0  0  0  0  0
   26.4265  -21.9234  -11.1462 O   0  0  0  0  0  0  0  0  0  0  0  0
   27.9052  -19.5523  -16.1003 O   0  0  0  0  0  0  0  0  0  0  0  0
   27.4480  -19.9461  -10.4739 N   0  0  0  0  0  0  0  0  0  0  0  0
   27.3393  -20.3319   -9.0276 C   0  0  1  0  0  0  0  0  0  0  0  0
   28.3371  -19.5707   -8.2541 C   0  0  0  0  0  0  0  0  0  0  0  0
   28.2831  -19.7932   -6.8203 C   0  0  0  0  0  0  0  0  0  0  0  0
   28.6702  -21.0102   -6.2450 C   0  0  0  0  0  0  0  0  0  0  0  0
   28.6659  -21.1800   -4.8806 C   0  0  0  0  0  0  0  0  0  0  0  0
   28.2881  -20.1839   -4.0094 C   0  0  0  0  0  0  0  0  0  0  0  0
   27.9062  -18.9851   -4.5685 C   0  0  0  0  0  0  0  0  0  0  0  0
   27.9060  -18.8020   -5.9371 C   0  0  0  0  0  0  0  0  0  0  0  0
   25.9305  -20.2802   -8.6690 C   0  0  0  0  0  0  0  0  0  0  0  0
   25.2206  -19.2569   -9.0113 O   0  0  0  0  0  0  0  0  0  0  0  0
   21.7841  -19.1796  -13.2135 O   0  0  0  0  0  0  0  0  0  0  0  0
   22.0414  -19.8202  -12.0124 C   0  0  0  0  0  0  0  0  0  0  0  0
   21.4630  -19.3783  -10.8443 C   0  0  0  0  0  0  0  0  0  0  0  0
   21.7236  -20.0235   -9.6406 C   0  0  0  0  0  0  0  0  0  0  0  0
   22.5554  -21.1128   -9.5603 C   0  0  0  0  0  0  0  0  0  0  0  0
   22.8981  -21.8564   -8.3407 C   0  0  0  0  0  0  0  0  0  0  0  0
   23.8596  -21.0811   -7.5024 C   0  0  2  0  0  0  0  0  0  0  0  0
   25.2346  -21.2655   -7.9730 N   0  0  0  0  0  0  0  0  0  0  0  0
   23.7644  -21.4826   -6.1145 C   0  0  0  0  0  0  0  0  0  0  0  0
   22.9323  -20.9757   -5.3427 O   0  0  0  0  0  0  0  0  0  0  0  0
   23.1231  -21.5312  -10.7667 C   0  0  0  0  0  0  0  0  0  0  0  0
   22.8801  -20.9115  -11.9592 C   0  0  0  0  0  0  0  0  0  0  0  0
   24.5950  -22.4528   -5.5868 O   0  0  0  0  0  0  0  0  0  0  0  0
  2  1  1  6
  2  3  1  0
  3  4  1  0
  4  5  1  0
  5  6  2  0
  5  9  1  0
  7  2  1  0
  7  8  2  0
 10  7  1  0
 11 10  1  0
 11 12  1  1
 12 13  1  0
 13 18  1  0
 13 14  2  0
 14 15  1  0
 15 16  2  0
 17 16  1  0
 18 17  2  0
 19 11  1  0
 20 19  2  0
 22 32  2  0
 22 21  1  0
 23 22  1  0
 24 25  1  0
 24 23  2  0
 25 31  2  0
 26 25  1  0
 27 26  1  6
 27 28  1  0
 28 19  1  0
 29 33  1  0
 29 27  1  0
 30 29  2  0
 31 32  1  0
M  END
$$$$
