EFY.pdb
     RDKit          3D

 33 34  0  0  1  0  0  0  0  0999 V2000
   23.7274  -11.2195  -19.1805 N   0  0  0  0  0  0  0  0  0  0  0  0
   23.3264   -9.8623  -19.4439 C   0  0  1  0  0  0  0  0  0  0  0  0
   22.1638   -9.7914  -20.4144 C   0  0  0  0  0  0  0  0  0  0  0  0
   22.5534  -10.2526  -21.7904 C   0  0  0  0  0  0  0  0  0  0  0  0
   22.0836  -11.6447  -21.9774 C   0  0  0  0  0  0  0  0  0  0  0  0
   22.8637  -12.5164  -22.4220 O   0  0  0  0  0  0  0  0  0  0  0  0
   22.8174   -9.2937  -18.1408 C   0  0  0  0  0  0  0  0  0  0  0  0
   22.0283   -9.9368  -17.4164 O   0  0  0  0  0  0  0  0  0  0  0  0
   20.7879  -11.9971  -21.6660 O   0  0  0  0  0  0  0  0  0  0  0  0
   23.2812   -8.0168  -17.8023 N   0  0  0  0  0  0  0  0  0  0  0  0
   22.9103   -7.4520  -16.4623 C   0  0  1  0  0  0  0  0  0  0  0  0
   24.0649   -7.5791  -15.5545 C   0  0  0  0  0  0  0  0  0  0  0  0
   24.3869   -8.9443  -15.1793 C   0  0  0  0  0  0  0  0  0  0  0  0
   25.5028   -9.6116  -15.7002 C   0  0  0  0  0  0  0  0  0  0  0  0
   25.8218  -10.8837  -15.2876 C   0  0  0  0  0  0  0  0  0  0  0  0
   25.0791  -11.5699  -14.3542 C   0  0  0  0  0  0  0  0  0  0  0  0
   23.9806  -10.9197  -13.8382 C   0  0  0  0  0  0  0  0  0  0  0  0
   23.6495   -9.6422  -14.2444 C   0  0  0  0  0  0  0  0  0  0  0  0
   22.2915   -6.1560  -16.6933 C   0  0  0  0  0  0  0  0  0  0  0  0
   22.9135   -5.2660  -17.3930 O   0  0  0  0  0  0  0  0  0  0  0  0
   16.7850    0.7810  -16.8606 O   0  0  0  0  0  0  0  0  0  0  0  0
   17.3437   -0.4805  -16.7338 C   0  0  0  0  0  0  0  0  0  0  0  0
   18.2006   -0.9674  -17.6945 C   0  0  0  0  0  0  0  0  0  0  0  0
   18.7593   -2.2338  -17.5641 C   0  0  0  0  0  0  0  0  0  0  0  0
   18.4882   -3.0453  -16.4904 C   0  0  0  0  0  0  0  0  0  0  0  0
   19.0207   -4.3958  -16.2655 C   0  0  0  0  0  0  0  0  0  0  0  0
   20.5023   -4.4158  -16.4463 C   0  0  2  0  0  0  0  0  0  0  0  0
   21.0406   -5.7604  -16.2266 N   0  0  0  0  0  0  0  0  0  0  0  0
   21.1390   -3.4845  -15.5387 C   0  0  0  0  0  0  0  0  0  0  0  0
   21.6022   -2.4005  -15.9327 O   0  0  0  0  0  0  0  0  0  0  0  0
   17.6144   -2.5160  -15.5370 C   0  0  0  0  0  0  0  0  0  0  0  0
   17.0552   -1.2749  -15.6463 C   0  0  0  0  0  0  0  0  0  0  0  0
   21.2564   -3.7598  -14.1896 O   0  0  0  0  0  0  0  0  0  0  0  0
  2  1  1  1
  2  3  1  0
  3  4  1  0
  4  5  1  0
  5  6  2  0
  5  9  1  0
  7  2  1  0
  7  8  2  0
 10  7  1  0
 11 10  1  0
 11 12  1  1
 12 13  1  0
 13 18  1  0
 13 14  2  0
 14 15  1  0
 15 16  2  0
 17 16  1  0
 18 17  2  0
 19 11  1  0
 20 19  2  0
 22 32  2  0
 22 21  1  0
 23 22  1  0
 24 25  1  0
 24 23  2  0
 25 31  2  0
 26 25  1  0
 27 26  1  1
 27 28  1  0
 28 19  1  0
 29 33  1  0
 29 27  1  0
 30 29  2  0
 31 32  1  0
M  END
$$$$
