YQS.pdb
     RDKit          3D

 28 28  0  0  1  0  0  0  0  0999 V2000
   16.3826  -27.4481   -5.3872 O   0  0  0  0  0  0  0  0  0  0  0  0
   16.8245  -26.4089   -6.1893 C   0  0  0  0  0  0  0  0  0  0  0  0
   16.5626  -26.4087   -7.5631 C   0  0  0  0  0  0  0  0  0  0  0  0
   17.0147  -25.3615   -8.3274 C   0  0  0  0  0  0  0  0  0  0  0  0
   17.7183  -24.3011   -7.8110 C   0  0  0  0  0  0  0  0  0  0  0  0
   18.2116  -23.1802   -8.6229 C   0  0  0  0  0  0  0  0  0  0  0  0
   19.1343  -23.7458   -9.7033 C   0  0  2  0  0  0  0  0  0  0  0  0
   20.3183  -24.3234   -9.1212 N   0  0  0  0  0  0  0  0  0  0  0  0
   19.4780  -22.5847  -10.5768 C   0  0  0  0  0  0  0  0  0  0  0  0
   20.2646  -21.7053  -10.1439 O   0  0  0  0  0  0  0  0  0  0  0  0
   17.9713  -24.3123   -6.4524 C   0  0  0  0  0  0  0  0  0  0  0  0
   17.5307  -25.3455   -5.6712 C   0  0  0  0  0  0  0  0  0  0  0  0
   21.6773  -22.8913  -15.4265 N   0  0  0  0  0  0  0  0  0  0  0  0
   21.6356  -23.7424  -14.2862 C   0  0  0  0  0  0  0  0  0  0  0  0
   22.0250  -24.9281  -14.4102 O   0  0  0  0  0  0  0  0  0  0  0  0
   21.1356  -23.2328  -12.9618 C   0  0  0  0  0  0  0  0  0  0  0  0
   20.8210  -21.7749  -13.0352 C   0  0  0  0  0  0  0  0  0  0  0  0
   19.3724  -21.4233  -12.7568 C   0  0  2  0  0  0  0  0  0  0  0  0
   18.9119  -22.5014  -11.8668 N   0  0  0  0  0  0  0  0  0  0  0  0
   18.5016  -21.4688  -13.9341 C   0  0  0  0  0  0  0  0  0  0  0  0
   18.2224  -22.5802  -14.5160 O   0  0  0  0  0  0  0  0  0  0  0  0
   16.4295  -18.2737  -15.2155 O   0  0  0  0  0  0  0  0  0  0  0  0
   15.8659  -19.4757  -15.7074 C   0  0  0  0  0  0  0  0  0  0  0  0
   16.9974  -20.4769  -15.6878 C   0  0  2  0  0  0  0  0  0  0  0  0
   17.8759  -20.3502  -14.5607 N   0  0  0  0  0  0  0  0  0  0  0  0
   17.7793  -20.2698  -16.9276 C   0  0  0  0  0  0  0  0  0  0  0  0
   19.1637  -20.0246  -16.8745 O   0  0  0  0  0  0  0  0  0  0  0  0
   17.2047  -20.3130  -18.0330 O   0  0  0  0  0  0  0  0  0  0  0  0
  2  1  1  0
  3  2  2  0
  4  3  1  0
  5  4  2  0
  5 11  1  0
  6  5  1  0
  7  6  1  0
  7  9  1  0
  7  8  1  1
  9 10  2  0
 11 12  2  0
 12  2  1  0
 14 13  1  0
 15 14  2  0
 16 14  1  0
 17 16  1  0
 18 17  1  6
 19  9  1  0
 19 18  1  0
 20 18  1  0
 20 21  2  0
 22 23  1  0
 24 23  1  1
 24 25  1  0
 25 20  1  0
 26 24  1  0
 26 27  1  0
 28 26  2  0
M  END
$$$$
