YQS.pdb
     RDKit          3D

 28 28  0  0  1  0  0  0  0  0999 V2000
    6.9040  -18.0018    3.3186 O   0  0  0  0  0  0  0  0  0  0  0  0
    8.2218  -18.3310    3.0471 C   0  0  0  0  0  0  0  0  0  0  0  0
    8.8208  -17.9385    1.8458 C   0  0  0  0  0  0  0  0  0  0  0  0
   10.1293  -18.2814    1.6106 C   0  0  0  0  0  0  0  0  0  0  0  0
   10.8919  -18.9971    2.5009 C   0  0  0  0  0  0  0  0  0  0  0  0
   12.2904  -19.3739    2.2540 C   0  0  0  0  0  0  0  0  0  0  0  0
   13.1878  -18.3849    2.9990 C   0  0  2  0  0  0  0  0  0  0  0  0
   13.2023  -17.1036    2.3415 N   0  0  0  0  0  0  0  0  0  0  0  0
   14.5463  -19.0044    2.9961 C   0  0  0  0  0  0  0  0  0  0  0  0
   15.2070  -19.0247    1.9271 O   0  0  0  0  0  0  0  0  0  0  0  0
   10.2892  -19.3796    3.6842 C   0  0  0  0  0  0  0  0  0  0  0  0
    8.9863  -19.0493    3.9399 C   0  0  0  0  0  0  0  0  0  0  0  0
   18.4741  -18.0997    7.3185 N   0  0  0  0  0  0  0  0  0  0  0  0
   19.1848  -19.1244    6.6319 C   0  0  0  0  0  0  0  0  0  0  0  0
   20.3677  -19.3635    6.9730 O   0  0  0  0  0  0  0  0  0  0  0  0
   18.5331  -19.9035    5.5219 C   0  0  0  0  0  0  0  0  0  0  0  0
   17.1264  -19.4509    5.3067 C   0  0  0  0  0  0  0  0  0  0  0  0
   16.4056  -20.1404    4.1645 C   0  0  2  0  0  0  0  0  0  0  0  0
   15.0564  -19.5527    4.1922 N   0  0  0  0  0  0  0  0  0  0  0  0
   16.2242  -21.5827    4.3462 C   0  0  0  0  0  0  0  0  0  0  0  0
   15.2838  -22.0496    5.0875 O   0  0  0  0  0  0  0  0  0  0  0  0
   18.7862  -24.3331    2.8577 O   0  0  0  0  0  0  0  0  0  0  0  0
   17.5085  -24.9208    3.0199 C   0  0  0  0  0  0  0  0  0  0  0  0
   16.7744  -24.0077    3.9740 C   0  0  2  0  0  0  0  0  0  0  0  0
   17.0187  -22.6108    3.7570 N   0  0  0  0  0  0  0  0  0  0  0  0
   17.2188  -24.3631    5.3406 C   0  0  0  0  0  0  0  0  0  0  0  0
   17.0036  -25.6545    5.8557 O   0  0  0  0  0  0  0  0  0  0  0  0
   17.7910  -23.5080    6.0444 O   0  0  0  0  0  0  0  0  0  0  0  0
  2  1  1  0
  3  2  2  0
  4  3  1  0
  5  4  2  0
  5 11  1  0
  6  5  1  0
  7  6  1  0
  7  9  1  0
  7  8  1  6
  9 10  2  0
 11 12  2  0
 12  2  1  0
 14 13  1  0
 15 14  2  0
 16 14  1  0
 17 16  1  0
 18 17  1  1
 19  9  1  0
 19 18  1  0
 20 18  1  0
 20 21  2  0
 22 23  1  0
 24 23  1  6
 24 25  1  0
 25 20  1  0
 26 24  1  0
 26 27  1  0
 28 26  2  0
M  END
$$$$
