YQS.pdb
     RDKit          3D

 28 28  0  0  1  0  0  0  0  0999 V2000
   30.6883  -21.4622   -9.7100 O   0  0  0  0  0  0  0  0  0  0  0  0
   29.5438  -21.1216  -10.4119 C   0  0  0  0  0  0  0  0  0  0  0  0
   29.6048  -20.8414  -11.7807 C   0  0  0  0  0  0  0  0  0  0  0  0
   28.4501  -20.5084  -12.4447 C   0  0  0  0  0  0  0  0  0  0  0  0
   27.2233  -20.4345  -11.8314 C   0  0  0  0  0  0  0  0  0  0  0  0
   25.9843  -20.0722  -12.5331 C   0  0  0  0  0  0  0  0  0  0  0  0
   25.1993  -21.3561  -12.8051 C   0  0  2  0  0  0  0  0  0  0  0  0
   25.9407  -22.2430  -13.6643 N   0  0  0  0  0  0  0  0  0  0  0  0
   23.9314  -20.9133  -13.4576 C   0  0  0  0  0  0  0  0  0  0  0  0
   23.8033  -21.0492  -14.7004 O   0  0  0  0  0  0  0  0  0  0  0  0
   27.1755  -20.7132  -10.4787 C   0  0  0  0  0  0  0  0  0  0  0  0
   28.3135  -21.0471   -9.7965 C   0  0  0  0  0  0  0  0  0  0  0  0
   19.0600  -20.6710   -9.7637 N   0  0  0  0  0  0  0  0  0  0  0  0
   18.8948  -21.6376  -10.7955 C   0  0  0  0  0  0  0  0  0  0  0  0
   18.0698  -22.5656  -10.6193 O   0  0  0  0  0  0  0  0  0  0  0  0
   19.6912  -21.5496  -12.0690 C   0  0  0  0  0  0  0  0  0  0  0  0
   20.6436  -20.4003  -12.0244 C   0  0  0  0  0  0  0  0  0  0  0  0
   21.5518  -20.2813  -13.2330 C   0  0  2  0  0  0  0  0  0  0  0  0
   22.9076  -20.3525  -12.6646 N   0  0  0  0  0  0  0  0  0  0  0  0
   21.4695  -18.9939  -13.9274 C   0  0  0  0  0  0  0  0  0  0  0  0
   22.1596  -17.9810  -13.5406 O   0  0  0  0  0  0  0  0  0  0  0  0
   22.0432  -18.7714  -17.9305 O   0  0  0  0  0  0  0  0  0  0  0  0
   22.3758  -18.0849  -16.7379 C   0  0  0  0  0  0  0  0  0  0  0  0
   21.0509  -17.7699  -16.0834 C   0  0  2  0  0  0  0  0  0  0  0  0
   20.6606  -18.7030  -15.0659 N   0  0  0  0  0  0  0  0  0  0  0  0
   20.0280  -17.7755  -17.1535 C   0  0  0  0  0  0  0  0  0  0  0  0
   19.9111  -16.6931  -18.0447 O   0  0  0  0  0  0  0  0  0  0  0  0
   19.2603  -18.7510  -17.2671 O   0  0  0  0  0  0  0  0  0  0  0  0
  2  1  1  0
  3  2  2  0
  4  3  1  0
  5  4  2  0
  5 11  1  0
  6  5  1  0
  7  6  1  0
  7  9  1  0
  7  8  1  6
  9 10  2  0
 11 12  2  0
 12  2  1  0
 14 13  1  0
 15 14  2  0
 16 14  1  0
 17 16  1  0
 18 17  1  1
 19  9  1  0
 19 18  1  0
 20 18  1  0
 20 21  2  0
 22 23  1  0
 24 23  1  6
 24 25  1  0
 25 20  1  0
 26 24  1  0
 26 27  1  0
 28 26  2  0
M  END
$$$$
