YQS.pdb
     RDKit          3D

 28 28  0  0  1  0  0  0  0  0999 V2000
   17.1484  -15.0611  -20.1647 O   0  0  0  0  0  0  0  0  0  0  0  0
   17.3225  -13.9158  -19.4053 C   0  0  0  0  0  0  0  0  0  0  0  0
   16.6897  -13.7805  -18.1654 C   0  0  0  0  0  0  0  0  0  0  0  0
   16.8858  -12.6320  -17.4392 C   0  0  0  0  0  0  0  0  0  0  0  0
   17.6790  -11.5960  -17.8680 C   0  0  0  0  0  0  0  0  0  0  0  0
   17.8886  -10.3610  -17.1002 C   0  0  0  0  0  0  0  0  0  0  0  0
   19.2260  -10.4778  -16.3679 C   0  0  2  0  0  0  0  0  0  0  0  0
   19.1952  -11.5464  -15.4028 N   0  0  0  0  0  0  0  0  0  0  0  0
   19.4273   -9.1577  -15.6999 C   0  0  0  0  0  0  0  0  0  0  0  0
   18.7892   -8.9009  -14.6481 O   0  0  0  0  0  0  0  0  0  0  0  0
   18.2989  -11.7409  -19.0946 C   0  0  0  0  0  0  0  0  0  0  0  0
   18.1178  -12.8766  -19.8359 C   0  0  0  0  0  0  0  0  0  0  0  0
   21.7467   -6.5473  -12.6986 N   0  0  0  0  0  0  0  0  0  0  0  0
   22.4167   -5.5198  -13.4209 C   0  0  0  0  0  0  0  0  0  0  0  0
   22.8081   -4.5062  -12.7948 O   0  0  0  0  0  0  0  0  0  0  0  0
   22.6503   -5.6453  -14.9019 C   0  0  0  0  0  0  0  0  0  0  0  0
   22.1018   -6.9334  -15.4214 C   0  0  0  0  0  0  0  0  0  0  0  0
   20.5899   -6.9826  -15.5282 C   0  0  2  0  0  0  0  0  0  0  0  0
   20.3280   -8.2297  -16.2647 N   0  0  0  0  0  0  0  0  0  0  0  0
   20.0047   -5.9060  -16.3312 C   0  0  0  0  0  0  0  0  0  0  0  0
   20.3305   -5.7388  -17.5632 O   0  0  0  0  0  0  0  0  0  0  0  0
   16.8395   -3.6657  -15.1259 O   0  0  0  0  0  0  0  0  0  0  0  0
   17.0107   -3.6995  -16.5308 C   0  0  0  0  0  0  0  0  0  0  0  0
   18.4870   -3.9438  -16.7408 C   0  0  2  0  0  0  0  0  0  0  0  0
   19.0446   -4.9503  -15.8840 N   0  0  0  0  0  0  0  0  0  0  0  0
   19.1785   -2.6607  -16.4824 C   0  0  0  0  0  0  0  0  0  0  0  0
   18.8525   -1.5055  -17.2164 O   0  0  0  0  0  0  0  0  0  0  0  0
   20.0607   -2.6021  -15.6037 O   0  0  0  0  0  0  0  0  0  0  0  0
  2  1  1  0
  3  2  2  0
  4  3  1  0
  5  4  2  0
  5 11  1  0
  6  5  1  0
  7  6  1  0
  7  9  1  0
  7  8  1  1
  9 10  2  0
 11 12  2  0
 12  2  1  0
 14 13  1  0
 15 14  2  0
 16 14  1  0
 17 16  1  0
 18 17  1  6
 19  9  1  0
 19 18  1  0
 20 18  1  0
 20 21  2  0
 22 23  1  0
 24 23  1  1
 24 25  1  0
 25 20  1  0
 26 24  1  0
 26 27  1  0
 28 26  2  0
M  END
$$$$
