YQS.pdb
     RDKit          3D

 28 28  0  0  1  0  0  0  0  0999 V2000
   21.3422  -27.3414  -14.1581 O   0  0  0  0  0  0  0  0  0  0  0  0
   20.8901  -26.8334  -12.9514 C   0  0  0  0  0  0  0  0  0  0  0  0
   20.5663  -25.4786  -12.8257 C   0  0  0  0  0  0  0  0  0  0  0  0
   20.1200  -25.0098  -11.6149 C   0  0  0  0  0  0  0  0  0  0  0  0
   19.9720  -25.8076  -10.5067 C   0  0  0  0  0  0  0  0  0  0  0  0
   19.5017  -25.3125   -9.2057 C   0  0  0  0  0  0  0  0  0  0  0  0
   17.9752  -25.2326   -9.2511 C   0  0  2  0  0  0  0  0  0  0  0  0
   17.5376  -24.2388  -10.1972 N   0  0  0  0  0  0  0  0  0  0  0  0
   17.5569  -24.8729   -7.8637 C   0  0  0  0  0  0  0  0  0  0  0  0
   17.1593  -23.7041   -7.6284 O   0  0  0  0  0  0  0  0  0  0  0  0
   20.2952  -27.1442  -10.6429 C   0  0  0  0  0  0  0  0  0  0  0  0
   20.7421  -27.6336  -11.8399 C   0  0  0  0  0  0  0  0  0  0  0  0
   14.5979  -22.5253   -5.3081 N   0  0  0  0  0  0  0  0  0  0  0  0
   14.7057  -23.5047   -4.2807 C   0  0  0  0  0  0  0  0  0  0  0  0
   14.7583  -23.1181   -3.0888 O   0  0  0  0  0  0  0  0  0  0  0  0
   14.7560  -24.9707   -4.6155 C   0  0  0  0  0  0  0  0  0  0  0  0
   15.5990  -25.2136   -5.8239 C   0  0  0  0  0  0  0  0  0  0  0  0
   17.0549  -25.5201   -5.5310 C   0  0  2  0  0  0  0  0  0  0  0  0
   17.6183  -25.8523   -6.8496 N   0  0  0  0  0  0  0  0  0  0  0  0
   17.2674  -26.7004   -4.6895 C   0  0  0  0  0  0  0  0  0  0  0  0
   16.6154  -27.7897   -4.8897 O   0  0  0  0  0  0  0  0  0  0  0  0
   19.4880  -26.5492   -1.4290 O   0  0  0  0  0  0  0  0  0  0  0  0
   19.4454  -27.9177   -1.7891 C   0  0  0  0  0  0  0  0  0  0  0  0
   18.3760  -28.0111   -2.8524 C   0  0  2  0  0  0  0  0  0  0  0  0
   18.1774  -26.8000   -3.5953 N   0  0  0  0  0  0  0  0  0  0  0  0
   17.1126  -28.3616   -2.1650 C   0  0  0  0  0  0  0  0  0  0  0  0
   16.0250  -27.4691   -2.1561 O   0  0  0  0  0  0  0  0  0  0  0  0
   17.0102  -29.4611   -1.5866 O   0  0  0  0  0  0  0  0  0  0  0  0
  2  1  1  0
  3  2  2  0
  4  3  1  0
  5  4  2  0
  5 11  1  0
  6  5  1  0
  7  6  1  0
  7  9  1  0
  7  8  1  6
  9 10  2  0
 11 12  2  0
 12  2  1  0
 14 13  1  0
 15 14  2  0
 16 14  1  0
 17 16  1  0
 18 17  1  6
 19  9  1  0
 19 18  1  0
 20 18  1  0
 20 21  2  0
 22 23  1  0
 24 23  1  1
 24 25  1  0
 25 20  1  0
 26 24  1  0
 26 27  1  0
 28 26  2  0
M  END
$$$$
