YQS.pdb
     RDKit          3D

 28 28  0  0  1  0  0  0  0  0999 V2000
    9.0010  -13.9140  -10.8986 O   0  0  0  0  0  0  0  0  0  0  0  0
   10.1500  -13.1856  -10.6382 C   0  0  0  0  0  0  0  0  0  0  0  0
   11.1503  -13.7053   -9.8104 C   0  0  0  0  0  0  0  0  0  0  0  0
   12.2764  -12.9559   -9.5751 C   0  0  0  0  0  0  0  0  0  0  0  0
   12.4774  -11.7089  -10.1145 C   0  0  0  0  0  0  0  0  0  0  0  0
   13.6763  -10.8978   -9.8623 C   0  0  0  0  0  0  0  0  0  0  0  0
   14.6948  -11.2000  -10.9622 C   0  0  2  0  0  0  0  0  0  0  0  0
   15.1152  -12.5767  -10.9131 N   0  0  0  0  0  0  0  0  0  0  0  0
   15.8415  -10.2797  -10.7027 C   0  0  0  0  0  0  0  0  0  0  0  0
   16.7283  -10.6241   -9.8815 O   0  0  0  0  0  0  0  0  0  0  0  0
   11.4821  -11.2057  -10.9305 C   0  0  0  0  0  0  0  0  0  0  0  0
   10.3512  -11.9346  -11.1789 C   0  0  0  0  0  0  0  0  0  0  0  0
   19.4441   -8.6938  -14.6906 N   0  0  0  0  0  0  0  0  0  0  0  0
   19.9450   -7.8132  -13.6905 C   0  0  0  0  0  0  0  0  0  0  0  0
   21.0674   -7.2828  -13.8682 O   0  0  0  0  0  0  0  0  0  0  0  0
   19.1473   -7.5246  -12.4479 C   0  0  0  0  0  0  0  0  0  0  0  0
   17.9194   -8.3727  -12.3930 C   0  0  0  0  0  0  0  0  0  0  0  0
   17.0716   -8.1823  -11.1502 C   0  0  2  0  0  0  0  0  0  0  0  0
   15.9026   -9.0455  -11.3842 N   0  0  0  0  0  0  0  0  0  0  0  0
   16.5465   -6.8255  -10.9778 C   0  0  0  0  0  0  0  0  0  0  0  0
   15.8537   -6.2554  -11.8980 O   0  0  0  0  0  0  0  0  0  0  0  0
   17.1247   -4.6599   -7.6124 O   0  0  0  0  0  0  0  0  0  0  0  0
   16.0149   -4.1569   -8.3332 C   0  0  0  0  0  0  0  0  0  0  0  0
   16.2022   -4.6613   -9.7451 C   0  0  2  0  0  0  0  0  0  0  0  0
   16.7188   -5.9970   -9.8292 N   0  0  0  0  0  0  0  0  0  0  0  0
   17.1507   -3.7401  -10.4109 C   0  0  0  0  0  0  0  0  0  0  0  0
   16.8628   -2.3677  -10.5251 O   0  0  0  0  0  0  0  0  0  0  0  0
   18.2180   -4.1851  -10.8763 O   0  0  0  0  0  0  0  0  0  0  0  0
  2  1  1  0
  3  2  2  0
  4  3  1  0
  5  4  2  0
  5 11  1  0
  6  5  1  0
  7  6  1  0
  7  9  1  0
  7  8  1  1
  9 10  2  0
 11 12  2  0
 12  2  1  0
 14 13  1  0
 15 14  2  0
 16 14  1  0
 17 16  1  0
 18 17  1  6
 19  9  1  0
 19 18  1  0
 20 18  1  0
 20 21  2  0
 22 23  1  0
 24 23  1  1
 24 25  1  0
 25 20  1  0
 26 24  1  0
 26 27  1  0
 28 26  2  0
M  END
$$$$
