YQS.pdb
     RDKit          3D

 28 28  0  0  1  0  0  0  0  0999 V2000
   20.8527   -8.3817  -20.0712 O   0  0  0  0  0  0  0  0  0  0  0  0
   20.6789   -9.7458  -19.9051 C   0  0  0  0  0  0  0  0  0  0  0  0
   20.4010  -10.2798  -18.6427 C   0  0  0  0  0  0  0  0  0  0  0  0
   20.2336  -11.6365  -18.5153 C   0  0  0  0  0  0  0  0  0  0  0  0
   20.3249  -12.5090  -19.5721 C   0  0  0  0  0  0  0  0  0  0  0  0
   20.1539  -13.9626  -19.4431 C   0  0  0  0  0  0  0  0  0  0  0  0
   21.4890  -14.5605  -18.9975 C   0  0  2  0  0  0  0  0  0  0  0  0
   22.4175  -14.6282  -20.0965 N   0  0  0  0  0  0  0  0  0  0  0  0
   21.1606  -15.9251  -18.4883 C   0  0  0  0  0  0  0  0  0  0  0  0
   21.2371  -16.9050  -19.2716 O   0  0  0  0  0  0  0  0  0  0  0  0
   20.6002  -11.9700  -20.8144 C   0  0  0  0  0  0  0  0  0  0  0  0
   20.7710  -10.6208  -20.9651 C   0  0  0  0  0  0  0  0  0  0  0  0
   23.6447  -19.1787  -15.4361 N   0  0  0  0  0  0  0  0  0  0  0  0
   22.5031  -19.5974  -14.6960 C   0  0  0  0  0  0  0  0  0  0  0  0
   22.5042  -20.7466  -14.1939 O   0  0  0  0  0  0  0  0  0  0  0  0
   21.3210  -18.6834  -14.5196 C   0  0  0  0  0  0  0  0  0  0  0  0
   21.4635  -17.4582  -15.3612 C   0  0  0  0  0  0  0  0  0  0  0  0
   20.6181  -17.4509  -16.6201 C   0  0  2  0  0  0  0  0  0  0  0  0
   20.7717  -16.0829  -17.1410 N   0  0  0  0  0  0  0  0  0  0  0  0
   19.1840  -17.6382  -16.3871 C   0  0  0  0  0  0  0  0  0  0  0  0
   18.4702  -16.7192  -15.8414 O   0  0  0  0  0  0  0  0  0  0  0  0
   17.0469  -20.8407  -17.7672 O   0  0  0  0  0  0  0  0  0  0  0  0
   16.2693  -19.6758  -17.5607 C   0  0  0  0  0  0  0  0  0  0  0  0
   17.0082  -18.8931  -16.5002 C   0  0  2  0  0  0  0  0  0  0  0  0
   18.4232  -18.7991  -16.7171 N   0  0  0  0  0  0  0  0  0  0  0  0
   16.7677  -19.5791  -15.2106 C   0  0  0  0  0  0  0  0  0  0  0  0
   15.4630  -19.7287  -14.7059 O   0  0  0  0  0  0  0  0  0  0  0  0
   17.7327  -20.0301  -14.5632 O   0  0  0  0  0  0  0  0  0  0  0  0
  2  1  1  0
  3  2  2  0
  4  3  1  0
  5  4  2  0
  5 11  1  0
  6  5  1  0
  7  6  1  0
  7  9  1  0
  7  8  1  6
  9 10  2  0
 11 12  2  0
 12  2  1  0
 14 13  1  0
 15 14  2  0
 16 14  1  0
 17 16  1  0
 18 17  1  1
 19  9  1  0
 19 18  1  0
 20 18  1  0
 20 21  2  0
 22 23  1  0
 24 23  1  6
 24 25  1  0
 25 20  1  0
 26 24  1  0
 26 27  1  0
 28 26  2  0
M  END
$$$$
