YQS.pdb
     RDKit          3D

 28 28  0  0  1  0  0  0  0  0999 V2000
   28.5911  -19.9434   -4.0141 O   0  0  0  0  0  0  0  0  0  0  0  0
   28.2729  -19.8316   -5.3575 C   0  0  0  0  0  0  0  0  0  0  0  0
   29.1746  -19.2539   -6.2572 C   0  0  0  0  0  0  0  0  0  0  0  0
   28.8263  -19.1606   -7.5820 C   0  0  0  0  0  0  0  0  0  0  0  0
   27.6269  -19.6089   -8.0787 C   0  0  0  0  0  0  0  0  0  0  0  0
   27.2437  -19.5066   -9.4934 C   0  0  0  0  0  0  0  0  0  0  0  0
   26.8561  -20.9025   -9.9831 C   0  0  2  0  0  0  0  0  0  0  0  0
   28.0086  -21.7633  -10.0552 N   0  0  0  0  0  0  0  0  0  0  0  0
   26.2567  -20.6948  -11.3347 C   0  0  0  0  0  0  0  0  0  0  0  0
   26.8433  -19.9453  -12.1554 O   0  0  0  0  0  0  0  0  0  0  0  0
   26.7440  -20.1775   -7.1803 C   0  0  0  0  0  0  0  0  0  0  0  0
   27.0696  -20.2808   -5.8555 C   0  0  0  0  0  0  0  0  0  0  0  0
   27.7805  -21.7114  -15.2204 N   0  0  0  0  0  0  0  0  0  0  0  0
   26.4655  -22.2558  -15.1930 C   0  0  0  0  0  0  0  0  0  0  0  0
   25.7257  -22.0829  -16.1907 O   0  0  0  0  0  0  0  0  0  0  0  0
   25.9729  -23.0211  -13.9949 C   0  0  0  0  0  0  0  0  0  0  0  0
   24.5987  -22.5820  -13.6093 C   0  0  0  0  0  0  0  0  0  0  0  0
   24.5195  -21.1853  -13.0241 C   0  0  2  0  0  0  0  0  0  0  0  0
   25.0462  -21.3438  -11.6588 N   0  0  0  0  0  0  0  0  0  0  0  0
   23.1570  -20.6676  -12.8762 C   0  0  0  0  0  0  0  0  0  0  0  0
   22.4681  -20.8932  -11.8148 O   0  0  0  0  0  0  0  0  0  0  0  0
   21.4561  -17.4030  -14.7143 O   0  0  0  0  0  0  0  0  0  0  0  0
   20.5828  -18.5173  -14.7154 C   0  0  0  0  0  0  0  0  0  0  0  0
   21.1034  -19.4255  -13.6258 C   0  0  2  0  0  0  0  0  0  0  0  0
   22.4471  -19.8835  -13.8335 N   0  0  0  0  0  0  0  0  0  0  0  0
   20.2022  -20.5988  -13.5739 C   0  0  0  0  0  0  0  0  0  0  0  0
   20.4380  -21.7254  -14.3830 O   0  0  0  0  0  0  0  0  0  0  0  0
   19.2220  -20.5893  -12.8039 O   0  0  0  0  0  0  0  0  0  0  0  0
  2  1  1  0
  3  2  2  0
  4  3  1  0
  5  4  2  0
  5 11  1  0
  6  5  1  0
  7  6  1  0
  7  9  1  0
  7  8  1  6
  9 10  2  0
 11 12  2  0
 12  2  1  0
 14 13  1  0
 15 14  2  0
 16 14  1  0
 17 16  1  0
 18 17  1  1
 19  9  1  0
 19 18  1  0
 20 18  1  0
 20 21  2  0
 22 23  1  0
 24 23  1  6
 24 25  1  0
 25 20  1  0
 26 24  1  0
 26 27  1  0
 28 26  2  0
M  END
$$$$
