YQS.pdb
     RDKit          3D

 28 28  0  0  1  0  0  0  0  0999 V2000
   24.6377  -40.8111  -15.1726 O   0  0  0  0  0  0  0  0  0  0  0  0
   24.9202  -39.8509  -14.2151 C   0  0  0  0  0  0  0  0  0  0  0  0
   23.9172  -38.9970  -13.7454 C   0  0  0  0  0  0  0  0  0  0  0  0
   24.2329  -38.0577  -12.7950 C   0  0  0  0  0  0  0  0  0  0  0  0
   25.4947  -37.9087  -12.2735 C   0  0  0  0  0  0  0  0  0  0  0  0
   25.8424  -36.9018  -11.2616 C   0  0  0  0  0  0  0  0  0  0  0  0
   25.8661  -35.5326  -11.9421 C   0  0  2  0  0  0  0  0  0  0  0  0
   27.0177  -35.4001  -12.7968 N   0  0  0  0  0  0  0  0  0  0  0  0
   25.9077  -34.5386  -10.8287 C   0  0  0  0  0  0  0  0  0  0  0  0
   26.9500  -33.8583  -10.6547 O   0  0  0  0  0  0  0  0  0  0  0  0
   26.4776  -38.7579  -12.7454 C   0  0  0  0  0  0  0  0  0  0  0  0
   26.1860  -39.7013  -13.6925 C   0  0  0  0  0  0  0  0  0  0  0  0
   20.8419  -31.7479   -9.3257 N   0  0  0  0  0  0  0  0  0  0  0  0
   21.8535  -31.1805  -10.1510 C   0  0  0  0  0  0  0  0  0  0  0  0
   21.5166  -30.3374  -11.0161 O   0  0  0  0  0  0  0  0  0  0  0  0
   23.2945  -31.5824   -9.9905 C   0  0  0  0  0  0  0  0  0  0  0  0
   23.4280  -32.7186   -9.0308 C   0  0  0  0  0  0  0  0  0  0  0  0
   24.8113  -33.3365   -8.9671 C   0  0  2  0  0  0  0  0  0  0  0  0
   24.7771  -34.3866   -9.9979 N   0  0  0  0  0  0  0  0  0  0  0  0
   25.1130  -34.0162   -7.7048 C   0  0  0  0  0  0  0  0  0  0  0  0
   24.3877  -34.9883   -7.2796 O   0  0  0  0  0  0  0  0  0  0  0  0
   27.8687  -35.0868   -3.9014 O   0  0  0  0  0  0  0  0  0  0  0  0
   27.8105  -34.2255   -5.0234 C   0  0  0  0  0  0  0  0  0  0  0  0
   26.4297  -34.4278   -5.6028 C   0  0  2  0  0  0  0  0  0  0  0  0
   26.1934  -33.7129   -6.8240 N   0  0  0  0  0  0  0  0  0  0  0  0
   25.4613  -33.9643   -4.5836 C   0  0  0  0  0  0  0  0  0  0  0  0
   24.5821  -32.9001   -4.8558 O   0  0  0  0  0  0  0  0  0  0  0  0
   25.4235  -34.5233   -3.4701 O   0  0  0  0  0  0  0  0  0  0  0  0
  2  1  1  0
  3  2  2  0
  4  3  1  0
  5  4  2  0
  5 11  1  0
  6  5  1  0
  7  6  1  0
  7  9  1  0
  7  8  1  6
  9 10  2  0
 11 12  2  0
 12  2  1  0
 14 13  1  0
 15 14  2  0
 16 14  1  0
 17 16  1  0
 18 17  1  1
 19  9  1  0
 19 18  1  0
 20 18  1  0
 20 21  2  0
 22 23  1  0
 24 23  1  1
 24 25  1  0
 25 20  1  0
 26 24  1  0
 26 27  1  0
 28 26  2  0
M  END
$$$$
