QDF.pdb
     RDKit          3D

 29 29  0  0  1  0  0  0  0  0999 V2000
   29.4093  -22.6131  -15.4603 N   0  0  0  0  0  0  0  0  0  0  0  0
   29.4647  -21.6687  -16.5287 C   0  0  0  0  0  0  0  0  0  0  0  0
   29.7582  -22.1328  -17.6531 O   0  0  0  0  0  0  0  0  0  0  0  0
   29.2055  -20.2482  -16.3564 C   0  0  0  0  0  0  0  0  0  0  0  0
   28.1848  -19.8358  -15.3695 C   0  0  0  0  0  0  0  0  0  0  0  0
   26.8520  -20.5268  -15.4501 C   0  0  2  0  0  0  0  0  0  0  0  0
   26.1265  -20.3478  -16.6658 N   0  0  0  0  0  0  0  0  0  0  0  0
   26.0884  -20.1041  -14.2384 C   0  0  0  0  0  0  0  0  0  0  0  0
   25.8265  -18.8740  -14.1026 O   0  0  0  0  0  0  0  0  0  0  0  0
   25.6315  -20.9668  -13.2241 N   0  0  0  0  0  0  0  0  0  0  0  0
   24.8465  -20.5093  -12.0903 C   0  0  1  0  0  0  0  0  0  0  0  0
   23.4485  -21.0627  -12.1164 C   0  0  0  0  0  0  0  0  0  0  0  0
   22.6009  -20.5977  -10.9962 C   0  0  0  0  0  0  0  0  0  0  0  0
   22.4305  -19.4021  -10.6627 O   0  0  0  0  0  0  0  0  0  0  0  0
   25.4935  -20.9550  -10.8424 C   0  0  0  0  0  0  0  0  0  0  0  0
   25.7981  -22.1602  -10.6882 O   0  0  0  0  0  0  0  0  0  0  0  0
   21.9439  -21.5725  -10.2590 O   0  0  0  0  0  0  0  0  0  0  0  0
   25.7757  -20.0354   -9.8130 N   0  0  0  0  0  0  0  0  0  0  0  0
   26.3737  -20.5148   -8.5700 C   0  0  1  0  0  0  0  0  0  0  0  0
   27.3543  -19.4766   -8.1380 C   0  0  0  0  0  0  0  0  0  0  0  0
   27.9338  -19.7083   -6.8028 C   0  0  0  0  0  0  0  0  0  0  0  0
   28.9353  -20.6214   -6.6561 C   0  0  0  0  0  0  0  0  0  0  0  0
   29.4722  -20.8273   -5.4041 C   0  0  0  0  0  0  0  0  0  0  0  0
   29.0270  -20.1415   -4.3107 C   0  0  0  0  0  0  0  0  0  0  0  0
   28.0111  -19.2172   -4.4674 C   0  0  0  0  0  0  0  0  0  0  0  0
   27.4667  -19.0014   -5.7087 C   0  0  0  0  0  0  0  0  0  0  0  0
   25.3209  -20.7673   -7.5861 C   0  0  0  0  0  0  0  0  0  0  0  0
   25.4647  -21.6069   -6.5035 O   0  0  0  0  0  0  0  0  0  0  0  0
   24.1831  -20.1977   -7.6968 O   0  0  0  0  0  0  0  0  0  0  0  0
  2  3  2  0
  2  1  1  0
  4  2  1  0
  5  4  1  0
  5  6  1  0
  6  8  1  0
  6  7  1  6
  8  9  2  0
 10 11  1  0
 10  8  1  0
 11 12  1  6
 13 12  1  0
 14 13  2  0
 15 11  1  0
 15 16  2  0
 17 13  1  0
 18 15  1  0
 19 18  1  0
 19 27  1  0
 19 20  1  1
 21 20  1  0
 22 21  2  0
 23 22  1  0
 24 23  2  0
 24 25  1  0
 25 26  2  0
 26 21  1  0
 27 28  1  0
 29 27  2  0
M  END
$$$$
