QDF.pdb
     RDKit          3D

 29 29  0  0  1  0  0  0  0  0999 V2000
   29.1434  -22.3804  -15.3123 N   0  0  0  0  0  0  0  0  0  0  0  0
   28.7649  -21.1729  -15.9721 C   0  0  0  0  0  0  0  0  0  0  0  0
   28.1346  -21.3111  -17.0443 O   0  0  0  0  0  0  0  0  0  0  0  0
   29.0785  -19.8484  -15.4606 C   0  0  0  0  0  0  0  0  0  0  0  0
   28.1360  -19.2224  -14.5090 C   0  0  0  0  0  0  0  0  0  0  0  0
   26.6710  -19.3963  -14.7990 C   0  0  2  0  0  0  0  0  0  0  0  0
   26.1066  -18.4844  -15.7402 N   0  0  0  0  0  0  0  0  0  0  0  0
   25.9789  -19.3839  -13.4758 C   0  0  0  0  0  0  0  0  0  0  0  0
   25.8433  -18.2716  -12.8887 O   0  0  0  0  0  0  0  0  0  0  0  0
   25.4601  -20.5162  -12.8196 N   0  0  0  0  0  0  0  0  0  0  0  0
   24.7416  -20.4402  -11.5591 C   0  0  1  0  0  0  0  0  0  0  0  0
   23.5392  -21.3432  -11.5439 C   0  0  0  0  0  0  0  0  0  0  0  0
   22.3304  -20.7387  -12.1464 C   0  0  0  0  0  0  0  0  0  0  0  0
   21.8043  -19.6589  -11.7900 O   0  0  0  0  0  0  0  0  0  0  0  0
   25.6395  -20.8528  -10.4645 C   0  0  0  0  0  0  0  0  0  0  0  0
   26.3651  -21.8655  -10.5950 O   0  0  0  0  0  0  0  0  0  0  0  0
   21.7364  -21.4310  -13.1920 O   0  0  0  0  0  0  0  0  0  0  0  0
   25.6921  -20.1169   -9.2644 N   0  0  0  0  0  0  0  0  0  0  0  0
   26.5575  -20.5761   -8.1814 C   0  0  1  0  0  0  0  0  0  0  0  0
   27.3624  -19.3973   -7.7470 C   0  0  0  0  0  0  0  0  0  0  0  0
   28.1334  -19.6124   -6.5095 C   0  0  0  0  0  0  0  0  0  0  0  0
   27.8968  -18.8196   -5.4261 C   0  0  0  0  0  0  0  0  0  0  0  0
   28.6207  -19.0319   -4.2732 C   0  0  0  0  0  0  0  0  0  0  0  0
   29.5659  -20.0136   -4.1900 C   0  0  0  0  0  0  0  0  0  0  0  0
   29.8001  -20.8136   -5.2927 C   0  0  0  0  0  0  0  0  0  0  0  0
   29.0865  -20.6137   -6.4480 C   0  0  0  0  0  0  0  0  0  0  0  0
   25.7405  -21.1498   -7.1121 C   0  0  0  0  0  0  0  0  0  0  0  0
   26.2450  -21.9180   -6.0859 O   0  0  0  0  0  0  0  0  0  0  0  0
   24.4786  -20.9538   -7.0872 O   0  0  0  0  0  0  0  0  0  0  0  0
  2  3  2  0
  2  1  1  0
  4  2  1  0
  5  4  1  0
  5  6  1  0
  6  8  1  0
  6  7  1  6
  8  9  2  0
 10 11  1  0
 10  8  1  0
 11 12  1  6
 13 12  1  0
 14 13  2  0
 15 11  1  0
 15 16  2  0
 17 13  1  0
 18 15  1  0
 19 18  1  0
 19 27  1  0
 19 20  1  1
 21 20  1  0
 22 21  2  0
 23 22  1  0
 24 23  2  0
 24 25  1  0
 25 26  2  0
 26 21  1  0
 27 28  1  0
 29 27  2  0
M  END
$$$$
