QDF.pdb
     RDKit          3D

 29 29  0  0  1  0  0  0  0  0999 V2000
   10.7696  -10.4176  -10.1398 N   0  0  0  0  0  0  0  0  0  0  0  0
   10.7485  -11.7010  -10.7636 C   0  0  0  0  0  0  0  0  0  0  0  0
    9.8788  -12.4973  -10.3449 O   0  0  0  0  0  0  0  0  0  0  0  0
   11.6676  -12.0934  -11.8199 C   0  0  0  0  0  0  0  0  0  0  0  0
   12.6611  -11.1040  -12.2890 C   0  0  0  0  0  0  0  0  0  0  0  0
   13.9779  -11.6476  -12.7695 C   0  0  2  0  0  0  0  0  0  0  0  0
   14.2286  -13.0233  -12.4852 N   0  0  0  0  0  0  0  0  0  0  0  0
   15.0285  -10.7322  -12.2327 C   0  0  0  0  0  0  0  0  0  0  0  0
   15.5243  -10.9992  -11.0999 O   0  0  0  0  0  0  0  0  0  0  0  0
   15.5184   -9.5856  -12.8863 N   0  0  0  0  0  0  0  0  0  0  0  0
   16.5804   -8.7572  -12.3416 C   0  0  1  0  0  0  0  0  0  0  0  0
   17.4733   -8.2093  -13.4205 C   0  0  0  0  0  0  0  0  0  0  0  0
   18.2986   -9.2374  -14.0923 C   0  0  0  0  0  0  0  0  0  0  0  0
   19.1615   -9.9541  -13.5341 O   0  0  0  0  0  0  0  0  0  0  0  0
   15.9837   -7.6195  -11.6177 C   0  0  0  0  0  0  0  0  0  0  0  0
   15.0336   -6.9803  -12.1254 O   0  0  0  0  0  0  0  0  0  0  0  0
   18.0940   -9.4166  -15.4529 O   0  0  0  0  0  0  0  0  0  0  0  0
   16.4724   -7.2392  -10.3522 N   0  0  0  0  0  0  0  0  0  0  0  0
   15.8545   -6.1142   -9.6556 C   0  0  1  0  0  0  0  0  0  0  0  0
   15.5498   -6.5821   -8.2720 C   0  0  0  0  0  0  0  0  0  0  0  0
   14.2840   -7.3271   -8.1489 C   0  0  0  0  0  0  0  0  0  0  0  0
   13.1455   -6.6614   -7.8043 C   0  0  0  0  0  0  0  0  0  0  0  0
   11.9671   -7.3670   -7.6956 C   0  0  0  0  0  0  0  0  0  0  0  0
   11.9125   -8.7120   -7.9239 C   0  0  0  0  0  0  0  0  0  0  0  0
   13.0713   -9.3801   -8.2730 C   0  0  0  0  0  0  0  0  0  0  0  0
   14.2525   -8.6902   -8.3851 C   0  0  0  0  0  0  0  0  0  0  0  0
   16.7530   -4.9605   -9.6961 C   0  0  0  0  0  0  0  0  0  0  0  0
   16.4091   -3.7015   -9.2553 O   0  0  0  0  0  0  0  0  0  0  0  0
   17.9371   -5.0797  -10.1600 O   0  0  0  0  0  0  0  0  0  0  0  0
  2  3  2  0
  2  1  1  0
  4  2  1  0
  5  4  1  0
  5  6  1  0
  6  8  1  0
  6  7  1  1
  8  9  2  0
 10 11  1  0
 10  8  1  0
 11 12  1  6
 13 12  1  0
 14 13  2  0
 15 11  1  0
 15 16  2  0
 17 13  1  0
 18 15  1  0
 19 18  1  0
 19 27  1  0
 19 20  1  1
 21 20  1  0
 22 21  2  0
 23 22  1  0
 24 23  2  0
 24 25  1  0
 25 26  2  0
 26 21  1  0
 27 28  1  0
 29 27  2  0
M  END
$$$$
