QDF.pdb
     RDKit          3D

 29 29  0  0  1  0  0  0  0  0999 V2000
   26.1905  -16.0064  -16.0797 N   0  0  0  0  0  0  0  0  0  0  0  0
   27.6154  -15.9969  -16.1593 C   0  0  0  0  0  0  0  0  0  0  0  0
   28.1071  -15.2790  -17.0586 O   0  0  0  0  0  0  0  0  0  0  0  0
   28.4725  -16.7639  -15.2697 C   0  0  0  0  0  0  0  0  0  0  0  0
   27.8386  -17.5504  -14.1901 C   0  0  0  0  0  0  0  0  0  0  0  0
   27.0490  -18.7585  -14.6113 C   0  0  2  0  0  0  0  0  0  0  0  0
   26.2085  -18.5906  -15.7521 N   0  0  0  0  0  0  0  0  0  0  0  0
   26.3124  -19.2203  -13.3972 C   0  0  0  0  0  0  0  0  0  0  0  0
   25.4326  -18.4526  -12.9106 O   0  0  0  0  0  0  0  0  0  0  0  0
   26.5165  -20.4491  -12.7414 N   0  0  0  0  0  0  0  0  0  0  0  0
   25.6370  -20.9438  -11.6960 C   0  0  1  0  0  0  0  0  0  0  0  0
   25.1330  -22.3285  -11.9960 C   0  0  0  0  0  0  0  0  0  0  0  0
   24.4112  -22.4356  -13.2833 C   0  0  0  0  0  0  0  0  0  0  0  0
   23.5173  -21.6532  -13.6815 O   0  0  0  0  0  0  0  0  0  0  0  0
   26.3783  -20.9910  -10.4221 C   0  0  0  0  0  0  0  0  0  0  0  0
   27.6294  -21.0536  -10.4251 O   0  0  0  0  0  0  0  0  0  0  0  0
   24.7588  -23.4926  -14.1123 O   0  0  0  0  0  0  0  0  0  0  0  0
   25.6921  -20.9663   -9.1920 N   0  0  0  0  0  0  0  0  0  0  0  0
   26.4467  -21.1047   -7.9494 C   0  0  1  0  0  0  0  0  0  0  0  0
   27.4264  -19.9799   -7.9156 C   0  0  0  0  0  0  0  0  0  0  0  0
   28.1520  -19.8462   -6.6397 C   0  0  0  0  0  0  0  0  0  0  0  0
   27.8611  -18.8052   -5.8091 C   0  0  0  0  0  0  0  0  0  0  0  0
   28.5429  -18.6919   -4.6173 C   0  0  0  0  0  0  0  0  0  0  0  0
   29.4996  -19.5939   -4.2494 C   0  0  0  0  0  0  0  0  0  0  0  0
   29.7891  -20.6469   -5.0969 C   0  0  0  0  0  0  0  0  0  0  0  0
   29.1178  -20.7725   -6.2875 C   0  0  0  0  0  0  0  0  0  0  0  0
   25.5239  -21.1081   -6.8143 C   0  0  0  0  0  0  0  0  0  0  0  0
   25.8284  -21.6303   -5.5764 O   0  0  0  0  0  0  0  0  0  0  0  0
   24.3543  -20.6082   -6.9310 O   0  0  0  0  0  0  0  0  0  0  0  0
  2  3  2  0
  2  1  1  0
  4  2  1  0
  5  4  1  0
  5  6  1  0
  6  8  1  0
  6  7  1  6
  8  9  2  0
 10 11  1  0
 10  8  1  0
 11 12  1  6
 13 12  1  0
 14 13  2  0
 15 11  1  0
 15 16  2  0
 17 13  1  0
 18 15  1  0
 19 18  1  0
 19 27  1  0
 19 20  1  1
 21 20  1  0
 22 21  2  0
 23 22  1  0
 24 23  2  0
 24 25  1  0
 25 26  2  0
 26 21  1  0
 27 28  1  0
 29 27  2  0
M  END
$$$$
