QDF.pdb
     RDKit          3D

 29 29  0  0  1  0  0  0  0  0999 V2000
   32.2104  -25.3163  -15.6672 N   0  0  0  0  0  0  0  0  0  0  0  0
   32.0851  -25.1147  -17.0744 C   0  0  0  0  0  0  0  0  0  0  0  0
   32.6228  -25.9808  -17.8001 O   0  0  0  0  0  0  0  0  0  0  0  0
   31.3863  -23.9831  -17.6624 C   0  0  0  0  0  0  0  0  0  0  0  0
   30.6962  -23.0381  -16.7588 C   0  0  0  0  0  0  0  0  0  0  0  0
   29.2923  -23.3949  -16.3558 C   0  0  2  0  0  0  0  0  0  0  0  0
   28.4112  -23.7637  -17.4158 N   0  0  0  0  0  0  0  0  0  0  0  0
   28.7885  -22.2505  -15.5395 C   0  0  0  0  0  0  0  0  0  0  0  0
   29.6122  -21.6483  -14.7918 O   0  0  0  0  0  0  0  0  0  0  0  0
   27.4614  -21.7807  -15.5309 N   0  0  0  0  0  0  0  0  0  0  0  0
   27.0129  -20.6918  -14.6800 C   0  0  1  0  0  0  0  0  0  0  0  0
   26.4071  -19.5701  -15.4775 C   0  0  0  0  0  0  0  0  0  0  0  0
   27.3941  -18.7900  -16.2566 C   0  0  0  0  0  0  0  0  0  0  0  0
   28.0865  -17.8452  -15.8119 O   0  0  0  0  0  0  0  0  0  0  0  0
   25.9889  -21.1969  -13.7469 C   0  0  0  0  0  0  0  0  0  0  0  0
   25.0081  -21.8443  -14.1806 O   0  0  0  0  0  0  0  0  0  0  0  0
   27.5607  -19.1399  -17.5889 O   0  0  0  0  0  0  0  0  0  0  0  0
   26.1003  -20.9590  -12.3627 N   0  0  0  0  0  0  0  0  0  0  0  0
   25.0502  -21.4382  -11.4681 C   0  0  1  0  0  0  0  0  0  0  0  0
   25.7344  -22.1217  -10.3319 C   0  0  0  0  0  0  0  0  0  0  0  0
   26.5854  -21.2370   -9.5161 C   0  0  0  0  0  0  0  0  0  0  0  0
   26.0032  -20.3266   -8.6852 C   0  0  0  0  0  0  0  0  0  0  0  0
   26.8083  -19.5072   -7.9245 C   0  0  0  0  0  0  0  0  0  0  0  0
   28.1701  -19.5849   -7.9825 C   0  0  0  0  0  0  0  0  0  0  0  0
   28.7532  -20.5107   -8.8273 C   0  0  0  0  0  0  0  0  0  0  0  0
   27.9638  -21.3337   -9.5911 C   0  0  0  0  0  0  0  0  0  0  0  0
   24.2113  -20.3142  -11.0521 C   0  0  0  0  0  0  0  0  0  0  0  0
   24.5131  -18.9940  -11.3043 O   0  0  0  0  0  0  0  0  0  0  0  0
   23.1245  -20.5208  -10.4137 O   0  0  0  0  0  0  0  0  0  0  0  0
  2  3  2  0
  2  1  1  0
  4  2  1  0
  5  4  1  0
  5  6  1  0
  6  8  1  0
  6  7  1  6
  8  9  2  0
 10 11  1  0
 10  8  1  0
 11 12  1  6
 13 12  1  0
 14 13  2  0
 15 11  1  0
 15 16  2  0
 17 13  1  0
 18 15  1  0
 19 18  1  0
 19 27  1  0
 19 20  1  1
 21 20  1  0
 22 21  2  0
 23 22  1  0
 24 23  2  0
 24 25  1  0
 25 26  2  0
 26 21  1  0
 27 28  1  0
 29 27  2  0
M  END
$$$$
