QDF.pdb
     RDKit          3D

 29 29  0  0  1  0  0  0  0  0999 V2000
   30.3653  -22.0519  -20.3577 N   0  0  0  0  0  0  0  0  0  0  0  0
   31.1488  -23.0671  -19.7316 C   0  0  0  0  0  0  0  0  0  0  0  0
   31.9173  -23.7059  -20.4848 O   0  0  0  0  0  0  0  0  0  0  0  0
   31.0811  -23.3691  -18.3108 C   0  0  0  0  0  0  0  0  0  0  0  0
   30.1351  -22.6004  -17.4743 C   0  0  0  0  0  0  0  0  0  0  0  0
   28.8567  -23.2936  -17.0924 C   0  0  2  0  0  0  0  0  0  0  0  0
   28.1961  -24.0080  -18.1361 N   0  0  0  0  0  0  0  0  0  0  0  0
   27.9957  -22.2572  -16.4487 C   0  0  0  0  0  0  0  0  0  0  0  0
   28.5093  -21.5406  -15.5415 O   0  0  0  0  0  0  0  0  0  0  0  0
   26.6476  -22.0079  -16.7684 N   0  0  0  0  0  0  0  0  0  0  0  0
   25.8878  -20.9109  -16.1937 C   0  0  1  0  0  0  0  0  0  0  0  0
   25.4909  -19.8990  -17.2329 C   0  0  0  0  0  0  0  0  0  0  0  0
   26.6369  -19.1944  -17.8491 C   0  0  0  0  0  0  0  0  0  0  0  0
   27.0309  -19.3430  -19.0292 O   0  0  0  0  0  0  0  0  0  0  0  0
   24.6582  -21.4437  -15.5785 C   0  0  0  0  0  0  0  0  0  0  0  0
   23.9581  -22.2795  -16.1954 O   0  0  0  0  0  0  0  0  0  0  0  0
   27.3272  -18.2967  -17.0473 O   0  0  0  0  0  0  0  0  0  0  0  0
   24.2573  -21.0216  -14.2956 N   0  0  0  0  0  0  0  0  0  0  0  0
   23.0297  -21.5605  -13.7166 C   0  0  1  0  0  0  0  0  0  0  0  0
   23.4425  -22.4782  -12.6150 C   0  0  0  0  0  0  0  0  0  0  0  0
   24.3139  -21.8561  -11.6021 C   0  0  0  0  0  0  0  0  0  0  0  0
   23.7545  -21.1472  -10.5810 C   0  0  0  0  0  0  0  0  0  0  0  0
   24.5783  -20.5729   -9.6378 C   0  0  0  0  0  0  0  0  0  0  0  0
   25.9365  -20.6963   -9.7009 C   0  0  0  0  0  0  0  0  0  0  0  0
   26.4965  -21.4167  -10.7393 C   0  0  0  0  0  0  0  0  0  0  0  0
   25.6882  -21.9944  -11.6862 C   0  0  0  0  0  0  0  0  0  0  0  0
   22.1756  -20.4603  -13.2693 C   0  0  0  0  0  0  0  0  0  0  0  0
   22.5547  -19.1360  -13.2858 O   0  0  0  0  0  0  0  0  0  0  0  0
   20.9997  -20.6934  -12.8285 O   0  0  0  0  0  0  0  0  0  0  0  0
  2  3  2  0
  2  1  1  0
  4  2  1  0
  5  4  1  0
  5  6  1  0
  6  8  1  0
  6  7  1  6
  8  9  2  0
 10 11  1  0
 10  8  1  0
 11 12  1  6
 13 12  1  0
 14 13  2  0
 15 11  1  0
 15 16  2  0
 17 13  1  0
 18 15  1  0
 19 18  1  0
 19 27  1  0
 19 20  1  1
 21 20  1  0
 22 21  2  0
 23 22  1  0
 24 23  2  0
 24 25  1  0
 25 26  2  0
 26 21  1  0
 27 28  1  0
 29 27  2  0
M  END
$$$$
