QDF.pdb
     RDKit          3D

 29 29  0  0  1  0  0  0  0  0999 V2000
   29.4196  -22.8720  -15.6953 N   0  0  0  0  0  0  0  0  0  0  0  0
   29.2668  -21.5949  -16.3137 C   0  0  0  0  0  0  0  0  0  0  0  0
   28.8808  -21.6073  -17.5039 O   0  0  0  0  0  0  0  0  0  0  0  0
   29.5371  -20.3383  -15.6338 C   0  0  0  0  0  0  0  0  0  0  0  0
   28.5227  -19.8171  -14.6929 C   0  0  0  0  0  0  0  0  0  0  0  0
   27.0861  -19.9272  -15.1223 C   0  0  2  0  0  0  0  0  0  0  0  0
   26.6918  -19.0913  -16.2094 N   0  0  0  0  0  0  0  0  0  0  0  0
   26.2654  -19.7227  -13.8916 C   0  0  0  0  0  0  0  0  0  0  0  0
   26.2221  -18.5601  -13.3950 O   0  0  0  0  0  0  0  0  0  0  0  0
   25.5293  -20.7240  -13.2303 N   0  0  0  0  0  0  0  0  0  0  0  0
   24.7377  -20.4679  -12.0391 C   0  0  1  0  0  0  0  0  0  0  0  0
   23.4211  -21.1936  -12.0742 C   0  0  0  0  0  0  0  0  0  0  0  0
   22.5132  -20.8382  -10.9612 C   0  0  0  0  0  0  0  0  0  0  0  0
   22.7224  -19.9407  -10.1123 O   0  0  0  0  0  0  0  0  0  0  0  0
   25.4842  -20.9282  -10.8537 C   0  0  0  0  0  0  0  0  0  0  0  0
   26.0476  -22.0470  -10.8612 O   0  0  0  0  0  0  0  0  0  0  0  0
   21.3348  -21.5632  -10.8558 O   0  0  0  0  0  0  0  0  0  0  0  0
   25.5728  -20.1193   -9.7036 N   0  0  0  0  0  0  0  0  0  0  0  0
   26.3493  -20.5869   -8.5586 C   0  0  1  0  0  0  0  0  0  0  0  0
   27.2377  -19.4585   -8.1539 C   0  0  0  0  0  0  0  0  0  0  0  0
   27.9265  -19.6609   -6.8667 C   0  0  0  0  0  0  0  0  0  0  0  0
   29.0435  -20.4409   -6.8197 C   0  0  0  0  0  0  0  0  0  0  0  0
   29.6815  -20.6203   -5.6118 C   0  0  0  0  0  0  0  0  0  0  0  0
   29.2237  -20.0378   -4.4650 C   0  0  0  0  0  0  0  0  0  0  0  0
   28.0904  -19.2482   -4.5206 C   0  0  0  0  0  0  0  0  0  0  0  0
   27.4444  -19.0605   -5.7170 C   0  0  0  0  0  0  0  0  0  0  0  0
   25.4420  -21.0239   -7.4975 C   0  0  0  0  0  0  0  0  0  0  0  0
   25.7881  -21.9188   -6.5092 O   0  0  0  0  0  0  0  0  0  0  0  0
   24.2471  -20.5757   -7.4440 O   0  0  0  0  0  0  0  0  0  0  0  0
  2  3  2  0
  2  1  1  0
  4  2  1  0
  5  4  1  0
  5  6  1  0
  6  8  1  0
  6  7  1  6
  8  9  2  0
 10 11  1  0
 10  8  1  0
 11 12  1  6
 13 12  1  0
 14 13  2  0
 15 11  1  0
 15 16  2  0
 17 13  1  0
 18 15  1  0
 19 18  1  0
 19 27  1  0
 19 20  1  1
 21 20  1  0
 22 21  2  0
 23 22  1  0
 24 23  2  0
 24 25  1  0
 25 26  2  0
 26 21  1  0
 27 28  1  0
 29 27  2  0
M  END
$$$$
