QDF.pdb
     RDKit          3D

 29 29  0  0  1  0  0  0  0  0999 V2000
   16.1414  -14.9068  -13.2813 N   0  0  0  0  0  0  0  0  0  0  0  0
   15.0409  -14.7901  -14.1822 C   0  0  0  0  0  0  0  0  0  0  0  0
   14.0286  -15.4689  -13.8985 O   0  0  0  0  0  0  0  0  0  0  0  0
   15.0615  -13.9473  -15.3670 C   0  0  0  0  0  0  0  0  0  0  0  0
   16.2560  -13.1116  -15.6130 C   0  0  0  0  0  0  0  0  0  0  0  0
   16.2401  -12.2623  -16.8536 C   0  0  2  0  0  0  0  0  0  0  0  0
   16.1569  -12.9653  -18.0925 N   0  0  0  0  0  0  0  0  0  0  0  0
   17.4308  -11.3659  -16.7614 C   0  0  0  0  0  0  0  0  0  0  0  0
   18.5579  -11.8985  -16.5464 O   0  0  0  0  0  0  0  0  0  0  0  0
   17.4051   -9.9646  -16.8941 N   0  0  0  0  0  0  0  0  0  0  0  0
   18.6039   -9.1444  -16.8599 C   0  0  1  0  0  0  0  0  0  0  0  0
   18.6206   -8.1295  -17.9695 C   0  0  0  0  0  0  0  0  0  0  0  0
   18.6165   -8.7251  -19.3240 C   0  0  0  0  0  0  0  0  0  0  0  0
   19.4739   -9.5233  -19.7685 O   0  0  0  0  0  0  0  0  0  0  0  0
   18.6594   -8.4217  -15.5758 C   0  0  0  0  0  0  0  0  0  0  0  0
   17.6082   -8.2086  -14.9287 O   0  0  0  0  0  0  0  0  0  0  0  0
   17.5736   -8.3650  -20.1654 O   0  0  0  0  0  0  0  0  0  0  0  0
   19.8894   -7.9642  -15.0631 N   0  0  0  0  0  0  0  0  0  0  0  0
   19.9129   -7.2577  -13.7853 C   0  0  1  0  0  0  0  0  0  0  0  0
   21.1755   -7.6575  -13.0980 C   0  0  0  0  0  0  0  0  0  0  0  0
   22.3856   -7.5279  -13.9294 C   0  0  0  0  0  0  0  0  0  0  0  0
   22.9745   -8.6484  -14.4350 C   0  0  0  0  0  0  0  0  0  0  0  0
   24.1031   -8.5154  -15.2139 C   0  0  0  0  0  0  0  0  0  0  0  0
   24.6439   -7.2926  -15.4905 C   0  0  0  0  0  0  0  0  0  0  0  0
   24.0411   -6.1609  -14.9743 C   0  0  0  0  0  0  0  0  0  0  0  0
   22.9161   -6.2781  -14.1967 C   0  0  0  0  0  0  0  0  0  0  0  0
   19.8082   -5.8176  -14.0203 C   0  0  0  0  0  0  0  0  0  0  0  0
   19.6362   -4.8852  -13.0210 O   0  0  0  0  0  0  0  0  0  0  0  0
   19.8742   -5.3503  -15.2072 O   0  0  0  0  0  0  0  0  0  0  0  0
  2  3  2  0
  2  1  1  0
  4  2  1  0
  5  4  1  0
  5  6  1  0
  6  8  1  0
  6  7  1  6
  8  9  2  0
 10 11  1  0
 10  8  1  0
 11 12  1  6
 13 12  1  0
 14 13  2  0
 15 11  1  0
 15 16  2  0
 17 13  1  0
 18 15  1  0
 19 18  1  0
 19 27  1  0
 19 20  1  6
 21 20  1  0
 22 21  2  0
 23 22  1  0
 24 23  2  0
 24 25  1  0
 25 26  2  0
 26 21  1  0
 27 28  1  0
 29 27  2  0
M  END
$$$$
