QDF.pdb
     RDKit          3D

 29 29  0  0  1  0  0  0  0  0999 V2000
   17.3578  -20.8433    3.2376 N   0  0  0  0  0  0  0  0  0  0  0  0
   17.3631  -20.1403    1.9956 C   0  0  0  0  0  0  0  0  0  0  0  0
   17.4897  -20.8455    0.9697 O   0  0  0  0  0  0  0  0  0  0  0  0
   17.2350  -18.6955    1.8924 C   0  0  0  0  0  0  0  0  0  0  0  0
   17.0887  -17.9132    3.1384 C   0  0  0  0  0  0  0  0  0  0  0  0
   15.7588  -17.9978    3.8347 C   0  0  2  0  0  0  0  0  0  0  0  0
   14.6396  -17.4884    3.1108 N   0  0  0  0  0  0  0  0  0  0  0  0
   15.9438  -17.3521    5.1683 C   0  0  0  0  0  0  0  0  0  0  0  0
   15.5863  -16.1455    5.2969 O   0  0  0  0  0  0  0  0  0  0  0  0
   16.4882  -17.9782    6.3057 N   0  0  0  0  0  0  0  0  0  0  0  0
   16.4831  -17.3673    7.6239 C   0  0  1  0  0  0  0  0  0  0  0  0
   16.6027  -18.3926    8.7174 C   0  0  0  0  0  0  0  0  0  0  0  0
   16.3835  -17.8463   10.0751 C   0  0  0  0  0  0  0  0  0  0  0  0
   15.9348  -16.7057   10.3348 O   0  0  0  0  0  0  0  0  0  0  0  0
   17.6272  -16.4434    7.7336 C   0  0  0  0  0  0  0  0  0  0  0  0
   18.7323  -16.7491    7.2291 O   0  0  0  0  0  0  0  0  0  0  0  0
   16.7038  -18.6717   11.1435 O   0  0  0  0  0  0  0  0  0  0  0  0
   17.4922  -15.2115    8.4037 N   0  0  0  0  0  0  0  0  0  0  0  0
   18.6177  -14.2811    8.4232 C   0  0  1  0  0  0  0  0  0  0  0  0
   18.0840  -12.9542    7.9981 C   0  0  0  0  0  0  0  0  0  0  0  0
   18.2584  -12.6619    6.5641 C   0  0  0  0  0  0  0  0  0  0  0  0
   19.3761  -12.0034    6.1454 C   0  0  0  0  0  0  0  0  0  0  0  0
   19.5306  -11.7385    4.8023 C   0  0  0  0  0  0  0  0  0  0  0  0
   18.5945  -12.1183    3.8837 C   0  0  0  0  0  0  0  0  0  0  0  0
   17.4637  -12.7858    4.3159 C   0  0  0  0  0  0  0  0  0  0  0  0
   17.2964  -13.0565    5.6510 C   0  0  0  0  0  0  0  0  0  0  0  0
   19.2182  -14.2676    9.7571 C   0  0  0  0  0  0  0  0  0  0  0  0
   20.3934  -13.6184   10.0654 O   0  0  0  0  0  0  0  0  0  0  0  0
   18.6550  -14.8811   10.7255 O   0  0  0  0  0  0  0  0  0  0  0  0
  2  3  2  0
  2  1  1  0
  4  2  1  0
  5  4  1  0
  5  6  1  0
  6  8  1  0
  6  7  1  6
  8  9  2  0
 10 11  1  0
 10  8  1  0
 11 12  1  1
 13 12  1  0
 14 13  2  0
 15 11  1  0
 15 16  2  0
 17 13  1  0
 18 15  1  0
 19 18  1  0
 19 27  1  0
 19 20  1  1
 21 20  1  0
 22 21  2  0
 23 22  1  0
 24 23  2  0
 24 25  1  0
 25 26  2  0
 26 21  1  0
 27 28  1  0
 29 27  2  0
M  END
$$$$
