QDF.pdb
     RDKit          3D

 29 29  0  0  1  0  0  0  0  0999 V2000
   22.3413  -25.5172  -17.0988 N   0  0  0  0  0  0  0  0  0  0  0  0
   22.6377  -26.9092  -16.9932 C   0  0  0  0  0  0  0  0  0  0  0  0
   21.7966  -27.6862  -17.4979 O   0  0  0  0  0  0  0  0  0  0  0  0
   23.8311  -27.4271  -16.3436 C   0  0  0  0  0  0  0  0  0  0  0  0
   24.8392  -26.4620  -15.8556 C   0  0  0  0  0  0  0  0  0  0  0  0
   26.0179  -26.2072  -16.7535 C   0  0  2  0  0  0  0  0  0  0  0  0
   27.0963  -27.1358  -16.6497 N   0  0  0  0  0  0  0  0  0  0  0  0
   26.4302  -24.7928  -16.5102 C   0  0  0  0  0  0  0  0  0  0  0  0
   27.3791  -24.5835  -15.7003 O   0  0  0  0  0  0  0  0  0  0  0  0
   25.8465  -23.6614  -17.1111 N   0  0  0  0  0  0  0  0  0  0  0  0
   26.2954  -22.3050  -16.8473 C   0  0  1  0  0  0  0  0  0  0  0  0
   26.3383  -21.4750  -18.1005 C   0  0  0  0  0  0  0  0  0  0  0  0
   27.4861  -21.7831  -18.9821 C   0  0  0  0  0  0  0  0  0  0  0  0
   28.6919  -21.6022  -18.6936 O   0  0  0  0  0  0  0  0  0  0  0  0
   25.3636  -21.6620  -15.9024 C   0  0  0  0  0  0  0  0  0  0  0  0
   24.1820  -22.0677  -15.8109 O   0  0  0  0  0  0  0  0  0  0  0  0
   27.1947  -22.3160  -20.2296 O   0  0  0  0  0  0  0  0  0  0  0  0
   25.7886  -20.5888  -15.0947 N   0  0  0  0  0  0  0  0  0  0  0  0
   24.8539  -19.9978  -14.1409 C   0  0  1  0  0  0  0  0  0  0  0  0
   25.6737  -19.2398  -13.1513 C   0  0  0  0  0  0  0  0  0  0  0  0
   25.9704  -19.9831  -11.9136 C   0  0  0  0  0  0  0  0  0  0  0  0
   27.1965  -20.5570  -11.7541 C   0  0  0  0  0  0  0  0  0  0  0  0
   27.4642  -21.2464  -10.5916 C   0  0  0  0  0  0  0  0  0  0  0  0
   26.5344  -21.3681   -9.5992 C   0  0  0  0  0  0  0  0  0  0  0  0
   25.2933  -20.7833   -9.7683 C   0  0  0  0  0  0  0  0  0  0  0  0
   25.0125  -20.0934  -10.9211 C   0  0  0  0  0  0  0  0  0  0  0  0
   23.8864  -19.1653  -14.8558 C   0  0  0  0  0  0  0  0  0  0  0  0
   24.0121  -18.8030  -16.1788 O   0  0  0  0  0  0  0  0  0  0  0  0
   22.8473  -18.7245  -14.2580 O   0  0  0  0  0  0  0  0  0  0  0  0
  2  3  2  0
  2  1  1  0
  4  2  1  0
  5  4  1  0
  5  6  1  0
  6  8  1  0
  6  7  1  1
  8  9  2  0
 10 11  1  0
 10  8  1  0
 11 12  1  6
 13 12  1  0
 14 13  2  0
 15 11  1  0
 15 16  2  0
 17 13  1  0
 18 15  1  0
 19 18  1  0
 19 27  1  0
 19 20  1  1
 21 20  1  0
 22 21  2  0
 23 22  1  0
 24 23  2  0
 24 25  1  0
 25 26  2  0
 26 21  1  0
 27 28  1  0
 29 27  2  0
M  END
$$$$
