QDF.pdb
     RDKit          3D

 29 29  0  0  1  0  0  0  0  0999 V2000
   23.9892  -15.9816  -15.7392 N   0  0  0  0  0  0  0  0  0  0  0  0
   25.0713  -15.1063  -15.4240 C   0  0  0  0  0  0  0  0  0  0  0  0
   24.7747  -13.8982  -15.2888 O   0  0  0  0  0  0  0  0  0  0  0  0
   26.4452  -15.5558  -15.2661 C   0  0  0  0  0  0  0  0  0  0  0  0
   26.7467  -16.9848  -15.4956 C   0  0  0  0  0  0  0  0  0  0  0  0
   27.6453  -17.6532  -14.4925 C   0  0  2  0  0  0  0  0  0  0  0  0
   28.7404  -18.3942  -15.0289 N   0  0  0  0  0  0  0  0  0  0  0  0
   26.7556  -18.4674  -13.6119 C   0  0  0  0  0  0  0  0  0  0  0  0
   25.8138  -17.8742  -13.0106 O   0  0  0  0  0  0  0  0  0  0  0  0
   26.8775  -19.8524  -13.3914 N   0  0  0  0  0  0  0  0  0  0  0  0
   25.9800  -20.5979  -12.5254 C   0  0  1  0  0  0  0  0  0  0  0  0
   25.7272  -21.9871  -13.0428 C   0  0  0  0  0  0  0  0  0  0  0  0
   24.7284  -22.7447  -12.2566 C   0  0  0  0  0  0  0  0  0  0  0  0
   24.0625  -22.2896  -11.2978 O   0  0  0  0  0  0  0  0  0  0  0  0
   26.5835  -20.7100  -11.1846 C   0  0  0  0  0  0  0  0  0  0  0  0
   27.7497  -21.1484  -11.0550 O   0  0  0  0  0  0  0  0  0  0  0  0
   24.5176  -24.0679  -12.6173 O   0  0  0  0  0  0  0  0  0  0  0  0
   25.8594  -20.3274  -10.0383 N   0  0  0  0  0  0  0  0  0  0  0  0
   26.3842  -20.6606   -8.7168 C   0  0  1  0  0  0  0  0  0  0  0  0
   27.3921  -19.6134   -8.3797 C   0  0  0  0  0  0  0  0  0  0  0  0
   27.9351  -19.7122   -7.0130 C   0  0  0  0  0  0  0  0  0  0  0  0
   27.7452  -18.6824   -6.1403 C   0  0  0  0  0  0  0  0  0  0  0  0
   28.2539  -18.7870   -4.8642 C   0  0  0  0  0  0  0  0  0  0  0  0
   28.9411  -19.8932   -4.4541 C   0  0  0  0  0  0  0  0  0  0  0  0
   29.1296  -20.9335   -5.3448 C   0  0  0  0  0  0  0  0  0  0  0  0
   28.6284  -20.8432   -6.6193 C   0  0  0  0  0  0  0  0  0  0  0  0
   25.2820  -20.7387   -7.7581 C   0  0  0  0  0  0  0  0  0  0  0  0
   23.9977  -20.3186   -8.0260 O   0  0  0  0  0  0  0  0  0  0  0  0
   25.4747  -21.2177   -6.5898 O   0  0  0  0  0  0  0  0  0  0  0  0
  2  3  2  0
  2  1  1  0
  4  2  1  0
  5  4  1  0
  5  6  1  0
  6  8  1  0
  6  7  1  6
  8  9  2  0
 10 11  1  0
 10  8  1  0
 11 12  1  6
 13 12  1  0
 14 13  2  0
 15 11  1  0
 15 16  2  0
 17 13  1  0
 18 15  1  0
 19 18  1  0
 19 27  1  0
 19 20  1  1
 21 20  1  0
 22 21  2  0
 23 22  1  0
 24 23  2  0
 24 25  1  0
 25 26  2  0
 26 21  1  0
 27 28  1  0
 29 27  2  0
M  END
$$$$
