QDF.pdb
     RDKit          3D

 29 29  0  0  1  0  0  0  0  0999 V2000
   28.5663  -15.7771  -17.2226 N   0  0  0  0  0  0  0  0  0  0  0  0
   27.6228  -15.4943  -16.1899 C   0  0  0  0  0  0  0  0  0  0  0  0
   26.4944  -15.1109  -16.5714 O   0  0  0  0  0  0  0  0  0  0  0  0
   27.9215  -15.6291  -14.7732 C   0  0  0  0  0  0  0  0  0  0  0  0
   27.1880  -16.6503  -13.9955 C   0  0  0  0  0  0  0  0  0  0  0  0
   26.6017  -17.7962  -14.7725 C   0  0  2  0  0  0  0  0  0  0  0  0
   25.7046  -17.4449  -15.8251 N   0  0  0  0  0  0  0  0  0  0  0  0
   25.9984  -18.7187  -13.7650 C   0  0  0  0  0  0  0  0  0  0  0  0
   24.9415  -18.3458  -13.1785 O   0  0  0  0  0  0  0  0  0  0  0  0
   26.5116  -19.9803  -13.4087 N   0  0  0  0  0  0  0  0  0  0  0  0
   25.8245  -20.8877  -12.5057 C   0  0  1  0  0  0  0  0  0  0  0  0
   25.9815  -22.3229  -12.9264 C   0  0  0  0  0  0  0  0  0  0  0  0
   24.6976  -23.0237  -13.1504 C   0  0  0  0  0  0  0  0  0  0  0  0
   23.5607  -22.5098  -13.0361 O   0  0  0  0  0  0  0  0  0  0  0  0
   26.3888  -20.7420  -11.1511 C   0  0  0  0  0  0  0  0  0  0  0  0
   27.6260  -20.6222  -10.9954 O   0  0  0  0  0  0  0  0  0  0  0  0
   24.7670  -24.3601  -13.5171 O   0  0  0  0  0  0  0  0  0  0  0  0
   25.5478  -20.7357  -10.0209 N   0  0  0  0  0  0  0  0  0  0  0  0
   26.1178  -21.0065   -8.7040 C   0  0  1  0  0  0  0  0  0  0  0  0
   27.1473  -19.9548   -8.4583 C   0  0  0  0  0  0  0  0  0  0  0  0
   27.6574  -19.9170   -7.0760 C   0  0  0  0  0  0  0  0  0  0  0  0
   27.2888  -18.8945   -6.2533 C   0  0  0  0  0  0  0  0  0  0  0  0
   27.7687  -18.8710   -4.9621 C   0  0  0  0  0  0  0  0  0  0  0  0
   28.6014  -19.8437   -4.4882 C   0  0  0  0  0  0  0  0  0  0  0  0
   28.9706  -20.8775   -5.3284 C   0  0  0  0  0  0  0  0  0  0  0  0
   28.5003  -20.9140   -6.6173 C   0  0  0  0  0  0  0  0  0  0  0  0
   25.0511  -21.0229   -7.7030 C   0  0  0  0  0  0  0  0  0  0  0  0
   25.1868  -21.5617   -6.4425 O   0  0  0  0  0  0  0  0  0  0  0  0
   23.9078  -20.5194   -7.9690 O   0  0  0  0  0  0  0  0  0  0  0  0
  2  3  2  0
  2  1  1  0
  4  2  1  0
  5  4  1  0
  5  6  1  0
  6  8  1  0
  6  7  1  6
  8  9  2  0
 10 11  1  0
 10  8  1  0
 11 12  1  6
 13 12  1  0
 14 13  2  0
 15 11  1  0
 15 16  2  0
 17 13  1  0
 18 15  1  0
 19 18  1  0
 19 27  1  0
 19 20  1  1
 21 20  1  0
 22 21  2  0
 23 22  1  0
 24 23  2  0
 24 25  1  0
 25 26  2  0
 26 21  1  0
 27 28  1  0
 29 27  2  0
M  END
$$$$
