QDF.pdb
     RDKit          3D

 29 29  0  0  1  0  0  0  0  0999 V2000
   26.0115  -24.1108  -15.8737 N   0  0  0  0  0  0  0  0  0  0  0  0
   26.5733  -23.0074  -15.1641 C   0  0  0  0  0  0  0  0  0  0  0  0
   27.3966  -22.3117  -15.7998 O   0  0  0  0  0  0  0  0  0  0  0  0
   26.2353  -22.6849  -13.7871 C   0  0  0  0  0  0  0  0  0  0  0  0
   25.6758  -21.3476  -13.4966 C   0  0  0  0  0  0  0  0  0  0  0  0
   24.7851  -20.7470  -14.5485 C   0  0  2  0  0  0  0  0  0  0  0  0
   25.2420  -19.5289  -15.1347 N   0  0  0  0  0  0  0  0  0  0  0  0
   23.4291  -20.6348  -13.9333 C   0  0  0  0  0  0  0  0  0  0  0  0
   23.3188  -19.9763  -12.8588 O   0  0  0  0  0  0  0  0  0  0  0  0
   22.2517  -21.2059  -14.4522 N   0  0  0  0  0  0  0  0  0  0  0  0
   20.9461  -21.0188  -13.8426 C   0  0  1  0  0  0  0  0  0  0  0  0
   19.9452  -20.4664  -14.8196 C   0  0  0  0  0  0  0  0  0  0  0  0
   20.1320  -19.0292  -15.1177 C   0  0  0  0  0  0  0  0  0  0  0  0
   19.9322  -18.4866  -16.2293 O   0  0  0  0  0  0  0  0  0  0  0  0
   20.4467  -22.3194  -13.3596 C   0  0  0  0  0  0  0  0  0  0  0  0
   20.7941  -23.3780  -13.9322 O   0  0  0  0  0  0  0  0  0  0  0  0
   20.5642  -18.2222  -14.0750 O   0  0  0  0  0  0  0  0  0  0  0  0
   19.5768  -22.3875  -12.2534 N   0  0  0  0  0  0  0  0  0  0  0  0
   19.0275  -23.6803  -11.8542 C   0  0  1  0  0  0  0  0  0  0  0  0
   18.9277  -23.6622  -10.3657 C   0  0  0  0  0  0  0  0  0  0  0  0
   18.2340  -24.8284   -9.7903 C   0  0  0  0  0  0  0  0  0  0  0  0
   16.9466  -24.6980   -9.3615 C   0  0  0  0  0  0  0  0  0  0  0  0
   16.3066  -25.7956   -8.8287 C   0  0  0  0  0  0  0  0  0  0  0  0
   16.9283  -27.0063   -8.7203 C   0  0  0  0  0  0  0  0  0  0  0  0
   18.2339  -27.1307   -9.1573 C   0  0  0  0  0  0  0  0  0  0  0  0
   18.8841  -26.0458   -9.6904 C   0  0  0  0  0  0  0  0  0  0  0  0
   17.7434  -23.8935  -12.5218 C   0  0  0  0  0  0  0  0  0  0  0  0
   17.2601  -25.1319  -12.8833 O   0  0  0  0  0  0  0  0  0  0  0  0
   16.9911  -22.9015  -12.8072 O   0  0  0  0  0  0  0  0  0  0  0  0
  2  3  2  0
  2  1  1  0
  4  2  1  0
  5  4  1  0
  5  6  1  0
  6  8  1  0
  6  7  1  1
  8  9  2  0
 10 11  1  0
 10  8  1  0
 11 12  1  6
 13 12  1  0
 14 13  2  0
 15 11  1  0
 15 16  2  0
 17 13  1  0
 18 15  1  0
 19 18  1  0
 19 27  1  0
 19 20  1  1
 21 20  1  0
 22 21  2  0
 23 22  1  0
 24 23  2  0
 24 25  1  0
 25 26  2  0
 26 21  1  0
 27 28  1  0
 29 27  2  0
M  END
$$$$
