TLF.pdb
     RDKit          3D

 27 27  0  0  1  0  0  0  0  0999 V2000
   26.8732  -14.6485  -15.4085 C   0  0  0  0  0  0  0  0  0  0  0  0
   26.7062  -16.1118  -15.0771 C   0  0  1  0  0  0  0  0  0  0  0  0
   25.5835  -16.2903  -14.2708 O   0  0  0  0  0  0  0  0  0  0  0  0
   26.6287  -16.9735  -16.3177 C   0  0  2  0  0  0  0  0  0  0  0  0
   25.4242  -16.5935  -17.0318 N   0  0  0  0  0  0  0  0  0  0  0  0
   26.5273  -18.3978  -15.9042 C   0  0  0  0  0  0  0  0  0  0  0  0
   25.3573  -18.9100  -15.8641 O   0  0  0  0  0  0  0  0  0  0  0  0
   29.5005  -23.1220  -17.3208 C   0  0  0  0  0  0  0  0  0  0  0  0
   28.3603  -22.2599  -16.8820 C   0  0  2  0  0  0  0  0  0  0  0  0
   27.7761  -21.4540  -18.0317 C   0  0  0  0  0  0  0  0  0  0  0  0
   28.5350  -21.4800  -15.6460 C   0  0  0  0  0  0  0  0  0  0  0  0
   27.5146  -20.5411  -15.1867 C   0  0  2  0  0  0  0  0  0  0  0  0
   27.6652  -19.1763  -15.5640 N   0  0  0  0  0  0  0  0  0  0  0  0
   27.2362  -20.6098  -13.7319 C   0  0  0  0  0  0  0  0  0  0  0  0
   28.0940  -20.2084  -12.8727 O   0  0  0  0  0  0  0  0  0  0  0  0
   26.0157  -21.1163  -13.2009 N   0  0  0  0  0  0  0  0  0  0  0  0
   25.8616  -21.3050  -11.7741 C   0  0  1  0  0  0  0  0  0  0  0  0
   26.0518  -19.9477  -11.1245 C   0  0  0  0  0  0  0  0  0  0  0  0
   25.8503  -19.9893   -9.6639 C   0  0  0  0  0  0  0  0  0  0  0  0
   24.6252  -20.1269   -9.0511 C   0  0  0  0  0  0  0  0  0  0  0  0
   24.4660  -20.1654   -7.6951 C   0  0  0  0  0  0  0  0  0  0  0  0
   25.5907  -20.0614   -6.8721 C   0  0  0  0  0  0  0  0  0  0  0  0
   26.8301  -19.9227   -7.4514 C   0  0  0  0  0  0  0  0  0  0  0  0
   26.9564  -19.8876   -8.8167 C   0  0  0  0  0  0  0  0  0  0  0  0
   24.5911  -21.9362  -11.4188 C   0  0  0  0  0  0  0  0  0  0  0  0
   23.4783  -21.6951  -12.2164 O   0  0  0  0  0  0  0  0  0  0  0  0
   24.4206  -22.6914  -10.4339 O   0  0  0  0  0  0  0  0  0  0  0  0
  2  1  1  6
  2  4  1  0
  3  2  1  0
  4  5  1  1
  6  7  2  0
  6  4  1  0
  9 11  1  0
  9  8  1  6
 10  9  1  0
 12 11  1  1
 12 13  1  0
 13  6  1  0
 14 12  1  0
 15 14  2  0
 16 14  1  0
 17 16  1  0
 18 19  1  0
 17 18  1  1
 19 24  2  0
 20 21  2  0
 20 19  1  0
 21 22  1  0
 22 23  2  0
 24 23  1  0
 25 17  1  0
 25 26  1  0
 27 25  2  0
M  END
$$$$
