TLF.pdb
     RDKit          3D

 27 27  0  0  1  0  0  0  0  0999 V2000
   28.2480  -19.1710  -16.3898 C   0  0  0  0  0  0  0  0  0  0  0  0
   27.2936  -19.5562  -15.2855 C   0  0  1  0  0  0  0  0  0  0  0  0
   25.9824  -19.5156  -15.7561 O   0  0  0  0  0  0  0  0  0  0  0  0
   27.6190  -20.9103  -14.6953 C   0  0  2  0  0  0  0  0  0  0  0  0
   27.3282  -21.9044  -15.7114 N   0  0  0  0  0  0  0  0  0  0  0  0
   26.7431  -21.1404  -13.5164 C   0  0  0  0  0  0  0  0  0  0  0  0
   25.7640  -21.9474  -13.6679 O   0  0  0  0  0  0  0  0  0  0  0  0
   26.1434  -19.8193   -7.4077 C   0  0  0  0  0  0  0  0  0  0  0  0
   25.6529  -20.4475   -8.6729 C   0  0  2  0  0  0  0  0  0  0  0  0
   25.0207  -21.8088   -8.4287 C   0  0  0  0  0  0  0  0  0  0  0  0
   26.5506  -20.4165   -9.8390 C   0  0  0  0  0  0  0  0  0  0  0  0
   26.0646  -20.7185  -11.1830 C   0  0  2  0  0  0  0  0  0  0  0  0
   26.9635  -20.5038  -12.2663 N   0  0  0  0  0  0  0  0  0  0  0  0
   24.7591  -20.0967  -11.5111 C   0  0  0  0  0  0  0  0  0  0  0  0
   24.6260  -18.8265  -11.5722 O   0  0  0  0  0  0  0  0  0  0  0  0
   23.5854  -20.8577  -11.7783 N   0  0  0  0  0  0  0  0  0  0  0  0
   22.3486  -20.1941  -12.1322 C   0  0  1  0  0  0  0  0  0  0  0  0
   22.6204  -19.3923  -13.3907 C   0  0  0  0  0  0  0  0  0  0  0  0
   22.7267  -20.2449  -14.5897 C   0  0  0  0  0  0  0  0  0  0  0  0
   22.5205  -21.6061  -14.5972 C   0  0  0  0  0  0  0  0  0  0  0  0
   22.6225  -22.3730  -15.7228 C   0  0  0  0  0  0  0  0  0  0  0  0
   22.9518  -21.7639  -16.9367 C   0  0  0  0  0  0  0  0  0  0  0  0
   23.1646  -20.4057  -16.9649 C   0  0  0  0  0  0  0  0  0  0  0  0
   23.0544  -19.6634  -15.8168 C   0  0  0  0  0  0  0  0  0  0  0  0
   21.2274  -21.1219  -12.2762 C   0  0  0  0  0  0  0  0  0  0  0  0
   21.4648  -22.4847  -12.1375 O   0  0  0  0  0  0  0  0  0  0  0  0
   20.0466  -20.7816  -12.5196 O   0  0  0  0  0  0  0  0  0  0  0  0
  2  1  1  6
  2  4  1  0
  3  2  1  0
  4  5  1  6
  6  7  2  0
  6  4  1  0
  9 11  1  0
  9  8  1  1
 10  9  1  0
 12 11  1  1
 12 13  1  0
 13  6  1  0
 14 12  1  0
 15 14  2  0
 16 14  1  0
 17 16  1  0
 18 19  1  0
 17 18  1  6
 19 24  2  0
 20 21  2  0
 20 19  1  0
 21 22  1  0
 22 23  2  0
 24 23  1  0
 25 17  1  0
 25 26  1  0
 27 25  2  0
M  END
$$$$
