TLF.pdb
     RDKit          3D

 27 27  0  0  1  0  0  0  0  0999 V2000
   27.1146  -23.2207  -20.3467 C   0  0  0  0  0  0  0  0  0  0  0  0
   26.8591  -22.6171  -18.9869 C   0  0  1  0  0  0  0  0  0  0  0  0
   26.3571  -23.5889  -18.1233 O   0  0  0  0  0  0  0  0  0  0  0  0
   28.0948  -21.9622  -18.4110 C   0  0  2  0  0  0  0  0  0  0  0  0
   29.0906  -23.0024  -18.2329 N   0  0  0  0  0  0  0  0  0  0  0  0
   27.7526  -21.3766  -17.0882 C   0  0  0  0  0  0  0  0  0  0  0  0
   28.4345  -21.7726  -16.0827 O   0  0  0  0  0  0  0  0  0  0  0  0
   25.1695  -16.2469  -14.8613 C   0  0  0  0  0  0  0  0  0  0  0  0
   26.1050  -17.3962  -14.6618 C   0  0  2  0  0  0  0  0  0  0  0  0
   27.3293  -17.0037  -13.8496 C   0  0  0  0  0  0  0  0  0  0  0  0
   26.4192  -18.2277  -15.8349 C   0  0  0  0  0  0  0  0  0  0  0  0
   26.6188  -19.6698  -15.7154 C   0  0  2  0  0  0  0  0  0  0  0  0
   26.7180  -20.4180  -16.9229 N   0  0  0  0  0  0  0  0  0  0  0  0
   25.6569  -20.3435  -14.8100 C   0  0  0  0  0  0  0  0  0  0  0  0
   24.4954  -20.6911  -15.2164 O   0  0  0  0  0  0  0  0  0  0  0  0
   25.9558  -20.6463  -13.4510 N   0  0  0  0  0  0  0  0  0  0  0  0
   24.9809  -21.3213  -12.6209 C   0  0  1  0  0  0  0  0  0  0  0  0
   25.7360  -21.9240  -11.4516 C   0  0  0  0  0  0  0  0  0  0  0  0
   25.8059  -21.0105  -10.2955 C   0  0  0  0  0  0  0  0  0  0  0  0
   25.2400  -21.2659   -9.0668 C   0  0  0  0  0  0  0  0  0  0  0  0
   25.3216  -20.4037   -8.0106 C   0  0  0  0  0  0  0  0  0  0  0  0
   26.0095  -19.1972   -8.1656 C   0  0  0  0  0  0  0  0  0  0  0  0
   26.5869  -18.9101   -9.3801 C   0  0  0  0  0  0  0  0  0  0  0  0
   26.4869  -19.7974  -10.4213 C   0  0  0  0  0  0  0  0  0  0  0  0
   23.8861  -20.4457  -12.2045 C   0  0  0  0  0  0  0  0  0  0  0  0
   22.6566  -21.0145  -11.8919 O   0  0  0  0  0  0  0  0  0  0  0  0
   23.9676  -19.1996  -12.1050 O   0  0  0  0  0  0  0  0  0  0  0  0
  2  1  1  6
  2  4  1  0
  3  2  1  0
  4  5  1  1
  6  7  2  0
  6  4  1  0
  9 11  1  0
  9  8  1  6
 10  9  1  0
 12 11  1  6
 12 13  1  0
 13  6  1  0
 14 12  1  0
 15 14  2  0
 16 14  1  0
 17 16  1  0
 18 19  1  0
 17 18  1  1
 19 24  2  0
 20 21  2  0
 20 19  1  0
 21 22  1  0
 22 23  2  0
 24 23  1  0
 25 17  1  0
 25 26  1  0
 27 25  2  0
M  END
$$$$
