TLF.pdb
     RDKit          3D

 27 27  0  0  1  0  0  0  0  0999 V2000
   23.4221   -8.9248  -20.5886 C   0  0  0  0  0  0  0  0  0  0  0  0
   22.4968   -8.4352  -19.5009 C   0  0  1  0  0  0  0  0  0  0  0  0
   21.9036   -7.2349  -19.8875 O   0  0  0  0  0  0  0  0  0  0  0  0
   21.4525   -9.4654  -19.1326 C   0  0  2  0  0  0  0  0  0  0  0  0
   20.5794   -9.6235  -20.2807 N   0  0  0  0  0  0  0  0  0  0  0  0
   20.6635   -8.9549  -17.9808 C   0  0  0  0  0  0  0  0  0  0  0  0
   19.6041   -8.2927  -18.2491 O   0  0  0  0  0  0  0  0  0  0  0  0
   17.1632   -9.4020  -15.5399 C   0  0  0  0  0  0  0  0  0  0  0  0
   18.3624  -10.2220  -15.1858 C   0  0  2  0  0  0  0  0  0  0  0  0
   17.9982  -11.4362  -14.3458 C   0  0  0  0  0  0  0  0  0  0  0  0
   19.5546   -9.5077  -14.7012 C   0  0  0  0  0  0  0  0  0  0  0  0
   20.3034   -8.6000  -15.5667 C   0  0  2  0  0  0  0  0  0  0  0  0
   21.0487   -9.1797  -16.6326 N   0  0  0  0  0  0  0  0  0  0  0  0
   21.1708   -7.6430  -14.8383 C   0  0  0  0  0  0  0  0  0  0  0  0
   22.3591   -7.9593  -14.4877 O   0  0  0  0  0  0  0  0  0  0  0  0
   20.7488   -6.3290  -14.4875 N   0  0  0  0  0  0  0  0  0  0  0  0
   21.6640   -5.4167  -13.8355 C   0  0  1  0  0  0  0  0  0  0  0  0
   22.8864   -5.3034  -14.7263 C   0  0  0  0  0  0  0  0  0  0  0  0
   22.6445   -4.4561  -15.9092 C   0  0  0  0  0  0  0  0  0  0  0  0
   22.8762   -3.0998  -15.9553 C   0  0  0  0  0  0  0  0  0  0  0  0
   22.6463   -2.3378  -17.0652 C   0  0  0  0  0  0  0  0  0  0  0  0
   22.1511   -2.9471  -18.2213 C   0  0  0  0  0  0  0  0  0  0  0  0
   21.9083   -4.3005  -18.2099 C   0  0  0  0  0  0  0  0  0  0  0  0
   22.1498   -5.0379  -17.0788 C   0  0  0  0  0  0  0  0  0  0  0  0
   21.0555   -4.1220  -13.5320 C   0  0  0  0  0  0  0  0  0  0  0  0
   21.7639   -3.2168  -12.7501 O   0  0  0  0  0  0  0  0  0  0  0  0
   19.9247   -3.7551  -13.9271 O   0  0  0  0  0  0  0  0  0  0  0  0
  2  1  1  6
  2  4  1  0
  3  2  1  0
  4  5  1  6
  6  7  2  0
  6  4  1  0
  9 11  1  0
  9  8  1  1
 10  9  1  0
 12 11  1  1
 12 13  1  0
 13  6  1  0
 14 12  1  0
 15 14  2  0
 16 14  1  0
 17 16  1  0
 18 19  1  0
 17 18  1  6
 19 24  2  0
 20 21  2  0
 20 19  1  0
 21 22  1  0
 22 23  2  0
 24 23  1  0
 25 17  1  0
 25 26  1  0
 27 25  2  0
M  END
$$$$
