TLF.pdb
     RDKit          3D

 27 27  0  0  1  0  0  0  0  0999 V2000
   19.0345  -12.0517  -20.1042 C   0  0  0  0  0  0  0  0  0  0  0  0
   19.9397  -11.3922  -19.0922 C   0  0  1  0  0  0  0  0  0  0  0  0
   19.2033  -10.5161  -18.2968 O   0  0  0  0  0  0  0  0  0  0  0  0
   20.6830  -12.4021  -18.2464 C   0  0  2  0  0  0  0  0  0  0  0  0
   19.6920  -13.1383  -17.4840 N   0  0  0  0  0  0  0  0  0  0  0  0
   21.5814  -11.6739  -17.3124 C   0  0  0  0  0  0  0  0  0  0  0  0
   21.1645  -11.5061  -16.1163 O   0  0  0  0  0  0  0  0  0  0  0  0
   27.4731   -9.9094  -16.3785 C   0  0  0  0  0  0  0  0  0  0  0  0
   26.0216   -9.8533  -16.0234 C   0  0  2  0  0  0  0  0  0  0  0  0
   25.7941   -9.9673  -14.5241 C   0  0  0  0  0  0  0  0  0  0  0  0
   25.0947  -10.6707  -16.8228 C   0  0  0  0  0  0  0  0  0  0  0  0
   23.6525  -10.4414  -16.7881 C   0  0  2  0  0  0  0  0  0  0  0  0
   22.8517  -11.1769  -17.7075 N   0  0  0  0  0  0  0  0  0  0  0  0
   23.2628   -9.0120  -16.8476 C   0  0  0  0  0  0  0  0  0  0  0  0
   23.2242   -8.3807  -17.9590 O   0  0  0  0  0  0  0  0  0  0  0  0
   22.9090   -8.2579  -15.6925 N   0  0  0  0  0  0  0  0  0  0  0  0
   22.5726   -6.8550  -15.8099 C   0  0  1  0  0  0  0  0  0  0  0  0
   21.4382   -6.5886  -14.8391 C   0  0  0  0  0  0  0  0  0  0  0  0
   21.0147   -5.1757  -14.8420 C   0  0  0  0  0  0  0  0  0  0  0  0
   21.5508   -4.2011  -14.0308 C   0  0  0  0  0  0  0  0  0  0  0  0
   21.1423   -2.8980  -14.0550 C   0  0  0  0  0  0  0  0  0  0  0  0
   20.1310   -2.5156  -14.9404 C   0  0  0  0  0  0  0  0  0  0  0  0
   19.5732   -3.4641  -15.7651 C   0  0  0  0  0  0  0  0  0  0  0  0
   20.0058   -4.7648  -15.7165 C   0  0  0  0  0  0  0  0  0  0  0  0
   23.7225   -5.9759  -15.6010 C   0  0  0  0  0  0  0  0  0  0  0  0
   23.9357   -4.9303  -16.4921 O   0  0  0  0  0  0  0  0  0  0  0  0
   24.5479   -6.0911  -14.6658 O   0  0  0  0  0  0  0  0  0  0  0  0
  2  1  1  6
  2  4  1  0
  3  2  1  0
  4  5  1  1
  6  7  2  0
  6  4  1  0
  9 11  1  0
  9  8  1  1
 10  9  1  0
 12 11  1  6
 12 13  1  0
 13  6  1  0
 14 12  1  0
 15 14  2  0
 16 14  1  0
 17 16  1  0
 18 19  1  0
 17 18  1  1
 19 24  2  0
 20 21  2  0
 20 19  1  0
 21 22  1  0
 22 23  2  0
 24 23  1  0
 25 17  1  0
 25 26  1  0
 27 25  2  0
M  END
$$$$
