TLF.pdb
     RDKit          3D

 27 27  0  0  1  0  0  0  0  0999 V2000
   28.5133  -19.2592  -16.4326 C   0  0  0  0  0  0  0  0  0  0  0  0
   27.5346  -19.6792  -15.3628 C   0  0  1  0  0  0  0  0  0  0  0  0
   26.2404  -19.6853  -15.8798 O   0  0  0  0  0  0  0  0  0  0  0  0
   27.8871  -21.0211  -14.7606 C   0  0  2  0  0  0  0  0  0  0  0  0
   27.6378  -22.0277  -15.7755 N   0  0  0  0  0  0  0  0  0  0  0  0
   27.0005  -21.2686  -13.5934 C   0  0  0  0  0  0  0  0  0  0  0  0
   26.0068  -22.0515  -13.7733 O   0  0  0  0  0  0  0  0  0  0  0  0
   24.5594  -20.6597   -8.7515 C   0  0  0  0  0  0  0  0  0  0  0  0
   26.0243  -20.9552   -8.7007 C   0  0  2  0  0  0  0  0  0  0  0  0
   26.6580  -20.4877   -7.3998 C   0  0  0  0  0  0  0  0  0  0  0  0
   26.8239  -20.6329   -9.8937 C   0  0  0  0  0  0  0  0  0  0  0  0
   26.3442  -20.9406  -11.2386 C   0  0  2  0  0  0  0  0  0  0  0  0
   27.2262  -20.6733  -12.3240 N   0  0  0  0  0  0  0  0  0  0  0  0
   25.0102  -20.3741  -11.5524 C   0  0  0  0  0  0  0  0  0  0  0  0
   24.8370  -19.1130  -11.6738 O   0  0  0  0  0  0  0  0  0  0  0  0
   23.8517  -21.1809  -11.7390 N   0  0  0  0  0  0  0  0  0  0  0  0
   22.6618  -20.6226  -12.3451 C   0  0  1  0  0  0  0  0  0  0  0  0
   23.0451  -20.1735  -13.7422 C   0  0  0  0  0  0  0  0  0  0  0  0
   21.8840  -19.7032  -14.5210 C   0  0  0  0  0  0  0  0  0  0  0  0
   21.2647  -20.4318  -15.5114 C   0  0  0  0  0  0  0  0  0  0  0  0
   20.1882  -19.9739  -16.2164 C   0  0  0  0  0  0  0  0  0  0  0  0
   19.6756  -18.7052  -15.9328 C   0  0  0  0  0  0  0  0  0  0  0  0
   20.2704  -17.9503  -14.9493 C   0  0  0  0  0  0  0  0  0  0  0  0
   21.3504  -18.4390  -14.2592 C   0  0  0  0  0  0  0  0  0  0  0  0
   21.5300  -21.5486  -12.3324 C   0  0  0  0  0  0  0  0  0  0  0  0
   20.2886  -21.0820  -11.9154 O   0  0  0  0  0  0  0  0  0  0  0  0
   21.5895  -22.7526  -12.6734 O   0  0  0  0  0  0  0  0  0  0  0  0
  2  1  1  6
  2  4  1  0
  3  2  1  0
  4  5  1  6
  6  7  2  0
  6  4  1  0
  9 11  1  0
  9  8  1  6
 10  9  1  0
 12 11  1  1
 12 13  1  0
 13  6  1  0
 14 12  1  0
 15 14  2  0
 16 14  1  0
 17 16  1  0
 18 19  1  0
 17 18  1  6
 19 24  2  0
 20 21  2  0
 20 19  1  0
 21 22  1  0
 22 23  2  0
 24 23  1  0
 25 17  1  0
 25 26  1  0
 27 25  2  0
M  END
$$$$
