TLF.pdb
     RDKit          3D

 27 27  0  0  1  0  0  0  0  0999 V2000
   27.3862  -17.4068  -14.1710 C   0  0  0  0  0  0  0  0  0  0  0  0
   27.5131  -18.5198  -13.1592 C   0  0  1  0  0  0  0  0  0  0  0  0
   26.2651  -19.0955  -12.9282 O   0  0  0  0  0  0  0  0  0  0  0  0
   28.5246  -19.5625  -13.5804 C   0  0  2  0  0  0  0  0  0  0  0  0
   28.0444  -20.1547  -14.8149 N   0  0  0  0  0  0  0  0  0  0  0  0
   28.5976  -20.6097  -12.5278 C   0  0  0  0  0  0  0  0  0  0  0  0
   28.0225  -21.7237  -12.7746 O   0  0  0  0  0  0  0  0  0  0  0  0
   32.0088  -23.0209  -11.1118 C   0  0  0  0  0  0  0  0  0  0  0  0
   31.8763  -21.8042  -10.2528 C   0  0  2  0  0  0  0  0  0  0  0  0
   33.0788  -21.6126   -9.3418 C   0  0  0  0  0  0  0  0  0  0  0  0
   30.5865  -21.5863   -9.5780 C   0  0  0  0  0  0  0  0  0  0  0  0
   29.3436  -21.4548  -10.3340 C   0  0  2  0  0  0  0  0  0  0  0  0
   29.2707  -20.4057  -11.2941 N   0  0  0  0  0  0  0  0  0  0  0  0
   28.1219  -21.4237   -9.4942 C   0  0  0  0  0  0  0  0  0  0  0  0
   27.7866  -22.4256   -8.7738 O   0  0  0  0  0  0  0  0  0  0  0  0
   27.2548  -20.2958   -9.4314 N   0  0  0  0  0  0  0  0  0  0  0  0
   26.0268  -20.3592   -8.6679 C   0  0  1  0  0  0  0  0  0  0  0  0
   26.0442  -19.1892   -7.7029 C   0  0  0  0  0  0  0  0  0  0  0  0
   26.9680  -19.4046   -6.5733 C   0  0  0  0  0  0  0  0  0  0  0  0
   27.9884  -18.5472   -6.2283 C   0  0  0  0  0  0  0  0  0  0  0  0
   28.8291  -18.7687   -5.1749 C   0  0  0  0  0  0  0  0  0  0  0  0
   28.6609  -19.9173   -4.3967 C   0  0  0  0  0  0  0  0  0  0  0  0
   27.6513  -20.7954   -4.7136 C   0  0  0  0  0  0  0  0  0  0  0  0
   26.8237  -20.5440   -5.7782 C   0  0  0  0  0  0  0  0  0  0  0  0
   24.8335  -20.3860   -9.5128 C   0  0  0  0  0  0  0  0  0  0  0  0
   23.5898  -20.5333   -8.9093 O   0  0  0  0  0  0  0  0  0  0  0  0
   24.8411  -20.2854  -10.7615 O   0  0  0  0  0  0  0  0  0  0  0  0
  2  1  1  6
  2  4  1  0
  3  2  1  0
  4  5  1  6
  6  7  2  0
  6  4  1  0
  9 11  1  0
  9  8  1  1
 10  9  1  0
 12 11  1  1
 12 13  1  0
 13  6  1  0
 14 12  1  0
 15 14  2  0
 16 14  1  0
 17 16  1  0
 18 19  1  0
 17 18  1  1
 19 24  2  0
 20 21  2  0
 20 19  1  0
 21 22  1  0
 22 23  2  0
 24 23  1  0
 25 17  1  0
 25 26  1  0
 27 25  2  0
M  END
$$$$
