TLF.pdb
     RDKit          3D

 27 27  0  0  1  0  0  0  0  0999 V2000
   28.3851  -19.1169  -17.9173 C   0  0  0  0  0  0  0  0  0  0  0  0
   27.4172  -19.5633  -16.8484 C   0  0  1  0  0  0  0  0  0  0  0  0
   26.1682  -19.8134  -17.4140 O   0  0  0  0  0  0  0  0  0  0  0  0
   27.9222  -20.7691  -16.0877 C   0  0  2  0  0  0  0  0  0  0  0  0
   27.9795  -21.8762  -17.0238 N   0  0  0  0  0  0  0  0  0  0  0  0
   26.9556  -21.0897  -15.0047 C   0  0  0  0  0  0  0  0  0  0  0  0
   26.2505  -22.1456  -15.1480 O   0  0  0  0  0  0  0  0  0  0  0  0
   25.7036  -20.0449   -8.9866 C   0  0  0  0  0  0  0  0  0  0  0  0
   25.3746  -20.6399  -10.3184 C   0  0  2  0  0  0  0  0  0  0  0  0
   25.0674  -22.1261  -10.2215 C   0  0  0  0  0  0  0  0  0  0  0  0
   26.2468  -20.2921  -11.4518 C   0  0  0  0  0  0  0  0  0  0  0  0
   25.8924  -20.6481  -12.8234 C   0  0  2  0  0  0  0  0  0  0  0  0
   26.8038  -20.2746  -13.8517 N   0  0  0  0  0  0  0  0  0  0  0  0
   24.5237  -20.2406  -13.2227 C   0  0  0  0  0  0  0  0  0  0  0  0
   24.2063  -19.0074  -13.3391 O   0  0  0  0  0  0  0  0  0  0  0  0
   23.4880  -21.1774  -13.5013 N   0  0  0  0  0  0  0  0  0  0  0  0
   22.1385  -20.7208  -13.7569 C   0  0  1  0  0  0  0  0  0  0  0  0
   21.6828  -21.3830  -15.0431 C   0  0  0  0  0  0  0  0  0  0  0  0
   22.3529  -20.8240  -16.2323 C   0  0  0  0  0  0  0  0  0  0  0  0
   22.0071  -19.6345  -16.8331 C   0  0  0  0  0  0  0  0  0  0  0  0
   22.6461  -19.1372  -17.9330 C   0  0  0  0  0  0  0  0  0  0  0  0
   23.7061  -19.8572  -18.4908 C   0  0  0  0  0  0  0  0  0  0  0  0
   24.0777  -21.0497  -17.9156 C   0  0  0  0  0  0  0  0  0  0  0  0
   23.4155  -21.5219  -16.8111 C   0  0  0  0  0  0  0  0  0  0  0  0
   21.2335  -20.9674  -12.6348 C   0  0  0  0  0  0  0  0  0  0  0  0
   19.9393  -20.4634  -12.6961 O   0  0  0  0  0  0  0  0  0  0  0  0
   21.5360  -21.6085  -11.6020 O   0  0  0  0  0  0  0  0  0  0  0  0
  2  1  1  6
  2  4  1  0
  3  2  1  0
  4  5  1  6
  6  7  2  0
  6  4  1  0
  9 11  1  0
  9  8  1  1
 10  9  1  0
 12 11  1  1
 12 13  1  0
 13  6  1  0
 14 12  1  0
 15 14  2  0
 16 14  1  0
 17 16  1  0
 18 19  1  0
 17 18  1  6
 19 24  2  0
 20 21  2  0
 20 19  1  0
 21 22  1  0
 22 23  2  0
 24 23  1  0
 25 17  1  0
 25 26  1  0
 27 25  2  0
M  END
$$$$
