TLF.pdb
     RDKit          3D

 27 27  0  0  1  0  0  0  0  0999 V2000
   20.9993   -7.2815  -20.8576 C   0  0  0  0  0  0  0  0  0  0  0  0
   19.5948   -7.8313  -20.7953 C   0  0  1  0  0  0  0  0  0  0  0  0
   19.0687   -7.9355  -22.0817 O   0  0  0  0  0  0  0  0  0  0  0  0
   19.5319   -9.1579  -20.0717 C   0  0  2  0  0  0  0  0  0  0  0  0
   18.1389   -9.5619  -20.0327 N   0  0  0  0  0  0  0  0  0  0  0  0
   20.0286   -8.9687  -18.6834 C   0  0  0  0  0  0  0  0  0  0  0  0
   19.2184   -8.4525  -17.8409 O   0  0  0  0  0  0  0  0  0  0  0  0
   24.0651  -10.9420  -14.4154 C   0  0  0  0  0  0  0  0  0  0  0  0
   23.0965   -9.9289  -14.9364 C   0  0  2  0  0  0  0  0  0  0  0  0
   21.9552   -9.6750  -13.9641 C   0  0  0  0  0  0  0  0  0  0  0  0
   22.6587  -10.0642  -16.3351 C   0  0  0  0  0  0  0  0  0  0  0  0
   21.7922   -9.0693  -16.9620 C   0  0  2  0  0  0  0  0  0  0  0  0
   21.3413   -9.3371  -18.2859 N   0  0  0  0  0  0  0  0  0  0  0  0
   22.3166   -7.6836  -16.9037 C   0  0  0  0  0  0  0  0  0  0  0  0
   23.2608   -7.2987  -17.6754 O   0  0  0  0  0  0  0  0  0  0  0  0
   21.8126   -6.7031  -16.0024 N   0  0  0  0  0  0  0  0  0  0  0  0
   22.3408   -5.3556  -16.0177 C   0  0  1  0  0  0  0  0  0  0  0  0
   21.9012   -4.7220  -17.3237 C   0  0  0  0  0  0  0  0  0  0  0  0
   20.4658   -4.3823  -17.3297 C   0  0  0  0  0  0  0  0  0  0  0  0
   19.4802   -5.1777  -17.8694 C   0  0  0  0  0  0  0  0  0  0  0  0
   18.1566   -4.8409  -17.8595 C   0  0  0  0  0  0  0  0  0  0  0  0
   17.7636   -3.6328  -17.2772 C   0  0  0  0  0  0  0  0  0  0  0  0
   18.7225   -2.8140  -16.7287 C   0  0  0  0  0  0  0  0  0  0  0  0
   20.0439   -3.1812  -16.7547 C   0  0  0  0  0  0  0  0  0  0  0  0
   21.9468   -4.5778  -14.8436 C   0  0  0  0  0  0  0  0  0  0  0  0
   21.1003   -5.1614  -13.9079 O   0  0  0  0  0  0  0  0  0  0  0  0
   22.3172   -3.4045  -14.6079 O   0  0  0  0  0  0  0  0  0  0  0  0
  2  1  1  6
  2  4  1  0
  3  2  1  0
  4  5  1  1
  6  7  2  0
  6  4  1  0
  9 11  1  0
  9  8  1  1
 10  9  1  0
 12 11  1  6
 12 13  1  0
 13  6  1  0
 14 12  1  0
 15 14  2  0
 16 14  1  0
 17 16  1  0
 18 19  1  0
 17 18  1  6
 19 24  2  0
 20 21  2  0
 20 19  1  0
 21 22  1  0
 22 23  2  0
 24 23  1  0
 25 17  1  0
 25 26  1  0
 27 25  2  0
M  END
$$$$
