ATE.pdb
     RDKit          3D

 22 21  0  0  1  0  0  0  0  0999 V2000
    7.9933  -17.2312   16.6051 C   0  0  0  0  0  0  0  0  0  0  0  0
    8.2960  -17.8802   17.9603 C   0  0  2  0  0  0  0  0  0  0  0  0
    7.0204  -18.3005   18.4949 N   0  0  0  0  0  0  0  0  0  0  0  0
    8.9537  -16.8650   18.8209 C   0  0  0  0  0  0  0  0  0  0  0  0
   10.0592  -16.3280   18.4757 O   0  0  0  0  0  0  0  0  0  0  0  0
    6.9252  -14.0252   20.6415 C   0  0  0  0  0  0  0  0  0  0  0  0
    7.8061  -14.7458   21.6366 C   0  0  1  0  0  0  0  0  0  0  0  0
    6.9611  -15.7708   22.1541 O   0  0  0  0  0  0  0  0  0  0  0  0
    8.9085  -15.5090   20.9221 C   0  0  2  0  0  0  0  0  0  0  0  0
    8.3205  -16.5072   20.0385 N   0  0  0  0  0  0  0  0  0  0  0  0
    9.8506  -16.1919   21.8066 C   0  0  0  0  0  0  0  0  0  0  0  0
    9.6552  -17.4524   21.9929 O   0  0  0  0  0  0  0  0  0  0  0  0
   10.9472  -15.6387   22.4799 N   0  0  0  0  0  0  0  0  0  0  0  0
   11.8429  -16.4405   23.3538 C   0  0  1  0  0  0  0  0  0  0  0  0
   13.2194  -15.9193   23.2657 C   0  0  0  0  0  0  0  0  0  0  0  0
   14.3061  -16.7104   23.8979 C   0  0  0  0  0  0  0  0  0  0  0  0
   15.6421  -16.1067   23.8453 C   0  0  0  0  0  0  0  0  0  0  0  0
   15.9947  -15.4433   22.8018 O   0  0  0  0  0  0  0  0  0  0  0  0
   11.2847  -16.5320   24.6852 C   0  0  0  0  0  0  0  0  0  0  0  0
   10.4136  -15.7322   25.1506 O   0  0  0  0  0  0  0  0  0  0  0  0
   16.5885  -16.1890   24.8504 O   0  0  0  0  0  0  0  0  0  0  0  0
   11.6735  -17.5432   25.5967 O   0  0  0  0  0  0  0  0  0  0  0  0
  2  4  1  0
  2  1  1  6
  2  3  1  0
  4  5  2  0
  7  6  1  6
  7  9  1  0
  8  7  1  0
  9 11  1  0
  9 10  1  6
 10  4  1  0
 11 12  2  0
 11 13  1  0
 13 14  1  0
 14 15  1  1
 15 16  1  0
 16 17  1  0
 17 21  1  0
 18 17  2  0
 19 14  1  0
 20 19  2  0
 22 19  1  0
M  END
$$$$
