ATE.pdb
     RDKit          3D

 22 21  0  0  1  0  0  0  0  0999 V2000
    8.1971  -14.5194   14.5705 C   0  0  0  0  0  0  0  0  0  0  0  0
    8.7578  -15.4929   15.6133 C   0  0  2  0  0  0  0  0  0  0  0  0
    7.6201  -16.2145   16.1374 N   0  0  0  0  0  0  0  0  0  0  0  0
    9.4455  -14.6990   16.6622 C   0  0  0  0  0  0  0  0  0  0  0  0
   10.4909  -14.0183   16.3913 O   0  0  0  0  0  0  0  0  0  0  0  0
    7.6096  -12.4057   19.1623 C   0  0  0  0  0  0  0  0  0  0  0  0
    8.4829  -13.3574   19.9478 C   0  0  1  0  0  0  0  0  0  0  0  0
    7.6129  -14.4479   20.2420 O   0  0  0  0  0  0  0  0  0  0  0  0
    9.5463  -13.9712   19.0531 C   0  0  2  0  0  0  0  0  0  0  0  0
    8.9097  -14.7169   17.9752 N   0  0  0  0  0  0  0  0  0  0  0  0
   10.4729  -14.8722   19.7356 C   0  0  0  0  0  0  0  0  0  0  0  0
   10.3262  -16.1319   19.5049 O   0  0  0  0  0  0  0  0  0  0  0  0
   11.5079  -14.5297   20.6151 N   0  0  0  0  0  0  0  0  0  0  0  0
   12.3793  -15.5428   21.2656 C   0  0  1  0  0  0  0  0  0  0  0  0
   13.7897  -15.1255   21.1611 C   0  0  0  0  0  0  0  0  0  0  0  0
   14.8183  -15.9749   21.8143 C   0  0  0  0  0  0  0  0  0  0  0  0
   16.2013  -15.5010   21.6933 C   0  0  0  0  0  0  0  0  0  0  0  0
   16.5559  -14.4254   22.3022 O   0  0  0  0  0  0  0  0  0  0  0  0
   11.9001  -15.8251   22.6010 C   0  0  0  0  0  0  0  0  0  0  0  0
   11.0601  -15.1040   23.2252 O   0  0  0  0  0  0  0  0  0  0  0  0
   17.1919  -16.1276   20.9592 O   0  0  0  0  0  0  0  0  0  0  0  0
   12.3388  -16.9531   23.3356 O   0  0  0  0  0  0  0  0  0  0  0  0
  2  4  1  0
  2  1  1  6
  2  3  1  0
  4  5  2  0
  7  6  1  6
  7  9  1  0
  8  7  1  0
  9 11  1  0
  9 10  1  6
 10  4  1  0
 11 12  2  0
 11 13  1  0
 13 14  1  0
 14 15  1  1
 15 16  1  0
 16 17  1  0
 17 21  1  0
 18 17  2  0
 19 14  1  0
 20 19  2  0
 22 19  1  0
M  END
$$$$
