ATE.pdb
     RDKit          3D

 22 21  0  0  1  0  0  0  0  0999 V2000
    8.3417  -12.0789   19.8266 C   0  0  0  0  0  0  0  0  0  0  0  0
    8.4202  -13.4345   19.1156 C   0  0  2  0  0  0  0  0  0  0  0  0
    7.4387  -13.3860   18.0554 N   0  0  0  0  0  0  0  0  0  0  0  0
    8.1156  -14.4945   20.1091 C   0  0  0  0  0  0  0  0  0  0  0  0
    6.9128  -14.7421   20.4576 O   0  0  0  0  0  0  0  0  0  0  0  0
    8.3750  -17.7666   19.6784 C   0  0  0  0  0  0  0  0  0  0  0  0
    9.2081  -17.6439   20.9338 C   0  0  1  0  0  0  0  0  0  0  0  0
   10.5427  -17.5394   20.4436 O   0  0  0  0  0  0  0  0  0  0  0  0
    8.9632  -16.3061   21.6110 C   0  0  2  0  0  0  0  0  0  0  0  0
    9.1978  -15.2258   20.6617 N   0  0  0  0  0  0  0  0  0  0  0  0
    9.7924  -16.0567   22.7884 C   0  0  0  0  0  0  0  0  0  0  0  0
   10.7374  -15.1903   22.6542 O   0  0  0  0  0  0  0  0  0  0  0  0
    9.6832  -16.6489   24.0530 N   0  0  0  0  0  0  0  0  0  0  0  0
   10.5818  -16.3014   25.1846 C   0  0  1  0  0  0  0  0  0  0  0  0
    9.8551  -15.4642   26.1569 C   0  0  0  0  0  0  0  0  0  0  0  0
   10.5703  -15.0484   27.3906 C   0  0  0  0  0  0  0  0  0  0  0  0
    9.7893  -14.2408   28.3338 C   0  0  0  0  0  0  0  0  0  0  0  0
   10.0108  -14.3527   29.5954 O   0  0  0  0  0  0  0  0  0  0  0  0
   11.1969  -17.4984   25.7151 C   0  0  0  0  0  0  0  0  0  0  0  0
   10.6967  -18.6624   25.6152 O   0  0  0  0  0  0  0  0  0  0  0  0
    8.8032  -13.3390   27.9769 O   0  0  0  0  0  0  0  0  0  0  0  0
   12.4336  -17.4677   26.4038 O   0  0  0  0  0  0  0  0  0  0  0  0
  2  4  1  0
  2  1  1  1
  2  3  1  0
  4  5  2  0
  7  6  1  6
  7  9  1  0
  8  7  1  0
  9 11  1  0
  9 10  1  6
 10  4  1  0
 11 12  2  0
 11 13  1  0
 13 14  1  0
 14 15  1  1
 15 16  1  0
 16 17  1  0
 17 21  1  0
 18 17  2  0
 19 14  1  0
 20 19  2  0
 22 19  1  0
M  END
$$$$
