ATE.pdb
     RDKit          3D

 22 21  0  0  1  0  0  0  0  0999 V2000
    8.9500  -17.6088   16.5878 C   0  0  0  0  0  0  0  0  0  0  0  0
    8.5135  -16.1404   16.5353 C   0  0  2  0  0  0  0  0  0  0  0  0
    8.9014  -15.6556   15.2299 N   0  0  0  0  0  0  0  0  0  0  0  0
    9.2073  -15.4140   17.6284 C   0  0  0  0  0  0  0  0  0  0  0  0
   10.3999  -14.9845   17.4781 O   0  0  0  0  0  0  0  0  0  0  0  0
    7.5009  -12.5875   19.6077 C   0  0  0  0  0  0  0  0  0  0  0  0
    8.0644  -13.5809   20.5982 C   0  0  1  0  0  0  0  0  0  0  0  0
    6.9767  -14.4706   20.8387 O   0  0  0  0  0  0  0  0  0  0  0  0
    9.1140  -14.4591   19.9382 C   0  0  2  0  0  0  0  0  0  0  0  0
    8.5089  -15.2097   18.8457 N   0  0  0  0  0  0  0  0  0  0  0  0
    9.7618  -15.4148   20.8344 C   0  0  0  0  0  0  0  0  0  0  0  0
    9.3101  -16.6219   20.8128 O   0  0  0  0  0  0  0  0  0  0  0  0
   10.8212  -15.1759   21.7190 N   0  0  0  0  0  0  0  0  0  0  0  0
   11.3887  -16.2311   22.5984 C   0  0  1  0  0  0  0  0  0  0  0  0
   12.8247  -15.9766   22.8164 C   0  0  0  0  0  0  0  0  0  0  0  0
   13.7249  -16.0045   21.6351 C   0  0  0  0  0  0  0  0  0  0  0  0
   15.1369  -15.7152   21.9077 C   0  0  0  0  0  0  0  0  0  0  0  0
   15.4981  -15.4000   23.1008 O   0  0  0  0  0  0  0  0  0  0  0  0
   10.5822  -16.3694   23.7912 C   0  0  0  0  0  0  0  0  0  0  0  0
    9.7037  -15.5285   24.1603 O   0  0  0  0  0  0  0  0  0  0  0  0
   16.1492  -15.7527   20.9660 O   0  0  0  0  0  0  0  0  0  0  0  0
   10.7104  -17.4781   24.6624 O   0  0  0  0  0  0  0  0  0  0  0  0
  2  4  1  0
  2  1  1  6
  2  3  1  0
  4  5  2  0
  7  6  1  6
  7  9  1  0
  8  7  1  0
  9 11  1  0
  9 10  1  6
 10  4  1  0
 11 12  2  0
 11 13  1  0
 13 14  1  0
 14 15  1  1
 15 16  1  0
 16 17  1  0
 17 21  1  0
 18 17  2  0
 19 14  1  0
 20 19  2  0
 22 19  1  0
M  END
$$$$
