ATE.pdb
     RDKit          3D

 22 21  0  0  1  0  0  0  0  0999 V2000
    8.2116  -19.1355   18.3842 C   0  0  0  0  0  0  0  0  0  0  0  0
    7.8374  -17.6976   18.0076 C   0  0  2  0  0  0  0  0  0  0  0  0
    8.1701  -17.5525   16.6083 N   0  0  0  0  0  0  0  0  0  0  0  0
    8.6242  -16.7767   18.8659 C   0  0  0  0  0  0  0  0  0  0  0  0
    9.8504  -16.5288   18.6120 O   0  0  0  0  0  0  0  0  0  0  0  0
    6.9741  -13.4707   20.4450 C   0  0  0  0  0  0  0  0  0  0  0  0
    7.6890  -14.2956   21.4909 C   0  0  1  0  0  0  0  0  0  0  0  0
    6.6720  -15.1606   21.9907 O   0  0  0  0  0  0  0  0  0  0  0  0
    8.6837  -15.2414   20.8396 C   0  0  2  0  0  0  0  0  0  0  0  0
    7.9765  -16.1789   19.9770 N   0  0  0  0  0  0  0  0  0  0  0  0
    9.4928  -16.0173   21.7774 C   0  0  0  0  0  0  0  0  0  0  0  0
    9.2074  -17.2697   21.8849 O   0  0  0  0  0  0  0  0  0  0  0  0
   10.5479  -15.5614   22.5781 N   0  0  0  0  0  0  0  0  0  0  0  0
   11.3860  -16.4727   23.4001 C   0  0  1  0  0  0  0  0  0  0  0  0
   12.8094  -16.2679   23.0738 C   0  0  0  0  0  0  0  0  0  0  0  0
   13.8191  -17.0375   23.8449 C   0  0  0  0  0  0  0  0  0  0  0  0
   15.2190  -16.7774   23.4917 C   0  0  0  0  0  0  0  0  0  0  0  0
   15.9048  -17.6963   22.9099 O   0  0  0  0  0  0  0  0  0  0  0  0
   11.0325  -16.3464   24.7971 C   0  0  0  0  0  0  0  0  0  0  0  0
   10.3140  -15.4108   25.2699 O   0  0  0  0  0  0  0  0  0  0  0  0
   15.8904  -15.5931   23.7356 O   0  0  0  0  0  0  0  0  0  0  0  0
   11.4690  -17.2765   25.7713 O   0  0  0  0  0  0  0  0  0  0  0  0
  2  4  1  0
  2  1  1  1
  2  3  1  0
  4  5  2  0
  7  6  1  6
  7  9  1  0
  8  7  1  0
  9 11  1  0
  9 10  1  6
 10  4  1  0
 11 12  2  0
 11 13  1  0
 13 14  1  0
 14 15  1  1
 15 16  1  0
 16 17  1  0
 17 21  1  0
 18 17  2  0
 19 14  1  0
 20 19  2  0
 22 19  1  0
M  END
$$$$
