ATE.pdb
     RDKit          3D

 22 21  0  0  1  0  0  0  0  0999 V2000
    7.6807  -14.7230   14.2963 C   0  0  0  0  0  0  0  0  0  0  0  0
    8.5668  -15.6324   15.1548 C   0  0  2  0  0  0  0  0  0  0  0  0
    7.6834  -16.6204   15.7319 N   0  0  0  0  0  0  0  0  0  0  0  0
    9.2191  -14.7944   16.1921 C   0  0  0  0  0  0  0  0  0  0  0  0
   10.0546  -13.8841   15.8714 O   0  0  0  0  0  0  0  0  0  0  0  0
    7.3140  -13.0065   18.8323 C   0  0  0  0  0  0  0  0  0  0  0  0
    8.3868  -13.7732   19.5715 C   0  0  1  0  0  0  0  0  0  0  0  0
    7.7359  -14.9840   19.9492 O   0  0  0  0  0  0  0  0  0  0  0  0
    9.4758  -14.2284   18.6148 C   0  0  2  0  0  0  0  0  0  0  0  0
    8.8891  -15.0324   17.5507 N   0  0  0  0  0  0  0  0  0  0  0  0
   10.5432  -15.0124   19.2331 C   0  0  0  0  0  0  0  0  0  0  0  0
   10.3925  -16.2926   19.2310 O   0  0  0  0  0  0  0  0  0  0  0  0
   11.7176  -14.5376   19.8307 N   0  0  0  0  0  0  0  0  0  0  0  0
   12.6495  -15.4169   20.5839 C   0  0  1  0  0  0  0  0  0  0  0  0
   14.0382  -14.9723   20.3647 C   0  0  0  0  0  0  0  0  0  0  0  0
   14.5769  -15.0249   18.9813 C   0  0  0  0  0  0  0  0  0  0  0  0
   15.9760  -14.6106   18.8302 C   0  0  0  0  0  0  0  0  0  0  0  0
   16.8860  -15.5051   18.6721 O   0  0  0  0  0  0  0  0  0  0  0  0
   12.2282  -15.5196   21.9639 C   0  0  0  0  0  0  0  0  0  0  0  0
   11.3936  -14.7359   22.5156 O   0  0  0  0  0  0  0  0  0  0  0  0
   16.4198  -13.3008   18.8423 O   0  0  0  0  0  0  0  0  0  0  0  0
   12.7236  -16.5244   22.8297 O   0  0  0  0  0  0  0  0  0  0  0  0
  2  4  1  0
  2  1  1  6
  2  3  1  0
  4  5  2  0
  7  6  1  6
  7  9  1  0
  8  7  1  0
  9 11  1  0
  9 10  1  6
 10  4  1  0
 11 12  2  0
 11 13  1  0
 13 14  1  0
 14 15  1  1
 15 16  1  0
 16 17  1  0
 17 21  1  0
 18 17  2  0
 19 14  1  0
 20 19  2  0
 22 19  1  0
M  END
$$$$
