EFF.pdb
     RDKit          3D

 32 33  0  0  1  0  0  0  0  0999 V2000
   10.9426  -16.4767   19.7165 N   0  0  0  0  0  0  0  0  0  0  0  0
   10.2022  -17.0075   20.7935 C   0  0  1  0  0  0  0  0  0  0  0  0
   10.7302  -18.3135   21.2739 C   0  0  0  0  0  0  0  0  0  0  0  0
   11.2970  -19.1703   20.2060 C   0  0  0  0  0  0  0  0  0  0  0  0
   11.6991  -20.5124   20.6159 C   0  0  0  0  0  0  0  0  0  0  0  0
   12.8173  -20.8320   21.0727 O   0  0  0  0  0  0  0  0  0  0  0  0
   10.2080  -16.0479   21.9609 C   0  0  0  0  0  0  0  0  0  0  0  0
   11.2329  -15.3714   22.1202 O   0  0  0  0  0  0  0  0  0  0  0  0
   10.7618  -21.5727   20.4980 O   0  0  0  0  0  0  0  0  0  0  0  0
    9.0909  -15.9663   22.7871 N   0  0  0  0  0  0  0  0  0  0  0  0
    9.0133  -15.0798   23.9646 C   0  0  1  0  0  0  0  0  0  0  0  0
    7.6728  -14.4275   23.8832 C   0  0  0  0  0  0  0  0  0  0  0  0
    7.2946  -13.5445   24.9967 C   0  0  0  0  0  0  0  0  0  0  0  0
    6.5034  -13.9376   26.0489 C   0  0  0  0  0  0  0  0  0  0  0  0
    6.1608  -13.0788   27.0806 C   0  0  0  0  0  0  0  0  0  0  0  0
    6.6020  -11.7788   27.0990 C   0  0  0  0  0  0  0  0  0  0  0  0
    7.3976  -11.3691   26.0491 C   0  0  0  0  0  0  0  0  0  0  0  0
    7.7408  -12.2197   25.0212 C   0  0  0  0  0  0  0  0  0  0  0  0
    9.2104  -15.9014   25.1591 C   0  0  0  0  0  0  0  0  0  0  0  0
    9.2464  -17.1797   24.9940 O   0  0  0  0  0  0  0  0  0  0  0  0
    9.3757  -15.4215   26.4970 N   0  0  0  0  0  0  0  0  0  0  0  0
   10.3922  -15.9992   27.3155 C   0  0  1  0  0  0  0  0  0  0  0  0
   11.7561  -15.9618   26.6417 C   0  0  0  0  0  0  0  0  0  0  0  0
   12.1062  -17.1560   25.8957 C   0  0  0  0  0  0  0  0  0  0  0  0
   11.7220  -18.4061   26.3241 C   0  0  0  0  0  0  0  0  0  0  0  0
   12.0692  -19.5523   25.5946 C   0  0  0  0  0  0  0  0  0  0  0  0
   12.8040  -19.4306   24.4343 C   0  0  0  0  0  0  0  0  0  0  0  0
   13.1882  -18.1978   24.0032 C   0  0  0  0  0  0  0  0  0  0  0  0
   12.8361  -17.0843   24.7356 C   0  0  0  0  0  0  0  0  0  0  0  0
   10.4448  -15.4554   28.6785 C   0  0  0  0  0  0  0  0  0  0  0  0
    9.8243  -14.3670   28.9033 O   0  0  0  0  0  0  0  0  0  0  0  0
   11.1115  -16.0386   29.7141 O   0  0  0  0  0  0  0  0  0  0  0  0
  2  3  1  0
  2  1  1  6
  3  4  1  0
  5  4  1  0
  6  5  2  0
  7  2  1  0
  7  8  2  0
  9  5  1  0
 10  7  1  0
 11 19  1  0
 11 10  1  0
 11 12  1  1
 13 12  1  0
 13 14  2  0
 15 14  1  0
 16 15  2  0
 17 18  2  0
 17 16  1  0
 18 13  1  0
 19 21  1  0
 20 19  2  0
 21 22  1  0
 22 30  1  0
 22 23  1  6
 24 23  1  0
 24 29  1  0
 25 24  2  0
 26 25  1  0
 26 27  2  0
 27 28  1  0
 28 29  2  0
 30 31  2  0
 30 32  1  0
M  END
$$$$
