EFF.pdb
     RDKit          3D

 32 33  0  0  1  0  0  0  0  0999 V2000
    9.9635  -16.9763   18.0919 N   0  0  0  0  0  0  0  0  0  0  0  0
    9.4802  -17.6124   19.2544 C   0  0  1  0  0  0  0  0  0  0  0  0
   10.1131  -18.9374   19.4976 C   0  0  0  0  0  0  0  0  0  0  0  0
   11.5237  -19.0284   19.0530 C   0  0  0  0  0  0  0  0  0  0  0  0
   12.1565  -20.3340   19.2133 C   0  0  0  0  0  0  0  0  0  0  0  0
   13.1799  -20.5712   19.8897 O   0  0  0  0  0  0  0  0  0  0  0  0
    9.7297  -16.7499   20.4699 C   0  0  0  0  0  0  0  0  0  0  0  0
   10.8448  -16.2184   20.5558 O   0  0  0  0  0  0  0  0  0  0  0  0
   11.5853  -21.4557   18.5559 O   0  0  0  0  0  0  0  0  0  0  0  0
    8.7226  -16.5927   21.4178 N   0  0  0  0  0  0  0  0  0  0  0  0
    8.8206  -15.6660   22.5623 C   0  0  1  0  0  0  0  0  0  0  0  0
    7.4138  -15.2873   22.8885 C   0  0  0  0  0  0  0  0  0  0  0  0
    7.2162  -14.3896   24.0364 C   0  0  0  0  0  0  0  0  0  0  0  0
    6.6268  -14.7759   25.2158 C   0  0  0  0  0  0  0  0  0  0  0  0
    6.4505  -13.9035   26.2776 C   0  0  0  0  0  0  0  0  0  0  0  0
    6.8623  -12.5961   26.1986 C   0  0  0  0  0  0  0  0  0  0  0  0
    7.4561  -12.1932   25.0205 C   0  0  0  0  0  0  0  0  0  0  0  0
    7.6334  -13.0573   23.9623 C   0  0  0  0  0  0  0  0  0  0  0  0
    9.5223  -16.3594   23.6428 C   0  0  0  0  0  0  0  0  0  0  0  0
    9.2660  -17.6133   23.8007 O   0  0  0  0  0  0  0  0  0  0  0  0
   10.4750  -15.7806   24.5399 N   0  0  0  0  0  0  0  0  0  0  0  0
   11.1242  -16.6221   25.4924 C   0  0  1  0  0  0  0  0  0  0  0  0
   11.9451  -15.8222   26.4934 C   0  0  0  0  0  0  0  0  0  0  0  0
   11.1710  -15.0973   27.4835 C   0  0  0  0  0  0  0  0  0  0  0  0
   11.0465  -15.5597   28.7737 C   0  0  0  0  0  0  0  0  0  0  0  0
   10.2933  -14.8502   29.7203 C   0  0  0  0  0  0  0  0  0  0  0  0
    9.6683  -13.6756   29.3590 C   0  0  0  0  0  0  0  0  0  0  0  0
    9.7864  -13.2109   28.0849 C   0  0  0  0  0  0  0  0  0  0  0  0
   10.5316  -13.9240   27.1703 C   0  0  0  0  0  0  0  0  0  0  0  0
   10.2271  -17.5725   26.1619 C   0  0  0  0  0  0  0  0  0  0  0  0
   10.7580  -18.4718   26.8896 O   0  0  0  0  0  0  0  0  0  0  0  0
    8.8686  -17.5536   26.0556 O   0  0  0  0  0  0  0  0  0  0  0  0
  2  3  1  0
  2  1  1  6
  3  4  1  0
  5  4  1  0
  6  5  2  0
  7  2  1  0
  7  8  2  0
  9  5  1  0
 10  7  1  0
 11 19  1  0
 11 10  1  0
 11 12  1  1
 13 12  1  0
 13 14  2  0
 15 14  1  0
 16 15  2  0
 17 18  2  0
 17 16  1  0
 18 13  1  0
 19 21  1  0
 20 19  2  0
 21 22  1  0
 22 30  1  0
 22 23  1  1
 24 23  1  0
 24 29  1  0
 25 24  2  0
 26 25  1  0
 26 27  2  0
 27 28  1  0
 28 29  2  0
 30 31  2  0
 30 32  1  0
M  END
$$$$
