EFF.pdb
     RDKit          3D

 32 33  0  0  1  0  0  0  0  0999 V2000
    9.5269  -18.5039   20.0915 N   0  0  0  0  0  0  0  0  0  0  0  0
   10.7690  -17.8716   20.3091 C   0  0  1  0  0  0  0  0  0  0  0  0
   11.3508  -17.2910   19.0682 C   0  0  0  0  0  0  0  0  0  0  0  0
   11.6231  -18.2834   18.0021 C   0  0  0  0  0  0  0  0  0  0  0  0
   12.2669  -17.7627   16.8000 C   0  0  0  0  0  0  0  0  0  0  0  0
   13.4160  -17.2759   16.7397 O   0  0  0  0  0  0  0  0  0  0  0  0
   10.6231  -16.7561   21.3182 C   0  0  0  0  0  0  0  0  0  0  0  0
   11.5886  -15.9915   21.4459 O   0  0  0  0  0  0  0  0  0  0  0  0
   11.5526  -17.7961   15.5730 O   0  0  0  0  0  0  0  0  0  0  0  0
    9.4409  -16.6375   22.0433 N   0  0  0  0  0  0  0  0  0  0  0  0
    9.1665  -15.5263   22.9751 C   0  0  1  0  0  0  0  0  0  0  0  0
    7.8151  -15.0161   22.5980 C   0  0  0  0  0  0  0  0  0  0  0  0
    7.7301  -14.1963   21.3800 C   0  0  0  0  0  0  0  0  0  0  0  0
    8.2401  -12.9247   21.2777 C   0  0  0  0  0  0  0  0  0  0  0  0
    8.1389  -12.1760   20.1164 C   0  0  0  0  0  0  0  0  0  0  0  0
    7.5162  -12.6772   19.0002 C   0  0  0  0  0  0  0  0  0  0  0  0
    6.9989  -13.9531   19.0873 C   0  0  0  0  0  0  0  0  0  0  0  0
    7.0974  -14.7011   20.2400 C   0  0  0  0  0  0  0  0  0  0  0  0
    9.2518  -16.0516   24.3380 C   0  0  0  0  0  0  0  0  0  0  0  0
    8.5791  -17.1201   24.5995 O   0  0  0  0  0  0  0  0  0  0  0  0
   10.0189  -15.4967   25.4110 N   0  0  0  0  0  0  0  0  0  0  0  0
    9.8119  -15.9915   26.7336 C   0  0  1  0  0  0  0  0  0  0  0  0
    8.3618  -15.8525   27.1735 C   0  0  0  0  0  0  0  0  0  0  0  0
    7.7944  -14.5271   27.0114 C   0  0  0  0  0  0  0  0  0  0  0  0
    8.4428  -13.4083   27.4822 C   0  0  0  0  0  0  0  0  0  0  0  0
    7.8819  -12.1332   27.3209 C   0  0  0  0  0  0  0  0  0  0  0  0
    6.6671  -11.9936   26.6841 C   0  0  0  0  0  0  0  0  0  0  0  0
    6.0189  -13.0950   26.2151 C   0  0  0  0  0  0  0  0  0  0  0  0
    6.5881  -14.3390   26.3844 C   0  0  0  0  0  0  0  0  0  0  0  0
   10.3168  -17.3533   26.9496 C   0  0  0  0  0  0  0  0  0  0  0  0
   10.7972  -17.9702   25.9452 O   0  0  0  0  0  0  0  0  0  0  0  0
   10.3051  -17.9965   28.1510 O   0  0  0  0  0  0  0  0  0  0  0  0
  2  3  1  0
  2  1  1  6
  3  4  1  0
  5  4  1  0
  6  5  2  0
  7  2  1  0
  7  8  2  0
  9  5  1  0
 10  7  1  0
 11 19  1  0
 11 10  1  0
 11 12  1  6
 13 12  1  0
 13 14  2  0
 15 14  1  0
 16 15  2  0
 17 18  2  0
 17 16  1  0
 18 13  1  0
 19 21  1  0
 20 19  2  0
 21 22  1  0
 22 30  1  0
 22 23  1  6
 24 23  1  0
 24 29  1  0
 25 24  2  0
 26 25  1  0
 26 27  2  0
 27 28  1  0
 28 29  2  0
 30 31  2  0
 30 32  1  0
M  END
$$$$
