EFF.pdb
     RDKit          3D

 32 33  0  0  1  0  0  0  0  0999 V2000
    9.9811  -18.0255   19.8525 N   0  0  0  0  0  0  0  0  0  0  0  0
   11.0450  -17.7409   20.7340 C   0  0  1  0  0  0  0  0  0  0  0  0
   12.2474  -17.2050   20.0396 C   0  0  0  0  0  0  0  0  0  0  0  0
   12.3988  -17.6686   18.6403 C   0  0  0  0  0  0  0  0  0  0  0  0
   13.5758  -17.1746   17.9321 C   0  0  0  0  0  0  0  0  0  0  0  0
   13.6816  -17.0442   16.6940 O   0  0  0  0  0  0  0  0  0  0  0  0
   10.6159  -16.7254   21.7676 C   0  0  0  0  0  0  0  0  0  0  0  0
   11.4772  -15.9216   22.1490 O   0  0  0  0  0  0  0  0  0  0  0  0
   14.7200  -16.8007   18.6857 O   0  0  0  0  0  0  0  0  0  0  0  0
    9.3053  -16.7353   22.2360 N   0  0  0  0  0  0  0  0  0  0  0  0
    8.8740  -16.0330   23.4604 C   0  0  1  0  0  0  0  0  0  0  0  0
    7.7674  -15.1278   23.0303 C   0  0  0  0  0  0  0  0  0  0  0  0
    7.2147  -14.2230   24.0494 C   0  0  0  0  0  0  0  0  0  0  0  0
    6.2180  -14.5774   24.9262 C   0  0  0  0  0  0  0  0  0  0  0  0
    5.7152  -13.6988   25.8720 C   0  0  0  0  0  0  0  0  0  0  0  0
    6.1961  -12.4172   25.9779 C   0  0  0  0  0  0  0  0  0  0  0  0
    7.1973  -12.0464   25.1043 C   0  0  0  0  0  0  0  0  0  0  0  0
    7.7003  -12.9168   24.1623 C   0  0  0  0  0  0  0  0  0  0  0  0
    8.4771  -17.0433   24.4415 C   0  0  0  0  0  0  0  0  0  0  0  0
    7.2286  -17.0956   24.7594 O   0  0  0  0  0  0  0  0  0  0  0  0
    9.3424  -17.9879   25.0790 N   0  0  0  0  0  0  0  0  0  0  0  0
   10.1364  -17.5582   26.1844 C   0  0  1  0  0  0  0  0  0  0  0  0
    9.2937  -16.9111   27.2738 C   0  0  0  0  0  0  0  0  0  0  0  0
    9.8376  -15.6840   27.8244 C   0  0  0  0  0  0  0  0  0  0  0  0
    9.3959  -14.4515   27.4004 C   0  0  0  0  0  0  0  0  0  0  0  0
    9.9320  -13.2731   27.9395 C   0  0  0  0  0  0  0  0  0  0  0  0
   10.9132  -13.3448   28.9053 C   0  0  0  0  0  0  0  0  0  0  0  0
   11.3560  -14.5599   29.3307 C   0  0  0  0  0  0  0  0  0  0  0  0
   10.8153  -15.7057   28.7874 C   0  0  0  0  0  0  0  0  0  0  0  0
   11.0203  -18.5977   26.7270 C   0  0  0  0  0  0  0  0  0  0  0  0
   12.2757  -18.3996   26.6569 O   0  0  0  0  0  0  0  0  0  0  0  0
   10.5854  -19.7556   27.2990 O   0  0  0  0  0  0  0  0  0  0  0  0
  2  3  1  0
  2  1  1  6
  3  4  1  0
  5  4  1  0
  6  5  2  0
  7  2  1  0
  7  8  2  0
  9  5  1  0
 10  7  1  0
 11 19  1  0
 11 10  1  0
 11 12  1  6
 13 12  1  0
 13 14  2  0
 15 14  1  0
 16 15  2  0
 17 18  2  0
 17 16  1  0
 18 13  1  0
 19 21  1  0
 20 19  2  0
 21 22  1  0
 22 30  1  0
 22 23  1  1
 24 23  1  0
 24 29  1  0
 25 24  2  0
 26 25  1  0
 26 27  2  0
 27 28  1  0
 28 29  2  0
 30 31  2  0
 30 32  1  0
M  END
$$$$
