EFF.pdb
     RDKit          3D

 32 33  0  0  1  0  0  0  0  0999 V2000
    9.2989  -17.9491   19.0059 N   0  0  0  0  0  0  0  0  0  0  0  0
   10.5106  -17.9933   19.7268 C   0  0  1  0  0  0  0  0  0  0  0  0
   11.6921  -17.6235   18.9006 C   0  0  0  0  0  0  0  0  0  0  0  0
   12.0330  -18.6115   17.8503 C   0  0  0  0  0  0  0  0  0  0  0  0
   12.4634  -18.0548   16.5713 C   0  0  0  0  0  0  0  0  0  0  0  0
   13.5867  -17.5643   16.3295 O   0  0  0  0  0  0  0  0  0  0  0  0
   10.4569  -17.0504   20.9065 C   0  0  0  0  0  0  0  0  0  0  0  0
   11.5217  -16.5117   21.2373 O   0  0  0  0  0  0  0  0  0  0  0  0
   11.5497  -18.0541   15.4842 O   0  0  0  0  0  0  0  0  0  0  0  0
    9.2451  -16.8324   21.5556 N   0  0  0  0  0  0  0  0  0  0  0  0
    9.0991  -15.9515   22.7309 C   0  0  1  0  0  0  0  0  0  0  0  0
    7.6615  -15.5493   22.7498 C   0  0  0  0  0  0  0  0  0  0  0  0
    7.2455  -14.6187   23.8098 C   0  0  0  0  0  0  0  0  0  0  0  0
    7.4794  -13.2653   23.7735 C   0  0  0  0  0  0  0  0  0  0  0  0
    7.0788  -12.4157   24.7919 C   0  0  0  0  0  0  0  0  0  0  0  0
    6.4211  -12.8936   25.8982 C   0  0  0  0  0  0  0  0  0  0  0  0
    6.1787  -14.2507   25.9492 C   0  0  0  0  0  0  0  0  0  0  0  0
    6.5752  -15.0991   24.9388 C   0  0  0  0  0  0  0  0  0  0  0  0
    9.5287  -16.7022   23.9109 C   0  0  0  0  0  0  0  0  0  0  0  0
    9.1444  -17.9299   23.9988 O   0  0  0  0  0  0  0  0  0  0  0  0
   10.3439  -16.2064   24.9773 N   0  0  0  0  0  0  0  0  0  0  0  0
   10.8054  -17.1186   25.9731 C   0  0  1  0  0  0  0  0  0  0  0  0
   11.8019  -16.4696   26.9225 C   0  0  0  0  0  0  0  0  0  0  0  0
   11.2324  -15.5102   27.8500 C   0  0  0  0  0  0  0  0  0  0  0  0
   11.0041  -15.8366   29.1673 C   0  0  0  0  0  0  0  0  0  0  0  0
   10.4508  -14.9003   30.0526 C   0  0  0  0  0  0  0  0  0  0  0  0
   10.1299  -13.6371   29.6029 C   0  0  0  0  0  0  0  0  0  0  0  0
   10.3525  -13.3057   28.3014 C   0  0  0  0  0  0  0  0  0  0  0  0
   10.8973  -14.2414   27.4482 C   0  0  0  0  0  0  0  0  0  0  0  0
    9.7306  -17.8056   26.7006 C   0  0  0  0  0  0  0  0  0  0  0  0
    8.5441  -17.3706   26.5483 O   0  0  0  0  0  0  0  0  0  0  0  0
    9.9203  -18.8746   27.5242 O   0  0  0  0  0  0  0  0  0  0  0  0
  2  3  1  0
  2  1  1  6
  3  4  1  0
  5  4  1  0
  6  5  2  0
  7  2  1  0
  7  8  2  0
  9  5  1  0
 10  7  1  0
 11 19  1  0
 11 10  1  0
 11 12  1  1
 13 12  1  0
 13 14  2  0
 15 14  1  0
 16 15  2  0
 17 18  2  0
 17 16  1  0
 18 13  1  0
 19 21  1  0
 20 19  2  0
 21 22  1  0
 22 30  1  0
 22 23  1  1
 24 23  1  0
 24 29  1  0
 25 24  2  0
 26 25  1  0
 26 27  2  0
 27 28  1  0
 28 29  2  0
 30 31  2  0
 30 32  1  0
M  END
$$$$
