EFF.pdb
     RDKit          3D

 32 33  0  0  1  0  0  0  0  0999 V2000
   10.1301  -17.2209   18.3288 N   0  0  0  0  0  0  0  0  0  0  0  0
    9.2421  -17.5988   19.3575 C   0  0  1  0  0  0  0  0  0  0  0  0
    9.3691  -19.0323   19.7374 C   0  0  0  0  0  0  0  0  0  0  0  0
    9.4790  -19.9590   18.5863 C   0  0  0  0  0  0  0  0  0  0  0  0
    8.3152  -20.8050   18.3396 C   0  0  0  0  0  0  0  0  0  0  0  0
    7.1575  -20.4018   18.0985 O   0  0  0  0  0  0  0  0  0  0  0  0
    9.4861  -16.7681   20.5961 C   0  0  0  0  0  0  0  0  0  0  0  0
   10.6309  -16.3220   20.7505 O   0  0  0  0  0  0  0  0  0  0  0  0
    8.4771  -22.2155   18.3692 O   0  0  0  0  0  0  0  0  0  0  0  0
    8.4418  -16.5448   21.4889 N   0  0  0  0  0  0  0  0  0  0  0  0
    8.5752  -15.7224   22.7072 C   0  0  1  0  0  0  0  0  0  0  0  0
    7.2595  -15.0358   22.8691 C   0  0  0  0  0  0  0  0  0  0  0  0
    7.1418  -14.0779   23.9788 C   0  0  0  0  0  0  0  0  0  0  0  0
    6.4197  -14.3186   25.1225 C   0  0  0  0  0  0  0  0  0  0  0  0
    6.3243  -13.3922   26.1483 C   0  0  0  0  0  0  0  0  0  0  0  0
    6.9553  -12.1755   26.0676 C   0  0  0  0  0  0  0  0  0  0  0  0
    7.6844  -11.9191   24.9250 C   0  0  0  0  0  0  0  0  0  0  0  0
    7.7820  -12.8373   23.9026 C   0  0  0  0  0  0  0  0  0  0  0  0
    8.9289  -16.6124   23.8133 C   0  0  0  0  0  0  0  0  0  0  0  0
    7.9577  -17.1240   24.4899 O   0  0  0  0  0  0  0  0  0  0  0  0
   10.2532  -16.9778   24.2136 N   0  0  0  0  0  0  0  0  0  0  0  0
   10.7886  -16.4208   25.4136 C   0  0  1  0  0  0  0  0  0  0  0  0
   10.0714  -15.1408   25.8172 C   0  0  0  0  0  0  0  0  0  0  0  0
   10.3333  -14.6900   27.1711 C   0  0  0  0  0  0  0  0  0  0  0  0
   10.3280  -13.3523   27.4939 C   0  0  0  0  0  0  0  0  0  0  0  0
   10.5851  -12.9301   28.8063 C   0  0  0  0  0  0  0  0  0  0  0  0
   10.8468  -13.8622   29.7879 C   0  0  0  0  0  0  0  0  0  0  0  0
   10.8538  -15.1877   29.4775 C   0  0  0  0  0  0  0  0  0  0  0  0
   10.5985  -15.5808   28.1811 C   0  0  0  0  0  0  0  0  0  0  0  0
   10.8725  -17.3713   26.5298 C   0  0  0  0  0  0  0  0  0  0  0  0
   11.9988  -17.5038   27.1078 O   0  0  0  0  0  0  0  0  0  0  0  0
    9.8269  -18.1171   26.9855 O   0  0  0  0  0  0  0  0  0  0  0  0
  2  3  1  0
  2  1  1  6
  3  4  1  0
  5  4  1  0
  6  5  2  0
  7  2  1  0
  7  8  2  0
  9  5  1  0
 10  7  1  0
 11 19  1  0
 11 10  1  0
 11 12  1  1
 13 12  1  0
 13 14  2  0
 15 14  1  0
 16 15  2  0
 17 18  2  0
 17 16  1  0
 18 13  1  0
 19 21  1  0
 20 19  2  0
 21 22  1  0
 22 30  1  0
 22 23  1  1
 24 23  1  0
 24 29  1  0
 25 24  2  0
 26 25  1  0
 26 27  2  0
 27 28  1  0
 28 29  2  0
 30 31  2  0
 30 32  1  0
M  END
$$$$
