EFF.pdb
     RDKit          3D

 32 33  0  0  1  0  0  0  0  0999 V2000
   10.5971  -17.0640   18.3712 N   0  0  0  0  0  0  0  0  0  0  0  0
    9.7652  -17.5824   19.3857 C   0  0  1  0  0  0  0  0  0  0  0  0
   10.0345  -19.0159   19.6821 C   0  0  0  0  0  0  0  0  0  0  0  0
   11.3920  -19.4712   19.3003 C   0  0  0  0  0  0  0  0  0  0  0  0
   11.6704  -20.8877   19.5172 C   0  0  0  0  0  0  0  0  0  0  0  0
   12.0046  -21.4082   20.6027 O   0  0  0  0  0  0  0  0  0  0  0  0
    9.9477  -16.8023   20.6670 C   0  0  0  0  0  0  0  0  0  0  0  0
   11.1012  -16.4456   20.9420 O   0  0  0  0  0  0  0  0  0  0  0  0
   11.5620  -21.7815   18.4190 O   0  0  0  0  0  0  0  0  0  0  0  0
    8.8411  -16.5245   21.4643 N   0  0  0  0  0  0  0  0  0  0  0  0
    8.9233  -15.7908   22.7423 C   0  0  1  0  0  0  0  0  0  0  0  0
    7.5087  -15.5685   23.1645 C   0  0  0  0  0  0  0  0  0  0  0  0
    7.2932  -14.7200   24.3462 C   0  0  0  0  0  0  0  0  0  0  0  0
    6.7482  -15.1732   25.5231 C   0  0  0  0  0  0  0  0  0  0  0  0
    6.5534  -14.3460   26.6173 C   0  0  0  0  0  0  0  0  0  0  0  0
    6.9006  -13.0184   26.5749 C   0  0  0  0  0  0  0  0  0  0  0  0
    7.4492  -12.5484   25.3997 C   0  0  0  0  0  0  0  0  0  0  0  0
    7.6448  -13.3673   24.3093 C   0  0  0  0  0  0  0  0  0  0  0  0
    9.7088  -16.5997   23.6748 C   0  0  0  0  0  0  0  0  0  0  0  0
   10.9044  -16.9192   23.3129 O   0  0  0  0  0  0  0  0  0  0  0  0
    9.2798  -17.0658   24.9578 N   0  0  0  0  0  0  0  0  0  0  0  0
   10.2622  -17.3294   25.9589 C   0  0  1  0  0  0  0  0  0  0  0  0
   11.0070  -16.0685   26.3724 C   0  0  0  0  0  0  0  0  0  0  0  0
   10.3523  -15.2755   27.3959 C   0  0  0  0  0  0  0  0  0  0  0  0
   10.2861  -15.7054   28.7015 C   0  0  0  0  0  0  0  0  0  0  0  0
    9.6482  -14.9299   29.6805 C   0  0  0  0  0  0  0  0  0  0  0  0
    9.0791  -13.7224   29.3359 C   0  0  0  0  0  0  0  0  0  0  0  0
    9.1401  -13.2893   28.0467 C   0  0  0  0  0  0  0  0  0  0  0  0
    9.7720  -14.0673   27.1003 C   0  0  0  0  0  0  0  0  0  0  0  0
    9.7496  -18.0636   27.1227 C   0  0  0  0  0  0  0  0  0  0  0  0
    8.4966  -18.2808   27.1776 O   0  0  0  0  0  0  0  0  0  0  0  0
   10.5253  -18.5263   28.1431 O   0  0  0  0  0  0  0  0  0  0  0  0
  2  3  1  0
  2  1  1  6
  3  4  1  0
  5  4  1  0
  6  5  2  0
  7  2  1  0
  7  8  2  0
  9  5  1  0
 10  7  1  0
 11 19  1  0
 11 10  1  0
 11 12  1  1
 13 12  1  0
 13 14  2  0
 15 14  1  0
 16 15  2  0
 17 18  2  0
 17 16  1  0
 18 13  1  0
 19 21  1  0
 20 19  2  0
 21 22  1  0
 22 30  1  0
 22 23  1  1
 24 23  1  0
 24 29  1  0
 25 24  2  0
 26 25  1  0
 26 27  2  0
 27 28  1  0
 28 29  2  0
 30 31  2  0
 30 32  1  0
M  END
$$$$
