EFF.pdb
     RDKit          3D

 32 33  0  0  1  0  0  0  0  0999 V2000
    8.3853  -19.2682   20.4673 N   0  0  0  0  0  0  0  0  0  0  0  0
    9.6260  -18.6597   20.1846 C   0  0  1  0  0  0  0  0  0  0  0  0
    9.8143  -18.3688   18.7371 C   0  0  0  0  0  0  0  0  0  0  0  0
    8.5822  -17.9321   18.0393 C   0  0  0  0  0  0  0  0  0  0  0  0
    8.7085  -17.7227   16.6002 C   0  0  0  0  0  0  0  0  0  0  0  0
    9.7605  -17.8350   15.9356 O   0  0  0  0  0  0  0  0  0  0  0  0
    9.7587  -17.3574   20.9398 C   0  0  0  0  0  0  0  0  0  0  0  0
   10.7711  -16.6821   20.7110 O   0  0  0  0  0  0  0  0  0  0  0  0
    7.5536  -17.3574   15.8588 O   0  0  0  0  0  0  0  0  0  0  0  0
    8.7641  -16.9809   21.8377 N   0  0  0  0  0  0  0  0  0  0  0  0
    8.8442  -15.7714   22.6798 C   0  0  1  0  0  0  0  0  0  0  0  0
    7.4620  -15.5588   23.2024 C   0  0  0  0  0  0  0  0  0  0  0  0
    7.2961  -14.5370   24.2470 C   0  0  0  0  0  0  0  0  0  0  0  0
    7.7876  -13.2578   24.1494 C   0  0  0  0  0  0  0  0  0  0  0  0
    7.6186  -12.3195   25.1546 C   0  0  0  0  0  0  0  0  0  0  0  0
    6.9434  -12.6293   26.3092 C   0  0  0  0  0  0  0  0  0  0  0  0
    6.4438  -13.9102   26.4220 C   0  0  0  0  0  0  0  0  0  0  0  0
    6.6094  -14.8463   25.4249 C   0  0  0  0  0  0  0  0  0  0  0  0
    9.8484  -16.0117   23.7165 C   0  0  0  0  0  0  0  0  0  0  0  0
   10.9685  -15.3825   23.6071 O   0  0  0  0  0  0  0  0  0  0  0  0
    9.7043  -16.8747   24.8487 N   0  0  0  0  0  0  0  0  0  0  0  0
   10.8280  -17.0835   25.7034 C   0  0  1  0  0  0  0  0  0  0  0  0
   11.4338  -15.7710   26.1789 C   0  0  0  0  0  0  0  0  0  0  0  0
   10.6549  -15.0595   27.1749 C   0  0  0  0  0  0  0  0  0  0  0  0
   10.0579  -13.8530   26.8889 C   0  0  0  0  0  0  0  0  0  0  0  0
    9.3096  -13.1746   27.8618 C   0  0  0  0  0  0  0  0  0  0  0  0
    9.1676  -13.7185   29.1207 C   0  0  0  0  0  0  0  0  0  0  0  0
    9.7546  -14.9116   29.4121 C   0  0  0  0  0  0  0  0  0  0  0  0
   10.4858  -15.5616   28.4410 C   0  0  0  0  0  0  0  0  0  0  0  0
   10.5681  -17.9985   26.8221 C   0  0  0  0  0  0  0  0  0  0  0  0
    9.3665  -18.3747   27.0089 O   0  0  0  0  0  0  0  0  0  0  0  0
   11.5260  -18.4694   27.6692 O   0  0  0  0  0  0  0  0  0  0  0  0
  2  3  1  0
  2  1  1  6
  3  4  1  0
  5  4  1  0
  6  5  2  0
  7  2  1  0
  7  8  2  0
  9  5  1  0
 10  7  1  0
 11 19  1  0
 11 10  1  0
 11 12  1  1
 13 12  1  0
 13 14  2  0
 15 14  1  0
 16 15  2  0
 17 18  2  0
 17 16  1  0
 18 13  1  0
 19 21  1  0
 20 19  2  0
 21 22  1  0
 22 30  1  0
 22 23  1  1
 24 23  1  0
 24 29  1  0
 25 24  2  0
 26 25  1  0
 26 27  2  0
 27 28  1  0
 28 29  2  0
 30 31  2  0
 30 32  1  0
M  END
$$$$
