EFF.pdb
     RDKit          3D

 32 33  0  0  1  0  0  0  0  0999 V2000
    8.5839  -18.9078   19.7266 N   0  0  0  0  0  0  0  0  0  0  0  0
    9.9006  -18.4087   19.8106 C   0  0  1  0  0  0  0  0  0  0  0  0
   10.4160  -17.9066   18.5077 C   0  0  0  0  0  0  0  0  0  0  0  0
   11.5575  -18.6808   17.9662 C   0  0  0  0  0  0  0  0  0  0  0  0
   12.1653  -18.1486   16.7504 C   0  0  0  0  0  0  0  0  0  0  0  0
   13.3907  -18.0222   16.5418 O   0  0  0  0  0  0  0  0  0  0  0  0
    9.9715  -17.2733   20.8053 C   0  0  0  0  0  0  0  0  0  0  0  0
   11.0300  -16.6318   20.8431 O   0  0  0  0  0  0  0  0  0  0  0  0
   11.3187  -17.7271   15.6911 O   0  0  0  0  0  0  0  0  0  0  0  0
    8.8735  -17.0027   21.6167 N   0  0  0  0  0  0  0  0  0  0  0  0
    8.8923  -16.0053   22.7045 C   0  0  1  0  0  0  0  0  0  0  0  0
    7.4677  -15.6040   22.9003 C   0  0  0  0  0  0  0  0  0  0  0  0
    7.1874  -14.6580   23.9909 C   0  0  0  0  0  0  0  0  0  0  0  0
    7.6100  -13.3507   23.9959 C   0  0  0  0  0  0  0  0  0  0  0  0
    7.3335  -12.4858   25.0423 C   0  0  0  0  0  0  0  0  0  0  0  0
    6.6152  -12.9010   26.1362 C   0  0  0  0  0  0  0  0  0  0  0  0
    6.1838  -14.2113   26.1457 C   0  0  0  0  0  0  0  0  0  0  0  0
    6.4564  -15.0747   25.1074 C   0  0  0  0  0  0  0  0  0  0  0  0
    9.5071  -16.6300   23.8760 C   0  0  0  0  0  0  0  0  0  0  0  0
    8.7498  -17.3672   24.6147 O   0  0  0  0  0  0  0  0  0  0  0  0
   10.8748  -16.5080   24.2787 N   0  0  0  0  0  0  0  0  0  0  0  0
   11.2019  -16.6541   25.6601 C   0  0  1  0  0  0  0  0  0  0  0  0
   11.6591  -15.3414   26.2794 C   0  0  0  0  0  0  0  0  0  0  0  0
   10.9162  -14.9238   27.4536 C   0  0  0  0  0  0  0  0  0  0  0  0
   10.0392  -13.8643   27.4065 C   0  0  0  0  0  0  0  0  0  0  0  0
    9.3292  -13.4697   28.5497 C   0  0  0  0  0  0  0  0  0  0  0  0
    9.5085  -14.1478   29.7367 C   0  0  0  0  0  0  0  0  0  0  0  0
   10.3739  -15.1971   29.7921 C   0  0  0  0  0  0  0  0  0  0  0  0
   11.0617  -15.5683   28.6566 C   0  0  0  0  0  0  0  0  0  0  0  0
   10.1505  -17.2949   26.4603 C   0  0  0  0  0  0  0  0  0  0  0  0
   10.4953  -17.8434   27.5559 O   0  0  0  0  0  0  0  0  0  0  0  0
    8.8350  -17.3396   26.1075 O   0  0  0  0  0  0  0  0  0  0  0  0
  2  3  1  0
  2  1  1  6
  3  4  1  0
  5  4  1  0
  6  5  2  0
  7  2  1  0
  7  8  2  0
  9  5  1  0
 10  7  1  0
 11 19  1  0
 11 10  1  0
 11 12  1  1
 13 12  1  0
 13 14  2  0
 15 14  1  0
 16 15  2  0
 17 18  2  0
 17 16  1  0
 18 13  1  0
 19 21  1  0
 20 19  2  0
 21 22  1  0
 22 30  1  0
 22 23  1  1
 24 23  1  0
 24 29  1  0
 25 24  2  0
 26 25  1  0
 26 27  2  0
 27 28  1  0
 28 29  2  0
 30 31  2  0
 30 32  1  0
M  END
$$$$
