EFF.pdb
     RDKit          3D

 32 33  0  0  1  0  0  0  0  0999 V2000
   10.5018  -16.2895   18.5045 N   0  0  0  0  0  0  0  0  0  0  0  0
   10.6894  -17.0942   19.6478 C   0  0  1  0  0  0  0  0  0  0  0  0
   12.0579  -17.6734   19.7326 C   0  0  0  0  0  0  0  0  0  0  0  0
   12.2970  -18.8065   18.8083 C   0  0  0  0  0  0  0  0  0  0  0  0
   13.5580  -19.5189   18.9908 C   0  0  0  0  0  0  0  0  0  0  0  0
   14.5114  -19.5342   18.1834 O   0  0  0  0  0  0  0  0  0  0  0  0
   10.4482  -16.2898   20.9041 C   0  0  0  0  0  0  0  0  0  0  0  0
   11.1421  -15.2757   21.0574 O   0  0  0  0  0  0  0  0  0  0  0  0
   13.7519  -20.2716   20.1793 O   0  0  0  0  0  0  0  0  0  0  0  0
    9.4819  -16.7107   21.8131 N   0  0  0  0  0  0  0  0  0  0  0  0
    9.1402  -15.9654   23.0404 C   0  0  1  0  0  0  0  0  0  0  0  0
    7.6963  -15.6123   22.9019 C   0  0  0  0  0  0  0  0  0  0  0  0
    7.1159  -14.7631   23.9529 C   0  0  0  0  0  0  0  0  0  0  0  0
    7.3542  -13.4147   24.0641 C   0  0  0  0  0  0  0  0  0  0  0  0
    6.7956  -12.6431   25.0701 C   0  0  0  0  0  0  0  0  0  0  0  0
    5.9675  -13.1981   26.0142 C   0  0  0  0  0  0  0  0  0  0  0  0
    5.7185  -14.5513   25.9158 C   0  0  0  0  0  0  0  0  0  0  0  0
    6.2718  -15.3223   24.9171 C   0  0  0  0  0  0  0  0  0  0  0  0
    9.4419  -16.8241   24.1859 C   0  0  0  0  0  0  0  0  0  0  0  0
    9.9729  -17.9723   23.9363 O   0  0  0  0  0  0  0  0  0  0  0  0
    9.2110  -16.5088   25.5624 N   0  0  0  0  0  0  0  0  0  0  0  0
    9.5456  -17.4767   26.5565 C   0  0  1  0  0  0  0  0  0  0  0  0
    9.3654  -16.9317   27.9658 C   0  0  0  0  0  0  0  0  0  0  0  0
    9.8319  -15.5723   28.1637 C   0  0  0  0  0  0  0  0  0  0  0  0
    9.0068  -14.4930   27.9440 C   0  0  0  0  0  0  0  0  0  0  0  0
    9.4714  -13.1840   28.1369 C   0  0  0  0  0  0  0  0  0  0  0  0
   10.7689  -12.9706   28.5511 C   0  0  0  0  0  0  0  0  0  0  0  0
   11.5920  -14.0324   28.7709 C   0  0  0  0  0  0  0  0  0  0  0  0
   11.1149  -15.3109   28.5752 C   0  0  0  0  0  0  0  0  0  0  0  0
    8.8720  -18.7700   26.3841 C   0  0  0  0  0  0  0  0  0  0  0  0
    9.2570  -19.7375   27.1162 O   0  0  0  0  0  0  0  0  0  0  0  0
    7.8651  -19.0005   25.4952 O   0  0  0  0  0  0  0  0  0  0  0  0
  2  3  1  0
  2  1  1  6
  3  4  1  0
  5  4  1  0
  6  5  2  0
  7  2  1  0
  7  8  2  0
  9  5  1  0
 10  7  1  0
 11 19  1  0
 11 10  1  0
 11 12  1  6
 13 12  1  0
 13 14  2  0
 15 14  1  0
 16 15  2  0
 17 18  2  0
 17 16  1  0
 18 13  1  0
 19 21  1  0
 20 19  2  0
 21 22  1  0
 22 30  1  0
 22 23  1  1
 24 23  1  0
 24 29  1  0
 25 24  2  0
 26 25  1  0
 26 27  2  0
 27 28  1  0
 28 29  2  0
 30 31  2  0
 30 32  1  0
M  END
$$$$
