EFF.pdb
     RDKit          3D

 32 33  0  0  1  0  0  0  0  0999 V2000
   10.4777  -16.9745   18.3337 N   0  0  0  0  0  0  0  0  0  0  0  0
    9.5384  -17.3928   19.2993 C   0  0  1  0  0  0  0  0  0  0  0  0
    9.6731  -18.8316   19.6560 C   0  0  0  0  0  0  0  0  0  0  0  0
   11.0704  -19.3244   19.6777 C   0  0  0  0  0  0  0  0  0  0  0  0
   11.2414  -20.7315   20.0266 C   0  0  0  0  0  0  0  0  0  0  0  0
   10.5898  -21.6859   19.5516 O   0  0  0  0  0  0  0  0  0  0  0  0
    9.6905  -16.5851   20.5674 C   0  0  0  0  0  0  0  0  0  0  0  0
   10.8207  -16.1430   20.8136 O   0  0  0  0  0  0  0  0  0  0  0  0
   12.2261  -21.0825   20.9878 O   0  0  0  0  0  0  0  0  0  0  0  0
    8.5833  -16.3770   21.3849 N   0  0  0  0  0  0  0  0  0  0  0  0
    8.6269  -15.5780   22.6252 C   0  0  1  0  0  0  0  0  0  0  0  0
    7.2260  -15.1123   22.8473 C   0  0  0  0  0  0  0  0  0  0  0  0
    6.9812  -14.2861   24.0390 C   0  0  0  0  0  0  0  0  0  0  0  0
    6.3681  -14.7501   25.1776 C   0  0  0  0  0  0  0  0  0  0  0  0
    6.1475  -13.9438   26.2824 C   0  0  0  0  0  0  0  0  0  0  0  0
    6.5366  -12.6272   26.2900 C   0  0  0  0  0  0  0  0  0  0  0  0
    7.1537  -12.1465   25.1538 C   0  0  0  0  0  0  0  0  0  0  0  0
    7.3752  -12.9448   24.0530 C   0  0  0  0  0  0  0  0  0  0  0  0
    9.1527  -16.4316   23.6910 C   0  0  0  0  0  0  0  0  0  0  0  0
    9.1184  -17.7055   23.4947 O   0  0  0  0  0  0  0  0  0  0  0  0
    9.7105  -15.9875   24.9315 N   0  0  0  0  0  0  0  0  0  0  0  0
   10.5262  -16.8871   25.6815 C   0  0  1  0  0  0  0  0  0  0  0  0
   11.5298  -16.1511   26.5571 C   0  0  0  0  0  0  0  0  0  0  0  0
   10.9531  -15.4065   27.6607 C   0  0  0  0  0  0  0  0  0  0  0  0
   10.8211  -15.9665   28.9108 C   0  0  0  0  0  0  0  0  0  0  0  0
   10.2596  -15.2361   29.9682 C   0  0  0  0  0  0  0  0  0  0  0  0
    9.8335  -13.9419   29.7579 C   0  0  0  0  0  0  0  0  0  0  0  0
    9.9605  -13.3800   28.5244 C   0  0  0  0  0  0  0  0  0  0  0  0
   10.5151  -14.1158   27.4991 C   0  0  0  0  0  0  0  0  0  0  0  0
    9.7692  -17.8868   26.4455 C   0  0  0  0  0  0  0  0  0  0  0  0
    8.5028  -17.7646   26.4839 O   0  0  0  0  0  0  0  0  0  0  0  0
   10.3324  -18.9331   27.1128 O   0  0  0  0  0  0  0  0  0  0  0  0
  2  3  1  0
  2  1  1  6
  3  4  1  0
  5  4  1  0
  6  5  2  0
  7  2  1  0
  7  8  2  0
  9  5  1  0
 10  7  1  0
 11 19  1  0
 11 10  1  0
 11 12  1  1
 13 12  1  0
 13 14  2  0
 15 14  1  0
 16 15  2  0
 17 18  2  0
 17 16  1  0
 18 13  1  0
 19 21  1  0
 20 19  2  0
 21 22  1  0
 22 30  1  0
 22 23  1  1
 24 23  1  0
 24 29  1  0
 25 24  2  0
 26 25  1  0
 26 27  2  0
 27 28  1  0
 28 29  2  0
 30 31  2  0
 30 32  1  0
M  END
$$$$
