EFF.pdb
     RDKit          3D

 32 33  0  0  1  0  0  0  0  0999 V2000
    8.7457  -18.5549   19.3658 N   0  0  0  0  0  0  0  0  0  0  0  0
   10.0894  -18.2345   19.6513 C   0  0  1  0  0  0  0  0  0  0  0  0
   10.8403  -17.7611   18.4566 C   0  0  0  0  0  0  0  0  0  0  0  0
   12.2874  -17.5473   18.6932 C   0  0  0  0  0  0  0  0  0  0  0  0
   13.0592  -17.0968   17.5389 C   0  0  0  0  0  0  0  0  0  0  0  0
   13.1359  -15.9200   17.1261 O   0  0  0  0  0  0  0  0  0  0  0  0
   10.1613  -17.1515   20.7027 C   0  0  0  0  0  0  0  0  0  0  0  0
   11.2739  -16.6482   20.9081 O   0  0  0  0  0  0  0  0  0  0  0  0
   13.7998  -18.0541   16.7962 O   0  0  0  0  0  0  0  0  0  0  0  0
    9.0047  -16.7744   21.3790 N   0  0  0  0  0  0  0  0  0  0  0  0
    9.0083  -15.9189   22.5817 C   0  0  1  0  0  0  0  0  0  0  0  0
    7.6646  -15.2691   22.6112 C   0  0  0  0  0  0  0  0  0  0  0  0
    7.3532  -14.4390   23.7845 C   0  0  0  0  0  0  0  0  0  0  0  0
    6.7301  -14.9142   24.9130 C   0  0  0  0  0  0  0  0  0  0  0  0
    6.4459  -14.1041   26.0003 C   0  0  0  0  0  0  0  0  0  0  0  0
    6.7784  -12.7720   25.9999 C   0  0  0  0  0  0  0  0  0  0  0  0
    7.4048  -12.2800   24.8736 C   0  0  0  0  0  0  0  0  0  0  0  0
    7.6893  -13.0819   23.7902 C   0  0  0  0  0  0  0  0  0  0  0  0
    9.2895  -16.7705   23.7378 C   0  0  0  0  0  0  0  0  0  0  0  0
    8.2971  -17.4179   24.2463 O   0  0  0  0  0  0  0  0  0  0  0  0
   10.5657  -16.9615   24.3562 N   0  0  0  0  0  0  0  0  0  0  0  0
   10.7005  -16.7001   25.7528 C   0  0  1  0  0  0  0  0  0  0  0  0
   10.5433  -15.2209   26.0735 C   0  0  0  0  0  0  0  0  0  0  0  0
   10.5421  -14.8951   27.4873 C   0  0  0  0  0  0  0  0  0  0  0  0
    9.8862  -13.7836   27.9653 C   0  0  0  0  0  0  0  0  0  0  0  0
    9.8951  -13.4791   29.3341 C   0  0  0  0  0  0  0  0  0  0  0  0
   10.5673  -14.2993   30.2151 C   0  0  0  0  0  0  0  0  0  0  0  0
   11.2186  -15.4010   29.7509 C   0  0  0  0  0  0  0  0  0  0  0  0
   11.1971  -15.6818   28.4015 C   0  0  0  0  0  0  0  0  0  0  0  0
    9.8427  -17.5344   26.6039 C   0  0  0  0  0  0  0  0  0  0  0  0
   10.4128  -18.3702   27.3764 O   0  0  0  0  0  0  0  0  0  0  0  0
    8.4815  -17.4718   26.6207 O   0  0  0  0  0  0  0  0  0  0  0  0
  2  3  1  0
  2  1  1  6
  3  4  1  0
  5  4  1  0
  6  5  2  0
  7  2  1  0
  7  8  2  0
  9  5  1  0
 10  7  1  0
 11 19  1  0
 11 10  1  0
 11 12  1  1
 13 12  1  0
 13 14  2  0
 15 14  1  0
 16 15  2  0
 17 18  2  0
 17 16  1  0
 18 13  1  0
 19 21  1  0
 20 19  2  0
 21 22  1  0
 22 30  1  0
 22 23  1  6
 24 23  1  0
 24 29  1  0
 25 24  2  0
 26 25  1  0
 26 27  2  0
 27 28  1  0
 28 29  2  0
 30 31  2  0
 30 32  1  0
M  END
$$$$
