CFL.pdb
     RDKit          3D

 26 26  0  0  1  0  0  0  0  0999 V2000
   10.1258  -18.8951   19.6882 N   0  0  0  0  0  0  0  0  0  0  0  0
    9.3416  -18.5463   20.8465 C   0  0  1  0  0  0  0  0  0  0  0  0
    9.5435  -19.5663   21.9245 C   0  0  0  0  0  0  0  0  0  0  0  0
    8.3039  -20.8638   21.9095 S   0  0  0  0  0  0  0  0  0  0  0  0
    9.7609  -17.2202   21.4080 C   0  0  0  0  0  0  0  0  0  0  0  0
   10.9310  -16.8233   21.3095 O   0  0  0  0  0  0  0  0  0  0  0  0
    8.8001  -16.4299   22.0518 N   0  0  0  0  0  0  0  0  0  0  0  0
    9.0626  -15.1176   22.6065 C   0  0  1  0  0  0  0  0  0  0  0  0
    7.8411  -14.2553   22.3745 C   0  0  0  0  0  0  0  0  0  0  0  0
    7.6654  -13.8287   20.9776 C   0  0  0  0  0  0  0  0  0  0  0  0
    6.8192  -14.5255   20.1473 C   0  0  0  0  0  0  0  0  0  0  0  0
    6.6307  -14.1400   18.8169 C   0  0  0  0  0  0  0  0  0  0  0  0
    7.2930  -13.0510   18.3154 C   0  0  0  0  0  0  0  0  0  0  0  0
    8.1424  -12.3429   19.1307 C   0  0  0  0  0  0  0  0  0  0  0  0
    8.3235  -12.7383   20.4622 C   0  0  0  0  0  0  0  0  0  0  0  0
    9.4003  -15.2894   24.0342 C   0  0  0  0  0  0  0  0  0  0  0  0
   10.5707  -15.0817   24.4231 O   0  0  0  0  0  0  0  0  0  0  0  0
    8.3978  -12.4384   27.1319 C   0  0  0  0  0  0  0  0  0  0  0  0
    7.3104  -13.4189   26.6967 C   0  0  2  0  0  0  0  0  0  0  0  0
    5.9508  -12.8652   26.8490 C   0  0  0  0  0  0  0  0  0  0  0  0
    7.5677  -14.8205   27.0622 C   0  0  0  0  0  0  0  0  0  0  0  0
    8.7382  -15.4909   26.4107 C   0  0  2  0  0  0  0  0  0  0  0  0
    8.4320  -15.6844   24.9798 N   0  0  0  0  0  0  0  0  0  0  0  0
    8.9727  -16.8289   26.9462 C   0  0  0  0  0  0  0  0  0  0  0  0
    8.6671  -17.8427   26.2846 O   0  0  0  0  0  0  0  0  0  0  0  0
    9.5382  -17.0565   28.1979 O   0  0  0  0  0  0  0  0  0  0  0  0
  2  5  1  0
  2  1  1  6
  3  2  1  0
  4  3  1  0
  5  6  2  0
  7  8  1  0
  7  5  1  0
  9 10  1  0
  8  9  1  1
 10 11  2  0
 11 12  1  0
 13 12  2  0
 14 13  1  0
 15 14  2  0
 15 10  1  0
 16  8  1  0
 17 16  2  0
 19 18  1  1
 19 21  1  0
 20 19  1  0
 22 21  1  1
 22 24  1  0
 22 23  1  0
 23 16  1  0
 24 26  1  0
 25 24  2  0
M  END
$$$$
