CFL.pdb
     RDKit          3D

 26 26  0  0  1  0  0  0  0  0999 V2000
    8.5929  -19.0679   20.9584 N   0  0  0  0  0  0  0  0  0  0  0  0
    9.1889  -17.9190   20.3235 C   0  0  1  0  0  0  0  0  0  0  0  0
    8.6120  -17.7374   18.9534 C   0  0  0  0  0  0  0  0  0  0  0  0
    8.2390  -19.2894   18.1333 S   0  0  0  0  0  0  0  0  0  0  0  0
    8.9044  -16.6635   21.0933 C   0  0  0  0  0  0  0  0  0  0  0  0
    8.1917  -15.7676   20.6180 O   0  0  0  0  0  0  0  0  0  0  0  0
    9.4621  -16.5180   22.3700 N   0  0  0  0  0  0  0  0  0  0  0  0
    9.2143  -15.3897   23.2441 C   0  0  1  0  0  0  0  0  0  0  0  0
    7.7427  -15.3806   23.5957 C   0  0  0  0  0  0  0  0  0  0  0  0
    7.3485  -14.2865   24.4966 C   0  0  0  0  0  0  0  0  0  0  0  0
    7.6881  -12.9892   24.1920 C   0  0  0  0  0  0  0  0  0  0  0  0
    7.3233  -11.9300   25.0283 C   0  0  0  0  0  0  0  0  0  0  0  0
    6.6148  -12.1713   26.1755 C   0  0  0  0  0  0  0  0  0  0  0  0
    6.2669  -13.4614   26.4954 C   0  0  0  0  0  0  0  0  0  0  0  0
    6.6378  -14.5148   25.6500 C   0  0  0  0  0  0  0  0  0  0  0  0
   10.1001  -15.5244   24.4185 C   0  0  0  0  0  0  0  0  0  0  0  0
   10.9489  -14.6378   24.6590 O   0  0  0  0  0  0  0  0  0  0  0  0
    9.2531  -13.7093   29.1437 C   0  0  0  0  0  0  0  0  0  0  0  0
   10.2282  -14.5520   28.3239 C   0  0  2  0  0  0  0  0  0  0  0  0
   11.4475  -13.8091   27.9500 C   0  0  0  0  0  0  0  0  0  0  0  0
    9.5916  -15.4425   27.3409 C   0  0  0  0  0  0  0  0  0  0  0  0
   10.4657  -16.4634   26.6794 C   0  0  2  0  0  0  0  0  0  0  0  0
   10.0153  -16.6340   25.2842 N   0  0  0  0  0  0  0  0  0  0  0  0
   10.3367  -17.7800   27.2972 C   0  0  0  0  0  0  0  0  0  0  0  0
    9.3357  -18.4925   27.0757 O   0  0  0  0  0  0  0  0  0  0  0  0
   11.2971  -18.3141   28.1521 O   0  0  0  0  0  0  0  0  0  0  0  0
  2  5  1  0
  2  1  1  1
  3  2  1  0
  4  3  1  0
  5  6  2  0
  7  8  1  0
  7  5  1  0
  9 10  1  0
  8  9  1  1
 10 11  2  0
 11 12  1  0
 13 12  2  0
 14 13  1  0
 15 14  2  0
 15 10  1  0
 16  8  1  0
 17 16  2  0
 19 18  1  6
 19 21  1  0
 20 19  1  0
 22 21  1  1
 22 24  1  0
 22 23  1  0
 23 16  1  0
 24 26  1  0
 25 24  2  0
M  END
$$$$
