CFL.pdb
     RDKit          3D

 26 26  0  0  1  0  0  0  0  0999 V2000
   11.1777  -16.8483   19.1811 N   0  0  0  0  0  0  0  0  0  0  0  0
   10.7310  -17.5129   20.3798 C   0  0  1  0  0  0  0  0  0  0  0  0
   11.7540  -18.5153   20.8182 C   0  0  0  0  0  0  0  0  0  0  0  0
   11.2140  -19.5128   22.2088 S   0  0  0  0  0  0  0  0  0  0  0  0
   10.5537  -16.5399   21.5074 C   0  0  0  0  0  0  0  0  0  0  0  0
   11.3889  -15.6500   21.7238 O   0  0  0  0  0  0  0  0  0  0  0  0
    9.4183  -16.6538   22.3199 N   0  0  0  0  0  0  0  0  0  0  0  0
    9.1248  -15.7804   23.4378 C   0  0  1  0  0  0  0  0  0  0  0  0
    7.6221  -15.6374   23.5418 C   0  0  0  0  0  0  0  0  0  0  0  0
    7.1821  -14.6343   24.5238 C   0  0  0  0  0  0  0  0  0  0  0  0
    7.4696  -13.3045   24.3240 C   0  0  0  0  0  0  0  0  0  0  0  0
    7.0606  -12.3300   25.2389 C   0  0  0  0  0  0  0  0  0  0  0  0
    6.3599  -12.6891   26.3598 C   0  0  0  0  0  0  0  0  0  0  0  0
    6.0638  -14.0132   26.5755 C   0  0  0  0  0  0  0  0  0  0  0  0
    6.4787  -14.9811   25.6519 C   0  0  0  0  0  0  0  0  0  0  0  0
    9.7461  -16.3650   24.6437 C   0  0  0  0  0  0  0  0  0  0  0  0
   10.5256  -17.3364   24.5297 O   0  0  0  0  0  0  0  0  0  0  0  0
   11.6251  -13.7870   27.6648 C   0  0  0  0  0  0  0  0  0  0  0  0
   10.2197  -14.1452   28.1442 C   0  0  2  0  0  0  0  0  0  0  0  0
    9.7170  -13.2180   29.1766 C   0  0  0  0  0  0  0  0  0  0  0  0
    9.9687  -15.5883   28.2814 C   0  0  0  0  0  0  0  0  0  0  0  0
   10.2118  -16.4403   27.0736 C   0  0  2  0  0  0  0  0  0  0  0  0
    9.4831  -15.8545   25.9314 N   0  0  0  0  0  0  0  0  0  0  0  0
    9.6720  -17.7874   27.2341 C   0  0  0  0  0  0  0  0  0  0  0  0
   10.2168  -18.6044   28.0053 O   0  0  0  0  0  0  0  0  0  0  0  0
    8.5431  -18.2381   26.5553 O   0  0  0  0  0  0  0  0  0  0  0  0
  2  5  1  0
  2  1  1  6
  3  2  1  0
  4  3  1  0
  5  6  2  0
  7  8  1  0
  7  5  1  0
  9 10  1  0
  8  9  1  1
 10 11  2  0
 11 12  1  0
 13 12  2  0
 14 13  1  0
 15 14  2  0
 15 10  1  0
 16  8  1  0
 17 16  2  0
 19 18  1  1
 19 21  1  0
 20 19  1  0
 22 21  1  1
 22 24  1  0
 22 23  1  0
 23 16  1  0
 24 26  1  0
 25 24  2  0
M  END
$$$$
