CFL.pdb
     RDKit          3D

 26 26  0  0  1  0  0  0  0  0999 V2000
   11.7356  -16.5987   19.4824 N   0  0  0  0  0  0  0  0  0  0  0  0
   10.9294  -17.2666   20.4734 C   0  0  1  0  0  0  0  0  0  0  0  0
   11.6389  -18.4895   20.9678 C   0  0  0  0  0  0  0  0  0  0  0  0
   10.6494  -19.4709   22.0983 S   0  0  0  0  0  0  0  0  0  0  0  0
   10.6875  -16.3847   21.6623 C   0  0  0  0  0  0  0  0  0  0  0  0
   11.5817  -15.6522   22.1098 O   0  0  0  0  0  0  0  0  0  0  0  0
    9.4230  -16.4020   22.2646 N   0  0  0  0  0  0  0  0  0  0  0  0
    9.0469  -15.5774   23.3948 C   0  0  1  0  0  0  0  0  0  0  0  0
    7.6033  -15.1613   23.2144 C   0  0  0  0  0  0  0  0  0  0  0  0
    7.1326  -14.1845   24.2085 C   0  0  0  0  0  0  0  0  0  0  0  0
    7.5309  -12.8710   24.1238 C   0  0  0  0  0  0  0  0  0  0  0  0
    7.0959  -11.9212   25.0527 C   0  0  0  0  0  0  0  0  0  0  0  0
    6.2576  -12.2887   26.0717 C   0  0  0  0  0  0  0  0  0  0  0  0
    5.8494  -13.5967   26.1717 C   0  0  0  0  0  0  0  0  0  0  0  0
    6.2916  -14.5399   25.2352 C   0  0  0  0  0  0  0  0  0  0  0  0
    9.2855  -16.3597   24.6248 C   0  0  0  0  0  0  0  0  0  0  0  0
    9.4969  -17.5898   24.5450 O   0  0  0  0  0  0  0  0  0  0  0  0
   11.4322  -14.0837   27.7144 C   0  0  0  0  0  0  0  0  0  0  0  0
   10.0136  -14.3156   28.2311 C   0  0  2  0  0  0  0  0  0  0  0  0
    9.6561  -13.4086   29.3392 C   0  0  0  0  0  0  0  0  0  0  0  0
    9.6066  -15.7281   28.2902 C   0  0  0  0  0  0  0  0  0  0  0  0
    9.7799  -16.5401   27.0434 C   0  0  2  0  0  0  0  0  0  0  0  0
    9.2818  -15.7538   25.8978 N   0  0  0  0  0  0  0  0  0  0  0  0
    8.9737  -17.7572   27.0642 C   0  0  0  0  0  0  0  0  0  0  0  0
    7.8838  -17.8100   26.4575 O   0  0  0  0  0  0  0  0  0  0  0  0
    9.3576  -18.9098   27.7444 O   0  0  0  0  0  0  0  0  0  0  0  0
  2  5  1  0
  2  1  1  6
  3  2  1  0
  4  3  1  0
  5  6  2  0
  7  8  1  0
  7  5  1  0
  9 10  1  0
  8  9  1  6
 10 11  2  0
 11 12  1  0
 13 12  2  0
 14 13  1  0
 15 14  2  0
 15 10  1  0
 16  8  1  0
 17 16  2  0
 19 18  1  1
 19 21  1  0
 20 19  1  0
 22 21  1  1
 22 24  1  0
 22 23  1  0
 23 16  1  0
 24 26  1  0
 25 24  2  0
M  END
$$$$
