CFL.pdb
     RDKit          3D

 26 26  0  0  1  0  0  0  0  0999 V2000
    8.9658  -16.2100   18.2139 N   0  0  0  0  0  0  0  0  0  0  0  0
    8.0629  -16.3609   19.3276 C   0  0  1  0  0  0  0  0  0  0  0  0
    7.9424  -17.8083   19.6934 C   0  0  0  0  0  0  0  0  0  0  0  0
    9.4846  -18.5209   20.2716 S   0  0  0  0  0  0  0  0  0  0  0  0
    8.5698  -15.6389   20.5406 C   0  0  0  0  0  0  0  0  0  0  0  0
    9.7594  -15.3042   20.6370 O   0  0  0  0  0  0  0  0  0  0  0  0
    7.6692  -15.3459   21.5726 N   0  0  0  0  0  0  0  0  0  0  0  0
    8.0335  -14.6870   22.8102 C   0  0  1  0  0  0  0  0  0  0  0  0
    6.7774  -14.1060   23.4218 C   0  0  0  0  0  0  0  0  0  0  0  0
    6.9833  -13.4899   24.7417 C   0  0  0  0  0  0  0  0  0  0  0  0
    6.5393  -14.1290   25.8755 C   0  0  0  0  0  0  0  0  0  0  0  0
    6.7249  -13.5681   27.1424 C   0  0  0  0  0  0  0  0  0  0  0  0
    7.3584  -12.3608   27.2746 C   0  0  0  0  0  0  0  0  0  0  0  0
    7.8086  -11.7081   26.1526 C   0  0  0  0  0  0  0  0  0  0  0  0
    7.6171  -12.2797   24.8882 C   0  0  0  0  0  0  0  0  0  0  0  0
    8.7031  -15.6821   23.6723 C   0  0  0  0  0  0  0  0  0  0  0  0
    8.2745  -16.8564   23.7107 O   0  0  0  0  0  0  0  0  0  0  0  0
   14.5609  -16.5602   24.9970 C   0  0  0  0  0  0  0  0  0  0  0  0
   13.1247  -17.0731   25.0854 C   0  0  2  0  0  0  0  0  0  0  0  0
   13.0035  -18.4941   24.7055 C   0  0  0  0  0  0  0  0  0  0  0  0
   12.1031  -16.1134   24.6388 C   0  0  0  0  0  0  0  0  0  0  0  0
   10.6766  -16.4368   24.9617 C   0  0  2  0  0  0  0  0  0  0  0  0
    9.8219  -15.3428   24.4604 N   0  0  0  0  0  0  0  0  0  0  0  0
   10.4385  -16.4926   26.4012 C   0  0  0  0  0  0  0  0  0  0  0  0
   10.7849  -17.4909   27.0662 O   0  0  0  0  0  0  0  0  0  0  0  0
    9.8252  -15.4624   27.1090 O   0  0  0  0  0  0  0  0  0  0  0  0
  2  5  1  0
  2  1  1  6
  3  2  1  0
  4  3  1  0
  5  6  2  0
  7  8  1  0
  7  5  1  0
  9 10  1  0
  8  9  1  1
 10 11  2  0
 11 12  1  0
 13 12  2  0
 14 13  1  0
 15 14  2  0
 15 10  1  0
 16  8  1  0
 17 16  2  0
 19 18  1  6
 19 21  1  0
 20 19  1  0
 22 21  1  1
 22 24  1  0
 22 23  1  0
 23 16  1  0
 24 26  1  0
 25 24  2  0
M  END
$$$$
