CFL.pdb
     RDKit          3D

 26 26  0  0  1  0  0  0  0  0999 V2000
    6.4688  -20.2113   23.0025 N   0  0  0  0  0  0  0  0  0  0  0  0
    6.2607  -18.9044   23.5742 C   0  0  1  0  0  0  0  0  0  0  0  0
    6.1395  -19.0127   25.0631 C   0  0  0  0  0  0  0  0  0  0  0  0
    7.6718  -19.4959   25.8625 S   0  0  0  0  0  0  0  0  0  0  0  0
    7.4194  -17.9955   23.2897 C   0  0  0  0  0  0  0  0  0  0  0  0
    8.5033  -18.4444   22.8895 O   0  0  0  0  0  0  0  0  0  0  0  0
    7.2559  -16.6181   23.4852 N   0  0  0  0  0  0  0  0  0  0  0  0
    8.2420  -15.6205   23.1234 C   0  0  1  0  0  0  0  0  0  0  0  0
    7.5367  -14.2888   22.9874 C   0  0  0  0  0  0  0  0  0  0  0  0
    7.3048  -13.6000   24.2664 C   0  0  0  0  0  0  0  0  0  0  0  0
    7.9230  -12.3986   24.5222 C   0  0  0  0  0  0  0  0  0  0  0  0
    7.7177  -11.7209   25.7275 C   0  0  0  0  0  0  0  0  0  0  0  0
    6.8889  -12.2492   26.6816 C   0  0  0  0  0  0  0  0  0  0  0  0
    6.2629  -13.4487   26.4430 C   0  0  0  0  0  0  0  0  0  0  0  0
    6.4761  -14.1188   25.2316 C   0  0  0  0  0  0  0  0  0  0  0  0
    9.2937  -15.6272   24.1606 C   0  0  0  0  0  0  0  0  0  0  0  0
   10.3378  -14.9605   23.9882 O   0  0  0  0  0  0  0  0  0  0  0  0
    9.2601  -14.6474   29.9247 C   0  0  0  0  0  0  0  0  0  0  0  0
    9.9095  -14.7482   28.5458 C   0  0  2  0  0  0  0  0  0  0  0  0
   10.2083  -13.4271   27.9595 C   0  0  0  0  0  0  0  0  0  0  0  0
    9.3679  -15.8155   27.6902 C   0  0  0  0  0  0  0  0  0  0  0  0
   10.1237  -16.1339   26.4368 C   0  0  2  0  0  0  0  0  0  0  0  0
    9.1531  -16.3705   25.3503 N   0  0  0  0  0  0  0  0  0  0  0  0
   10.8885  -17.3720   26.5563 C   0  0  0  0  0  0  0  0  0  0  0  0
   10.3210  -18.4815   26.4795 O   0  0  0  0  0  0  0  0  0  0  0  0
   12.2658  -17.3962   26.7582 O   0  0  0  0  0  0  0  0  0  0  0  0
  2  5  1  0
  2  1  1  6
  3  2  1  0
  4  3  1  0
  5  6  2  0
  7  8  1  0
  7  5  1  0
  9 10  1  0
  8  9  1  1
 10 11  2  0
 11 12  1  0
 13 12  2  0
 14 13  1  0
 15 14  2  0
 15 10  1  0
 16  8  1  0
 17 16  2  0
 19 18  1  1
 19 21  1  0
 20 19  1  0
 22 21  1  1
 22 24  1  0
 22 23  1  0
 23 16  1  0
 24 26  1  0
 25 24  2  0
M  END
$$$$
