RAC.pdb
     RDKit          3D

 23 22  0  0  1  0  0  0  0  0999 V2000
    9.1483  -14.3661   17.4277 N   0  0  0  0  0  0  0  0  0  0  0  0
    7.9396  -13.7750   16.9388 C   0  0  0  0  0  0  0  0  0  0  0  0
    7.8260  -13.5244   15.6727 N   0  0  0  0  0  0  0  0  0  0  0  0
    6.8694  -13.4601   17.8096 N   0  0  0  0  0  0  0  0  0  0  0  0
    6.9431  -13.7286   19.2478 C   0  0  0  0  0  0  0  0  0  0  0  0
    8.1173  -14.6001   19.5552 C   0  0  0  0  0  0  0  0  0  0  0  0
    8.2877  -14.9214   21.0025 C   0  0  0  0  0  0  0  0  0  0  0  0
    8.4207  -16.4019   21.2059 C   0  0  2  0  0  0  0  0  0  0  0  0
    7.2240  -17.0603   20.7536 N   0  0  0  0  0  0  0  0  0  0  0  0
    8.7596  -16.7486   22.6091 C   0  0  0  0  0  0  0  0  0  0  0  0
    7.8171  -16.8501   23.4352 O   0  0  0  0  0  0  0  0  0  0  0  0
    6.9655  -13.0706   15.2993 C   0  0  0  0  0  0  0  0  0  0  0  0
   11.6094  -18.2885   24.4663 C   0  0  1  0  0  0  0  0  0  0  0  0
   10.4218  -17.3406   24.4071 N   0  0  0  0  0  0  0  0  0  0  0  0
   10.0763  -16.9719   23.0755 C   0  0  0  0  0  0  0  0  0  0  0  0
   10.7458  -16.1863   25.2756 O   0  0  0  0  0  0  0  0  0  0  0  0
   10.8904  -15.0679   24.6945 N   0  0  0  0  0  0  0  0  0  0  0  0
   10.8983  -16.2605   26.6771 C   0  0  1  0  0  0  0  0  0  0  0  0
   10.6233  -15.1056   27.4771 C   0  0  0  0  0  0  0  0  0  0  0  0
    9.2138  -14.5949   27.3149 S   0  0  0  0  0  0  0  0  0  0  0  0
    9.2441  -12.8034   27.6092 C   0  0  0  0  0  0  0  0  0  0  0  0
   10.8550  -15.4368   28.9040 O   0  0  0  0  0  0  0  0  0  0  0  0
   10.4980  -16.5639   29.3095 O   0  0  0  0  0  0  0  0  0  0  0  0
  1  2  1  0
  2  3  2  0
  4  2  1  0
  5  4  1  0
  6  5  1  0
  7  6  1  0
  8  9  1  1
  8  7  1  0
  8 10  1  0
 10 11  2  0
 10 14  1  0
 13 12  1  6
 14 13  1  0
 15 13  1  0
 15 17  1  0
 16 15  2  0
 18 17  1  0
 18 21  1  0
 18 19  1  1
 20 19  1  0
 21 23  1  0
 22 21  2  0
M  END
$$$$
