RAC.pdb
     RDKit          3D

 23 22  0  0  1  0  0  0  0  0999 V2000
   14.5156  -13.9320   21.7498 N   0  0  0  0  0  0  0  0  0  0  0  0
   13.4992  -14.9251   21.5769 C   0  0  0  0  0  0  0  0  0  0  0  0
   13.1567  -15.6611   22.5866 N   0  0  0  0  0  0  0  0  0  0  0  0
   12.8631  -15.1177   20.3275 N   0  0  0  0  0  0  0  0  0  0  0  0
   12.0166  -14.0836   19.7274 C   0  0  0  0  0  0  0  0  0  0  0  0
   10.5875  -14.5199   19.7210 C   0  0  0  0  0  0  0  0  0  0  0  0
    9.6543  -13.5733   19.0427 C   0  0  0  0  0  0  0  0  0  0  0  0
    8.2529  -14.1089   19.0543 C   0  0  2  0  0  0  0  0  0  0  0  0
    7.4171  -13.2910   18.2161 N   0  0  0  0  0  0  0  0  0  0  0  0
    7.7132  -14.2424   20.4308 C   0  0  0  0  0  0  0  0  0  0  0  0
    7.4977  -13.1899   21.0841 O   0  0  0  0  0  0  0  0  0  0  0  0
   12.4445  -16.4135   22.4743 C   0  0  0  0  0  0  0  0  0  0  0  0
    6.5497  -17.0727   22.7007 C   0  0  1  0  0  0  0  0  0  0  0  0
    6.9053  -15.6315   22.3710 N   0  0  0  0  0  0  0  0  0  0  0  0
    7.4261  -15.4795   21.0541 C   0  0  0  0  0  0  0  0  0  0  0  0
    7.8265  -15.1600   23.4297 O   0  0  0  0  0  0  0  0  0  0  0  0
    9.0657  -15.3189   23.2092 N   0  0  0  0  0  0  0  0  0  0  0  0
    7.4121  -14.5594   24.6383 C   0  0  1  0  0  0  0  0  0  0  0  0
    8.3954  -14.1606   25.5992 C   0  0  0  0  0  0  0  0  0  0  0  0
    7.9954  -12.9357   26.3824 S   0  0  0  0  0  0  0  0  0  0  0  0
    6.1812  -12.8976   26.4492 C   0  0  0  0  0  0  0  0  0  0  0  0
    8.6342  -15.2795   26.5429 O   0  0  0  0  0  0  0  0  0  0  0  0
    7.8689  -16.2661   26.4877 O   0  0  0  0  0  0  0  0  0  0  0  0
  1  2  1  0
  2  3  2  0
  4  2  1  0
  5  4  1  0
  6  5  1  0
  7  6  1  0
  8  9  1  6
  8  7  1  0
  8 10  1  0
 10 11  2  0
 10 14  1  0
 13 12  1  6
 14 13  1  0
 15 13  1  0
 15 17  1  0
 16 15  2  0
 18 17  1  0
 18 21  1  0
 18 19  1  1
 20 19  1  0
 21 23  1  0
 22 21  2  0
M  END
$$$$
