RAC.pdb
     RDKit          3D

 23 22  0  0  1  0  0  0  0  0999 V2000
    2.9321  -20.6238   21.8765 N   0  0  0  0  0  0  0  0  0  0  0  0
    2.0950  -19.4628   21.8537 C   0  0  0  0  0  0  0  0  0  0  0  0
    1.0822  -19.3982   22.6591 N   0  0  0  0  0  0  0  0  0  0  0  0
    2.3519  -18.3872   20.9706 N   0  0  0  0  0  0  0  0  0  0  0  0
    3.7164  -18.0096   20.5942 C   0  0  0  0  0  0  0  0  0  0  0  0
    4.6722  -19.1073   20.9323 C   0  0  0  0  0  0  0  0  0  0  0  0
    6.1054  -18.7813   20.6741 C   0  0  0  0  0  0  0  0  0  0  0  0
    6.2798  -17.3120   20.4262 C   0  0  2  0  0  0  0  0  0  0  0  0
    6.5326  -17.0855   19.0280 N   0  0  0  0  0  0  0  0  0  0  0  0
    7.3273  -16.7158   21.2928 C   0  0  0  0  0  0  0  0  0  0  0  0
    8.5245  -16.8100   20.9203 O   0  0  0  0  0  0  0  0  0  0  0  0
    0.4155  -18.5990   22.6062 C   0  0  0  0  0  0  0  0  0  0  0  0
    7.4551  -14.6686   24.5022 C   0  0  1  0  0  0  0  0  0  0  0  0
    8.0531  -15.4890   23.3701 N   0  0  0  0  0  0  0  0  0  0  0  0
    7.0635  -16.0482   22.5118 C   0  0  0  0  0  0  0  0  0  0  0  0
    8.9389  -16.5005   23.9897 O   0  0  0  0  0  0  0  0  0  0  0  0
    8.3744  -17.5455   24.4354 N   0  0  0  0  0  0  0  0  0  0  0  0
   10.3395  -16.3689   24.1082 C   0  0  2  0  0  0  0  0  0  0  0  0
   11.1151  -17.4829   24.5627 C   0  0  0  0  0  0  0  0  0  0  0  0
   12.5386  -17.4554   24.0662 S   0  0  0  0  0  0  0  0  0  0  0  0
   13.1184  -15.7374   24.1627 C   0  0  0  0  0  0  0  0  0  0  0  0
   11.1218  -17.4973   26.0457 O   0  0  0  0  0  0  0  0  0  0  0  0
   11.6708  -18.4622   26.6199 O   0  0  0  0  0  0  0  0  0  0  0  0
  1  2  1  0
  2  3  2  0
  4  2  1  0
  5  4  1  0
  6  5  1  0
  7  6  1  0
  8  9  1  6
  8  7  1  0
  8 10  1  0
 10 11  2  0
 10 14  1  0
 13 12  1  6
 14 13  1  0
 15 13  1  0
 15 17  1  0
 16 15  2  0
 18 17  1  0
 18 21  1  0
 18 19  1  1
 20 19  1  0
 21 23  1  0
 22 21  2  0
M  END
$$$$
