RAC.pdb
     RDKit          3D

 23 22  0  0  1  0  0  0  0  0999 V2000
    9.3163  -15.1503   17.7055 N   0  0  0  0  0  0  0  0  0  0  0  0
    8.5154  -14.2368   16.9484 C   0  0  0  0  0  0  0  0  0  0  0  0
    8.7520  -14.0878   15.6833 N   0  0  0  0  0  0  0  0  0  0  0  0
    7.4730  -13.4954   17.5537 N   0  0  0  0  0  0  0  0  0  0  0  0
    6.9536  -13.8392   18.8796 C   0  0  0  0  0  0  0  0  0  0  0  0
    8.0294  -13.7123   19.9089 C   0  0  0  0  0  0  0  0  0  0  0  0
    7.5887  -14.0056   21.3042 C   0  0  0  0  0  0  0  0  0  0  0  0
    7.3973  -15.4805   21.5020 C   0  0  2  0  0  0  0  0  0  0  0  0
    6.0413  -15.8381   21.1805 N   0  0  0  0  0  0  0  0  0  0  0  0
    7.7892  -15.9207   22.8645 C   0  0  0  0  0  0  0  0  0  0  0  0
    6.9939  -15.6888   23.8104 O   0  0  0  0  0  0  0  0  0  0  0  0
    8.2075  -13.3993   15.1216 C   0  0  0  0  0  0  0  0  0  0  0  0
   10.3278  -18.2427   24.3948 C   0  0  1  0  0  0  0  0  0  0  0  0
    9.3776  -17.0571   24.4558 N   0  0  0  0  0  0  0  0  0  0  0  0
    9.0014  -16.5849   23.1659 C   0  0  0  0  0  0  0  0  0  0  0  0
   10.0256  -16.0260   25.2976 O   0  0  0  0  0  0  0  0  0  0  0  0
   10.6398  -15.1019   24.6826 N   0  0  0  0  0  0  0  0  0  0  0  0
    9.9979  -16.0155   26.7090 C   0  0  1  0  0  0  0  0  0  0  0  0
   10.6830  -14.9780   27.4187 C   0  0  0  0  0  0  0  0  0  0  0  0
   10.0773  -13.6140   27.2038 S   0  0  0  0  0  0  0  0  0  0  0  0
    8.2752  -13.7878   27.3423 C   0  0  0  0  0  0  0  0  0  0  0  0
   10.6677  -15.2895   28.8686 O   0  0  0  0  0  0  0  0  0  0  0  0
   10.0432  -16.3052   29.2433 O   0  0  0  0  0  0  0  0  0  0  0  0
  1  2  1  0
  2  3  2  0
  4  2  1  0
  5  4  1  0
  6  5  1  0
  7  6  1  0
  8  9  1  1
  8  7  1  0
  8 10  1  0
 10 11  2  0
 10 14  1  0
 13 12  1  6
 14 13  1  0
 15 13  1  0
 15 17  1  0
 16 15  2  0
 18 17  1  0
 18 21  1  0
 18 19  1  1
 20 19  1  0
 21 23  1  0
 22 21  2  0
M  END
$$$$
