RAC.pdb
     RDKit          3D

 23 22  0  0  1  0  0  0  0  0999 V2000
   15.1769  -14.7388   23.5392 N   0  0  0  0  0  0  0  0  0  0  0  0
   15.2725  -15.1862   22.1828 C   0  0  0  0  0  0  0  0  0  0  0  0
   15.9597  -14.4885   21.3343 N   0  0  0  0  0  0  0  0  0  0  0  0
   14.6326  -16.3726   21.7520 N   0  0  0  0  0  0  0  0  0  0  0  0
   13.8563  -16.4211   20.5106 C   0  0  0  0  0  0  0  0  0  0  0  0
   12.5299  -17.0660   20.7511 C   0  0  0  0  0  0  0  0  0  0  0  0
   11.3673  -16.1325   20.6879 C   0  0  0  0  0  0  0  0  0  0  0  0
   10.0784  -16.8753   20.8825 C   0  0  2  0  0  0  0  0  0  0  0  0
    9.7727  -17.6295   19.6960 N   0  0  0  0  0  0  0  0  0  0  0  0
    8.9664  -15.9768   21.2823 C   0  0  0  0  0  0  0  0  0  0  0  0
    8.5650  -15.1276   20.4463 O   0  0  0  0  0  0  0  0  0  0  0  0
   16.0109  -14.7750   20.3337 C   0  0  0  0  0  0  0  0  0  0  0  0
    6.2166  -15.2285   23.5113 C   0  0  2  0  0  0  0  0  0  0  0  0
    7.6631  -14.9176   23.1601 N   0  0  0  0  0  0  0  0  0  0  0  0
    8.3294  -16.0157   22.5449 C   0  0  0  0  0  0  0  0  0  0  0  0
    8.3185  -14.4479   24.4016 O   0  0  0  0  0  0  0  0  0  0  0  0
    7.8989  -13.3500   24.8789 N   0  0  0  0  0  0  0  0  0  0  0  0
    9.3570  -15.1367   25.0651 C   0  0  1  0  0  0  0  0  0  0  0  0
    9.8892  -14.6039   26.2826 C   0  0  0  0  0  0  0  0  0  0  0  0
    8.8420  -14.4027   27.3487 S   0  0  0  0  0  0  0  0  0  0  0  0
    7.8531  -12.9546   26.8774 C   0  0  0  0  0  0  0  0  0  0  0  0
   10.9330  -15.5222   26.7992 O   0  0  0  0  0  0  0  0  0  0  0  0
   11.1179  -16.5995   26.1932 O   0  0  0  0  0  0  0  0  0  0  0  0
  1  2  1  0
  2  3  2  0
  4  2  1  0
  5  4  1  0
  6  5  1  0
  7  6  1  0
  8  9  1  6
  8  7  1  0
  8 10  1  0
 10 11  2  0
 10 14  1  0
 13 12  1  6
 14 13  1  0
 15 13  1  0
 15 17  1  0
 16 15  2  0
 18 17  1  0
 18 21  1  0
 18 19  1  6
 20 19  1  0
 21 23  1  0
 22 21  2  0
M  END
$$$$
