RAC.pdb
     RDKit          3D

 23 22  0  0  1  0  0  0  0  0999 V2000
    8.3147  -11.7160   19.5533 N   0  0  0  0  0  0  0  0  0  0  0  0
    8.4486  -12.9314   18.8089 C   0  0  0  0  0  0  0  0  0  0  0  0
    7.9427  -13.0021   17.6182 N   0  0  0  0  0  0  0  0  0  0  0  0
    9.1210  -14.0542   19.3473 N   0  0  0  0  0  0  0  0  0  0  0  0
    8.5205  -14.8801   20.3977 C   0  0  0  0  0  0  0  0  0  0  0  0
    7.2435  -15.4880   19.9155 C   0  0  0  0  0  0  0  0  0  0  0  0
    6.5670  -16.3749   20.9070 C   0  0  0  0  0  0  0  0  0  0  0  0
    7.5072  -17.4351   21.3997 C   0  0  2  0  0  0  0  0  0  0  0  0
    7.0328  -18.7295   20.9879 N   0  0  0  0  0  0  0  0  0  0  0  0
    7.7270  -17.3547   22.8657 C   0  0  0  0  0  0  0  0  0  0  0  0
    6.7557  -17.0182   23.5898 O   0  0  0  0  0  0  0  0  0  0  0  0
    8.0485  -13.8692   17.0500 C   0  0  0  0  0  0  0  0  0  0  0  0
   10.4535  -18.2962   25.3297 C   0  0  1  0  0  0  0  0  0  0  0  0
    9.1968  -17.5547   24.9019 N   0  0  0  0  0  0  0  0  0  0  0  0
    8.9607  -17.6329   23.4996 C   0  0  0  0  0  0  0  0  0  0  0  0
    9.3202  -16.1678   25.4048 O   0  0  0  0  0  0  0  0  0  0  0  0
    9.9936  -15.3669   24.6874 N   0  0  0  0  0  0  0  0  0  0  0  0
    8.7451  -15.7007   26.6065 C   0  0  1  0  0  0  0  0  0  0  0  0
    8.8221  -14.3081   26.9290 C   0  0  0  0  0  0  0  0  0  0  0  0
    7.4790  -13.6967   27.2384 S   0  0  0  0  0  0  0  0  0  0  0  0
    7.7563  -11.9528   27.6616 C   0  0  0  0  0  0  0  0  0  0  0  0
    9.7146  -14.1293   28.0999 O   0  0  0  0  0  0  0  0  0  0  0  0
   10.0214  -12.9637   28.4303 O   0  0  0  0  0  0  0  0  0  0  0  0
  1  2  1  0
  2  3  2  0
  4  2  1  0
  5  4  1  0
  6  5  1  0
  7  6  1  0
  8  9  1  1
  8  7  1  0
  8 10  1  0
 10 11  2  0
 10 14  1  0
 13 12  1  1
 14 13  1  0
 15 13  1  0
 15 17  1  0
 16 15  2  0
 18 17  1  0
 18 21  1  0
 18 19  1  1
 20 19  1  0
 21 23  1  0
 22 21  2  0
M  END
$$$$
