SGR.pdb
     RDKit          3D

 22 21  0  0  1  0  0  0  0  0999 V2000
   27.7216  -17.0706  -20.0079 O   0  0  0  0  0  0  0  0  0  0  0  0
   28.4313  -17.9008  -19.1326 C   0  0  0  0  0  0  0  0  0  0  0  0
   27.5498  -19.0532  -18.7260 C   0  0  2  0  0  0  0  0  0  0  0  0
   27.0374  -19.6784  -19.9141 N   0  0  0  0  0  0  0  0  0  0  0  0
   26.3870  -18.4587  -17.9910 C   0  0  0  0  0  0  0  0  0  0  0  0
   26.5833  -17.8446  -16.9169 O   0  0  0  0  0  0  0  0  0  0  0  0
   25.0603  -18.5741  -18.4837 N   0  0  0  0  0  0  0  0  0  0  0  0
   23.9383  -18.0150  -17.7792 C   0  0  0  0  0  0  0  0  0  0  0  0
   23.3539  -19.0135  -16.8130 C   0  0  0  0  0  0  0  0  0  0  0  0
   22.6155  -19.9333  -17.2420 O   0  0  0  0  0  0  0  0  0  0  0  0
   24.6474  -20.8790   -9.0699 N   0  0  0  0  0  0  0  0  0  0  0  0
   23.2875  -21.2724   -8.9928 C   0  0  0  0  0  0  0  0  0  0  0  0
   22.7020  -21.2832   -7.8427 N   0  0  0  0  0  0  0  0  0  0  0  0
   22.5655  -21.6525  -10.1575 N   0  0  0  0  0  0  0  0  0  0  0  0
   23.1884  -21.5420  -11.4937 C   0  0  0  0  0  0  0  0  0  0  0  0
   23.2984  -20.1263  -11.8863 C   0  0  0  0  0  0  0  0  0  0  0  0
   23.7705  -19.7389  -13.2111 C   0  0  0  0  0  0  0  0  0  0  0  0
   23.0038  -19.8894  -14.4625 C   0  0  2  0  0  0  0  0  0  0  0  0
   23.6167  -18.9403  -15.4350 N   0  0  0  0  0  0  0  0  0  0  0  0
   21.5652  -19.7579  -14.4892 C   0  0  0  0  0  0  0  0  0  0  0  0
   20.9789  -18.4585  -14.6055 O   0  0  0  0  0  0  0  0  0  0  0  0
   20.7294  -20.6557  -14.4217 O   0  0  0  0  0  0  0  0  0  0  0  0
  1  2  1  0
  2  3  1  0
  3  4  1  6
  5  3  1  0
  5  7  1  0
  6  5  2  0
  8  7  1  0
  8  9  1  0
  9 19  1  0
  9 10  2  0
 11 12  1  0
 12 14  1  0
 12 13  2  0
 14 15  1  0
 16 15  1  0
 18 17  1  1
 17 16  1  0
 18 20  1  0
 19 18  1  0
 20 22  2  0
 20 21  1  0
M  END
$$$$
