SGR.pdb
     RDKit          3D

 22 21  0  0  1  0  0  0  0  0999 V2000
   16.3997  -21.0235    1.0079 O   0  0  0  0  0  0  0  0  0  0  0  0
   16.8368  -20.8302    2.3235 C   0  0  0  0  0  0  0  0  0  0  0  0
   15.6748  -21.0318    3.2613 C   0  0  2  0  0  0  0  0  0  0  0  0
   14.5071  -21.3406    2.4828 N   0  0  0  0  0  0  0  0  0  0  0  0
   15.4359  -19.7122    3.9300 C   0  0  0  0  0  0  0  0  0  0  0  0
   14.2684  -19.2665    4.0185 O   0  0  0  0  0  0  0  0  0  0  0  0
   16.5050  -18.9493    4.4693 N   0  0  0  0  0  0  0  0  0  0  0  0
   16.2726  -17.7713    5.2608 C   0  0  0  0  0  0  0  0  0  0  0  0
   17.5696  -17.1996    5.7738 C   0  0  0  0  0  0  0  0  0  0  0  0
   18.6530  -17.7661    5.4896 O   0  0  0  0  0  0  0  0  0  0  0  0
   21.3799  -11.3033    9.1080 N   0  0  0  0  0  0  0  0  0  0  0  0
   21.5963  -10.6804    7.8529 C   0  0  0  0  0  0  0  0  0  0  0  0
   22.7053  -10.0530    7.6471 N   0  0  0  0  0  0  0  0  0  0  0  0
   20.6148  -10.7373    6.8255 N   0  0  0  0  0  0  0  0  0  0  0  0
   19.3825  -11.5328    7.0107 C   0  0  0  0  0  0  0  0  0  0  0  0
   19.6992  -12.9713    6.9864 C   0  0  0  0  0  0  0  0  0  0  0  0
   18.6514  -13.9824    7.0749 C   0  0  0  0  0  0  0  0  0  0  0  0
   18.8747  -15.4404    7.0451 C   0  0  2  0  0  0  0  0  0  0  0  0
   17.5967  -16.0408    6.5673 N   0  0  0  0  0  0  0  0  0  0  0  0
   19.3491  -16.1573    8.2064 C   0  0  0  0  0  0  0  0  0  0  0  0
   20.7553  -16.3329    8.3996 O   0  0  0  0  0  0  0  0  0  0  0  0
   18.6761  -16.6656    9.0997 O   0  0  0  0  0  0  0  0  0  0  0  0
  1  2  1  0
  2  3  1  0
  3  4  1  6
  5  3  1  0
  5  7  1  0
  6  5  2  0
  8  7  1  0
  8  9  1  0
  9 19  1  0
  9 10  2  0
 11 12  1  0
 12 14  1  0
 12 13  2  0
 14 15  1  0
 16 15  1  0
 18 17  1  1
 17 16  1  0
 18 20  1  0
 19 18  1  0
 20 22  2  0
 20 21  1  0
M  END
$$$$
