SGR.pdb
     RDKit          3D

 22 21  0  0  1  0  0  0  0  0999 V2000
   23.5944  -18.1707  -14.5398 O   0  0  0  0  0  0  0  0  0  0  0  0
   23.0758  -19.4065  -14.9434 C   0  0  0  0  0  0  0  0  0  0  0  0
   22.0537  -19.1796  -16.0270 C   0  0  2  0  0  0  0  0  0  0  0  0
   22.6231  -18.3078  -17.0174 N   0  0  0  0  0  0  0  0  0  0  0  0
   20.9116  -18.4509  -15.3866 C   0  0  0  0  0  0  0  0  0  0  0  0
   20.8808  -17.1990  -15.4199 O   0  0  0  0  0  0  0  0  0  0  0  0
   19.8569  -19.1470  -14.7392 N   0  0  0  0  0  0  0  0  0  0  0  0
   18.7778  -18.4540  -14.0885 C   0  0  0  0  0  0  0  0  0  0  0  0
   17.8494  -19.4224  -13.4011 C   0  0  0  0  0  0  0  0  0  0  0  0
   18.1017  -20.6515  -13.4310 O   0  0  0  0  0  0  0  0  0  0  0  0
   11.2726  -15.6655  -10.5068 N   0  0  0  0  0  0  0  0  0  0  0  0
   10.6075  -16.8922  -10.7577 C   0  0  0  0  0  0  0  0  0  0  0  0
    9.3501  -16.8759  -11.0479 N   0  0  0  0  0  0  0  0  0  0  0  0
   11.3026  -18.1312  -10.6940 N   0  0  0  0  0  0  0  0  0  0  0  0
   12.7201  -18.1737  -10.2764 C   0  0  0  0  0  0  0  0  0  0  0  0
   13.5116  -18.9497  -11.2468 C   0  0  0  0  0  0  0  0  0  0  0  0
   14.9597  -19.0737  -11.1212 C   0  0  0  0  0  0  0  0  0  0  0  0
   15.8159  -19.9187  -11.9753 C   0  0  2  0  0  0  0  0  0  0  0  0
   16.7010  -18.9809  -12.7231 N   0  0  0  0  0  0  0  0  0  0  0  0
   15.2539  -20.8918  -12.8835 C   0  0  0  0  0  0  0  0  0  0  0  0
   14.9518  -22.2065  -12.4081 O   0  0  0  0  0  0  0  0  0  0  0  0
   14.9850  -20.7393  -14.0724 O   0  0  0  0  0  0  0  0  0  0  0  0
  1  2  1  0
  2  3  1  0
  3  4  1  6
  5  3  1  0
  5  7  1  0
  6  5  2  0
  8  7  1  0
  8  9  1  0
  9 19  1  0
  9 10  2  0
 11 12  1  0
 12 14  1  0
 12 13  2  0
 14 15  1  0
 16 15  1  0
 18 17  1  6
 17 16  1  0
 18 20  1  0
 19 18  1  0
 20 22  2  0
 20 21  1  0
M  END
$$$$
