SGR.pdb
     RDKit          3D

 22 21  0  0  1  0  0  0  0  0999 V2000
   26.9884  -18.6624  -18.8999 O   0  0  0  0  0  0  0  0  0  0  0  0
   28.3379  -18.8413  -19.2253 C   0  0  0  0  0  0  0  0  0  0  0  0
   28.9021  -19.9564  -18.3836 C   0  0  2  0  0  0  0  0  0  0  0  0
   28.0672  -21.1154  -18.5409 N   0  0  0  0  0  0  0  0  0  0  0  0
   28.7907  -19.5094  -16.9577 C   0  0  0  0  0  0  0  0  0  0  0  0
   29.3495  -18.4477  -16.5973 O   0  0  0  0  0  0  0  0  0  0  0  0
   28.0636  -20.2627  -15.9986 N   0  0  0  0  0  0  0  0  0  0  0  0
   27.7792  -19.7475  -14.6865 C   0  0  0  0  0  0  0  0  0  0  0  0
   26.9210  -20.7072  -13.9026 C   0  0  0  0  0  0  0  0  0  0  0  0
   26.4240  -21.7065  -14.4769 O   0  0  0  0  0  0  0  0  0  0  0  0
   22.0672  -21.6398   -6.8543 N   0  0  0  0  0  0  0  0  0  0  0  0
   21.3090  -21.1385   -7.9424 C   0  0  0  0  0  0  0  0  0  0  0  0
   20.0218  -21.1155   -7.8519 N   0  0  0  0  0  0  0  0  0  0  0  0
   21.9436  -20.6644   -9.1233 N   0  0  0  0  0  0  0  0  0  0  0  0
   23.1963  -21.2869   -9.6015 C   0  0  0  0  0  0  0  0  0  0  0  0
   24.2796  -20.2889   -9.6304 C   0  0  0  0  0  0  0  0  0  0  0  0
   25.4295  -20.4399  -10.5153 C   0  0  0  0  0  0  0  0  0  0  0  0
   25.3691  -20.9122  -11.9116 C   0  0  2  0  0  0  0  0  0  0  0  0
   26.6615  -20.5102  -12.5362 N   0  0  0  0  0  0  0  0  0  0  0  0
   24.2724  -20.5588  -12.7834 C   0  0  0  0  0  0  0  0  0  0  0  0
   23.2315  -21.5091  -13.0264 O   0  0  0  0  0  0  0  0  0  0  0  0
   24.1002  -19.4978  -13.3782 O   0  0  0  0  0  0  0  0  0  0  0  0
  1  2  1  0
  2  3  1  0
  3  4  1  1
  5  3  1  0
  5  7  1  0
  6  5  2  0
  8  7  1  0
  8  9  1  0
  9 19  1  0
  9 10  2  0
 11 12  1  0
 12 14  1  0
 12 13  2  0
 14 15  1  0
 16 15  1  0
 18 17  1  1
 17 16  1  0
 18 20  1  0
 19 18  1  0
 20 22  2  0
 20 21  1  0
M  END
$$$$
