SGR.pdb
     RDKit          3D

 22 21  0  0  1  0  0  0  0  0999 V2000
   30.7576  -16.8215  -18.2227 O   0  0  0  0  0  0  0  0  0  0  0  0
   29.4606  -16.5276  -17.7861 C   0  0  0  0  0  0  0  0  0  0  0  0
   28.6612  -17.8034  -17.7286 C   0  0  2  0  0  0  0  0  0  0  0  0
   28.3621  -18.2167  -19.0721 N   0  0  0  0  0  0  0  0  0  0  0  0
   27.3635  -17.4610  -17.0619 C   0  0  0  0  0  0  0  0  0  0  0  0
   26.5041  -16.7972  -17.6865 O   0  0  0  0  0  0  0  0  0  0  0  0
   27.0812  -17.8720  -15.7326 N   0  0  0  0  0  0  0  0  0  0  0  0
   25.8475  -17.5285  -15.0782 C   0  0  0  0  0  0  0  0  0  0  0  0
   24.7479  -18.4865  -15.4593 C   0  0  0  0  0  0  0  0  0  0  0  0
   24.9857  -19.4123  -16.2727 O   0  0  0  0  0  0  0  0  0  0  0  0
   17.5114  -22.7131  -12.5292 N   0  0  0  0  0  0  0  0  0  0  0  0
   18.7133  -23.4648  -12.5089 C   0  0  0  0  0  0  0  0  0  0  0  0
   18.6667  -24.7132  -12.1848 N   0  0  0  0  0  0  0  0  0  0  0  0
   19.9601  -22.8657  -12.8386 N   0  0  0  0  0  0  0  0  0  0  0  0
   20.0193  -21.4576  -13.2848 C   0  0  0  0  0  0  0  0  0  0  0  0
   21.4163  -21.0642  -13.5378 C   0  0  0  0  0  0  0  0  0  0  0  0
   21.7618  -19.7085  -13.9510 C   0  0  0  0  0  0  0  0  0  0  0  0
   22.3753  -19.3457  -15.2427 C   0  0  2  0  0  0  0  0  0  0  0  0
   23.4548  -18.3686  -14.9233 N   0  0  0  0  0  0  0  0  0  0  0  0
   21.5819  -18.8562  -16.3466 C   0  0  0  0  0  0  0  0  0  0  0  0
   20.9552  -19.7888  -17.2315 O   0  0  0  0  0  0  0  0  0  0  0  0
   21.3586  -17.6863  -16.6479 O   0  0  0  0  0  0  0  0  0  0  0  0
  1  2  1  0
  2  3  1  0
  3  4  1  6
  5  3  1  0
  5  7  1  0
  6  5  2  0
  8  7  1  0
  8  9  1  0
  9 19  1  0
  9 10  2  0
 11 12  1  0
 12 14  1  0
 12 13  2  0
 14 15  1  0
 16 15  1  0
 18 17  1  1
 17 16  1  0
 18 20  1  0
 19 18  1  0
 20 22  2  0
 20 21  1  0
M  END
$$$$
