SGR.pdb
     RDKit          3D

 22 21  0  0  1  0  0  0  0  0999 V2000
    8.9896  -12.1060  -10.9796 O   0  0  0  0  0  0  0  0  0  0  0  0
    9.7477  -11.9677  -12.1480 C   0  0  0  0  0  0  0  0  0  0  0  0
   11.1460  -12.4650  -11.8875 C   0  0  2  0  0  0  0  0  0  0  0  0
   11.7658  -11.6012  -10.9206 N   0  0  0  0  0  0  0  0  0  0  0  0
   11.8967  -12.3135  -13.1755 C   0  0  0  0  0  0  0  0  0  0  0  0
   11.5340  -12.9646  -14.1825 O   0  0  0  0  0  0  0  0  0  0  0  0
   13.0152  -11.4457  -13.2849 N   0  0  0  0  0  0  0  0  0  0  0  0
   13.7237  -11.2740  -14.5244 C   0  0  0  0  0  0  0  0  0  0  0  0
   14.8387  -10.2706  -14.3758 C   0  0  0  0  0  0  0  0  0  0  0  0
   14.9355   -9.6026  -13.3176 O   0  0  0  0  0  0  0  0  0  0  0  0
   21.6744   -8.5713  -12.3750 N   0  0  0  0  0  0  0  0  0  0  0  0
   22.1244   -9.3591  -13.4645 C   0  0  0  0  0  0  0  0  0  0  0  0
   23.2371  -10.0037  -13.3549 N   0  0  0  0  0  0  0  0  0  0  0  0
   21.3714   -9.4476  -14.6675 N   0  0  0  0  0  0  0  0  0  0  0  0
   19.8938   -9.4200  -14.6295 C   0  0  0  0  0  0  0  0  0  0  0  0
   19.3494   -9.5241  -15.9945 C   0  0  0  0  0  0  0  0  0  0  0  0
   17.9130   -9.4838  -16.2456 C   0  0  0  0  0  0  0  0  0  0  0  0
   16.8908   -9.0795  -15.2617 C   0  0  2  0  0  0  0  0  0  0  0  0
   15.7789  -10.0629  -15.3987 N   0  0  0  0  0  0  0  0  0  0  0  0
   16.3572   -7.7371  -15.2327 C   0  0  0  0  0  0  0  0  0  0  0  0
   16.8333   -6.8110  -14.2522 O   0  0  0  0  0  0  0  0  0  0  0  0
   15.5043   -7.2537  -15.9732 O   0  0  0  0  0  0  0  0  0  0  0  0
  1  2  1  0
  2  3  1  0
  3  4  1  1
  5  3  1  0
  5  7  1  0
  6  5  2  0
  8  7  1  0
  8  9  1  0
  9 19  1  0
  9 10  2  0
 11 12  1  0
 12 14  1  0
 12 13  2  0
 14 15  1  0
 16 15  1  0
 18 17  1  6
 17 16  1  0
 18 20  1  0
 19 18  1  0
 20 22  2  0
 20 21  1  0
M  END
$$$$
