SGR.pdb
     RDKit          3D

 22 21  0  0  1  0  0  0  0  0999 V2000
   22.0216   -9.3785  -16.0985 O   0  0  0  0  0  0  0  0  0  0  0  0
   21.7385   -8.9878  -14.7846 C   0  0  0  0  0  0  0  0  0  0  0  0
   21.2211   -7.5727  -14.7939 C   0  0  2  0  0  0  0  0  0  0  0  0
   22.3085   -6.6904  -15.1167 N   0  0  0  0  0  0  0  0  0  0  0  0
   20.7937   -7.2683  -13.3903 C   0  0  0  0  0  0  0  0  0  0  0  0
   19.8900   -7.9527  -12.8572 O   0  0  0  0  0  0  0  0  0  0  0  0
   21.3903   -6.2178  -12.6443 N   0  0  0  0  0  0  0  0  0  0  0  0
   21.1207   -6.0340  -11.2437 C   0  0  0  0  0  0  0  0  0  0  0  0
   19.7310   -5.4922  -11.0268 C   0  0  0  0  0  0  0  0  0  0  0  0
   19.1856   -4.8052  -11.9245 O   0  0  0  0  0  0  0  0  0  0  0  0
   12.6149   -9.3420   -7.8122 N   0  0  0  0  0  0  0  0  0  0  0  0
   12.2947   -7.9632   -7.7323 C   0  0  0  0  0  0  0  0  0  0  0  0
   11.0921   -7.6159   -7.4177 N   0  0  0  0  0  0  0  0  0  0  0  0
   13.2739   -6.9653   -7.9922 N   0  0  0  0  0  0  0  0  0  0  0  0
   14.6679   -7.3473   -8.3025 C   0  0  0  0  0  0  0  0  0  0  0  0
   15.4443   -6.1582   -8.6944 C   0  0  0  0  0  0  0  0  0  0  0  0
   16.8644   -6.2488   -9.0154 C   0  0  0  0  0  0  0  0  0  0  0  0
   17.6771   -5.1564   -9.5835 C   0  0  2  0  0  0  0  0  0  0  0  0
   19.0257   -5.7385   -9.8372 N   0  0  0  0  0  0  0  0  0  0  0  0
   17.8107   -3.8842   -8.9115 C   0  0  0  0  0  0  0  0  0  0  0  0
   16.8412   -2.8591   -9.1454 O   0  0  0  0  0  0  0  0  0  0  0  0
   18.6895   -3.5413   -8.1245 O   0  0  0  0  0  0  0  0  0  0  0  0
  1  2  1  0
  2  3  1  0
  3  4  1  1
  5  3  1  0
  5  7  1  0
  6  5  2  0
  8  7  1  0
  8  9  1  0
  9 19  1  0
  9 10  2  0
 11 12  1  0
 12 14  1  0
 12 13  2  0
 14 15  1  0
 16 15  1  0
 18 17  1  1
 17 16  1  0
 18 20  1  0
 19 18  1  0
 20 22  2  0
 20 21  1  0
M  END
$$$$
