SGR.pdb
     RDKit          3D

 22 21  0  0  1  0  0  0  0  0999 V2000
   21.2819   -6.9818  -17.2318 O   0  0  0  0  0  0  0  0  0  0  0  0
   21.1489   -6.3999  -15.9657 C   0  0  0  0  0  0  0  0  0  0  0  0
   22.3434   -6.7725  -15.1263 C   0  0  2  0  0  0  0  0  0  0  0  0
   22.3068   -8.1881  -14.8819 N   0  0  0  0  0  0  0  0  0  0  0  0
   22.1675   -6.0817  -13.8082 C   0  0  0  0  0  0  0  0  0  0  0  0
   22.7686   -5.0045  -13.5898 O   0  0  0  0  0  0  0  0  0  0  0  0
   21.3318   -6.6198  -12.7942 N   0  0  0  0  0  0  0  0  0  0  0  0
   21.0928   -5.9229  -11.5592 C   0  0  0  0  0  0  0  0  0  0  0  0
   19.6381   -5.5537  -11.4190 C   0  0  0  0  0  0  0  0  0  0  0  0
   19.0060   -5.1313  -12.4177 O   0  0  0  0  0  0  0  0  0  0  0  0
   13.0476  -10.2963   -8.8562 N   0  0  0  0  0  0  0  0  0  0  0  0
   12.5057   -8.9869   -8.8122 C   0  0  0  0  0  0  0  0  0  0  0  0
   11.2309   -8.8400   -8.6745 N   0  0  0  0  0  0  0  0  0  0  0  0
   13.3423   -7.8417   -8.9172 N   0  0  0  0  0  0  0  0  0  0  0  0
   14.7962   -7.9944   -9.1369 C   0  0  0  0  0  0  0  0  0  0  0  0
   15.4054   -6.6848   -9.4271 C   0  0  0  0  0  0  0  0  0  0  0  0
   16.8483   -6.5343   -9.5801 C   0  0  0  0  0  0  0  0  0  0  0  0
   17.5296   -5.3083  -10.0376 C   0  0  2  0  0  0  0  0  0  0  0  0
   18.9673   -5.6714  -10.1904 N   0  0  0  0  0  0  0  0  0  0  0  0
   17.4127   -4.0628   -9.3147 C   0  0  0  0  0  0  0  0  0  0  0  0
   16.2181   -3.2861   -9.4387 O   0  0  0  0  0  0  0  0  0  0  0  0
   18.2420   -3.5494   -8.5678 O   0  0  0  0  0  0  0  0  0  0  0  0
  1  2  1  0
  2  3  1  0
  3  4  1  1
  5  3  1  0
  5  7  1  0
  6  5  2  0
  8  7  1  0
  8  9  1  0
  9 19  1  0
  9 10  2  0
 11 12  1  0
 12 14  1  0
 12 13  2  0
 14 15  1  0
 16 15  1  0
 18 17  1  1
 17 16  1  0
 18 20  1  0
 19 18  1  0
 20 22  2  0
 20 21  1  0
M  END
$$$$
