PFW.pdb
     RDKit          3D

 33 36  0  0  1  0  0  0  0  0999 V2000
   14.4334  -19.5903    3.0710 N   0  0  0  0  0  0  0  0  0  0  0  0
   13.3079  -20.3104    2.5698 C   0  0  0  0  0  0  0  0  0  0  0  0
   12.2158  -20.2384    3.6124 C   0  0  0  0  0  0  0  0  0  0  0  0
   13.0261  -19.9141    4.8717 C   0  0  0  0  0  0  0  0  0  0  0  0
   14.0768  -19.0104    4.3244 C   0  0  1  0  0  0  0  0  0  0  0  0
   15.2402  -18.8588    5.2368 C   0  0  0  0  0  0  0  0  0  0  0  0
   15.0533  -18.2425    6.3090 O   0  0  0  0  0  0  0  0  0  0  0  0
   16.5210  -19.3705    4.9497 N   0  0  0  0  0  0  0  0  0  0  0  0
   17.5940  -19.2231    5.9157 C   0  0  1  0  0  0  0  0  0  0  0  0
   18.6449  -20.2716    5.7220 C   0  0  0  0  0  0  0  0  0  0  0  0
   19.7843  -20.1482    6.6606 C   0  0  0  0  0  0  0  0  0  0  0  0
   20.9252  -19.4657    6.2941 C   0  0  0  0  0  0  0  0  0  0  0  0
   22.0126  -19.3204    7.1218 C   0  0  0  0  0  0  0  0  0  0  0  0
   21.9611  -19.8847    8.3805 C   0  0  0  0  0  0  0  0  0  0  0  0
   20.8272  -20.5739    8.7699 C   0  0  0  0  0  0  0  0  0  0  0  0
   19.7351  -20.7098    7.9156 C   0  0  0  0  0  0  0  0  0  0  0  0
   18.0936  -17.8378    5.9091 C   0  0  0  0  0  0  0  0  0  0  0  0
   18.3438  -17.3040    4.7829 O   0  0  0  0  0  0  0  0  0  0  0  0
   18.3042  -17.0803    7.0875 N   0  0  0  0  0  0  0  0  0  0  0  0
   19.0917  -15.8583    7.0180 C   0  0  1  0  0  0  0  0  0  0  0  0
   18.1872  -14.6579    7.1627 C   0  0  0  0  0  0  0  0  0  0  0  0
   18.9214  -13.4049    6.9722 C   0  0  0  0  0  0  0  0  0  0  0  0
   19.1360  -12.7146    5.7863 C   0  0  0  0  0  0  0  0  0  0  0  0
   19.8898  -11.6351    6.0245 N   0  0  0  0  0  0  0  0  0  0  0  0
   20.1886  -11.5756    7.3313 C   0  0  0  0  0  0  0  0  0  0  0  0
   20.9101  -10.6758    8.1117 C   0  0  0  0  0  0  0  0  0  0  0  0
   21.0398  -10.8533    9.4666 C   0  0  0  0  0  0  0  0  0  0  0  0
   20.4493  -11.9408   10.0855 C   0  0  0  0  0  0  0  0  0  0  0  0
   19.7351  -12.8354    9.3210 C   0  0  0  0  0  0  0  0  0  0  0  0
   19.5958  -12.6671    7.9400 C   0  0  0  0  0  0  0  0  0  0  0  0
   20.2533  -15.8585    7.8804 C   0  0  0  0  0  0  0  0  0  0  0  0
   21.4233  -15.1978    7.4545 O   0  0  0  0  0  0  0  0  0  0  0  0
   20.3452  -16.3998    9.0075 O   0  0  0  0  0  0  0  0  0  0  0  0
  1  2  1  0
  2  3  1  0
  4  3  1  0
  5  4  1  0
  5  1  1  0
  5  6  1  1
  7  6  2  0
  8  6  1  0
  9  8  1  0
 10 11  1  0
  9 10  1  6
 11 16  2  0
 12 13  2  0
 12 11  1  0
 13 14  1  0
 14 15  2  0
 16 15  1  0
 17  9  1  0
 17 19  1  0
 18 17  2  0
 20 21  1  1
 20 19  1  0
 20 31  1  0
 22 30  1  0
 22 21  1  0
 23 22  2  0
 24 23  1  0
 24 25  1  0
 25 26  1  0
 25 30  2  0
 26 27  2  0
 27 28  1  0
 29 28  2  0
 30 29  1  0
 31 32  1  0
 33 31  2  0
M  END
$$$$
