PFW.pdb
     RDKit          3D

 33 36  0  0  1  0  0  0  0  0999 V2000
   28.4591  -20.1889  -15.4768 N   0  0  0  0  0  0  0  0  0  0  0  0
   28.8111  -19.1799  -16.4225 C   0  0  0  0  0  0  0  0  0  0  0  0
   28.6700  -17.8397  -15.7375 C   0  0  0  0  0  0  0  0  0  0  0  0
   27.7212  -18.1910  -14.5868 C   0  0  0  0  0  0  0  0  0  0  0  0
   28.1859  -19.5600  -14.2260 C   0  0  1  0  0  0  0  0  0  0  0  0
   27.1940  -20.3104  -13.4124 C   0  0  0  0  0  0  0  0  0  0  0  0
   26.6326  -21.2901  -13.9504 O   0  0  0  0  0  0  0  0  0  0  0  0
   26.8658  -19.9707  -12.0851 N   0  0  0  0  0  0  0  0  0  0  0  0
   25.9787  -20.8242  -11.3164 C   0  0  1  0  0  0  0  0  0  0  0  0
   26.4334  -20.9370   -9.8946 C   0  0  0  0  0  0  0  0  0  0  0  0
   27.8757  -21.2465   -9.7571 C   0  0  0  0  0  0  0  0  0  0  0  0
   28.6260  -20.6661   -8.7562 C   0  0  0  0  0  0  0  0  0  0  0  0
   29.9663  -20.9145   -8.5815 C   0  0  0  0  0  0  0  0  0  0  0  0
   30.5921  -21.7866   -9.4493 C   0  0  0  0  0  0  0  0  0  0  0  0
   29.8597  -22.3805  -10.4609 C   0  0  0  0  0  0  0  0  0  0  0  0
   28.5015  -22.1154  -10.6210 C   0  0  0  0  0  0  0  0  0  0  0  0
   24.5829  -20.3866  -11.4866 C   0  0  0  0  0  0  0  0  0  0  0  0
   24.2747  -19.2207  -11.0845 O   0  0  0  0  0  0  0  0  0  0  0  0
   23.5792  -21.1960  -12.0733 N   0  0  0  0  0  0  0  0  0  0  0  0
   22.2080  -20.7100  -12.1185 C   0  0  1  0  0  0  0  0  0  0  0  0
   21.9356  -20.0714  -13.4595 C   0  0  0  0  0  0  0  0  0  0  0  0
   22.7592  -20.6648  -14.5152 C   0  0  0  0  0  0  0  0  0  0  0  0
   22.8427  -22.0020  -14.8810 C   0  0  0  0  0  0  0  0  0  0  0  0
   23.7396  -22.1443  -15.8636 N   0  0  0  0  0  0  0  0  0  0  0  0
   24.2616  -20.9472  -16.1719 C   0  0  0  0  0  0  0  0  0  0  0  0
   25.1998  -20.5207  -17.1084 C   0  0  0  0  0  0  0  0  0  0  0  0
   25.5384  -19.1956  -17.2241 C   0  0  0  0  0  0  0  0  0  0  0  0
   24.9467  -18.2520  -16.4032 C   0  0  0  0  0  0  0  0  0  0  0  0
   24.0190  -18.6655  -15.4741 C   0  0  0  0  0  0  0  0  0  0  0  0
   23.6654  -20.0122  -15.3451 C   0  0  0  0  0  0  0  0  0  0  0  0
   21.2258  -21.6828  -11.6916 C   0  0  0  0  0  0  0  0  0  0  0  0
   19.8947  -21.2677  -11.4855 O   0  0  0  0  0  0  0  0  0  0  0  0
   21.4282  -22.9007  -11.4742 O   0  0  0  0  0  0  0  0  0  0  0  0
  1  2  1  0
  2  3  1  0
  4  3  1  0
  5  4  1  0
  5  1  1  0
  5  6  1  6
  7  6  2  0
  8  6  1  0
  9  8  1  0
 10 11  1  0
  9 10  1  1
 11 16  2  0
 12 13  2  0
 12 11  1  0
 13 14  1  0
 14 15  2  0
 16 15  1  0
 17  9  1  0
 17 19  1  0
 18 17  2  0
 20 21  1  6
 20 19  1  0
 20 31  1  0
 22 30  1  0
 22 21  1  0
 23 22  2  0
 24 23  1  0
 24 25  1  0
 25 26  1  0
 25 30  2  0
 26 27  2  0
 27 28  1  0
 29 28  2  0
 30 29  1  0
 31 32  1  0
 33 31  2  0
M  END
$$$$
