PFW.pdb
     RDKit          3D

 33 36  0  0  1  0  0  0  0  0999 V2000
   26.1668  -20.9645  -18.5688 N   0  0  0  0  0  0  0  0  0  0  0  0
   26.3417  -20.6934  -19.9589 C   0  0  0  0  0  0  0  0  0  0  0  0
   27.7453  -21.1104  -20.3345 C   0  0  0  0  0  0  0  0  0  0  0  0
   28.4364  -21.0984  -18.9671 C   0  0  0  0  0  0  0  0  0  0  0  0
   27.3481  -21.5968  -18.0797 C   0  0  1  0  0  0  0  0  0  0  0  0
   27.5980  -21.3103  -16.6429 C   0  0  0  0  0  0  0  0  0  0  0  0
   28.6248  -21.8055  -16.1283 O   0  0  0  0  0  0  0  0  0  0  0  0
   26.7426  -20.5190  -15.8512 N   0  0  0  0  0  0  0  0  0  0  0  0
   27.1681  -20.0874  -14.5325 C   0  0  1  0  0  0  0  0  0  0  0  0
   27.1230  -18.5962  -14.4101 C   0  0  0  0  0  0  0  0  0  0  0  0
   27.9086  -17.8927  -15.4506 C   0  0  0  0  0  0  0  0  0  0  0  0
   27.3191  -16.9332  -16.2466 C   0  0  0  0  0  0  0  0  0  0  0  0
   27.9973  -16.2501  -17.2273 C   0  0  0  0  0  0  0  0  0  0  0  0
   29.3327  -16.5378  -17.4258 C   0  0  0  0  0  0  0  0  0  0  0  0
   29.9450  -17.4965  -16.6396 C   0  0  0  0  0  0  0  0  0  0  0  0
   29.2396  -18.1779  -15.6502 C   0  0  0  0  0  0  0  0  0  0  0  0
   26.4183  -20.8163  -13.4955 C   0  0  0  0  0  0  0  0  0  0  0  0
   25.2643  -21.2555  -13.7977 O   0  0  0  0  0  0  0  0  0  0  0  0
   26.9195  -21.0495  -12.1912 N   0  0  0  0  0  0  0  0  0  0  0  0
   26.0539  -21.6619  -11.1942 C   0  0  1  0  0  0  0  0  0  0  0  0
   26.8643  -22.0442   -9.9787 C   0  0  0  0  0  0  0  0  0  0  0  0
   26.8564  -20.9817   -8.9707 C   0  0  0  0  0  0  0  0  0  0  0  0
   25.8943  -19.9992   -8.7754 C   0  0  0  0  0  0  0  0  0  0  0  0
   26.2731  -19.1907   -7.7789 N   0  0  0  0  0  0  0  0  0  0  0  0
   27.4575  -19.5971   -7.2965 C   0  0  0  0  0  0  0  0  0  0  0  0
   28.2836  -19.1441   -6.2711 C   0  0  0  0  0  0  0  0  0  0  0  0
   29.4614  -19.7820   -5.9716 C   0  0  0  0  0  0  0  0  0  0  0  0
   29.8512  -20.8975   -6.6915 C   0  0  0  0  0  0  0  0  0  0  0  0
   29.0407  -21.3511   -7.7074 C   0  0  0  0  0  0  0  0  0  0  0  0
   27.8387  -20.7104   -8.0235 C   0  0  0  0  0  0  0  0  0  0  0  0
   24.8515  -20.9065  -10.9168 C   0  0  0  0  0  0  0  0  0  0  0  0
   23.7407  -21.5682  -10.3556 O   0  0  0  0  0  0  0  0  0  0  0  0
   24.6745  -19.6833  -11.1262 O   0  0  0  0  0  0  0  0  0  0  0  0
  1  2  1  0
  2  3  1  0
  4  3  1  0
  5  4  1  0
  5  1  1  0
  5  6  1  1
  7  6  2  0
  8  6  1  0
  9  8  1  0
 10 11  1  0
  9 10  1  6
 11 16  2  0
 12 13  2  0
 12 11  1  0
 13 14  1  0
 14 15  2  0
 16 15  1  0
 17  9  1  0
 17 19  1  0
 18 17  2  0
 20 21  1  1
 20 19  1  0
 20 31  1  0
 22 30  1  0
 22 21  1  0
 23 22  2  0
 24 23  1  0
 24 25  1  0
 25 26  1  0
 25 30  2  0
 26 27  2  0
 27 28  1  0
 29 28  2  0
 30 29  1  0
 31 32  1  0
 33 31  2  0
M  END
$$$$
