PFW.pdb
     RDKit          3D

 33 36  0  0  1  0  0  0  0  0999 V2000
   28.4196  -21.5187  -19.9105 N   0  0  0  0  0  0  0  0  0  0  0  0
   29.0410  -21.7847  -21.1673 C   0  0  0  0  0  0  0  0  0  0  0  0
   29.9360  -20.6111  -21.4940 C   0  0  0  0  0  0  0  0  0  0  0  0
   29.3249  -19.5155  -20.6144 C   0  0  0  0  0  0  0  0  0  0  0  0
   28.9360  -20.2900  -19.4024 C   0  0  1  0  0  0  0  0  0  0  0  0
   27.9588  -19.5690  -18.5455 C   0  0  0  0  0  0  0  0  0  0  0  0
   28.3303  -18.4907  -18.0322 O   0  0  0  0  0  0  0  0  0  0  0  0
   26.6557  -20.0407  -18.2920 N   0  0  0  0  0  0  0  0  0  0  0  0
   25.7215  -19.2220  -17.5415 C   0  0  1  0  0  0  0  0  0  0  0  0
   24.5599  -18.8090  -18.3907 C   0  0  0  0  0  0  0  0  0  0  0  0
   24.4667  -17.3446  -18.5946 C   0  0  0  0  0  0  0  0  0  0  0  0
   23.5758  -16.5890  -17.8618 C   0  0  0  0  0  0  0  0  0  0  0  0
   23.4450  -15.2290  -18.0090 C   0  0  0  0  0  0  0  0  0  0  0  0
   24.2433  -14.5878  -18.9348 C   0  0  0  0  0  0  0  0  0  0  0  0
   25.1440  -15.3252  -19.6813 C   0  0  0  0  0  0  0  0  0  0  0  0
   25.2614  -16.7036  -19.5168 C   0  0  0  0  0  0  0  0  0  0  0  0
   25.3591  -19.8938  -16.2820 C   0  0  0  0  0  0  0  0  0  0  0  0
   25.1610  -21.1491  -16.3162 O   0  0  0  0  0  0  0  0  0  0  0  0
   25.2243  -19.2130  -15.0471 N   0  0  0  0  0  0  0  0  0  0  0  0
   24.8086  -19.9549  -13.8660 C   0  0  1  0  0  0  0  0  0  0  0  0
   25.2627  -19.2309  -12.6210 C   0  0  0  0  0  0  0  0  0  0  0  0
   24.9481  -19.9930  -11.4105 C   0  0  0  0  0  0  0  0  0  0  0  0
   25.8282  -20.6728  -10.5784 C   0  0  0  0  0  0  0  0  0  0  0  0
   25.1450  -21.2790   -9.6006 N   0  0  0  0  0  0  0  0  0  0  0  0
   23.8348  -21.0287   -9.7464 C   0  0  0  0  0  0  0  0  0  0  0  0
   22.7020  -21.3858   -9.0196 C   0  0  0  0  0  0  0  0  0  0  0  0
   21.4523  -20.9589   -9.3939 C   0  0  0  0  0  0  0  0  0  0  0  0
   21.2963  -20.1582  -10.5114 C   0  0  0  0  0  0  0  0  0  0  0  0
   22.4111  -19.8015  -11.2359 C   0  0  0  0  0  0  0  0  0  0  0  0
   23.6897  -20.2300  -10.8663 C   0  0  0  0  0  0  0  0  0  0  0  0
   23.4146  -20.3420  -13.8762 C   0  0  0  0  0  0  0  0  0  0  0  0
   23.0785  -21.6979  -13.6887 O   0  0  0  0  0  0  0  0  0  0  0  0
   22.4309  -19.5822  -14.0396 O   0  0  0  0  0  0  0  0  0  0  0  0
  1  2  1  0
  2  3  1  0
  4  3  1  0
  5  4  1  0
  5  1  1  0
  5  6  1  6
  7  6  2  0
  8  6  1  0
  9  8  1  0
 10 11  1  0
  9 10  1  6
 11 16  2  0
 12 13  2  0
 12 11  1  0
 13 14  1  0
 14 15  2  0
 16 15  1  0
 17  9  1  0
 17 19  1  0
 18 17  2  0
 20 21  1  1
 20 19  1  0
 20 31  1  0
 22 30  1  0
 22 21  1  0
 23 22  2  0
 24 23  1  0
 24 25  1  0
 25 26  1  0
 25 30  2  0
 26 27  2  0
 27 28  1  0
 29 28  2  0
 30 29  1  0
 31 32  1  0
 33 31  2  0
M  END
$$$$
