PFW.pdb
     RDKit          3D

 33 36  0  0  1  0  0  0  0  0999 V2000
   27.2069  -19.3057  -15.6877 N   0  0  0  0  0  0  0  0  0  0  0  0
   28.3895  -18.8801  -16.3636 C   0  0  0  0  0  0  0  0  0  0  0  0
   29.2944  -20.0826  -16.5061 C   0  0  0  0  0  0  0  0  0  0  0  0
   28.7515  -20.9973  -15.4033 C   0  0  0  0  0  0  0  0  0  0  0  0
   27.2904  -20.7135  -15.4744 C   0  0  1  0  0  0  0  0  0  0  0  0
   26.5572  -21.1530  -14.2586 C   0  0  0  0  0  0  0  0  0  0  0  0
   26.3770  -22.3815  -14.1087 O   0  0  0  0  0  0  0  0  0  0  0  0
   26.0658  -20.2601  -13.2860 N   0  0  0  0  0  0  0  0  0  0  0  0
   25.3472  -20.7684  -12.1321 C   0  0  1  0  0  0  0  0  0  0  0  0
   25.9528  -20.2732  -10.8558 C   0  0  0  0  0  0  0  0  0  0  0  0
   27.4049  -20.5450  -10.7450 C   0  0  0  0  0  0  0  0  0  0  0  0
   28.3040  -19.9055  -11.5723 C   0  0  0  0  0  0  0  0  0  0  0  0
   29.6604  -20.1188  -11.5158 C   0  0  0  0  0  0  0  0  0  0  0  0
   30.1469  -21.0162  -10.5867 C   0  0  0  0  0  0  0  0  0  0  0  0
   29.2639  -21.6695   -9.7464 C   0  0  0  0  0  0  0  0  0  0  0  0
   27.8920  -21.4391   -9.8197 C   0  0  0  0  0  0  0  0  0  0  0  0
   23.9059  -20.5031  -12.2767 C   0  0  0  0  0  0  0  0  0  0  0  0
   23.4523  -19.4178  -11.7946 O   0  0  0  0  0  0  0  0  0  0  0  0
   23.0116  -21.3914  -12.9232 N   0  0  0  0  0  0  0  0  0  0  0  0
   21.6167  -21.0078  -13.0822 C   0  0  1  0  0  0  0  0  0  0  0  0
   21.5311  -19.6467  -13.7305 C   0  0  0  0  0  0  0  0  0  0  0  0
   22.1392  -19.6463  -15.0630 C   0  0  0  0  0  0  0  0  0  0  0  0
   22.2413  -20.7071  -15.9537 C   0  0  0  0  0  0  0  0  0  0  0  0
   22.9022  -20.3131  -17.0483 N   0  0  0  0  0  0  0  0  0  0  0  0
   23.2472  -19.0223  -16.9242 C   0  0  0  0  0  0  0  0  0  0  0  0
   23.9146  -18.1226  -17.7514 C   0  0  0  0  0  0  0  0  0  0  0  0
   24.1149  -16.8192  -17.3705 C   0  0  0  0  0  0  0  0  0  0  0  0
   23.6521  -16.3735  -16.1451 C   0  0  0  0  0  0  0  0  0  0  0  0
   22.9923  -17.2569  -15.3210 C   0  0  0  0  0  0  0  0  0  0  0  0
   22.7821  -18.5874  -15.6963 C   0  0  0  0  0  0  0  0  0  0  0  0
   20.7923  -22.0296  -13.6901 C   0  0  0  0  0  0  0  0  0  0  0  0
   21.4095  -23.1732  -14.2358 O   0  0  0  0  0  0  0  0  0  0  0  0
   19.5430  -22.0162  -13.7930 O   0  0  0  0  0  0  0  0  0  0  0  0
  1  2  1  0
  2  3  1  0
  4  3  1  0
  5  4  1  0
  5  1  1  0
  5  6  1  1
  7  6  2  0
  8  6  1  0
  9  8  1  0
 10 11  1  0
  9 10  1  1
 11 16  2  0
 12 13  2  0
 12 11  1  0
 13 14  1  0
 14 15  2  0
 16 15  1  0
 17  9  1  0
 17 19  1  0
 18 17  2  0
 20 21  1  6
 20 19  1  0
 20 31  1  0
 22 30  1  0
 22 21  1  0
 23 22  2  0
 24 23  1  0
 24 25  1  0
 25 26  1  0
 25 30  2  0
 26 27  2  0
 27 28  1  0
 29 28  2  0
 30 29  1  0
 31 32  1  0
 33 31  2  0
M  END
$$$$
