PFW.pdb
     RDKit          3D

 33 36  0  0  1  0  0  0  0  0999 V2000
   28.5876  -24.3889  -17.8576 N   0  0  0  0  0  0  0  0  0  0  0  0
   29.5509  -24.7870  -18.8323 C   0  0  0  0  0  0  0  0  0  0  0  0
   30.8471  -24.0782  -18.5124 C   0  0  0  0  0  0  0  0  0  0  0  0
   30.3445  -22.9041  -17.6659 C   0  0  0  0  0  0  0  0  0  0  0  0
   29.2299  -23.5398  -16.9084 C   0  0  1  0  0  0  0  0  0  0  0  0
   28.3010  -22.5475  -16.3071 C   0  0  0  0  0  0  0  0  0  0  0  0
   28.7696  -21.7687  -15.4478 O   0  0  0  0  0  0  0  0  0  0  0  0
   26.9402  -22.4494  -16.6579 N   0  0  0  0  0  0  0  0  0  0  0  0
   26.1203  -21.3930  -16.0938 C   0  0  1  0  0  0  0  0  0  0  0  0
   25.3008  -20.7206  -17.1509 C   0  0  0  0  0  0  0  0  0  0  0  0
   24.3062  -19.7650  -16.6103 C   0  0  0  0  0  0  0  0  0  0  0  0
   23.0158  -20.1710  -16.3426 C   0  0  0  0  0  0  0  0  0  0  0  0
   22.0516  -19.3293  -15.8424 C   0  0  0  0  0  0  0  0  0  0  0  0
   22.3903  -18.0140  -15.5959 C   0  0  0  0  0  0  0  0  0  0  0  0
   23.6785  -17.5842  -15.8568 C   0  0  0  0  0  0  0  0  0  0  0  0
   24.6417  -18.4536  -16.3639 C   0  0  0  0  0  0  0  0  0  0  0  0
   25.3508  -21.9072  -14.9482 C   0  0  0  0  0  0  0  0  0  0  0  0
   24.6888  -22.9799  -15.1131 O   0  0  0  0  0  0  0  0  0  0  0  0
   25.3163  -21.2691  -13.6839 N   0  0  0  0  0  0  0  0  0  0  0  0
   24.3289  -21.6888  -12.7006 C   0  0  1  0  0  0  0  0  0  0  0  0
   25.0238  -22.2899  -11.5022 C   0  0  0  0  0  0  0  0  0  0  0  0
   25.8569  -21.3026  -10.8121 C   0  0  0  0  0  0  0  0  0  0  0  0
   25.4982  -20.4719   -9.7584 C   0  0  0  0  0  0  0  0  0  0  0  0
   26.5299  -19.6833   -9.4362 N   0  0  0  0  0  0  0  0  0  0  0  0
   27.5712  -19.9565  -10.2373 C   0  0  0  0  0  0  0  0  0  0  0  0
   28.8696  -19.4614  -10.3274 C   0  0  0  0  0  0  0  0  0  0  0  0
   29.7562  -19.9530  -11.2526 C   0  0  0  0  0  0  0  0  0  0  0  0
   29.3701  -20.9594  -12.1201 C   0  0  0  0  0  0  0  0  0  0  0  0
   28.0880  -21.4536  -12.0382 C   0  0  0  0  0  0  0  0  0  0  0  0
   27.1744  -20.9613  -11.1010 C   0  0  0  0  0  0  0  0  0  0  0  0
   23.3400  -20.6784  -12.3931 C   0  0  0  0  0  0  0  0  0  0  0  0
   22.0764  -21.0794  -11.9144 O   0  0  0  0  0  0  0  0  0  0  0  0
   23.4808  -19.4380  -12.5079 O   0  0  0  0  0  0  0  0  0  0  0  0
  1  2  1  0
  2  3  1  0
  4  3  1  0
  5  4  1  0
  5  1  1  0
  5  6  1  6
  7  6  2  0
  8  6  1  0
  9  8  1  0
 10 11  1  0
  9 10  1  6
 11 16  2  0
 12 13  2  0
 12 11  1  0
 13 14  1  0
 14 15  2  0
 16 15  1  0
 17  9  1  0
 17 19  1  0
 18 17  2  0
 20 21  1  1
 20 19  1  0
 20 31  1  0
 22 30  1  0
 22 21  1  0
 23 22  2  0
 24 23  1  0
 24 25  1  0
 25 26  1  0
 25 30  2  0
 26 27  2  0
 27 28  1  0
 29 28  2  0
 30 29  1  0
 31 32  1  0
 33 31  2  0
M  END
$$$$
