PFW.pdb
     RDKit          3D

 33 36  0  0  1  0  0  0  0  0999 V2000
   26.1845    4.3496  -10.6873 N   0  0  0  0  0  0  0  0  0  0  0  0
   25.3091    4.3976  -11.8132 C   0  0  0  0  0  0  0  0  0  0  0  0
   24.0179    5.0423  -11.3633 C   0  0  0  0  0  0  0  0  0  0  0  0
   24.0870    4.8236   -9.8484 C   0  0  0  0  0  0  0  0  0  0  0  0
   25.5441    4.9968   -9.5893 C   0  0  1  0  0  0  0  0  0  0  0  0
   25.9661    4.4463   -8.2749 C   0  0  0  0  0  0  0  0  0  0  0  0
   25.4715    4.9640   -7.2494 O   0  0  0  0  0  0  0  0  0  0  0  0
   26.8831    3.3856   -8.1383 N   0  0  0  0  0  0  0  0  0  0  0  0
   27.1753    2.8444   -6.8237 C   0  0  1  0  0  0  0  0  0  0  0  0
   26.7430    1.4151   -6.7182 C   0  0  0  0  0  0  0  0  0  0  0  0
   25.2764    1.2480   -6.5920 C   0  0  0  0  0  0  0  0  0  0  0  0
   24.6840    1.1602   -5.3499 C   0  0  0  0  0  0  0  0  0  0  0  0
   23.3304    1.0036   -5.1722 C   0  0  0  0  0  0  0  0  0  0  0  0
   22.5244    0.9304   -6.2904 C   0  0  0  0  0  0  0  0  0  0  0  0
   23.0963    1.0160   -7.5466 C   0  0  0  0  0  0  0  0  0  0  0  0
   24.4712    1.1748   -7.7053 C   0  0  0  0  0  0  0  0  0  0  0  0
   28.5851    3.0916   -6.4770 C   0  0  0  0  0  0  0  0  0  0  0  0
   29.4577    2.9154   -7.3846 O   0  0  0  0  0  0  0  0  0  0  0  0
   29.0088    3.5138   -5.1929 N   0  0  0  0  0  0  0  0  0  0  0  0
   30.3587    4.0304   -5.0220 C   0  0  1  0  0  0  0  0  0  0  0  0
   30.6728    5.0149   -6.1230 C   0  0  0  0  0  0  0  0  0  0  0  0
   32.0466    5.5131   -6.0236 C   0  0  0  0  0  0  0  0  0  0  0  0
   33.2174    4.8646   -6.3947 C   0  0  0  0  0  0  0  0  0  0  0  0
   34.2705    5.6377   -6.1058 N   0  0  0  0  0  0  0  0  0  0  0  0
   33.8472    6.7851   -5.5537 C   0  0  0  0  0  0  0  0  0  0  0  0
   34.4980    7.9261   -5.0915 C   0  0  0  0  0  0  0  0  0  0  0  0
   33.7952    8.9894   -4.5820 C   0  0  0  0  0  0  0  0  0  0  0  0
   32.4137    8.9441   -4.5187 C   0  0  0  0  0  0  0  0  0  0  0  0
   31.7628    7.8193   -4.9726 C   0  0  0  0  0  0  0  0  0  0  0  0
   32.4665    6.7289   -5.4932 C   0  0  0  0  0  0  0  0  0  0  0  0
   30.6437    4.4969   -3.6825 C   0  0  0  0  0  0  0  0  0  0  0  0
   31.8649    4.1377   -3.0771 O   0  0  0  0  0  0  0  0  0  0  0  0
   29.9016    5.2113   -2.9680 O   0  0  0  0  0  0  0  0  0  0  0  0
  1  2  1  0
  2  3  1  0
  4  3  1  0
  5  4  1  0
  5  1  1  0
  5  6  1  1
  7  6  2  0
  8  6  1  0
  9  8  1  0
 10 11  1  0
  9 10  1  6
 11 16  2  0
 12 13  2  0
 12 11  1  0
 13 14  1  0
 14 15  2  0
 16 15  1  0
 17  9  1  0
 17 19  1  0
 18 17  2  0
 20 21  1  6
 20 19  1  0
 20 31  1  0
 22 30  1  0
 22 21  1  0
 23 22  2  0
 24 23  1  0
 24 25  1  0
 25 26  1  0
 25 30  2  0
 26 27  2  0
 27 28  1  0
 29 28  2  0
 30 29  1  0
 31 32  1  0
 33 31  2  0
M  END
$$$$
