PFW.pdb
     RDKit          3D

 33 36  0  0  1  0  0  0  0  0999 V2000
   26.0595  -22.8708  -17.1889 N   0  0  0  0  0  0  0  0  0  0  0  0
   26.3651  -23.1236  -18.5597 C   0  0  0  0  0  0  0  0  0  0  0  0
   27.8292  -23.4903  -18.6432 C   0  0  0  0  0  0  0  0  0  0  0  0
   28.3628  -22.8882  -17.3392 C   0  0  0  0  0  0  0  0  0  0  0  0
   27.2246  -23.1361  -16.4100 C   0  0  1  0  0  0  0  0  0  0  0  0
   27.2923  -22.3050  -15.1797 C   0  0  0  0  0  0  0  0  0  0  0  0
   28.2976  -22.4418  -14.4483 O   0  0  0  0  0  0  0  0  0  0  0  0
   26.2899  -21.3868  -14.8097 N   0  0  0  0  0  0  0  0  0  0  0  0
   26.4917  -20.5142  -13.6677 C   0  0  1  0  0  0  0  0  0  0  0  0
   26.1000  -19.1051  -13.9869 C   0  0  0  0  0  0  0  0  0  0  0  0
   26.3759  -18.1506  -12.8880 C   0  0  0  0  0  0  0  0  0  0  0  0
   27.5449  -17.4194  -12.8701 C   0  0  0  0  0  0  0  0  0  0  0  0
   27.8546  -16.5215  -11.8769 C   0  0  0  0  0  0  0  0  0  0  0  0
   26.9525  -16.3425  -10.8475 C   0  0  0  0  0  0  0  0  0  0  0  0
   25.7734  -17.0650  -10.8444 C   0  0  0  0  0  0  0  0  0  0  0  0
   25.4782  -17.9707  -11.8610 C   0  0  0  0  0  0  0  0  0  0  0  0
   25.8398  -21.0826  -12.4757 C   0  0  0  0  0  0  0  0  0  0  0  0
   24.8047  -21.7992  -12.6520 O   0  0  0  0  0  0  0  0  0  0  0  0
   26.3093  -20.8711  -11.1560 N   0  0  0  0  0  0  0  0  0  0  0  0
   25.7577  -21.6646  -10.0677 C   0  0  1  0  0  0  0  0  0  0  0  0
   26.8004  -21.8521   -8.9918 C   0  0  0  0  0  0  0  0  0  0  0  0
   26.9655  -20.6406   -8.1855 C   0  0  0  0  0  0  0  0  0  0  0  0
   26.3311  -19.4158   -8.3475 C   0  0  0  0  0  0  0  0  0  0  0  0
   26.7842  -18.5503   -7.4333 N   0  0  0  0  0  0  0  0  0  0  0  0
   27.7015  -19.1522   -6.6609 C   0  0  0  0  0  0  0  0  0  0  0  0
   28.4625  -18.7359   -5.5715 C   0  0  0  0  0  0  0  0  0  0  0  0
   29.3306  -19.5919   -4.9409 C   0  0  0  0  0  0  0  0  0  0  0  0
   29.4651  -20.8963   -5.3822 C   0  0  0  0  0  0  0  0  0  0  0  0
   28.7172  -21.3155   -6.4592 C   0  0  0  0  0  0  0  0  0  0  0  0
   27.8298  -20.4537   -7.1112 C   0  0  0  0  0  0  0  0  0  0  0  0
   24.4690  -21.2029   -9.5990 C   0  0  0  0  0  0  0  0  0  0  0  0
   23.9449  -19.9988  -10.1107 O   0  0  0  0  0  0  0  0  0  0  0  0
   23.7347  -21.7711   -8.7567 O   0  0  0  0  0  0  0  0  0  0  0  0
  1  2  1  0
  2  3  1  0
  4  3  1  0
  5  4  1  0
  5  1  1  0
  5  6  1  1
  7  6  2  0
  8  6  1  0
  9  8  1  0
 10 11  1  0
  9 10  1  6
 11 16  2  0
 12 13  2  0
 12 11  1  0
 13 14  1  0
 14 15  2  0
 16 15  1  0
 17  9  1  0
 17 19  1  0
 18 17  2  0
 20 21  1  1
 20 19  1  0
 20 31  1  0
 22 30  1  0
 22 21  1  0
 23 22  2  0
 24 23  1  0
 24 25  1  0
 25 26  1  0
 25 30  2  0
 26 27  2  0
 27 28  1  0
 29 28  2  0
 30 29  1  0
 31 32  1  0
 33 31  2  0
M  END
$$$$
