TLG.pdb
     RDKit          3D

 20 19  0  0  1  0  0  0  0  0999 V2000
    6.9684  -16.9832   21.6700 C   0  0  0  0  0  0  0  0  0  0  0  0
    7.7808  -16.1356   20.7411 C   0  0  1  0  0  0  0  0  0  0  0  0
    7.4958  -16.5382   19.4345 O   0  0  0  0  0  0  0  0  0  0  0  0
    7.4213  -14.6746   20.8418 C   0  0  2  0  0  0  0  0  0  0  0  0
    7.8638  -13.9754   19.6673 N   0  0  0  0  0  0  0  0  0  0  0  0
    7.9326  -14.0163   22.0392 C   0  0  0  0  0  0  0  0  0  0  0  0
    8.9874  -13.3469   21.9869 O   0  0  0  0  0  0  0  0  0  0  0  0
    5.5266  -12.2159   27.4321 C   0  0  0  0  0  0  0  0  0  0  0  0
    6.8024  -12.3727   26.6175 C   0  0  2  0  0  0  0  0  0  0  0  0
    7.4881  -11.0354   26.5167 C   0  0  0  0  0  0  0  0  0  0  0  0
    6.4971  -12.9734   25.2826 C   0  0  0  0  0  0  0  0  0  0  0  0
    7.6757  -13.3915   24.4736 C   0  0  2  0  0  0  0  0  0  0  0  0
    7.2555  -14.1170   23.2773 N   0  0  0  0  0  0  0  0  0  0  0  0
    8.5460  -14.3147   25.2469 C   0  0  0  0  0  0  0  0  0  0  0  0
    8.9868  -14.0443   26.4085 O   0  0  0  0  0  0  0  0  0  0  0  0
    8.9450  -15.5785   24.7239 N   0  0  0  0  0  0  0  0  0  0  0  0
    9.7725  -16.4625   25.5111 C   0  0  0  0  0  0  0  0  0  0  0  0
   10.1206  -17.6877   24.7468 C   0  0  0  0  0  0  0  0  0  0  0  0
    9.3612  -18.6669   24.7812 O   0  0  0  0  0  0  0  0  0  0  0  0
   11.2768  -17.7817   23.9858 O   0  0  0  0  0  0  0  0  0  0  0  0
  2  3  1  0
  2  1  1  1
  4  2  1  0
  4  5  1  6
  6  4  1  0
  6  7  2  0
  9 11  1  0
  9  8  1  6
 10  9  1  0
 12 11  1  1
 12 13  1  0
 13  6  1  0
 14 12  1  0
 15 14  2  0
 16 14  1  0
 17 16  1  0
 18 20  1  0
 18 17  1  0
 19 18  2  0
M  END
$$$$
