TLG.pdb
     RDKit          3D

 20 19  0  0  1  0  0  0  0  0999 V2000
    5.5119  -18.9910   22.6409 C   0  0  0  0  0  0  0  0  0  0  0  0
    6.5227  -18.1155   23.3140 C   0  0  1  0  0  0  0  0  0  0  0  0
    7.7866  -18.6602   23.0770 O   0  0  0  0  0  0  0  0  0  0  0  0
    6.5310  -16.7172   22.7495 C   0  0  2  0  0  0  0  0  0  0  0  0
    6.7341  -16.7601   21.3279 N   0  0  0  0  0  0  0  0  0  0  0  0
    7.5100  -15.8303   23.3689 C   0  0  0  0  0  0  0  0  0  0  0  0
    8.4928  -15.4223   22.7125 O   0  0  0  0  0  0  0  0  0  0  0  0
    7.4271  -11.6124   25.2110 C   0  0  0  0  0  0  0  0  0  0  0  0
    6.7066  -12.6964   25.9995 C   0  0  2  0  0  0  0  0  0  0  0  0
    5.9567  -12.0581   27.1393 C   0  0  0  0  0  0  0  0  0  0  0  0
    7.6751  -13.7419   26.4519 C   0  0  0  0  0  0  0  0  0  0  0  0
    8.3328  -14.5289   25.3719 C   0  0  2  0  0  0  0  0  0  0  0  0
    7.3742  -15.4133   24.7140 N   0  0  0  0  0  0  0  0  0  0  0  0
    9.4011  -15.3988   25.9286 C   0  0  0  0  0  0  0  0  0  0  0  0
   10.3925  -14.9481   26.5847 O   0  0  0  0  0  0  0  0  0  0  0  0
    9.3775  -16.8131   25.7571 N   0  0  0  0  0  0  0  0  0  0  0  0
   10.4853  -17.6192   26.2138 C   0  0  0  0  0  0  0  0  0  0  0  0
   10.1715  -18.2698   27.5118 C   0  0  0  0  0  0  0  0  0  0  0  0
    9.8245  -17.5738   28.4771 O   0  0  0  0  0  0  0  0  0  0  0  0
   10.2521  -19.6433   27.6898 O   0  0  0  0  0  0  0  0  0  0  0  0
  2  3  1  0
  2  1  1  6
  4  2  1  0
  4  5  1  6
  6  4  1  0
  6  7  2  0
  9 11  1  0
  9  8  1  1
 10  9  1  0
 12 11  1  1
 12 13  1  0
 13  6  1  0
 14 12  1  0
 15 14  2  0
 16 14  1  0
 17 16  1  0
 18 20  1  0
 18 17  1  0
 19 18  2  0
M  END
$$$$
