TLG.pdb
     RDKit          3D

 20 19  0  0  1  0  0  0  0  0999 V2000
    9.7473  -19.7175   20.0078 C   0  0  0  0  0  0  0  0  0  0  0  0
   10.3805  -19.2984   18.7176 C   0  0  1  0  0  0  0  0  0  0  0  0
   10.0910  -20.2745   17.7616 O   0  0  0  0  0  0  0  0  0  0  0  0
    9.8192  -17.9965   18.2040 C   0  0  2  0  0  0  0  0  0  0  0  0
   10.2628  -17.7649   16.8572 N   0  0  0  0  0  0  0  0  0  0  0  0
   10.1312  -16.8421   19.0398 C   0  0  0  0  0  0  0  0  0  0  0  0
   11.2254  -16.2508   18.9122 O   0  0  0  0  0  0  0  0  0  0  0  0
    8.6189  -12.5157   19.5634 C   0  0  0  0  0  0  0  0  0  0  0  0
    7.6765  -13.6568   19.9180 C   0  0  2  0  0  0  0  0  0  0  0  0
    6.3005  -13.0974   20.1681 C   0  0  0  0  0  0  0  0  0  0  0  0
    8.2110  -14.4313   21.0800 C   0  0  0  0  0  0  0  0  0  0  0  0
    9.4688  -15.1893   20.8321 C   0  0  2  0  0  0  0  0  0  0  0  0
    9.2135  -16.3667   20.0060 N   0  0  0  0  0  0  0  0  0  0  0  0
   10.0478  -15.6830   22.1084 C   0  0  0  0  0  0  0  0  0  0  0  0
   10.4158  -14.9107   23.0490 O   0  0  0  0  0  0  0  0  0  0  0  0
   10.2280  -17.0742   22.3579 N   0  0  0  0  0  0  0  0  0  0  0  0
   10.7443  -17.5236   23.6296 C   0  0  0  0  0  0  0  0  0  0  0  0
   12.2295  -17.4983   23.6408 C   0  0  0  0  0  0  0  0  0  0  0  0
   12.8413  -17.9171   24.6342 O   0  0  0  0  0  0  0  0  0  0  0  0
   12.9694  -17.0185   22.5698 O   0  0  0  0  0  0  0  0  0  0  0  0
  2  3  1  0
  2  1  1  1
  4  2  1  0
  4  5  1  6
  6  4  1  0
  6  7  2  0
  9 11  1  0
  9  8  1  1
 10  9  1  0
 12 11  1  1
 12 13  1  0
 13  6  1  0
 14 12  1  0
 15 14  2  0
 16 14  1  0
 17 16  1  0
 18 20  1  0
 18 17  1  0
 19 18  2  0
M  END
$$$$
