TLG.pdb
     RDKit          3D

 20 19  0  0  1  0  0  0  0  0999 V2000
    6.6838  -15.5039   19.4098 C   0  0  0  0  0  0  0  0  0  0  0  0
    7.3048  -15.3630   20.7647 C   0  0  1  0  0  0  0  0  0  0  0  0
    8.6149  -15.8405   20.6870 O   0  0  0  0  0  0  0  0  0  0  0  0
    7.3846  -13.9238   21.2078 C   0  0  2  0  0  0  0  0  0  0  0  0
    8.0250  -13.1305   20.1955 N   0  0  0  0  0  0  0  0  0  0  0  0
    8.0511  -13.7315   22.4913 C   0  0  0  0  0  0  0  0  0  0  0  0
    9.1892  -13.2159   22.5377 O   0  0  0  0  0  0  0  0  0  0  0  0
    7.7274  -11.2323   26.3224 C   0  0  0  0  0  0  0  0  0  0  0  0
    6.5756  -12.1868   26.0428 C   0  0  2  0  0  0  0  0  0  0  0  0
    5.4775  -11.9376   27.0433 C   0  0  0  0  0  0  0  0  0  0  0  0
    7.0591  -13.6017   26.0481 C   0  0  0  0  0  0  0  0  0  0  0  0
    8.0679  -13.9474   25.0084 C   0  0  2  0  0  0  0  0  0  0  0  0
    7.4336  -14.1192   23.7037 N   0  0  0  0  0  0  0  0  0  0  0  0
    8.7362  -15.2351   25.3289 C   0  0  0  0  0  0  0  0  0  0  0  0
    9.2574  -15.4843   26.4616 O   0  0  0  0  0  0  0  0  0  0  0  0
    8.8345  -16.2845   24.3701 N   0  0  0  0  0  0  0  0  0  0  0  0
    9.3664  -17.5714   24.7529 C   0  0  0  0  0  0  0  0  0  0  0  0
   10.8516  -17.5501   24.7709 C   0  0  0  0  0  0  0  0  0  0  0  0
   11.4512  -16.4889   24.5448 O   0  0  0  0  0  0  0  0  0  0  0  0
   11.6049  -18.6850   25.0340 O   0  0  0  0  0  0  0  0  0  0  0  0
  2  3  1  0
  2  1  1  6
  4  2  1  0
  4  5  1  6
  6  4  1  0
  6  7  2  0
  9 11  1  0
  9  8  1  1
 10  9  1  0
 12 11  1  1
 12 13  1  0
 13  6  1  0
 14 12  1  0
 15 14  2  0
 16 14  1  0
 17 16  1  0
 18 20  1  0
 18 17  1  0
 19 18  2  0
M  END
$$$$
