TLG.pdb
     RDKit          3D

 20 19  0  0  1  0  0  0  0  0999 V2000
    6.7125  -19.6840   22.5407 C   0  0  0  0  0  0  0  0  0  0  0  0
    7.2480  -18.3832   23.0528 C   0  0  1  0  0  0  0  0  0  0  0  0
    8.5796  -18.2782   22.6451 O   0  0  0  0  0  0  0  0  0  0  0  0
    6.5145  -17.1987   22.4761 C   0  0  2  0  0  0  0  0  0  0  0  0
    6.4928  -17.2820   21.0419 N   0  0  0  0  0  0  0  0  0  0  0  0
    7.0468  -15.9065   22.8949 C   0  0  0  0  0  0  0  0  0  0  0  0
    7.6752  -15.1924   22.0834 O   0  0  0  0  0  0  0  0  0  0  0  0
    6.1842  -11.9253   27.5676 C   0  0  0  0  0  0  0  0  0  0  0  0
    6.9871  -12.2733   26.3226 C   0  0  2  0  0  0  0  0  0  0  0  0
    6.8461  -11.1583   25.3198 C   0  0  0  0  0  0  0  0  0  0  0  0
    6.5604  -13.6007   25.7822 C   0  0  0  0  0  0  0  0  0  0  0  0
    7.3951  -14.1513   24.6784 C   0  0  2  0  0  0  0  0  0  0  0  0
    6.8678  -15.4328   24.2159 N   0  0  0  0  0  0  0  0  0  0  0  0
    8.7833  -14.4057   25.1429 C   0  0  0  0  0  0  0  0  0  0  0  0
    9.5263  -13.5015   25.6400 O   0  0  0  0  0  0  0  0  0  0  0  0
    9.3743  -15.6994   25.0573 N   0  0  0  0  0  0  0  0  0  0  0  0
   10.7384  -15.9051   25.4846 C   0  0  0  0  0  0  0  0  0  0  0  0
   11.1095  -17.3415   25.4090 C   0  0  0  0  0  0  0  0  0  0  0  0
   11.9973  -17.7038   24.6235 O   0  0  0  0  0  0  0  0  0  0  0  0
   10.4942  -18.3070   26.1927 O   0  0  0  0  0  0  0  0  0  0  0  0
  2  3  1  0
  2  1  1  6
  4  2  1  0
  4  5  1  6
  6  4  1  0
  6  7  2  0
  9 11  1  0
  9  8  1  1
 10  9  1  0
 12 11  1  1
 12 13  1  0
 13  6  1  0
 14 12  1  0
 15 14  2  0
 16 14  1  0
 17 16  1  0
 18 20  1  0
 18 17  1  0
 19 18  2  0
M  END
$$$$
