TLG.pdb
     RDKit          3D

 20 19  0  0  1  0  0  0  0  0999 V2000
    7.0649  -17.2596   21.8821 C   0  0  0  0  0  0  0  0  0  0  0  0
    7.7924  -16.2686   21.0277 C   0  0  1  0  0  0  0  0  0  0  0  0
    7.3624  -16.4419   19.7104 O   0  0  0  0  0  0  0  0  0  0  0  0
    7.4767  -14.8450   21.4120 C   0  0  2  0  0  0  0  0  0  0  0  0
    7.8264  -13.9551   20.3396 N   0  0  0  0  0  0  0  0  0  0  0  0
    8.1095  -14.4082   22.6520 C   0  0  0  0  0  0  0  0  0  0  0  0
    9.2576  -13.9134   22.6317 O   0  0  0  0  0  0  0  0  0  0  0  0
    7.7031  -11.2571   25.9629 C   0  0  0  0  0  0  0  0  0  0  0  0
    6.5464  -12.2422   25.8766 C   0  0  2  0  0  0  0  0  0  0  0  0
    5.4695  -11.8207   26.8416 C   0  0  0  0  0  0  0  0  0  0  0  0
    7.0310  -13.6363   26.1163 C   0  0  0  0  0  0  0  0  0  0  0  0
    8.0592  -14.1395   25.1635 C   0  0  2  0  0  0  0  0  0  0  0  0
    7.4476  -14.5319   23.8963 N   0  0  0  0  0  0  0  0  0  0  0  0
    8.7319  -15.3494   25.7034 C   0  0  0  0  0  0  0  0  0  0  0  0
    9.2965  -15.3805   26.8423 O   0  0  0  0  0  0  0  0  0  0  0  0
    8.7851  -16.5666   24.9647 N   0  0  0  0  0  0  0  0  0  0  0  0
    9.3745  -17.7475   25.5510 C   0  0  0  0  0  0  0  0  0  0  0  0
   10.8556  -17.7142   25.4416 C   0  0  0  0  0  0  0  0  0  0  0  0
   11.4085  -16.7378   24.9147 O   0  0  0  0  0  0  0  0  0  0  0  0
   11.6557  -18.7455   25.9115 O   0  0  0  0  0  0  0  0  0  0  0  0
  2  3  1  0
  2  1  1  1
  4  2  1  0
  4  5  1  6
  6  4  1  0
  6  7  2  0
  9 11  1  0
  9  8  1  1
 10  9  1  0
 12 11  1  1
 12 13  1  0
 13  6  1  0
 14 12  1  0
 15 14  2  0
 16 14  1  0
 17 16  1  0
 18 20  1  0
 18 17  1  0
 19 18  2  0
M  END
$$$$
