TLG.pdb
     RDKit          3D

 20 19  0  0  1  0  0  0  0  0999 V2000
    9.8600  -19.8375   20.1629 C   0  0  0  0  0  0  0  0  0  0  0  0
   10.4341  -19.5139   18.8187 C   0  0  1  0  0  0  0  0  0  0  0  0
   10.1202  -20.5652   17.9547 O   0  0  0  0  0  0  0  0  0  0  0  0
    9.8333  -18.2628   18.2290 C   0  0  2  0  0  0  0  0  0  0  0  0
   10.2294  -18.1254   16.8548 N   0  0  0  0  0  0  0  0  0  0  0  0
   10.1510  -17.0445   18.9662 C   0  0  0  0  0  0  0  0  0  0  0  0
   11.2693  -16.5016   18.8314 O   0  0  0  0  0  0  0  0  0  0  0  0
    8.7471  -12.6499   19.6456 C   0  0  0  0  0  0  0  0  0  0  0  0
    7.7571  -13.7286   20.0605 C   0  0  2  0  0  0  0  0  0  0  0  0
    6.4628  -13.0760   20.4701 C   0  0  0  0  0  0  0  0  0  0  0  0
    8.3429  -14.5870   21.1356 C   0  0  0  0  0  0  0  0  0  0  0  0
    9.5551  -15.3653   20.7572 C   0  0  2  0  0  0  0  0  0  0  0  0
    9.2122  -16.4521   19.8433 N   0  0  0  0  0  0  0  0  0  0  0  0
   10.1729  -15.9946   21.9531 C   0  0  0  0  0  0  0  0  0  0  0  0
    9.5105  -16.6682   22.8040 O   0  0  0  0  0  0  0  0  0  0  0  0
   11.5674  -15.8785   22.2216 N   0  0  0  0  0  0  0  0  0  0  0  0
   12.1371  -16.5061   23.3909 C   0  0  0  0  0  0  0  0  0  0  0  0
   13.5854  -16.1974   23.5090 C   0  0  0  0  0  0  0  0  0  0  0  0
   14.1797  -15.6756   22.5545 O   0  0  0  0  0  0  0  0  0  0  0  0
   14.3093  -16.4732   24.6599 O   0  0  0  0  0  0  0  0  0  0  0  0
  2  3  1  0
  2  1  1  1
  4  2  1  0
  4  5  1  6
  6  4  1  0
  6  7  2  0
  9 11  1  0
  9  8  1  1
 10  9  1  0
 12 11  1  1
 12 13  1  0
 13  6  1  0
 14 12  1  0
 15 14  2  0
 16 14  1  0
 17 16  1  0
 18 20  1  0
 18 17  1  0
 19 18  2  0
M  END
$$$$
