TLG.pdb
     RDKit          3D

 20 19  0  0  1  0  0  0  0  0999 V2000
    6.7171  -15.0783   19.2259 C   0  0  0  0  0  0  0  0  0  0  0  0
    7.2880  -15.0651   20.6098 C   0  0  1  0  0  0  0  0  0  0  0  0
    8.5315  -15.6994   20.5660 O   0  0  0  0  0  0  0  0  0  0  0  0
    7.5240  -13.6642   21.1154 C   0  0  2  0  0  0  0  0  0  0  0  0
    8.3115  -12.9240   20.1687 N   0  0  0  0  0  0  0  0  0  0  0  0
    8.1405  -13.6032   22.4363 C   0  0  0  0  0  0  0  0  0  0  0  0
    9.3138  -13.1906   22.5642 O   0  0  0  0  0  0  0  0  0  0  0  0
    7.7516  -11.2320   26.3343 C   0  0  0  0  0  0  0  0  0  0  0  0
    6.5540  -12.0931   25.9596 C   0  0  2  0  0  0  0  0  0  0  0  0
    5.4262  -11.8086   26.9167 C   0  0  0  0  0  0  0  0  0  0  0  0
    6.9409  -13.5371   25.9273 C   0  0  0  0  0  0  0  0  0  0  0  0
    7.9937  -13.9055   24.9403 C   0  0  2  0  0  0  0  0  0  0  0  0
    7.4343  -14.0051   23.5945 N   0  0  0  0  0  0  0  0  0  0  0  0
    8.5737  -15.2359   25.2590 C   0  0  0  0  0  0  0  0  0  0  0  0
    8.9984  -15.5495   26.4157 O   0  0  0  0  0  0  0  0  0  0  0  0
    8.6903  -16.2559   24.2711 N   0  0  0  0  0  0  0  0  0  0  0  0
    9.2904  -17.5263   24.6052 C   0  0  0  0  0  0  0  0  0  0  0  0
   10.7650  -17.4810   24.4319 C   0  0  0  0  0  0  0  0  0  0  0  0
   11.3099  -16.4182   24.1002 O   0  0  0  0  0  0  0  0  0  0  0  0
   11.5678  -18.5952   24.6289 O   0  0  0  0  0  0  0  0  0  0  0  0
  2  3  1  0
  2  1  1  6
  4  2  1  0
  4  5  1  6
  6  4  1  0
  6  7  2  0
  9 11  1  0
  9  8  1  1
 10  9  1  0
 12 11  1  1
 12 13  1  0
 13  6  1  0
 14 12  1  0
 15 14  2  0
 16 14  1  0
 17 16  1  0
 18 20  1  0
 18 17  1  0
 19 18  2  0
M  END
$$$$
