TLG.pdb
     RDKit          3D

 20 19  0  0  1  0  0  0  0  0999 V2000
    7.2036  -16.0493   20.4899 C   0  0  0  0  0  0  0  0  0  0  0  0
    7.9797  -14.9613   19.8153 C   0  0  1  0  0  0  0  0  0  0  0  0
    7.6119  -14.9451   18.4681 O   0  0  0  0  0  0  0  0  0  0  0  0
    7.6583  -13.5995   20.3776 C   0  0  2  0  0  0  0  0  0  0  0  0
    8.1361  -12.5743   19.4916 N   0  0  0  0  0  0  0  0  0  0  0  0
    8.1699  -13.3754   21.7254 C   0  0  0  0  0  0  0  0  0  0  0  0
    9.3115  -12.8937   21.8926 O   0  0  0  0  0  0  0  0  0  0  0  0
    5.7182  -12.4620   27.2969 C   0  0  0  0  0  0  0  0  0  0  0  0
    6.9997  -12.6920   26.5090 C   0  0  2  0  0  0  0  0  0  0  0  0
    7.9099  -11.5064   26.6950 C   0  0  0  0  0  0  0  0  0  0  0  0
    6.6858  -12.9663   25.0730 C   0  0  0  0  0  0  0  0  0  0  0  0
    7.8330  -13.4022   24.2291 C   0  0  2  0  0  0  0  0  0  0  0  0
    7.3959  -13.6939   22.8661 N   0  0  0  0  0  0  0  0  0  0  0  0
    8.4333  -14.6534   24.7599 C   0  0  0  0  0  0  0  0  0  0  0  0
    8.8895  -14.7580   25.9421 O   0  0  0  0  0  0  0  0  0  0  0  0
    8.5352  -15.8297   23.9624 N   0  0  0  0  0  0  0  0  0  0  0  0
    8.9712  -17.0732   24.5535 C   0  0  0  0  0  0  0  0  0  0  0  0
   10.4430  -17.2334   24.4326 C   0  0  0  0  0  0  0  0  0  0  0  0
   11.1194  -16.3203   23.9371 O   0  0  0  0  0  0  0  0  0  0  0  0
   11.1001  -18.3790   24.8574 O   0  0  0  0  0  0  0  0  0  0  0  0
  2  3  1  0
  2  1  1  1
  4  2  1  0
  4  5  1  6
  6  4  1  0
  6  7  2  0
  9 11  1  0
  9  8  1  1
 10  9  1  0
 12 11  1  1
 12 13  1  0
 13  6  1  0
 14 12  1  0
 15 14  2  0
 16 14  1  0
 17 16  1  0
 18 20  1  0
 18 17  1  0
 19 18  2  0
M  END
$$$$
