TLG.pdb
     RDKit          3D

 20 19  0  0  1  0  0  0  0  0999 V2000
    6.7922  -17.0236   20.4285 C   0  0  0  0  0  0  0  0  0  0  0  0
    7.3245  -16.6382   21.7736 C   0  0  1  0  0  0  0  0  0  0  0  0
    8.3983  -17.4815   22.0669 O   0  0  0  0  0  0  0  0  0  0  0  0
    7.8531  -15.2261   21.7937 C   0  0  2  0  0  0  0  0  0  0  0  0
    8.8233  -15.0473   20.7492 N   0  0  0  0  0  0  0  0  0  0  0  0
    8.4170  -14.8191   23.0763 C   0  0  0  0  0  0  0  0  0  0  0  0
    9.6449  -14.6099   23.1853 O   0  0  0  0  0  0  0  0  0  0  0  0
    7.9189  -11.3085   25.9796 C   0  0  0  0  0  0  0  0  0  0  0  0
    6.7239  -12.2474   25.9010 C   0  0  2  0  0  0  0  0  0  0  0  0
    5.5848  -11.6598   26.6923 C   0  0  0  0  0  0  0  0  0  0  0  0
    7.1074  -13.6176   26.3609 C   0  0  0  0  0  0  0  0  0  0  0  0
    8.1313  -14.3169   25.5357 C   0  0  2  0  0  0  0  0  0  0  0  0
    7.5980  -14.6523   24.2178 N   0  0  0  0  0  0  0  0  0  0  0  0
    8.5346  -15.5987   26.1698 C   0  0  0  0  0  0  0  0  0  0  0  0
    9.0195  -15.6711   27.3430 O   0  0  0  0  0  0  0  0  0  0  0  0
    8.3997  -16.8434   25.4895 N   0  0  0  0  0  0  0  0  0  0  0  0
    8.7169  -18.0794   26.1657 C   0  0  0  0  0  0  0  0  0  0  0  0
   10.1862  -18.2871   26.2348 C   0  0  0  0  0  0  0  0  0  0  0  0
   10.8575  -18.2617   25.1930 O   0  0  0  0  0  0  0  0  0  0  0  0
   10.8463  -18.5113   27.4343 O   0  0  0  0  0  0  0  0  0  0  0  0
  2  3  1  0
  2  1  1  6
  4  2  1  0
  4  5  1  6
  6  4  1  0
  6  7  2  0
  9 11  1  0
  9  8  1  1
 10  9  1  0
 12 11  1  1
 12 13  1  0
 13  6  1  0
 14 12  1  0
 15 14  2  0
 16 14  1  0
 17 16  1  0
 18 20  1  0
 18 17  1  0
 19 18  2  0
M  END
$$$$
