TLG.pdb
     RDKit          3D

 20 19  0  0  1  0  0  0  0  0999 V2000
   10.0771  -19.4159   16.4274 C   0  0  0  0  0  0  0  0  0  0  0  0
   10.3219  -18.4900   17.5780 C   0  0  1  0  0  0  0  0  0  0  0  0
   11.5236  -18.8661   18.1821 O   0  0  0  0  0  0  0  0  0  0  0  0
   10.4800  -17.0579   17.1331 C   0  0  2  0  0  0  0  0  0  0  0  0
   11.5155  -16.9605   16.1419 N   0  0  0  0  0  0  0  0  0  0  0  0
   10.7381  -16.1209   18.2211 C   0  0  0  0  0  0  0  0  0  0  0  0
   11.8196  -15.4952   18.2688 O   0  0  0  0  0  0  0  0  0  0  0  0
    8.7497  -12.2080   19.2815 C   0  0  0  0  0  0  0  0  0  0  0  0
    7.9396  -13.4631   19.5720 C   0  0  2  0  0  0  0  0  0  0  0  0
    6.5346  -13.0658   19.9420 C   0  0  0  0  0  0  0  0  0  0  0  0
    8.6105  -14.2833   20.6270 C   0  0  0  0  0  0  0  0  0  0  0  0
    9.9325  -14.8612   20.2576 C   0  0  2  0  0  0  0  0  0  0  0  0
    9.7818  -15.8981   19.2397 N   0  0  0  0  0  0  0  0  0  0  0  0
   10.5724  -15.5084   21.4321 C   0  0  0  0  0  0  0  0  0  0  0  0
   10.8274  -14.8895   22.5131 O   0  0  0  0  0  0  0  0  0  0  0  0
   10.9444  -16.8837   21.4164 N   0  0  0  0  0  0  0  0  0  0  0  0
   11.3489  -17.5413   22.6369 C   0  0  0  0  0  0  0  0  0  0  0  0
   12.8202  -17.4590   22.8240 C   0  0  0  0  0  0  0  0  0  0  0  0
   13.5105  -16.8560   21.9895 O   0  0  0  0  0  0  0  0  0  0  0  0
   13.4616  -18.0377   23.9096 O   0  0  0  0  0  0  0  0  0  0  0  0
  2  3  1  0
  2  1  1  6
  4  2  1  0
  4  5  1  6
  6  4  1  0
  6  7  2  0
  9 11  1  0
  9  8  1  1
 10  9  1  0
 12 11  1  1
 12 13  1  0
 13  6  1  0
 14 12  1  0
 15 14  2  0
 16 14  1  0
 17 16  1  0
 18 20  1  0
 18 17  1  0
 19 18  2  0
M  END
$$$$
