TLG.pdb
     RDKit          3D

 20 19  0  0  1  0  0  0  0  0999 V2000
    6.6083  -17.4728   21.5049 C   0  0  0  0  0  0  0  0  0  0  0  0
    7.7820  -17.0716   20.6666 C   0  0  1  0  0  0  0  0  0  0  0  0
    7.4629  -17.3298   19.3317 O   0  0  0  0  0  0  0  0  0  0  0  0
    8.0803  -15.5972   20.7726 C   0  0  2  0  0  0  0  0  0  0  0  0
    9.0786  -15.2251   19.8087 N   0  0  0  0  0  0  0  0  0  0  0  0
    8.4857  -15.1656   22.1059 C   0  0  0  0  0  0  0  0  0  0  0  0
    9.6662  -15.3242   22.4863 O   0  0  0  0  0  0  0  0  0  0  0  0
    5.7746  -12.3426   26.9425 C   0  0  0  0  0  0  0  0  0  0  0  0
    7.0632  -12.9288   26.3843 C   0  0  2  0  0  0  0  0  0  0  0  0
    8.1921  -11.9647   26.6392 C   0  0  0  0  0  0  0  0  0  0  0  0
    6.8983  -13.2637   24.9363 C   0  0  0  0  0  0  0  0  0  0  0  0
    7.9026  -14.2061   24.3691 C   0  0  2  0  0  0  0  0  0  0  0  0
    7.5636  -14.5629   22.9937 N   0  0  0  0  0  0  0  0  0  0  0  0
    7.9319  -15.4745   25.1423 C   0  0  0  0  0  0  0  0  0  0  0  0
    6.8906  -16.1603   25.3918 O   0  0  0  0  0  0  0  0  0  0  0  0
    9.1486  -16.0064   25.6588 N   0  0  0  0  0  0  0  0  0  0  0  0
    9.1603  -17.2965   26.3079 C   0  0  0  0  0  0  0  0  0  0  0  0
    9.9298  -17.2471   27.5776 C   0  0  0  0  0  0  0  0  0  0  0  0
   10.0297  -18.2686   28.2727 O   0  0  0  0  0  0  0  0  0  0  0  0
   10.5494  -16.0884   28.0228 O   0  0  0  0  0  0  0  0  0  0  0  0
  2  3  1  0
  2  1  1  1
  4  2  1  0
  4  5  1  6
  6  4  1  0
  6  7  2  0
  9 11  1  0
  9  8  1  6
 10  9  1  0
 12 11  1  1
 12 13  1  0
 13  6  1  0
 14 12  1  0
 15 14  2  0
 16 14  1  0
 17 16  1  0
 18 20  1  0
 18 17  1  0
 19 18  2  0
M  END
$$$$
