NHK.pdb
     RDKit          3D

 28 28  0  0  1  0  0  0  0  0999 V2000
   28.0561  -29.7214  -17.3280 N   0  0  0  0  0  0  0  0  0  0  0  0
   28.3445  -30.0177  -15.9689 C   0  0  0  0  0  0  0  0  0  0  0  0
   29.0732  -29.2337  -15.3349 O   0  0  0  0  0  0  0  0  0  0  0  0
   27.7930  -31.2201  -15.3343 C   0  0  0  0  0  0  0  0  0  0  0  0
   26.9461  -32.0305  -16.2417 C   0  0  2  0  0  0  0  0  0  0  0  0
   25.5667  -32.1169  -15.7732 N   0  0  0  0  0  0  0  0  0  0  0  0
   27.4723  -33.3691  -16.6042 C   0  0  0  0  0  0  0  0  0  0  0  0
   26.8022  -34.2701  -17.1635 O   0  0  0  0  0  0  0  0  0  0  0  0
   28.8350  -33.7221  -16.3228 N   0  0  0  0  0  0  0  0  0  0  0  0
   29.3704  -35.0664  -16.7521 C   0  0  1  0  0  0  0  0  0  0  0  0
   30.7986  -34.8111  -17.0664 C   0  0  0  0  0  0  0  0  0  0  0  0
   31.2008  -34.5667  -18.4363 C   0  0  0  0  0  0  0  0  0  0  0  0
   30.2768  -34.7520  -19.4831 C   0  0  0  0  0  0  0  0  0  0  0  0
   30.8653  -34.4652  -20.6511 N   0  0  0  0  0  0  0  0  0  0  0  0
   32.1278  -34.1045  -20.3889 C   0  0  0  0  0  0  0  0  0  0  0  0
   32.2989  -34.1746  -19.0618 N   0  0  0  0  0  0  0  0  0  0  0  0
   29.1235  -35.9905  -15.6224 C   0  0  0  0  0  0  0  0  0  0  0  0
   29.6157  -35.7203  -14.4683 O   0  0  0  0  0  0  0  0  0  0  0  0
   28.3685  -37.1731  -15.6991 N   0  0  0  0  0  0  0  0  0  0  0  0
   28.0960  -37.9378  -14.4632 C   0  0  1  0  0  0  0  0  0  0  0  0
   27.5042  -36.9740  -13.4678 C   0  0  0  0  0  0  0  0  0  0  0  0
   27.0225  -37.6137  -12.2087 C   0  0  0  0  0  0  0  0  0  0  0  0
   26.5348  -36.5535  -11.2668 C   0  0  0  0  0  0  0  0  0  0  0  0
   26.0757  -37.1144   -9.9356 C   0  0  0  0  0  0  0  0  0  0  0  0
   25.6333  -36.0531   -9.0683 N   0  0  0  0  0  0  0  0  0  0  0  0
   27.2320  -39.0964  -14.7604 C   0  0  0  0  0  0  0  0  0  0  0  0
   26.5531  -39.2296  -15.8035 O   0  0  0  0  0  0  0  0  0  0  0  0
   27.1486  -40.1297  -13.8293 O   0  0  0  0  0  0  0  0  0  0  0  0
  2  1  1  0
  2  3  2  0
  4  5  1  0
  4  2  1  0
  5  7  1  0
  5  6  1  1
  7  8  2  0
  9 10  1  0
  9  7  1  0
 11 12  1  0
 10 11  1  1
 12 16  1  0
 13 14  1  0
 13 12  2  0
 14 15  1  0
 15 16  2  0
 17 18  2  0
 17 10  1  0
 19 17  1  0
 20 19  1  0
 20 26  1  0
 20 21  1  1
 22 21  1  0
 23 22  1  0
 24 25  1  0
 24 23  1  0
 26 28  1  0
 27 26  2  0
M  END
$$$$
