NHK.pdb
     RDKit          3D

 28 28  0  0  1  0  0  0  0  0999 V2000
   15.7754  -15.1193  -16.2551 N   0  0  0  0  0  0  0  0  0  0  0  0
   17.1667  -14.8323  -16.2549 C   0  0  0  0  0  0  0  0  0  0  0  0
   17.9118  -15.5191  -16.9765 O   0  0  0  0  0  0  0  0  0  0  0  0
   17.7052  -13.7509  -15.4223 C   0  0  0  0  0  0  0  0  0  0  0  0
   18.0697  -12.5384  -16.1931 C   0  0  2  0  0  0  0  0  0  0  0  0
   19.1384  -12.7988  -17.1522 N   0  0  0  0  0  0  0  0  0  0  0  0
   18.3512  -11.3188  -15.3972 C   0  0  0  0  0  0  0  0  0  0  0  0
   17.6856  -10.9501  -14.3998 O   0  0  0  0  0  0  0  0  0  0  0  0
   19.4467  -10.4566  -15.7393 N   0  0  0  0  0  0  0  0  0  0  0  0
   19.6677   -9.1761  -14.9713 C   0  0  1  0  0  0  0  0  0  0  0  0
   21.1331   -8.9506  -15.0444 C   0  0  0  0  0  0  0  0  0  0  0  0
   21.6796   -7.6552  -14.6961 C   0  0  0  0  0  0  0  0  0  0  0  0
   21.8613   -7.3108  -13.3425 C   0  0  0  0  0  0  0  0  0  0  0  0
   22.3783   -6.0781  -13.2633 N   0  0  0  0  0  0  0  0  0  0  0  0
   22.5328   -5.6244  -14.5135 C   0  0  0  0  0  0  0  0  0  0  0  0
   22.1082   -6.5850  -15.3456 N   0  0  0  0  0  0  0  0  0  0  0  0
   18.8326   -8.1478  -15.6317 C   0  0  0  0  0  0  0  0  0  0  0  0
   18.7464   -8.1331  -16.9122 O   0  0  0  0  0  0  0  0  0  0  0  0
   18.0953   -7.1567  -14.9620 N   0  0  0  0  0  0  0  0  0  0  0  0
   17.3921   -6.1224  -15.7507 C   0  0  1  0  0  0  0  0  0  0  0  0
   15.9364   -6.1872  -15.3675 C   0  0  0  0  0  0  0  0  0  0  0  0
   15.0996   -5.1017  -15.9575 C   0  0  0  0  0  0  0  0  0  0  0  0
   13.6700   -5.2974  -15.5488 C   0  0  0  0  0  0  0  0  0  0  0  0
   12.7409   -4.2554  -16.1390 C   0  0  0  0  0  0  0  0  0  0  0  0
   11.3667   -4.6116  -15.8961 N   0  0  0  0  0  0  0  0  0  0  0  0
   18.0113   -4.8018  -15.5271 C   0  0  0  0  0  0  0  0  0  0  0  0
   18.5440   -4.4374  -14.4547 O   0  0  0  0  0  0  0  0  0  0  0  0
   18.0162   -3.8762  -16.5685 O   0  0  0  0  0  0  0  0  0  0  0  0
  2  1  1  0
  2  3  2  0
  4  5  1  0
  4  2  1  0
  5  7  1  0
  5  6  1  1
  7  8  2  0
  9 10  1  0
  9  7  1  0
 11 12  1  0
 10 11  1  6
 12 16  1  0
 13 14  1  0
 13 12  2  0
 14 15  1  0
 15 16  2  0
 17 18  2  0
 17 10  1  0
 19 17  1  0
 20 19  1  0
 20 26  1  0
 20 21  1  1
 22 21  1  0
 23 22  1  0
 24 25  1  0
 24 23  1  0
 26 28  1  0
 27 26  2  0
M  END
$$$$
