NHK.pdb
     RDKit          3D

 28 28  0  0  1  0  0  0  0  0999 V2000
   25.2605  -14.5206  -15.5137 N   0  0  0  0  0  0  0  0  0  0  0  0
   25.8875  -13.2573  -15.6835 C   0  0  0  0  0  0  0  0  0  0  0  0
   27.1165  -13.1791  -15.5071 O   0  0  0  0  0  0  0  0  0  0  0  0
   25.0995  -12.0777  -16.0579 C   0  0  0  0  0  0  0  0  0  0  0  0
   23.6496  -12.3549  -16.1918 C   0  0  2  0  0  0  0  0  0  0  0  0
   23.3757  -13.3634  -17.2105 N   0  0  0  0  0  0  0  0  0  0  0  0
   22.7714  -11.1716  -16.3614 C   0  0  0  0  0  0  0  0  0  0  0  0
   22.4643  -10.6654  -17.4674 O   0  0  0  0  0  0  0  0  0  0  0  0
   22.2007  -10.5126  -15.2210 N   0  0  0  0  0  0  0  0  0  0  0  0
   21.2141   -9.3869  -15.4152 C   0  0  1  0  0  0  0  0  0  0  0  0
   20.0299   -9.7928  -14.6173 C   0  0  0  0  0  0  0  0  0  0  0  0
   19.1037  -10.7700  -15.1511 C   0  0  0  0  0  0  0  0  0  0  0  0
   18.2583  -10.4237  -16.2232 C   0  0  0  0  0  0  0  0  0  0  0  0
   17.4985  -11.4774  -16.5481 N   0  0  0  0  0  0  0  0  0  0  0  0
   17.8272  -12.4808  -15.7248 C   0  0  0  0  0  0  0  0  0  0  0  0
   18.7855  -12.0303  -14.9038 N   0  0  0  0  0  0  0  0  0  0  0  0
   21.8962   -8.1550  -14.9590 C   0  0  0  0  0  0  0  0  0  0  0  0
   22.5765   -8.1776  -13.8710 O   0  0  0  0  0  0  0  0  0  0  0  0
   21.8714   -6.9231  -15.6344 N   0  0  0  0  0  0  0  0  0  0  0  0
   22.5692   -5.7610  -15.0436 C   0  0  1  0  0  0  0  0  0  0  0  0
   22.9316   -4.8386  -16.1784 C   0  0  0  0  0  0  0  0  0  0  0  0
   23.9983   -5.3661  -17.0788 C   0  0  0  0  0  0  0  0  0  0  0  0
   24.2545   -4.3791  -18.1784 C   0  0  0  0  0  0  0  0  0  0  0  0
   25.2745   -4.8714  -19.1857 C   0  0  0  0  0  0  0  0  0  0  0  0
   25.4227   -3.9204  -20.2571 N   0  0  0  0  0  0  0  0  0  0  0  0
   21.7268   -5.1328  -14.0078 C   0  0  0  0  0  0  0  0  0  0  0  0
   20.4881   -5.2828  -13.9097 O   0  0  0  0  0  0  0  0  0  0  0  0
   22.3293   -4.3090  -13.0593 O   0  0  0  0  0  0  0  0  0  0  0  0
  2  1  1  0
  2  3  2  0
  4  5  1  0
  4  2  1  0
  5  7  1  0
  5  6  1  6
  7  8  2  0
  9 10  1  0
  9  7  1  0
 11 12  1  0
 10 11  1  1
 12 16  1  0
 13 14  1  0
 13 12  2  0
 14 15  1  0
 15 16  2  0
 17 18  2  0
 17 10  1  0
 19 17  1  0
 20 19  1  0
 20 26  1  0
 20 21  1  6
 22 21  1  0
 23 22  1  0
 24 25  1  0
 24 23  1  0
 26 28  1  0
 27 26  2  0
M  END
$$$$
