NHK.pdb
     RDKit          3D

 28 28  0  0  1  0  0  0  0  0999 V2000
   18.2222  -23.3393    3.9811 N   0  0  0  0  0  0  0  0  0  0  0  0
   17.4525  -22.3398    4.6342 C   0  0  0  0  0  0  0  0  0  0  0  0
   16.5027  -22.7004    5.3522 O   0  0  0  0  0  0  0  0  0  0  0  0
   17.7750  -20.9188    4.4622 C   0  0  0  0  0  0  0  0  0  0  0  0
   16.7605  -20.1741    3.6790 C   0  0  2  0  0  0  0  0  0  0  0  0
   16.4923  -20.8034    2.3899 N   0  0  0  0  0  0  0  0  0  0  0  0
   16.9949  -18.7176    3.5244 C   0  0  0  0  0  0  0  0  0  0  0  0
   17.4567  -18.1765    2.4912 O   0  0  0  0  0  0  0  0  0  0  0  0
   16.6936  -17.8089    4.5940 N   0  0  0  0  0  0  0  0  0  0  0  0
   16.8320  -16.3209    4.3816 C   0  0  1  0  0  0  0  0  0  0  0  0
   15.4339  -15.8261    4.3175 C   0  0  0  0  0  0  0  0  0  0  0  0
   15.1766  -14.4014    4.2731 C   0  0  0  0  0  0  0  0  0  0  0  0
   15.4283  -13.6790    3.0903 C   0  0  0  0  0  0  0  0  0  0  0  0
   15.1154  -12.3911    3.2812 N   0  0  0  0  0  0  0  0  0  0  0  0
   14.6745  -12.2654    4.5392 C   0  0  0  0  0  0  0  0  0  0  0  0
   14.7222  -13.4788    5.1056 N   0  0  0  0  0  0  0  0  0  0  0  0
   17.6344  -15.8134    5.5172 C   0  0  0  0  0  0  0  0  0  0  0  0
   17.7843  -16.5462    6.5601 O   0  0  0  0  0  0  0  0  0  0  0  0
   18.2742  -14.5630    5.5564 N   0  0  0  0  0  0  0  0  0  0  0  0
   18.9949  -14.1581    6.7825 C   0  0  1  0  0  0  0  0  0  0  0  0
   19.8764  -12.9934    6.4135 C   0  0  0  0  0  0  0  0  0  0  0  0
   20.6787  -12.4498    7.5481 C   0  0  0  0  0  0  0  0  0  0  0  0
   21.4268  -11.2331    7.0909 C   0  0  0  0  0  0  0  0  0  0  0  0
   22.1615  -10.5354    8.2182 C   0  0  0  0  0  0  0  0  0  0  0  0
   22.8432   -9.3660    7.7263 N   0  0  0  0  0  0  0  0  0  0  0  0
   18.0354  -13.8631    7.8640 C   0  0  0  0  0  0  0  0  0  0  0  0
   16.8711  -13.4391    7.6872 O   0  0  0  0  0  0  0  0  0  0  0  0
   18.4294  -14.0626    9.1855 O   0  0  0  0  0  0  0  0  0  0  0  0
  2  1  1  0
  2  3  2  0
  4  5  1  0
  4  2  1  0
  5  7  1  0
  5  6  1  6
  7  8  2  0
  9 10  1  0
  9  7  1  0
 11 12  1  0
 10 11  1  1
 12 16  1  0
 13 14  1  0
 13 12  2  0
 14 15  1  0
 15 16  2  0
 17 18  2  0
 17 10  1  0
 19 17  1  0
 20 19  1  0
 20 26  1  0
 20 21  1  6
 22 21  1  0
 23 22  1  0
 24 25  1  0
 24 23  1  0
 26 28  1  0
 27 26  2  0
M  END
$$$$
