NHK.pdb
     RDKit          3D

 28 28  0  0  1  0  0  0  0  0999 V2000
   23.5660  -12.9010  -20.1008 N   0  0  0  0  0  0  0  0  0  0  0  0
   22.7329  -12.0003  -20.8170 C   0  0  0  0  0  0  0  0  0  0  0  0
   22.8870  -11.9042  -22.0477 O   0  0  0  0  0  0  0  0  0  0  0  0
   21.7174  -11.2061  -20.1166 C   0  0  0  0  0  0  0  0  0  0  0  0
   21.6631  -11.4709  -18.6591 C   0  0  2  0  0  0  0  0  0  0  0  0
   21.2210  -12.8301  -18.3647 N   0  0  0  0  0  0  0  0  0  0  0  0
   20.9221  -10.4789  -17.8424 C   0  0  0  0  0  0  0  0  0  0  0  0
   20.4091   -9.4265  -18.2928 O   0  0  0  0  0  0  0  0  0  0  0  0
   20.7439  -10.6770  -16.4318 N   0  0  0  0  0  0  0  0  0  0  0  0
   19.9421   -9.6844  -15.6256 C   0  0  1  0  0  0  0  0  0  0  0  0
   19.5329  -10.4383  -14.4141 C   0  0  0  0  0  0  0  0  0  0  0  0
   18.8110   -9.7621  -13.3560 C   0  0  0  0  0  0  0  0  0  0  0  0
   18.4264   -8.4167  -13.5172 C   0  0  0  0  0  0  0  0  0  0  0  0
   17.7737   -8.0070  -12.4221 N   0  0  0  0  0  0  0  0  0  0  0  0
   17.7279   -9.0389  -11.5702 C   0  0  0  0  0  0  0  0  0  0  0  0
   18.3537  -10.0703  -12.1533 N   0  0  0  0  0  0  0  0  0  0  0  0
   20.8356   -8.5293  -15.3839 C   0  0  0  0  0  0  0  0  0  0  0  0
   22.0502   -8.7364  -15.0252 O   0  0  0  0  0  0  0  0  0  0  0  0
   20.4647   -7.1810  -15.5224 N   0  0  0  0  0  0  0  0  0  0  0  0
   21.4650   -6.1253  -15.2554 C   0  0  1  0  0  0  0  0  0  0  0  0
   21.3225   -5.0948  -16.3451 C   0  0  0  0  0  0  0  0  0  0  0  0
   22.2475   -3.9314  -16.2117 C   0  0  0  0  0  0  0  0  0  0  0  0
   22.0136   -2.9771  -17.3447 C   0  0  0  0  0  0  0  0  0  0  0  0
   23.0167   -1.8412  -17.3744 C   0  0  0  0  0  0  0  0  0  0  0  0
   22.8242   -1.0309  -18.5494 N   0  0  0  0  0  0  0  0  0  0  0  0
   21.2854   -5.5852  -13.8940 C   0  0  0  0  0  0  0  0  0  0  0  0
   20.1946   -5.5462  -13.2815 O   0  0  0  0  0  0  0  0  0  0  0  0
   22.3940   -5.0762  -13.2207 O   0  0  0  0  0  0  0  0  0  0  0  0
  2  1  1  0
  2  3  2  0
  4  5  1  0
  4  2  1  0
  5  7  1  0
  5  6  1  6
  7  8  2  0
  9 10  1  0
  9  7  1  0
 11 12  1  0
 10 11  1  1
 12 16  1  0
 13 14  1  0
 13 12  2  0
 14 15  1  0
 15 16  2  0
 17 18  2  0
 17 10  1  0
 19 17  1  0
 20 19  1  0
 20 26  1  0
 20 21  1  6
 22 21  1  0
 23 22  1  0
 24 25  1  0
 24 23  1  0
 26 28  1  0
 27 26  2  0
M  END
$$$$
