NHK.pdb
     RDKit          3D

 28 28  0  0  1  0  0  0  0  0999 V2000
   30.7631  -23.2678  -17.9054 N   0  0  0  0  0  0  0  0  0  0  0  0
   29.4447  -22.7814  -17.6969 C   0  0  0  0  0  0  0  0  0  0  0  0
   28.8314  -22.3018  -18.6673 O   0  0  0  0  0  0  0  0  0  0  0  0
   28.8272  -22.8461  -16.3676 C   0  0  0  0  0  0  0  0  0  0  0  0
   27.7491  -21.8485  -16.1687 C   0  0  2  0  0  0  0  0  0  0  0  0
   28.2108  -20.4858  -16.4127 N   0  0  0  0  0  0  0  0  0  0  0  0
   27.0032  -21.9393  -14.8897 C   0  0  0  0  0  0  0  0  0  0  0  0
   26.6655  -23.0137  -14.3371 O   0  0  0  0  0  0  0  0  0  0  0  0
   26.6100  -20.7525  -14.1844 N   0  0  0  0  0  0  0  0  0  0  0  0
   25.8957  -20.8638  -12.8594 C   0  0  1  0  0  0  0  0  0  0  0  0
   26.7183  -20.0520  -11.9278 C   0  0  0  0  0  0  0  0  0  0  0  0
   27.9021  -20.6288  -11.3245 C   0  0  0  0  0  0  0  0  0  0  0  0
   29.1314  -20.5868  -12.0108 C   0  0  0  0  0  0  0  0  0  0  0  0
   30.0769  -21.1720  -11.2648 N   0  0  0  0  0  0  0  0  0  0  0  0
   29.4976  -21.5850  -10.1305 C   0  0  0  0  0  0  0  0  0  0  0  0
   28.2023  -21.2479  -10.1943 N   0  0  0  0  0  0  0  0  0  0  0  0
   24.5194  -20.3692  -13.0880 C   0  0  0  0  0  0  0  0  0  0  0  0
   24.2975  -19.5437  -14.0453 O   0  0  0  0  0  0  0  0  0  0  0  0
   23.3945  -20.7385  -12.3313 N   0  0  0  0  0  0  0  0  0  0  0  0
   22.0432  -20.5003  -12.8823 C   0  0  1  0  0  0  0  0  0  0  0  0
   21.8776  -21.4221  -14.0625 C   0  0  0  0  0  0  0  0  0  0  0  0
   20.5252  -21.3742  -14.6913 C   0  0  0  0  0  0  0  0  0  0  0  0
   20.4849  -22.3162  -15.8575 C   0  0  0  0  0  0  0  0  0  0  0  0
   19.1262  -22.3659  -16.5275 C   0  0  0  0  0  0  0  0  0  0  0  0
   18.8621  -21.1316  -17.2211 N   0  0  0  0  0  0  0  0  0  0  0  0
   21.0241  -20.6852  -11.8313 C   0  0  0  0  0  0  0  0  0  0  0  0
   21.2546  -21.1380  -10.6875 O   0  0  0  0  0  0  0  0  0  0  0  0
   19.7030  -20.3383  -12.1070 O   0  0  0  0  0  0  0  0  0  0  0  0
  2  1  1  0
  2  3  2  0
  4  5  1  0
  4  2  1  0
  5  7  1  0
  5  6  1  1
  7  8  2  0
  9 10  1  0
  9  7  1  0
 11 12  1  0
 10 11  1  1
 12 16  1  0
 13 14  1  0
 13 12  2  0
 14 15  1  0
 15 16  2  0
 17 18  2  0
 17 10  1  0
 19 17  1  0
 20 19  1  0
 20 26  1  0
 20 21  1  6
 22 21  1  0
 23 22  1  0
 24 25  1  0
 24 23  1  0
 26 28  1  0
 27 26  2  0
M  END
$$$$
