VIP.pdb
     RDKit          3D

 23 23  0  0  1  0  0  0  0  0999 V2000
   21.2458  -17.7085  -16.2177 C   0  0  0  0  0  0  0  0  0  0  0  0
   22.4520  -18.4888  -15.7602 C   0  0  2  0  0  0  0  0  0  0  0  0
   22.0189  -19.8934  -15.4687 C   0  0  0  0  0  0  0  0  0  0  0  0
   23.1087  -17.8327  -14.5752 C   0  0  2  0  0  0  0  0  0  0  0  0
   23.4826  -16.4826  -14.8585 N   0  0  0  0  0  0  0  0  0  0  0  0
   24.2531  -18.6239  -14.0534 C   0  0  0  0  0  0  0  0  0  0  0  0
   25.4122  -18.4010  -14.4818 O   0  0  0  0  0  0  0  0  0  0  0  0
   25.9343  -19.9064   -9.1315 C   0  0  0  0  0  0  0  0  0  0  0  0
   24.8465  -19.6423  -10.2008 C   0  0  0  0  0  0  0  0  0  0  0  0
   24.8731  -20.7807  -11.1341 C   0  0  2  0  0  0  0  0  0  0  0  0
   25.7826  -21.9072  -10.6641 C   0  0  0  0  0  0  0  0  0  0  0  0
   25.2056  -20.4632  -12.5842 C   0  0  2  0  0  0  0  0  0  0  0  0
   24.0744  -19.6266  -13.0825 N   0  0  0  0  0  0  0  0  0  0  0  0
   25.2038  -21.6427  -13.4722 C   0  0  0  0  0  0  0  0  0  0  0  0
   24.1442  -22.3413  -13.5844 O   0  0  0  0  0  0  0  0  0  0  0  0
   26.3155  -22.0725  -14.2400 N   0  0  0  0  0  0  0  0  0  0  0  0
   27.6554  -21.5162  -14.1447 C   0  0  0  0  0  0  0  0  0  0  0  0
   28.1256  -21.5679  -15.6002 C   0  0  0  0  0  0  0  0  0  0  0  0
   27.6270  -22.9166  -16.0148 C   0  0  0  0  0  0  0  0  0  0  0  0
   26.3488  -23.1066  -15.2627 C   0  0  1  0  0  0  0  0  0  0  0  0
   26.2862  -24.4401  -14.6171 C   0  0  0  0  0  0  0  0  0  0  0  0
   26.5264  -24.6039  -13.3973 O   0  0  0  0  0  0  0  0  0  0  0  0
   25.9514  -25.5375  -15.3889 O   0  0  0  0  0  0  0  0  0  0  0  0
  2  1  1  1
  2  3  1  0
  4  6  1  0
  4  2  1  0
  4  5  1  6
  6  7  2  0
  9  8  1  0
 10  9  1  0
 10 12  1  0
 10 11  1  1
 12 14  1  0
 13  6  1  0
 12 13  1  6
 14 16  1  0
 14 15  2  0
 16 17  1  0
 18 17  1  0
 19 18  1  0
 20 16  1  0
 20 19  1  0
 20 21  1  1
 22 21  2  0
 23 21  1  0
M  END
$$$$
