VIP.pdb
     RDKit          3D

 23 23  0  0  1  0  0  0  0  0999 V2000
   24.7063  -16.3725  -16.4838 C   0  0  0  0  0  0  0  0  0  0  0  0
   25.1483  -17.5801  -15.6968 C   0  0  2  0  0  0  0  0  0  0  0  0
   23.9250  -18.3023  -15.2198 C   0  0  0  0  0  0  0  0  0  0  0  0
   26.0621  -17.1898  -14.5661 C   0  0  2  0  0  0  0  0  0  0  0  0
   27.2122  -16.4830  -15.0360 N   0  0  0  0  0  0  0  0  0  0  0  0
   26.4369  -18.3495  -13.7162 C   0  0  0  0  0  0  0  0  0  0  0  0
   27.3384  -19.1363  -14.0970 O   0  0  0  0  0  0  0  0  0  0  0  0
   26.4099  -17.6873   -8.4428 C   0  0  0  0  0  0  0  0  0  0  0  0
   26.9729  -18.3038   -9.7463 C   0  0  0  0  0  0  0  0  0  0  0  0
   26.0026  -19.3135  -10.2007 C   0  0  2  0  0  0  0  0  0  0  0  0
   25.9568  -20.5364   -9.2955 C   0  0  0  0  0  0  0  0  0  0  0  0
   26.1342  -19.7827  -11.6418 C   0  0  2  0  0  0  0  0  0  0  0  0
   25.8045  -18.5950  -12.4834 N   0  0  0  0  0  0  0  0  0  0  0  0
   25.1354  -20.7960  -12.0363 C   0  0  0  0  0  0  0  0  0  0  0  0
   23.8958  -20.5053  -11.9909 O   0  0  0  0  0  0  0  0  0  0  0  0
   25.4508  -22.1044  -12.4822 N   0  0  0  0  0  0  0  0  0  0  0  0
   26.7967  -22.6446  -12.5857 C   0  0  0  0  0  0  0  0  0  0  0  0
   26.6960  -23.5109  -13.8433 C   0  0  0  0  0  0  0  0  0  0  0  0
   25.3662  -24.1651  -13.6349 C   0  0  0  0  0  0  0  0  0  0  0  0
   24.5340  -23.1395  -12.9342 C   0  0  1  0  0  0  0  0  0  0  0  0
   23.8252  -23.7145  -11.7655 C   0  0  0  0  0  0  0  0  0  0  0  0
   24.3066  -23.6784  -10.6081 O   0  0  0  0  0  0  0  0  0  0  0  0
   22.5927  -24.3096  -11.9620 O   0  0  0  0  0  0  0  0  0  0  0  0
  2  1  1  1
  2  3  1  0
  4  6  1  0
  4  2  1  0
  4  5  1  6
  6  7  2  0
  9  8  1  0
 10  9  1  0
 10 12  1  0
 10 11  1  1
 12 14  1  0
 13  6  1  0
 12 13  1  6
 14 16  1  0
 14 15  2  0
 16 17  1  0
 18 17  1  0
 19 18  1  0
 20 16  1  0
 20 19  1  0
 20 21  1  1
 22 21  2  0
 23 21  1  0
M  END
$$$$
