VIP.pdb
     RDKit          3D

 23 23  0  0  1  0  0  0  0  0999 V2000
   44.4098   -8.3133   -6.3319 C   0  0  0  0  0  0  0  0  0  0  0  0
   43.6764   -9.3158   -5.4775 C   0  0  2  0  0  0  0  0  0  0  0  0
   44.5871   -9.7396   -4.3656 C   0  0  0  0  0  0  0  0  0  0  0  0
   43.1915  -10.4808   -6.2983 C   0  0  2  0  0  0  0  0  0  0  0  0
   44.2760  -11.1904   -6.9011 N   0  0  0  0  0  0  0  0  0  0  0  0
   42.1701  -10.0800   -7.3002 C   0  0  0  0  0  0  0  0  0  0  0  0
   42.4739  -10.0377   -8.5179 O   0  0  0  0  0  0  0  0  0  0  0  0
   37.0422  -11.2643   -6.1203 C   0  0  0  0  0  0  0  0  0  0  0  0
   38.2386  -11.1421   -7.0951 C   0  0  0  0  0  0  0  0  0  0  0  0
   38.4863   -9.7048   -7.2966 C   0  0  2  0  0  0  0  0  0  0  0  0
   37.3782   -9.0204   -8.0845 C   0  0  0  0  0  0  0  0  0  0  0  0
   39.8242   -9.3254   -7.9134 C   0  0  2  0  0  0  0  0  0  0  0  0
   40.8577   -9.7428   -6.9208 N   0  0  0  0  0  0  0  0  0  0  0  0
   40.0266   -7.8702   -8.0585 C   0  0  0  0  0  0  0  0  0  0  0  0
   40.1641   -7.1494   -7.0170 O   0  0  0  0  0  0  0  0  0  0  0  0
   40.0898   -7.1873   -9.2994 N   0  0  0  0  0  0  0  0  0  0  0  0
   40.0365   -7.8280  -10.6035 C   0  0  0  0  0  0  0  0  0  0  0  0
   41.0031   -6.9675  -11.4204 C   0  0  0  0  0  0  0  0  0  0  0  0
   40.6230   -5.5948  -10.9613 C   0  0  0  0  0  0  0  0  0  0  0  0
   40.2372   -5.7579   -9.5261 C   0  0  1  0  0  0  0  0  0  0  0  0
   38.9557   -5.0762   -9.2224 C   0  0  0  0  0  0  0  0  0  0  0  0
   37.8495   -5.6586   -9.3205 O   0  0  0  0  0  0  0  0  0  0  0  0
   38.9852   -3.7543   -8.8180 O   0  0  0  0  0  0  0  0  0  0  0  0
  2  1  1  6
  2  3  1  0
  4  6  1  0
  4  2  1  0
  4  5  1  6
  6  7  2  0
  9  8  1  0
 10  9  1  0
 10 12  1  0
 10 11  1  6
 12 14  1  0
 13  6  1  0
 12 13  1  1
 14 16  1  0
 14 15  2  0
 16 17  1  0
 18 17  1  0
 19 18  1  0
 20 16  1  0
 20 19  1  0
 20 21  1  6
 22 21  2  0
 23 21  1  0
M  END
$$$$
