VIP.pdb
     RDKit          3D

 23 23  0  0  1  0  0  0  0  0999 V2000
   23.7458  -25.1748  -16.5779 C   0  0  0  0  0  0  0  0  0  0  0  0
   24.9473  -24.6762  -17.3402 C   0  0  2  0  0  0  0  0  0  0  0  0
   25.2447  -25.6524  -18.4375 C   0  0  0  0  0  0  0  0  0  0  0  0
   26.1240  -24.4643  -16.4256 C   0  0  2  0  0  0  0  0  0  0  0  0
   26.5710  -25.6921  -15.8463 N   0  0  0  0  0  0  0  0  0  0  0  0
   25.8570  -23.4315  -15.3912 C   0  0  0  0  0  0  0  0  0  0  0  0
   25.5478  -23.7817  -14.2256 O   0  0  0  0  0  0  0  0  0  0  0  0
   28.7785  -18.8906  -15.5985 C   0  0  0  0  0  0  0  0  0  0  0  0
   28.0681  -20.1565  -15.0606 C   0  0  0  0  0  0  0  0  0  0  0  0
   26.6276  -19.8557  -15.0128 C   0  0  2  0  0  0  0  0  0  0  0  0
   26.3022  -18.6709  -14.1142 C   0  0  0  0  0  0  0  0  0  0  0  0
   25.7042  -21.0082  -14.6476 C   0  0  2  0  0  0  0  0  0  0  0  0
   25.9416  -22.0574  -15.6822 N   0  0  0  0  0  0  0  0  0  0  0  0
   24.2682  -20.6900  -14.7755 C   0  0  0  0  0  0  0  0  0  0  0  0
   23.7607  -20.5375  -15.9342 O   0  0  0  0  0  0  0  0  0  0  0  0
   23.3772  -20.5423  -13.6826 N   0  0  0  0  0  0  0  0  0  0  0  0
   23.7373  -20.7291  -12.2864 C   0  0  0  0  0  0  0  0  0  0  0  0
   22.4691  -21.3656  -11.7132 C   0  0  0  0  0  0  0  0  0  0  0  0
   21.4102  -20.5399  -12.3737 C   0  0  0  0  0  0  0  0  0  0  0  0
   21.9623  -20.2063  -13.7225 C   0  0  1  0  0  0  0  0  0  0  0  0
   21.8068  -18.7654  -14.0371 C   0  0  0  0  0  0  0  0  0  0  0  0
   22.7694  -17.9633  -13.9884 O   0  0  0  0  0  0  0  0  0  0  0  0
   20.5572  -18.2942  -14.3956 O   0  0  0  0  0  0  0  0  0  0  0  0
  2  1  1  1
  2  3  1  0
  4  6  1  0
  4  2  1  0
  4  5  1  1
  6  7  2  0
  9  8  1  0
 10  9  1  0
 10 12  1  0
 10 11  1  1
 12 14  1  0
 13  6  1  0
 12 13  1  6
 14 16  1  0
 14 15  2  0
 16 17  1  0
 18 17  1  0
 19 18  1  0
 20 16  1  0
 20 19  1  0
 20 21  1  1
 22 21  2  0
 23 21  1  0
M  END
$$$$
