VIP.pdb
     RDKit          3D

 23 23  0  0  1  0  0  0  0  0999 V2000
   19.7958  -18.4103  -14.6280 C   0  0  0  0  0  0  0  0  0  0  0  0
   20.0414  -19.8610  -14.9570 C   0  0  2  0  0  0  0  0  0  0  0  0
   18.7205  -20.5060  -15.2482 C   0  0  0  0  0  0  0  0  0  0  0  0
   20.7863  -20.5534  -13.8472 C   0  0  2  0  0  0  0  0  0  0  0  0
   20.0150  -20.6054  -12.6450 N   0  0  0  0  0  0  0  0  0  0  0  0
   22.1303  -19.9639  -13.6149 C   0  0  0  0  0  0  0  0  0  0  0  0
   22.3141  -19.1958  -12.6387 O   0  0  0  0  0  0  0  0  0  0  0  0
   25.9198  -22.9367  -12.4567 C   0  0  0  0  0  0  0  0  0  0  0  0
   25.0117  -21.6891  -12.5803 C   0  0  0  0  0  0  0  0  0  0  0  0
   25.4031  -20.9909  -13.8160 C   0  0  2  0  0  0  0  0  0  0  0  0
   26.8819  -20.6314  -13.8469 C   0  0  0  0  0  0  0  0  0  0  0  0
   24.5965  -19.7543  -14.1828 C   0  0  2  0  0  0  0  0  0  0  0  0
   23.2154  -20.2441  -14.4659 N   0  0  0  0  0  0  0  0  0  0  0  0
   25.0205  -19.1138  -15.4437 C   0  0  0  0  0  0  0  0  0  0  0  0
   24.7954  -19.7011  -16.5517 O   0  0  0  0  0  0  0  0  0  0  0  0
   25.6713  -17.8570  -15.5276 N   0  0  0  0  0  0  0  0  0  0  0  0
   26.1284  -17.0807  -14.3864 C   0  0  0  0  0  0  0  0  0  0  0  0
   25.8549  -15.6470  -14.8470 C   0  0  0  0  0  0  0  0  0  0  0  0
   26.3192  -15.7090  -16.2683 C   0  0  0  0  0  0  0  0  0  0  0  0
   25.9902  -17.0943  -16.7246 C   0  0  1  0  0  0  0  0  0  0  0  0
   27.1354  -17.7278  -17.4220 C   0  0  0  0  0  0  0  0  0  0  0  0
   27.8258  -18.6293  -16.8901 O   0  0  0  0  0  0  0  0  0  0  0  0
   27.4495  -17.3079  -18.7015 O   0  0  0  0  0  0  0  0  0  0  0  0
  2  1  1  1
  2  3  1  0
  4  6  1  0
  4  2  1  0
  4  5  1  1
  6  7  2  0
  9  8  1  0
 10  9  1  0
 10 12  1  0
 10 11  1  1
 12 14  1  0
 13  6  1  0
 12 13  1  6
 14 16  1  0
 14 15  2  0
 16 17  1  0
 18 17  1  0
 19 18  1  0
 20 16  1  0
 20 19  1  0
 20 21  1  1
 22 21  2  0
 23 21  1  0
M  END
$$$$
