VIP.pdb
     RDKit          3D

 23 23  0  0  1  0  0  0  0  0999 V2000
   17.1134   -8.8005  -18.5859 C   0  0  0  0  0  0  0  0  0  0  0  0
   18.2933   -9.5027  -19.2086 C   0  0  2  0  0  0  0  0  0  0  0  0
   17.8865   -9.9891  -20.5663 C   0  0  0  0  0  0  0  0  0  0  0  0
   18.7938  -10.6150  -18.3263 C   0  0  2  0  0  0  0  0  0  0  0  0
   17.8475  -11.6820  -18.2327 N   0  0  0  0  0  0  0  0  0  0  0  0
   19.2109  -10.1287  -16.9856 C   0  0  0  0  0  0  0  0  0  0  0  0
   18.4398  -10.2675  -16.0043 O   0  0  0  0  0  0  0  0  0  0  0  0
   23.5886  -11.7370  -14.8584 C   0  0  0  0  0  0  0  0  0  0  0  0
   22.1408  -11.2278  -15.0614 C   0  0  0  0  0  0  0  0  0  0  0  0
   22.2085   -9.7601  -15.1559 C   0  0  2  0  0  0  0  0  0  0  0  0
   22.8650   -9.1208  -13.9405 C   0  0  0  0  0  0  0  0  0  0  0  0
   20.9005   -9.0359  -15.4366 C   0  0  2  0  0  0  0  0  0  0  0  0
   20.4582   -9.5105  -16.7807 N   0  0  0  0  0  0  0  0  0  0  0  0
   21.0459   -7.5754  -15.5967 C   0  0  0  0  0  0  0  0  0  0  0  0
   21.8496   -7.1178  -16.4731 O   0  0  0  0  0  0  0  0  0  0  0  0
   20.3385   -6.6092  -14.8376 N   0  0  0  0  0  0  0  0  0  0  0  0
   19.3429   -6.9164  -13.8235 C   0  0  0  0  0  0  0  0  0  0  0  0
   18.3318   -5.7840  -14.0171 C   0  0  0  0  0  0  0  0  0  0  0  0
   19.2449   -4.6131  -14.2037 C   0  0  0  0  0  0  0  0  0  0  0  0
   20.4369   -5.1603  -14.9215 C   0  0  1  0  0  0  0  0  0  0  0  0
   21.7054   -4.7155  -14.2952 C   0  0  0  0  0  0  0  0  0  0  0  0
   22.3436   -5.4377  -13.4930 O   0  0  0  0  0  0  0  0  0  0  0  0
   22.1979   -3.4620  -14.6084 O   0  0  0  0  0  0  0  0  0  0  0  0
  2  1  1  1
  2  3  1  0
  4  6  1  0
  4  2  1  0
  4  5  1  1
  6  7  2  0
  9  8  1  0
 10  9  1  0
 10 12  1  0
 10 11  1  1
 12 14  1  0
 13  6  1  0
 12 13  1  6
 14 16  1  0
 14 15  2  0
 16 17  1  0
 18 17  1  0
 19 18  1  0
 20 16  1  0
 20 19  1  0
 20 21  1  1
 22 21  2  0
 23 21  1  0
M  END
$$$$
