VIP.pdb
     RDKit          3D

 23 23  0  0  1  0  0  0  0  0999 V2000
   21.1041  -18.9180  -14.2177 C   0  0  0  0  0  0  0  0  0  0  0  0
   21.2051  -19.8590  -13.0440 C   0  0  2  0  0  0  0  0  0  0  0  0
   20.2145  -19.4237  -12.0074 C   0  0  0  0  0  0  0  0  0  0  0  0
   22.6107  -19.9134  -12.5080 C   0  0  2  0  0  0  0  0  0  0  0  0
   23.5522  -20.2566  -13.5273 N   0  0  0  0  0  0  0  0  0  0  0  0
   22.7302  -20.8041  -11.3247 C   0  0  0  0  0  0  0  0  0  0  0  0
   22.7533  -22.0497  -11.4814 O   0  0  0  0  0  0  0  0  0  0  0  0
   26.3299  -19.6288   -7.7024 C   0  0  0  0  0  0  0  0  0  0  0  0
   25.4281  -20.4833   -8.6260 C   0  0  0  0  0  0  0  0  0  0  0  0
   24.0963  -20.5361   -8.0006 C   0  0  2  0  0  0  0  0  0  0  0  0
   24.1153  -21.1938   -6.6279 C   0  0  0  0  0  0  0  0  0  0  0  0
   22.9831  -21.1664   -8.8239 C   0  0  2  0  0  0  0  0  0  0  0  0
   22.8194  -20.2872  -10.0189 N   0  0  0  0  0  0  0  0  0  0  0  0
   21.6611  -21.1369   -8.1673 C   0  0  0  0  0  0  0  0  0  0  0  0
   21.0968  -20.0166   -7.9442 O   0  0  0  0  0  0  0  0  0  0  0  0
   20.9412  -22.2877   -7.7579 N   0  0  0  0  0  0  0  0  0  0  0  0
   21.3641  -23.6589   -7.9926 C   0  0  0  0  0  0  0  0  0  0  0  0
   20.0305  -24.3625   -8.2547 C   0  0  0  0  0  0  0  0  0  0  0  0
   19.1685  -23.7460   -7.1981 C   0  0  0  0  0  0  0  0  0  0  0  0
   19.6651  -22.3424   -7.0615 C   0  0  1  0  0  0  0  0  0  0  0  0
   19.8629  -21.9672   -5.6405 C   0  0  0  0  0  0  0  0  0  0  0  0
   20.9946  -21.9686   -5.1003 O   0  0  0  0  0  0  0  0  0  0  0  0
   18.7604  -21.6042   -4.8889 O   0  0  0  0  0  0  0  0  0  0  0  0
  2  1  1  6
  2  3  1  0
  4  6  1  0
  4  2  1  0
  4  5  1  6
  6  7  2  0
  9  8  1  0
 10  9  1  0
 10 12  1  0
 10 11  1  1
 12 14  1  0
 13  6  1  0
 12 13  1  6
 14 16  1  0
 14 15  2  0
 16 17  1  0
 18 17  1  0
 19 18  1  0
 20 16  1  0
 20 19  1  0
 20 21  1  1
 22 21  2  0
 23 21  1  0
M  END
$$$$
