VIP.pdb
     RDKit          3D

 23 23  0  0  1  0  0  0  0  0999 V2000
   22.0930  -22.2485  -15.3619 C   0  0  0  0  0  0  0  0  0  0  0  0
   21.0934  -21.3104  -14.7343 C   0  0  2  0  0  0  0  0  0  0  0  0
   20.9936  -20.0875  -15.5946 C   0  0  0  0  0  0  0  0  0  0  0  0
   21.4692  -20.9839  -13.3137 C   0  0  2  0  0  0  0  0  0  0  0  0
   20.4715  -20.1856  -12.6732 N   0  0  0  0  0  0  0  0  0  0  0  0
   22.8172  -20.3669  -13.2131 C   0  0  0  0  0  0  0  0  0  0  0  0
   22.9362  -19.1176  -13.2575 O   0  0  0  0  0  0  0  0  0  0  0  0
   25.7998  -21.0834   -9.0959 C   0  0  0  0  0  0  0  0  0  0  0  0
   25.1621  -20.4294  -10.3457 C   0  0  0  0  0  0  0  0  0  0  0  0
   25.8125  -21.0256  -11.5244 C   0  0  2  0  0  0  0  0  0  0  0  0
   27.3298  -20.9110  -11.4815 C   0  0  0  0  0  0  0  0  0  0  0  0
   25.3290  -20.5440  -12.8840 C   0  0  2  0  0  0  0  0  0  0  0  0
   23.9774  -21.1498  -13.0680 N   0  0  0  0  0  0  0  0  0  0  0  0
   26.1173  -21.0630  -14.0193 C   0  0  0  0  0  0  0  0  0  0  0  0
   26.0660  -22.3040  -14.3029 O   0  0  0  0  0  0  0  0  0  0  0  0
   26.9474  -20.2694  -14.8509 N   0  0  0  0  0  0  0  0  0  0  0  0
   27.3662  -18.9098  -14.5511 C   0  0  0  0  0  0  0  0  0  0  0  0
   27.3608  -18.2623  -15.9378 C   0  0  0  0  0  0  0  0  0  0  0  0
   27.9840  -19.3448  -16.7621 C   0  0  0  0  0  0  0  0  0  0  0  0
   27.5184  -20.6228  -16.1413 C   0  0  1  0  0  0  0  0  0  0  0  0
   28.6382  -21.5741  -15.9407 C   0  0  0  0  0  0  0  0  0  0  0  0
   29.1553  -21.7696  -14.8152 O   0  0  0  0  0  0  0  0  0  0  0  0
   29.1259  -22.2670  -17.0334 O   0  0  0  0  0  0  0  0  0  0  0  0
  2  1  1  6
  2  3  1  0
  4  6  1  0
  4  2  1  0
  4  5  1  6
  6  7  2  0
  9  8  1  0
 10  9  1  0
 10 12  1  0
 10 11  1  1
 12 14  1  0
 13  6  1  0
 12 13  1  6
 14 16  1  0
 14 15  2  0
 16 17  1  0
 18 17  1  0
 19 18  1  0
 20 16  1  0
 20 19  1  0
 20 21  1  1
 22 21  2  0
 23 21  1  0
M  END
$$$$
