VIP.pdb
     RDKit          3D

 23 23  0  0  1  0  0  0  0  0999 V2000
   18.5488  -13.0906  -20.6548 C   0  0  0  0  0  0  0  0  0  0  0  0
   18.5869  -12.3289  -19.3543 C   0  0  2  0  0  0  0  0  0  0  0  0
   18.8985  -10.8952  -19.6594 C   0  0  0  0  0  0  0  0  0  0  0  0
   19.5723  -12.9388  -18.3936 C   0  0  2  0  0  0  0  0  0  0  0  0
   19.2492  -14.2993  -18.0977 N   0  0  0  0  0  0  0  0  0  0  0  0
   19.7324  -12.1290  -17.1581 C   0  0  0  0  0  0  0  0  0  0  0  0
   18.9166  -12.2647  -16.2133 O   0  0  0  0  0  0  0  0  0  0  0  0
   24.2748  -12.1948  -14.7191 C   0  0  0  0  0  0  0  0  0  0  0  0
   22.7633  -12.1384  -15.0488 C   0  0  0  0  0  0  0  0  0  0  0  0
   22.4366  -10.7322  -15.3378 C   0  0  2  0  0  0  0  0  0  0  0  0
   22.8145   -9.7935  -14.2006 C   0  0  0  0  0  0  0  0  0  0  0  0
   21.0024  -10.4386  -15.7515 C   0  0  2  0  0  0  0  0  0  0  0  0
   20.7831  -11.2041  -17.0139 N   0  0  0  0  0  0  0  0  0  0  0  0
   20.7641   -9.0324  -16.1333 C   0  0  0  0  0  0  0  0  0  0  0  0
   21.4711   -8.5039  -17.0521 O   0  0  0  0  0  0  0  0  0  0  0  0
   19.7786   -8.1970  -15.5494 N   0  0  0  0  0  0  0  0  0  0  0  0
   18.8665   -8.6026  -14.4923 C   0  0  0  0  0  0  0  0  0  0  0  0
   17.5857   -7.8569  -14.8739 C   0  0  0  0  0  0  0  0  0  0  0  0
   18.1370   -6.5218  -15.2650 C   0  0  0  0  0  0  0  0  0  0  0  0
   19.4660   -6.8161  -15.8834 C   0  0  1  0  0  0  0  0  0  0  0  0
   20.5271   -5.9279  -15.3501 C   0  0  0  0  0  0  0  0  0  0  0  0
   21.3611   -6.3194  -14.4995 O   0  0  0  0  0  0  0  0  0  0  0  0
   20.5961   -4.6251  -15.8083 O   0  0  0  0  0  0  0  0  0  0  0  0
  2  1  1  6
  2  3  1  0
  4  6  1  0
  4  2  1  0
  4  5  1  1
  6  7  2  0
  9  8  1  0
 10  9  1  0
 10 12  1  0
 10 11  1  1
 12 14  1  0
 13  6  1  0
 12 13  1  6
 14 16  1  0
 14 15  2  0
 16 17  1  0
 18 17  1  0
 19 18  1  0
 20 16  1  0
 20 19  1  0
 20 21  1  1
 22 21  2  0
 23 21  1  0
M  END
$$$$
