VIP.pdb
     RDKit          3D

 23 23  0  0  1  0  0  0  0  0999 V2000
   18.1091  -11.5690  -19.7476 C   0  0  0  0  0  0  0  0  0  0  0  0
   19.5442  -11.9107  -20.0587 C   0  0  2  0  0  0  0  0  0  0  0  0
   19.5728  -12.7011  -21.3314 C   0  0  0  0  0  0  0  0  0  0  0  0
   20.1911  -12.6428  -18.9134 C   0  0  2  0  0  0  0  0  0  0  0  0
   19.6249  -13.9422  -18.7295 N   0  0  0  0  0  0  0  0  0  0  0  0
   20.1753  -11.8515  -17.6559 C   0  0  0  0  0  0  0  0  0  0  0  0
   19.2904  -12.0704  -16.7923 O   0  0  0  0  0  0  0  0  0  0  0  0
   24.4134  -11.4737  -14.6596 C   0  0  0  0  0  0  0  0  0  0  0  0
   22.9492  -11.5662  -15.1537 C   0  0  0  0  0  0  0  0  0  0  0  0
   22.5473  -10.2120  -15.5690 C   0  0  2  0  0  0  0  0  0  0  0  0
   22.7389   -9.1770  -14.4694 C   0  0  0  0  0  0  0  0  0  0  0  0
   21.1430  -10.0631  -16.1347 C   0  0  2  0  0  0  0  0  0  0  0  0
   21.1335  -10.8529  -17.4010 N   0  0  0  0  0  0  0  0  0  0  0  0
   20.8106   -8.6892  -16.5609 C   0  0  0  0  0  0  0  0  0  0  0  0
   21.4814   -8.1435  -17.4966 O   0  0  0  0  0  0  0  0  0  0  0  0
   19.7700   -7.9042  -16.0031 N   0  0  0  0  0  0  0  0  0  0  0  0
   18.8800   -8.3401  -14.9392 C   0  0  0  0  0  0  0  0  0  0  0  0
   17.5559   -7.6890  -15.3454 C   0  0  0  0  0  0  0  0  0  0  0  0
   18.0221   -6.3317  -15.7696 C   0  0  0  0  0  0  0  0  0  0  0  0
   19.3708   -6.5556  -16.3748 C   0  0  1  0  0  0  0  0  0  0  0  0
   20.3694   -5.5870  -15.8611 C   0  0  0  0  0  0  0  0  0  0  0  0
   21.1989   -5.8913  -14.9713 O   0  0  0  0  0  0  0  0  0  0  0  0
   20.3833   -4.3066  -16.3828 O   0  0  0  0  0  0  0  0  0  0  0  0
  2  1  1  1
  2  3  1  0
  4  6  1  0
  4  2  1  0
  4  5  1  1
  6  7  2  0
  9  8  1  0
 10  9  1  0
 10 12  1  0
 10 11  1  1
 12 14  1  0
 13  6  1  0
 12 13  1  6
 14 16  1  0
 14 15  2  0
 16 17  1  0
 18 17  1  0
 19 18  1  0
 20 16  1  0
 20 19  1  0
 20 21  1  1
 22 21  2  0
 23 21  1  0
M  END
$$$$
