VIP.pdb
     RDKit          3D

 23 23  0  0  1  0  0  0  0  0999 V2000
   27.1643  -17.1129  -15.0283 C   0  0  0  0  0  0  0  0  0  0  0  0
   26.0007  -16.4605  -15.7308 C   0  0  2  0  0  0  0  0  0  0  0  0
   25.7188  -15.1526  -15.0559 C   0  0  0  0  0  0  0  0  0  0  0  0
   24.7988  -17.3665  -15.7520 C   0  0  2  0  0  0  0  0  0  0  0  0
   25.1395  -18.6865  -16.1815 N   0  0  0  0  0  0  0  0  0  0  0  0
   23.6781  -16.8003  -16.5465 C   0  0  0  0  0  0  0  0  0  0  0  0
   23.7290  -16.8231  -17.8010 O   0  0  0  0  0  0  0  0  0  0  0  0
   18.8415  -18.4889  -16.1094 C   0  0  0  0  0  0  0  0  0  0  0  0
   20.1086  -17.8665  -16.7446 C   0  0  0  0  0  0  0  0  0  0  0  0
   20.1852  -16.4722  -16.2780 C   0  0  2  0  0  0  0  0  0  0  0  0
   18.9380  -15.6679  -16.6165 C   0  0  0  0  0  0  0  0  0  0  0  0
   21.4069  -15.6763  -16.7116 C   0  0  2  0  0  0  0  0  0  0  0  0
   22.5487  -16.2329  -15.9279 N   0  0  0  0  0  0  0  0  0  0  0  0
   21.3623  -14.2516  -16.3267 C   0  0  0  0  0  0  0  0  0  0  0  0
   21.3198  -13.9366  -15.0929 O   0  0  0  0  0  0  0  0  0  0  0  0
   21.3702  -13.1706  -17.2440 N   0  0  0  0  0  0  0  0  0  0  0  0
   21.5162  -13.3047  -18.6844 C   0  0  0  0  0  0  0  0  0  0  0  0
   22.3510  -12.0712  -19.0358 C   0  0  0  0  0  0  0  0  0  0  0  0
   21.6931  -11.0286  -18.1874 C   0  0  0  0  0  0  0  0  0  0  0  0
   21.2597  -11.7498  -16.9515 C   0  0  1  0  0  0  0  0  0  0  0  0
   19.8572  -11.4282  -16.5930 C   0  0  0  0  0  0  0  0  0  0  0  0
   18.8980  -12.1671  -16.9191 O   0  0  0  0  0  0  0  0  0  0  0  0
   19.6023  -10.2743  -15.8751 O   0  0  0  0  0  0  0  0  0  0  0  0
  2  1  1  1
  2  3  1  0
  4  6  1  0
  4  2  1  0
  4  5  1  6
  6  7  2  0
  9  8  1  0
 10  9  1  0
 10 12  1  0
 10 11  1  6
 12 14  1  0
 13  6  1  0
 12 13  1  1
 14 16  1  0
 14 15  2  0
 16 17  1  0
 18 17  1  0
 19 18  1  0
 20 16  1  0
 20 19  1  0
 20 21  1  6
 22 21  2  0
 23 21  1  0
M  END
$$$$
