YHP.pdb
     RDKit          3D

 30 32  0  0  1  0  0  0  0  0999 V2000
   18.2416  -25.7030  -13.2520 O   0  0  0  0  0  0  0  0  0  0  0  0
   18.8284  -24.4593  -13.3412 C   0  0  0  0  0  0  0  0  0  0  0  0
   18.5037  -23.4211  -12.4854 C   0  0  0  0  0  0  0  0  0  0  0  0
   19.0938  -22.1842  -12.5815 C   0  0  0  0  0  0  0  0  0  0  0  0
   20.0367  -21.9836  -13.5651 C   0  0  0  0  0  0  0  0  0  0  0  0
   20.7149  -20.6771  -13.7389 C   0  0  0  0  0  0  0  0  0  0  0  0
   22.1382  -20.7838  -13.3268 C   0  0  2  0  0  0  0  0  0  0  0  0
   22.2493  -21.1057  -11.8940 N   0  0  0  0  0  0  0  0  0  0  0  0
   22.9345  -19.5585  -13.5745 C   0  0  0  0  0  0  0  0  0  0  0  0
   23.0212  -18.5952  -12.7700 O   0  0  0  0  0  0  0  0  0  0  0  0
   20.3567  -23.0138  -14.4115 C   0  0  0  0  0  0  0  0  0  0  0  0
   19.7706  -24.2508  -14.3198 C   0  0  0  0  0  0  0  0  0  0  0  0
   23.6830  -19.3877  -14.7901 N   0  0  0  0  0  0  0  0  0  0  0  0
   24.5044  -18.1898  -15.0152 C   0  0  1  0  0  0  0  0  0  0  0  0
   25.9463  -18.5983  -15.2313 C   0  0  0  0  0  0  0  0  0  0  0  0
   26.8098  -17.4353  -15.5356 C   0  0  0  0  0  0  0  0  0  0  0  0
   27.3568  -16.5166  -14.6656 C   0  0  0  0  0  0  0  0  0  0  0  0
   28.0874  -15.6091  -15.3713 N   0  0  0  0  0  0  0  0  0  0  0  0
   27.9976  -15.9567  -16.6632 C   0  0  0  0  0  0  0  0  0  0  0  0
   27.2183  -17.0697  -16.7585 N   0  0  0  0  0  0  0  0  0  0  0  0
   24.0344  -17.5339  -16.2570 C   0  0  0  0  0  0  0  0  0  0  0  0
   23.7000  -18.2975  -17.2328 O   0  0  0  0  0  0  0  0  0  0  0  0
   23.9298  -16.1446  -16.4362 N   0  0  0  0  0  0  0  0  0  0  0  0
   24.2860  -15.1261  -15.4707 C   0  0  0  0  0  0  0  0  0  0  0  0
   23.2502  -14.0361  -15.8084 C   0  0  0  0  0  0  0  0  0  0  0  0
   23.3327  -14.0359  -17.3219 C   0  0  0  0  0  0  0  0  0  0  0  0
   23.4271  -15.5086  -17.6370 C   0  0  1  0  0  0  0  0  0  0  0  0
   24.2428  -15.8034  -18.8190 C   0  0  0  0  0  0  0  0  0  0  0  0
   23.7441  -15.8397  -19.9554 O   0  0  0  0  0  0  0  0  0  0  0  0
   25.5980  -16.0480  -18.6785 O   0  0  0  0  0  0  0  0  0  0  0  0
  2  1  1  0
  3  2  2  0
  4  3  1  0
  5  4  2  0
  5 11  1  0
  6  5  1  0
  7  6  1  0
  7  8  1  1
  9  7  1  0
  9 10  2  0
 11 12  2  0
 12  2  1  0
 13  9  1  0
 14 15  1  6
 14 13  1  0
 16 15  1  0
 16 17  2  0
 16 20  1  0
 17 18  1  0
 18 19  1  0
 20 19  2  0
 21 14  1  0
 22 21  2  0
 23 27  1  0
 23 21  1  0
 24 23  1  0
 25 24  1  0
 25 26  1  0
 26 27  1  0
 27 28  1  6
 28 29  2  0
 28 30  1  0
M  END
$$$$
