YHP.pdb
     RDKit          3D

 30 32  0  0  1  0  0  0  0  0999 V2000
   30.0120  -30.0917  -18.4714 O   0  0  0  0  0  0  0  0  0  0  0  0
   29.8844  -28.8407  -17.9076 C   0  0  0  0  0  0  0  0  0  0  0  0
   28.6726  -28.3503  -17.4530 C   0  0  0  0  0  0  0  0  0  0  0  0
   28.5544  -27.1019  -16.8922 C   0  0  0  0  0  0  0  0  0  0  0  0
   29.6853  -26.3231  -16.7847 C   0  0  0  0  0  0  0  0  0  0  0  0
   29.6410  -24.9629  -16.1973 C   0  0  0  0  0  0  0  0  0  0  0  0
   29.1943  -23.9815  -17.2193 C   0  0  2  0  0  0  0  0  0  0  0  0
   30.2273  -23.7881  -18.2511 N   0  0  0  0  0  0  0  0  0  0  0  0
   28.8529  -22.6477  -16.6706 C   0  0  0  0  0  0  0  0  0  0  0  0
   29.4437  -21.5815  -16.9811 O   0  0  0  0  0  0  0  0  0  0  0  0
   30.8845  -26.8112  -17.2357 C   0  0  0  0  0  0  0  0  0  0  0  0
   31.0080  -28.0572  -17.7964 C   0  0  0  0  0  0  0  0  0  0  0  0
   27.7895  -22.4827  -15.7170 N   0  0  0  0  0  0  0  0  0  0  0  0
   27.4297  -21.1541  -15.2019 C   0  0  1  0  0  0  0  0  0  0  0  0
   27.0188  -20.2595  -16.3523 C   0  0  0  0  0  0  0  0  0  0  0  0
   26.6435  -18.9042  -15.8908 C   0  0  0  0  0  0  0  0  0  0  0  0
   27.4053  -17.7555  -15.8796 C   0  0  0  0  0  0  0  0  0  0  0  0
   26.6661  -16.7310  -15.3704 N   0  0  0  0  0  0  0  0  0  0  0  0
   25.4602  -17.2332  -15.0682 C   0  0  0  0  0  0  0  0  0  0  0  0
   25.4510  -18.5574  -15.3870 N   0  0  0  0  0  0  0  0  0  0  0  0
   26.2558  -21.3059  -14.3119 C   0  0  0  0  0  0  0  0  0  0  0  0
   25.2208  -21.8865  -14.8008 O   0  0  0  0  0  0  0  0  0  0  0  0
   26.2002  -20.8622  -12.9803 N   0  0  0  0  0  0  0  0  0  0  0  0
   27.2138  -20.0928  -12.2897 C   0  0  0  0  0  0  0  0  0  0  0  0
   27.0518  -20.6286  -10.8539 C   0  0  0  0  0  0  0  0  0  0  0  0
   25.5418  -20.6171  -10.7233 C   0  0  0  0  0  0  0  0  0  0  0  0
   25.1003  -21.1241  -12.0743 C   0  0  1  0  0  0  0  0  0  0  0  0
   23.8358  -20.5416  -12.5338 C   0  0  0  0  0  0  0  0  0  0  0  0
   23.8152  -19.5748  -13.3125 O   0  0  0  0  0  0  0  0  0  0  0  0
   22.6336  -21.0712  -12.0978 O   0  0  0  0  0  0  0  0  0  0  0  0
  2  1  1  0
  3  2  2  0
  4  3  1  0
  5  4  2  0
  5 11  1  0
  6  5  1  0
  7  6  1  0
  7  8  1  6
  9  7  1  0
  9 10  2  0
 11 12  2  0
 12  2  1  0
 13  9  1  0
 14 15  1  6
 14 13  1  0
 16 15  1  0
 16 17  2  0
 16 20  1  0
 17 18  1  0
 18 19  1  0
 20 19  2  0
 21 14  1  0
 22 21  2  0
 23 27  1  0
 23 21  1  0
 24 23  1  0
 25 24  1  0
 25 26  1  0
 26 27  1  0
 27 28  1  6
 28 29  2  0
 28 30  1  0
M  END
$$$$
