YHP.pdb
     RDKit          3D

 30 32  0  0  1  0  0  0  0  0999 V2000
   15.7235  -20.8180  -11.8840 O   0  0  0  0  0  0  0  0  0  0  0  0
   17.0585  -20.5437  -12.0878 C   0  0  0  0  0  0  0  0  0  0  0  0
   17.4963  -19.6628  -13.0615 C   0  0  0  0  0  0  0  0  0  0  0  0
   18.8293  -19.3952  -13.2577 C   0  0  0  0  0  0  0  0  0  0  0  0
   19.7496  -20.0303  -12.4536 C   0  0  0  0  0  0  0  0  0  0  0  0
   21.2060  -19.8006  -12.6053 C   0  0  0  0  0  0  0  0  0  0  0  0
   21.7216  -20.5586  -13.7744 C   0  0  2  0  0  0  0  0  0  0  0  0
   21.6744  -22.0092  -13.5244 N   0  0  0  0  0  0  0  0  0  0  0  0
   23.1120  -20.2139  -14.1551 C   0  0  0  0  0  0  0  0  0  0  0  0
   24.1148  -20.3991  -13.4185 O   0  0  0  0  0  0  0  0  0  0  0  0
   19.3133  -20.9024  -11.4897 C   0  0  0  0  0  0  0  0  0  0  0  0
   17.9834  -21.1730  -11.2895 C   0  0  0  0  0  0  0  0  0  0  0  0
   23.4123  -19.6267  -15.4325 N   0  0  0  0  0  0  0  0  0  0  0  0
   24.7998  -19.3700  -15.8440 C   0  0  1  0  0  0  0  0  0  0  0  0
   25.1893  -20.3374  -16.9418 C   0  0  0  0  0  0  0  0  0  0  0  0
   25.3055  -21.7248  -16.4393 C   0  0  0  0  0  0  0  0  0  0  0  0
   24.4844  -22.8036  -16.6884 C   0  0  0  0  0  0  0  0  0  0  0  0
   24.9601  -23.8931  -16.0238 N   0  0  0  0  0  0  0  0  0  0  0  0
   26.0623  -23.4999  -15.3693 C   0  0  0  0  0  0  0  0  0  0  0  0
   26.2689  -22.1782  -15.6254 N   0  0  0  0  0  0  0  0  0  0  0  0
   24.8692  -18.0023  -16.4076 C   0  0  0  0  0  0  0  0  0  0  0  0
   23.8684  -17.6046  -17.1059 O   0  0  0  0  0  0  0  0  0  0  0  0
   25.9465  -17.1187  -16.2297 N   0  0  0  0  0  0  0  0  0  0  0  0
   27.0950  -17.3281  -15.3732 C   0  0  0  0  0  0  0  0  0  0  0  0
   27.3986  -15.8802  -14.9416 C   0  0  0  0  0  0  0  0  0  0  0  0
   27.2745  -15.1635  -16.2714 C   0  0  0  0  0  0  0  0  0  0  0  0
   26.0669  -15.8309  -16.8825 C   0  0  1  0  0  0  0  0  0  0  0  0
   26.1343  -15.9394  -18.3431 C   0  0  0  0  0  0  0  0  0  0  0  0
   25.7702  -15.0069  -19.0776 O   0  0  0  0  0  0  0  0  0  0  0  0
   26.6118  -17.0998  -18.9274 O   0  0  0  0  0  0  0  0  0  0  0  0
  2  1  1  0
  3  2  2  0
  4  3  1  0
  5  4  2  0
  5 11  1  0
  6  5  1  0
  7  6  1  0
  7  8  1  1
  9  7  1  0
  9 10  2  0
 11 12  2  0
 12  2  1  0
 13  9  1  0
 14 15  1  6
 14 13  1  0
 16 15  1  0
 16 17  2  0
 16 20  1  0
 17 18  1  0
 18 19  1  0
 20 19  2  0
 21 14  1  0
 22 21  2  0
 23 27  1  0
 23 21  1  0
 24 23  1  0
 25 24  1  0
 25 26  1  0
 26 27  1  0
 27 28  1  6
 28 29  2  0
 28 30  1  0
M  END
$$$$
