YHP.pdb
     RDKit          3D

 30 32  0  0  1  0  0  0  0  0999 V2000
   30.0622  -16.8898  -20.1330 O   0  0  0  0  0  0  0  0  0  0  0  0
   29.1958  -16.9671  -19.0641 C   0  0  0  0  0  0  0  0  0  0  0  0
   28.7871  -18.1742  -18.5243 C   0  0  0  0  0  0  0  0  0  0  0  0
   27.9230  -18.2419  -17.4585 C   0  0  0  0  0  0  0  0  0  0  0  0
   27.4555  -17.0640  -16.9192 C   0  0  0  0  0  0  0  0  0  0  0  0
   26.5161  -17.0513  -15.7727 C   0  0  0  0  0  0  0  0  0  0  0  0
   25.1436  -17.3814  -16.2357 C   0  0  2  0  0  0  0  0  0  0  0  0
   24.5218  -16.2269  -16.9061 N   0  0  0  0  0  0  0  0  0  0  0  0
   24.2283  -17.8195  -15.1555 C   0  0  0  0  0  0  0  0  0  0  0  0
   23.7337  -17.0512  -14.2909 O   0  0  0  0  0  0  0  0  0  0  0  0
   27.8620  -15.8695  -17.4557 C   0  0  0  0  0  0  0  0  0  0  0  0
   28.7248  -15.7963  -18.5198 C   0  0  0  0  0  0  0  0  0  0  0  0
   23.8348  -19.1960  -15.0230 N   0  0  0  0  0  0  0  0  0  0  0  0
   22.9942  -19.6421  -13.9029 C   0  0  1  0  0  0  0  0  0  0  0  0
   21.8060  -20.4134  -14.4376 C   0  0  0  0  0  0  0  0  0  0  0  0
   20.8772  -20.8149  -13.3575 C   0  0  0  0  0  0  0  0  0  0  0  0
   20.9309  -20.5063  -12.0151 C   0  0  0  0  0  0  0  0  0  0  0  0
   19.8741  -21.0837  -11.3787 N   0  0  0  0  0  0  0  0  0  0  0  0
   19.1709  -21.7432  -12.3106 C   0  0  0  0  0  0  0  0  0  0  0  0
   19.7857  -21.5767  -13.5146 N   0  0  0  0  0  0  0  0  0  0  0  0
   23.7910  -20.5702  -13.0681 C   0  0  0  0  0  0  0  0  0  0  0  0
   24.1993  -21.6534  -13.6225 O   0  0  0  0  0  0  0  0  0  0  0  0
   24.1279  -20.3459  -11.7231 N   0  0  0  0  0  0  0  0  0  0  0  0
   23.7694  -19.1883  -10.9307 C   0  0  0  0  0  0  0  0  0  0  0  0
   24.9963  -19.0839  -10.0041 C   0  0  0  0  0  0  0  0  0  0  0  0
   25.1692  -20.5371   -9.6095 C   0  0  0  0  0  0  0  0  0  0  0  0
   24.9127  -21.2545  -10.9121 C   0  0  1  0  0  0  0  0  0  0  0  0
   24.2718  -22.5624  -10.7439 C   0  0  0  0  0  0  0  0  0  0  0  0
   23.0680  -22.7293  -10.9980 O   0  0  0  0  0  0  0  0  0  0  0  0
   25.0130  -23.6410  -10.2933 O   0  0  0  0  0  0  0  0  0  0  0  0
  2  1  1  0
  3  2  2  0
  4  3  1  0
  5  4  2  0
  5 11  1  0
  6  5  1  0
  7  6  1  0
  7  8  1  1
  9  7  1  0
  9 10  2  0
 11 12  2  0
 12  2  1  0
 13  9  1  0
 14 15  1  6
 14 13  1  0
 16 15  1  0
 16 17  2  0
 16 20  1  0
 17 18  1  0
 18 19  1  0
 20 19  2  0
 21 14  1  0
 22 21  2  0
 23 27  1  0
 23 21  1  0
 24 23  1  0
 25 24  1  0
 25 26  1  0
 26 27  1  0
 27 28  1  1
 28 29  2  0
 28 30  1  0
M  END
$$$$
