YHP.pdb
     RDKit          3D

 30 32  0  0  1  0  0  0  0  0999 V2000
   16.5415  -31.8789  -16.9935 O   0  0  0  0  0  0  0  0  0  0  0  0
   17.9138  -31.8005  -16.8945 C   0  0  0  0  0  0  0  0  0  0  0  0
   18.6286  -30.6976  -17.3282 C   0  0  0  0  0  0  0  0  0  0  0  0
   19.9967  -30.6279  -17.2256 C   0  0  0  0  0  0  0  0  0  0  0  0
   20.6667  -31.6962  -16.6718 C   0  0  0  0  0  0  0  0  0  0  0  0
   22.1422  -31.7017  -16.5310 C   0  0  0  0  0  0  0  0  0  0  0  0
   22.5161  -31.7223  -15.0933 C   0  0  2  0  0  0  0  0  0  0  0  0
   22.1190  -30.4700  -14.4276 N   0  0  0  0  0  0  0  0  0  0  0  0
   23.9637  -31.9224  -14.8461 C   0  0  0  0  0  0  0  0  0  0  0  0
   24.8465  -31.0530  -15.0639 O   0  0  0  0  0  0  0  0  0  0  0  0
   19.9563  -32.7876  -16.2429 C   0  0  0  0  0  0  0  0  0  0  0  0
   18.5901  -32.8623  -16.3429 C   0  0  0  0  0  0  0  0  0  0  0  0
   24.4673  -33.1639  -14.3245 N   0  0  0  0  0  0  0  0  0  0  0  0
   25.8999  -33.3494  -14.0532 C   0  0  1  0  0  0  0  0  0  0  0  0
   26.0763  -34.3321  -12.9149 C   0  0  0  0  0  0  0  0  0  0  0  0
   25.8296  -33.7020  -11.5985 C   0  0  0  0  0  0  0  0  0  0  0  0
   25.7054  -32.3637  -11.2930 C   0  0  0  0  0  0  0  0  0  0  0  0
   25.4833  -32.2267   -9.9562 N   0  0  0  0  0  0  0  0  0  0  0  0
   25.4691  -33.4620   -9.4349 C   0  0  0  0  0  0  0  0  0  0  0  0
   25.6805  -34.3576  -10.4391 N   0  0  0  0  0  0  0  0  0  0  0  0
   26.5253  -33.9427  -15.2574 C   0  0  0  0  0  0  0  0  0  0  0  0
   25.7574  -34.5852  -16.0604 O   0  0  0  0  0  0  0  0  0  0  0  0
   27.8898  -33.8490  -15.5773 N   0  0  0  0  0  0  0  0  0  0  0  0
   28.8984  -33.1277  -14.8297 C   0  0  0  0  0  0  0  0  0  0  0  0
   29.8339  -32.6793  -15.9692 C   0  0  0  0  0  0  0  0  0  0  0  0
   29.9266  -33.9618  -16.7717 C   0  0  0  0  0  0  0  0  0  0  0  0
   28.5042  -34.4644  -16.7362 C   0  0  1  0  0  0  0  0  0  0  0  0
   28.3999  -35.9267  -16.7241 C   0  0  0  0  0  0  0  0  0  0  0  0
   28.0581  -36.5415  -15.7010 O   0  0  0  0  0  0  0  0  0  0  0  0
   28.6858  -36.6482  -17.8702 O   0  0  0  0  0  0  0  0  0  0  0  0
  2  1  1  0
  3  2  2  0
  4  3  1  0
  5  4  2  0
  5 11  1  0
  6  5  1  0
  7  6  1  0
  7  8  1  6
  9  7  1  0
  9 10  2  0
 11 12  2  0
 12  2  1  0
 13  9  1  0
 14 15  1  1
 14 13  1  0
 16 15  1  0
 16 17  2  0
 16 20  1  0
 17 18  1  0
 18 19  1  0
 20 19  2  0
 21 14  1  0
 22 21  2  0
 23 27  1  0
 23 21  1  0
 24 23  1  0
 25 24  1  0
 25 26  1  0
 26 27  1  0
 27 28  1  1
 28 29  2  0
 28 30  1  0
M  END
$$$$
