YHP.pdb
     RDKit          3D

 30 32  0  0  1  0  0  0  0  0999 V2000
   27.8408  -23.1738  -24.0805 O   0  0  0  0  0  0  0  0  0  0  0  0
   27.9070  -22.4825  -22.8901 C   0  0  0  0  0  0  0  0  0  0  0  0
   28.6543  -21.3270  -22.7422 C   0  0  0  0  0  0  0  0  0  0  0  0
   28.7147  -20.6442  -21.5517 C   0  0  0  0  0  0  0  0  0  0  0  0
   28.0047  -21.1355  -20.4787 C   0  0  0  0  0  0  0  0  0  0  0  0
   28.0221  -20.4611  -19.1589 C   0  0  0  0  0  0  0  0  0  0  0  0
   26.7788  -19.6688  -18.9758 C   0  0  2  0  0  0  0  0  0  0  0  0
   26.7655  -18.4959  -19.8664 N   0  0  0  0  0  0  0  0  0  0  0  0
   26.5676  -19.1834  -17.5914 C   0  0  0  0  0  0  0  0  0  0  0  0
   27.2425  -18.2702  -17.0501 O   0  0  0  0  0  0  0  0  0  0  0  0
   27.2651  -22.2803  -20.6279 C   0  0  0  0  0  0  0  0  0  0  0  0
   27.2013  -22.9659  -21.8145 C   0  0  0  0  0  0  0  0  0  0  0  0
   25.5440  -19.7442  -16.7518 N   0  0  0  0  0  0  0  0  0  0  0  0
   25.2779  -19.2017  -15.4119 C   0  0  1  0  0  0  0  0  0  0  0  0
   23.8752  -18.6335  -15.3655 C   0  0  0  0  0  0  0  0  0  0  0  0
   23.7735  -17.3535  -16.1016 C   0  0  0  0  0  0  0  0  0  0  0  0
   24.1177  -16.0869  -15.6803 C   0  0  0  0  0  0  0  0  0  0  0  0
   23.8593  -15.1960  -16.6776 N   0  0  0  0  0  0  0  0  0  0  0  0
   23.3609  -15.8965  -17.7065 C   0  0  0  0  0  0  0  0  0  0  0  0
   23.3105  -17.2104  -17.3511 N   0  0  0  0  0  0  0  0  0  0  0  0
   25.3409  -20.3178  -14.4406 C   0  0  0  0  0  0  0  0  0  0  0  0
   24.7628  -21.4152  -14.7705 O   0  0  0  0  0  0  0  0  0  0  0  0
   25.9861  -20.2568  -13.1944 N   0  0  0  0  0  0  0  0  0  0  0  0
   26.8257  -19.1790  -12.7153 C   0  0  0  0  0  0  0  0  0  0  0  0
   27.8286  -19.9617  -11.8455 C   0  0  0  0  0  0  0  0  0  0  0  0
   26.8862  -20.8865  -11.1013 C   0  0  0  0  0  0  0  0  0  0  0  0
   25.9160  -21.2923  -12.1835 C   0  0  1  0  0  0  0  0  0  0  0  0
   24.5522  -21.5154  -11.6937 C   0  0  0  0  0  0  0  0  0  0  0  0
   23.6453  -20.6960  -11.9117 O   0  0  0  0  0  0  0  0  0  0  0  0
   24.2568  -22.6591  -10.9722 O   0  0  0  0  0  0  0  0  0  0  0  0
  2  1  1  0
  3  2  2  0
  4  3  1  0
  5  4  2  0
  5 11  1  0
  6  5  1  0
  7  6  1  0
  7  8  1  6
  9  7  1  0
  9 10  2  0
 11 12  2  0
 12  2  1  0
 13  9  1  0
 14 15  1  6
 14 13  1  0
 16 15  1  0
 16 17  2  0
 16 20  1  0
 17 18  1  0
 18 19  1  0
 20 19  2  0
 21 14  1  0
 22 21  2  0
 23 27  1  0
 23 21  1  0
 24 23  1  0
 25 24  1  0
 25 26  1  0
 26 27  1  0
 27 28  1  1
 28 29  2  0
 28 30  1  0
M  END
$$$$
