YHP.pdb
     RDKit          3D

 30 32  0  0  1  0  0  0  0  0999 V2000
   30.0425  -14.2372  -18.8071 O   0  0  0  0  0  0  0  0  0  0  0  0
   29.0167  -14.5744  -17.9508 C   0  0  0  0  0  0  0  0  0  0  0  0
   28.0531  -13.6651  -17.5506 C   0  0  0  0  0  0  0  0  0  0  0  0
   27.0339  -14.0099  -16.6967 C   0  0  0  0  0  0  0  0  0  0  0  0
   26.9804  -15.3049  -16.2307 C   0  0  0  0  0  0  0  0  0  0  0  0
   25.9165  -15.7550  -15.3019 C   0  0  0  0  0  0  0  0  0  0  0  0
   24.9618  -16.6431  -16.0138 C   0  0  2  0  0  0  0  0  0  0  0  0
   23.9914  -15.8564  -16.7938 N   0  0  0  0  0  0  0  0  0  0  0  0
   24.1948  -17.5464  -15.1235 C   0  0  0  0  0  0  0  0  0  0  0  0
   23.2393  -17.1776  -14.3931 O   0  0  0  0  0  0  0  0  0  0  0  0
   27.9361  -16.2038  -16.6288 C   0  0  0  0  0  0  0  0  0  0  0  0
   28.9559  -15.8647  -17.4814 C   0  0  0  0  0  0  0  0  0  0  0  0
   24.5047  -18.9475  -15.0354 N   0  0  0  0  0  0  0  0  0  0  0  0
   23.7691  -19.8329  -14.1214 C   0  0  1  0  0  0  0  0  0  0  0  0
   22.9832  -20.8483  -14.9238 C   0  0  0  0  0  0  0  0  0  0  0  0
   21.8201  -20.2344  -15.6029 C   0  0  0  0  0  0  0  0  0  0  0  0
   20.6097  -19.8534  -15.0646 C   0  0  0  0  0  0  0  0  0  0  0  0
   19.8253  -19.3307  -16.0478 N   0  0  0  0  0  0  0  0  0  0  0  0
   20.5360  -19.3849  -17.1835 C   0  0  0  0  0  0  0  0  0  0  0  0
   21.7506  -19.9362  -16.9077 N   0  0  0  0  0  0  0  0  0  0  0  0
   24.7555  -20.5755  -13.3037 C   0  0  0  0  0  0  0  0  0  0  0  0
   25.8217  -20.9781  -13.8940 O   0  0  0  0  0  0  0  0  0  0  0  0
   24.6044  -20.8650  -11.9375 N   0  0  0  0  0  0  0  0  0  0  0  0
   23.5088  -20.4466  -11.0883 C   0  0  0  0  0  0  0  0  0  0  0  0
   24.2377  -20.2814   -9.7406 C   0  0  0  0  0  0  0  0  0  0  0  0
   25.0759  -21.5441   -9.7230 C   0  0  0  0  0  0  0  0  0  0  0  0
   25.5496  -21.6332  -11.1529 C   0  0  1  0  0  0  0  0  0  0  0  0
   25.7008  -23.0094  -11.6350 C   0  0  0  0  0  0  0  0  0  0  0  0
   24.8557  -23.5289  -12.3818 O   0  0  0  0  0  0  0  0  0  0  0  0
   26.8038  -23.7555  -11.2572 O   0  0  0  0  0  0  0  0  0  0  0  0
  2  1  1  0
  3  2  2  0
  4  3  1  0
  5  4  2  0
  5 11  1  0
  6  5  1  0
  7  6  1  0
  7  8  1  1
  9  7  1  0
  9 10  2  0
 11 12  2  0
 12  2  1  0
 13  9  1  0
 14 15  1  6
 14 13  1  0
 16 15  1  0
 16 17  2  0
 16 20  1  0
 17 18  1  0
 18 19  1  0
 20 19  2  0
 21 14  1  0
 22 21  2  0
 23 27  1  0
 23 21  1  0
 24 23  1  0
 25 24  1  0
 25 26  1  0
 26 27  1  0
 27 28  1  6
 28 29  2  0
 28 30  1  0
M  END
$$$$
