PCK.pdb
     RDKit          3D

 23 23  0  0  1  0  0  0  0  0999 V2000
   23.4478   -9.4427  -16.5545 N   0  0  0  0  0  0  0  0  0  0  0  0
   24.1142  -10.7006  -16.8848 C   0  0  0  0  0  0  0  0  0  0  0  0
   24.2538  -11.4684  -15.6039 C   0  0  0  0  0  0  0  0  0  0  0  0
   23.5750  -10.5724  -14.5594 C   0  0  0  0  0  0  0  0  0  0  0  0
   22.6183   -9.7989  -15.4196 C   0  0  1  0  0  0  0  0  0  0  0  0
   22.0727   -8.5944  -14.7483 C   0  0  0  0  0  0  0  0  0  0  0  0
   21.2888   -8.7474  -13.7760 O   0  0  0  0  0  0  0  0  0  0  0  0
   22.3801   -7.2736  -15.1351 N   0  0  0  0  0  0  0  0  0  0  0  0
   21.7591   -6.0915  -14.5700 C   0  0  1  0  0  0  0  0  0  0  0  0
   22.9025   -5.1002  -14.3170 C   0  0  0  0  0  0  0  0  0  0  0  0
   22.1126   -3.6279  -13.5681 S   0  0  0  0  0  0  0  0  0  0  0  0
   20.7471   -5.5091  -15.4767 C   0  0  0  0  0  0  0  0  0  0  0  0
   21.0539   -5.3317  -16.6778 O   0  0  0  0  0  0  0  0  0  0  0  0
   19.4496   -5.1436  -15.0493 N   0  0  0  0  0  0  0  0  0  0  0  0
   18.4589   -4.5504  -15.9554 C   0  0  1  0  0  0  0  0  0  0  0  0
   17.2980   -5.4944  -16.0519 C   0  0  0  0  0  0  0  0  0  0  0  0
   16.1984   -5.0263  -16.9455 C   0  0  0  0  0  0  0  0  0  0  0  0
   15.1338   -6.1225  -17.0445 C   0  0  0  0  0  0  0  0  0  0  0  0
   14.0170   -5.6911  -17.9729 C   0  0  0  0  0  0  0  0  0  0  0  0
   13.0712   -6.7363  -18.2172 N   0  0  0  0  0  0  0  0  0  0  0  0
   18.0187   -3.2432  -15.4633 C   0  0  0  0  0  0  0  0  0  0  0  0
   18.1345   -2.9770  -14.2391 O   0  0  0  0  0  0  0  0  0  0  0  0
   17.4800   -2.2741  -16.2766 O   0  0  0  0  0  0  0  0  0  0  0  0
  1  2  1  0
  2  3  1  0
  4  3  1  0
  5  1  1  0
  5  4  1  0
  5  6  1  1
  6  7  2  0
  8  6  1  0
  9  8  1  0
  9 12  1  0
  9 10  1  6
 11 10  1  0
 12 14  1  0
 13 12  2  0
 14 15  1  0
 15 21  1  0
 16 17  1  0
 15 16  1  1
 18 19  1  0
 18 17  1  0
 19 20  1  0
 21 22  2  0
 21 23  1  0
M  END
$$$$
