PCK.pdb
     RDKit          3D

 23 23  0  0  1  0  0  0  0  0999 V2000
   20.5360  -10.6202  -18.6016 N   0  0  0  0  0  0  0  0  0  0  0  0
   20.0372  -11.8109  -19.2861 C   0  0  0  0  0  0  0  0  0  0  0  0
   20.6553  -12.9956  -18.6047 C   0  0  0  0  0  0  0  0  0  0  0  0
   21.4845  -12.3790  -17.4704 C   0  0  0  0  0  0  0  0  0  0  0  0
   20.7530  -11.0875  -17.2461 C   0  0  1  0  0  0  0  0  0  0  0  0
   21.5314  -10.1058  -16.4527 C   0  0  0  0  0  0  0  0  0  0  0  0
   21.6959  -10.3170  -15.2233 O   0  0  0  0  0  0  0  0  0  0  0  0
   22.1055   -8.9376  -16.9950 N   0  0  0  0  0  0  0  0  0  0  0  0
   22.7906   -7.9258  -16.2144 C   0  0  1  0  0  0  0  0  0  0  0  0
   23.8003   -7.2753  -17.1690 C   0  0  0  0  0  0  0  0  0  0  0  0
   24.5885   -5.9344  -16.2028 S   0  0  0  0  0  0  0  0  0  0  0  0
   21.8560   -6.9186  -15.6690 C   0  0  0  0  0  0  0  0  0  0  0  0
   20.9995   -6.4223  -16.4362 O   0  0  0  0  0  0  0  0  0  0  0  0
   21.8854   -6.4907  -14.3215 N   0  0  0  0  0  0  0  0  0  0  0  0
   20.9158   -5.5325  -13.7772 C   0  0  1  0  0  0  0  0  0  0  0  0
   20.1587   -6.2160  -12.6781 C   0  0  0  0  0  0  0  0  0  0  0  0
   19.0471   -5.4045  -12.1014 C   0  0  0  0  0  0  0  0  0  0  0  0
   18.2794   -6.2575  -11.0876 C   0  0  0  0  0  0  0  0  0  0  0  0
   17.1579   -5.4528  -10.4629 C   0  0  0  0  0  0  0  0  0  0  0  0
   16.4368   -6.1921   -9.4729 N   0  0  0  0  0  0  0  0  0  0  0  0
   21.5925   -4.3374  -13.2688 C   0  0  0  0  0  0  0  0  0  0  0  0
   22.7432   -4.4477  -12.7720 O   0  0  0  0  0  0  0  0  0  0  0  0
   21.0339   -3.0815  -13.3067 O   0  0  0  0  0  0  0  0  0  0  0  0
  1  2  1  0
  2  3  1  0
  4  3  1  0
  5  1  1  0
  5  4  1  0
  5  6  1  1
  6  7  2  0
  8  6  1  0
  9  8  1  0
  9 12  1  0
  9 10  1  6
 11 10  1  0
 12 14  1  0
 13 12  2  0
 14 15  1  0
 15 21  1  0
 16 17  1  0
 15 16  1  1
 18 19  1  0
 18 17  1  0
 19 20  1  0
 21 22  2  0
 21 23  1  0
M  END
$$$$
