PCK.pdb
     RDKit          3D

 23 23  0  0  1  0  0  0  0  0999 V2000
   22.5579  -11.0607  -19.4915 N   0  0  0  0  0  0  0  0  0  0  0  0
   22.2515  -12.0021  -20.5664 C   0  0  0  0  0  0  0  0  0  0  0  0
   21.2791  -12.9985  -20.0082 C   0  0  0  0  0  0  0  0  0  0  0  0
   21.0334  -12.5121  -18.5738 C   0  0  0  0  0  0  0  0  0  0  0  0
   21.3374  -11.0483  -18.7083 C   0  0  1  0  0  0  0  0  0  0  0  0
   21.5376  -10.3713  -17.4042 C   0  0  0  0  0  0  0  0  0  0  0  0
   20.5311  -10.1242  -16.6909 O   0  0  0  0  0  0  0  0  0  0  0  0
   22.7988   -9.9825  -16.9075 N   0  0  0  0  0  0  0  0  0  0  0  0
   23.0040   -9.2954  -15.6472 C   0  0  1  0  0  0  0  0  0  0  0  0
   24.4599   -9.5748  -15.2520 C   0  0  0  0  0  0  0  0  0  0  0  0
   25.4780   -8.7021  -16.4988 S   0  0  0  0  0  0  0  0  0  0  0  0
   22.7580   -7.8421  -15.7611 C   0  0  0  0  0  0  0  0  0  0  0  0
   22.6250   -7.3474  -16.9038 O   0  0  0  0  0  0  0  0  0  0  0  0
   22.6662   -6.9864  -14.6390 N   0  0  0  0  0  0  0  0  0  0  0  0
   22.3458   -5.5591  -14.7602 C   0  0  1  0  0  0  0  0  0  0  0  0
   20.9630   -5.4430  -15.3282 C   0  0  0  0  0  0  0  0  0  0  0  0
   20.4227   -4.0522  -15.3498 C   0  0  0  0  0  0  0  0  0  0  0  0
   19.0156   -4.0719  -15.9534 C   0  0  0  0  0  0  0  0  0  0  0  0
   18.4475   -2.6687  -16.0136 C   0  0  0  0  0  0  0  0  0  0  0  0
   17.2055   -2.6087  -16.7210 N   0  0  0  0  0  0  0  0  0  0  0  0
   22.4236   -4.8946  -13.4575 C   0  0  0  0  0  0  0  0  0  0  0  0
   22.4267   -3.6374  -13.4085 O   0  0  0  0  0  0  0  0  0  0  0  0
   22.4919   -5.5776  -12.2660 O   0  0  0  0  0  0  0  0  0  0  0  0
  1  2  1  0
  2  3  1  0
  4  3  1  0
  5  1  1  0
  5  4  1  0
  5  6  1  1
  6  7  2  0
  8  6  1  0
  9  8  1  0
  9 12  1  0
  9 10  1  6
 11 10  1  0
 12 14  1  0
 13 12  2  0
 14 15  1  0
 15 21  1  0
 16 17  1  0
 15 16  1  1
 18 19  1  0
 18 17  1  0
 19 20  1  0
 21 22  2  0
 21 23  1  0
M  END
$$$$
