PCK.pdb
     RDKit          3D

 23 23  0  0  1  0  0  0  0  0999 V2000
   23.0166   -9.1409  -16.5591 N   0  0  0  0  0  0  0  0  0  0  0  0
   23.6660  -10.3466  -17.0690 C   0  0  0  0  0  0  0  0  0  0  0  0
   23.0557  -11.5092  -16.3441 C   0  0  0  0  0  0  0  0  0  0  0  0
   21.9944  -10.8666  -15.4413 C   0  0  0  0  0  0  0  0  0  0  0  0
   21.6912   -9.6082  -16.2014 C   0  0  1  0  0  0  0  0  0  0  0  0
   20.9610   -8.6005  -15.3949 C   0  0  0  0  0  0  0  0  0  0  0  0
   19.7809   -8.8520  -15.0382 O   0  0  0  0  0  0  0  0  0  0  0  0
   21.5116   -7.3645  -14.9981 N   0  0  0  0  0  0  0  0  0  0  0  0
   20.7904   -6.3501  -14.2543 C   0  0  1  0  0  0  0  0  0  0  0  0
   21.8442   -5.6271  -13.4054 C   0  0  0  0  0  0  0  0  0  0  0  0
   22.9788   -4.8386  -14.6069 S   0  0  0  0  0  0  0  0  0  0  0  0
   20.0898   -5.4014  -15.1457 C   0  0  0  0  0  0  0  0  0  0  0  0
   20.6251   -5.1026  -16.2377 O   0  0  0  0  0  0  0  0  0  0  0  0
   18.8437   -4.8168  -14.8213 N   0  0  0  0  0  0  0  0  0  0  0  0
   18.1754   -3.8477  -15.6981 C   0  0  1  0  0  0  0  0  0  0  0  0
   16.7015   -4.1190  -15.6471 C   0  0  0  0  0  0  0  0  0  0  0  0
   16.2391   -5.1788  -16.5903 C   0  0  0  0  0  0  0  0  0  0  0  0
   15.3395   -6.1617  -15.8356 C   0  0  0  0  0  0  0  0  0  0  0  0
   14.8973   -7.2834  -16.7530 C   0  0  0  0  0  0  0  0  0  0  0  0
   14.0750   -8.2460  -16.0868 N   0  0  0  0  0  0  0  0  0  0  0  0
   18.4603   -2.4758  -15.2724 C   0  0  0  0  0  0  0  0  0  0  0  0
   18.3841   -2.1834  -14.0511 O   0  0  0  0  0  0  0  0  0  0  0  0
   18.8147   -1.4742  -16.1452 O   0  0  0  0  0  0  0  0  0  0  0  0
  1  2  1  0
  2  3  1  0
  4  3  1  0
  5  1  1  0
  5  4  1  0
  5  6  1  1
  6  7  2  0
  8  6  1  0
  9  8  1  0
  9 12  1  0
  9 10  1  6
 11 10  1  0
 12 14  1  0
 13 12  2  0
 14 15  1  0
 15 21  1  0
 16 17  1  0
 15 16  1  1
 18 19  1  0
 18 17  1  0
 19 20  1  0
 21 22  2  0
 21 23  1  0
M  END
$$$$
