PCK.pdb
     RDKit          3D

 23 23  0  0  1  0  0  0  0  0999 V2000
   19.8522  -11.7918  -17.7087 N   0  0  0  0  0  0  0  0  0  0  0  0
   19.0462  -12.7850  -18.4153 C   0  0  0  0  0  0  0  0  0  0  0  0
   18.2481  -13.5163  -17.3770 C   0  0  0  0  0  0  0  0  0  0  0  0
   18.6306  -12.8250  -16.0616 C   0  0  0  0  0  0  0  0  0  0  0  0
   19.0353  -11.4665  -16.5555 C   0  0  1  0  0  0  0  0  0  0  0  0
   19.7996  -10.6848  -15.5536 C   0  0  0  0  0  0  0  0  0  0  0  0
   19.1878  -10.2134  -14.5603 O   0  0  0  0  0  0  0  0  0  0  0  0
   21.1842  -10.4336  -15.6444 N   0  0  0  0  0  0  0  0  0  0  0  0
   21.9227   -9.5871  -14.7277 C   0  0  1  0  0  0  0  0  0  0  0  0
   23.3774  -10.0703  -14.7938 C   0  0  0  0  0  0  0  0  0  0  0  0
   23.8933   -9.8225  -16.5331 S   0  0  0  0  0  0  0  0  0  0  0  0
   21.8248   -8.1575  -15.0913 C   0  0  0  0  0  0  0  0  0  0  0  0
   21.5203   -7.8611  -16.2693 O   0  0  0  0  0  0  0  0  0  0  0  0
   22.0592   -7.1108  -14.1698 N   0  0  0  0  0  0  0  0  0  0  0  0
   21.8928   -5.6962  -14.5244 C   0  0  1  0  0  0  0  0  0  0  0  0
   20.4581   -5.4811  -14.9034 C   0  0  0  0  0  0  0  0  0  0  0  0
   20.1175   -4.0684  -15.2422 C   0  0  0  0  0  0  0  0  0  0  0  0
   18.6334   -3.9864  -15.6104 C   0  0  0  0  0  0  0  0  0  0  0  0
   18.2711   -2.5767  -16.0310 C   0  0  0  0  0  0  0  0  0  0  0  0
   16.8972   -2.4525  -16.4099 N   0  0  0  0  0  0  0  0  0  0  0  0
   22.2633   -4.8302  -13.4030 C   0  0  0  0  0  0  0  0  0  0  0  0
   22.3359   -3.5873  -13.5848 O   0  0  0  0  0  0  0  0  0  0  0  0
   22.5379   -5.3057  -12.1424 O   0  0  0  0  0  0  0  0  0  0  0  0
  1  2  1  0
  2  3  1  0
  4  3  1  0
  5  1  1  0
  5  4  1  0
  5  6  1  1
  6  7  2  0
  8  6  1  0
  9  8  1  0
  9 12  1  0
  9 10  1  6
 11 10  1  0
 12 14  1  0
 13 12  2  0
 14 15  1  0
 15 21  1  0
 16 17  1  0
 15 16  1  1
 18 19  1  0
 18 17  1  0
 19 20  1  0
 21 22  2  0
 21 23  1  0
M  END
$$$$
