PCK.pdb
     RDKit          3D

 23 23  0  0  1  0  0  0  0  0999 V2000
   22.6640   -9.7374  -18.3221 N   0  0  0  0  0  0  0  0  0  0  0  0
   22.9877  -10.8945  -19.1537 C   0  0  0  0  0  0  0  0  0  0  0  0
   23.4770  -11.9707  -18.2306 C   0  0  0  0  0  0  0  0  0  0  0  0
   23.3520  -11.3459  -16.8347 C   0  0  0  0  0  0  0  0  0  0  0  0
   22.2630  -10.3387  -17.0649 C   0  0  1  0  0  0  0  0  0  0  0  0
   22.1672   -9.3256  -15.9862 C   0  0  0  0  0  0  0  0  0  0  0  0
   21.7930   -9.6940  -14.8428 O   0  0  0  0  0  0  0  0  0  0  0  0
   22.4723   -7.9603  -16.1627 N   0  0  0  0  0  0  0  0  0  0  0  0
   22.3726   -6.9593  -15.1185 C   0  0  1  0  0  0  0  0  0  0  0  0
   23.1652   -5.7474  -15.6254 C   0  0  0  0  0  0  0  0  0  0  0  0
   23.0944   -4.5187  -14.2697 S   0  0  0  0  0  0  0  0  0  0  0  0
   20.9693   -6.5908  -14.8351 C   0  0  0  0  0  0  0  0  0  0  0  0
   20.1989   -6.3886  -15.8015 O   0  0  0  0  0  0  0  0  0  0  0  0
   20.4581   -6.4563  -13.5235 N   0  0  0  0  0  0  0  0  0  0  0  0
   19.0535   -6.1258  -13.2548 C   0  0  1  0  0  0  0  0  0  0  0  0
   18.6179   -6.9062  -12.0508 C   0  0  0  0  0  0  0  0  0  0  0  0
   17.2065   -6.6573  -11.6353 C   0  0  0  0  0  0  0  0  0  0  0  0
   16.9200   -7.4346  -10.3475 C   0  0  0  0  0  0  0  0  0  0  0  0
   15.4643   -7.2869   -9.9547 C   0  0  0  0  0  0  0  0  0  0  0  0
   15.1554   -7.9565   -8.7288 N   0  0  0  0  0  0  0  0  0  0  0  0
   18.8910   -4.6891  -13.0221 C   0  0  0  0  0  0  0  0  0  0  0  0
   17.7378   -4.1874  -13.0597 O   0  0  0  0  0  0  0  0  0  0  0  0
   19.9436   -3.8446  -12.7581 O   0  0  0  0  0  0  0  0  0  0  0  0
  1  2  1  0
  2  3  1  0
  4  3  1  0
  5  1  1  0
  5  4  1  0
  5  6  1  1
  6  7  2  0
  8  6  1  0
  9  8  1  0
  9 12  1  0
  9 10  1  6
 11 10  1  0
 12 14  1  0
 13 12  2  0
 14 15  1  0
 15 21  1  0
 16 17  1  0
 15 16  1  1
 18 19  1  0
 18 17  1  0
 19 20  1  0
 21 22  2  0
 21 23  1  0
M  END
$$$$
