PCK.pdb
     RDKit          3D

 23 23  0  0  1  0  0  0  0  0999 V2000
   24.7003  -12.5876  -15.9499 N   0  0  0  0  0  0  0  0  0  0  0  0
   25.3018  -13.9115  -15.8052 C   0  0  0  0  0  0  0  0  0  0  0  0
   24.2990  -14.9032  -16.3156 C   0  0  0  0  0  0  0  0  0  0  0  0
   23.1300  -14.0334  -16.7966 C   0  0  0  0  0  0  0  0  0  0  0  0
   23.8355  -12.7444  -17.1034 C   0  0  1  0  0  0  0  0  0  0  0  0
   22.9118  -11.5934  -17.2482 C   0  0  0  0  0  0  0  0  0  0  0  0
   22.0014  -11.6544  -18.1146 O   0  0  0  0  0  0  0  0  0  0  0  0
   22.9899  -10.4216  -16.4676 N   0  0  0  0  0  0  0  0  0  0  0  0
   22.0522   -9.3190  -16.5531 C   0  0  1  0  0  0  0  0  0  0  0  0
   20.7310   -9.8498  -15.9815 C   0  0  0  0  0  0  0  0  0  0  0  0
   21.0627  -10.1723  -14.2099 S   0  0  0  0  0  0  0  0  0  0  0  0
   22.5163   -8.1360  -15.7977 C   0  0  0  0  0  0  0  0  0  0  0  0
   23.2515   -8.3161  -14.8001 O   0  0  0  0  0  0  0  0  0  0  0  0
   22.1677   -6.8117  -16.1504 N   0  0  0  0  0  0  0  0  0  0  0  0
   22.8230   -5.6395  -15.5579 C   0  0  1  0  0  0  0  0  0  0  0  0
   22.8892   -4.5690  -16.6057 C   0  0  0  0  0  0  0  0  0  0  0  0
   23.4305   -3.2662  -16.1193 C   0  0  0  0  0  0  0  0  0  0  0  0
   23.3667   -2.2426  -17.2563 C   0  0  0  0  0  0  0  0  0  0  0  0
   23.9065   -0.9049  -16.7929 C   0  0  0  0  0  0  0  0  0  0  0  0
   23.9444    0.0658  -17.8431 N   0  0  0  0  0  0  0  0  0  0  0  0
   22.0843   -5.1660  -14.3855 C   0  0  0  0  0  0  0  0  0  0  0  0
   20.8517   -5.4031  -14.2991 O   0  0  0  0  0  0  0  0  0  0  0  0
   22.6713   -4.4683  -13.3562 O   0  0  0  0  0  0  0  0  0  0  0  0
  1  2  1  0
  2  3  1  0
  4  3  1  0
  5  1  1  0
  5  4  1  0
  5  6  1  1
  6  7  2  0
  8  6  1  0
  9  8  1  0
  9 12  1  0
  9 10  1  1
 11 10  1  0
 12 14  1  0
 13 12  2  0
 14 15  1  0
 15 21  1  0
 16 17  1  0
 15 16  1  6
 18 19  1  0
 18 17  1  0
 19 20  1  0
 21 22  2  0
 21 23  1  0
M  END
$$$$
