MEF.pdb
     RDKit          3D

 29 29  0  0  1  0  0  0  0  0999 V2000
    5.8983  -12.9893   26.3539 C   0  0  0  0  0  0  0  0  0  0  0  0
    6.6507  -12.5922   24.7503 S   0  0  0  0  0  0  0  0  0  0  0  0
    6.7053  -14.0234   23.6847 C   0  0  0  0  0  0  0  0  0  0  0  0
    7.4824  -13.8054   22.4165 C   0  0  0  0  0  0  0  0  0  0  0  0
    7.5652  -15.0472   21.5624 C   0  0  2  0  0  0  0  0  0  0  0  0
    6.2476  -15.5503   21.2160 N   0  0  0  0  0  0  0  0  0  0  0  0
    8.3010  -16.1390   22.2519 C   0  0  0  0  0  0  0  0  0  0  0  0
    7.6920  -17.0620   22.8656 O   0  0  0  0  0  0  0  0  0  0  0  0
    9.7258  -16.1965   22.2534 N   0  0  0  0  0  0  0  0  0  0  0  0
   10.4480  -17.3060   22.8949 C   0  0  1  0  0  0  0  0  0  0  0  0
   11.7378  -17.4405   22.1603 C   0  0  0  0  0  0  0  0  0  0  0  0
   11.6890  -18.2016   20.8815 C   0  0  0  0  0  0  0  0  0  0  0  0
   12.9865  -18.3031   20.1776 C   0  0  0  0  0  0  0  0  0  0  0  0
   13.1351  -17.9558   18.9813 O   0  0  0  0  0  0  0  0  0  0  0  0
   10.7363  -16.8694   24.2933 C   0  0  0  0  0  0  0  0  0  0  0  0
   11.4826  -15.8556   24.4041 O   0  0  0  0  0  0  0  0  0  0  0  0
   14.0633  -18.8154   20.9237 O   0  0  0  0  0  0  0  0  0  0  0  0
   10.2036  -17.5537   25.4071 N   0  0  0  0  0  0  0  0  0  0  0  0
   10.6562  -17.2705   26.7448 C   0  0  1  0  0  0  0  0  0  0  0  0
    9.5662  -16.5586   27.4713 C   0  0  0  0  0  0  0  0  0  0  0  0
    9.6921  -15.0805   27.4662 C   0  0  0  0  0  0  0  0  0  0  0  0
   10.7464  -14.4844   28.1184 C   0  0  0  0  0  0  0  0  0  0  0  0
   10.8553  -13.1093   28.1053 C   0  0  0  0  0  0  0  0  0  0  0  0
    9.9543  -12.2852   27.4663 C   0  0  0  0  0  0  0  0  0  0  0  0
    8.9058  -12.8976   26.8187 C   0  0  0  0  0  0  0  0  0  0  0  0
    8.7861  -14.2687   26.8245 C   0  0  0  0  0  0  0  0  0  0  0  0
   11.1490  -18.4956   27.3944 C   0  0  0  0  0  0  0  0  0  0  0  0
   11.0187  -19.7378   26.7923 O   0  0  0  0  0  0  0  0  0  0  0  0
   11.7034  -18.4519   28.5167 O   0  0  0  0  0  0  0  0  0  0  0  0
  2  1  1  0
  3  4  1  0
  3  2  1  0
  4  5  1  0
  5  6  1  1
  7  8  2  0
  7  5  1  0
  9  7  1  0
 10  9  1  0
 10 11  1  6
 12 13  1  0
 12 11  1  0
 13 14  2  0
 15 10  1  0
 16 15  2  0
 17 13  1  0
 18 15  1  0
 19 18  1  0
 19 20  1  1
 20 21  1  0
 21 26  2  0
 21 22  1  0
 22 23  2  0
 23 24  1  0
 25 24  2  0
 26 25  1  0
 27 19  1  0
 28 27  1  0
 29 27  2  0
M  END
$$$$
