MEF.pdb
     RDKit          3D

 29 29  0  0  1  0  0  0  0  0999 V2000
    8.3324  -11.2370   26.1652 C   0  0  0  0  0  0  0  0  0  0  0  0
    6.6945  -11.6830   25.5221 S   0  0  0  0  0  0  0  0  0  0  0  0
    6.2765  -13.3720   25.9211 C   0  0  0  0  0  0  0  0  0  0  0  0
    7.3871  -14.3500   25.6561 C   0  0  0  0  0  0  0  0  0  0  0  0
    6.9719  -15.4670   24.7297 C   0  0  2  0  0  0  0  0  0  0  0  0
    5.8504  -16.2195   25.2635 N   0  0  0  0  0  0  0  0  0  0  0  0
    8.0852  -16.4215   24.4882 C   0  0  0  0  0  0  0  0  0  0  0  0
    8.3087  -17.3886   25.2720 O   0  0  0  0  0  0  0  0  0  0  0  0
    8.9518  -16.2915   23.3634 N   0  0  0  0  0  0  0  0  0  0  0  0
   10.1082  -17.1819   23.1790 C   0  0  1  0  0  0  0  0  0  0  0  0
   10.6492  -16.8832   21.8228 C   0  0  0  0  0  0  0  0  0  0  0  0
   11.8333  -17.6796   21.3980 C   0  0  0  0  0  0  0  0  0  0  0  0
   12.2617  -17.4453   20.0012 C   0  0  0  0  0  0  0  0  0  0  0  0
   12.7780  -16.3656   19.6250 O   0  0  0  0  0  0  0  0  0  0  0  0
   11.1205  -16.7758   24.1988 C   0  0  0  0  0  0  0  0  0  0  0  0
   11.5733  -15.6021   24.0787 O   0  0  0  0  0  0  0  0  0  0  0  0
   12.0603  -18.5062   19.1000 O   0  0  0  0  0  0  0  0  0  0  0  0
   11.5339  -17.6552   25.2226 N   0  0  0  0  0  0  0  0  0  0  0  0
   12.3986  -17.2111   26.2853 C   0  0  1  0  0  0  0  0  0  0  0  0
   11.6590  -17.3253   27.5748 C   0  0  0  0  0  0  0  0  0  0  0  0
   10.5354  -16.3680   27.7217 C   0  0  0  0  0  0  0  0  0  0  0  0
   10.7859  -15.0835   28.1454 C   0  0  0  0  0  0  0  0  0  0  0  0
    9.7340  -14.2007   28.2763 C   0  0  0  0  0  0  0  0  0  0  0  0
    8.4258  -14.5368   28.0028 C   0  0  0  0  0  0  0  0  0  0  0  0
    8.1927  -15.8255   27.5800 C   0  0  0  0  0  0  0  0  0  0  0  0
    9.2337  -16.7157   27.4454 C   0  0  0  0  0  0  0  0  0  0  0  0
   13.6870  -17.9206   26.2345 C   0  0  0  0  0  0  0  0  0  0  0  0
   14.7381  -17.5748   27.0701 O   0  0  0  0  0  0  0  0  0  0  0  0
   13.8730  -18.8625   25.4302 O   0  0  0  0  0  0  0  0  0  0  0  0
  2  1  1  0
  3  4  1  0
  3  2  1  0
  4  5  1  0
  5  6  1  1
  7  8  2  0
  7  5  1  0
  9  7  1  0
 10  9  1  0
 10 11  1  6
 12 13  1  0
 12 11  1  0
 13 14  2  0
 15 10  1  0
 16 15  2  0
 17 13  1  0
 18 15  1  0
 19 18  1  0
 19 20  1  1
 20 21  1  0
 21 26  2  0
 21 22  1  0
 22 23  2  0
 23 24  1  0
 25 24  2  0
 26 25  1  0
 27 19  1  0
 28 27  1  0
 29 27  2  0
M  END
$$$$
