MEF.pdb
     RDKit          3D

 29 29  0  0  1  0  0  0  0  0999 V2000
    7.5439  -11.3928   20.2527 C   0  0  0  0  0  0  0  0  0  0  0  0
    7.1321  -11.9628   21.9262 S   0  0  0  0  0  0  0  0  0  0  0  0
    7.0192  -13.7428   21.9981 C   0  0  0  0  0  0  0  0  0  0  0  0
    7.5478  -14.4336   20.7720 C   0  0  0  0  0  0  0  0  0  0  0  0
    7.3227  -15.9259   20.8006 C   0  0  2  0  0  0  0  0  0  0  0  0
    5.9122  -16.2549   20.9079 N   0  0  0  0  0  0  0  0  0  0  0  0
    8.0260  -16.5648   21.9434 C   0  0  0  0  0  0  0  0  0  0  0  0
    7.3897  -17.0667   22.9143 O   0  0  0  0  0  0  0  0  0  0  0  0
    9.4487  -16.6415   21.9982 N   0  0  0  0  0  0  0  0  0  0  0  0
   10.1344  -17.4612   23.0091 C   0  0  1  0  0  0  0  0  0  0  0  0
   11.5584  -17.5464   22.5773 C   0  0  0  0  0  0  0  0  0  0  0  0
   12.4596  -18.3566   23.4423 C   0  0  0  0  0  0  0  0  0  0  0  0
   13.8341  -18.5156   22.9180 C   0  0  0  0  0  0  0  0  0  0  0  0
   14.3985  -19.6326   22.8298 O   0  0  0  0  0  0  0  0  0  0  0  0
   10.0669  -16.6960   24.2895 C   0  0  0  0  0  0  0  0  0  0  0  0
   10.5511  -15.5293   24.2525 O   0  0  0  0  0  0  0  0  0  0  0  0
   14.4895  -17.3376   22.5165 O   0  0  0  0  0  0  0  0  0  0  0  0
    9.4973  -17.2523   25.4551 N   0  0  0  0  0  0  0  0  0  0  0  0
    9.5917  -16.5817   26.7263 C   0  0  1  0  0  0  0  0  0  0  0  0
    8.2500  -16.0298   27.0698 C   0  0  0  0  0  0  0  0  0  0  0  0
    8.0270  -14.6363   26.6124 C   0  0  0  0  0  0  0  0  0  0  0  0
    8.9712  -13.6723   26.8797 C   0  0  0  0  0  0  0  0  0  0  0  0
    8.7548  -12.3802   26.4477 C   0  0  0  0  0  0  0  0  0  0  0  0
    7.6294  -11.9933   25.7526 C   0  0  0  0  0  0  0  0  0  0  0  0
    6.6951  -12.9700   25.4936 C   0  0  0  0  0  0  0  0  0  0  0  0
    6.8993  -14.2628   25.9193 C   0  0  0  0  0  0  0  0  0  0  0  0
   10.1832  -17.4718   27.7380 C   0  0  0  0  0  0  0  0  0  0  0  0
   10.1300  -18.8514   27.6095 O   0  0  0  0  0  0  0  0  0  0  0  0
   10.7549  -17.0067   28.7507 O   0  0  0  0  0  0  0  0  0  0  0  0
  2  1  1  0
  3  4  1  0
  3  2  1  0
  4  5  1  0
  5  6  1  1
  7  8  2  0
  7  5  1  0
  9  7  1  0
 10  9  1  0
 10 11  1  6
 12 13  1  0
 12 11  1  0
 13 14  2  0
 15 10  1  0
 16 15  2  0
 17 13  1  0
 18 15  1  0
 19 18  1  0
 19 20  1  1
 20 21  1  0
 21 26  2  0
 21 22  1  0
 22 23  2  0
 23 24  1  0
 25 24  2  0
 26 25  1  0
 27 19  1  0
 28 27  1  0
 29 27  2  0
M  END
$$$$
