MEF.pdb
     RDKit          3D

 29 29  0  0  1  0  0  0  0  0999 V2000
    7.8089  -12.2024   18.0278 C   0  0  0  0  0  0  0  0  0  0  0  0
    7.3485  -12.6161   19.7343 S   0  0  0  0  0  0  0  0  0  0  0  0
    6.3018  -14.0609   19.7940 C   0  0  0  0  0  0  0  0  0  0  0  0
    6.6645  -15.0271   20.8871 C   0  0  0  0  0  0  0  0  0  0  0  0
    8.0124  -14.7350   21.5004 C   0  0  2  0  0  0  0  0  0  0  0  0
    9.0615  -14.6913   20.4971 N   0  0  0  0  0  0  0  0  0  0  0  0
    8.3903  -15.7602   22.5079 C   0  0  0  0  0  0  0  0  0  0  0  0
    7.5777  -16.1437   23.3978 O   0  0  0  0  0  0  0  0  0  0  0  0
    9.6848  -16.3580   22.5179 N   0  0  0  0  0  0  0  0  0  0  0  0
   10.0571  -17.3645   23.5241 C   0  0  1  0  0  0  0  0  0  0  0  0
   11.3927  -17.8847   23.1154 C   0  0  0  0  0  0  0  0  0  0  0  0
   11.9874  -18.9295   23.9938 C   0  0  0  0  0  0  0  0  0  0  0  0
   13.2862  -19.4602   23.5239 C   0  0  0  0  0  0  0  0  0  0  0  0
   13.4067  -20.0984   22.4505 O   0  0  0  0  0  0  0  0  0  0  0  0
   10.2029  -16.6339   24.8180 C   0  0  0  0  0  0  0  0  0  0  0  0
   10.9095  -15.5871   24.7754 O   0  0  0  0  0  0  0  0  0  0  0  0
   14.3976  -19.2123   24.3495 O   0  0  0  0  0  0  0  0  0  0  0  0
    9.5865  -17.0942   26.0015 N   0  0  0  0  0  0  0  0  0  0  0  0
    9.7611  -16.4027   27.2528 C   0  0  1  0  0  0  0  0  0  0  0  0
    8.4492  -15.8219   27.6584 C   0  0  0  0  0  0  0  0  0  0  0  0
    8.1451  -14.5081   27.0402 C   0  0  0  0  0  0  0  0  0  0  0  0
    6.9999  -14.3554   26.2936 C   0  0  0  0  0  0  0  0  0  0  0  0
    6.7255  -13.1287   25.7252 C   0  0  0  0  0  0  0  0  0  0  0  0
    7.5457  -12.0300   25.8645 C   0  0  0  0  0  0  0  0  0  0  0  0
    8.6870  -12.1999   26.6144 C   0  0  0  0  0  0  0  0  0  0  0  0
    8.9719  -13.4188   27.1867 C   0  0  0  0  0  0  0  0  0  0  0  0
   10.3927  -17.2844   28.2475 C   0  0  0  0  0  0  0  0  0  0  0  0
   10.6906  -18.6073   27.9578 O   0  0  0  0  0  0  0  0  0  0  0  0
   10.6810  -16.8635   29.3914 O   0  0  0  0  0  0  0  0  0  0  0  0
  2  1  1  0
  3  4  1  0
  3  2  1  0
  4  5  1  0
  5  6  1  6
  7  8  2  0
  7  5  1  0
  9  7  1  0
 10  9  1  0
 10 11  1  6
 12 13  1  0
 12 11  1  0
 13 14  2  0
 15 10  1  0
 16 15  2  0
 17 13  1  0
 18 15  1  0
 19 18  1  0
 19 20  1  1
 20 21  1  0
 21 26  2  0
 21 22  1  0
 22 23  2  0
 23 24  1  0
 25 24  2  0
 26 25  1  0
 27 19  1  0
 28 27  1  0
 29 27  2  0
M  END
$$$$
