MEF.pdb
     RDKit          3D

 29 29  0  0  1  0  0  0  0  0999 V2000
    7.2515  -11.5466   22.1342 C   0  0  0  0  0  0  0  0  0  0  0  0
    7.0298  -11.9540   20.3792 S   0  0  0  0  0  0  0  0  0  0  0  0
    7.4061  -13.6689   20.0566 C   0  0  0  0  0  0  0  0  0  0  0  0
    7.9674  -14.4000   21.2441 C   0  0  0  0  0  0  0  0  0  0  0  0
    8.1298  -15.8798   20.9948 C   0  0  2  0  0  0  0  0  0  0  0  0
    6.8725  -16.5031   20.6206 N   0  0  0  0  0  0  0  0  0  0  0  0
    8.6459  -16.5851   22.1969 C   0  0  0  0  0  0  0  0  0  0  0  0
    7.8837  -17.2649   22.9429 O   0  0  0  0  0  0  0  0  0  0  0  0
   10.0224  -16.5283   22.5645 N   0  0  0  0  0  0  0  0  0  0  0  0
   10.5487  -17.3146   23.6910 C   0  0  1  0  0  0  0  0  0  0  0  0
   11.9326  -17.7131   23.3074 C   0  0  0  0  0  0  0  0  0  0  0  0
   12.0512  -18.6462   22.1532 C   0  0  0  0  0  0  0  0  0  0  0  0
   13.4408  -19.0098   21.7980 C   0  0  0  0  0  0  0  0  0  0  0  0
   14.1436  -19.7678   22.5090 O   0  0  0  0  0  0  0  0  0  0  0  0
   10.6236  -16.3843   24.8565 C   0  0  0  0  0  0  0  0  0  0  0  0
   11.4707  -15.4520   24.7552 O   0  0  0  0  0  0  0  0  0  0  0  0
   13.9459  -18.4574   20.6071 O   0  0  0  0  0  0  0  0  0  0  0  0
    9.7968  -16.5483   25.9888 N   0  0  0  0  0  0  0  0  0  0  0  0
    9.9685  -15.7334   27.1639 C   0  0  1  0  0  0  0  0  0  0  0  0
    8.6419  -15.1707   27.5463 C   0  0  0  0  0  0  0  0  0  0  0  0
    8.1423  -14.1108   26.6365 C   0  0  0  0  0  0  0  0  0  0  0  0
    7.0570  -14.3619   25.8293 C   0  0  0  0  0  0  0  0  0  0  0  0
    6.5991  -13.3685   24.9888 C   0  0  0  0  0  0  0  0  0  0  0  0
    7.1755  -12.1191   24.9099 C   0  0  0  0  0  0  0  0  0  0  0  0
    8.2600  -11.8846   25.7240 C   0  0  0  0  0  0  0  0  0  0  0  0
    8.7263  -12.8676   26.5670 C   0  0  0  0  0  0  0  0  0  0  0  0
   10.6593  -16.4890   28.2210 C   0  0  0  0  0  0  0  0  0  0  0  0
   11.2132  -15.8537   29.3221 O   0  0  0  0  0  0  0  0  0  0  0  0
   10.7682  -17.7351   28.1567 O   0  0  0  0  0  0  0  0  0  0  0  0
  2  1  1  0
  3  4  1  0
  3  2  1  0
  4  5  1  0
  5  6  1  1
  7  8  2  0
  7  5  1  0
  9  7  1  0
 10  9  1  0
 10 11  1  6
 12 13  1  0
 12 11  1  0
 13 14  2  0
 15 10  1  0
 16 15  2  0
 17 13  1  0
 18 15  1  0
 19 18  1  0
 19 20  1  1
 20 21  1  0
 21 26  2  0
 21 22  1  0
 22 23  2  0
 23 24  1  0
 25 24  2  0
 26 25  1  0
 27 19  1  0
 28 27  1  0
 29 27  2  0
M  END
$$$$
