MEF.pdb
     RDKit          3D

 29 29  0  0  1  0  0  0  0  0999 V2000
    8.4784  -12.2779   18.5939 C   0  0  0  0  0  0  0  0  0  0  0  0
    7.3180  -12.7643   19.9024 S   0  0  0  0  0  0  0  0  0  0  0  0
    7.2935  -14.5352   20.1253 C   0  0  0  0  0  0  0  0  0  0  0  0
    8.1802  -15.2791   19.1660 C   0  0  0  0  0  0  0  0  0  0  0  0
    8.0859  -16.7770   19.3263 C   0  0  2  0  0  0  0  0  0  0  0  0
    6.7155  -17.2446   19.2139 N   0  0  0  0  0  0  0  0  0  0  0  0
    8.6105  -17.2217   20.6439 C   0  0  0  0  0  0  0  0  0  0  0  0
    7.8472  -17.6970   21.5332 O   0  0  0  0  0  0  0  0  0  0  0  0
    9.9967  -17.1331   20.9660 N   0  0  0  0  0  0  0  0  0  0  0  0
   10.5044  -17.5348   22.2870 C   0  0  1  0  0  0  0  0  0  0  0  0
   11.9902  -17.5556   22.1711 C   0  0  0  0  0  0  0  0  0  0  0  0
   12.7421  -17.8573   23.4202 C   0  0  0  0  0  0  0  0  0  0  0  0
   14.2137  -17.8592   23.2656 C   0  0  0  0  0  0  0  0  0  0  0  0
   14.9909  -17.5287   24.1933 O   0  0  0  0  0  0  0  0  0  0  0  0
   10.1131  -16.4514   23.2369 C   0  0  0  0  0  0  0  0  0  0  0  0
   10.4134  -15.2776   22.8775 O   0  0  0  0  0  0  0  0  0  0  0  0
   14.7092  -18.2551   22.0101 O   0  0  0  0  0  0  0  0  0  0  0  0
    9.4522  -16.7349   24.4516 N   0  0  0  0  0  0  0  0  0  0  0  0
    9.0262  -15.6798   25.3346 C   0  0  1  0  0  0  0  0  0  0  0  0
    7.7384  -15.1283   24.8244 C   0  0  0  0  0  0  0  0  0  0  0  0
    7.2825  -13.8989   25.5182 C   0  0  0  0  0  0  0  0  0  0  0  0
    6.3415  -13.9898   26.5174 C   0  0  0  0  0  0  0  0  0  0  0  0
    5.9263  -12.8406   27.1577 C   0  0  0  0  0  0  0  0  0  0  0  0
    6.4077  -11.5866   26.8490 C   0  0  0  0  0  0  0  0  0  0  0  0
    7.3484  -11.5135   25.8472 C   0  0  0  0  0  0  0  0  0  0  0  0
    7.7708  -12.6529   25.2009 C   0  0  0  0  0  0  0  0  0  0  0  0
    9.0002  -16.1508   26.7286 C   0  0  0  0  0  0  0  0  0  0  0  0
    9.0527  -17.5013   27.0384 O   0  0  0  0  0  0  0  0  0  0  0  0
    8.9290  -15.3410   27.6815 O   0  0  0  0  0  0  0  0  0  0  0  0
  2  1  1  0
  3  4  1  0
  3  2  1  0
  4  5  1  0
  5  6  1  1
  7  8  2  0
  7  5  1  0
  9  7  1  0
 10  9  1  0
 10 11  1  6
 12 13  1  0
 12 11  1  0
 13 14  2  0
 15 10  1  0
 16 15  2  0
 17 13  1  0
 18 15  1  0
 19 18  1  0
 19 20  1  6
 20 21  1  0
 21 26  2  0
 21 22  1  0
 22 23  2  0
 23 24  1  0
 25 24  2  0
 26 25  1  0
 27 19  1  0
 28 27  1  0
 29 27  2  0
M  END
$$$$
