MEF.pdb
     RDKit          3D

 29 29  0  0  1  0  0  0  0  0999 V2000
    7.9124  -11.4006   19.7181 C   0  0  0  0  0  0  0  0  0  0  0  0
    8.2773  -13.0073   18.9563 S   0  0  0  0  0  0  0  0  0  0  0  0
    6.9258  -14.1530   19.1745 C   0  0  0  0  0  0  0  0  0  0  0  0
    7.1533  -15.1570   20.2700 C   0  0  0  0  0  0  0  0  0  0  0  0
    8.3850  -14.8573   21.0893 C   0  0  2  0  0  0  0  0  0  0  0  0
    9.6018  -15.0422   20.3184 N   0  0  0  0  0  0  0  0  0  0  0  0
    8.4711  -15.7299   22.2894 C   0  0  0  0  0  0  0  0  0  0  0  0
    7.4747  -15.9133   23.0464 O   0  0  0  0  0  0  0  0  0  0  0  0
    9.6793  -16.3998   22.6424 N   0  0  0  0  0  0  0  0  0  0  0  0
    9.7373  -17.3266   23.7833 C   0  0  1  0  0  0  0  0  0  0  0  0
   10.8343  -18.2889   23.4801 C   0  0  0  0  0  0  0  0  0  0  0  0
   10.5744  -19.2547   22.3770 C   0  0  0  0  0  0  0  0  0  0  0  0
    9.7393  -20.4144   22.7605 C   0  0  0  0  0  0  0  0  0  0  0  0
   10.0977  -21.2479   23.6271 O   0  0  0  0  0  0  0  0  0  0  0  0
   10.1302  -16.5107   24.9704 C   0  0  0  0  0  0  0  0  0  0  0  0
   11.0931  -15.7128   24.7879 O   0  0  0  0  0  0  0  0  0  0  0  0
    8.5051  -20.5415   22.0980 O   0  0  0  0  0  0  0  0  0  0  0  0
    9.4612  -16.6335   26.2073 N   0  0  0  0  0  0  0  0  0  0  0  0
    9.8823  -15.8832   27.3624 C   0  0  1  0  0  0  0  0  0  0  0  0
    8.6884  -15.2095   27.9486 C   0  0  0  0  0  0  0  0  0  0  0  0
    8.1019  -14.1503   27.0914 C   0  0  0  0  0  0  0  0  0  0  0  0
    6.9436  -14.4024   26.3935 C   0  0  0  0  0  0  0  0  0  0  0  0
    6.4055  -13.4096   25.6013 C   0  0  0  0  0  0  0  0  0  0  0  0
    6.9704  -12.1598   25.4665 C   0  0  0  0  0  0  0  0  0  0  0  0
    8.1286  -11.9242   26.1715 C   0  0  0  0  0  0  0  0  0  0  0  0
    8.6754  -12.9066   26.9654 C   0  0  0  0  0  0  0  0  0  0  0  0
   10.6384  -16.7409   28.2889 C   0  0  0  0  0  0  0  0  0  0  0  0
   11.3615  -16.2066   29.3445 O   0  0  0  0  0  0  0  0  0  0  0  0
   10.6513  -17.9856   28.1501 O   0  0  0  0  0  0  0  0  0  0  0  0
  2  1  1  0
  3  4  1  0
  3  2  1  0
  4  5  1  0
  5  6  1  6
  7  8  2  0
  7  5  1  0
  9  7  1  0
 10  9  1  0
 10 11  1  6
 12 13  1  0
 12 11  1  0
 13 14  2  0
 15 10  1  0
 16 15  2  0
 17 13  1  0
 18 15  1  0
 19 18  1  0
 19 20  1  1
 20 21  1  0
 21 26  2  0
 21 22  1  0
 22 23  2  0
 23 24  1  0
 25 24  2  0
 26 25  1  0
 27 19  1  0
 28 27  1  0
 29 27  2  0
M  END
$$$$
