MEF.pdb
     RDKit          3D

 29 29  0  0  1  0  0  0  0  0999 V2000
    9.2319  -11.0393   20.1112 C   0  0  0  0  0  0  0  0  0  0  0  0
    7.5696  -11.7496   20.2767 S   0  0  0  0  0  0  0  0  0  0  0  0
    7.5763  -13.5047   19.9511 C   0  0  0  0  0  0  0  0  0  0  0  0
    7.2459  -14.3453   21.1529 C   0  0  0  0  0  0  0  0  0  0  0  0
    7.4547  -15.8201   20.9084 C   0  0  2  0  0  0  0  0  0  0  0  0
    6.3158  -16.4201   20.2361 N   0  0  0  0  0  0  0  0  0  0  0  0
    7.6741  -16.5608   22.1780 C   0  0  0  0  0  0  0  0  0  0  0  0
    6.7239  -17.1414   22.7775 O   0  0  0  0  0  0  0  0  0  0  0  0
    8.9643  -16.6511   22.7784 N   0  0  0  0  0  0  0  0  0  0  0  0
    9.1838  -17.4206   24.0128 C   0  0  1  0  0  0  0  0  0  0  0  0
   10.2137  -18.4465   23.6840 C   0  0  0  0  0  0  0  0  0  0  0  0
   10.6362  -19.3347   24.8018 C   0  0  0  0  0  0  0  0  0  0  0  0
   11.6517  -20.3455   24.4325 C   0  0  0  0  0  0  0  0  0  0  0  0
   11.7295  -21.4628   24.9978 O   0  0  0  0  0  0  0  0  0  0  0  0
    9.7580  -16.4670   25.0080 C   0  0  0  0  0  0  0  0  0  0  0  0
   10.6835  -15.7222   24.5771 O   0  0  0  0  0  0  0  0  0  0  0  0
   12.5403  -19.9903   23.4016 O   0  0  0  0  0  0  0  0  0  0  0  0
    9.2880  -16.4130   26.3380 N   0  0  0  0  0  0  0  0  0  0  0  0
    9.9353  -15.5895   27.3265 C   0  0  1  0  0  0  0  0  0  0  0  0
    8.9037  -14.7287   27.9729 C   0  0  0  0  0  0  0  0  0  0  0  0
    8.2076  -13.8060   27.0431 C   0  0  0  0  0  0  0  0  0  0  0  0
    8.7405  -12.5632   26.7906 C   0  0  0  0  0  0  0  0  0  0  0  0
    8.0863  -11.7140   25.9224 C   0  0  0  0  0  0  0  0  0  0  0  0
    6.9108  -12.0442   25.2832 C   0  0  0  0  0  0  0  0  0  0  0  0
    6.3914  -13.2910   25.5468 C   0  0  0  0  0  0  0  0  0  0  0  0
    7.0347  -14.1474   26.4111 C   0  0  0  0  0  0  0  0  0  0  0  0
   10.7314  -16.4162   28.2477 C   0  0  0  0  0  0  0  0  0  0  0  0
   10.7632  -17.7980   28.1378 O   0  0  0  0  0  0  0  0  0  0  0  0
   11.4071  -15.8929   29.1633 O   0  0  0  0  0  0  0  0  0  0  0  0
  2  1  1  0
  3  4  1  0
  3  2  1  0
  4  5  1  0
  5  6  1  1
  7  8  2  0
  7  5  1  0
  9  7  1  0
 10  9  1  0
 10 11  1  6
 12 13  1  0
 12 11  1  0
 13 14  2  0
 15 10  1  0
 16 15  2  0
 17 13  1  0
 18 15  1  0
 19 18  1  0
 19 20  1  1
 20 21  1  0
 21 26  2  0
 21 22  1  0
 22 23  2  0
 23 24  1  0
 25 24  2  0
 26 25  1  0
 27 19  1  0
 28 27  1  0
 29 27  2  0
M  END
$$$$
