LMW.pdb
     RDKit          3D

 31 32  0  0  1  0  0  0  0  0999 V2000
    8.1790  -21.2921   18.8489 C   0  0  0  0  0  0  0  0  0  0  0  0
    8.1007  -19.8473   18.3588 C   0  0  2  0  0  0  0  0  0  0  0  0
    8.0281  -19.8833   16.8606 C   0  0  0  0  0  0  0  0  0  0  0  0
    9.2964  -19.1066   18.8627 C   0  0  0  0  0  0  0  0  0  0  0  0
    9.3368  -18.9091   20.3548 C   0  0  2  0  0  0  0  0  0  0  0  0
    8.0139  -19.1615   20.9357 N   0  0  0  0  0  0  0  0  0  0  0  0
    9.7448  -17.5432   20.7602 C   0  0  0  0  0  0  0  0  0  0  0  0
   10.9017  -17.1595   20.4650 O   0  0  0  0  0  0  0  0  0  0  0  0
    7.7562  -11.4258   19.9684 C   0  0  0  0  0  0  0  0  0  0  0  0
    6.9320  -12.9953   19.6778 S   0  0  0  0  0  0  0  0  0  0  0  0
    8.0416  -14.3522   20.1401 C   0  0  0  0  0  0  0  0  0  0  0  0
    8.4393  -14.2527   21.5975 C   0  0  0  0  0  0  0  0  0  0  0  0
    9.3400  -15.3992   22.0085 C   0  0  2  0  0  0  0  0  0  0  0  0
    8.8561  -16.6627   21.4733 N   0  0  0  0  0  0  0  0  0  0  0  0
    9.3164  -15.4479   23.4899 C   0  0  0  0  0  0  0  0  0  0  0  0
    8.4840  -14.7499   24.0970 O   0  0  0  0  0  0  0  0  0  0  0  0
   10.2150  -16.2667   24.1994 N   0  0  0  0  0  0  0  0  0  0  0  0
   10.2847  -16.2310   25.6681 C   0  0  1  0  0  0  0  0  0  0  0  0
    8.9578  -16.6632   26.1588 C   0  0  0  0  0  0  0  0  0  0  0  0
    7.8323  -15.7546   25.9458 C   0  0  0  0  0  0  0  0  0  0  0  0
    6.6372  -16.0449   25.2870 C   0  0  0  0  0  0  0  0  0  0  0  0
    5.8961  -14.9316   25.2791 N   0  0  0  0  0  0  0  0  0  0  0  0
    6.5400  -13.9267   25.8977 C   0  0  0  0  0  0  0  0  0  0  0  0
    6.1732  -12.6202   26.1469 C   0  0  0  0  0  0  0  0  0  0  0  0
    7.0746  -11.8245   26.8444 C   0  0  0  0  0  0  0  0  0  0  0  0
    8.2832  -12.3033   27.2740 C   0  0  0  0  0  0  0  0  0  0  0  0
    8.6320  -13.6069   27.0160 C   0  0  0  0  0  0  0  0  0  0  0  0
    7.7589  -14.4354   26.3207 C   0  0  0  0  0  0  0  0  0  0  0  0
   11.3879  -17.0113   26.1949 C   0  0  0  0  0  0  0  0  0  0  0  0
   12.1256  -17.7761   25.5149 O   0  0  0  0  0  0  0  0  0  0  0  0
   11.6964  -16.9335   27.5588 O   0  0  0  0  0  0  0  0  0  0  0  0
  2  1  1  6
  2  3  1  0
  4  2  1  0
  5  4  1  0
  5  6  1  6
  7  5  1  0
  7  8  2  0
  9 10  1  0
 10 11  1  0
 11 12  1  0
 13 12  1  6
 13 14  1  0
 14  7  1  0
 15 13  1  0
 16 15  2  0
 17 15  1  0
 18 17  1  0
 18 19  1  1
 19 20  1  0
 20 28  1  0
 20 21  2  0
 21 22  1  0
 23 24  2  0
 23 22  1  0
 25 24  1  0
 26 25  2  0
 27 26  1  0
 27 28  2  0
 28 23  1  0
 29 18  1  0
 30 29  2  0
 31 29  1  0
M  END
$$$$
