LMW.pdb
     RDKit          3D

 31 32  0  0  1  0  0  0  0  0999 V2000
    8.9633  -22.8490   19.6003 C   0  0  0  0  0  0  0  0  0  0  0  0
    8.1344  -21.8045   18.8550 C   0  0  2  0  0  0  0  0  0  0  0  0
    8.1062  -22.2008   17.4081 C   0  0  0  0  0  0  0  0  0  0  0  0
    8.7496  -20.4608   19.0751 C   0  0  0  0  0  0  0  0  0  0  0  0
    8.8747  -20.0503   20.5183 C   0  0  2  0  0  0  0  0  0  0  0  0
    7.5533  -20.0239   21.1544 N   0  0  0  0  0  0  0  0  0  0  0  0
    9.4810  -18.7105   20.7021 C   0  0  0  0  0  0  0  0  0  0  0  0
   10.6955  -18.5677   20.4234 O   0  0  0  0  0  0  0  0  0  0  0  0
    6.6676  -12.3173   22.2564 C   0  0  0  0  0  0  0  0  0  0  0  0
    7.5205  -12.5603   20.6942 S   0  0  0  0  0  0  0  0  0  0  0  0
    8.8179  -13.8087   20.9049 C   0  0  0  0  0  0  0  0  0  0  0  0
    8.2242  -15.2000   20.9690 C   0  0  0  0  0  0  0  0  0  0  0  0
    9.2920  -16.2516   21.1891 C   0  0  2  0  0  0  0  0  0  0  0  0
    8.7184  -17.5888   21.1854 N   0  0  0  0  0  0  0  0  0  0  0  0
    9.8937  -15.9751   22.5154 C   0  0  0  0  0  0  0  0  0  0  0  0
   10.6556  -14.9983   22.6333 O   0  0  0  0  0  0  0  0  0  0  0  0
    9.6106  -16.7978   23.6219 N   0  0  0  0  0  0  0  0  0  0  0  0
   10.3229  -16.6335   24.8982 C   0  0  1  0  0  0  0  0  0  0  0  0
    9.9383  -15.3045   25.4218 C   0  0  0  0  0  0  0  0  0  0  0  0
    8.5114  -15.0351   25.5926 C   0  0  0  0  0  0  0  0  0  0  0  0
    7.4728  -15.9649   25.5358 C   0  0  0  0  0  0  0  0  0  0  0  0
    6.3236  -15.3021   25.7054 N   0  0  0  0  0  0  0  0  0  0  0  0
    6.5520  -13.9879   25.8712 C   0  0  0  0  0  0  0  0  0  0  0  0
    5.6942  -12.9300   26.0920 C   0  0  0  0  0  0  0  0  0  0  0  0
    6.2591  -11.6695   26.2460 C   0  0  0  0  0  0  0  0  0  0  0  0
    7.6120  -11.4684   26.1834 C   0  0  0  0  0  0  0  0  0  0  0  0
    8.4511  -12.5336   25.9619 C   0  0  0  0  0  0  0  0  0  0  0  0
    7.9258  -13.8106   25.8019 C   0  0  0  0  0  0  0  0  0  0  0  0
   10.0734  -17.7230   25.8223 C   0  0  0  0  0  0  0  0  0  0  0  0
   10.5407  -17.8045   26.9913 O   0  0  0  0  0  0  0  0  0  0  0  0
    9.2492  -18.7846   25.4282 O   0  0  0  0  0  0  0  0  0  0  0  0
  2  1  1  1
  2  3  1  0
  4  2  1  0
  5  4  1  0
  5  6  1  6
  7  5  1  0
  7  8  2  0
  9 10  1  0
 10 11  1  0
 11 12  1  0
 13 12  1  1
 13 14  1  0
 14  7  1  0
 15 13  1  0
 16 15  2  0
 17 15  1  0
 18 17  1  0
 18 19  1  1
 19 20  1  0
 20 28  1  0
 20 21  2  0
 21 22  1  0
 23 24  2  0
 23 22  1  0
 25 24  1  0
 26 25  2  0
 27 26  1  0
 27 28  2  0
 28 23  1  0
 29 18  1  0
 30 29  2  0
 31 29  1  0
M  END
$$$$
