LMW.pdb
     RDKit          3D

 31 32  0  0  1  0  0  0  0  0999 V2000
    7.3675  -20.4195   16.9627 C   0  0  0  0  0  0  0  0  0  0  0  0
    7.7784  -20.4963   18.4320 C   0  0  2  0  0  0  0  0  0  0  0  0
    6.5796  -20.9505   19.2116 C   0  0  0  0  0  0  0  0  0  0  0  0
    8.2724  -19.1529   18.8606 C   0  0  0  0  0  0  0  0  0  0  0  0
    8.7955  -19.0909   20.2711 C   0  0  2  0  0  0  0  0  0  0  0  0
    7.6867  -19.1760   21.2275 N   0  0  0  0  0  0  0  0  0  0  0  0
    9.5438  -17.8472   20.5707 C   0  0  0  0  0  0  0  0  0  0  0  0
   10.6189  -17.6417   19.9583 O   0  0  0  0  0  0  0  0  0  0  0  0
    8.1222  -11.7871   19.8953 C   0  0  0  0  0  0  0  0  0  0  0  0
    6.9822  -13.1400   20.2073 S   0  0  0  0  0  0  0  0  0  0  0  0
    7.9218  -14.6589   20.5176 C   0  0  0  0  0  0  0  0  0  0  0  0
    8.9615  -14.4407   21.5963 C   0  0  0  0  0  0  0  0  0  0  0  0
    9.8244  -15.6697   21.7949 C   0  0  2  0  0  0  0  0  0  0  0  0
    9.0706  -16.8864   21.5332 N   0  0  0  0  0  0  0  0  0  0  0  0
   10.2648  -15.6554   23.2103 C   0  0  0  0  0  0  0  0  0  0  0  0
   11.0717  -14.7813   23.5757 O   0  0  0  0  0  0  0  0  0  0  0  0
    9.7816  -16.6089   24.1261 N   0  0  0  0  0  0  0  0  0  0  0  0
   10.3313  -16.7086   25.4867 C   0  0  1  0  0  0  0  0  0  0  0  0
    9.8064  -15.5452   26.2344 C   0  0  0  0  0  0  0  0  0  0  0  0
    8.3833  -15.2405   26.0936 C   0  0  0  0  0  0  0  0  0  0  0  0
    7.3570  -16.1471   25.8265 C   0  0  0  0  0  0  0  0  0  0  0  0
    6.2156  -15.4556   25.7395 N   0  0  0  0  0  0  0  0  0  0  0  0
    6.4372  -14.1443   25.9357 C   0  0  0  0  0  0  0  0  0  0  0  0
    5.5796  -13.0637   25.9565 C   0  0  0  0  0  0  0  0  0  0  0  0
    6.1311  -11.8140   26.2137 C   0  0  0  0  0  0  0  0  0  0  0  0
    7.4709  -11.6450   26.4393 C   0  0  0  0  0  0  0  0  0  0  0  0
    8.3101  -12.7326   26.4138 C   0  0  0  0  0  0  0  0  0  0  0  0
    7.7983  -13.9996   26.1595 C   0  0  0  0  0  0  0  0  0  0  0  0
   10.0467  -17.9855   26.1127 C   0  0  0  0  0  0  0  0  0  0  0  0
    9.3347  -18.8975   25.6099 O   0  0  0  0  0  0  0  0  0  0  0  0
   10.5908  -18.2714   27.3712 O   0  0  0  0  0  0  0  0  0  0  0  0
  2  1  1  6
  2  3  1  0
  4  2  1  0
  5  4  1  0
  5  6  1  1
  7  5  1  0
  7  8  2  0
  9 10  1  0
 10 11  1  0
 11 12  1  0
 13 12  1  1
 13 14  1  0
 14  7  1  0
 15 13  1  0
 16 15  2  0
 17 15  1  0
 18 17  1  0
 18 19  1  1
 19 20  1  0
 20 28  1  0
 20 21  2  0
 21 22  1  0
 23 24  2  0
 23 22  1  0
 25 24  1  0
 26 25  2  0
 27 26  1  0
 27 28  2  0
 28 23  1  0
 29 18  1  0
 30 29  2  0
 31 29  1  0
M  END
$$$$
