LMW.pdb
     RDKit          3D

 31 32  0  0  1  0  0  0  0  0999 V2000
    7.9562  -14.5499   16.0389 C   0  0  0  0  0  0  0  0  0  0  0  0
    7.3237  -13.7265   17.1595 C   0  0  2  0  0  0  0  0  0  0  0  0
    7.0756  -12.3483   16.6208 C   0  0  0  0  0  0  0  0  0  0  0  0
    8.2465  -13.7311   18.3346 C   0  0  0  0  0  0  0  0  0  0  0  0
    8.4288  -15.0736   18.9916 C   0  0  2  0  0  0  0  0  0  0  0  0
    7.1661  -15.8198   18.9794 N   0  0  0  0  0  0  0  0  0  0  0  0
    8.8778  -14.9866   20.4013 C   0  0  0  0  0  0  0  0  0  0  0  0
   10.0105  -14.5003   20.6323 O   0  0  0  0  0  0  0  0  0  0  0  0
    7.1150  -12.4964   26.3807 C   0  0  0  0  0  0  0  0  0  0  0  0
    6.6644  -14.2326   26.2813 S   0  0  0  0  0  0  0  0  0  0  0  0
    7.8810  -15.1126   25.2657 C   0  0  0  0  0  0  0  0  0  0  0  0
    7.3883  -15.2647   23.8422 C   0  0  0  0  0  0  0  0  0  0  0  0
    8.5391  -15.3687   22.8627 C   0  0  2  0  0  0  0  0  0  0  0  0
    8.0550  -15.4407   21.4923 N   0  0  0  0  0  0  0  0  0  0  0  0
    9.2691  -16.6152   23.1956 C   0  0  0  0  0  0  0  0  0  0  0  0
    8.6328  -17.6834   23.2493 O   0  0  0  0  0  0  0  0  0  0  0  0
   10.6542  -16.5955   23.4456 N   0  0  0  0  0  0  0  0  0  0  0  0
   11.1917  -16.8559   24.7896 C   0  0  1  0  0  0  0  0  0  0  0  0
   10.4826  -15.9374   25.7070 C   0  0  0  0  0  0  0  0  0  0  0  0
   10.5294  -16.2438   27.1359 C   0  0  0  0  0  0  0  0  0  0  0  0
   10.5660  -17.5113   27.7179 C   0  0  0  0  0  0  0  0  0  0  0  0
   10.5634  -17.3496   29.0455 N   0  0  0  0  0  0  0  0  0  0  0  0
   10.5278  -16.0447   29.3662 C   0  0  0  0  0  0  0  0  0  0  0  0
   10.5281  -15.4012   30.5867 C   0  0  0  0  0  0  0  0  0  0  0  0
   10.5080  -14.0115   30.5773 C   0  0  0  0  0  0  0  0  0  0  0  0
   10.4882  -13.2942   29.4113 C   0  0  0  0  0  0  0  0  0  0  0  0
   10.4874  -13.9519   28.2050 C   0  0  0  0  0  0  0  0  0  0  0  0
   10.5065  -15.3414   28.1710 C   0  0  0  0  0  0  0  0  0  0  0  0
   11.0973  -18.2526   25.1688 C   0  0  0  0  0  0  0  0  0  0  0  0
   11.9819  -18.8950   25.7983 O   0  0  0  0  0  0  0  0  0  0  0  0
    9.9480  -18.9801   24.8352 O   0  0  0  0  0  0  0  0  0  0  0  0
  2  1  1  6
  2  3  1  0
  4  2  1  0
  5  4  1  0
  5  6  1  1
  7  5  1  0
  7  8  2  0
  9 10  1  0
 10 11  1  0
 11 12  1  0
 13 12  1  1
 13 14  1  0
 14  7  1  0
 15 13  1  0
 16 15  2  0
 17 15  1  0
 18 17  1  0
 18 19  1  1
 19 20  1  0
 20 28  1  0
 20 21  2  0
 21 22  1  0
 23 24  2  0
 23 22  1  0
 25 24  1  0
 26 25  2  0
 27 26  1  0
 27 28  2  0
 28 23  1  0
 29 18  1  0
 30 29  2  0
 31 29  1  0
M  END
$$$$
