LMW.pdb
     RDKit          3D

 31 32  0  0  1  0  0  0  0  0999 V2000
    5.9616  -21.3837   22.5193 C   0  0  0  0  0  0  0  0  0  0  0  0
    7.4400  -21.7237   22.3389 C   0  0  2  0  0  0  0  0  0  0  0  0
    7.8329  -22.6357   23.4637 C   0  0  0  0  0  0  0  0  0  0  0  0
    8.2241  -20.4519   22.3243 C   0  0  0  0  0  0  0  0  0  0  0  0
    7.8148  -19.4677   21.2609 C   0  0  2  0  0  0  0  0  0  0  0  0
    7.8563  -20.1025   19.9393 N   0  0  0  0  0  0  0  0  0  0  0  0
    8.6802  -18.2660   21.2019 C   0  0  0  0  0  0  0  0  0  0  0  0
    9.7659  -18.3491   20.5795 O   0  0  0  0  0  0  0  0  0  0  0  0
    7.6019  -11.8751   20.2083 C   0  0  0  0  0  0  0  0  0  0  0  0
    6.5670  -13.3230   19.9641 S   0  0  0  0  0  0  0  0  0  0  0  0
    7.5387  -14.8187   20.2879 C   0  0  0  0  0  0  0  0  0  0  0  0
    8.4747  -14.6121   21.4598 C   0  0  0  0  0  0  0  0  0  0  0  0
    9.2115  -15.8869   21.8156 C   0  0  2  0  0  0  0  0  0  0  0  0
    8.3071  -17.0266   21.8329 N   0  0  0  0  0  0  0  0  0  0  0  0
    9.7796  -15.6854   23.1699 C   0  0  0  0  0  0  0  0  0  0  0  0
   10.5400  -14.7190   23.3606 O   0  0  0  0  0  0  0  0  0  0  0  0
    9.4669  -16.5667   24.2220 N   0  0  0  0  0  0  0  0  0  0  0  0
   10.2568  -16.5861   25.4626 C   0  0  1  0  0  0  0  0  0  0  0  0
    9.9185  -15.3441   26.1914 C   0  0  0  0  0  0  0  0  0  0  0  0
    8.5311  -14.8861   26.1339 C   0  0  0  0  0  0  0  0  0  0  0  0
    7.3971  -15.6771   25.9474 C   0  0  0  0  0  0  0  0  0  0  0  0
    6.3348  -14.8651   25.9192 N   0  0  0  0  0  0  0  0  0  0  0  0
    6.7103  -13.5842   26.0779 C   0  0  0  0  0  0  0  0  0  0  0  0
    5.9789  -12.4156   26.1327 C   0  0  0  0  0  0  0  0  0  0  0  0
    6.6788  -11.2315   26.3328 C   0  0  0  0  0  0  0  0  0  0  0  0
    8.0407  -11.2085   26.4716 C   0  0  0  0  0  0  0  0  0  0  0  0
    8.7529  -12.3821   26.4134 C   0  0  0  0  0  0  0  0  0  0  0  0
    8.0906  -13.5878   26.2140 C   0  0  0  0  0  0  0  0  0  0  0  0
   10.0522  -17.7952   26.2370 C   0  0  0  0  0  0  0  0  0  0  0  0
   10.6120  -18.0557   27.3371 O   0  0  0  0  0  0  0  0  0  0  0  0
    9.1671  -18.7729   25.7657 O   0  0  0  0  0  0  0  0  0  0  0  0
  2  1  1  1
  2  3  1  0
  4  2  1  0
  5  4  1  0
  5  6  1  6
  7  5  1  0
  7  8  2  0
  9 10  1  0
 10 11  1  0
 11 12  1  0
 13 12  1  1
 13 14  1  0
 14  7  1  0
 15 13  1  0
 16 15  2  0
 17 15  1  0
 18 17  1  0
 18 19  1  1
 19 20  1  0
 20 28  1  0
 20 21  2  0
 21 22  1  0
 23 24  2  0
 23 22  1  0
 25 24  1  0
 26 25  2  0
 27 26  1  0
 27 28  2  0
 28 23  1  0
 29 18  1  0
 30 29  2  0
 31 29  1  0
M  END
$$$$
