LMW.pdb
     RDKit          3D

 31 32  0  0  1  0  0  0  0  0999 V2000
    4.9490  -20.6975   23.9022 C   0  0  0  0  0  0  0  0  0  0  0  0
    6.3748  -21.2092   24.0997 C   0  0  2  0  0  0  0  0  0  0  0  0
    6.5047  -21.6391   25.5313 C   0  0  0  0  0  0  0  0  0  0  0  0
    7.3285  -20.1187   23.7341 C   0  0  0  0  0  0  0  0  0  0  0  0
    7.1412  -19.5503   22.3525 C   0  0  2  0  0  0  0  0  0  0  0  0
    7.3136  -20.6013   21.3440 N   0  0  0  0  0  0  0  0  0  0  0  0
    8.0937  -18.4630   22.0256 C   0  0  0  0  0  0  0  0  0  0  0  0
    9.1985  -18.7763   21.5215 O   0  0  0  0  0  0  0  0  0  0  0  0
    7.7970  -12.0131   20.0210 C   0  0  0  0  0  0  0  0  0  0  0  0
    6.5615  -13.3127   19.9121 S   0  0  0  0  0  0  0  0  0  0  0  0
    7.3066  -14.8932   20.3946 C   0  0  0  0  0  0  0  0  0  0  0  0
    8.1413  -14.7372   21.6480 C   0  0  0  0  0  0  0  0  0  0  0  0
    8.7855  -16.0464   22.0547 C   0  0  2  0  0  0  0  0  0  0  0  0
    7.7826  -17.0784   22.2701 N   0  0  0  0  0  0  0  0  0  0  0  0
    9.5095  -15.7880   23.3222 C   0  0  0  0  0  0  0  0  0  0  0  0
   10.3636  -14.8833   23.3479 O   0  0  0  0  0  0  0  0  0  0  0  0
    9.2387  -16.5476   24.4758 N   0  0  0  0  0  0  0  0  0  0  0  0
    9.9966  -16.3442   25.7198 C   0  0  1  0  0  0  0  0  0  0  0  0
    8.9956  -16.1214   26.7858 C   0  0  0  0  0  0  0  0  0  0  0  0
    7.8363  -15.2927   26.4585 C   0  0  0  0  0  0  0  0  0  0  0  0
    6.5778  -15.7387   26.0537 C   0  0  0  0  0  0  0  0  0  0  0  0
    5.8206  -14.6617   25.8187 N   0  0  0  0  0  0  0  0  0  0  0  0
    6.5138  -13.5330   26.0482 C   0  0  0  0  0  0  0  0  0  0  0  0
    6.1548  -12.2038   25.9594 C   0  0  0  0  0  0  0  0  0  0  0  0
    7.1168  -11.2576   26.2929 C   0  0  0  0  0  0  0  0  0  0  0  0
    8.3760  -11.6141   26.6952 C   0  0  0  0  0  0  0  0  0  0  0  0
    8.7161  -12.9428   26.7769 C   0  0  0  0  0  0  0  0  0  0  0  0
    7.7831  -13.9203   26.4514 C   0  0  0  0  0  0  0  0  0  0  0  0
   10.9178  -17.4295   25.9974 C   0  0  0  0  0  0  0  0  0  0  0  0
   11.0640  -18.4581   25.2817 O   0  0  0  0  0  0  0  0  0  0  0  0
   11.7319  -17.3672   27.1353 O   0  0  0  0  0  0  0  0  0  0  0  0
  2  1  1  1
  2  3  1  0
  4  2  1  0
  5  4  1  0
  5  6  1  6
  7  5  1  0
  7  8  2  0
  9 10  1  0
 10 11  1  0
 11 12  1  0
 13 12  1  1
 13 14  1  0
 14  7  1  0
 15 13  1  0
 16 15  2  0
 17 15  1  0
 18 17  1  0
 18 19  1  1
 19 20  1  0
 20 28  1  0
 20 21  2  0
 21 22  1  0
 23 24  2  0
 23 22  1  0
 25 24  1  0
 26 25  2  0
 27 26  1  0
 27 28  2  0
 28 23  1  0
 29 18  1  0
 30 29  2  0
 31 29  1  0
M  END
$$$$
