LMW.pdb
     RDKit          3D

 31 32  0  0  1  0  0  0  0  0999 V2000
    7.8856  -13.1080   17.9205 C   0  0  0  0  0  0  0  0  0  0  0  0
    7.0722  -13.9022   18.9409 C   0  0  2  0  0  0  0  0  0  0  0  0
    6.2048  -12.9279   19.6820 C   0  0  0  0  0  0  0  0  0  0  0  0
    8.0162  -14.6352   19.8377 C   0  0  0  0  0  0  0  0  0  0  0  0
    8.8655  -15.6720   19.1516 C   0  0  2  0  0  0  0  0  0  0  0  0
    8.0225  -16.7506   18.6251 N   0  0  0  0  0  0  0  0  0  0  0  0
    9.8748  -16.2935   20.0412 C   0  0  0  0  0  0  0  0  0  0  0  0
    9.5330  -17.2947   20.7149 O   0  0  0  0  0  0  0  0  0  0  0  0
   16.3722  -14.9998   20.6192 C   0  0  0  0  0  0  0  0  0  0  0  0
   15.2065  -13.9476   19.7467 S   0  0  0  0  0  0  0  0  0  0  0  0
   13.5166  -14.5023   20.0968 C   0  0  0  0  0  0  0  0  0  0  0  0
   13.5235  -15.7416   20.9665 C   0  0  0  0  0  0  0  0  0  0  0  0
   12.1267  -16.2953   21.1583 C   0  0  2  0  0  0  0  0  0  0  0  0
   11.2164  -15.7810   20.1464 N   0  0  0  0  0  0  0  0  0  0  0  0
   11.6754  -15.8543   22.4998 C   0  0  0  0  0  0  0  0  0  0  0  0
   11.9964  -14.7185   22.8941 O   0  0  0  0  0  0  0  0  0  0  0  0
   10.8984  -16.6999   23.3138 N   0  0  0  0  0  0  0  0  0  0  0  0
   10.1055  -16.1666   24.4319 C   0  0  1  0  0  0  0  0  0  0  0  0
    8.8307  -15.6930   23.8500 C   0  0  0  0  0  0  0  0  0  0  0  0
    7.8222  -15.1720   24.7716 C   0  0  0  0  0  0  0  0  0  0  0  0
    6.6546  -15.8152   25.1833 C   0  0  0  0  0  0  0  0  0  0  0  0
    5.9950  -14.9811   25.9945 N   0  0  0  0  0  0  0  0  0  0  0  0
    6.6669  -13.8258   26.1379 C   0  0  0  0  0  0  0  0  0  0  0  0
    6.3930  -12.6927   26.8760 C   0  0  0  0  0  0  0  0  0  0  0  0
    7.3196  -11.6577   26.8270 C   0  0  0  0  0  0  0  0  0  0  0  0
    8.4639  -11.7434   26.0803 C   0  0  0  0  0  0  0  0  0  0  0  0
    8.7198  -12.8793   25.3508 C   0  0  0  0  0  0  0  0  0  0  0  0
    7.8180  -13.9369   25.3722 C   0  0  0  0  0  0  0  0  0  0  0  0
    9.9394  -17.1256   25.5072 C   0  0  0  0  0  0  0  0  0  0  0  0
    9.6191  -16.8379   26.6930 O   0  0  0  0  0  0  0  0  0  0  0  0
   10.1340  -18.4885   25.2501 O   0  0  0  0  0  0  0  0  0  0  0  0
  2  1  1  6
  2  3  1  0
  4  2  1  0
  5  4  1  0
  5  6  1  1
  7  5  1  0
  7  8  2  0
  9 10  1  0
 10 11  1  0
 11 12  1  0
 13 12  1  6
 13 14  1  0
 14  7  1  0
 15 13  1  0
 16 15  2  0
 17 15  1  0
 18 17  1  0
 18 19  1  6
 19 20  1  0
 20 28  1  0
 20 21  2  0
 21 22  1  0
 23 24  2  0
 23 22  1  0
 25 24  1  0
 26 25  2  0
 27 26  1  0
 27 28  2  0
 28 23  1  0
 29 18  1  0
 30 29  2  0
 31 29  1  0
M  END
$$$$
