LMW.pdb
     RDKit          3D

 31 32  0  0  1  0  0  0  0  0999 V2000
    2.5076  -18.4604   20.7703 C   0  0  0  0  0  0  0  0  0  0  0  0
    3.1930  -19.2559   21.8798 C   0  0  2  0  0  0  0  0  0  0  0  0
    2.3146  -19.1840   23.0940 C   0  0  0  0  0  0  0  0  0  0  0  0
    4.5510  -18.6780   22.1128 C   0  0  0  0  0  0  0  0  0  0  0  0
    5.4435  -18.6489   20.9006 C   0  0  2  0  0  0  0  0  0  0  0  0
    5.5421  -19.9884   20.3111 N   0  0  0  0  0  0  0  0  0  0  0  0
    6.8226  -18.1910   21.1918 C   0  0  0  0  0  0  0  0  0  0  0  0
    7.6088  -18.9966   21.7449 O   0  0  0  0  0  0  0  0  0  0  0  0
    7.1751  -11.4372   19.5796 C   0  0  0  0  0  0  0  0  0  0  0  0
    8.4647  -12.6839   19.4804 S   0  0  0  0  0  0  0  0  0  0  0  0
    7.9831  -14.1275   20.4654 C   0  0  0  0  0  0  0  0  0  0  0  0
    9.0209  -15.2247   20.3597 C   0  0  0  0  0  0  0  0  0  0  0  0
    8.6285  -16.4425   21.1707 C   0  0  2  0  0  0  0  0  0  0  0  0
    7.2712  -16.8640   20.8586 N   0  0  0  0  0  0  0  0  0  0  0  0
    8.7078  -16.0466   22.5971 C   0  0  0  0  0  0  0  0  0  0  0  0
    8.0528  -15.0603   22.9802 O   0  0  0  0  0  0  0  0  0  0  0  0
    9.5061  -16.7697   23.5033 N   0  0  0  0  0  0  0  0  0  0  0  0
   10.1480  -16.1103   24.6507 C   0  0  1  0  0  0  0  0  0  0  0  0
    9.3120  -16.4208   25.8308 C   0  0  0  0  0  0  0  0  0  0  0  0
    8.0136  -15.7559   25.9302 C   0  0  0  0  0  0  0  0  0  0  0  0
    6.7624  -16.3266   25.6950 C   0  0  0  0  0  0  0  0  0  0  0  0
    5.8419  -15.3700   25.8573 N   0  0  0  0  0  0  0  0  0  0  0  0
    6.4213  -14.2028   26.1872 C   0  0  0  0  0  0  0  0  0  0  0  0
    5.8869  -12.9617   26.4657 C   0  0  0  0  0  0  0  0  0  0  0  0
    6.7725  -11.9444   26.8015 C   0  0  0  0  0  0  0  0  0  0  0  0
    8.1250  -12.1495   26.8578 C   0  0  0  0  0  0  0  0  0  0  0  0
    8.6396  -13.3920   26.5763 C   0  0  0  0  0  0  0  0  0  0  0  0
    7.7876  -14.4361   26.2356 C   0  0  0  0  0  0  0  0  0  0  0  0
   11.5409  -16.4843   24.8034 C   0  0  0  0  0  0  0  0  0  0  0  0
   12.1558  -17.3071   24.0710 O   0  0  0  0  0  0  0  0  0  0  0  0
   12.3008  -15.9050   25.8273 O   0  0  0  0  0  0  0  0  0  0  0  0
  2  1  1  6
  2  3  1  0
  4  2  1  0
  5  4  1  0
  5  6  1  1
  7  5  1  0
  7  8  2  0
  9 10  1  0
 10 11  1  0
 11 12  1  0
 13 12  1  6
 13 14  1  0
 14  7  1  0
 15 13  1  0
 16 15  2  0
 17 15  1  0
 18 17  1  0
 18 19  1  1
 19 20  1  0
 20 28  1  0
 20 21  2  0
 21 22  1  0
 23 24  2  0
 23 22  1  0
 25 24  1  0
 26 25  2  0
 27 26  1  0
 27 28  2  0
 28 23  1  0
 29 18  1  0
 30 29  2  0
 31 29  1  0
M  END
$$$$
