RLD.pdb
     RDKit          3D

 28 27  0  0  1  0  0  0  0  0999 V2000
    9.6094  -13.7556   18.0394 N   0  0  0  0  0  0  0  0  0  0  0  0
    8.8790  -12.8018   18.8276 C   0  0  0  0  0  0  0  0  0  0  0  0
    9.3920  -11.6440   18.9706 N   0  0  0  0  0  0  0  0  0  0  0  0
    7.6408  -13.1974   19.3948 N   0  0  0  0  0  0  0  0  0  0  0  0
    7.2225  -14.5760   19.2631 C   0  0  0  0  0  0  0  0  0  0  0  0
    7.9955  -15.4999   20.1425 C   0  0  0  0  0  0  0  0  0  0  0  0
    7.3929  -15.8386   21.4468 C   0  0  0  0  0  0  0  0  0  0  0  0
    8.1857  -16.7002   22.3614 C   0  0  2  0  0  0  0  0  0  0  0  0
    7.2851  -17.7383   22.8899 N   0  0  0  0  0  0  0  0  0  0  0  0
    8.7332  -15.9382   23.5250 C   0  0  0  0  0  0  0  0  0  0  0  0
    9.9171  -15.4604   23.4943 O   0  0  0  0  0  0  0  0  0  0  0  0
    9.0020  -10.8502   19.5012 C   0  0  0  0  0  0  0  0  0  0  0  0
    7.2052  -12.0966   25.6296 C   0  0  2  0  0  0  0  0  0  0  0  0
    6.4278  -13.4137   25.8787 C   0  0  0  0  0  0  0  0  0  0  0  0
    5.2151  -13.0169   26.6515 C   0  0  0  0  0  0  0  0  0  0  0  0
    7.3592  -14.3131   26.5865 C   0  0  2  0  0  0  0  0  0  0  0  0
    8.5217  -14.8586   25.8140 N   0  0  0  0  0  0  0  0  0  0  0  0
    7.9992  -15.7005   24.7084 C   0  0  0  0  0  0  0  0  0  0  0  0
    9.3845  -15.7486   26.6168 O   0  0  0  0  0  0  0  0  0  0  0  0
    9.8499  -15.3057   27.7197 N   0  0  0  0  0  0  0  0  0  0  0  0
    9.7302  -17.0762   26.2424 C   0  0  1  0  0  0  0  0  0  0  0  0
   10.6081  -17.8522   27.1343 C   0  0  0  0  0  0  0  0  0  0  0  0
    9.8058  -18.9122   27.8466 C   0  0  0  0  0  0  0  0  0  0  0  0
   10.5988  -19.7811   28.7346 O   0  0  0  0  0  0  0  0  0  0  0  0
   11.4843  -19.2237   29.4650 C   0  0  0  0  0  0  0  0  0  0  0  0
   11.6131  -18.5293   26.2790 O   0  0  0  0  0  0  0  0  0  0  0  0
   11.4975  -18.4323   25.0092 O   0  0  0  0  0  0  0  0  0  0  0  0
   10.4875  -21.1443   28.8610 O   0  0  0  0  0  0  0  0  0  0  0  0
  2  1  1  0
  2  4  1  0
  3  2  2  0
  5  4  1  0
  6  5  1  0
  7  6  1  0
  8 10  1  0
  8  9  1  1
  8  7  1  0
 10 11  2  0
 13 12  1  6
 13 14  1  0
 15 13  1  0
 16 15  1  6
 16 17  1  0
 17 10  1  0
 18 16  1  0
 19 18  2  0
 20 18  1  0
 21 20  1  0
 21 22  1  6
 22 23  1  0
 23 27  1  0
 23 24  2  0
 25 21  1  0
 26 25  2  0
 28 25  1  0
M  END
$$$$
