RLD.pdb
     RDKit          3D

 28 27  0  0  1  0  0  0  0  0999 V2000
    8.2427  -12.6132   16.7726 N   0  0  0  0  0  0  0  0  0  0  0  0
    8.2231  -13.8716   16.0795 C   0  0  0  0  0  0  0  0  0  0  0  0
    7.6866  -13.8960   14.9237 N   0  0  0  0  0  0  0  0  0  0  0  0
    8.7970  -15.0035   16.7126 N   0  0  0  0  0  0  0  0  0  0  0  0
    9.1678  -14.9085   18.1077 C   0  0  0  0  0  0  0  0  0  0  0  0
    8.0178  -14.5507   18.9873 C   0  0  0  0  0  0  0  0  0  0  0  0
    8.3281  -14.2386   20.3962 C   0  0  0  0  0  0  0  0  0  0  0  0
    8.3472  -15.3711   21.3576 C   0  0  2  0  0  0  0  0  0  0  0  0
    6.9732  -15.8897   21.4644 N   0  0  0  0  0  0  0  0  0  0  0  0
    8.7805  -14.9474   22.7240 C   0  0  0  0  0  0  0  0  0  0  0  0
    9.9225  -14.4066   22.9089 O   0  0  0  0  0  0  0  0  0  0  0  0
    7.5921  -14.7096   14.2970 C   0  0  0  0  0  0  0  0  0  0  0  0
    7.8247  -11.8317   26.1058 C   0  0  2  0  0  0  0  0  0  0  0  0
    6.7230  -12.8211   25.6493 C   0  0  0  0  0  0  0  0  0  0  0  0
    5.4908  -12.4054   26.3802 C   0  0  0  0  0  0  0  0  0  0  0  0
    7.2227  -14.1710   25.9743 C   0  0  2  0  0  0  0  0  0  0  0  0
    8.4193  -14.6696   25.2224 N   0  0  0  0  0  0  0  0  0  0  0  0
    7.9787  -15.1118   23.8755 C   0  0  0  0  0  0  0  0  0  0  0  0
    9.0423  -15.8550   25.8452 O   0  0  0  0  0  0  0  0  0  0  0  0
    9.8001  -15.6785   26.8570 N   0  0  0  0  0  0  0  0  0  0  0  0
    8.8496  -17.1891   25.3919 C   0  0  2  0  0  0  0  0  0  0  0  0
    9.9312  -18.1661   25.6021 C   0  0  0  0  0  0  0  0  0  0  0  0
   11.1399  -17.7739   24.7897 C   0  0  0  0  0  0  0  0  0  0  0  0
   12.3163  -18.6381   24.9935 O   0  0  0  0  0  0  0  0  0  0  0  0
   12.1955  -19.8742   24.7002 C   0  0  0  0  0  0  0  0  0  0  0  0
   10.3002  -18.1090   27.0376 O   0  0  0  0  0  0  0  0  0  0  0  0
   11.2163  -18.8931   27.4631 O   0  0  0  0  0  0  0  0  0  0  0  0
   13.5441  -18.2522   25.4732 O   0  0  0  0  0  0  0  0  0  0  0  0
  2  1  1  0
  2  4  1  0
  3  2  2  0
  5  4  1  0
  6  5  1  0
  7  6  1  0
  8 10  1  0
  8  9  1  1
  8  7  1  0
 10 11  2  0
 13 12  1  6
 13 14  1  0
 15 13  1  0
 16 15  1  6
 16 17  1  0
 17 10  1  0
 18 16  1  0
 19 18  2  0
 20 18  1  0
 21 20  1  0
 21 22  1  6
 22 23  1  0
 23 27  1  0
 23 24  2  0
 25 21  1  0
 26 25  2  0
 28 25  1  0
M  END
$$$$
