RLD.pdb
     RDKit          3D

 28 27  0  0  1  0  0  0  0  0999 V2000
    8.4250  -12.8213   19.3211 N   0  0  0  0  0  0  0  0  0  0  0  0
    7.7234  -13.5835   18.3255 C   0  0  0  0  0  0  0  0  0  0  0  0
    6.4989  -13.2950   18.1213 N   0  0  0  0  0  0  0  0  0  0  0  0
    8.4256  -14.6020   17.6320 N   0  0  0  0  0  0  0  0  0  0  0  0
    9.6362  -15.1360   18.2166 C   0  0  0  0  0  0  0  0  0  0  0  0
    9.3824  -16.3181   19.0899 C   0  0  0  0  0  0  0  0  0  0  0  0
    9.6884  -16.1639   20.5258 C   0  0  0  0  0  0  0  0  0  0  0  0
    8.5386  -16.0666   21.4617 C   0  0  2  0  0  0  0  0  0  0  0  0
    7.7368  -14.8972   21.0642 N   0  0  0  0  0  0  0  0  0  0  0  0
    8.9752  -15.8587   22.8761 C   0  0  0  0  0  0  0  0  0  0  0  0
   10.2091  -15.9336   23.1967 O   0  0  0  0  0  0  0  0  0  0  0  0
    5.8944  -13.6431   17.3617 C   0  0  0  0  0  0  0  0  0  0  0  0
    6.2655  -12.8333   27.4487 C   0  0  1  0  0  0  0  0  0  0  0  0
    7.5758  -13.5959   27.1280 C   0  0  0  0  0  0  0  0  0  0  0  0
    8.6641  -12.5839   27.2579 C   0  0  0  0  0  0  0  0  0  0  0  0
    7.4012  -14.1629   25.7770 C   0  0  2  0  0  0  0  0  0  0  0  0
    8.5221  -14.9851   25.2173 N   0  0  0  0  0  0  0  0  0  0  0  0
    8.0773  -15.5731   23.9287 C   0  0  0  0  0  0  0  0  0  0  0  0
    8.8825  -16.1330   26.0738 O   0  0  0  0  0  0  0  0  0  0  0  0
    7.9773  -16.9898   26.3488 N   0  0  0  0  0  0  0  0  0  0  0  0
   10.1804  -16.3506   26.6128 C   0  0  1  0  0  0  0  0  0  0  0  0
   10.4255  -17.5837   27.3795 C   0  0  0  0  0  0  0  0  0  0  0  0
   11.7526  -18.1790   26.9807 C   0  0  0  0  0  0  0  0  0  0  0  0
   11.7664  -19.6518   26.9248 O   0  0  0  0  0  0  0  0  0  0  0  0
   10.6907  -20.2621   27.2392 C   0  0  0  0  0  0  0  0  0  0  0  0
   10.5012  -17.2017   28.8108 O   0  0  0  0  0  0  0  0  0  0  0  0
   10.6378  -18.1274   29.6823 O   0  0  0  0  0  0  0  0  0  0  0  0
   12.8265  -20.4489   26.5681 O   0  0  0  0  0  0  0  0  0  0  0  0
  2  1  1  0
  2  4  1  0
  3  2  2  0
  5  4  1  0
  6  5  1  0
  7  6  1  0
  8 10  1  0
  8  9  1  6
  8  7  1  0
 10 11  2  0
 13 12  1  1
 13 14  1  0
 15 13  1  0
 16 15  1  6
 16 17  1  0
 17 10  1  0
 18 16  1  0
 19 18  2  0
 20 18  1  0
 21 20  1  0
 21 22  1  1
 22 23  1  0
 23 27  1  0
 23 24  2  0
 25 21  1  0
 26 25  2  0
 28 25  1  0
M  END
$$$$
