RLD.pdb
     RDKit          3D

 28 27  0  0  1  0  0  0  0  0999 V2000
    8.1240  -19.5448   15.8162 N   0  0  0  0  0  0  0  0  0  0  0  0
    8.3642  -18.9616   17.1072 C   0  0  0  0  0  0  0  0  0  0  0  0
    7.8437  -19.5387   18.1173 N   0  0  0  0  0  0  0  0  0  0  0  0
    9.1598  -17.7901   17.1845 N   0  0  0  0  0  0  0  0  0  0  0  0
    9.4794  -17.2493   18.4876 C   0  0  0  0  0  0  0  0  0  0  0  0
    8.4128  -16.3512   19.0169 C   0  0  0  0  0  0  0  0  0  0  0  0
    8.6839  -15.6807   20.3038 C   0  0  0  0  0  0  0  0  0  0  0  0
    7.6202  -14.7998   20.8514 C   0  0  2  0  0  0  0  0  0  0  0  0
    7.2805  -13.8115   19.8141 N   0  0  0  0  0  0  0  0  0  0  0  0
    8.0732  -14.0500   22.0626 C   0  0  0  0  0  0  0  0  0  0  0  0
    8.8864  -13.0708   21.9585 O   0  0  0  0  0  0  0  0  0  0  0  0
    7.9487  -19.2752   19.1088 C   0  0  0  0  0  0  0  0  0  0  0  0
    5.8339  -12.3431   27.3515 C   0  0  1  0  0  0  0  0  0  0  0  0
    7.2159  -12.5596   26.6849 C   0  0  0  0  0  0  0  0  0  0  0  0
    7.8005  -11.1954   26.5349 C   0  0  0  0  0  0  0  0  0  0  0  0
    6.9550  -13.2754   25.4211 C   0  0  2  0  0  0  0  0  0  0  0  0
    8.1337  -13.6306   24.5666 N   0  0  0  0  0  0  0  0  0  0  0  0
    7.6453  -14.3641   23.3718 C   0  0  0  0  0  0  0  0  0  0  0  0
    9.0792  -14.5468   25.2356 O   0  0  0  0  0  0  0  0  0  0  0  0
    9.2988  -14.3844   26.4824 N   0  0  0  0  0  0  0  0  0  0  0  0
    9.7627  -15.6074   24.5796 C   0  0  1  0  0  0  0  0  0  0  0  0
   10.4189  -16.6367   25.4034 C   0  0  0  0  0  0  0  0  0  0  0  0
    9.3844  -17.3886   26.2028 C   0  0  0  0  0  0  0  0  0  0  0  0
    9.9438  -18.3465   27.1733 O   0  0  0  0  0  0  0  0  0  0  0  0
    9.2526  -19.3859   27.4385 C   0  0  0  0  0  0  0  0  0  0  0  0
   11.0699  -17.5921   24.4741 O   0  0  0  0  0  0  0  0  0  0  0  0
   12.3456  -17.5847   24.3872 O   0  0  0  0  0  0  0  0  0  0  0  0
   11.1435  -18.2389   27.8333 O   0  0  0  0  0  0  0  0  0  0  0  0
  2  1  1  0
  2  4  1  0
  3  2  2  0
  5  4  1  0
  6  5  1  0
  7  6  1  0
  8 10  1  0
  8  9  1  6
  8  7  1  0
 10 11  2  0
 13 12  1  1
 13 14  1  0
 15 13  1  0
 16 15  1  6
 16 17  1  0
 17 10  1  0
 18 16  1  0
 19 18  2  0
 20 18  1  0
 21 20  1  0
 21 22  1  1
 22 23  1  0
 23 27  1  0
 23 24  2  0
 25 21  1  0
 26 25  2  0
 28 25  1  0
M  END
$$$$
