RLD.pdb
     RDKit          3D

 28 27  0  0  1  0  0  0  0  0999 V2000
    9.2649  -14.1036   16.4607 N   0  0  0  0  0  0  0  0  0  0  0  0
    7.9825  -13.8700   15.8562 C   0  0  0  0  0  0  0  0  0  0  0  0
    7.9645  -13.2651   14.7345 N   0  0  0  0  0  0  0  0  0  0  0  0
    6.8213  -14.3221   16.5333 N   0  0  0  0  0  0  0  0  0  0  0  0
    6.9744  -15.0086   17.7974 C   0  0  0  0  0  0  0  0  0  0  0  0
    7.8740  -14.2851   18.7416 C   0  0  0  0  0  0  0  0  0  0  0  0
    8.0272  -14.8629   20.0913 C   0  0  0  0  0  0  0  0  0  0  0  0
    8.8106  -14.0818   21.0830 C   0  0  2  0  0  0  0  0  0  0  0  0
   10.1278  -13.7988   20.4887 N   0  0  0  0  0  0  0  0  0  0  0  0
    9.0376  -14.8407   22.3506 C   0  0  0  0  0  0  0  0  0  0  0  0
   10.1339  -15.4643   22.5513 O   0  0  0  0  0  0  0  0  0  0  0  0
    7.1347  -12.9935   14.1857 C   0  0  0  0  0  0  0  0  0  0  0  0
    5.6621  -12.2067   26.5323 C   0  0  1  0  0  0  0  0  0  0  0  0
    7.0284  -12.9316   26.4383 C   0  0  0  0  0  0  0  0  0  0  0  0
    8.0480  -11.9002   26.7876 C   0  0  0  0  0  0  0  0  0  0  0  0
    7.1170  -13.4650   25.0653 C   0  0  2  0  0  0  0  0  0  0  0  0
    8.3035  -14.3144   24.7241 N   0  0  0  0  0  0  0  0  0  0  0  0
    8.0808  -14.9195   23.3869 C   0  0  0  0  0  0  0  0  0  0  0  0
    8.4873  -15.4514   25.6485 O   0  0  0  0  0  0  0  0  0  0  0  0
    8.7165  -15.1995   26.8786 N   0  0  0  0  0  0  0  0  0  0  0  0
    8.4214  -16.8170   25.2575 C   0  0  2  0  0  0  0  0  0  0  0  0
    9.4915  -17.7272   25.6992 C   0  0  0  0  0  0  0  0  0  0  0  0
   10.7782  -17.3864   24.9900 C   0  0  0  0  0  0  0  0  0  0  0  0
   11.1724  -18.3515   23.9481 O   0  0  0  0  0  0  0  0  0  0  0  0
   10.8669  -19.5762   24.1353 C   0  0  0  0  0  0  0  0  0  0  0  0
    9.6891  -17.4987   27.1514 O   0  0  0  0  0  0  0  0  0  0  0  0
    9.1970  -16.4407   27.6745 O   0  0  0  0  0  0  0  0  0  0  0  0
   11.8438  -18.0717   22.7830 O   0  0  0  0  0  0  0  0  0  0  0  0
  2  1  1  0
  2  4  1  0
  3  2  2  0
  5  4  1  0
  6  5  1  0
  7  6  1  0
  8 10  1  0
  8  9  1  6
  8  7  1  0
 10 11  2  0
 13 12  1  1
 13 14  1  0
 15 13  1  0
 16 15  1  6
 16 17  1  0
 17 10  1  0
 18 16  1  0
 19 18  2  0
 20 18  1  0
 21 20  1  0
 21 22  1  6
 22 23  1  0
 23 27  1  0
 23 24  2  0
 25 21  1  0
 26 25  2  0
 28 25  1  0
M  END
$$$$
