RLD.pdb
     RDKit          3D

 28 27  0  0  1  0  0  0  0  0999 V2000
    7.8369  -14.0280   15.5434 N   0  0  0  0  0  0  0  0  0  0  0  0
    8.5945  -14.0403   16.7642 C   0  0  0  0  0  0  0  0  0  0  0  0
    8.9336  -12.9141   17.2552 N   0  0  0  0  0  0  0  0  0  0  0  0
    8.9175  -15.2912   17.3492 N   0  0  0  0  0  0  0  0  0  0  0  0
    8.2491  -15.6828   18.5710 C   0  0  0  0  0  0  0  0  0  0  0  0
    7.5224  -14.5528   19.2186 C   0  0  0  0  0  0  0  0  0  0  0  0
    7.9705  -14.1587   20.5688 C   0  0  0  0  0  0  0  0  0  0  0  0
    8.2957  -15.2485   21.5248 C   0  0  2  0  0  0  0  0  0  0  0  0
    7.0746  -16.0468   21.7244 N   0  0  0  0  0  0  0  0  0  0  0  0
    8.7190  -14.7243   22.8591 C   0  0  0  0  0  0  0  0  0  0  0  0
    9.7624  -13.9970   22.9742 O   0  0  0  0  0  0  0  0  0  0  0  0
    9.5381  -12.7473   18.0739 C   0  0  0  0  0  0  0  0  0  0  0  0
    7.6410  -11.5736   25.8385 C   0  0  2  0  0  0  0  0  0  0  0  0
    6.6177  -12.7112   25.5935 C   0  0  0  0  0  0  0  0  0  0  0  0
    5.3786  -12.2891   26.3088 C   0  0  0  0  0  0  0  0  0  0  0  0
    7.2472  -13.9461   26.0994 C   0  0  2  0  0  0  0  0  0  0  0  0
    8.4508  -14.4624   25.3709 N   0  0  0  0  0  0  0  0  0  0  0  0
    8.0137  -14.9902   24.0539 C   0  0  0  0  0  0  0  0  0  0  0  0
    9.1010  -15.5970   26.0572 O   0  0  0  0  0  0  0  0  0  0  0  0
    9.4239  -15.4569   27.2840 N   0  0  0  0  0  0  0  0  0  0  0  0
    9.3894  -16.8449   25.4391 C   0  0  1  0  0  0  0  0  0  0  0  0
   10.1253  -17.8591   26.2126 C   0  0  0  0  0  0  0  0  0  0  0  0
    9.5594  -19.2282   25.9299 C   0  0  0  0  0  0  0  0  0  0  0  0
   10.2436  -20.3267   26.6353 O   0  0  0  0  0  0  0  0  0  0  0  0
   11.0910  -20.0097   27.5352 C   0  0  0  0  0  0  0  0  0  0  0  0
   11.5317  -17.8336   25.7419 O   0  0  0  0  0  0  0  0  0  0  0  0
   11.7891  -17.2757   24.6204 O   0  0  0  0  0  0  0  0  0  0  0  0
   10.0667  -21.6724   26.4247 O   0  0  0  0  0  0  0  0  0  0  0  0
  2  1  1  0
  2  4  1  0
  3  2  2  0
  5  4  1  0
  6  5  1  0
  7  6  1  0
  8 10  1  0
  8  9  1  1
  8  7  1  0
 10 11  2  0
 13 12  1  6
 13 14  1  0
 15 13  1  0
 16 15  1  6
 16 17  1  0
 17 10  1  0
 18 16  1  0
 19 18  2  0
 20 18  1  0
 21 20  1  0
 21 22  1  6
 22 23  1  0
 23 27  1  0
 23 24  2  0
 25 21  1  0
 26 25  2  0
 28 25  1  0
M  END
$$$$
