RLD.pdb
     RDKit          3D

 28 27  0  0  1  0  0  0  0  0999 V2000
    7.6736  -15.9278   15.6087 N   0  0  0  0  0  0  0  0  0  0  0  0
    8.0529  -14.5424   15.5750 C   0  0  0  0  0  0  0  0  0  0  0  0
    7.9505  -13.9334   14.4602 N   0  0  0  0  0  0  0  0  0  0  0  0
    8.5133  -13.9362   16.7717 N   0  0  0  0  0  0  0  0  0  0  0  0
    7.5764  -13.1836   17.5771 C   0  0  0  0  0  0  0  0  0  0  0  0
    6.9866  -13.9922   18.6828 C   0  0  0  0  0  0  0  0  0  0  0  0
    7.4086  -13.6520   20.0558 C   0  0  0  0  0  0  0  0  0  0  0  0
    8.1983  -14.6680   20.7983 C   0  0  2  0  0  0  0  0  0  0  0  0
    7.3261  -15.8321   21.0269 N   0  0  0  0  0  0  0  0  0  0  0  0
    8.6505  -14.1699   22.1331 C   0  0  0  0  0  0  0  0  0  0  0  0
    9.5571  -13.2750   22.2236 O   0  0  0  0  0  0  0  0  0  0  0  0
    8.1210  -12.9327   14.2782 C   0  0  0  0  0  0  0  0  0  0  0  0
    6.0078  -13.0304   27.3698 C   0  0  1  0  0  0  0  0  0  0  0  0
    7.4372  -13.1728   26.7885 C   0  0  0  0  0  0  0  0  0  0  0  0
    8.0280  -11.8045   26.8525 C   0  0  0  0  0  0  0  0  0  0  0  0
    7.2752  -13.7258   25.4301 C   0  0  2  0  0  0  0  0  0  0  0  0
    8.5177  -14.0726   24.6673 N   0  0  0  0  0  0  0  0  0  0  0  0
    8.1212  -14.6420   23.3549 C   0  0  0  0  0  0  0  0  0  0  0  0
    9.3283  -15.1176   25.3246 O   0  0  0  0  0  0  0  0  0  0  0  0
    9.7477  -14.9008   26.5105 N   0  0  0  0  0  0  0  0  0  0  0  0
    9.6715  -16.3590   24.7218 C   0  0  1  0  0  0  0  0  0  0  0  0
   10.6038  -17.2512   25.4314 C   0  0  0  0  0  0  0  0  0  0  0  0
   10.0327  -18.6458   25.4900 C   0  0  0  0  0  0  0  0  0  0  0  0
    9.5788  -19.0615   26.8292 O   0  0  0  0  0  0  0  0  0  0  0  0
    9.7433  -18.2358   27.7882 C   0  0  0  0  0  0  0  0  0  0  0  0
   11.8560  -17.2969   24.6376 O   0  0  0  0  0  0  0  0  0  0  0  0
   11.8178  -16.9195   23.4165 O   0  0  0  0  0  0  0  0  0  0  0  0
    8.9919  -20.2580   27.1614 O   0  0  0  0  0  0  0  0  0  0  0  0
  2  1  1  0
  2  4  1  0
  3  2  2  0
  5  4  1  0
  6  5  1  0
  7  6  1  0
  8 10  1  0
  8  9  1  1
  8  7  1  0
 10 11  2  0
 13 12  1  1
 13 14  1  0
 15 13  1  0
 16 15  1  6
 16 17  1  0
 17 10  1  0
 18 16  1  0
 19 18  2  0
 20 18  1  0
 21 20  1  0
 21 22  1  6
 22 23  1  0
 23 27  1  0
 23 24  2  0
 25 21  1  0
 26 25  2  0
 28 25  1  0
M  END
$$$$
