RLD.pdb
     RDKit          3D

 28 27  0  0  1  0  0  0  0  0999 V2000
    8.2712  -12.7670   17.3358 N   0  0  0  0  0  0  0  0  0  0  0  0
    8.5644  -14.0059   16.6697 C   0  0  0  0  0  0  0  0  0  0  0  0
    8.4515  -14.0301   15.4005 N   0  0  0  0  0  0  0  0  0  0  0  0
    8.9603  -15.1198   17.4532 N   0  0  0  0  0  0  0  0  0  0  0  0
    8.1300  -15.5175   18.5690 C   0  0  0  0  0  0  0  0  0  0  0  0
    7.5616  -14.3539   19.3088 C   0  0  0  0  0  0  0  0  0  0  0  0
    8.1212  -14.0767   20.6464 C   0  0  0  0  0  0  0  0  0  0  0  0
    8.3454  -15.2375   21.5461 C   0  0  2  0  0  0  0  0  0  0  0  0
    7.0804  -15.9863   21.6329 N   0  0  0  0  0  0  0  0  0  0  0  0
    8.7205  -14.8173   22.9307 C   0  0  0  0  0  0  0  0  0  0  0  0
    9.7162  -14.0430   23.1312 O   0  0  0  0  0  0  0  0  0  0  0  0
    8.6575  -14.8207   14.7710 C   0  0  0  0  0  0  0  0  0  0  0  0
    7.9169  -11.8853   26.2667 C   0  0  2  0  0  0  0  0  0  0  0  0
    6.8349  -12.8402   25.7022 C   0  0  0  0  0  0  0  0  0  0  0  0
    5.5426  -12.3485   26.2622 C   0  0  0  0  0  0  0  0  0  0  0  0
    7.2267  -14.1994   26.1223 C   0  0  2  0  0  0  0  0  0  0  0  0
    8.4149  -14.8194   25.4518 N   0  0  0  0  0  0  0  0  0  0  0  0
    8.0191  -15.2365   24.0831 C   0  0  0  0  0  0  0  0  0  0  0  0
    8.8819  -16.0498   26.1221 O   0  0  0  0  0  0  0  0  0  0  0  0
    9.2913  -15.9632   27.3279 N   0  0  0  0  0  0  0  0  0  0  0  0
    8.9019  -17.3336   25.5107 C   0  0  2  0  0  0  0  0  0  0  0  0
   10.0061  -18.2512   25.8385 C   0  0  0  0  0  0  0  0  0  0  0  0
   11.2515  -17.8396   25.0940 C   0  0  0  0  0  0  0  0  0  0  0  0
   12.4079  -18.7288   25.3047 O   0  0  0  0  0  0  0  0  0  0  0  0
   12.2624  -19.6990   26.1208 C   0  0  0  0  0  0  0  0  0  0  0  0
   10.2703  -18.1169   27.2919 O   0  0  0  0  0  0  0  0  0  0  0  0
   10.5222  -16.9543   27.7608 O   0  0  0  0  0  0  0  0  0  0  0  0
   13.6422  -18.6235   24.7114 O   0  0  0  0  0  0  0  0  0  0  0  0
  2  1  1  0
  2  4  1  0
  3  2  2  0
  5  4  1  0
  6  5  1  0
  7  6  1  0
  8 10  1  0
  8  9  1  1
  8  7  1  0
 10 11  2  0
 13 12  1  6
 13 14  1  0
 15 13  1  0
 16 15  1  6
 16 17  1  0
 17 10  1  0
 18 16  1  0
 19 18  2  0
 20 18  1  0
 21 20  1  0
 21 22  1  6
 22 23  1  0
 23 27  1  0
 23 24  2  0
 25 21  1  0
 26 25  2  0
 28 25  1  0
M  END
$$$$
