RLD.pdb
     RDKit          3D

 28 27  0  0  1  0  0  0  0  0999 V2000
    7.9007  -12.2688   18.5105 N   0  0  0  0  0  0  0  0  0  0  0  0
    8.1522  -13.6139   18.0726 C   0  0  0  0  0  0  0  0  0  0  0  0
    9.2979  -13.8634   17.5730 N   0  0  0  0  0  0  0  0  0  0  0  0
    7.1233  -14.5787   18.2207 N   0  0  0  0  0  0  0  0  0  0  0  0
    6.7904  -15.0444   19.5492 C   0  0  0  0  0  0  0  0  0  0  0  0
    7.6111  -16.2155   19.9726 C   0  0  0  0  0  0  0  0  0  0  0  0
    8.2493  -16.1367   21.3013 C   0  0  0  0  0  0  0  0  0  0  0  0
    9.0101  -14.9011   21.6205 C   0  0  2  0  0  0  0  0  0  0  0  0
   10.2836  -14.9577   20.8836 N   0  0  0  0  0  0  0  0  0  0  0  0
    9.3319  -14.7939   23.0763 C   0  0  0  0  0  0  0  0  0  0  0  0
   10.5434  -14.7218   23.4740 O   0  0  0  0  0  0  0  0  0  0  0  0
    9.5881  -14.7182   17.0744 C   0  0  0  0  0  0  0  0  0  0  0  0
    8.1619  -11.7054   26.3387 C   0  0  2  0  0  0  0  0  0  0  0  0
    7.0172  -12.6445   25.8814 C   0  0  0  0  0  0  0  0  0  0  0  0
    5.8038  -12.1722   26.6093 C   0  0  0  0  0  0  0  0  0  0  0  0
    7.4544  -14.0152   26.2091 C   0  0  2  0  0  0  0  0  0  0  0  0
    8.6751  -14.5404   25.5164 N   0  0  0  0  0  0  0  0  0  0  0  0
    8.3450  -14.7662   24.0867 C   0  0  0  0  0  0  0  0  0  0  0  0
    9.1159  -15.8516   26.0337 O   0  0  0  0  0  0  0  0  0  0  0  0
    9.2474  -15.9904   27.2957 N   0  0  0  0  0  0  0  0  0  0  0  0
    9.4015  -16.9782   25.2143 C   0  0  1  0  0  0  0  0  0  0  0  0
    9.8809  -18.2126   25.8585 C   0  0  0  0  0  0  0  0  0  0  0  0
    9.7917  -19.3639   24.8884 C   0  0  0  0  0  0  0  0  0  0  0  0
    8.4323  -19.9049   24.7098 O   0  0  0  0  0  0  0  0  0  0  0  0
    8.2065  -20.5922   23.6586 C   0  0  0  0  0  0  0  0  0  0  0  0
   11.3096  -18.0032   26.1978 O   0  0  0  0  0  0  0  0  0  0  0  0
   11.8914  -16.9507   25.7632 O   0  0  0  0  0  0  0  0  0  0  0  0
    7.3676  -19.7452   25.5628 O   0  0  0  0  0  0  0  0  0  0  0  0
  2  1  1  0
  2  4  1  0
  3  2  2  0
  5  4  1  0
  6  5  1  0
  7  6  1  0
  8 10  1  0
  8  9  1  6
  8  7  1  0
 10 11  2  0
 13 12  1  6
 13 14  1  0
 15 13  1  0
 16 15  1  6
 16 17  1  0
 17 10  1  0
 18 16  1  0
 19 18  2  0
 20 18  1  0
 21 20  1  0
 21 22  1  1
 22 23  1  0
 23 27  1  0
 23 24  2  0
 25 21  1  0
 26 25  2  0
 28 25  1  0
M  END
$$$$
