RLD.pdb
     RDKit          3D

 28 27  0  0  1  0  0  0  0  0999 V2000
    8.5311  -12.6219   16.4266 N   0  0  0  0  0  0  0  0  0  0  0  0
    8.0797  -13.9017   15.9545 C   0  0  0  0  0  0  0  0  0  0  0  0
    7.7158  -13.9820   14.7357 N   0  0  0  0  0  0  0  0  0  0  0  0
    8.0660  -14.9923   16.8609 N   0  0  0  0  0  0  0  0  0  0  0  0
    8.6465  -14.8147   18.1740 C   0  0  0  0  0  0  0  0  0  0  0  0
    7.6335  -14.4589   19.2092 C   0  0  0  0  0  0  0  0  0  0  0  0
    8.1419  -14.1449   20.5590 C   0  0  0  0  0  0  0  0  0  0  0  0
    8.4632  -15.2894   21.4503 C   0  0  2  0  0  0  0  0  0  0  0  0
    7.2270  -16.0655   21.6441 N   0  0  0  0  0  0  0  0  0  0  0  0
    8.9360  -14.8440   22.7965 C   0  0  0  0  0  0  0  0  0  0  0  0
   10.0137  -14.1700   22.9205 O   0  0  0  0  0  0  0  0  0  0  0  0
    7.2926  -14.7954   14.2635 C   0  0  0  0  0  0  0  0  0  0  0  0
    7.6653  -11.7744   25.5411 C   0  0  2  0  0  0  0  0  0  0  0  0
    6.7637  -13.0328   25.4707 C   0  0  0  0  0  0  0  0  0  0  0  0
    5.5102  -12.6617   26.1893 C   0  0  0  0  0  0  0  0  0  0  0  0
    7.5395  -14.1288   26.0827 C   0  0  2  0  0  0  0  0  0  0  0  0
    8.7152  -14.6592   25.3198 N   0  0  0  0  0  0  0  0  0  0  0  0
    8.2427  -15.1303   23.9936 C   0  0  0  0  0  0  0  0  0  0  0  0
    9.3384  -15.8353   25.9598 O   0  0  0  0  0  0  0  0  0  0  0  0
    9.5260  -15.8082   27.2220 N   0  0  0  0  0  0  0  0  0  0  0  0
    9.7423  -17.0051   25.2592 C   0  0  1  0  0  0  0  0  0  0  0  0
   10.3868  -18.0909   26.0170 C   0  0  0  0  0  0  0  0  0  0  0  0
   10.3314  -19.3719   25.2228 C   0  0  0  0  0  0  0  0  0  0  0  0
    8.9953  -19.7043   24.6970 O   0  0  0  0  0  0  0  0  0  0  0  0
    7.9976  -19.5278   25.4728 C   0  0  0  0  0  0  0  0  0  0  0  0
   11.8113  -17.7167   26.1927 O   0  0  0  0  0  0  0  0  0  0  0  0
   12.2304  -16.6393   25.6462 O   0  0  0  0  0  0  0  0  0  0  0  0
    8.7042  -20.1917   23.4463 O   0  0  0  0  0  0  0  0  0  0  0  0
  2  1  1  0
  2  4  1  0
  3  2  2  0
  5  4  1  0
  6  5  1  0
  7  6  1  0
  8 10  1  0
  8  9  1  1
  8  7  1  0
 10 11  2  0
 13 12  1  6
 13 14  1  0
 15 13  1  0
 16 15  1  6
 16 17  1  0
 17 10  1  0
 18 16  1  0
 19 18  2  0
 20 18  1  0
 21 20  1  0
 21 22  1  1
 22 23  1  0
 23 27  1  0
 23 24  2  0
 25 21  1  0
 26 25  2  0
 28 25  1  0
M  END
$$$$
