RLD.pdb
     RDKit          3D

 28 27  0  0  1  0  0  0  0  0999 V2000
    8.3053  -14.4485   15.7058 N   0  0  0  0  0  0  0  0  0  0  0  0
    7.8700  -13.7280   16.8702 C   0  0  0  0  0  0  0  0  0  0  0  0
    8.2467  -12.5159   16.9845 N   0  0  0  0  0  0  0  0  0  0  0  0
    7.0531  -14.3983   17.8161 N   0  0  0  0  0  0  0  0  0  0  0  0
    7.6255  -14.7717   19.0911 C   0  0  0  0  0  0  0  0  0  0  0  0
    9.1063  -14.9396   19.0316 C   0  0  0  0  0  0  0  0  0  0  0  0
    9.7017  -15.9330   19.9469 C   0  0  0  0  0  0  0  0  0  0  0  0
    8.8482  -16.4398   21.0524 C   0  0  2  0  0  0  0  0  0  0  0  0
    7.4437  -16.2159   20.6711 N   0  0  0  0  0  0  0  0  0  0  0  0
    9.0921  -15.7130   22.3356 C   0  0  0  0  0  0  0  0  0  0  0  0
   10.2797  -15.4306   22.7109 O   0  0  0  0  0  0  0  0  0  0  0  0
    8.0206  -11.8620   17.7493 C   0  0  0  0  0  0  0  0  0  0  0  0
    5.7858  -12.5383   26.4286 C   0  0  1  0  0  0  0  0  0  0  0  0
    7.1479  -13.2603   26.2713 C   0  0  0  0  0  0  0  0  0  0  0  0
    8.1809  -12.2000   26.4554 C   0  0  0  0  0  0  0  0  0  0  0  0
    7.1259  -13.8934   24.9386 C   0  0  2  0  0  0  0  0  0  0  0  0
    8.3180  -14.7070   24.5352 N   0  0  0  0  0  0  0  0  0  0  0  0
    8.0540  -15.2993   23.1997 C   0  0  0  0  0  0  0  0  0  0  0  0
    8.5696  -15.8514   25.4341 O   0  0  0  0  0  0  0  0  0  0  0  0
    7.6260  -16.6894   25.6247 N   0  0  0  0  0  0  0  0  0  0  0  0
    9.8027  -16.0854   26.1028 C   0  0  1  0  0  0  0  0  0  0  0  0
   10.0364  -17.4093   26.7037 C   0  0  0  0  0  0  0  0  0  0  0  0
   11.1941  -18.0870   26.0144 C   0  0  0  0  0  0  0  0  0  0  0  0
   11.6366  -19.3377   26.6565 O   0  0  0  0  0  0  0  0  0  0  0  0
   10.7333  -20.1561   27.0343 C   0  0  0  0  0  0  0  0  0  0  0  0
   10.4083  -17.1870   28.1222 O   0  0  0  0  0  0  0  0  0  0  0  0
   10.6815  -18.2041   28.8475 O   0  0  0  0  0  0  0  0  0  0  0  0
   12.9332  -19.7218   26.8971 O   0  0  0  0  0  0  0  0  0  0  0  0
  2  1  1  0
  2  4  1  0
  3  2  2  0
  5  4  1  0
  6  5  1  0
  7  6  1  0
  8 10  1  0
  8  9  1  6
  8  7  1  0
 10 11  2  0
 13 12  1  1
 13 14  1  0
 15 13  1  0
 16 15  1  6
 16 17  1  0
 17 10  1  0
 18 16  1  0
 19 18  2  0
 20 18  1  0
 21 20  1  0
 21 22  1  1
 22 23  1  0
 23 27  1  0
 23 24  2  0
 25 21  1  0
 26 25  2  0
 28 25  1  0
M  END
$$$$
