IKP.pdb
     RDKit          3D

 25 25  0  0  1  0  0  0  0  0999 V2000
    6.8293  -11.3114   28.3313 C   0  0  0  0  0  0  0  0  0  0  0  0
    6.8441  -12.7506   27.8789 C   0  0  0  0  0  0  0  0  0  0  0  0
    6.7806  -12.8257   26.3817 C   0  0  2  0  0  0  0  0  0  0  0  0
    5.4409  -12.3162   25.8916 C   0  0  0  0  0  0  0  0  0  0  0  0
    7.0692  -14.2094   25.8717 C   0  0  2  0  0  0  0  0  0  0  0  0
    7.5458  -15.0781   26.9223 N   0  0  0  0  0  0  0  0  0  0  0  0
    8.0492  -14.1678   24.7526 C   0  0  0  0  0  0  0  0  0  0  0  0
    8.4882  -13.0368   24.4024 O   0  0  0  0  0  0  0  0  0  0  0  0
    8.4879  -15.3303   24.0909 N   0  0  0  0  0  0  0  0  0  0  0  0
    9.3281  -15.2799   22.8799 C   0  0  1  0  0  0  0  0  0  0  0  0
   10.2234  -16.4991   22.9043 C   0  0  0  0  0  0  0  0  0  0  0  0
   11.0689  -16.5908   21.6842 C   0  0  0  0  0  0  0  0  0  0  0  0
   11.9609  -17.8393   21.7250 C   0  0  0  0  0  0  0  0  0  0  0  0
   12.7433  -17.8623   20.4444 C   0  0  0  0  0  0  0  0  0  0  0  0
   13.7382  -18.9103   20.4371 N   0  0  0  0  0  0  0  0  0  0  0  0
    8.3944  -15.3490   21.7465 C   0  0  0  0  0  0  0  0  0  0  0  0
    7.3911  -16.1473   21.8874 O   0  0  0  0  0  0  0  0  0  0  0  0
    8.4516  -14.6537   20.5420 N   0  0  0  0  0  0  0  0  0  0  0  0
    9.3737  -13.5564   20.2268 C   0  0  0  0  0  0  0  0  0  0  0  0
    8.5185  -12.6192   19.3823 C   0  0  0  0  0  0  0  0  0  0  0  0
    7.6926  -13.5952   18.5650 C   0  0  0  0  0  0  0  0  0  0  0  0
    7.5937  -14.8669   19.3892 C   0  0  1  0  0  0  0  0  0  0  0  0
    8.0491  -16.0350   18.6233 C   0  0  0  0  0  0  0  0  0  0  0  0
    7.1980  -16.5312   17.6337 O   0  0  0  0  0  0  0  0  0  0  0  0
    9.1336  -16.6329   18.7727 O   0  0  0  0  0  0  0  0  0  0  0  0
  1  2  1  0
  3  5  1  0
  3  2  1  0
  3  4  1  1
  5  6  1  1
  7  5  1  0
  8  7  2  0
  9  7  1  0
 10 11  1  1
 10  9  1  0
 11 12  1  0
 13 12  1  0
 13 14  1  0
 14 15  1  0
 16 17  2  0
 16 10  1  0
 18 16  1  0
 19 18  1  0
 20 21  1  0
 20 19  1  0
 21 22  1  0
 22 18  1  0
 22 23  1  6
 24 23  1  0
 25 23  2  0
M  END
$$$$
