IKP.pdb
     RDKit          3D

 25 25  0  0  1  0  0  0  0  0999 V2000
    7.0451  -11.5261   27.9401 C   0  0  0  0  0  0  0  0  0  0  0  0
    6.1721  -12.5642   27.2794 C   0  0  0  0  0  0  0  0  0  0  0  0
    6.9670  -13.3529   26.2808 C   0  0  2  0  0  0  0  0  0  0  0  0
    7.6368  -12.4186   25.2944 C   0  0  0  0  0  0  0  0  0  0  0  0
    6.1317  -14.3900   25.5847 C   0  0  2  0  0  0  0  0  0  0  0  0
    5.6299  -15.3806   26.5079 N   0  0  0  0  0  0  0  0  0  0  0  0
    6.9023  -15.0456   24.4933 C   0  0  0  0  0  0  0  0  0  0  0  0
    7.2117  -16.2604   24.6452 O   0  0  0  0  0  0  0  0  0  0  0  0
    7.2854  -14.3610   23.3245 N   0  0  0  0  0  0  0  0  0  0  0  0
    7.7736  -15.0629   22.1227 C   0  0  1  0  0  0  0  0  0  0  0  0
    7.7160  -14.0793   20.9747 C   0  0  0  0  0  0  0  0  0  0  0  0
    8.0768  -14.7163   19.6801 C   0  0  0  0  0  0  0  0  0  0  0  0
    8.4434  -13.6590   18.6295 C   0  0  0  0  0  0  0  0  0  0  0  0
    8.7047  -14.3888   17.3442 C   0  0  0  0  0  0  0  0  0  0  0  0
    8.9273  -13.4809   16.2423 N   0  0  0  0  0  0  0  0  0  0  0  0
    9.1664  -15.4304   22.4168 C   0  0  0  0  0  0  0  0  0  0  0  0
    9.8511  -14.5654   23.0852 O   0  0  0  0  0  0  0  0  0  0  0  0
    9.8379  -16.5999   22.0721 N   0  0  0  0  0  0  0  0  0  0  0  0
    9.2773  -17.7173   21.3034 C   0  0  0  0  0  0  0  0  0  0  0  0
    9.9015  -18.9395   21.9664 C   0  0  0  0  0  0  0  0  0  0  0  0
   11.3028  -18.4482   22.2793 C   0  0  0  0  0  0  0  0  0  0  0  0
   11.2035  -16.9405   22.4321 C   0  0  1  0  0  0  0  0  0  0  0  0
   12.1517  -16.2516   21.5462 C   0  0  0  0  0  0  0  0  0  0  0  0
   11.6646  -15.7641   20.3317 O   0  0  0  0  0  0  0  0  0  0  0  0
   13.3623  -16.0578   21.7759 O   0  0  0  0  0  0  0  0  0  0  0  0
  1  2  1  0
  3  5  1  0
  3  2  1  0
  3  4  1  6
  5  6  1  1
  7  5  1  0
  8  7  2  0
  9  7  1  0
 10 11  1  6
 10  9  1  0
 11 12  1  0
 13 12  1  0
 13 14  1  0
 14 15  1  0
 16 17  2  0
 16 10  1  0
 18 16  1  0
 19 18  1  0
 20 21  1  0
 20 19  1  0
 21 22  1  0
 22 18  1  0
 22 23  1  6
 24 23  1  0
 25 23  2  0
M  END
$$$$
