IKP.pdb
     RDKit          3D

 25 25  0  0  1  0  0  0  0  0999 V2000
    7.6137  -20.5500   28.8531 C   0  0  0  0  0  0  0  0  0  0  0  0
    8.2480  -20.4787   27.4861 C   0  0  0  0  0  0  0  0  0  0  0  0
    8.3687  -19.0503   27.0427 C   0  0  2  0  0  0  0  0  0  0  0  0
    6.9984  -18.4080   26.9785 C   0  0  0  0  0  0  0  0  0  0  0  0
    9.1039  -18.9228   25.7384 C   0  0  2  0  0  0  0  0  0  0  0  0
   10.4169  -19.5206   25.8038 N   0  0  0  0  0  0  0  0  0  0  0  0
    9.2064  -17.4969   25.3253 C   0  0  0  0  0  0  0  0  0  0  0  0
   10.0026  -16.7580   25.9693 O   0  0  0  0  0  0  0  0  0  0  0  0
    8.4555  -16.9647   24.2602 N   0  0  0  0  0  0  0  0  0  0  0  0
    8.5344  -15.5443   23.8709 C   0  0  1  0  0  0  0  0  0  0  0  0
    8.2216  -15.4664   22.3928 C   0  0  0  0  0  0  0  0  0  0  0  0
    8.2412  -14.0651   21.8949 C   0  0  0  0  0  0  0  0  0  0  0  0
    7.8692  -14.0042   20.4070 C   0  0  0  0  0  0  0  0  0  0  0  0
    8.0264  -12.5761   19.9729 C   0  0  0  0  0  0  0  0  0  0  0  0
    7.6268  -12.3816   18.5979 N   0  0  0  0  0  0  0  0  0  0  0  0
    7.4951  -14.8604   24.6542 C   0  0  0  0  0  0  0  0  0  0  0  0
    6.3664  -15.4761   24.7567 O   0  0  0  0  0  0  0  0  0  0  0  0
    7.5786  -13.6343   25.3078 N   0  0  0  0  0  0  0  0  0  0  0  0
    8.6859  -12.6772   25.1997 C   0  0  0  0  0  0  0  0  0  0  0  0
    8.7963  -12.1167   26.6128 C   0  0  0  0  0  0  0  0  0  0  0  0
    7.3408  -12.0310   27.0335 C   0  0  0  0  0  0  0  0  0  0  0  0
    6.6015  -13.0906   26.2353 C   0  0  1  0  0  0  0  0  0  0  0  0
    5.4686  -12.5110   25.5012 C   0  0  0  0  0  0  0  0  0  0  0  0
    5.6088  -12.3449   24.1219 O   0  0  0  0  0  0  0  0  0  0  0  0
    4.3822  -12.1488   25.9956 O   0  0  0  0  0  0  0  0  0  0  0  0
  1  2  1  0
  3  5  1  0
  3  2  1  0
  3  4  1  6
  5  6  1  1
  7  5  1  0
  8  7  2  0
  9  7  1  0
 10 11  1  6
 10  9  1  0
 11 12  1  0
 13 12  1  0
 13 14  1  0
 14 15  1  0
 16 17  2  0
 16 10  1  0
 18 16  1  0
 19 18  1  0
 20 21  1  0
 20 19  1  0
 21 22  1  0
 22 18  1  0
 22 23  1  6
 24 23  1  0
 25 23  2  0
M  END
$$$$
