IKP.pdb
     RDKit          3D

 25 25  0  0  1  0  0  0  0  0999 V2000
    5.8263  -11.2535   27.6931 C   0  0  0  0  0  0  0  0  0  0  0  0
    6.0516  -12.7375   27.5405 C   0  0  0  0  0  0  0  0  0  0  0  0
    7.0509  -13.0026   26.4531 C   0  0  2  0  0  0  0  0  0  0  0  0
    6.5643  -12.4144   25.1447 C   0  0  0  0  0  0  0  0  0  0  0  0
    7.3685  -14.4653   26.3208 C   0  0  2  0  0  0  0  0  0  0  0  0
    7.8049  -15.0335   27.5747 N   0  0  0  0  0  0  0  0  0  0  0  0
    8.3950  -14.6913   25.2672 C   0  0  0  0  0  0  0  0  0  0  0  0
    9.5618  -14.2616   25.4869 O   0  0  0  0  0  0  0  0  0  0  0  0
    8.1036  -15.3561   24.0611 N   0  0  0  0  0  0  0  0  0  0  0  0
    9.0410  -15.3728   22.9226 C   0  0  1  0  0  0  0  0  0  0  0  0
    9.7846  -16.6892   22.9733 C   0  0  0  0  0  0  0  0  0  0  0  0
   10.6429  -16.8879   21.7751 C   0  0  0  0  0  0  0  0  0  0  0  0
   11.2891  -18.2801   21.7853 C   0  0  0  0  0  0  0  0  0  0  0  0
   12.1660  -18.3665   20.5702 C   0  0  0  0  0  0  0  0  0  0  0  0
   12.8150  -19.6530   20.4619 N   0  0  0  0  0  0  0  0  0  0  0  0
    8.2020  -15.3012   21.7174 C   0  0  0  0  0  0  0  0  0  0  0  0
    7.1462  -16.0422   21.7178 O   0  0  0  0  0  0  0  0  0  0  0  0
    8.3988  -14.5266   20.5778 N   0  0  0  0  0  0  0  0  0  0  0  0
    9.4419  -13.5098   20.4002 C   0  0  0  0  0  0  0  0  0  0  0  0
    8.7351  -12.4282   19.5918 C   0  0  0  0  0  0  0  0  0  0  0  0
    7.8665  -13.2492   18.6568 C   0  0  0  0  0  0  0  0  0  0  0  0
    7.5937  -14.5625   19.3690 C   0  0  1  0  0  0  0  0  0  0  0  0
    7.9759  -15.7102   18.5353 C   0  0  0  0  0  0  0  0  0  0  0  0
    7.1178  -16.0664   17.4929 O   0  0  0  0  0  0  0  0  0  0  0  0
    9.0032  -16.4048   18.6696 O   0  0  0  0  0  0  0  0  0  0  0  0
  1  2  1  0
  3  5  1  0
  3  2  1  0
  3  4  1  6
  5  6  1  1
  7  5  1  0
  8  7  2  0
  9  7  1  0
 10 11  1  6
 10  9  1  0
 11 12  1  0
 13 12  1  0
 13 14  1  0
 14 15  1  0
 16 17  2  0
 16 10  1  0
 18 16  1  0
 19 18  1  0
 20 21  1  0
 20 19  1  0
 21 22  1  0
 22 18  1  0
 22 23  1  6
 24 23  1  0
 25 23  2  0
M  END
$$$$
