IKP.pdb
     RDKit          3D

 25 25  0  0  1  0  0  0  0  0999 V2000
   10.2364  -20.5489   28.3462 C   0  0  0  0  0  0  0  0  0  0  0  0
    9.1894  -20.2573   27.2998 C   0  0  0  0  0  0  0  0  0  0  0  0
    9.2404  -18.8115   26.9019 C   0  0  2  0  0  0  0  0  0  0  0  0
    7.8502  -18.2112   26.9434 C   0  0  0  0  0  0  0  0  0  0  0  0
    9.8903  -18.6161   25.5613 C   0  0  2  0  0  0  0  0  0  0  0  0
   11.2673  -19.0512   25.5658 N   0  0  0  0  0  0  0  0  0  0  0  0
    9.8000  -17.1943   25.1310 C   0  0  0  0  0  0  0  0  0  0  0  0
   10.5802  -16.3673   25.6803 O   0  0  0  0  0  0  0  0  0  0  0  0
    8.8881  -16.7598   24.1506 N   0  0  0  0  0  0  0  0  0  0  0  0
    8.7407  -15.3388   23.7841 C   0  0  1  0  0  0  0  0  0  0  0  0
    8.3313  -15.2914   22.3285 C   0  0  0  0  0  0  0  0  0  0  0  0
    8.1288  -13.8963   21.8546 C   0  0  0  0  0  0  0  0  0  0  0  0
    7.7443  -13.8698   20.3688 C   0  0  0  0  0  0  0  0  0  0  0  0
    7.7244  -12.4299   19.9457 C   0  0  0  0  0  0  0  0  0  0  0  0
    7.4443  -12.2844   18.5356 N   0  0  0  0  0  0  0  0  0  0  0  0
    7.6639  -14.8186   24.6393 C   0  0  0  0  0  0  0  0  0  0  0  0
    6.6789  -15.6213   24.8607 O   0  0  0  0  0  0  0  0  0  0  0  0
    7.5775  -13.5701   25.2486 N   0  0  0  0  0  0  0  0  0  0  0  0
    8.4610  -12.4266   24.9928 C   0  0  0  0  0  0  0  0  0  0  0  0
    8.6098  -11.7909   26.3700 C   0  0  0  0  0  0  0  0  0  0  0  0
    7.2180  -11.9631   26.9497 C   0  0  0  0  0  0  0  0  0  0  0  0
    6.6174  -13.1792   26.2665 C   0  0  1  0  0  0  0  0  0  0  0  0
    5.3226  -12.8590   25.6505 C   0  0  0  0  0  0  0  0  0  0  0  0
    5.2864  -12.7085   24.2628 O   0  0  0  0  0  0  0  0  0  0  0  0
    4.2411  -12.7069   26.2531 O   0  0  0  0  0  0  0  0  0  0  0  0
  1  2  1  0
  3  5  1  0
  3  2  1  0
  3  4  1  6
  5  6  1  1
  7  5  1  0
  8  7  2  0
  9  7  1  0
 10 11  1  6
 10  9  1  0
 11 12  1  0
 13 12  1  0
 13 14  1  0
 14 15  1  0
 16 17  2  0
 16 10  1  0
 18 16  1  0
 19 18  1  0
 20 21  1  0
 20 19  1  0
 21 22  1  0
 22 18  1  0
 22 23  1  6
 24 23  1  0
 25 23  2  0
M  END
$$$$
