IKP.pdb
     RDKit          3D

 25 25  0  0  1  0  0  0  0  0999 V2000
    8.1835  -12.4518   18.2966 C   0  0  0  0  0  0  0  0  0  0  0  0
    8.3582  -13.8680   18.7867 C   0  0  0  0  0  0  0  0  0  0  0  0
    7.7432  -14.0274   20.1460 C   0  0  2  0  0  0  0  0  0  0  0  0
    8.4603  -13.1463   21.1480 C   0  0  0  0  0  0  0  0  0  0  0  0
    7.7140  -15.4629   20.5891 C   0  0  2  0  0  0  0  0  0  0  0  0
    6.9405  -16.2851   19.6885 N   0  0  0  0  0  0  0  0  0  0  0  0
    7.1857  -15.5788   21.9755 C   0  0  0  0  0  0  0  0  0  0  0  0
    5.9532  -15.3675   22.1504 O   0  0  0  0  0  0  0  0  0  0  0  0
    8.0069  -15.9098   23.0700 N   0  0  0  0  0  0  0  0  0  0  0  0
    7.4690  -16.1084   24.4288 C   0  0  1  0  0  0  0  0  0  0  0  0
    7.6881  -17.5611   24.7898 C   0  0  0  0  0  0  0  0  0  0  0  0
    7.2690  -17.8547   26.1863 C   0  0  0  0  0  0  0  0  0  0  0  0
    7.5435  -19.3212   26.5467 C   0  0  0  0  0  0  0  0  0  0  0  0
    6.9449  -19.5600   27.9023 C   0  0  0  0  0  0  0  0  0  0  0  0
    7.0141  -20.9513   28.2866 N   0  0  0  0  0  0  0  0  0  0  0  0
    8.2660  -15.2346   25.3021 C   0  0  0  0  0  0  0  0  0  0  0  0
    9.5347  -15.2086   25.0712 O   0  0  0  0  0  0  0  0  0  0  0  0
    7.8222  -14.4236   26.3427 N   0  0  0  0  0  0  0  0  0  0  0  0
    6.4234  -14.2231   26.7386 C   0  0  0  0  0  0  0  0  0  0  0  0
    6.3837  -12.7510   27.1311 C   0  0  0  0  0  0  0  0  0  0  0  0
    7.7281  -12.5687   27.8110 C   0  0  0  0  0  0  0  0  0  0  0  0
    8.6570  -13.6079   27.2077 C   0  0  1  0  0  0  0  0  0  0  0  0
    9.2763  -14.4379   28.2497 C   0  0  0  0  0  0  0  0  0  0  0  0
   10.2710  -13.8529   29.0361 O   0  0  0  0  0  0  0  0  0  0  0  0
    8.9972  -15.6269   28.5029 O   0  0  0  0  0  0  0  0  0  0  0  0
  1  2  1  0
  3  5  1  0
  3  2  1  0
  3  4  1  1
  5  6  1  6
  7  5  1  0
  8  7  2  0
  9  7  1  0
 10 11  1  1
 10  9  1  0
 11 12  1  0
 13 12  1  0
 13 14  1  0
 14 15  1  0
 16 17  2  0
 16 10  1  0
 18 16  1  0
 19 18  1  0
 20 21  1  0
 20 19  1  0
 21 22  1  0
 22 18  1  0
 22 23  1  1
 24 23  1  0
 25 23  2  0
M  END
$$$$
