IKP.pdb
     RDKit          3D

 25 25  0  0  1  0  0  0  0  0999 V2000
    8.1752  -12.0684   18.6317 C   0  0  0  0  0  0  0  0  0  0  0  0
    8.2590  -13.5491   18.9093 C   0  0  0  0  0  0  0  0  0  0  0  0
    7.6179  -13.8681   20.2278 C   0  0  2  0  0  0  0  0  0  0  0  0
    8.2415  -13.0311   21.3255 C   0  0  0  0  0  0  0  0  0  0  0  0
    7.6776  -15.3354   20.5459 C   0  0  2  0  0  0  0  0  0  0  0  0
    6.9785  -16.1255   19.5597 N   0  0  0  0  0  0  0  0  0  0  0  0
    7.1326  -15.6057   21.9040 C   0  0  0  0  0  0  0  0  0  0  0  0
    5.8887  -15.4690   22.0720 O   0  0  0  0  0  0  0  0  0  0  0  0
    7.9504  -16.0003   22.9797 N   0  0  0  0  0  0  0  0  0  0  0  0
    7.4273  -16.1701   24.3481 C   0  0  1  0  0  0  0  0  0  0  0  0
    7.5826  -17.6310   24.7094 C   0  0  0  0  0  0  0  0  0  0  0  0
    7.2447  -17.8887   26.1347 C   0  0  0  0  0  0  0  0  0  0  0  0
    7.5485  -19.3436   26.5182 C   0  0  0  0  0  0  0  0  0  0  0  0
    7.0220  -19.5506   27.9084 C   0  0  0  0  0  0  0  0  0  0  0  0
    7.3091  -20.8775   28.4034 N   0  0  0  0  0  0  0  0  0  0  0  0
    8.2803  -15.3340   25.2052 C   0  0  0  0  0  0  0  0  0  0  0  0
    9.5525  -15.4636   25.0364 O   0  0  0  0  0  0  0  0  0  0  0  0
    7.8875  -14.4120   26.1712 N   0  0  0  0  0  0  0  0  0  0  0  0
    6.5106  -13.9780   26.4344 C   0  0  0  0  0  0  0  0  0  0  0  0
    6.6726  -12.4992   26.7659 C   0  0  0  0  0  0  0  0  0  0  0  0
    7.9693  -12.4922   27.5542 C   0  0  0  0  0  0  0  0  0  0  0  0
    8.7679  -13.6917   27.0749 C   0  0  1  0  0  0  0  0  0  0  0  0
    9.1616  -14.5530   28.1981 C   0  0  0  0  0  0  0  0  0  0  0  0
   10.1500  -14.0772   29.0622 O   0  0  0  0  0  0  0  0  0  0  0  0
    8.6940  -15.6799   28.4576 O   0  0  0  0  0  0  0  0  0  0  0  0
  1  2  1  0
  3  5  1  0
  3  2  1  0
  3  4  1  1
  5  6  1  6
  7  5  1  0
  8  7  2  0
  9  7  1  0
 10 11  1  1
 10  9  1  0
 11 12  1  0
 13 12  1  0
 13 14  1  0
 14 15  1  0
 16 17  2  0
 16 10  1  0
 18 16  1  0
 19 18  1  0
 20 21  1  0
 20 19  1  0
 21 22  1  0
 22 18  1  0
 22 23  1  1
 24 23  1  0
 25 23  2  0
M  END
$$$$
