YAY.pdb
     RDKit          3D

 30 31  0  0  1  0  0  0  0  0999 V2000
   28.0752  -14.5569  -18.6646 O   0  0  0  0  0  0  0  0  0  0  0  0
   27.3619  -15.5188  -17.9400 C   0  0  0  0  0  0  0  0  0  0  0  0
   27.5238  -15.6674  -16.5794 C   0  0  0  0  0  0  0  0  0  0  0  0
   26.8223  -16.6141  -15.8636 C   0  0  0  0  0  0  0  0  0  0  0  0
   25.9162  -17.4644  -16.4876 C   0  0  0  0  0  0  0  0  0  0  0  0
   25.1524  -18.4903  -15.7284 C   0  0  0  0  0  0  0  0  0  0  0  0
   26.1171  -19.6428  -15.4204 C   0  0  2  0  0  0  0  0  0  0  0  0
   26.4071  -20.2832  -16.6686 N   0  0  0  0  0  0  0  0  0  0  0  0
   25.5075  -20.6117  -14.4848 C   0  0  0  0  0  0  0  0  0  0  0  0
   24.6018  -21.4013  -14.8888 O   0  0  0  0  0  0  0  0  0  0  0  0
   25.7607  -17.3086  -17.8488 C   0  0  0  0  0  0  0  0  0  0  0  0
   26.4634  -16.3609  -18.5627 C   0  0  0  0  0  0  0  0  0  0  0  0
   25.9111  -21.4642  -10.8567 C   0  0  0  0  0  0  0  0  0  0  0  0
   25.1165  -21.4865  -12.1548 C   0  0  2  0  0  0  0  0  0  0  0  0
   25.8809  -20.7200  -13.1202 N   0  0  0  0  0  0  0  0  0  0  0  0
   23.7753  -20.8928  -11.9222 C   0  0  0  0  0  0  0  0  0  0  0  0
   23.7389  -19.8097  -11.2834 O   0  0  0  0  0  0  0  0  0  0  0  0
   21.1351  -19.5134  -18.3852 O   0  0  0  0  0  0  0  0  0  0  0  0
   21.2060  -19.4886  -16.9853 C   0  0  0  0  0  0  0  0  0  0  0  0
   20.1847  -20.0190  -16.2280 C   0  0  0  0  0  0  0  0  0  0  0  0
   20.2554  -19.9940  -14.8558 C   0  0  0  0  0  0  0  0  0  0  0  0
   21.3396  -19.4434  -14.1646 C   0  0  0  0  0  0  0  0  0  0  0  0
   21.3602  -19.4250  -12.6873 C   0  0  0  0  0  0  0  0  0  0  0  0
   21.3135  -20.8337  -12.1565 C   0  0  2  0  0  0  0  0  0  0  0  0
   22.5941  -21.5093  -12.3929 N   0  0  0  0  0  0  0  0  0  0  0  0
   20.2375  -21.6624  -12.7026 C   0  0  0  0  0  0  0  0  0  0  0  0
   20.4855  -22.7637  -13.5041 O   0  0  0  0  0  0  0  0  0  0  0  0
   22.3453  -18.9206  -14.9505 C   0  0  0  0  0  0  0  0  0  0  0  0
   22.2821  -18.9418  -16.3241 C   0  0  0  0  0  0  0  0  0  0  0  0
   19.0248  -21.3966  -12.4592 O   0  0  0  0  0  0  0  0  0  0  0  0
  2  3  2  0
  2  1  1  0
  4  3  1  0
  5  4  2  0
  6  7  1  0
  6  5  1  0
  7  8  1  6
  9  7  1  0
  9 10  2  0
 11  5  1  0
 11 12  2  0
 12  2  1  0
 14 13  1  1
 14 15  1  0
 15  9  1  0
 16 14  1  0
 17 16  2  0
 18 19  1  0
 19 29  2  0
 20 19  1  0
 20 21  2  0
 21 22  1  0
 22 28  2  0
 22 23  1  0
 24 23  1  6
 24 25  1  0
 24 26  1  0
 25 16  1  0
 26 27  1  0
 29 28  1  0
 30 26  2  0
M  END
$$$$
