YAY.pdb
     RDKit          3D

 30 31  0  0  1  0  0  0  0  0999 V2000
   14.6290  -13.2006  -20.5207 O   0  0  0  0  0  0  0  0  0  0  0  0
   15.4145  -12.4115  -19.6726 C   0  0  0  0  0  0  0  0  0  0  0  0
   16.6044  -11.8584  -20.0943 C   0  0  0  0  0  0  0  0  0  0  0  0
   17.3797  -11.0808  -19.2607 C   0  0  0  0  0  0  0  0  0  0  0  0
   16.9920  -10.8200  -17.9511 C   0  0  0  0  0  0  0  0  0  0  0  0
   17.8182   -9.9831  -17.0404 C   0  0  0  0  0  0  0  0  0  0  0  0
   19.0413  -10.8170  -16.6376 C   0  0  2  0  0  0  0  0  0  0  0  0
   18.5741  -11.8248  -15.7331 N   0  0  0  0  0  0  0  0  0  0  0  0
   20.0630   -9.9781  -15.9759 C   0  0  0  0  0  0  0  0  0  0  0  0
   19.9161   -9.6354  -14.7643 O   0  0  0  0  0  0  0  0  0  0  0  0
   15.8005  -11.3773  -17.5378 C   0  0  0  0  0  0  0  0  0  0  0  0
   15.0265  -12.1548  -18.3734 C   0  0  0  0  0  0  0  0  0  0  0  0
   23.4606   -8.6931  -16.8510 C   0  0  0  0  0  0  0  0  0  0  0  0
   22.2159   -8.6695  -15.9751 C   0  0  2  0  0  0  0  0  0  0  0  0
   21.2354   -9.5158  -16.6279 N   0  0  0  0  0  0  0  0  0  0  0  0
   21.7321   -7.2716  -15.8433 C   0  0  0  0  0  0  0  0  0  0  0  0
   21.0418   -6.8198  -16.7930 O   0  0  0  0  0  0  0  0  0  0  0  0
   18.3495   -6.9931   -9.3448 O   0  0  0  0  0  0  0  0  0  0  0  0
   18.7339   -6.5523  -10.6188 C   0  0  0  0  0  0  0  0  0  0  0  0
   18.7936   -7.4382  -11.6722 C   0  0  0  0  0  0  0  0  0  0  0  0
   19.1704   -7.0048  -12.9207 C   0  0  0  0  0  0  0  0  0  0  0  0
   19.5069   -5.6740  -13.1893 C   0  0  0  0  0  0  0  0  0  0  0  0
   19.9231   -5.2613  -14.5457 C   0  0  0  0  0  0  0  0  0  0  0  0
   21.4238   -5.1500  -14.6096 C   0  0  2  0  0  0  0  0  0  0  0  0
   22.0291   -6.4826  -14.7093 N   0  0  0  0  0  0  0  0  0  0  0  0
   22.0370   -4.4384  -13.4869 C   0  0  0  0  0  0  0  0  0  0  0  0
   21.7371   -3.1188  -13.1944 O   0  0  0  0  0  0  0  0  0  0  0  0
   19.4375   -4.8121  -12.1147 C   0  0  0  0  0  0  0  0  0  0  0  0
   19.0612   -5.2379  -10.8624 C   0  0  0  0  0  0  0  0  0  0  0  0
   22.8764   -5.0121  -12.7341 O   0  0  0  0  0  0  0  0  0  0  0  0
  2  3  2  0
  2  1  1  0
  4  3  1  0
  5  4  2  0
  6  7  1  0
  6  5  1  0
  7  8  1  1
  9  7  1  0
  9 10  2  0
 11  5  1  0
 11 12  2  0
 12  2  1  0
 14 13  1  6
 14 15  1  0
 15  9  1  0
 16 14  1  0
 17 16  2  0
 18 19  1  0
 19 29  2  0
 20 19  1  0
 20 21  2  0
 21 22  1  0
 22 28  2  0
 22 23  1  0
 24 23  1  1
 24 25  1  0
 24 26  1  0
 25 16  1  0
 26 27  1  0
 29 28  1  0
 30 26  2  0
M  END
$$$$
