YAY.pdb
     RDKit          3D

 30 31  0  0  1  0  0  0  0  0999 V2000
   47.2616  -14.6699   -6.3737 O   0  0  0  0  0  0  0  0  0  0  0  0
   46.2944  -13.6641   -6.4822 C   0  0  0  0  0  0  0  0  0  0  0  0
   46.6357  -12.3288   -6.4874 C   0  0  0  0  0  0  0  0  0  0  0  0
   45.6846  -11.3364   -6.5942 C   0  0  0  0  0  0  0  0  0  0  0  0
   44.3325  -11.6422   -6.7018 C   0  0  0  0  0  0  0  0  0  0  0  0
   43.2954  -10.5824   -6.8176 C   0  0  0  0  0  0  0  0  0  0  0  0
   42.2847  -11.0458   -7.8747 C   0  0  2  0  0  0  0  0  0  0  0  0
   43.0301  -11.3175   -9.0675 N   0  0  0  0  0  0  0  0  0  0  0  0
   41.2728  -10.0007   -8.1380 C   0  0  0  0  0  0  0  0  0  0  0  0
   41.5370   -9.0454   -8.9282 O   0  0  0  0  0  0  0  0  0  0  0  0
   44.0003  -12.9804   -6.6957 C   0  0  0  0  0  0  0  0  0  0  0  0
   44.9533  -13.9714   -6.5888 C   0  0  0  0  0  0  0  0  0  0  0  0
   37.7515   -9.3340   -7.0369 C   0  0  0  0  0  0  0  0  0  0  0  0
   39.0410   -8.9075   -7.7241 C   0  0  2  0  0  0  0  0  0  0  0  0
   39.9834   -9.9955   -7.5457 N   0  0  0  0  0  0  0  0  0  0  0  0
   39.5344   -7.6489   -7.1094 C   0  0  0  0  0  0  0  0  0  0  0  0
   40.1521   -7.7561   -6.0188 O   0  0  0  0  0  0  0  0  0  0  0  0
   36.9962   -2.4918  -12.0756 O   0  0  0  0  0  0  0  0  0  0  0  0
   37.8766   -2.9560  -11.0884 C   0  0  0  0  0  0  0  0  0  0  0  0
   38.0711   -2.2304   -9.9335 C   0  0  0  0  0  0  0  0  0  0  0  0
   38.9344   -2.6866   -8.9665 C   0  0  0  0  0  0  0  0  0  0  0  0
   39.6482   -3.8828   -9.0936 C   0  0  0  0  0  0  0  0  0  0  0  0
   40.5784   -4.3213   -8.0327 C   0  0  0  0  0  0  0  0  0  0  0  0
   39.8531   -5.1968   -7.0449 C   0  0  2  0  0  0  0  0  0  0  0  0
   39.3236   -6.3896   -7.7149 N   0  0  0  0  0  0  0  0  0  0  0  0
   38.7615   -4.5393   -6.3245 C   0  0  0  0  0  0  0  0  0  0  0  0
   38.9785   -3.4849   -5.4539 O   0  0  0  0  0  0  0  0  0  0  0  0
   39.4320   -4.5858  -10.2605 C   0  0  0  0  0  0  0  0  0  0  0  0
   38.5698   -4.1362  -11.2328 C   0  0  0  0  0  0  0  0  0  0  0  0
   37.5635   -4.9181   -6.4729 O   0  0  0  0  0  0  0  0  0  0  0  0
  2  3  2  0
  2  1  1  0
  4  3  1  0
  5  4  2  0
  6  7  1  0
  6  5  1  0
  7  8  1  6
  9  7  1  0
  9 10  2  0
 11  5  1  0
 11 12  2  0
 12  2  1  0
 14 13  1  1
 14 15  1  0
 15  9  1  0
 16 14  1  0
 17 16  2  0
 18 19  1  0
 19 29  2  0
 20 19  1  0
 20 21  2  0
 21 22  1  0
 22 28  2  0
 22 23  1  0
 24 23  1  6
 24 25  1  0
 24 26  1  0
 25 16  1  0
 26 27  1  0
 29 28  1  0
 30 26  2  0
M  END
$$$$
