YAY.pdb
     RDKit          3D

 30 31  0  0  1  0  0  0  0  0999 V2000
   25.5344   -8.0992  -24.5589 O   0  0  0  0  0  0  0  0  0  0  0  0
   25.4725   -9.4746  -24.3072 C   0  0  0  0  0  0  0  0  0  0  0  0
   24.8643  -10.3449  -25.1860 C   0  0  0  0  0  0  0  0  0  0  0  0
   24.8021  -11.7000  -24.9402 C   0  0  0  0  0  0  0  0  0  0  0  0
   25.3536  -12.2497  -23.7882 C   0  0  0  0  0  0  0  0  0  0  0  0
   25.2941  -13.7096  -23.5096 C   0  0  0  0  0  0  0  0  0  0  0  0
   26.5966  -14.3281  -24.0336 C   0  0  2  0  0  0  0  0  0  0  0  0
   26.5046  -14.3349  -25.4632 N   0  0  0  0  0  0  0  0  0  0  0  0
   26.7703  -15.7078  -23.5317 C   0  0  0  0  0  0  0  0  0  0  0  0
   26.0625  -16.6486  -24.0016 O   0  0  0  0  0  0  0  0  0  0  0  0
   25.9599  -11.3719  -22.9148 C   0  0  0  0  0  0  0  0  0  0  0  0
   26.0209  -10.0167  -23.1628 C   0  0  0  0  0  0  0  0  0  0  0  0
   29.0400  -17.4096  -21.0833 C   0  0  0  0  0  0  0  0  0  0  0  0
   27.8216  -17.4057  -21.9957 C   0  0  2  0  0  0  0  0  0  0  0  0
   27.7071  -16.0605  -22.5260 N   0  0  0  0  0  0  0  0  0  0  0  0
   26.6190  -17.7907  -21.2141 C   0  0  0  0  0  0  0  0  0  0  0  0
   25.9573  -16.8546  -20.6960 O   0  0  0  0  0  0  0  0  0  0  0  0
   19.0217  -20.4944  -18.4204 O   0  0  0  0  0  0  0  0  0  0  0  0
   20.1991  -20.0578  -19.0434 C   0  0  0  0  0  0  0  0  0  0  0  0
   20.7629  -20.7970  -20.0601 C   0  0  0  0  0  0  0  0  0  0  0  0
   21.9171  -20.3678  -20.6701 C   0  0  0  0  0  0  0  0  0  0  0  0
   22.5710  -19.1865  -20.3049 C   0  0  0  0  0  0  0  0  0  0  0  0
   23.8200  -18.7772  -20.9800 C   0  0  0  0  0  0  0  0  0  0  0  0
   25.0013  -19.4300  -20.3116 C   0  0  2  0  0  0  0  0  0  0  0  0
   26.2316  -19.1404  -21.0565 N   0  0  0  0  0  0  0  0  0  0  0  0
   24.8876  -20.8789  -20.1377 C   0  0  0  0  0  0  0  0  0  0  0  0
   24.2409  -21.4457  -19.0526 O   0  0  0  0  0  0  0  0  0  0  0  0
   21.9822  -18.4693  -19.2845 C   0  0  0  0  0  0  0  0  0  0  0  0
   20.8273  -18.8918  -18.6690 C   0  0  0  0  0  0  0  0  0  0  0  0
   25.3851  -21.6764  -20.9844 O   0  0  0  0  0  0  0  0  0  0  0  0
  2  3  2  0
  2  1  1  0
  4  3  1  0
  5  4  2  0
  6  7  1  0
  6  5  1  0
  7  8  1  6
  9  7  1  0
  9 10  2  0
 11  5  1  0
 11 12  2  0
 12  2  1  0
 14 13  1  1
 14 15  1  0
 15  9  1  0
 16 14  1  0
 17 16  2  0
 18 19  1  0
 19 29  2  0
 20 19  1  0
 20 21  2  0
 21 22  1  0
 22 28  2  0
 22 23  1  0
 24 23  1  6
 24 25  1  0
 24 26  1  0
 25 16  1  0
 26 27  1  0
 29 28  1  0
 30 26  2  0
M  END
$$$$
