YAY.pdb
     RDKit          3D

 30 31  0  0  1  0  0  0  0  0999 V2000
   21.2451  -17.0508  -17.6981 O   0  0  0  0  0  0  0  0  0  0  0  0
   21.9901  -17.8579  -16.8307 C   0  0  0  0  0  0  0  0  0  0  0  0
   21.4529  -18.3540  -15.6625 C   0  0  0  0  0  0  0  0  0  0  0  0
   22.1850  -19.1492  -14.8066 C   0  0  0  0  0  0  0  0  0  0  0  0
   23.5043  -19.4866  -15.0873 C   0  0  0  0  0  0  0  0  0  0  0  0
   24.3063  -20.3434  -14.1735 C   0  0  0  0  0  0  0  0  0  0  0  0
   25.7824  -20.1501  -14.5441 C   0  0  2  0  0  0  0  0  0  0  0  0
   25.9116  -20.5080  -15.9251 N   0  0  0  0  0  0  0  0  0  0  0  0
   26.6560  -21.0080  -13.7156 C   0  0  0  0  0  0  0  0  0  0  0  0
   27.3531  -21.9171  -14.2584 O   0  0  0  0  0  0  0  0  0  0  0  0
   24.0335  -18.9859  -16.2580 C   0  0  0  0  0  0  0  0  0  0  0  0
   23.2994  -18.1907  -17.1126 C   0  0  0  0  0  0  0  0  0  0  0  0
   29.0675  -20.2964  -12.0594 C   0  0  0  0  0  0  0  0  0  0  0  0
   27.9717  -21.2374  -11.5793 C   0  0  2  0  0  0  0  0  0  0  0  0
   26.7699  -20.8774  -12.3073 N   0  0  0  0  0  0  0  0  0  0  0  0
   27.7925  -21.0788  -10.1136 C   0  0  0  0  0  0  0  0  0  0  0  0
   28.6266  -20.3500   -9.5172 O   0  0  0  0  0  0  0  0  0  0  0  0
   29.2290  -20.3087   -3.2334 O   0  0  0  0  0  0  0  0  0  0  0  0
   28.5816  -20.1245   -4.4631 C   0  0  0  0  0  0  0  0  0  0  0  0
   27.2500  -20.4490   -4.6032 C   0  0  0  0  0  0  0  0  0  0  0  0
   26.6165  -20.2679   -5.8091 C   0  0  0  0  0  0  0  0  0  0  0  0
   27.2683  -19.7569   -6.9363 C   0  0  0  0  0  0  0  0  0  0  0  0
   26.5469  -19.5976   -8.2159 C   0  0  0  0  0  0  0  0  0  0  0  0
   25.8603  -20.8874   -8.5812 C   0  0  2  0  0  0  0  0  0  0  0  0
   26.7389  -21.7127   -9.4173 N   0  0  0  0  0  0  0  0  0  0  0  0
   24.5751  -20.7292   -9.2638 C   0  0  0  0  0  0  0  0  0  0  0  0
   23.3883  -20.5473   -8.5744 O   0  0  0  0  0  0  0  0  0  0  0  0
   28.6000  -19.4420   -6.7641 C   0  0  0  0  0  0  0  0  0  0  0  0
   29.2412  -19.6202   -5.5607 C   0  0  0  0  0  0  0  0  0  0  0  0
   24.5021  -20.7552  -10.5265 O   0  0  0  0  0  0  0  0  0  0  0  0
  2  3  2  0
  2  1  1  0
  4  3  1  0
  5  4  2  0
  6  7  1  0
  6  5  1  0
  7  8  1  6
  9  7  1  0
  9 10  2  0
 11  5  1  0
 11 12  2  0
 12  2  1  0
 14 13  1  6
 14 15  1  0
 15  9  1  0
 16 14  1  0
 17 16  2  0
 18 19  1  0
 19 29  2  0
 20 19  1  0
 20 21  2  0
 21 22  1  0
 22 28  2  0
 22 23  1  0
 24 23  1  6
 24 25  1  0
 24 26  1  0
 25 16  1  0
 26 27  1  0
 29 28  1  0
 30 26  2  0
M  END
$$$$
