YAY.pdb
     RDKit          3D

 30 31  0  0  1  0  0  0  0  0999 V2000
   28.9842  -34.6581  -15.5966 O   0  0  0  0  0  0  0  0  0  0  0  0
   28.2088  -33.5169  -15.8319 C   0  0  0  0  0  0  0  0  0  0  0  0
   27.2200  -33.4985  -16.7918 C   0  0  0  0  0  0  0  0  0  0  0  0
   26.4550  -32.3756  -17.0253 C   0  0  0  0  0  0  0  0  0  0  0  0
   26.6496  -31.2067  -16.2977 C   0  0  0  0  0  0  0  0  0  0  0  0
   25.8321  -29.9877  -16.5385 C   0  0  0  0  0  0  0  0  0  0  0  0
   26.4903  -29.2163  -17.6897 C   0  0  2  0  0  0  0  0  0  0  0  0
   27.5267  -28.4148  -17.1103 N   0  0  0  0  0  0  0  0  0  0  0  0
   25.5098  -28.3522  -18.3808 C   0  0  0  0  0  0  0  0  0  0  0  0
   25.4848  -27.1066  -18.1470 O   0  0  0  0  0  0  0  0  0  0  0  0
   27.6407  -31.2342  -15.3396 C   0  0  0  0  0  0  0  0  0  0  0  0
   28.4047  -32.3586  -15.1078 C   0  0  0  0  0  0  0  0  0  0  0  0
   23.5426  -28.4873  -21.4428 C   0  0  0  0  0  0  0  0  0  0  0  0
   23.6260  -27.9771  -20.0112 C   0  0  2  0  0  0  0  0  0  0  0  0
   24.5638  -28.8404  -19.3190 N   0  0  0  0  0  0  0  0  0  0  0  0
   22.2773  -28.0248  -19.3913 C   0  0  0  0  0  0  0  0  0  0  0  0
   21.4219  -27.2159  -19.8346 O   0  0  0  0  0  0  0  0  0  0  0  0
   18.7548  -30.8541  -23.5687 O   0  0  0  0  0  0  0  0  0  0  0  0
   19.0545  -30.7206  -22.2057 C   0  0  0  0  0  0  0  0  0  0  0  0
   18.3502  -29.8322  -21.4229 C   0  0  0  0  0  0  0  0  0  0  0  0
   18.6448  -29.7023  -20.0870 C   0  0  0  0  0  0  0  0  0  0  0  0
   19.6506  -30.4444  -19.4589 C   0  0  0  0  0  0  0  0  0  0  0  0
   19.9409  -30.2551  -18.0226 C   0  0  0  0  0  0  0  0  0  0  0  0
   20.6036  -28.9202  -17.8053 C   0  0  2  0  0  0  0  0  0  0  0  0
   21.9640  -28.9319  -18.3541 N   0  0  0  0  0  0  0  0  0  0  0  0
   20.6639  -28.4823  -16.4098 C   0  0  0  0  0  0  0  0  0  0  0  0
   21.8548  -28.1393  -15.7925 O   0  0  0  0  0  0  0  0  0  0  0  0
   20.3373  -31.3244  -20.2690 C   0  0  0  0  0  0  0  0  0  0  0  0
   20.0485  -31.4604  -21.6067 C   0  0  0  0  0  0  0  0  0  0  0  0
   19.6147  -28.4021  -15.7076 O   0  0  0  0  0  0  0  0  0  0  0  0
  2  3  2  0
  2  1  1  0
  4  3  1  0
  5  4  2  0
  6  7  1  0
  6  5  1  0
  7  8  1  1
  9  7  1  0
  9 10  2  0
 11  5  1  0
 11 12  2  0
 12  2  1  0
 14 13  1  6
 14 15  1  0
 15  9  1  0
 16 14  1  0
 17 16  2  0
 18 19  1  0
 19 29  2  0
 20 19  1  0
 20 21  2  0
 21 22  1  0
 22 28  2  0
 22 23  1  0
 24 23  1  1
 24 25  1  0
 24 26  1  0
 25 16  1  0
 26 27  1  0
 29 28  1  0
 30 26  2  0
M  END
$$$$
