YAY.pdb
     RDKit          3D

 30 31  0  0  1  0  0  0  0  0999 V2000
   30.6498   -8.2794  -18.4739 O   0  0  0  0  0  0  0  0  0  0  0  0
   29.5768   -7.3987  -18.6526 C   0  0  0  0  0  0  0  0  0  0  0  0
   28.3561   -7.6126  -18.0495 C   0  0  0  0  0  0  0  0  0  0  0  0
   27.2979   -6.7464  -18.2241 C   0  0  0  0  0  0  0  0  0  0  0  0
   27.4178   -5.6132  -19.0209 C   0  0  0  0  0  0  0  0  0  0  0  0
   26.2849   -4.6699  -19.2185 C   0  0  0  0  0  0  0  0  0  0  0  0
   25.3489   -5.2924  -20.2626 C   0  0  2  0  0  0  0  0  0  0  0  0
   26.0418   -5.2500  -21.5157 N   0  0  0  0  0  0  0  0  0  0  0  0
   24.0820   -4.5366  -20.3596 C   0  0  0  0  0  0  0  0  0  0  0  0
   23.9480   -3.6311  -21.2366 O   0  0  0  0  0  0  0  0  0  0  0  0
   28.6423   -5.4071  -19.6203 C   0  0  0  0  0  0  0  0  0  0  0  0
   29.6995   -6.2750  -19.4442 C   0  0  0  0  0  0  0  0  0  0  0  0
   20.6227   -5.0898  -19.7611 C   0  0  0  0  0  0  0  0  0  0  0  0
   21.7193   -4.0413  -19.6387 C   0  0  2  0  0  0  0  0  0  0  0  0
   22.9697   -4.7647  -19.5087 N   0  0  0  0  0  0  0  0  0  0  0  0
   21.4548   -3.1870  -18.4531 C   0  0  0  0  0  0  0  0  0  0  0  0
   21.8260   -3.6358  -17.3381 O   0  0  0  0  0  0  0  0  0  0  0  0
   26.3426    1.5181  -18.1630 O   0  0  0  0  0  0  0  0  0  0  0  0
   24.9809    1.2203  -18.0134 C   0  0  0  0  0  0  0  0  0  0  0  0
   24.2033    0.9488  -19.1178 C   0  0  0  0  0  0  0  0  0  0  0  0
   22.8686    0.6571  -18.9698 C   0  0  0  0  0  0  0  0  0  0  0  0
   22.2367    0.6193  -17.7225 C   0  0  0  0  0  0  0  0  0  0  0  0
   20.7941    0.3176  -17.6177 C   0  0  0  0  0  0  0  0  0  0  0  0
   20.5960   -1.1500  -17.3433 C   0  0  2  0  0  0  0  0  0  0  0  0
   20.8176   -1.9307  -18.5654 N   0  0  0  0  0  0  0  0  0  0  0  0
   19.2867   -1.5023  -16.7918 C   0  0  0  0  0  0  0  0  0  0  0  0
   18.8155   -0.9684  -15.6045 O   0  0  0  0  0  0  0  0  0  0  0  0
   23.0416    0.8955  -16.6370 C   0  0  0  0  0  0  0  0  0  0  0  0
   24.3780    1.1883  -16.7767 C   0  0  0  0  0  0  0  0  0  0  0  0
   18.5286   -2.3206  -17.3887 O   0  0  0  0  0  0  0  0  0  0  0  0
  2  3  2  0
  2  1  1  0
  4  3  1  0
  5  4  2  0
  6  7  1  0
  6  5  1  0
  7  8  1  6
  9  7  1  0
  9 10  2  0
 11  5  1  0
 11 12  2  0
 12  2  1  0
 14 13  1  1
 14 15  1  0
 15  9  1  0
 16 14  1  0
 17 16  2  0
 18 19  1  0
 19 29  2  0
 20 19  1  0
 20 21  2  0
 21 22  1  0
 22 28  2  0
 22 23  1  0
 24 23  1  6
 24 25  1  0
 24 26  1  0
 25 16  1  0
 26 27  1  0
 29 28  1  0
 30 26  2  0
M  END
$$$$
