YAY.pdb
     RDKit          3D

 30 31  0  0  1  0  0  0  0  0999 V2000
   15.2388  -22.9409  -17.7422 O   0  0  0  0  0  0  0  0  0  0  0  0
   16.0973  -23.8798  -17.1587 C   0  0  0  0  0  0  0  0  0  0  0  0
   16.2453  -23.9743  -15.7917 C   0  0  0  0  0  0  0  0  0  0  0  0
   17.0903  -24.8983  -15.2147 C   0  0  0  0  0  0  0  0  0  0  0  0
   17.8338  -25.7794  -15.9921 C   0  0  0  0  0  0  0  0  0  0  0  0
   18.7493  -26.7814  -15.3837 C   0  0  0  0  0  0  0  0  0  0  0  0
   19.7882  -26.0098  -14.5596 C   0  0  2  0  0  0  0  0  0  0  0  0
   20.7988  -25.5715  -15.4754 N   0  0  0  0  0  0  0  0  0  0  0  0
   20.3885  -26.8712  -13.5187 C   0  0  0  0  0  0  0  0  0  0  0  0
   21.3360  -27.6594  -13.8152 O   0  0  0  0  0  0  0  0  0  0  0  0
   17.6795  -25.6778  -17.3584 C   0  0  0  0  0  0  0  0  0  0  0  0
   16.8337  -24.7527  -17.9334 C   0  0  0  0  0  0  0  0  0  0  0  0
   19.8486  -27.4069   -9.8459 C   0  0  0  0  0  0  0  0  0  0  0  0
   20.5693  -27.7134  -11.1512 C   0  0  2  0  0  0  0  0  0  0  0  0
   19.9605  -26.8746  -12.1659 N   0  0  0  0  0  0  0  0  0  0  0  0
   20.4191  -29.1560  -11.4705 C   0  0  0  0  0  0  0  0  0  0  0  0
   19.3730  -29.4943  -12.0819 O   0  0  0  0  0  0  0  0  0  0  0  0
   26.3446  -32.6945   -7.9383 O   0  0  0  0  0  0  0  0  0  0  0  0
   25.3671  -32.5784   -8.9364 C   0  0  0  0  0  0  0  0  0  0  0  0
   25.2434  -31.4099   -9.6558 C   0  0  0  0  0  0  0  0  0  0  0  0
   24.2849  -31.2974  -10.6340 C   0  0  0  0  0  0  0  0  0  0  0  0
   23.4012  -32.3348  -10.9495 C   0  0  0  0  0  0  0  0  0  0  0  0
   22.3758  -32.1580  -11.9986 C   0  0  0  0  0  0  0  0  0  0  0  0
   21.1452  -31.5198  -11.4098 C   0  0  2  0  0  0  0  0  0  0  0  0
   21.3994  -30.1069  -11.1079 N   0  0  0  0  0  0  0  0  0  0  0  0
   20.6294  -32.1720  -10.2051 C   0  0  0  0  0  0  0  0  0  0  0  0
   20.5439  -31.5177   -8.9881 O   0  0  0  0  0  0  0  0  0  0  0  0
   23.5502  -33.4908  -10.2121 C   0  0  0  0  0  0  0  0  0  0  0  0
   24.5069  -33.6114   -9.2316 C   0  0  0  0  0  0  0  0  0  0  0  0
   20.2392  -33.3752  -10.2336 O   0  0  0  0  0  0  0  0  0  0  0  0
  2  3  2  0
  2  1  1  0
  4  3  1  0
  5  4  2  0
  6  7  1  0
  6  5  1  0
  7  8  1  6
  9  7  1  0
  9 10  2  0
 11  5  1  0
 11 12  2  0
 12  2  1  0
 14 13  1  1
 14 15  1  0
 15  9  1  0
 16 14  1  0
 17 16  2  0
 18 19  1  0
 19 29  2  0
 20 19  1  0
 20 21  2  0
 21 22  1  0
 22 28  2  0
 22 23  1  0
 24 23  1  1
 24 25  1  0
 24 26  1  0
 25 16  1  0
 26 27  1  0
 29 28  1  0
 30 26  2  0
M  END
$$$$
