YAY.pdb
     RDKit          3D

 30 31  0  0  1  0  0  0  0  0999 V2000
   18.0334  -18.7746  -18.9489 O   0  0  0  0  0  0  0  0  0  0  0  0
   18.6204  -17.5463  -18.6237 C   0  0  0  0  0  0  0  0  0  0  0  0
   17.8744  -16.4921  -18.1423 C   0  0  0  0  0  0  0  0  0  0  0  0
   18.4504  -15.2813  -17.8214 C   0  0  0  0  0  0  0  0  0  0  0  0
   19.8167  -15.0710  -17.9705 C   0  0  0  0  0  0  0  0  0  0  0  0
   20.4520  -13.7703  -17.6284 C   0  0  0  0  0  0  0  0  0  0  0  0
   20.2568  -12.8365  -18.8300 C   0  0  2  0  0  0  0  0  0  0  0  0
   21.2151  -13.2306  -19.8191 N   0  0  0  0  0  0  0  0  0  0  0  0
   20.4754  -11.4251  -18.4483 C   0  0  0  0  0  0  0  0  0  0  0  0
   21.6543  -10.9739  -18.3315 O   0  0  0  0  0  0  0  0  0  0  0  0
   20.5552  -16.1309  -18.4526 C   0  0  0  0  0  0  0  0  0  0  0  0
   19.9768  -17.3411  -18.7731 C   0  0  0  0  0  0  0  0  0  0  0  0
   18.4010   -8.3577  -18.1679 C   0  0  0  0  0  0  0  0  0  0  0  0
   19.6477   -9.1409  -17.7814 C   0  0  2  0  0  0  0  0  0  0  0  0
   19.4191  -10.5120  -18.1958 N   0  0  0  0  0  0  0  0  0  0  0  0
   19.8586   -9.0398  -16.3148 C   0  0  0  0  0  0  0  0  0  0  0  0
   19.2677   -9.8883  -15.5983 O   0  0  0  0  0  0  0  0  0  0  0  0
   22.8890   -2.0506  -15.2224 O   0  0  0  0  0  0  0  0  0  0  0  0
   22.7334   -3.4112  -14.9223 C   0  0  0  0  0  0  0  0  0  0  0  0
   22.2526   -3.8010  -13.6915 C   0  0  0  0  0  0  0  0  0  0  0  0
   22.1005   -5.1350  -13.3986 C   0  0  0  0  0  0  0  0  0  0  0  0
   22.4163   -6.1496  -14.3083 C   0  0  0  0  0  0  0  0  0  0  0  0
   22.2516   -7.5707  -13.9387 C   0  0  0  0  0  0  0  0  0  0  0  0
   20.8622   -8.0338  -14.2901 C   0  0  2  0  0  0  0  0  0  0  0  0
   20.6814   -8.0417  -15.7459 N   0  0  0  0  0  0  0  0  0  0  0  0
   19.7814   -7.2523  -13.6869 C   0  0  0  0  0  0  0  0  0  0  0  0
   19.4849   -7.3186  -12.3362 O   0  0  0  0  0  0  0  0  0  0  0  0
   22.8952   -5.7273  -15.5309 C   0  0  0  0  0  0  0  0  0  0  0  0
   23.0502   -4.3944  -15.8317 C   0  0  0  0  0  0  0  0  0  0  0  0
   19.0683   -6.4785  -14.3892 O   0  0  0  0  0  0  0  0  0  0  0  0
  2  3  2  0
  2  1  1  0
  4  3  1  0
  5  4  2  0
  6  7  1  0
  6  5  1  0
  7  8  1  6
  9  7  1  0
  9 10  2  0
 11  5  1  0
 11 12  2  0
 12  2  1  0
 14 13  1  1
 14 15  1  0
 15  9  1  0
 16 14  1  0
 17 16  2  0
 18 19  1  0
 19 29  2  0
 20 19  1  0
 20 21  2  0
 21 22  1  0
 22 28  2  0
 22 23  1  0
 24 23  1  6
 24 25  1  0
 24 26  1  0
 25 16  1  0
 26 27  1  0
 29 28  1  0
 30 26  2  0
M  END
$$$$
