YAY.pdb
     RDKit          3D

 30 31  0  0  1  0  0  0  0  0999 V2000
   22.2084   -2.6957  -14.4721 O   0  0  0  0  0  0  0  0  0  0  0  0
   22.7301   -3.9648  -14.7480 C   0  0  0  0  0  0  0  0  0  0  0  0
   23.7806   -4.1415  -15.6225 C   0  0  0  0  0  0  0  0  0  0  0  0
   24.2961   -5.3906  -15.8956 C   0  0  0  0  0  0  0  0  0  0  0  0
   23.7750   -6.5322  -15.2970 C   0  0  0  0  0  0  0  0  0  0  0  0
   24.3207   -7.8862  -15.5820 C   0  0  0  0  0  0  0  0  0  0  0  0
   23.6150   -8.4075  -16.8406 C   0  0  2  0  0  0  0  0  0  0  0  0
   23.9074   -7.4796  -17.8921 N   0  0  0  0  0  0  0  0  0  0  0  0
   22.1536   -8.4937  -16.6343 C   0  0  0  0  0  0  0  0  0  0  0  0
   21.3954   -7.5759  -17.0698 O   0  0  0  0  0  0  0  0  0  0  0  0
   22.7243   -6.3461  -14.4236 C   0  0  0  0  0  0  0  0  0  0  0  0
   22.2103   -5.0956  -14.1518 C   0  0  0  0  0  0  0  0  0  0  0  0
   19.7505  -11.1002  -15.5150 C   0  0  0  0  0  0  0  0  0  0  0  0
   20.0887   -9.6350  -15.7505 C   0  0  2  0  0  0  0  0  0  0  0  0
   21.5226   -9.5705  -15.9592 N   0  0  0  0  0  0  0  0  0  0  0  0
   19.6704   -8.8364  -14.5704 C   0  0  0  0  0  0  0  0  0  0  0  0
   20.4808   -8.7789  -13.6099 O   0  0  0  0  0  0  0  0  0  0  0  0
   17.1204   -2.7418   -9.0912 O   0  0  0  0  0  0  0  0  0  0  0  0
   17.6079   -3.6229  -10.0665 C   0  0  0  0  0  0  0  0  0  0  0  0
   17.5214   -3.2979  -11.4026 C   0  0  0  0  0  0  0  0  0  0  0  0
   17.9997   -4.1624  -12.3576 C   0  0  0  0  0  0  0  0  0  0  0  0
   18.5872   -5.3912  -12.0389 C   0  0  0  0  0  0  0  0  0  0  0  0
   19.0704   -6.2939  -13.1042 C   0  0  0  0  0  0  0  0  0  0  0  0
   18.0850   -7.4136  -13.3131 C   0  0  2  0  0  0  0  0  0  0  0  0
   18.4245   -8.1714  -14.5225 N   0  0  0  0  0  0  0  0  0  0  0  0
   16.6852   -6.9942  -13.3991 C   0  0  0  0  0  0  0  0  0  0  0  0
   16.0893   -6.6460  -14.5993 O   0  0  0  0  0  0  0  0  0  0  0  0
   18.6589   -5.6875  -10.6938 C   0  0  0  0  0  0  0  0  0  0  0  0
   18.1827   -4.8278   -9.7320 C   0  0  0  0  0  0  0  0  0  0  0  0
   15.9601   -6.9327  -12.3642 O   0  0  0  0  0  0  0  0  0  0  0  0
  2  3  2  0
  2  1  1  0
  4  3  1  0
  5  4  2  0
  6  7  1  0
  6  5  1  0
  7  8  1  6
  9  7  1  0
  9 10  2  0
 11  5  1  0
 11 12  2  0
 12  2  1  0
 14 13  1  1
 14 15  1  0
 15  9  1  0
 16 14  1  0
 17 16  2  0
 18 19  1  0
 19 29  2  0
 20 19  1  0
 20 21  2  0
 21 22  1  0
 22 28  2  0
 22 23  1  0
 24 23  1  6
 24 25  1  0
 24 26  1  0
 25 16  1  0
 26 27  1  0
 29 28  1  0
 30 26  2  0
M  END
$$$$
