YAY.pdb
     RDKit          3D

 30 31  0  0  1  0  0  0  0  0999 V2000
   30.5543  -20.1263  -16.5459 O   0  0  0  0  0  0  0  0  0  0  0  0
   29.1910  -20.2201  -16.2430 C   0  0  0  0  0  0  0  0  0  0  0  0
   28.6124  -19.4453  -15.2609 C   0  0  0  0  0  0  0  0  0  0  0  0
   27.2699  -19.5361  -14.9610 C   0  0  0  0  0  0  0  0  0  0  0  0
   26.4374  -20.4184  -15.6405 C   0  0  0  0  0  0  0  0  0  0  0  0
   24.9873  -20.5272  -15.3278 C   0  0  0  0  0  0  0  0  0  0  0  0
   24.2180  -20.2509  -16.6261 C   0  0  2  0  0  0  0  0  0  0  0  0
   24.4155  -18.8664  -16.9364 N   0  0  0  0  0  0  0  0  0  0  0  0
   22.7759  -20.5311  -16.4602 C   0  0  0  0  0  0  0  0  0  0  0  0
   22.0717  -19.8057  -15.6955 O   0  0  0  0  0  0  0  0  0  0  0  0
   27.0246  -21.1894  -16.6212 C   0  0  0  0  0  0  0  0  0  0  0  0
   28.3678  -21.0970  -16.9196 C   0  0  0  0  0  0  0  0  0  0  0  0
   20.2181  -22.4491  -18.2968 C   0  0  0  0  0  0  0  0  0  0  0  0
   20.6808  -21.8276  -16.9866 C   0  0  2  0  0  0  0  0  0  0  0  0
   22.1058  -21.5927  -17.1216 N   0  0  0  0  0  0  0  0  0  0  0  0
   20.3824  -22.7569  -15.8674 C   0  0  0  0  0  0  0  0  0  0  0  0
   20.6725  -23.9681  -16.0448 O   0  0  0  0  0  0  0  0  0  0  0  0
   17.3919  -26.2539   -8.3858 O   0  0  0  0  0  0  0  0  0  0  0  0
   17.9743  -25.4054   -9.3377 C   0  0  0  0  0  0  0  0  0  0  0  0
   17.3372  -24.2440   -9.7161 C   0  0  0  0  0  0  0  0  0  0  0  0
   17.9091  -23.4131  -10.6493 C   0  0  0  0  0  0  0  0  0  0  0  0
   19.1395  -23.6895  -11.2546 C   0  0  0  0  0  0  0  0  0  0  0  0
   19.7042  -22.7725  -12.2662 C   0  0  0  0  0  0  0  0  0  0  0  0
   19.4378  -23.3077  -13.6486 C   0  0  2  0  0  0  0  0  0  0  0  0
   19.8011  -22.3089  -14.6598 N   0  0  0  0  0  0  0  0  0  0  0  0
   18.0592  -23.7379  -13.8875 C   0  0  0  0  0  0  0  0  0  0  0  0
   17.0583  -22.8506  -14.2449 O   0  0  0  0  0  0  0  0  0  0  0  0
   19.7519  -24.8590  -10.8550 C   0  0  0  0  0  0  0  0  0  0  0  0
   19.1862  -25.6957   -9.9218 C   0  0  0  0  0  0  0  0  0  0  0  0
   17.7283  -24.9535  -13.7724 O   0  0  0  0  0  0  0  0  0  0  0  0
  2  3  2  0
  2  1  1  0
  4  3  1  0
  5  4  2  0
  6  7  1  0
  6  5  1  0
  7  8  1  1
  9  7  1  0
  9 10  2  0
 11  5  1  0
 11 12  2  0
 12  2  1  0
 14 13  1  6
 14 15  1  0
 15  9  1  0
 16 14  1  0
 17 16  2  0
 18 19  1  0
 19 29  2  0
 20 19  1  0
 20 21  2  0
 21 22  1  0
 22 28  2  0
 22 23  1  0
 24 23  1  1
 24 25  1  0
 24 26  1  0
 25 16  1  0
 26 27  1  0
 29 28  1  0
 30 26  2  0
M  END
$$$$
