ATQ.pdb
     RDKit          3D

 22 21  0  0  1  0  0  0  0  0999 V2000
   16.2113   -8.3474  -15.3947 C   0  0  0  0  0  0  0  0  0  0  0  0
   17.2889   -9.1649  -16.0537 C   0  0  2  0  0  0  0  0  0  0  0  0
   16.7496  -10.4702  -16.3596 N   0  0  0  0  0  0  0  0  0  0  0  0
   18.4679   -9.2447  -15.1612 C   0  0  0  0  0  0  0  0  0  0  0  0
   18.3658   -9.8959  -14.0864 O   0  0  0  0  0  0  0  0  0  0  0  0
   22.0949  -10.2173  -16.2148 C   0  0  0  0  0  0  0  0  0  0  0  0
   22.0440   -8.8714  -15.5681 C   0  0  1  0  0  0  0  0  0  0  0  0
   21.8661   -7.9495  -16.6329 O   0  0  0  0  0  0  0  0  0  0  0  0
   20.8826   -8.7116  -14.5829 C   0  0  2  0  0  0  0  0  0  0  0  0
   19.7024   -8.6297  -15.4494 N   0  0  0  0  0  0  0  0  0  0  0  0
   21.0707   -7.4367  -13.8567 C   0  0  0  0  0  0  0  0  0  0  0  0
   21.9544   -7.4100  -12.9489 O   0  0  0  0  0  0  0  0  0  0  0  0
   19.1755   -5.5828   -9.1949 N   0  0  0  0  0  0  0  0  0  0  0  0
   18.2605   -5.3884  -10.2354 C   0  0  0  0  0  0  0  0  0  0  0  0
   17.0393   -5.3524   -9.9785 O   0  0  0  0  0  0  0  0  0  0  0  0
   18.6487   -5.2163  -11.6676 C   0  0  0  0  0  0  0  0  0  0  0  0
   20.1341   -5.2416  -11.8497 C   0  0  0  0  0  0  0  0  0  0  0  0
   20.5040   -5.0517  -13.2669 C   0  0  2  0  0  0  0  0  0  0  0  0
   20.3681   -6.2483  -14.0751 N   0  0  0  0  0  0  0  0  0  0  0  0
   21.7889   -4.3861  -13.4411 C   0  0  0  0  0  0  0  0  0  0  0  0
   22.0430   -3.0736  -13.7552 O   0  0  0  0  0  0  0  0  0  0  0  0
   22.8447   -5.0987  -13.2880 O   0  0  0  0  0  0  0  0  0  0  0  0
  2  1  1  1
  2  3  1  0
  4  2  1  0
  4 10  1  0
  5  4  2  0
  7  9  1  0
  7  6  1  6
  8  7  1  0
  9 10  1  6
  9 11  1  0
 11 19  1  0
 12 11  2  0
 14 13  1  0
 14 16  1  0
 15 14  2  0
 17 16  1  0
 18 20  1  0
 18 17  1  1
 19 18  1  0
 20 21  1  0
 22 20  2  0
M  END
$$$$
