ATQ.pdb
     RDKit          3D

 22 21  0  0  1  0  0  0  0  0999 V2000
   16.3362  -13.9546  -16.0238 C   0  0  0  0  0  0  0  0  0  0  0  0
   17.6984  -13.9749  -16.6621 C   0  0  2  0  0  0  0  0  0  0  0  0
   18.0833  -15.3516  -16.8743 N   0  0  0  0  0  0  0  0  0  0  0  0
   18.6623  -13.2540  -15.7994 C   0  0  0  0  0  0  0  0  0  0  0  0
   19.0833  -13.8270  -14.7582 O   0  0  0  0  0  0  0  0  0  0  0  0
   21.9970  -12.1694  -16.5751 C   0  0  0  0  0  0  0  0  0  0  0  0
   21.2604  -10.9390  -16.1555 C   0  0  1  0  0  0  0  0  0  0  0  0
   20.7672  -10.3680  -17.3580 O   0  0  0  0  0  0  0  0  0  0  0  0
   20.0766  -11.2238  -15.2270 C   0  0  2  0  0  0  0  0  0  0  0  0
   19.1360  -11.9570  -16.0803 N   0  0  0  0  0  0  0  0  0  0  0  0
   19.4913   -9.9273  -14.8209 C   0  0  0  0  0  0  0  0  0  0  0  0
   18.2382   -9.7901  -14.9488 O   0  0  0  0  0  0  0  0  0  0  0  0
   17.4137   -8.5364   -9.9732 N   0  0  0  0  0  0  0  0  0  0  0  0
   17.3608   -7.2756  -10.5777 C   0  0  0  0  0  0  0  0  0  0  0  0
   16.6288   -6.3912  -10.0871 O   0  0  0  0  0  0  0  0  0  0  0  0
   18.1363   -6.9017  -11.7984 C   0  0  0  0  0  0  0  0  0  0  0  0
   18.7133   -8.1017  -12.4820 C   0  0  0  0  0  0  0  0  0  0  0  0
   19.5673   -7.7107  -13.6217 C   0  0  2  0  0  0  0  0  0  0  0  0
   20.1869   -8.8311  -14.3032 N   0  0  0  0  0  0  0  0  0  0  0  0
   20.5090   -6.6471  -13.2957 C   0  0  0  0  0  0  0  0  0  0  0  0
   21.8810   -6.6641  -13.3543 O   0  0  0  0  0  0  0  0  0  0  0  0
   20.0186   -5.5314  -12.8948 O   0  0  0  0  0  0  0  0  0  0  0  0
  2  1  1  1
  2  3  1  0
  4  2  1  0
  4 10  1  0
  5  4  2  0
  7  9  1  0
  7  6  1  6
  8  7  1  0
  9 10  1  6
  9 11  1  0
 11 19  1  0
 12 11  2  0
 14 13  1  0
 14 16  1  0
 15 14  2  0
 17 16  1  0
 18 20  1  0
 18 17  1  1
 19 18  1  0
 20 21  1  0
 22 20  2  0
M  END
$$$$
