ATQ.pdb
     RDKit          3D

 22 21  0  0  1  0  0  0  0  0999 V2000
   26.0172  -19.5280   -8.6512 C   0  0  0  0  0  0  0  0  0  0  0  0
   24.6720  -20.2012   -8.6788 C   0  0  2  0  0  0  0  0  0  0  0  0
   24.6394  -21.2002   -7.6351 N   0  0  0  0  0  0  0  0  0  0  0  0
   24.4371  -20.7874  -10.0183 C   0  0  0  0  0  0  0  0  0  0  0  0
   24.4504  -22.0426  -10.1364 O   0  0  0  0  0  0  0  0  0  0  0  0
   22.1026  -22.0648  -11.1867 C   0  0  0  0  0  0  0  0  0  0  0  0
   22.2495  -20.9223  -12.1383 C   0  0  1  0  0  0  0  0  0  0  0  0
   21.6338  -19.8164  -11.4953 O   0  0  0  0  0  0  0  0  0  0  0  0
   23.7072  -20.5637  -12.4404 C   0  0  2  0  0  0  0  0  0  0  0  0
   24.1986  -20.0150  -11.1725 N   0  0  0  0  0  0  0  0  0  0  0  0
   23.7138  -19.5164  -13.4851 C   0  0  0  0  0  0  0  0  0  0  0  0
   23.3453  -18.3531  -13.1438 O   0  0  0  0  0  0  0  0  0  0  0  0
   28.2852  -18.2913  -17.2050 N   0  0  0  0  0  0  0  0  0  0  0  0
   27.3001  -17.4140  -17.6717 C   0  0  0  0  0  0  0  0  0  0  0  0
   27.6367  -16.4139  -18.3389 O   0  0  0  0  0  0  0  0  0  0  0  0
   25.8379  -17.5918  -17.4233 C   0  0  0  0  0  0  0  0  0  0  0  0
   25.5582  -18.7933  -16.5756 C   0  0  0  0  0  0  0  0  0  0  0  0
   24.3558  -18.5932  -15.7418 C   0  0  2  0  0  0  0  0  0  0  0  0
   24.0917  -19.6818  -14.8206 N   0  0  0  0  0  0  0  0  0  0  0  0
   23.1828  -18.1967  -16.5107 C   0  0  0  0  0  0  0  0  0  0  0  0
   22.8904  -16.9755  -17.0669 O   0  0  0  0  0  0  0  0  0  0  0  0
   22.2825  -19.0887  -16.7102 O   0  0  0  0  0  0  0  0  0  0  0  0
  2  1  1  6
  2  3  1  0
  4  2  1  0
  4 10  1  0
  5  4  2  0
  7  9  1  0
  7  6  1  1
  8  7  1  0
  9 10  1  1
  9 11  1  0
 11 19  1  0
 12 11  2  0
 14 13  1  0
 14 16  1  0
 15 14  2  0
 17 16  1  0
 18 20  1  0
 18 17  1  6
 19 18  1  0
 20 21  1  0
 22 20  2  0
M  END
$$$$
