ATQ.pdb
     RDKit          3D

 22 21  0  0  1  0  0  0  0  0999 V2000
   43.2047  -10.0564   -4.6559 C   0  0  0  0  0  0  0  0  0  0  0  0
   43.9110  -10.6374   -5.8505 C   0  0  2  0  0  0  0  0  0  0  0  0
   45.3153  -10.3098   -5.7550 N   0  0  0  0  0  0  0  0  0  0  0  0
   43.3000  -10.1123   -7.0930 C   0  0  0  0  0  0  0  0  0  0  0  0
   43.8979   -9.1934   -7.7157 O   0  0  0  0  0  0  0  0  0  0  0  0
   39.7857  -10.7974  -10.5536 C   0  0  0  0  0  0  0  0  0  0  0  0
   40.5833  -11.1633   -9.3443 C   0  0  1  0  0  0  0  0  0  0  0  0
   41.4720  -12.1832   -9.7750 O   0  0  0  0  0  0  0  0  0  0  0  0
   41.4069  -10.0013   -8.7823 C   0  0  2  0  0  0  0  0  0  0  0  0
   42.0816  -10.5860   -7.6189 N   0  0  0  0  0  0  0  0  0  0  0  0
   40.4687   -8.9432   -8.3481 C   0  0  0  0  0  0  0  0  0  0  0  0
   40.2002   -8.8764   -7.1116 O   0  0  0  0  0  0  0  0  0  0  0  0
   41.1331   -3.5779   -6.5907 N   0  0  0  0  0  0  0  0  0  0  0  0
   40.1669   -4.3623   -5.9512 C   0  0  0  0  0  0  0  0  0  0  0  0
   39.7730   -4.0403   -4.8110 O   0  0  0  0  0  0  0  0  0  0  0  0
   39.5571   -5.5880   -6.5487 C   0  0  0  0  0  0  0  0  0  0  0  0
   40.2605   -6.0068   -7.8017 C   0  0  0  0  0  0  0  0  0  0  0  0
   39.3457   -6.7164   -8.7187 C   0  0  2  0  0  0  0  0  0  0  0  0
   39.8463   -8.0002   -9.1710 N   0  0  0  0  0  0  0  0  0  0  0  0
   38.8568   -5.8774   -9.8056 C   0  0  0  0  0  0  0  0  0  0  0  0
   38.9856   -6.0618  -11.1604 O   0  0  0  0  0  0  0  0  0  0  0  0
   38.2164   -4.8134   -9.4835 O   0  0  0  0  0  0  0  0  0  0  0  0
  2  1  1  1
  2  3  1  0
  4  2  1  0
  4 10  1  0
  5  4  2  0
  7  9  1  0
  7  6  1  6
  8  7  1  0
  9 10  1  1
  9 11  1  0
 11 19  1  0
 12 11  2  0
 14 13  1  0
 14 16  1  0
 15 14  2  0
 17 16  1  0
 18 20  1  0
 18 17  1  6
 19 18  1  0
 20 21  1  0
 22 20  2  0
M  END
$$$$
