ATQ.pdb
     RDKit          3D

 22 21  0  0  1  0  0  0  0  0999 V2000
   18.5135  -13.4608  -16.5499 C   0  0  0  0  0  0  0  0  0  0  0  0
   18.9968  -12.1339  -17.0688 C   0  0  2  0  0  0  0  0  0  0  0  0
   19.9218  -12.3763  -18.1523 N   0  0  0  0  0  0  0  0  0  0  0  0
   19.6196  -11.3662  -15.9662 C   0  0  0  0  0  0  0  0  0  0  0  0
   18.9315  -11.1244  -14.9377 O   0  0  0  0  0  0  0  0  0  0  0  0
   23.0187  -11.8789  -14.2575 C   0  0  0  0  0  0  0  0  0  0  0  0
   22.9509  -10.5004  -14.8297 C   0  0  1  0  0  0  0  0  0  0  0  0
   23.5606  -10.5941  -16.1084 O   0  0  0  0  0  0  0  0  0  0  0  0
   21.5206   -9.9828  -15.0059 C   0  0  2  0  0  0  0  0  0  0  0  0
   20.9450  -10.8893  -16.0046 N   0  0  0  0  0  0  0  0  0  0  0  0
   21.5948   -8.6086  -15.5483 C   0  0  0  0  0  0  0  0  0  0  0  0
   21.5207   -8.4758  -16.8063 O   0  0  0  0  0  0  0  0  0  0  0  0
   18.7090   -4.3449  -17.8305 N   0  0  0  0  0  0  0  0  0  0  0  0
   18.5075   -4.4662  -16.4513 C   0  0  0  0  0  0  0  0  0  0  0  0
   17.4509   -4.0337  -15.9462 O   0  0  0  0  0  0  0  0  0  0  0  0
   19.4899   -5.0915  -15.5156 C   0  0  0  0  0  0  0  0  0  0  0  0
   20.5672   -5.8279  -16.2485 C   0  0  0  0  0  0  0  0  0  0  0  0
   21.7249   -6.0969  -15.3717 C   0  0  2  0  0  0  0  0  0  0  0  0
   21.7362   -7.4325  -14.8065 N   0  0  0  0  0  0  0  0  0  0  0  0
   21.9486   -5.0533  -14.3792 C   0  0  0  0  0  0  0  0  0  0  0  0
   22.3223   -3.7461  -14.5735 O   0  0  0  0  0  0  0  0  0  0  0  0
   21.7830   -5.3698  -13.1469 O   0  0  0  0  0  0  0  0  0  0  0  0
  2  1  1  1
  2  3  1  0
  4  2  1  0
  4 10  1  0
  5  4  2  0
  7  9  1  0
  7  6  1  6
  8  7  1  0
  9 10  1  6
  9 11  1  0
 11 19  1  0
 12 11  2  0
 14 13  1  0
 14 16  1  0
 15 14  2  0
 17 16  1  0
 18 20  1  0
 18 17  1  1
 19 18  1  0
 20 21  1  0
 22 20  2  0
M  END
$$$$
