ATQ.pdb
     RDKit          3D

 22 21  0  0  1  0  0  0  0  0999 V2000
   15.7655  -11.2117  -16.8744 C   0  0  0  0  0  0  0  0  0  0  0  0
   16.7924  -10.7922  -15.8580 C   0  0  2  0  0  0  0  0  0  0  0  0
   16.1347  -10.6388  -14.5803 N   0  0  0  0  0  0  0  0  0  0  0  0
   17.4474   -9.5402  -16.3009 C   0  0  0  0  0  0  0  0  0  0  0  0
   18.1208   -9.5579  -17.3668 O   0  0  0  0  0  0  0  0  0  0  0  0
   15.7600   -6.2681  -17.0170 C   0  0  0  0  0  0  0  0  0  0  0  0
   16.7986   -6.0658  -15.9622 C   0  0  1  0  0  0  0  0  0  0  0  0
   16.1229   -6.2563  -14.7282 O   0  0  0  0  0  0  0  0  0  0  0  0
   17.9558   -7.0650  -16.0461 C   0  0  2  0  0  0  0  0  0  0  0  0
   17.3586   -8.3253  -15.5927 N   0  0  0  0  0  0  0  0  0  0  0  0
   19.0060   -6.6297  -15.0996 C   0  0  0  0  0  0  0  0  0  0  0  0
   18.7892   -6.8163  -13.8652 O   0  0  0  0  0  0  0  0  0  0  0  0
   22.3420   -8.4014  -16.6206 N   0  0  0  0  0  0  0  0  0  0  0  0
   22.1957   -8.7963  -15.2863 C   0  0  0  0  0  0  0  0  0  0  0  0
   22.0059  -10.0016  -15.0215 O   0  0  0  0  0  0  0  0  0  0  0  0
   22.2516   -7.8568  -14.1264 C   0  0  0  0  0  0  0  0  0  0  0  0
   22.4814   -6.4439  -14.5636 C   0  0  0  0  0  0  0  0  0  0  0  0
   21.2417   -5.6463  -14.4737 C   0  0  2  0  0  0  0  0  0  0  0  0
   20.2244   -6.0313  -15.4330 N   0  0  0  0  0  0  0  0  0  0  0  0
   21.4840   -4.2095  -14.4419 C   0  0  0  0  0  0  0  0  0  0  0  0
   22.1598   -3.4709  -13.5017 O   0  0  0  0  0  0  0  0  0  0  0  0
   21.0121   -3.5129  -15.4105 O   0  0  0  0  0  0  0  0  0  0  0  0
  2  1  1  6
  2  3  1  0
  4  2  1  0
  4 10  1  0
  5  4  2  0
  7  9  1  0
  7  6  1  6
  8  7  1  0
  9 10  1  1
  9 11  1  0
 11 19  1  0
 12 11  2  0
 14 13  1  0
 14 16  1  0
 15 14  2  0
 17 16  1  0
 18 20  1  0
 18 17  1  6
 19 18  1  0
 20 21  1  0
 22 20  2  0
M  END
$$$$
