ATQ.pdb
     RDKit          3D

 22 21  0  0  1  0  0  0  0  0999 V2000
   26.6661  -17.2268  -15.2156 C   0  0  0  0  0  0  0  0  0  0  0  0
   27.4591  -18.4825  -14.9752 C   0  0  2  0  0  0  0  0  0  0  0  0
   28.1762  -18.8091  -16.1867 N   0  0  0  0  0  0  0  0  0  0  0  0
   26.5486  -19.5726  -14.5560 C   0  0  0  0  0  0  0  0  0  0  0  0
   26.1534  -20.3946  -15.4265 O   0  0  0  0  0  0  0  0  0  0  0  0
   27.2801  -21.6069  -11.5096 C   0  0  0  0  0  0  0  0  0  0  0  0
   25.8313  -21.2488  -11.4395 C   0  0  1  0  0  0  0  0  0  0  0  0
   25.7614  -20.1359  -10.5610 O   0  0  0  0  0  0  0  0  0  0  0  0
   25.2371  -20.8436  -12.7914 C   0  0  2  0  0  0  0  0  0  0  0  0
   26.0982  -19.7413  -13.2316 N   0  0  0  0  0  0  0  0  0  0  0  0
   23.8612  -20.3530  -12.5580 C   0  0  0  0  0  0  0  0  0  0  0  0
   23.7134  -19.1101  -12.3603 O   0  0  0  0  0  0  0  0  0  0  0  0
   20.7470  -19.5574  -16.9787 N   0  0  0  0  0  0  0  0  0  0  0  0
   19.8133  -19.1974  -16.0008 C   0  0  0  0  0  0  0  0  0  0  0  0
   18.7222  -18.7005  -16.3489 O   0  0  0  0  0  0  0  0  0  0  0  0
   20.0329  -19.3689  -14.5332 C   0  0  0  0  0  0  0  0  0  0  0  0
   21.3830  -19.9419  -14.2345 C   0  0  0  0  0  0  0  0  0  0  0  0
   21.3881  -20.6574  -12.9425 C   0  0  2  0  0  0  0  0  0  0  0  0
   22.6984  -21.1283  -12.5367 N   0  0  0  0  0  0  0  0  0  0  0  0
   20.3571  -21.6834  -12.8499 C   0  0  0  0  0  0  0  0  0  0  0  0
   19.1071  -21.5996  -12.2873 O   0  0  0  0  0  0  0  0  0  0  0  0
   20.6259  -22.8329  -13.3524 O   0  0  0  0  0  0  0  0  0  0  0  0
  2  1  1  6
  2  3  1  0
  4  2  1  0
  4 10  1  0
  5  4  2  0
  7  9  1  0
  7  6  1  6
  8  7  1  0
  9 10  1  1
  9 11  1  0
 11 19  1  0
 12 11  2  0
 14 13  1  0
 14 16  1  0
 15 14  2  0
 17 16  1  0
 18 20  1  0
 18 17  1  6
 19 18  1  0
 20 21  1  0
 22 20  2  0
M  END
$$$$
