ATQ.pdb
     RDKit          3D

 22 21  0  0  1  0  0  0  0  0999 V2000
   22.0151  -17.4830  -16.1833 C   0  0  0  0  0  0  0  0  0  0  0  0
   21.5331  -16.1575  -16.7072 C   0  0  2  0  0  0  0  0  0  0  0  0
   22.0516  -15.9786  -18.0442 N   0  0  0  0  0  0  0  0  0  0  0  0
   21.9647  -15.0753  -15.7931 C   0  0  0  0  0  0  0  0  0  0  0  0
   21.5814  -15.1132  -14.5925 O   0  0  0  0  0  0  0  0  0  0  0  0
   25.5467  -13.7131  -15.3288 C   0  0  0  0  0  0  0  0  0  0  0  0
   24.6153  -12.6040  -15.6962 C   0  0  1  0  0  0  0  0  0  0  0  0
   24.7076  -12.4882  -17.1081 O   0  0  0  0  0  0  0  0  0  0  0  0
   23.1570  -12.8830  -15.3220 C   0  0  2  0  0  0  0  0  0  0  0  0
   22.7836  -14.0011  -16.1943 N   0  0  0  0  0  0  0  0  0  0  0  0
   22.3599  -11.6840  -15.6617 C   0  0  0  0  0  0  0  0  0  0  0  0
   21.6572  -11.7329  -16.7150 O   0  0  0  0  0  0  0  0  0  0  0  0
   17.1885  -10.4064  -15.4815 N   0  0  0  0  0  0  0  0  0  0  0  0
   17.6408   -9.1053  -15.7271 C   0  0  0  0  0  0  0  0  0  0  0  0
   16.8185   -8.2199  -16.0409 O   0  0  0  0  0  0  0  0  0  0  0  0
   19.0725   -8.6884  -15.6390 C   0  0  0  0  0  0  0  0  0  0  0  0
   19.9613   -9.8259  -15.2437 C   0  0  0  0  0  0  0  0  0  0  0  0
   21.3774   -9.4089  -15.1974 C   0  0  2  0  0  0  0  0  0  0  0  0
   22.3012  -10.4946  -14.9300 N   0  0  0  0  0  0  0  0  0  0  0  0
   21.6055   -8.2424  -14.3539 C   0  0  0  0  0  0  0  0  0  0  0  0
   21.3565   -6.9199  -14.6280 O   0  0  0  0  0  0  0  0  0  0  0  0
   22.1084   -8.4476  -13.1916 O   0  0  0  0  0  0  0  0  0  0  0  0
  2  1  1  1
  2  3  1  0
  4  2  1  0
  4 10  1  0
  5  4  2  0
  7  9  1  0
  7  6  1  6
  8  7  1  0
  9 10  1  6
  9 11  1  0
 11 19  1  0
 12 11  2  0
 14 13  1  0
 14 16  1  0
 15 14  2  0
 17 16  1  0
 18 20  1  0
 18 17  1  1
 19 18  1  0
 20 21  1  0
 22 20  2  0
M  END
$$$$
