NIE.pdb
     RDKit          3D

 26 25  0  0  1  0  0  0  0  0999 V2000
    6.2739  -18.4424   20.9831 N   0  0  0  0  0  0  0  0  0  0  0  0
    7.6740  -18.2545   20.8919 C   0  0  0  0  0  0  0  0  0  0  0  0
    8.3049  -18.7256   19.9183 O   0  0  0  0  0  0  0  0  0  0  0  0
    8.3791  -17.5117   21.9337 C   0  0  0  0  0  0  0  0  0  0  0  0
    7.9480  -16.0632   21.8956 C   0  0  2  0  0  0  0  0  0  0  0  0
    8.3597  -15.4885   20.6523 N   0  0  0  0  0  0  0  0  0  0  0  0
    8.6078  -15.3888   23.0650 C   0  0  0  0  0  0  0  0  0  0  0  0
    9.8120  -15.0333   23.0008 O   0  0  0  0  0  0  0  0  0  0  0  0
    5.5222  -12.0720   25.8862 C   0  0  0  0  0  0  0  0  0  0  0  0
    6.7185  -12.6860   25.1861 C   0  0  0  0  0  0  0  0  0  0  0  0
    7.4703  -13.6308   26.0503 C   0  0  2  0  0  0  0  0  0  0  0  0
    7.8997  -12.9945   27.3715 C   0  0  0  0  0  0  0  0  0  0  0  0
    8.5592  -14.4092   25.3870 C   0  0  2  0  0  0  0  0  0  0  0  0
    7.9004  -15.1311   24.2750 N   0  0  0  0  0  0  0  0  0  0  0  0
    9.2751  -15.3626   26.2542 C   0  0  0  0  0  0  0  0  0  0  0  0
    8.5803  -16.2385   26.8656 O   0  0  0  0  0  0  0  0  0  0  0  0
   10.6590  -15.4152   26.4834 N   0  0  0  0  0  0  0  0  0  0  0  0
   11.3034  -16.3952   27.3554 C   0  0  1  0  0  0  0  0  0  0  0  0
   12.7812  -16.4523   27.0860 C   0  0  0  0  0  0  0  0  0  0  0  0
   13.1712  -16.4362   25.6407 C   0  0  0  0  0  0  0  0  0  0  0  0
   14.6277  -16.4258   25.4255 C   0  0  0  0  0  0  0  0  0  0  0  0
   15.3728  -17.3621   25.7506 O   0  0  0  0  0  0  0  0  0  0  0  0
   10.9924  -16.1344   28.7707 C   0  0  0  0  0  0  0  0  0  0  0  0
   11.2260  -16.9393   29.6979 O   0  0  0  0  0  0  0  0  0  0  0  0
   15.2688  -15.3231   24.8233 O   0  0  0  0  0  0  0  0  0  0  0  0
   10.4036  -14.9235   29.1059 O   0  0  0  0  0  0  0  0  0  0  0  0
  2  1  1  0
  3  2  2  0
  4  2  1  0
  5  6  1  6
  5  4  1  0
  7  5  1  0
  8  7  2  0
  9 10  1  0
 11 12  1  1
 11 10  1  0
 11 13  1  0
 13 14  1  6
 14  7  1  0
 15 13  1  0
 15 16  2  0
 17 15  1  0
 18 17  1  0
 18 19  1  1
 19 20  1  0
 20 21  1  0
 21 25  1  0
 21 22  2  0
 23 18  1  0
 24 23  2  0
 26 23  1  0
M  END
$$$$
