NIE.pdb
     RDKit          3D

 26 25  0  0  1  0  0  0  0  0999 V2000
    9.0511  -16.3884   17.7809 N   0  0  0  0  0  0  0  0  0  0  0  0
    9.7081  -16.7349   18.9860 C   0  0  0  0  0  0  0  0  0  0  0  0
   10.3935  -17.7811   19.0446 O   0  0  0  0  0  0  0  0  0  0  0  0
    9.5848  -15.8712   20.1578 C   0  0  0  0  0  0  0  0  0  0  0  0
    9.2882  -16.7172   21.3750 C   0  0  2  0  0  0  0  0  0  0  0  0
    7.9180  -17.1252   21.3345 N   0  0  0  0  0  0  0  0  0  0  0  0
    9.5771  -15.8590   22.5741 C   0  0  0  0  0  0  0  0  0  0  0  0
   10.6689  -15.2432   22.6702 O   0  0  0  0  0  0  0  0  0  0  0  0
    6.6493  -12.5127   26.6870 C   0  0  0  0  0  0  0  0  0  0  0  0
    7.9212  -13.2847   26.3962 C   0  0  0  0  0  0  0  0  0  0  0  0
    7.7764  -14.2276   25.2584 C   0  0  2  0  0  0  0  0  0  0  0  0
    6.5363  -15.1109   25.3894 C   0  0  0  0  0  0  0  0  0  0  0  0
    9.0035  -14.9847   24.8676 C   0  0  2  0  0  0  0  0  0  0  0  0
    8.6347  -15.7142   23.6333 N   0  0  0  0  0  0  0  0  0  0  0  0
    9.5144  -15.9285   25.8785 C   0  0  0  0  0  0  0  0  0  0  0  0
    8.7705  -16.9139   26.1931 O   0  0  0  0  0  0  0  0  0  0  0  0
   10.7497  -15.8624   26.5420 N   0  0  0  0  0  0  0  0  0  0  0  0
   11.2552  -16.9091   27.4281 C   0  0  1  0  0  0  0  0  0  0  0  0
   12.6845  -17.2372   27.0979 C   0  0  0  0  0  0  0  0  0  0  0  0
   12.9314  -17.6872   25.6916 C   0  0  0  0  0  0  0  0  0  0  0  0
   14.3491  -17.9598   25.4026 C   0  0  0  0  0  0  0  0  0  0  0  0
   15.2535  -17.8345   26.2414 O   0  0  0  0  0  0  0  0  0  0  0  0
   11.0664  -16.5463   28.8425 C   0  0  0  0  0  0  0  0  0  0  0  0
   11.2928  -17.3184   29.7988 O   0  0  0  0  0  0  0  0  0  0  0  0
   14.7642  -18.3885   24.1244 O   0  0  0  0  0  0  0  0  0  0  0  0
   10.6095  -15.2709   29.1425 O   0  0  0  0  0  0  0  0  0  0  0  0
  2  1  1  0
  3  2  2  0
  4  2  1  0
  5  6  1  6
  5  4  1  0
  7  5  1  0
  8  7  2  0
  9 10  1  0
 11 12  1  1
 11 10  1  0
 11 13  1  0
 13 14  1  6
 14  7  1  0
 15 13  1  0
 15 16  2  0
 17 15  1  0
 18 17  1  0
 18 19  1  1
 19 20  1  0
 20 21  1  0
 21 25  1  0
 21 22  2  0
 23 18  1  0
 24 23  2  0
 26 23  1  0
M  END
$$$$
