NIE.pdb
     RDKit          3D

 26 25  0  0  1  0  0  0  0  0999 V2000
    9.6732  -17.8424   14.5065 N   0  0  0  0  0  0  0  0  0  0  0  0
   10.7693  -17.7936   15.4010 C   0  0  0  0  0  0  0  0  0  0  0  0
   11.7527  -18.5483   15.2248 O   0  0  0  0  0  0  0  0  0  0  0  0
   10.7502  -16.8632   16.5272 C   0  0  0  0  0  0  0  0  0  0  0  0
   10.3534  -17.6046   17.7834 C   0  0  2  0  0  0  0  0  0  0  0  0
    9.0019  -18.0535   17.6506 N   0  0  0  0  0  0  0  0  0  0  0  0
   10.5075  -16.6346   18.9203 C   0  0  0  0  0  0  0  0  0  0  0  0
   11.6458  -16.2186   19.2548 O   0  0  0  0  0  0  0  0  0  0  0  0
    6.6377  -12.9382   19.8105 C   0  0  0  0  0  0  0  0  0  0  0  0
    7.9985  -13.5992   19.7127 C   0  0  0  0  0  0  0  0  0  0  0  0
    8.3127  -14.4493   20.8888 C   0  0  2  0  0  0  0  0  0  0  0  0
    8.1596  -13.6952   22.2089 C   0  0  0  0  0  0  0  0  0  0  0  0
    9.5710  -15.2505   20.8074 C   0  0  2  0  0  0  0  0  0  0  0  0
    9.3818  -16.1569   19.6522 N   0  0  0  0  0  0  0  0  0  0  0  0
    9.9039  -16.0313   22.0128 C   0  0  0  0  0  0  0  0  0  0  0  0
    9.1720  -17.0389   22.2823 O   0  0  0  0  0  0  0  0  0  0  0  0
   10.9554  -15.7857   22.9099 N   0  0  0  0  0  0  0  0  0  0  0  0
   11.2834  -16.6553   24.0379 C   0  0  1  0  0  0  0  0  0  0  0  0
   12.7561  -16.6035   24.3350 C   0  0  0  0  0  0  0  0  0  0  0  0
   13.6560  -16.8651   23.1676 C   0  0  0  0  0  0  0  0  0  0  0  0
   15.0838  -16.6750   23.4725 C   0  0  0  0  0  0  0  0  0  0  0  0
   15.9443  -17.5481   23.2858 O   0  0  0  0  0  0  0  0  0  0  0  0
   10.4541  -16.3391   25.2126 C   0  0  0  0  0  0  0  0  0  0  0  0
    9.7224  -15.3297   25.3009 O   0  0  0  0  0  0  0  0  0  0  0  0
   15.5606  -15.4596   24.0065 O   0  0  0  0  0  0  0  0  0  0  0  0
   10.4795  -17.2090   26.2933 O   0  0  0  0  0  0  0  0  0  0  0  0
  2  1  1  0
  3  2  2  0
  4  2  1  0
  5  6  1  6
  5  4  1  0
  7  5  1  0
  8  7  2  0
  9 10  1  0
 11 12  1  1
 11 10  1  0
 11 13  1  0
 13 14  1  6
 14  7  1  0
 15 13  1  0
 15 16  2  0
 17 15  1  0
 18 17  1  0
 18 19  1  1
 19 20  1  0
 20 21  1  0
 21 25  1  0
 21 22  2  0
 23 18  1  0
 24 23  2  0
 26 23  1  0
M  END
$$$$
