NIE.pdb
     RDKit          3D

 26 25  0  0  1  0  0  0  0  0999 V2000
    7.2502  -12.8011   18.1528 N   0  0  0  0  0  0  0  0  0  0  0  0
    7.9697  -13.7501   18.9179 C   0  0  0  0  0  0  0  0  0  0  0  0
    8.3892  -14.7988   18.3774 O   0  0  0  0  0  0  0  0  0  0  0  0
    8.2209  -13.5037   20.3359 C   0  0  0  0  0  0  0  0  0  0  0  0
    7.8567  -14.7367   21.1311 C   0  0  2  0  0  0  0  0  0  0  0  0
    6.4322  -14.8273   21.2213 N   0  0  0  0  0  0  0  0  0  0  0  0
    8.4900  -14.5765   22.4842 C   0  0  0  0  0  0  0  0  0  0  0  0
    9.7211  -14.3443   22.5895 O   0  0  0  0  0  0  0  0  0  0  0  0
    5.9073  -11.6591   25.8993 C   0  0  0  0  0  0  0  0  0  0  0  0
    6.9781  -12.3894   25.1130 C   0  0  0  0  0  0  0  0  0  0  0  0
    7.4383  -13.6325   25.7820 C   0  0  2  0  0  0  0  0  0  0  0  0
    7.8989  -13.3840   27.2176 C   0  0  0  0  0  0  0  0  0  0  0  0
    8.3751  -14.4951   25.0009 C   0  0  2  0  0  0  0  0  0  0  0  0
    7.7267  -14.6809   23.6831 N   0  0  0  0  0  0  0  0  0  0  0  0
    8.6805  -15.8058   25.6029 C   0  0  0  0  0  0  0  0  0  0  0  0
    7.6995  -16.5742   25.8693 O   0  0  0  0  0  0  0  0  0  0  0  0
    9.9518  -16.3105   25.9185 N   0  0  0  0  0  0  0  0  0  0  0  0
   10.1848  -17.6434   26.4708 C   0  0  1  0  0  0  0  0  0  0  0  0
   11.4761  -18.2125   25.9526 C   0  0  0  0  0  0  0  0  0  0  0  0
   11.6416  -18.1778   24.4651 C   0  0  0  0  0  0  0  0  0  0  0  0
   13.0270  -18.4081   24.0229 C   0  0  0  0  0  0  0  0  0  0  0  0
   13.9722  -18.5894   24.8045 O   0  0  0  0  0  0  0  0  0  0  0  0
   10.1185  -17.6293   27.9415 C   0  0  0  0  0  0  0  0  0  0  0  0
   10.0284  -16.5885   28.6276 O   0  0  0  0  0  0  0  0  0  0  0  0
   13.3608  -18.4355   22.6526 O   0  0  0  0  0  0  0  0  0  0  0  0
   10.1578  -18.8409   28.6168 O   0  0  0  0  0  0  0  0  0  0  0  0
  2  1  1  0
  3  2  2  0
  4  2  1  0
  5  6  1  1
  5  4  1  0
  7  5  1  0
  8  7  2  0
  9 10  1  0
 11 12  1  1
 11 10  1  0
 11 13  1  0
 13 14  1  6
 14  7  1  0
 15 13  1  0
 15 16  2  0
 17 15  1  0
 18 17  1  0
 18 19  1  1
 19 20  1  0
 20 21  1  0
 21 25  1  0
 21 22  2  0
 23 18  1  0
 24 23  2  0
 26 23  1  0
M  END
$$$$
