NIE.pdb
     RDKit          3D

 26 25  0  0  1  0  0  0  0  0999 V2000
    7.3588  -18.9030   19.4267 N   0  0  0  0  0  0  0  0  0  0  0  0
    7.1294  -17.5348   19.7081 C   0  0  0  0  0  0  0  0  0  0  0  0
    6.6771  -16.7815   18.8160 O   0  0  0  0  0  0  0  0  0  0  0  0
    7.4208  -17.0053   21.0381 C   0  0  0  0  0  0  0  0  0  0  0  0
    7.6916  -15.5214   20.9386 C   0  0  2  0  0  0  0  0  0  0  0  0
    8.5342  -15.2776   19.8089 N   0  0  0  0  0  0  0  0  0  0  0  0
    8.3567  -15.1200   22.2247 C   0  0  0  0  0  0  0  0  0  0  0  0
    9.6077  -15.1714   22.3397 O   0  0  0  0  0  0  0  0  0  0  0  0
    7.0576  -11.4957   26.9754 C   0  0  0  0  0  0  0  0  0  0  0  0
    7.9797  -12.5657   26.4250 C   0  0  0  0  0  0  0  0  0  0  0  0
    7.4396  -13.2223   25.2077 C   0  0  2  0  0  0  0  0  0  0  0  0
    5.9736  -13.6234   25.3653 C   0  0  0  0  0  0  0  0  0  0  0  0
    8.2857  -14.2966   24.6060 C   0  0  2  0  0  0  0  0  0  0  0  0
    7.6022  -14.6719   23.3476 N   0  0  0  0  0  0  0  0  0  0  0  0
    8.4865  -15.4905   25.4472 C   0  0  0  0  0  0  0  0  0  0  0  0
    7.4938  -16.2739   25.6040 O   0  0  0  0  0  0  0  0  0  0  0  0
    9.6688  -15.8676   26.1034 N   0  0  0  0  0  0  0  0  0  0  0  0
    9.9006  -17.1974   26.6638 C   0  0  1  0  0  0  0  0  0  0  0  0
   10.9621  -17.9222   25.8843 C   0  0  0  0  0  0  0  0  0  0  0  0
   11.3504  -19.2640   26.4229 C   0  0  0  0  0  0  0  0  0  0  0  0
   12.7989  -19.5222   26.3677 C   0  0  0  0  0  0  0  0  0  0  0  0
   13.5888  -18.8421   25.6962 O   0  0  0  0  0  0  0  0  0  0  0  0
   10.2017  -17.1235   28.1031 C   0  0  0  0  0  0  0  0  0  0  0  0
   10.2656  -18.1189   28.8562 O   0  0  0  0  0  0  0  0  0  0  0  0
   13.3794  -20.5831   27.0938 O   0  0  0  0  0  0  0  0  0  0  0  0
   10.4301  -15.8766   28.6676 O   0  0  0  0  0  0  0  0  0  0  0  0
  2  1  1  0
  3  2  2  0
  4  2  1  0
  5  6  1  6
  5  4  1  0
  7  5  1  0
  8  7  2  0
  9 10  1  0
 11 12  1  1
 11 10  1  0
 11 13  1  0
 13 14  1  6
 14  7  1  0
 15 13  1  0
 15 16  2  0
 17 15  1  0
 18 17  1  0
 18 19  1  6
 19 20  1  0
 20 21  1  0
 21 25  1  0
 21 22  2  0
 23 18  1  0
 24 23  2  0
 26 23  1  0
M  END
$$$$
