NIE.pdb
     RDKit          3D

 26 25  0  0  1  0  0  0  0  0999 V2000
    4.7788  -17.6728   20.6206 N   0  0  0  0  0  0  0  0  0  0  0  0
    6.0530  -17.2131   20.2094 C   0  0  0  0  0  0  0  0  0  0  0  0
    6.3246  -17.1348   18.9896 O   0  0  0  0  0  0  0  0  0  0  0  0
    7.0476  -16.8312   21.2091 C   0  0  0  0  0  0  0  0  0  0  0  0
    6.9967  -15.3353   21.4209 C   0  0  2  0  0  0  0  0  0  0  0  0
    7.4431  -14.6819   20.2294 N   0  0  0  0  0  0  0  0  0  0  0  0
    7.8947  -15.0369   22.5879 C   0  0  0  0  0  0  0  0  0  0  0  0
    9.1446  -15.0572   22.4533 O   0  0  0  0  0  0  0  0  0  0  0  0
    6.0696  -11.4567   26.1779 C   0  0  0  0  0  0  0  0  0  0  0  0
    7.0062  -12.2302   25.2708 C   0  0  0  0  0  0  0  0  0  0  0  0
    7.4961  -13.4894   25.8865 C   0  0  2  0  0  0  0  0  0  0  0  0
    8.1583  -13.2540   27.2433 C   0  0  0  0  0  0  0  0  0  0  0  0
    8.2781  -14.3993   24.9963 C   0  0  2  0  0  0  0  0  0  0  0  0
    7.3680  -14.7238   23.8746 N   0  0  0  0  0  0  0  0  0  0  0  0
    8.7638  -15.6398   25.6278 C   0  0  0  0  0  0  0  0  0  0  0  0
    7.8911  -16.4800   26.0229 O   0  0  0  0  0  0  0  0  0  0  0  0
   10.1019  -16.0052   25.8438 N   0  0  0  0  0  0  0  0  0  0  0  0
   10.5180  -17.3132   26.3460 C   0  0  1  0  0  0  0  0  0  0  0  0
   11.7958  -17.7512   25.6863 C   0  0  0  0  0  0  0  0  0  0  0  0
   12.3651  -19.0431   26.1842 C   0  0  0  0  0  0  0  0  0  0  0  0
   13.6258  -19.4221   25.5250 C   0  0  0  0  0  0  0  0  0  0  0  0
   13.9173  -19.0902   24.3664 O   0  0  0  0  0  0  0  0  0  0  0  0
   10.6061  -17.3156   27.8157 C   0  0  0  0  0  0  0  0  0  0  0  0
   10.6807  -16.2815   28.5136 O   0  0  0  0  0  0  0  0  0  0  0  0
   14.5930  -20.2021   26.1927 O   0  0  0  0  0  0  0  0  0  0  0  0
   10.6071  -18.5361   28.4759 O   0  0  0  0  0  0  0  0  0  0  0  0
  2  1  1  0
  3  2  2  0
  4  2  1  0
  5  6  1  6
  5  4  1  0
  7  5  1  0
  8  7  2  0
  9 10  1  0
 11 12  1  1
 11 10  1  0
 11 13  1  0
 13 14  1  6
 14  7  1  0
 15 13  1  0
 15 16  2  0
 17 15  1  0
 18 17  1  0
 18 19  1  6
 19 20  1  0
 20 21  1  0
 21 25  1  0
 21 22  2  0
 23 18  1  0
 24 23  2  0
 26 23  1  0
M  END
$$$$
