NIE.pdb
     RDKit          3D

 26 25  0  0  1  0  0  0  0  0999 V2000
    4.7082  -19.0621   22.0054 N   0  0  0  0  0  0  0  0  0  0  0  0
    5.3823  -19.4797   23.1781 C   0  0  0  0  0  0  0  0  0  0  0  0
    5.1751  -20.6236   23.6432 O   0  0  0  0  0  0  0  0  0  0  0  0
    6.3177  -18.5752   23.8424 C   0  0  0  0  0  0  0  0  0  0  0  0
    6.2683  -17.2215   23.1713 C   0  0  2  0  0  0  0  0  0  0  0  0
    6.5499  -17.3830   21.7784 N   0  0  0  0  0  0  0  0  0  0  0  0
    7.3009  -16.3680   23.8516 C   0  0  0  0  0  0  0  0  0  0  0  0
    8.5080  -16.4287   23.5055 O   0  0  0  0  0  0  0  0  0  0  0  0
    5.6084  -11.7594   26.0740 C   0  0  0  0  0  0  0  0  0  0  0  0
    6.5728  -12.6785   25.3506 C   0  0  0  0  0  0  0  0  0  0  0  0
    7.3139  -13.5771   26.2715 C   0  0  2  0  0  0  0  0  0  0  0  0
    8.1951  -12.8054   27.2529 C   0  0  0  0  0  0  0  0  0  0  0  0
    8.0077  -14.7411   25.6424 C   0  0  2  0  0  0  0  0  0  0  0  0
    6.9530  -15.4694   24.9016 N   0  0  0  0  0  0  0  0  0  0  0  0
    8.6895  -15.6536   26.5784 C   0  0  0  0  0  0  0  0  0  0  0  0
    7.9618  -16.4336   27.2753 O   0  0  0  0  0  0  0  0  0  0  0  0
   10.0731  -15.7620   26.7893 N   0  0  0  0  0  0  0  0  0  0  0  0
   10.6916  -16.7905   27.6234 C   0  0  1  0  0  0  0  0  0  0  0  0
   11.9620  -17.2893   26.9933 C   0  0  0  0  0  0  0  0  0  0  0  0
   12.7409  -18.2725   27.8106 C   0  0  0  0  0  0  0  0  0  0  0  0
   13.9763  -18.7328   27.1553 C   0  0  0  0  0  0  0  0  0  0  0  0
   14.0351  -19.7462   26.4433 O   0  0  0  0  0  0  0  0  0  0  0  0
   10.8897  -16.3106   29.0011 C   0  0  0  0  0  0  0  0  0  0  0  0
   10.8010  -15.1119   29.3437 O   0  0  0  0  0  0  0  0  0  0  0  0
   15.1888  -18.0280   27.3063 O   0  0  0  0  0  0  0  0  0  0  0  0
   11.1939  -17.2383   29.9871 O   0  0  0  0  0  0  0  0  0  0  0  0
  2  1  1  0
  3  2  2  0
  4  2  1  0
  5  6  1  6
  5  4  1  0
  7  5  1  0
  8  7  2  0
  9 10  1  0
 11 12  1  6
 11 10  1  0
 11 13  1  0
 13 14  1  1
 14  7  1  0
 15 13  1  0
 15 16  2  0
 17 15  1  0
 18 17  1  0
 18 19  1  6
 19 20  1  0
 20 21  1  0
 21 25  1  0
 21 22  2  0
 23 18  1  0
 24 23  2  0
 26 23  1  0
M  END
$$$$
