NIE.pdb
     RDKit          3D

 26 25  0  0  1  0  0  0  0  0999 V2000
    9.2115  -16.4885   18.3168 N   0  0  0  0  0  0  0  0  0  0  0  0
    8.2007  -15.9954   19.1764 C   0  0  0  0  0  0  0  0  0  0  0  0
    6.9952  -16.1733   18.8887 O   0  0  0  0  0  0  0  0  0  0  0  0
    8.5666  -15.2804   20.3968 C   0  0  0  0  0  0  0  0  0  0  0  0
    8.0952  -16.0666   21.5988 C   0  0  2  0  0  0  0  0  0  0  0  0
    6.6677  -16.0055   21.6632 N   0  0  0  0  0  0  0  0  0  0  0  0
    8.7332  -15.4330   22.8025 C   0  0  0  0  0  0  0  0  0  0  0  0
    9.9651  -15.1818   22.8142 O   0  0  0  0  0  0  0  0  0  0  0  0
    5.8956  -11.9368   25.6595 C   0  0  0  0  0  0  0  0  0  0  0  0
    7.0628  -12.6390   24.9942 C   0  0  0  0  0  0  0  0  0  0  0  0
    7.6554  -13.7035   25.8429 C   0  0  2  0  0  0  0  0  0  0  0  0
    8.1262  -13.1733   27.1965 C   0  0  0  0  0  0  0  0  0  0  0  0
    8.6500  -14.5997   25.1800 C   0  0  2  0  0  0  0  0  0  0  0  0
    7.9738  -15.0980   23.9609 N   0  0  0  0  0  0  0  0  0  0  0  0
    9.1227  -15.7338   25.9947 C   0  0  0  0  0  0  0  0  0  0  0  0
    8.2645  -16.6119   26.3357 O   0  0  0  0  0  0  0  0  0  0  0  0
   10.4341  -15.9588   26.4422 N   0  0  0  0  0  0  0  0  0  0  0  0
   10.8448  -17.1391   27.2001 C   0  0  1  0  0  0  0  0  0  0  0  0
   12.1580  -17.6643   26.6908 C   0  0  0  0  0  0  0  0  0  0  0  0
   12.7442  -18.7965   27.4755 C   0  0  0  0  0  0  0  0  0  0  0  0
   14.0607  -19.2335   26.9818 C   0  0  0  0  0  0  0  0  0  0  0  0
   14.6433  -18.6998   26.0262 O   0  0  0  0  0  0  0  0  0  0  0  0
   10.8642  -16.8630   28.6461 C   0  0  0  0  0  0  0  0  0  0  0  0
   10.7907  -15.7175   29.1405 O   0  0  0  0  0  0  0  0  0  0  0  0
   14.7460  -20.3091   27.5844 O   0  0  0  0  0  0  0  0  0  0  0  0
   10.9703  -17.9338   29.5223 O   0  0  0  0  0  0  0  0  0  0  0  0
  2  1  1  0
  3  2  2  0
  4  2  1  0
  5  6  1  1
  5  4  1  0
  7  5  1  0
  8  7  2  0
  9 10  1  0
 11 12  1  1
 11 10  1  0
 11 13  1  0
 13 14  1  6
 14  7  1  0
 15 13  1  0
 15 16  2  0
 17 15  1  0
 18 17  1  0
 18 19  1  6
 19 20  1  0
 20 21  1  0
 21 25  1  0
 21 22  2  0
 23 18  1  0
 24 23  2  0
 26 23  1  0
M  END
$$$$
