FVM.pdb
     RDKit          3D

 27 27  0  0  1  0  0  0  0  0999 V2000
   26.9355  -18.5030  -16.9466 N   0  0  0  0  0  0  0  0  0  0  0  0
   26.4620  -18.1322  -15.6286 C   0  0  1  0  0  0  0  0  0  0  0  0
   25.4983  -16.9658  -15.8094 C   0  0  0  0  0  0  0  0  0  0  0  0
   26.2258  -15.6752  -15.8767 C   0  0  0  0  0  0  0  0  0  0  0  0
   26.5122  -15.1095  -17.1028 C   0  0  0  0  0  0  0  0  0  0  0  0
   27.1824  -13.9190  -17.2394 C   0  0  0  0  0  0  0  0  0  0  0  0
   27.5891  -13.2563  -16.0972 C   0  0  0  0  0  0  0  0  0  0  0  0
   27.3171  -13.7971  -14.8578 C   0  0  0  0  0  0  0  0  0  0  0  0
   26.6424  -14.9939  -14.7541 C   0  0  0  0  0  0  0  0  0  0  0  0
   25.7592  -19.3155  -15.0579 C   0  0  0  0  0  0  0  0  0  0  0  0
   25.0948  -20.1126  -15.7792 O   0  0  0  0  0  0  0  0  0  0  0  0
   25.6819  -20.3878  -10.8236 C   0  0  0  0  0  0  0  0  0  0  0  0
   25.8121  -21.3879  -11.9500 C   0  0  2  0  0  0  0  0  0  0  0  0
   27.2939  -21.6549  -12.1240 C   0  0  0  0  0  0  0  0  0  0  0  0
   25.1779  -20.8251  -13.1577 C   0  0  2  0  0  0  0  0  0  0  0  0
   25.7849  -19.6293  -13.6761 N   0  0  0  0  0  0  0  0  0  0  0  0
   23.7363  -20.5517  -12.8700 C   0  0  0  0  0  0  0  0  0  0  0  0
   23.3255  -19.5935  -12.1724 O   0  0  0  0  0  0  0  0  0  0  0  0
   19.4315  -18.6385  -16.8040 C   0  0  0  0  0  0  0  0  0  0  0  0
   18.5623  -19.9105  -15.9387 S   0  0  0  0  0  0  0  0  0  0  0  0
   19.2296  -20.4603  -14.3823 C   0  0  0  0  0  0  0  0  0  0  0  0
   20.7039  -20.7212  -14.4022 C   0  0  0  0  0  0  0  0  0  0  0  0
   21.3140  -21.1828  -13.1297 C   0  0  2  0  0  0  0  0  0  0  0  0
   22.7325  -21.4133  -13.4050 N   0  0  0  0  0  0  0  0  0  0  0  0
   20.7090  -22.4506  -12.6284 C   0  0  0  0  0  0  0  0  0  0  0  0
   19.5412  -22.4091  -11.9241 O   0  0  0  0  0  0  0  0  0  0  0  0
   21.2480  -23.5745  -12.8386 O   0  0  0  0  0  0  0  0  0  0  0  0
  2  1  1  6
  3  2  1  0
  4  5  2  0
  4  3  1  0
  6  5  1  0
  7  6  2  0
  8  7  1  0
  8  9  2  0
  9  4  1  0
 10 11  2  0
 10  2  1  0
 13 15  1  0
 13 12  1  1
 14 13  1  0
 15 16  1  1
 16 10  1  0
 17 15  1  0
 18 17  2  0
 19 20  1  0
 20 21  1  0
 23 22  1  6
 22 21  1  0
 23 24  1  0
 24 17  1  0
 25 26  1  0
 25 23  1  0
 27 25  2  0
M  END
$$$$
