FVM.pdb
     RDKit          3D

 27 27  0  0  1  0  0  0  0  0999 V2000
   21.7895  -21.5703  -12.9419 N   0  0  0  0  0  0  0  0  0  0  0  0
   22.1576  -20.9596  -14.2030 C   0  0  1  0  0  0  0  0  0  0  0  0
   21.1821  -19.8154  -14.4496 C   0  0  0  0  0  0  0  0  0  0  0  0
   19.8959  -20.3156  -14.9928 C   0  0  0  0  0  0  0  0  0  0  0  0
   18.7302  -20.1385  -14.2752 C   0  0  0  0  0  0  0  0  0  0  0  0
   17.5059  -20.5763  -14.7165 C   0  0  0  0  0  0  0  0  0  0  0  0
   17.4372  -21.2240  -15.9351 C   0  0  0  0  0  0  0  0  0  0  0  0
   18.5854  -21.4157  -16.6749 C   0  0  0  0  0  0  0  0  0  0  0  0
   19.7992  -20.9644  -16.2043 C   0  0  0  0  0  0  0  0  0  0  0  0
   23.5493  -20.4469  -14.0608 C   0  0  0  0  0  0  0  0  0  0  0  0
   23.9441  -19.8621  -13.0125 O   0  0  0  0  0  0  0  0  0  0  0  0
   28.2473  -20.3337  -14.6903 C   0  0  0  0  0  0  0  0  0  0  0  0
   26.9414  -21.0363  -14.9849 C   0  0  2  0  0  0  0  0  0  0  0  0
   27.0972  -21.6899  -16.3436 C   0  0  0  0  0  0  0  0  0  0  0  0
   25.8500  -20.0442  -14.9397 C   0  0  2  0  0  0  0  0  0  0  0  0
   24.5223  -20.5770  -15.0830 N   0  0  0  0  0  0  0  0  0  0  0  0
   26.0782  -19.0184  -16.0033 C   0  0  0  0  0  0  0  0  0  0  0  0
   25.4405  -18.9668  -17.0823 O   0  0  0  0  0  0  0  0  0  0  0  0
   26.5663  -12.3465  -15.2337 C   0  0  0  0  0  0  0  0  0  0  0  0
   28.0012  -13.0007  -16.0308 S   0  0  0  0  0  0  0  0  0  0  0  0
   27.8209  -14.5121  -16.9543 C   0  0  0  0  0  0  0  0  0  0  0  0
   27.4708  -15.7053  -16.1202 C   0  0  0  0  0  0  0  0  0  0  0  0
   27.3243  -16.9972  -16.8371 C   0  0  2  0  0  0  0  0  0  0  0  0
   27.0771  -18.0164  -15.8169 N   0  0  0  0  0  0  0  0  0  0  0  0
   28.5477  -17.3711  -17.6042 C   0  0  0  0  0  0  0  0  0  0  0  0
   28.7474  -16.8533  -18.8507 O   0  0  0  0  0  0  0  0  0  0  0  0
   29.4154  -18.1592  -17.1313 O   0  0  0  0  0  0  0  0  0  0  0  0
  2  1  1  1
  3  2  1  0
  4  5  2  0
  4  3  1  0
  6  5  1  0
  7  6  2  0
  8  7  1  0
  8  9  2  0
  9  4  1  0
 10 11  2  0
 10  2  1  0
 13 15  1  0
 13 12  1  6
 14 13  1  0
 15 16  1  6
 16 10  1  0
 17 15  1  0
 18 17  2  0
 19 20  1  0
 20 21  1  0
 23 22  1  1
 22 21  1  0
 23 24  1  0
 24 17  1  0
 25 26  1  0
 25 23  1  0
 27 25  2  0
M  END
$$$$
