FVM.pdb
     RDKit          3D

 27 27  0  0  1  0  0  0  0  0999 V2000
   27.7968  -26.1663  -17.3461 N   0  0  0  0  0  0  0  0  0  0  0  0
   26.5819  -25.3862  -17.2258 C   0  0  1  0  0  0  0  0  0  0  0  0
   25.5079  -26.3112  -16.6667 C   0  0  0  0  0  0  0  0  0  0  0  0
   24.8943  -27.1302  -17.7401 C   0  0  0  0  0  0  0  0  0  0  0  0
   25.1482  -28.4855  -17.8023 C   0  0  0  0  0  0  0  0  0  0  0  0
   24.6154  -29.3032  -18.7681 C   0  0  0  0  0  0  0  0  0  0  0  0
   23.7867  -28.7439  -19.7219 C   0  0  0  0  0  0  0  0  0  0  0  0
   23.5146  -27.3923  -19.6855 C   0  0  0  0  0  0  0  0  0  0  0  0
   24.0649  -26.5983  -18.7031 C   0  0  0  0  0  0  0  0  0  0  0  0
   26.8614  -24.2684  -16.2812 C   0  0  0  0  0  0  0  0  0  0  0  0
   27.7001  -24.3781  -15.3424 O   0  0  0  0  0  0  0  0  0  0  0  0
   25.7568  -20.2484  -17.0266 C   0  0  0  0  0  0  0  0  0  0  0  0
   26.8661  -20.6531  -16.0824 C   0  0  2  0  0  0  0  0  0  0  0  0
   28.1345  -20.7254  -16.9090 C   0  0  0  0  0  0  0  0  0  0  0  0
   26.5076  -21.9401  -15.4556 C   0  0  2  0  0  0  0  0  0  0  0  0
   26.2115  -23.0118  -16.3671 N   0  0  0  0  0  0  0  0  0  0  0  0
   25.3340  -21.7333  -14.5526 C   0  0  0  0  0  0  0  0  0  0  0  0
   24.1408  -21.9182  -14.8928 O   0  0  0  0  0  0  0  0  0  0  0  0
   24.7506  -21.0481   -7.0918 C   0  0  0  0  0  0  0  0  0  0  0  0
   24.7815  -19.8375   -8.3785 S   0  0  0  0  0  0  0  0  0  0  0  0
   24.0232  -20.2593   -9.9331 C   0  0  0  0  0  0  0  0  0  0  0  0
   24.9904  -20.6805  -10.9957 C   0  0  0  0  0  0  0  0  0  0  0  0
   24.4137  -21.0271  -12.3193 C   0  0  2  0  0  0  0  0  0  0  0  0
   25.5427  -21.2977  -13.2098 N   0  0  0  0  0  0  0  0  0  0  0  0
   23.5982  -19.9209  -12.8988 C   0  0  0  0  0  0  0  0  0  0  0  0
   22.2478  -19.9043  -12.7043 O   0  0  0  0  0  0  0  0  0  0  0  0
   24.1233  -18.9874  -13.5700 O   0  0  0  0  0  0  0  0  0  0  0  0
  2  1  1  1
  3  2  1  0
  4  5  2  0
  4  3  1  0
  6  5  1  0
  7  6  2  0
  8  7  1  0
  8  9  2  0
  9  4  1  0
 10 11  2  0
 10  2  1  0
 13 15  1  0
 13 12  1  6
 14 13  1  0
 15 16  1  6
 16 10  1  0
 17 15  1  0
 18 17  2  0
 19 20  1  0
 20 21  1  0
 23 22  1  1
 22 21  1  0
 23 24  1  0
 24 17  1  0
 25 26  1  0
 25 23  1  0
 27 25  2  0
M  END
$$$$
