FVM.pdb
     RDKit          3D

 27 27  0  0  1  0  0  0  0  0999 V2000
   22.7501  -20.3151  -17.9045 N   0  0  0  0  0  0  0  0  0  0  0  0
   23.1038  -19.3842  -16.8523 C   0  0  1  0  0  0  0  0  0  0  0  0
   21.8108  -18.9869  -16.1509 C   0  0  0  0  0  0  0  0  0  0  0  0
   20.9895  -18.0957  -17.0057 C   0  0  0  0  0  0  0  0  0  0  0  0
   21.3449  -16.7710  -17.1605 C   0  0  0  0  0  0  0  0  0  0  0  0
   20.6309  -15.8901  -17.9348 C   0  0  0  0  0  0  0  0  0  0  0  0
   19.5046  -16.3507  -18.5895 C   0  0  0  0  0  0  0  0  0  0  0  0
   19.1246  -17.6696  -18.4539 C   0  0  0  0  0  0  0  0  0  0  0  0
   19.8625  -18.5288  -17.6693 C   0  0  0  0  0  0  0  0  0  0  0  0
   24.0169  -20.0966  -15.9149 C   0  0  0  0  0  0  0  0  0  0  0  0
   23.8464  -21.3101  -15.6060 O   0  0  0  0  0  0  0  0  0  0  0  0
   27.8584  -18.6189  -14.6549 C   0  0  0  0  0  0  0  0  0  0  0  0
   27.4526  -20.0731  -14.7348 C   0  0  2  0  0  0  0  0  0  0  0  0
   27.7947  -20.5428  -16.1347 C   0  0  0  0  0  0  0  0  0  0  0  0
   26.0145  -20.1807  -14.4217 C   0  0  2  0  0  0  0  0  0  0  0  0
   25.1329  -19.4694  -15.3071 N   0  0  0  0  0  0  0  0  0  0  0  0
   25.7826  -19.7069  -13.0226 C   0  0  0  0  0  0  0  0  0  0  0  0
   25.2384  -18.6156  -12.7284 O   0  0  0  0  0  0  0  0  0  0  0  0
   21.0080  -19.9666  -10.8720 C   0  0  0  0  0  0  0  0  0  0  0  0
   21.7930  -20.3598   -9.3386 S   0  0  0  0  0  0  0  0  0  0  0  0
   23.5656  -20.2164   -9.2531 C   0  0  0  0  0  0  0  0  0  0  0  0
   24.2596  -20.3643  -10.5716 C   0  0  0  0  0  0  0  0  0  0  0  0
   25.7385  -20.2338  -10.5622 C   0  0  2  0  0  0  0  0  0  0  0  0
   26.1927  -20.5193  -11.9235 N   0  0  0  0  0  0  0  0  0  0  0  0
   26.3944  -21.1915   -9.6254 C   0  0  0  0  0  0  0  0  0  0  0  0
   26.5188  -20.8671   -8.3060 O   0  0  0  0  0  0  0  0  0  0  0  0
   26.8420  -22.3065  -10.0182 O   0  0  0  0  0  0  0  0  0  0  0  0
  2  1  1  6
  3  2  1  0
  4  5  2  0
  4  3  1  0
  6  5  1  0
  7  6  2  0
  8  7  1  0
  8  9  2  0
  9  4  1  0
 10 11  2  0
 10  2  1  0
 13 15  1  0
 13 12  1  6
 14 13  1  0
 15 16  1  6
 16 10  1  0
 17 15  1  0
 18 17  2  0
 19 20  1  0
 20 21  1  0
 23 22  1  6
 22 21  1  0
 23 24  1  0
 24 17  1  0
 25 26  1  0
 25 23  1  0
 27 25  2  0
M  END
$$$$
