FVM.pdb
     RDKit          3D

 27 27  0  0  1  0  0  0  0  0999 V2000
   28.3291  -20.9447   -9.0413 N   0  0  0  0  0  0  0  0  0  0  0  0
   26.8960  -20.8041   -8.8825 C   0  0  1  0  0  0  0  0  0  0  0  0
   26.6603  -19.5984   -7.9811 C   0  0  0  0  0  0  0  0  0  0  0  0
   27.2732  -19.7997   -6.6458 C   0  0  0  0  0  0  0  0  0  0  0  0
   28.3480  -19.0254   -6.2578 C   0  0  0  0  0  0  0  0  0  0  0  0
   28.9646  -19.1581   -5.0382 C   0  0  0  0  0  0  0  0  0  0  0  0
   28.4874  -20.1107   -4.1583 C   0  0  0  0  0  0  0  0  0  0  0  0
   27.4147  -20.8995   -4.5180 C   0  0  0  0  0  0  0  0  0  0  0  0
   26.8176  -20.7417   -5.7496 C   0  0  0  0  0  0  0  0  0  0  0  0
   26.3178  -20.5737  -10.2362 C   0  0  0  0  0  0  0  0  0  0  0  0
   26.9692  -19.9995  -11.1543 O   0  0  0  0  0  0  0  0  0  0  0  0
   25.0654  -23.1743  -12.6167 C   0  0  0  0  0  0  0  0  0  0  0  0
   25.2765  -21.7096  -12.9260 C   0  0  2  0  0  0  0  0  0  0  0  0
   26.7719  -21.4672  -12.8785 C   0  0  0  0  0  0  0  0  0  0  0  0
   24.5266  -20.9055  -11.9418 C   0  0  2  0  0  0  0  0  0  0  0  0
   25.0060  -20.9784  -10.5883 N   0  0  0  0  0  0  0  0  0  0  0  0
   23.0890  -21.3157  -11.9699 C   0  0  0  0  0  0  0  0  0  0  0  0
   22.4393  -21.6795  -10.9604 O   0  0  0  0  0  0  0  0  0  0  0  0
   20.5483  -16.4003  -12.4170 C   0  0  0  0  0  0  0  0  0  0  0  0
   19.1611  -17.4719  -12.1947 S   0  0  0  0  0  0  0  0  0  0  0  0
   19.3239  -19.1620  -12.7303 C   0  0  0  0  0  0  0  0  0  0  0  0
   20.7319  -19.6715  -12.7411 C   0  0  0  0  0  0  0  0  0  0  0  0
   20.9341  -21.0541  -13.2431 C   0  0  2  0  0  0  0  0  0  0  0  0
   22.3748  -21.3067  -13.2052 N   0  0  0  0  0  0  0  0  0  0  0  0
   20.4507  -21.2343  -14.6427 C   0  0  0  0  0  0  0  0  0  0  0  0
   19.1795  -21.6765  -14.8662 O   0  0  0  0  0  0  0  0  0  0  0  0
   21.1880  -20.9863  -15.6390 O   0  0  0  0  0  0  0  0  0  0  0  0
  2  1  1  6
  3  2  1  0
  4  5  2  0
  4  3  1  0
  6  5  1  0
  7  6  2  0
  8  7  1  0
  8  9  2  0
  9  4  1  0
 10 11  2  0
 10  2  1  0
 13 15  1  0
 13 12  1  1
 14 13  1  0
 15 16  1  1
 16 10  1  0
 17 15  1  0
 18 17  2  0
 19 20  1  0
 20 21  1  0
 23 22  1  6
 22 21  1  0
 23 24  1  0
 24 17  1  0
 25 26  1  0
 25 23  1  0
 27 25  2  0
M  END
$$$$
