FVM.pdb
     RDKit          3D

 27 27  0  0  1  0  0  0  0  0999 V2000
   30.3551  -20.5342  -15.2118 N   0  0  0  0  0  0  0  0  0  0  0  0
   29.2754  -21.2807  -14.5987 C   0  0  1  0  0  0  0  0  0  0  0  0
   29.5743  -21.3591  -13.1066 C   0  0  0  0  0  0  0  0  0  0  0  0
   30.8503  -22.0709  -12.8525 C   0  0  0  0  0  0  0  0  0  0  0  0
   31.1354  -23.2373  -13.5335 C   0  0  0  0  0  0  0  0  0  0  0  0
   32.2954  -23.9479  -13.3476 C   0  0  0  0  0  0  0  0  0  0  0  0
   33.2203  -23.4741  -12.4370 C   0  0  0  0  0  0  0  0  0  0  0  0
   32.9632  -22.3111  -11.7414 C   0  0  0  0  0  0  0  0  0  0  0  0
   31.7894  -21.6207  -11.9506 C   0  0  0  0  0  0  0  0  0  0  0  0
   28.0147  -20.5263  -14.8467 C   0  0  0  0  0  0  0  0  0  0  0  0
   28.0183  -19.3157  -15.2092 O   0  0  0  0  0  0  0  0  0  0  0  0
   23.9743  -21.5590  -15.4663 C   0  0  0  0  0  0  0  0  0  0  0  0
   24.4670  -20.1962  -15.0351 C   0  0  2  0  0  0  0  0  0  0  0  0
   24.8037  -19.4357  -16.3023 C   0  0  0  0  0  0  0  0  0  0  0  0
   25.6263  -20.3741  -14.1395 C   0  0  2  0  0  0  0  0  0  0  0  0
   26.7311  -21.1077  -14.6947 N   0  0  0  0  0  0  0  0  0  0  0  0
   25.1751  -21.0521  -12.8856 C   0  0  0  0  0  0  0  0  0  0  0  0
   25.0549  -22.2943  -12.7592 O   0  0  0  0  0  0  0  0  0  0  0  0
   27.4344  -19.6960   -7.1002 C   0  0  0  0  0  0  0  0  0  0  0  0
   25.7585  -20.1020   -6.7149 S   0  0  0  0  0  0  0  0  0  0  0  0
   24.7502  -20.7844   -8.0140 C   0  0  0  0  0  0  0  0  0  0  0  0
   25.1356  -20.3392   -9.3907 C   0  0  0  0  0  0  0  0  0  0  0  0
   24.3433  -20.8975  -10.5155 C   0  0  2  0  0  0  0  0  0  0  0  0
   24.8507  -20.2708  -11.7364 N   0  0  0  0  0  0  0  0  0  0  0  0
   22.8860  -20.6039  -10.3938 C   0  0  0  0  0  0  0  0  0  0  0  0
   22.3280  -19.6252  -11.1633 O   0  0  0  0  0  0  0  0  0  0  0  0
   22.1430  -21.2404   -9.5935 O   0  0  0  0  0  0  0  0  0  0  0  0
  2  1  1  6
  3  2  1  0
  4  5  2  0
  4  3  1  0
  6  5  1  0
  7  6  2  0
  8  7  1  0
  8  9  2  0
  9  4  1  0
 10 11  2  0
 10  2  1  0
 13 15  1  0
 13 12  1  6
 14 13  1  0
 15 16  1  6
 16 10  1  0
 17 15  1  0
 18 17  2  0
 19 20  1  0
 20 21  1  0
 23 22  1  1
 22 21  1  0
 23 24  1  0
 24 17  1  0
 25 26  1  0
 25 23  1  0
 27 25  2  0
M  END
$$$$
