FVM.pdb
     RDKit          3D

 27 27  0  0  1  0  0  0  0  0999 V2000
   28.2492  -20.8268   -9.2333 N   0  0  0  0  0  0  0  0  0  0  0  0
   26.8269  -20.6601   -9.0136 C   0  0  1  0  0  0  0  0  0  0  0  0
   26.6562  -19.5071   -8.0321 C   0  0  0  0  0  0  0  0  0  0  0  0
   27.3555  -19.7837   -6.7539 C   0  0  0  0  0  0  0  0  0  0  0  0
   28.5794  -19.1989   -6.4981 C   0  0  0  0  0  0  0  0  0  0  0  0
   29.2823  -19.4109   -5.3379 C   0  0  0  0  0  0  0  0  0  0  0  0
   28.7400  -20.2484   -4.3820 C   0  0  0  0  0  0  0  0  0  0  0  0
   27.5185  -20.8473   -4.6093 C   0  0  0  0  0  0  0  0  0  0  0  0
   26.8376  -20.6142   -5.7842 C   0  0  0  0  0  0  0  0  0  0  0  0
   26.2081  -20.3314  -10.3286 C   0  0  0  0  0  0  0  0  0  0  0  0
   26.4949  -19.2742  -10.9586 O   0  0  0  0  0  0  0  0  0  0  0  0
   25.0687  -23.0426  -13.2203 C   0  0  0  0  0  0  0  0  0  0  0  0
   25.2885  -21.5571  -13.3960 C   0  0  2  0  0  0  0  0  0  0  0  0
   26.7854  -21.3511  -13.5147 C   0  0  0  0  0  0  0  0  0  0  0  0
   24.6951  -20.8517  -12.2437 C   0  0  2  0  0  0  0  0  0  0  0  0
   25.2607  -21.1741  -10.9618 N   0  0  0  0  0  0  0  0  0  0  0  0
   23.2255  -21.1250  -12.2078 C   0  0  0  0  0  0  0  0  0  0  0  0
   22.6799  -21.9504  -11.4367 O   0  0  0  0  0  0  0  0  0  0  0  0
   18.4682  -24.1623  -15.2366 C   0  0  0  0  0  0  0  0  0  0  0  0
   19.8471  -23.4337  -16.0673 S   0  0  0  0  0  0  0  0  0  0  0  0
   20.5487  -21.9536  -15.3695 C   0  0  0  0  0  0  0  0  0  0  0  0
   20.8297  -22.0384  -13.9012 C   0  0  0  0  0  0  0  0  0  0  0  0
   20.9298  -20.7509  -13.1686 C   0  0  2  0  0  0  0  0  0  0  0  0
   22.3536  -20.4223  -13.0923 N   0  0  0  0  0  0  0  0  0  0  0  0
   20.3800  -20.8325  -11.7845 C   0  0  0  0  0  0  0  0  0  0  0  0
   19.0463  -20.6348  -11.5751 O   0  0  0  0  0  0  0  0  0  0  0  0
   21.1172  -21.0832  -10.7887 O   0  0  0  0  0  0  0  0  0  0  0  0
  2  1  1  6
  3  2  1  0
  4  5  2  0
  4  3  1  0
  6  5  1  0
  7  6  2  0
  8  7  1  0
  8  9  2  0
  9  4  1  0
 10 11  2  0
 10  2  1  0
 13 15  1  0
 13 12  1  1
 14 13  1  0
 15 16  1  1
 16 10  1  0
 17 15  1  0
 18 17  2  0
 19 20  1  0
 20 21  1  0
 23 22  1  1
 22 21  1  0
 23 24  1  0
 24 17  1  0
 25 26  1  0
 25 23  1  0
 27 25  2  0
M  END
$$$$
