SWE.pdb
     RDKit          3D

 30 31  0  0  1  0  0  0  0  0999 V2000
    9.9470  -14.9397   18.3494 O   0  0  0  0  0  0  0  0  0  0  0  0
    8.6003  -14.9741   18.0287 C   0  0  0  0  0  0  0  0  0  0  0  0
    7.9249  -13.7969   18.7255 C   0  0  2  0  0  0  0  0  0  0  0  0
    8.4323  -12.5725   18.1770 N   0  0  0  0  0  0  0  0  0  0  0  0
    8.2251  -13.9424   20.1742 C   0  0  0  0  0  0  0  0  0  0  0  0
    9.2452  -13.3439   20.6014 O   0  0  0  0  0  0  0  0  0  0  0  0
    7.3616  -14.7334   20.9855 N   0  0  0  0  0  0  0  0  0  0  0  0
    7.6442  -14.7826   22.4013 C   0  0  1  0  0  0  0  0  0  0  0  0
    6.3632  -14.9390   23.1455 C   0  0  0  0  0  0  0  0  0  0  0  0
    6.5868  -15.0048   24.6078 C   0  0  0  0  0  0  0  0  0  0  0  0
    6.5902  -16.1259   25.4000 C   0  0  0  0  0  0  0  0  0  0  0  0
    6.8285  -15.7852   26.6784 N   0  0  0  0  0  0  0  0  0  0  0  0
    6.9830  -14.4302   26.7270 C   0  0  0  0  0  0  0  0  0  0  0  0
    7.2414  -13.5506   27.7674 C   0  0  0  0  0  0  0  0  0  0  0  0
    7.3501  -12.1967   27.5307 C   0  0  0  0  0  0  0  0  0  0  0  0
    7.2004  -11.7077   26.2440 C   0  0  0  0  0  0  0  0  0  0  0  0
    6.9450  -12.5618   25.2058 C   0  0  0  0  0  0  0  0  0  0  0  0
    6.8342  -13.9377   25.4441 C   0  0  0  0  0  0  0  0  0  0  0  0
    8.6516  -15.8090   22.6484 C   0  0  0  0  0  0  0  0  0  0  0  0
    8.5807  -16.8678   21.9486 O   0  0  0  0  0  0  0  0  0  0  0  0
    9.6902  -15.7421   23.5820 N   0  0  0  0  0  0  0  0  0  0  0  0
   10.5541  -16.8616   23.8489 C   0  0  1  0  0  0  0  0  0  0  0  0
   11.7909  -16.8409   22.9953 C   0  0  0  0  0  0  0  0  0  0  0  0
   12.5215  -15.5589   22.9162 C   0  0  0  0  0  0  0  0  0  0  0  0
   13.7047  -15.5759   22.0212 C   0  0  0  0  0  0  0  0  0  0  0  0
   14.8121  -16.0945   22.3033 O   0  0  0  0  0  0  0  0  0  0  0  0
   10.8626  -16.9990   25.2937 C   0  0  0  0  0  0  0  0  0  0  0  0
   10.4277  -16.1833   26.1625 O   0  0  0  0  0  0  0  0  0  0  0  0
   13.6538  -14.9841   20.7430 O   0  0  0  0  0  0  0  0  0  0  0  0
   11.6477  -18.0308   25.7857 O   0  0  0  0  0  0  0  0  0  0  0  0
  2  3  1  0
  2  1  1  0
  3  4  1  6
  5  6  2  0
  5  3  1  0
  7  5  1  0
  8  7  1  0
  9 10  1  0
  8  9  1  1
 10 18  1  0
 10 11  2  0
 11 12  1  0
 13 12  1  0
 13 14  2  0
 15 14  1  0
 16 15  2  0
 17 18  2  0
 17 16  1  0
 18 13  1  0
 19 20  2  0
 19  8  1  0
 21 19  1  0
 22 23  1  6
 22 21  1  0
 24 25  1  0
 24 23  1  0
 25 29  1  0
 26 25  2  0
 27 22  1  0
 28 27  2  0
 30 27  1  0
M  END
$$$$
