SWE.pdb
     RDKit          3D

 30 31  0  0  1  0  0  0  0  0999 V2000
   10.4667  -18.0252   19.3033 O   0  0  0  0  0  0  0  0  0  0  0  0
    9.1575  -17.7435   18.9504 C   0  0  0  0  0  0  0  0  0  0  0  0
    8.9946  -16.2268   18.9359 C   0  0  2  0  0  0  0  0  0  0  0  0
    9.9790  -15.6571   18.0619 N   0  0  0  0  0  0  0  0  0  0  0  0
    9.1515  -15.7774   20.3443 C   0  0  0  0  0  0  0  0  0  0  0  0
   10.2529  -15.2532   20.6494 O   0  0  0  0  0  0  0  0  0  0  0  0
    8.0709  -15.9589   21.2547 N   0  0  0  0  0  0  0  0  0  0  0  0
    8.2669  -15.5092   22.6134 C   0  0  1  0  0  0  0  0  0  0  0  0
    6.9394  -15.3798   23.2768 C   0  0  0  0  0  0  0  0  0  0  0  0
    7.0778  -15.0455   24.7127 C   0  0  0  0  0  0  0  0  0  0  0  0
    7.1078  -15.9184   25.7718 C   0  0  0  0  0  0  0  0  0  0  0  0
    7.2449  -15.2395   26.9239 N   0  0  0  0  0  0  0  0  0  0  0  0
    7.3056  -13.9105   26.6200 C   0  0  0  0  0  0  0  0  0  0  0  0
    7.4414  -12.7732   27.4017 C   0  0  0  0  0  0  0  0  0  0  0  0
    7.4739  -11.5229   26.8213 C   0  0  0  0  0  0  0  0  0  0  0  0
    7.3703  -11.3985   25.4462 C   0  0  0  0  0  0  0  0  0  0  0  0
    7.2357  -12.5104   24.6601 C   0  0  0  0  0  0  0  0  0  0  0  0
    7.2025  -13.7816   25.2477 C   0  0  0  0  0  0  0  0  0  0  0  0
    9.2227  -16.3933   23.2724 C   0  0  0  0  0  0  0  0  0  0  0  0
    9.1982  -17.6201   22.9403 O   0  0  0  0  0  0  0  0  0  0  0  0
   10.1655  -16.0226   24.2359 N   0  0  0  0  0  0  0  0  0  0  0  0
   11.1754  -16.9318   24.7096 C   0  0  1  0  0  0  0  0  0  0  0  0
   12.5532  -16.5357   24.2585 C   0  0  0  0  0  0  0  0  0  0  0  0
   13.6798  -17.3303   24.7904 C   0  0  0  0  0  0  0  0  0  0  0  0
   15.0180  -16.9006   24.3150 C   0  0  0  0  0  0  0  0  0  0  0  0
   15.2808  -15.7736   23.8296 O   0  0  0  0  0  0  0  0  0  0  0  0
   11.0959  -17.1425   26.1762 C   0  0  0  0  0  0  0  0  0  0  0  0
   11.8457  -17.9635   26.7869 O   0  0  0  0  0  0  0  0  0  0  0  0
   16.1242  -17.7714   24.3833 O   0  0  0  0  0  0  0  0  0  0  0  0
   10.1946  -16.4527   26.9729 O   0  0  0  0  0  0  0  0  0  0  0  0
  2  3  1  0
  2  1  1  0
  3  4  1  6
  5  6  2  0
  5  3  1  0
  7  5  1  0
  8  7  1  0
  9 10  1  0
  8  9  1  1
 10 18  1  0
 10 11  2  0
 11 12  1  0
 13 12  1  0
 13 14  2  0
 15 14  1  0
 16 15  2  0
 17 18  2  0
 17 16  1  0
 18 13  1  0
 19 20  2  0
 19  8  1  0
 21 19  1  0
 22 23  1  1
 22 21  1  0
 24 25  1  0
 24 23  1  0
 25 29  1  0
 26 25  2  0
 27 22  1  0
 28 27  2  0
 30 27  1  0
M  END
$$$$
