SWE.pdb
     RDKit          3D

 30 31  0  0  1  0  0  0  0  0999 V2000
    8.1311  -13.3077   16.8176 O   0  0  0  0  0  0  0  0  0  0  0  0
    8.5193  -13.1995   18.1424 C   0  0  0  0  0  0  0  0  0  0  0  0
    8.8976  -14.5937   18.6327 C   0  0  2  0  0  0  0  0  0  0  0  0
    7.9255  -15.5372   18.1612 N   0  0  0  0  0  0  0  0  0  0  0  0
    8.9452  -14.5148   20.1165 C   0  0  0  0  0  0  0  0  0  0  0  0
    9.8576  -13.8072   20.6145 O   0  0  0  0  0  0  0  0  0  0  0  0
    7.9769  -15.2278   20.8805 N   0  0  0  0  0  0  0  0  0  0  0  0
    8.0532  -15.1139   22.3186 C   0  0  1  0  0  0  0  0  0  0  0  0
    6.6788  -14.9298   22.8631 C   0  0  0  0  0  0  0  0  0  0  0  0
    6.6838  -14.8571   24.3421 C   0  0  0  0  0  0  0  0  0  0  0  0
    6.5445  -15.8970   25.2274 C   0  0  0  0  0  0  0  0  0  0  0  0
    6.6005  -15.4375   26.4895 N   0  0  0  0  0  0  0  0  0  0  0  0
    6.7780  -14.0855   26.4335 C   0  0  0  0  0  0  0  0  0  0  0  0
    6.9015  -13.1127   27.4139 C   0  0  0  0  0  0  0  0  0  0  0  0
    7.0755  -11.7888   27.0705 C   0  0  0  0  0  0  0  0  0  0  0  0
    7.1278  -11.4242   25.7358 C   0  0  0  0  0  0  0  0  0  0  0  0
    7.0076  -12.3715   24.7555 C   0  0  0  0  0  0  0  0  0  0  0  0
    6.8307  -13.7171   25.1024 C   0  0  0  0  0  0  0  0  0  0  0  0
    8.7979  -16.2527   22.8456 C   0  0  0  0  0  0  0  0  0  0  0  0
    8.8190  -17.3071   22.1359 O   0  0  0  0  0  0  0  0  0  0  0  0
    9.4927  -16.2982   24.0581 N   0  0  0  0  0  0  0  0  0  0  0  0
   10.7195  -17.0347   24.2113 C   0  0  1  0  0  0  0  0  0  0  0  0
   11.7373  -16.6663   23.1688 C   0  0  0  0  0  0  0  0  0  0  0  0
   13.0718  -17.2882   23.2950 C   0  0  0  0  0  0  0  0  0  0  0  0
   14.0082  -16.9721   22.1885 C   0  0  0  0  0  0  0  0  0  0  0  0
   14.4718  -15.8322   21.9424 O   0  0  0  0  0  0  0  0  0  0  0  0
   11.2592  -16.9431   25.5903 C   0  0  0  0  0  0  0  0  0  0  0  0
   12.2294  -17.6562   25.9897 O   0  0  0  0  0  0  0  0  0  0  0  0
   14.4536  -17.9783   21.3077 O   0  0  0  0  0  0  0  0  0  0  0  0
   10.7352  -16.0695   26.5312 O   0  0  0  0  0  0  0  0  0  0  0  0
  2  3  1  0
  2  1  1  0
  3  4  1  1
  5  6  2  0
  5  3  1  0
  7  5  1  0
  8  7  1  0
  9 10  1  0
  8  9  1  1
 10 18  1  0
 10 11  2  0
 11 12  1  0
 13 12  1  0
 13 14  2  0
 15 14  1  0
 16 15  2  0
 17 18  2  0
 17 16  1  0
 18 13  1  0
 19 20  2  0
 19  8  1  0
 21 19  1  0
 22 23  1  6
 22 21  1  0
 24 25  1  0
 24 23  1  0
 25 29  1  0
 26 25  2  0
 27 22  1  0
 28 27  2  0
 30 27  1  0
M  END
$$$$
