SWE.pdb
     RDKit          3D

 30 31  0  0  1  0  0  0  0  0999 V2000
    8.7249  -17.2286   20.0218 O   0  0  0  0  0  0  0  0  0  0  0  0
    7.3913  -17.0980   20.3711 C   0  0  0  0  0  0  0  0  0  0  0  0
    7.2090  -15.7249   21.0104 C   0  0  2  0  0  0  0  0  0  0  0  0
    7.3880  -14.7133   20.0093 N   0  0  0  0  0  0  0  0  0  0  0  0
    8.2164  -15.6357   22.1001 C   0  0  0  0  0  0  0  0  0  0  0  0
    9.2884  -15.0369   21.8292 O   0  0  0  0  0  0  0  0  0  0  0  0
    7.9222  -16.2190   23.3661 N   0  0  0  0  0  0  0  0  0  0  0  0
    8.8931  -16.0384   24.4203 C   0  0  1  0  0  0  0  0  0  0  0  0
    8.2033  -16.1414   25.7366 C   0  0  0  0  0  0  0  0  0  0  0  0
    7.1939  -15.0717   25.9081 C   0  0  0  0  0  0  0  0  0  0  0  0
    5.8281  -15.2100   25.9223 C   0  0  0  0  0  0  0  0  0  0  0  0
    5.2461  -14.0114   26.1006 N   0  0  0  0  0  0  0  0  0  0  0  0
    6.2364  -13.0783   26.2046 C   0  0  0  0  0  0  0  0  0  0  0  0
    6.2170  -11.7046   26.3927 C   0  0  0  0  0  0  0  0  0  0  0  0
    7.3937  -10.9893   26.4616 C   0  0  0  0  0  0  0  0  0  0  0  0
    8.6071  -11.6455   26.3423 C   0  0  0  0  0  0  0  0  0  0  0  0
    8.6443  -13.0008   26.1563 C   0  0  0  0  0  0  0  0  0  0  0  0
    7.4499  -13.7292   26.0860 C   0  0  0  0  0  0  0  0  0  0  0  0
   10.0003  -16.9652   24.2092 C   0  0  0  0  0  0  0  0  0  0  0  0
    9.7335  -18.0579   23.6170 O   0  0  0  0  0  0  0  0  0  0  0  0
   11.3296  -16.7689   24.5955 N   0  0  0  0  0  0  0  0  0  0  0  0
   12.3157  -17.8133   24.5068 C   0  0  1  0  0  0  0  0  0  0  0  0
   13.4410  -17.4546   23.5775 C   0  0  0  0  0  0  0  0  0  0  0  0
   13.9106  -16.0540   23.6131 C   0  0  0  0  0  0  0  0  0  0  0  0
   15.0648  -15.7662   22.7265 C   0  0  0  0  0  0  0  0  0  0  0  0
   15.6256  -16.6056   21.9810 O   0  0  0  0  0  0  0  0  0  0  0  0
   12.7968  -18.2441   25.8426 C   0  0  0  0  0  0  0  0  0  0  0  0
   13.6474  -19.1733   25.9919 O   0  0  0  0  0  0  0  0  0  0  0  0
   15.6259  -14.4747   22.6653 O   0  0  0  0  0  0  0  0  0  0  0  0
   12.3453  -17.6560   27.0145 O   0  0  0  0  0  0  0  0  0  0  0  0
  2  3  1  0
  2  1  1  0
  3  4  1  6
  5  6  2  0
  5  3  1  0
  7  5  1  0
  8  7  1  0
  9 10  1  0
  8  9  1  1
 10 18  1  0
 10 11  2  0
 11 12  1  0
 13 12  1  0
 13 14  2  0
 15 14  1  0
 16 15  2  0
 17 18  2  0
 17 16  1  0
 18 13  1  0
 19 20  2  0
 19  8  1  0
 21 19  1  0
 22 23  1  6
 22 21  1  0
 24 25  1  0
 24 23  1  0
 25 29  1  0
 26 25  2  0
 27 22  1  0
 28 27  2  0
 30 27  1  0
M  END
$$$$
