SWE.pdb
     RDKit          3D

 30 31  0  0  1  0  0  0  0  0999 V2000
    6.6521  -17.5898   19.5076 O   0  0  0  0  0  0  0  0  0  0  0  0
    7.7498  -17.0044   20.1159 C   0  0  0  0  0  0  0  0  0  0  0  0
    7.2470  -15.8407   20.9646 C   0  0  2  0  0  0  0  0  0  0  0  0
    7.0668  -14.6912   20.1259 N   0  0  0  0  0  0  0  0  0  0  0  0
    8.2701  -15.6231   22.0211 C   0  0  0  0  0  0  0  0  0  0  0  0
    9.2763  -14.9409   21.6995 O   0  0  0  0  0  0  0  0  0  0  0  0
    8.0628  -16.1849   23.3137 N   0  0  0  0  0  0  0  0  0  0  0  0
    9.0701  -15.9283   24.3168 C   0  0  1  0  0  0  0  0  0  0  0  0
    8.4273  -15.9334   25.6607 C   0  0  0  0  0  0  0  0  0  0  0  0
    7.3733  -14.8986   25.7647 C   0  0  0  0  0  0  0  0  0  0  0  0
    6.0161  -15.0794   25.6649 C   0  0  0  0  0  0  0  0  0  0  0  0
    5.3830  -13.9027   25.8126 N   0  0  0  0  0  0  0  0  0  0  0  0
    6.3310  -12.9413   26.0110 C   0  0  0  0  0  0  0  0  0  0  0  0
    6.2520  -11.5722   26.2171 C   0  0  0  0  0  0  0  0  0  0  0  0
    7.3955  -10.8222   26.3925 C   0  0  0  0  0  0  0  0  0  0  0  0
    8.6352  -11.4383   26.3633 C   0  0  0  0  0  0  0  0  0  0  0  0
    8.7311  -12.7883   26.1612 C   0  0  0  0  0  0  0  0  0  0  0  0
    7.5705  -13.5521   25.9826 C   0  0  0  0  0  0  0  0  0  0  0  0
   10.1705  -16.8692   24.1355 C   0  0  0  0  0  0  0  0  0  0  0  0
    9.8721  -18.1039   24.0858 O   0  0  0  0  0  0  0  0  0  0  0  0
   11.5249  -16.5454   24.0107 N   0  0  0  0  0  0  0  0  0  0  0  0
   12.5566  -17.5486   24.0177 C   0  0  1  0  0  0  0  0  0  0  0  0
   13.6855  -17.2091   23.0855 C   0  0  0  0  0  0  0  0  0  0  0  0
   14.3216  -15.8877   23.2668 C   0  0  0  0  0  0  0  0  0  0  0  0
   15.4234  -15.5965   22.3169 C   0  0  0  0  0  0  0  0  0  0  0  0
   16.6067  -15.9946   22.4445 O   0  0  0  0  0  0  0  0  0  0  0  0
   13.0266  -17.8590   25.3904 C   0  0  0  0  0  0  0  0  0  0  0  0
   13.8745  -18.7721   25.6287 O   0  0  0  0  0  0  0  0  0  0  0  0
   15.1973  -14.8205   21.1623 O   0  0  0  0  0  0  0  0  0  0  0  0
   12.5669  -17.1682   26.5015 O   0  0  0  0  0  0  0  0  0  0  0  0
  2  3  1  0
  2  1  1  0
  3  4  1  6
  5  6  2  0
  5  3  1  0
  7  5  1  0
  8  7  1  0
  9 10  1  0
  8  9  1  1
 10 18  1  0
 10 11  2  0
 11 12  1  0
 13 12  1  0
 13 14  2  0
 15 14  1  0
 16 15  2  0
 17 18  2  0
 17 16  1  0
 18 13  1  0
 19 20  2  0
 19  8  1  0
 21 19  1  0
 22 23  1  6
 22 21  1  0
 24 25  1  0
 24 23  1  0
 25 29  1  0
 26 25  2  0
 27 22  1  0
 28 27  2  0
 30 27  1  0
M  END
$$$$
