SWE.pdb
     RDKit          3D

 30 31  0  0  1  0  0  0  0  0999 V2000
   10.9201  -18.0949   18.8721 O   0  0  0  0  0  0  0  0  0  0  0  0
    9.5378  -18.0267   18.9192 C   0  0  0  0  0  0  0  0  0  0  0  0
    9.1411  -16.5551   18.8532 C   0  0  2  0  0  0  0  0  0  0  0  0
   10.0244  -15.8704   17.9541 N   0  0  0  0  0  0  0  0  0  0  0  0
    9.2271  -16.0377   20.2442 C   0  0  0  0  0  0  0  0  0  0  0  0
   10.2709  -15.4050   20.5468 O   0  0  0  0  0  0  0  0  0  0  0  0
    8.1477  -16.2789   21.1420 N   0  0  0  0  0  0  0  0  0  0  0  0
    8.2515  -15.7171   22.4688 C   0  0  1  0  0  0  0  0  0  0  0  0
    6.8893  -15.6299   23.0656 C   0  0  0  0  0  0  0  0  0  0  0  0
    6.9411  -15.2001   24.4816 C   0  0  0  0  0  0  0  0  0  0  0  0
    6.7925  -15.9869   25.5967 C   0  0  0  0  0  0  0  0  0  0  0  0
    6.9021  -15.2370   26.7070 N   0  0  0  0  0  0  0  0  0  0  0  0
    7.1244  -13.9476   26.3190 C   0  0  0  0  0  0  0  0  0  0  0  0
    7.3108  -12.7715   27.0295 C   0  0  0  0  0  0  0  0  0  0  0  0
    7.5201  -11.5791   26.3697 C   0  0  0  0  0  0  0  0  0  0  0  0
    7.5450  -11.5524   24.9856 C   0  0  0  0  0  0  0  0  0  0  0  0
    7.3628  -12.7039   24.2690 C   0  0  0  0  0  0  0  0  0  0  0  0
    7.1500  -13.9164   24.9374 C   0  0  0  0  0  0  0  0  0  0  0  0
    9.2316  -16.4822   23.2324 C   0  0  0  0  0  0  0  0  0  0  0  0
    9.2317  -17.7432   23.0720 O   0  0  0  0  0  0  0  0  0  0  0  0
   10.1735  -15.9631   24.1259 N   0  0  0  0  0  0  0  0  0  0  0  0
   11.2057  -16.7779   24.7105 C   0  0  1  0  0  0  0  0  0  0  0  0
   12.5753  -16.1948   24.5034 C   0  0  0  0  0  0  0  0  0  0  0  0
   13.7086  -16.9361   25.0946 C   0  0  0  0  0  0  0  0  0  0  0  0
   15.0465  -16.4923   24.6316 C   0  0  0  0  0  0  0  0  0  0  0  0
   16.1393  -16.9398   25.0563 O   0  0  0  0  0  0  0  0  0  0  0  0
   10.9313  -17.0932   26.1341 C   0  0  0  0  0  0  0  0  0  0  0  0
   11.6620  -17.8802   26.8094 O   0  0  0  0  0  0  0  0  0  0  0  0
   15.1763  -15.4968   23.6422 O   0  0  0  0  0  0  0  0  0  0  0  0
    9.8559  -16.5454   26.8172 O   0  0  0  0  0  0  0  0  0  0  0  0
  2  3  1  0
  2  1  1  0
  3  4  1  6
  5  6  2  0
  5  3  1  0
  7  5  1  0
  8  7  1  0
  9 10  1  0
  8  9  1  1
 10 18  1  0
 10 11  2  0
 11 12  1  0
 13 12  1  0
 13 14  2  0
 15 14  1  0
 16 15  2  0
 17 18  2  0
 17 16  1  0
 18 13  1  0
 19 20  2  0
 19  8  1  0
 21 19  1  0
 22 23  1  1
 22 21  1  0
 24 25  1  0
 24 23  1  0
 25 29  1  0
 26 25  2  0
 27 22  1  0
 28 27  2  0
 30 27  1  0
M  END
$$$$
