SWE.pdb
     RDKit          3D

 30 31  0  0  1  0  0  0  0  0999 V2000
    8.5204  -16.8349   19.4438 O   0  0  0  0  0  0  0  0  0  0  0  0
    7.3423  -16.8501   20.1715 C   0  0  0  0  0  0  0  0  0  0  0  0
    7.1566  -15.4666   20.7870 C   0  0  2  0  0  0  0  0  0  0  0  0
    7.2062  -14.4796   19.7473 N   0  0  0  0  0  0  0  0  0  0  0  0
    8.2484  -15.3036   21.7827 C   0  0  0  0  0  0  0  0  0  0  0  0
    9.2088  -14.5631   21.4503 O   0  0  0  0  0  0  0  0  0  0  0  0
    8.1527  -15.9785   23.0337 N   0  0  0  0  0  0  0  0  0  0  0  0
    9.1723  -15.6974   24.0177 C   0  0  1  0  0  0  0  0  0  0  0  0
    8.6050  -15.9139   25.3780 C   0  0  0  0  0  0  0  0  0  0  0  0
    7.4678  -15.0040   25.6454 C   0  0  0  0  0  0  0  0  0  0  0  0
    6.1327  -15.3231   25.6648 C   0  0  0  0  0  0  0  0  0  0  0  0
    5.4023  -14.2297   25.9441 N   0  0  0  0  0  0  0  0  0  0  0  0
    6.2635  -13.1841   26.1097 C   0  0  0  0  0  0  0  0  0  0  0  0
    6.0679  -11.8436   26.4059 C   0  0  0  0  0  0  0  0  0  0  0  0
    7.1416  -10.9859   26.5170 C   0  0  0  0  0  0  0  0  0  0  0  0
    8.4278  -11.4640   26.3318 C   0  0  0  0  0  0  0  0  0  0  0  0
    8.6386  -12.7840   26.0390 C   0  0  0  0  0  0  0  0  0  0  0  0
    7.5491  -13.6571   25.9257 C   0  0  0  0  0  0  0  0  0  0  0  0
   10.3670  -16.4716   23.6972 C   0  0  0  0  0  0  0  0  0  0  0  0
   10.1931  -17.6764   23.3310 O   0  0  0  0  0  0  0  0  0  0  0  0
   11.6880  -16.0171   23.7533 N   0  0  0  0  0  0  0  0  0  0  0  0
   12.8072  -16.8781   23.4757 C   0  0  1  0  0  0  0  0  0  0  0  0
   13.9925  -16.1176   22.9510 C   0  0  0  0  0  0  0  0  0  0  0  0
   15.2395  -16.8855   22.7539 C   0  0  0  0  0  0  0  0  0  0  0  0
   16.4290  -16.0601   22.4295 C   0  0  0  0  0  0  0  0  0  0  0  0
   16.9379  -15.2020   23.1907 O   0  0  0  0  0  0  0  0  0  0  0  0
   13.1516  -17.7398   24.6334 C   0  0  0  0  0  0  0  0  0  0  0  0
   12.8829  -17.4118   25.8290 O   0  0  0  0  0  0  0  0  0  0  0  0
   17.0885  -16.1964   21.1914 O   0  0  0  0  0  0  0  0  0  0  0  0
   13.7904  -18.9610   24.4799 O   0  0  0  0  0  0  0  0  0  0  0  0
  2  3  1  0
  2  1  1  0
  3  4  1  6
  5  6  2  0
  5  3  1  0
  7  5  1  0
  8  7  1  0
  9 10  1  0
  8  9  1  1
 10 18  1  0
 10 11  2  0
 11 12  1  0
 13 12  1  0
 13 14  2  0
 15 14  1  0
 16 15  2  0
 17 18  2  0
 17 16  1  0
 18 13  1  0
 19 20  2  0
 19  8  1  0
 21 19  1  0
 22 23  1  1
 22 21  1  0
 24 25  1  0
 24 23  1  0
 25 29  1  0
 26 25  2  0
 27 22  1  0
 28 27  2  0
 30 27  1  0
M  END
$$$$
