SWE.pdb
     RDKit          3D

 30 31  0  0  1  0  0  0  0  0999 V2000
    8.1384  -19.1799   20.6737 O   0  0  0  0  0  0  0  0  0  0  0  0
    6.9972  -18.3987   20.6026 C   0  0  0  0  0  0  0  0  0  0  0  0
    7.3756  -17.0803   19.9349 C   0  0  2  0  0  0  0  0  0  0  0  0
    7.8327  -17.3437   18.6010 N   0  0  0  0  0  0  0  0  0  0  0  0
    8.4266  -16.4672   20.7891 C   0  0  0  0  0  0  0  0  0  0  0  0
    9.6137  -16.5787   20.3896 O   0  0  0  0  0  0  0  0  0  0  0  0
    8.0440  -15.7999   21.9881 N   0  0  0  0  0  0  0  0  0  0  0  0
    9.0902  -15.1645   22.7553 C   0  0  1  0  0  0  0  0  0  0  0  0
    8.5691  -13.8886   23.3206 C   0  0  0  0  0  0  0  0  0  0  0  0
    7.5928  -14.1322   24.4070 C   0  0  0  0  0  0  0  0  0  0  0  0
    6.9770  -15.3179   24.7227 C   0  0  0  0  0  0  0  0  0  0  0  0
    6.1550  -15.1443   25.7722 N   0  0  0  0  0  0  0  0  0  0  0  0
    6.2310  -13.8349   26.1492 C   0  0  0  0  0  0  0  0  0  0  0  0
    5.6097  -13.1089   27.1541 C   0  0  0  0  0  0  0  0  0  0  0  0
    5.8745  -11.7655   27.3152 C   0  0  0  0  0  0  0  0  0  0  0  0
    6.7683  -11.1327   26.4679 C   0  0  0  0  0  0  0  0  0  0  0  0
    7.3902  -11.8342   25.4710 C   0  0  0  0  0  0  0  0  0  0  0  0
    7.1225  -13.1992   25.3056 C   0  0  0  0  0  0  0  0  0  0  0  0
    9.6152  -16.1209   23.7243 C   0  0  0  0  0  0  0  0  0  0  0  0
    8.8366  -17.0556   24.0931 O   0  0  0  0  0  0  0  0  0  0  0  0
   10.8944  -16.1103   24.2886 N   0  0  0  0  0  0  0  0  0  0  0  0
   11.3582  -17.1607   25.1560 C   0  0  1  0  0  0  0  0  0  0  0  0
   12.7895  -17.5304   24.8855 C   0  0  0  0  0  0  0  0  0  0  0  0
   13.7786  -16.4335   24.9318 C   0  0  0  0  0  0  0  0  0  0  0  0
   14.7634  -16.4418   23.8222 C   0  0  0  0  0  0  0  0  0  0  0  0
   14.6428  -15.8025   22.7491 O   0  0  0  0  0  0  0  0  0  0  0  0
   11.1103  -16.8559   26.5868 C   0  0  0  0  0  0  0  0  0  0  0  0
   10.7167  -15.7162   26.9811 O   0  0  0  0  0  0  0  0  0  0  0  0
   15.9468  -17.2024   23.9106 O   0  0  0  0  0  0  0  0  0  0  0  0
   11.2939  -17.8009   27.5850 O   0  0  0  0  0  0  0  0  0  0  0  0
  2  3  1  0
  2  1  1  0
  3  4  1  6
  5  6  2  0
  5  3  1  0
  7  5  1  0
  8  7  1  0
  9 10  1  0
  8  9  1  1
 10 18  1  0
 10 11  2  0
 11 12  1  0
 13 12  1  0
 13 14  2  0
 15 14  1  0
 16 15  2  0
 17 18  2  0
 17 16  1  0
 18 13  1  0
 19 20  2  0
 19  8  1  0
 21 19  1  0
 22 23  1  1
 22 21  1  0
 24 25  1  0
 24 23  1  0
 25 29  1  0
 26 25  2  0
 27 22  1  0
 28 27  2  0
 30 27  1  0
M  END
$$$$
