SWE.pdb
     RDKit          3D

 30 31  0  0  1  0  0  0  0  0999 V2000
    9.8902  -18.7548   18.0300 O   0  0  0  0  0  0  0  0  0  0  0  0
    9.9968  -18.1264   19.2594 C   0  0  0  0  0  0  0  0  0  0  0  0
    9.2833  -16.7817   19.1590 C   0  0  2  0  0  0  0  0  0  0  0  0
    9.9325  -15.9787   18.1634 N   0  0  0  0  0  0  0  0  0  0  0  0
    9.3469  -16.1742   20.5144 C   0  0  0  0  0  0  0  0  0  0  0  0
   10.3922  -15.5351   20.7973 O   0  0  0  0  0  0  0  0  0  0  0  0
    8.2457  -16.3428   21.4024 N   0  0  0  0  0  0  0  0  0  0  0  0
    8.3466  -15.7298   22.7066 C   0  0  1  0  0  0  0  0  0  0  0  0
    6.9760  -15.5300   23.2550 C   0  0  0  0  0  0  0  0  0  0  0  0
    7.0124  -15.1210   24.6776 C   0  0  0  0  0  0  0  0  0  0  0  0
    6.9097  -15.9323   25.7803 C   0  0  0  0  0  0  0  0  0  0  0  0
    6.9860  -15.1958   26.9022 N   0  0  0  0  0  0  0  0  0  0  0  0
    7.1402  -13.8906   26.5345 C   0  0  0  0  0  0  0  0  0  0  0  0
    7.2695  -12.7181   27.2634 C   0  0  0  0  0  0  0  0  0  0  0  0
    7.4143  -11.5060   26.6224 C   0  0  0  0  0  0  0  0  0  0  0  0
    7.4312  -11.4558   25.2388 C   0  0  0  0  0  0  0  0  0  0  0  0
    7.3048  -12.6033   24.5042 C   0  0  0  0  0  0  0  0  0  0  0  0
    7.1576  -13.8358   25.1535 C   0  0  0  0  0  0  0  0  0  0  0  0
    9.2525  -16.5204   23.5334 C   0  0  0  0  0  0  0  0  0  0  0  0
    9.1026  -17.7825   23.5096 O   0  0  0  0  0  0  0  0  0  0  0  0
   10.2721  -16.0247   24.3516 N   0  0  0  0  0  0  0  0  0  0  0  0
   11.1359  -16.8909   25.1096 C   0  0  1  0  0  0  0  0  0  0  0  0
   12.5893  -16.5796   24.8876 C   0  0  0  0  0  0  0  0  0  0  0  0
   13.0693  -16.6120   23.4904 C   0  0  0  0  0  0  0  0  0  0  0  0
   14.5155  -16.3241   23.3268 C   0  0  0  0  0  0  0  0  0  0  0  0
   15.2848  -15.9595   24.2487 O   0  0  0  0  0  0  0  0  0  0  0  0
   10.7745  -16.9229   26.5482 C   0  0  0  0  0  0  0  0  0  0  0  0
    9.9013  -16.1497   27.0474 O   0  0  0  0  0  0  0  0  0  0  0  0
   15.1403  -16.4484   22.0695 O   0  0  0  0  0  0  0  0  0  0  0  0
   11.3704  -17.8026   27.4394 O   0  0  0  0  0  0  0  0  0  0  0  0
  2  3  1  0
  2  1  1  0
  3  4  1  6
  5  6  2  0
  5  3  1  0
  7  5  1  0
  8  7  1  0
  9 10  1  0
  8  9  1  1
 10 18  1  0
 10 11  2  0
 11 12  1  0
 13 12  1  0
 13 14  2  0
 15 14  1  0
 16 15  2  0
 17 18  2  0
 17 16  1  0
 18 13  1  0
 19 20  2  0
 19  8  1  0
 21 19  1  0
 22 23  1  1
 22 21  1  0
 24 25  1  0
 24 23  1  0
 25 29  1  0
 26 25  2  0
 27 22  1  0
 28 27  2  0
 30 27  1  0
M  END
$$$$
