NCL.pdb
     RDKit          3D

 23 22  0  0  1  0  0  0  0  0999 V2000
   25.1358  -14.7480  -16.0551 N   0  0  0  0  0  0  0  0  0  0  0  0
   23.9802  -15.5838  -15.9542 C   0  0  0  0  0  0  0  0  0  0  0  0
   22.8887  -15.0325  -16.2083 O   0  0  0  0  0  0  0  0  0  0  0  0
   24.2092  -16.9725  -15.5692 C   0  0  0  0  0  0  0  0  0  0  0  0
   25.6166  -17.3147  -15.1697 C   0  0  2  0  0  0  0  0  0  0  0  0
   26.4014  -17.2652  -16.3989 N   0  0  0  0  0  0  0  0  0  0  0  0
   25.6165  -18.7582  -14.7339 C   0  0  0  0  0  0  0  0  0  0  0  0
   24.6108  -19.4976  -14.8484 O   0  0  0  0  0  0  0  0  0  0  0  0
   26.7755  -19.3732  -14.1591 N   0  0  0  0  0  0  0  0  0  0  0  0
   26.8466  -20.7442  -13.7631 C   0  0  1  0  0  0  0  0  0  0  0  0
   28.2922  -21.1889  -13.8549 C   0  0  0  0  0  0  0  0  0  0  0  0
   29.4278  -20.0715  -13.0267 S   0  0  0  0  0  0  0  0  0  0  0  0
   26.4179  -20.9534  -12.3449 C   0  0  0  0  0  0  0  0  0  0  0  0
   27.2506  -21.2247  -11.4397 O   0  0  0  0  0  0  0  0  0  0  0  0
   27.0162  -19.3240   -8.0136 C   0  0  0  0  0  0  0  0  0  0  0  0
   26.5268  -20.3330   -9.0110 C   0  0  1  0  0  0  0  0  0  0  0  0
   26.7584  -21.6860   -8.3315 C   0  0  0  0  0  0  0  0  0  0  0  0
   25.2229  -20.1783   -9.6192 C   0  0  0  0  0  0  0  0  0  0  0  0
   24.6099  -21.1071  -10.5589 C   0  0  2  0  0  0  0  0  0  0  0  0
   25.0745  -20.8629  -11.9302 N   0  0  0  0  0  0  0  0  0  0  0  0
   23.1644  -21.0483  -10.6249 C   0  0  0  0  0  0  0  0  0  0  0  0
   22.5866  -20.6134  -11.6693 O   0  0  0  0  0  0  0  0  0  0  0  0
   22.3530  -21.4550   -9.5970 O   0  0  0  0  0  0  0  0  0  0  0  0
  2  1  1  0
  2  4  1  0
  3  2  2  0
  5  6  1  6
  5  7  1  0
  5  4  1  0
  7  9  1  0
  7  8  2  0
  9 10  1  0
 10 13  1  0
 11 12  1  0
 10 11  1  1
 13 14  2  0
 13 20  1  0
 16 15  1  1
 16 17  1  0
 18 16  1  0
 19 18  1  1
 20 19  1  0
 21 19  1  0
 21 23  1  0
 22 21  2  0
M  END
$$$$
