NCL.pdb
     RDKit          3D

 23 22  0  0  1  0  0  0  0  0999 V2000
   15.5805  -16.1941  -14.8858 N   0  0  0  0  0  0  0  0  0  0  0  0
   16.9608  -15.9372  -14.6156 C   0  0  0  0  0  0  0  0  0  0  0  0
   17.4761  -16.6346  -13.7167 O   0  0  0  0  0  0  0  0  0  0  0  0
   17.6012  -14.8982  -15.4152 C   0  0  0  0  0  0  0  0  0  0  0  0
   16.6913  -14.1208  -16.3236 C   0  0  2  0  0  0  0  0  0  0  0  0
   16.4416  -14.9867  -17.4713 N   0  0  0  0  0  0  0  0  0  0  0  0
   17.4827  -12.9502  -16.8499 C   0  0  0  0  0  0  0  0  0  0  0  0
   18.2790  -13.0522  -17.8128 O   0  0  0  0  0  0  0  0  0  0  0  0
   17.3695  -11.6430  -16.2753 N   0  0  0  0  0  0  0  0  0  0  0  0
   18.0524  -10.4869  -16.7638 C   0  0  1  0  0  0  0  0  0  0  0  0
   17.0149   -9.4529  -17.1513 C   0  0  0  0  0  0  0  0  0  0  0  0
   17.7305   -7.8648  -17.5875 S   0  0  0  0  0  0  0  0  0  0  0  0
   18.9260   -9.8566  -15.7253 C   0  0  0  0  0  0  0  0  0  0  0  0
   18.5249   -9.6876  -14.5434 O   0  0  0  0  0  0  0  0  0  0  0  0
   24.5603  -10.6765  -15.1732 C   0  0  0  0  0  0  0  0  0  0  0  0
   23.1088  -10.4262  -14.8852 C   0  0  1  0  0  0  0  0  0  0  0  0
   22.9311  -10.8460  -13.4228 C   0  0  0  0  0  0  0  0  0  0  0  0
   22.5110   -9.1529  -15.2245 C   0  0  0  0  0  0  0  0  0  0  0  0
   21.1194   -8.7837  -15.0042 C   0  0  2  0  0  0  0  0  0  0  0  0
   20.2369   -9.4154  -15.9932 N   0  0  0  0  0  0  0  0  0  0  0  0
   20.8402   -7.3652  -15.0882 C   0  0  0  0  0  0  0  0  0  0  0  0
   20.4199   -6.8568  -16.1739 O   0  0  0  0  0  0  0  0  0  0  0  0
   20.9995   -6.5090  -14.0290 O   0  0  0  0  0  0  0  0  0  0  0  0
  2  1  1  0
  2  4  1  0
  3  2  2  0
  5  6  1  6
  5  7  1  0
  5  4  1  0
  7  9  1  0
  7  8  2  0
  9 10  1  0
 10 13  1  0
 11 12  1  0
 10 11  1  1
 13 14  2  0
 13 20  1  0
 16 15  1  1
 16 17  1  0
 18 16  1  0
 19 18  1  6
 20 19  1  0
 21 19  1  0
 21 23  1  0
 22 21  2  0
M  END
$$$$
