NCL.pdb
     RDKit          3D

 23 22  0  0  1  0  0  0  0  0999 V2000
   21.7316  -21.6985  -16.0457 N   0  0  0  0  0  0  0  0  0  0  0  0
   22.8614  -21.3993  -16.8692 C   0  0  0  0  0  0  0  0  0  0  0  0
   23.0248  -22.1458  -17.8572 O   0  0  0  0  0  0  0  0  0  0  0  0
   23.6851  -20.2657  -16.4625 C   0  0  0  0  0  0  0  0  0  0  0  0
   23.3098  -19.6218  -15.1580 C   0  0  2  0  0  0  0  0  0  0  0  0
   22.0330  -18.9569  -15.3961 N   0  0  0  0  0  0  0  0  0  0  0  0
   24.3097  -18.5229  -14.9006 C   0  0  0  0  0  0  0  0  0  0  0  0
   25.3774  -18.7155  -14.2727 O   0  0  0  0  0  0  0  0  0  0  0  0
   24.0955  -17.1841  -15.3627 N   0  0  0  0  0  0  0  0  0  0  0  0
   25.0419  -16.1229  -15.2225 C   0  0  1  0  0  0  0  0  0  0  0  0
   26.3305  -16.5458  -15.8980 C   0  0  0  0  0  0  0  0  0  0  0  0
   27.5995  -15.2762  -15.8539 S   0  0  0  0  0  0  0  0  0  0  0  0
   24.5933  -14.8633  -15.8941 C   0  0  0  0  0  0  0  0  0  0  0  0
   25.2425  -13.7901  -15.7794 O   0  0  0  0  0  0  0  0  0  0  0  0
   23.9045  -13.7040  -21.1543 C   0  0  0  0  0  0  0  0  0  0  0  0
   24.0671  -13.5394  -19.6714 C   0  0  1  0  0  0  0  0  0  0  0  0
   24.7937  -12.2004  -19.5126 C   0  0  0  0  0  0  0  0  0  0  0  0
   22.9311  -13.7176  -18.7929 C   0  0  0  0  0  0  0  0  0  0  0  0
   22.9481  -13.5698  -17.3441 C   0  0  2  0  0  0  0  0  0  0  0  0
   23.4321  -14.7913  -16.6888 N   0  0  0  0  0  0  0  0  0  0  0  0
   21.6613  -13.2920  -16.7406 C   0  0  0  0  0  0  0  0  0  0  0  0
   21.0095  -14.2175  -16.1641 O   0  0  0  0  0  0  0  0  0  0  0  0
   21.0872  -12.0467  -16.7463 O   0  0  0  0  0  0  0  0  0  0  0  0
  2  1  1  0
  2  4  1  0
  3  2  2  0
  5  6  1  6
  5  7  1  0
  5  4  1  0
  7  9  1  0
  7  8  2  0
  9 10  1  0
 10 13  1  0
 11 12  1  0
 10 11  1  6
 13 14  2  0
 13 20  1  0
 16 15  1  6
 16 17  1  0
 18 16  1  0
 19 18  1  6
 20 19  1  0
 21 19  1  0
 21 23  1  0
 22 21  2  0
M  END
$$$$
