NCL.pdb
     RDKit          3D

 23 22  0  0  1  0  0  0  0  0999 V2000
   15.5364  -14.9954  -16.9594 N   0  0  0  0  0  0  0  0  0  0  0  0
   16.6313  -14.5814  -16.1385 C   0  0  0  0  0  0  0  0  0  0  0  0
   16.5858  -14.9524  -14.9467 O   0  0  0  0  0  0  0  0  0  0  0  0
   17.6660  -13.7801  -16.7839 C   0  0  0  0  0  0  0  0  0  0  0  0
   17.3771  -13.3575  -18.1964 C   0  0  2  0  0  0  0  0  0  0  0  0
   17.6356  -14.5319  -19.0230 N   0  0  0  0  0  0  0  0  0  0  0  0
   18.4229  -12.3410  -18.5791 C   0  0  0  0  0  0  0  0  0  0  0  0
   19.1007  -12.4328  -19.6296 O   0  0  0  0  0  0  0  0  0  0  0  0
   18.7048  -11.2020  -17.7574 N   0  0  0  0  0  0  0  0  0  0  0  0
   19.6105  -10.1561  -18.1143 C   0  0  1  0  0  0  0  0  0  0  0  0
   19.0555   -9.4444  -19.3314 C   0  0  0  0  0  0  0  0  0  0  0  0
   17.4897   -8.6240  -19.0157 S   0  0  0  0  0  0  0  0  0  0  0  0
   19.7505   -9.1275  -17.0368 C   0  0  0  0  0  0  0  0  0  0  0  0
   18.8087   -8.8800  -16.2380 O   0  0  0  0  0  0  0  0  0  0  0  0
   23.9782  -10.1720  -14.0255 C   0  0  0  0  0  0  0  0  0  0  0  0
   22.6317   -9.5955  -14.3525 C   0  0  1  0  0  0  0  0  0  0  0  0
   21.8544   -9.6678  -13.0346 C   0  0  0  0  0  0  0  0  0  0  0  0
   22.5337   -8.3271  -15.0422 C   0  0  0  0  0  0  0  0  0  0  0  0
   21.3102   -7.7441  -15.5754 C   0  0  2  0  0  0  0  0  0  0  0  0
   20.9267   -8.3763  -16.8439 N   0  0  0  0  0  0  0  0  0  0  0  0
   21.3787   -6.3251  -15.8567 C   0  0  0  0  0  0  0  0  0  0  0  0
   21.5234   -5.4894  -14.9108 O   0  0  0  0  0  0  0  0  0  0  0  0
   21.3023   -5.8110  -17.1256 O   0  0  0  0  0  0  0  0  0  0  0  0
  2  1  1  0
  2  4  1  0
  3  2  2  0
  5  6  1  6
  5  7  1  0
  5  4  1  0
  7  9  1  0
  7  8  2  0
  9 10  1  0
 10 13  1  0
 11 12  1  0
 10 11  1  6
 13 14  2  0
 13 20  1  0
 16 15  1  1
 16 17  1  0
 18 16  1  0
 19 18  1  6
 20 19  1  0
 21 19  1  0
 21 23  1  0
 22 21  2  0
M  END
$$$$
