GDD.pdb
     RDKit          3D

 21 20  0  0  1  0  0  0  0  0999 V2000
    6.7836  -12.7269   18.7972 N   0  0  0  0  0  0  0  0  0  0  0  0
    8.0495  -13.3234   18.4693 C   0  0  0  0  0  0  0  0  0  0  0  0
    8.7554  -13.7252   19.7219 C   0  0  0  0  0  0  0  0  0  0  0  0
    8.1399  -13.6865   20.8010 O   0  0  0  0  0  0  0  0  0  0  0  0
   10.1034  -14.1505   19.7320 N   0  0  0  0  0  0  0  0  0  0  0  0
   10.6180  -14.8918   20.8491 C   0  0  1  0  0  0  0  0  0  0  0  0
    9.7711  -16.1008   21.1963 C   0  0  0  0  0  0  0  0  0  0  0  0
   10.2707  -16.8639   22.3401 C   0  0  0  0  0  0  0  0  0  0  0  0
   10.7880  -16.3401   23.3551 O   0  0  0  0  0  0  0  0  0  0  0  0
   12.0163  -15.2781   20.5490 C   0  0  0  0  0  0  0  0  0  0  0  0
   12.2797  -15.8634   19.4924 O   0  0  0  0  0  0  0  0  0  0  0  0
   10.1684  -18.2390   22.3032 O   0  0  0  0  0  0  0  0  0  0  0  0
   13.1053  -15.0088   21.4282 N   0  0  0  0  0  0  0  0  0  0  0  0
   14.4633  -15.1612   21.0567 C   0  0  1  0  0  0  0  0  0  0  0  0
   15.1436  -13.9293   20.5511 C   0  0  0  0  0  0  0  0  0  0  0  0
   15.9271  -14.1515   19.3176 C   0  0  0  0  0  0  0  0  0  0  0  0
   15.9687  -15.2798   18.7816 O   0  0  0  0  0  0  0  0  0  0  0  0
   15.2663  -15.6666   22.2039 C   0  0  0  0  0  0  0  0  0  0  0  0
   15.0896  -15.1684   23.4770 O   0  0  0  0  0  0  0  0  0  0  0  0
   16.6302  -13.1180   18.7302 O   0  0  0  0  0  0  0  0  0  0  0  0
   16.1190  -16.5640   21.9992 O   0  0  0  0  0  0  0  0  0  0  0  0
  1  2  1  0
  3  2  1  0
  3  4  2  0
  5  3  1  0
  6  5  1  0
  6 10  1  0
  6  7  1  6
  8 12  1  0
  8  7  1  0
  9  8  2  0
 10 13  1  0
 11 10  2  0
 13 14  1  0
 14 18  1  0
 14 15  1  1
 16 15  1  0
 17 16  2  0
 18 21  2  0
 18 19  1  0
 20 16  1  0
M  END
$$$$
