GDD.pdb
     RDKit          3D

 21 20  0  0  1  0  0  0  0  0999 V2000
    8.1969  -12.5139   19.1098 N   0  0  0  0  0  0  0  0  0  0  0  0
    8.8644  -13.6339   18.5049 C   0  0  0  0  0  0  0  0  0  0  0  0
    8.6760  -14.8487   19.3519 C   0  0  0  0  0  0  0  0  0  0  0  0
    8.1882  -14.7231   20.4882 O   0  0  0  0  0  0  0  0  0  0  0  0
    9.0315  -16.1445   18.9128 N   0  0  0  0  0  0  0  0  0  0  0  0
    9.0150  -17.2478   19.8317 C   0  0  1  0  0  0  0  0  0  0  0  0
    8.5574  -18.5436   19.1906 C   0  0  0  0  0  0  0  0  0  0  0  0
    7.2312  -18.4642   18.5782 C   0  0  0  0  0  0  0  0  0  0  0  0
    6.1894  -18.1641   19.2081 O   0  0  0  0  0  0  0  0  0  0  0  0
   10.3666  -17.3837   20.4227 C   0  0  0  0  0  0  0  0  0  0  0  0
   10.9703  -18.4592   20.3371 O   0  0  0  0  0  0  0  0  0  0  0  0
    7.1166  -18.7344   17.2304 O   0  0  0  0  0  0  0  0  0  0  0  0
   11.0308  -16.3214   21.1022 N   0  0  0  0  0  0  0  0  0  0  0  0
   12.2897  -16.4666   21.7342 C   0  0  1  0  0  0  0  0  0  0  0  0
   13.2581  -15.3468   21.5242 C   0  0  0  0  0  0  0  0  0  0  0  0
   14.6049  -15.6210   22.0681 C   0  0  0  0  0  0  0  0  0  0  0  0
   14.9956  -16.7949   22.2451 O   0  0  0  0  0  0  0  0  0  0  0  0
   12.1216  -16.6318   23.2041 C   0  0  0  0  0  0  0  0  0  0  0  0
   12.9219  -17.4921   23.9249 O   0  0  0  0  0  0  0  0  0  0  0  0
   15.4609  -14.5869   22.3926 O   0  0  0  0  0  0  0  0  0  0  0  0
   11.2311  -15.9707   23.7911 O   0  0  0  0  0  0  0  0  0  0  0  0
  1  2  1  0
  3  2  1  0
  3  4  2  0
  5  3  1  0
  6  5  1  0
  6 10  1  0
  6  7  1  6
  8 12  1  0
  8  7  1  0
  9  8  2  0
 10 13  1  0
 11 10  2  0
 13 14  1  0
 14 18  1  0
 14 15  1  1
 16 15  1  0
 17 16  2  0
 18 21  2  0
 18 19  1  0
 20 16  1  0
M  END
$$$$
