GDD.pdb
     RDKit          3D

 21 20  0  0  1  0  0  0  0  0999 V2000
    6.7708  -12.6044   17.9342 N   0  0  0  0  0  0  0  0  0  0  0  0
    7.7284  -13.2875   17.1082 C   0  0  0  0  0  0  0  0  0  0  0  0
    8.4481  -14.3151   17.9176 C   0  0  0  0  0  0  0  0  0  0  0  0
    8.3070  -14.3187   19.1524 O   0  0  0  0  0  0  0  0  0  0  0  0
    9.2887  -15.2904   17.3343 N   0  0  0  0  0  0  0  0  0  0  0  0
    9.8467  -16.3385   18.1420 C   0  0  1  0  0  0  0  0  0  0  0  0
    9.4269  -17.7225   17.6861 C   0  0  0  0  0  0  0  0  0  0  0  0
    8.9515  -18.5830   18.7696 C   0  0  0  0  0  0  0  0  0  0  0  0
    9.6541  -18.9190   19.7522 O   0  0  0  0  0  0  0  0  0  0  0  0
   11.3209  -16.1927   18.1432 C   0  0  0  0  0  0  0  0  0  0  0  0
   11.9178  -15.9668   17.0843 O   0  0  0  0  0  0  0  0  0  0  0  0
    7.6561  -19.0534   18.7099 O   0  0  0  0  0  0  0  0  0  0  0  0
   12.1139  -16.3000   19.3226 N   0  0  0  0  0  0  0  0  0  0  0  0
   13.5249  -16.1788   19.3271 C   0  0  1  0  0  0  0  0  0  0  0  0
   14.0599  -14.7905   19.4762 C   0  0  0  0  0  0  0  0  0  0  0  0
   15.5273  -14.7034   19.3213 C   0  0  0  0  0  0  0  0  0  0  0  0
   16.2035  -15.7209   19.0577 O   0  0  0  0  0  0  0  0  0  0  0  0
   14.1170  -16.9972   20.4207 C   0  0  0  0  0  0  0  0  0  0  0  0
   15.4509  -17.3449   20.4138 O   0  0  0  0  0  0  0  0  0  0  0  0
   16.1835  -13.4966   19.4644 O   0  0  0  0  0  0  0  0  0  0  0  0
   13.3802  -17.3738   21.3639 O   0  0  0  0  0  0  0  0  0  0  0  0
  1  2  1  0
  3  2  1  0
  3  4  2  0
  5  3  1  0
  6  5  1  0
  6 10  1  0
  6  7  1  6
  8 12  1  0
  8  7  1  0
  9  8  2  0
 10 13  1  0
 11 10  2  0
 13 14  1  0
 14 18  1  0
 14 15  1  1
 16 15  1  0
 17 16  2  0
 18 21  2  0
 18 19  1  0
 20 16  1  0
M  END
$$$$
