GDD.pdb
     RDKit          3D

 21 20  0  0  1  0  0  0  0  0999 V2000
    4.4894  -25.9915   16.7628 N   0  0  0  0  0  0  0  0  0  0  0  0
    3.5812  -25.8285   17.8649 C   0  0  0  0  0  0  0  0  0  0  0  0
    4.1093  -24.7937   18.8025 C   0  0  0  0  0  0  0  0  0  0  0  0
    5.0603  -24.0799   18.4409 O   0  0  0  0  0  0  0  0  0  0  0  0
    3.5692  -24.5903   20.0929 N   0  0  0  0  0  0  0  0  0  0  0  0
    4.0761  -23.5395   20.9301 C   0  0  1  0  0  0  0  0  0  0  0  0
    2.9908  -22.8476   21.7319 C   0  0  0  0  0  0  0  0  0  0  0  0
    1.9815  -22.1812   20.9087 C   0  0  0  0  0  0  0  0  0  0  0  0
    0.7635  -22.4786   20.9224 O   0  0  0  0  0  0  0  0  0  0  0  0
    5.1216  -24.1083   21.8121 C   0  0  0  0  0  0  0  0  0  0  0  0
    4.8650  -25.0920   22.5155 O   0  0  0  0  0  0  0  0  0  0  0  0
    2.3899  -21.1667   20.0680 O   0  0  0  0  0  0  0  0  0  0  0  0
    6.4407  -23.5758   21.9012 N   0  0  0  0  0  0  0  0  0  0  0  0
    7.4624  -24.1524   22.6945 C   0  0  1  0  0  0  0  0  0  0  0  0
    8.8603  -23.9562   22.2013 C   0  0  0  0  0  0  0  0  0  0  0  0
    9.2510  -24.9081   21.1401 C   0  0  0  0  0  0  0  0  0  0  0  0
    8.8602  -26.0948   21.1706 O   0  0  0  0  0  0  0  0  0  0  0  0
    7.4087  -23.6212   24.0842 C   0  0  0  0  0  0  0  0  0  0  0  0
    7.3928  -24.4652   25.1739 O   0  0  0  0  0  0  0  0  0  0  0  0
   10.0561  -24.5075   20.0918 O   0  0  0  0  0  0  0  0  0  0  0  0
    7.3775  -22.3790   24.2582 O   0  0  0  0  0  0  0  0  0  0  0  0
  1  2  1  0
  3  2  1  0
  3  4  2  0
  5  3  1  0
  6  5  1  0
  6 10  1  0
  6  7  1  1
  8 12  1  0
  8  7  1  0
  9  8  2  0
 10 13  1  0
 11 10  2  0
 13 14  1  0
 14 18  1  0
 14 15  1  6
 16 15  1  0
 17 16  2  0
 18 21  2  0
 18 19  1  0
 20 16  1  0
M  END
$$$$
