GDD.pdb
     RDKit          3D

 21 20  0  0  1  0  0  0  0  0999 V2000
    8.0274  -12.2070   18.8181 N   0  0  0  0  0  0  0  0  0  0  0  0
    9.1831  -13.0487   18.6710 C   0  0  0  0  0  0  0  0  0  0  0  0
    9.1014  -14.1874   19.6330 C   0  0  0  0  0  0  0  0  0  0  0  0
    8.4436  -14.0489   20.6784 O   0  0  0  0  0  0  0  0  0  0  0  0
    9.7450  -15.4247   19.4031 N   0  0  0  0  0  0  0  0  0  0  0  0
    9.7284  -16.4456   20.4129 C   0  0  1  0  0  0  0  0  0  0  0  0
    9.0817  -17.7333   19.9404 C   0  0  0  0  0  0  0  0  0  0  0  0
    8.9726  -18.7564   20.9804 C   0  0  0  0  0  0  0  0  0  0  0  0
    8.9367  -18.5018   22.2076 O   0  0  0  0  0  0  0  0  0  0  0  0
   11.1191  -16.6738   20.8693 C   0  0  0  0  0  0  0  0  0  0  0  0
   11.8388  -17.4811   20.2703 O   0  0  0  0  0  0  0  0  0  0  0  0
    8.9051  -20.0783   20.5921 O   0  0  0  0  0  0  0  0  0  0  0  0
   11.6930  -16.0010   21.9871 N   0  0  0  0  0  0  0  0  0  0  0  0
   12.9515  -16.3415   22.5401 C   0  0  1  0  0  0  0  0  0  0  0  0
   13.9921  -15.2683   22.5032 C   0  0  0  0  0  0  0  0  0  0  0  0
   14.5681  -15.0502   21.1595 C   0  0  0  0  0  0  0  0  0  0  0  0
   14.4802  -15.9300   20.2762 O   0  0  0  0  0  0  0  0  0  0  0  0
   12.8030  -16.7602   23.9609 C   0  0  0  0  0  0  0  0  0  0  0  0
   13.8721  -17.2521   24.6786 O   0  0  0  0  0  0  0  0  0  0  0  0
   15.2157  -13.8702   20.8503 O   0  0  0  0  0  0  0  0  0  0  0  0
   11.6785  -16.6601   24.5087 O   0  0  0  0  0  0  0  0  0  0  0  0
  1  2  1  0
  3  2  1  0
  3  4  2  0
  5  3  1  0
  6  5  1  0
  6 10  1  0
  6  7  1  6
  8 12  1  0
  8  7  1  0
  9  8  2  0
 10 13  1  0
 11 10  2  0
 13 14  1  0
 14 18  1  0
 14 15  1  1
 16 15  1  0
 17 16  2  0
 18 21  2  0
 18 19  1  0
 20 16  1  0
M  END
$$$$
