GDD.pdb
     RDKit          3D

 21 20  0  0  1  0  0  0  0  0999 V2000
    6.4189  -17.2879   14.1332 N   0  0  0  0  0  0  0  0  0  0  0  0
    7.0692  -17.3380   12.8524 C   0  0  0  0  0  0  0  0  0  0  0  0
    8.5031  -17.7133   13.0311 C   0  0  0  0  0  0  0  0  0  0  0  0
    8.7838  -18.8637   13.4086 O   0  0  0  0  0  0  0  0  0  0  0  0
    9.5618  -16.8089   12.7872 N   0  0  0  0  0  0  0  0  0  0  0  0
   10.9249  -17.2488   12.8902 C   0  0  1  0  0  0  0  0  0  0  0  0
   11.8533  -16.5234   11.9355 C   0  0  0  0  0  0  0  0  0  0  0  0
   13.2251  -17.0315   11.9444 C   0  0  0  0  0  0  0  0  0  0  0  0
   14.2316  -16.3255   11.6977 O   0  0  0  0  0  0  0  0  0  0  0  0
   11.3621  -17.0894   14.2965 C   0  0  0  0  0  0  0  0  0  0  0  0
   11.9097  -16.0408   14.6557 O   0  0  0  0  0  0  0  0  0  0  0  0
   13.4267  -18.3635   12.2408 O   0  0  0  0  0  0  0  0  0  0  0  0
   11.1850  -18.0988   15.2871 N   0  0  0  0  0  0  0  0  0  0  0  0
   11.6160  -17.9587   16.6288 C   0  0  1  0  0  0  0  0  0  0  0  0
   10.8668  -18.7638   17.6421 C   0  0  0  0  0  0  0  0  0  0  0  0
   11.2940  -18.5067   19.0335 C   0  0  0  0  0  0  0  0  0  0  0  0
   11.5668  -17.3481   19.4145 O   0  0  0  0  0  0  0  0  0  0  0  0
   13.0543  -18.3206   16.7571 C   0  0  0  0  0  0  0  0  0  0  0  0
   13.5444  -19.5026   16.2444 O   0  0  0  0  0  0  0  0  0  0  0  0
   11.4012  -19.5405   19.9431 O   0  0  0  0  0  0  0  0  0  0  0  0
   13.8293  -17.5282   17.3452 O   0  0  0  0  0  0  0  0  0  0  0  0
  1  2  1  0
  3  2  1  0
  3  4  2  0
  5  3  1  0
  6  5  1  0
  6 10  1  0
  6  7  1  6
  8 12  1  0
  8  7  1  0
  9  8  2  0
 10 13  1  0
 11 10  2  0
 13 14  1  0
 14 18  1  0
 14 15  1  1
 16 15  1  0
 17 16  2  0
 18 21  2  0
 18 19  1  0
 20 16  1  0
M  END
$$$$
