GDD.pdb
     RDKit          3D

 21 20  0  0  1  0  0  0  0  0999 V2000
    6.8778  -13.0444   20.8122 N   0  0  0  0  0  0  0  0  0  0  0  0
    7.6819  -12.5559   19.7257 C   0  0  0  0  0  0  0  0  0  0  0  0
    8.5592  -13.6518   19.2174 C   0  0  0  0  0  0  0  0  0  0  0  0
    8.2617  -14.8312   19.4727 O   0  0  0  0  0  0  0  0  0  0  0  0
    9.7216  -13.4024   18.4528 N   0  0  0  0  0  0  0  0  0  0  0  0
   10.4633  -14.4954   17.8895 C   0  0  1  0  0  0  0  0  0  0  0  0
   10.8996  -14.2387   16.4600 C   0  0  0  0  0  0  0  0  0  0  0  0
   11.3194  -15.4438   15.7446 C   0  0  0  0  0  0  0  0  0  0  0  0
   11.1322  -15.6273   14.5184 O   0  0  0  0  0  0  0  0  0  0  0  0
   11.6231  -14.7747   18.7678 C   0  0  0  0  0  0  0  0  0  0  0  0
   12.3344  -15.7627   18.5523 O   0  0  0  0  0  0  0  0  0  0  0  0
   11.9585  -16.4373   16.4569 O   0  0  0  0  0  0  0  0  0  0  0  0
   11.9781  -13.9514   19.8757 N   0  0  0  0  0  0  0  0  0  0  0  0
   12.9571  -14.3122   20.8332 C   0  0  1  0  0  0  0  0  0  0  0  0
   12.5462  -15.3519   21.8264 C   0  0  0  0  0  0  0  0  0  0  0  0
   13.6240  -15.7316   22.7638 C   0  0  0  0  0  0  0  0  0  0  0  0
   14.7477  -15.1885   22.6992 O   0  0  0  0  0  0  0  0  0  0  0  0
   14.1885  -14.8100   20.1609 C   0  0  0  0  0  0  0  0  0  0  0  0
   15.3038  -14.0113   20.0254 O   0  0  0  0  0  0  0  0  0  0  0  0
   13.4135  -16.6944   23.7314 O   0  0  0  0  0  0  0  0  0  0  0  0
   14.2032  -15.9814   19.7113 O   0  0  0  0  0  0  0  0  0  0  0  0
  1  2  1  0
  3  2  1  0
  3  4  2  0
  5  3  1  0
  6  5  1  0
  6 10  1  0
  6  7  1  6
  8 12  1  0
  8  7  1  0
  9  8  2  0
 10 13  1  0
 11 10  2  0
 13 14  1  0
 14 18  1  0
 14 15  1  1
 16 15  1  0
 17 16  2  0
 18 21  2  0
 18 19  1  0
 20 16  1  0
M  END
$$$$
