GDD.pdb
     RDKit          3D

 21 20  0  0  1  0  0  0  0  0999 V2000
   10.1788  -18.5392   16.5202 N   0  0  0  0  0  0  0  0  0  0  0  0
    9.3595  -19.7183   16.5856 C   0  0  0  0  0  0  0  0  0  0  0  0
    8.7815  -19.8534   17.9555 C   0  0  0  0  0  0  0  0  0  0  0  0
    8.7241  -18.8511   18.6883 O   0  0  0  0  0  0  0  0  0  0  0  0
    8.2936  -21.0815   18.4572 N   0  0  0  0  0  0  0  0  0  0  0  0
    7.6332  -21.1293   19.7315 C   0  0  1  0  0  0  0  0  0  0  0  0
    6.3902  -21.9979   19.7203 C   0  0  0  0  0  0  0  0  0  0  0  0
    5.2579  -21.4005   19.0123 C   0  0  0  0  0  0  0  0  0  0  0  0
    4.4806  -20.5603   19.5240 O   0  0  0  0  0  0  0  0  0  0  0  0
    8.6084  -21.5925   20.7458 C   0  0  0  0  0  0  0  0  0  0  0  0
    9.2875  -22.6029   20.5303 O   0  0  0  0  0  0  0  0  0  0  0  0
    5.0295  -21.7812   17.7063 O   0  0  0  0  0  0  0  0  0  0  0  0
    8.8167  -20.9261   21.9884 N   0  0  0  0  0  0  0  0  0  0  0  0
    9.7795  -21.3375   22.9420 C   0  0  1  0  0  0  0  0  0  0  0  0
   10.9567  -20.4316   23.1131 C   0  0  0  0  0  0  0  0  0  0  0  0
   11.9583  -20.9399   24.0739 C   0  0  0  0  0  0  0  0  0  0  0  0
   12.4856  -22.0616   23.9137 O   0  0  0  0  0  0  0  0  0  0  0  0
    9.1523  -21.5001   24.2824 C   0  0  0  0  0  0  0  0  0  0  0  0
    9.7964  -22.1737   25.2980 O   0  0  0  0  0  0  0  0  0  0  0  0
   12.3334  -20.1873   25.1695 O   0  0  0  0  0  0  0  0  0  0  0  0
    8.0143  -21.0112   24.4832 O   0  0  0  0  0  0  0  0  0  0  0  0
  1  2  1  0
  3  2  1  0
  3  4  2  0
  5  3  1  0
  6  5  1  0
  6 10  1  0
  6  7  1  6
  8 12  1  0
  8  7  1  0
  9  8  2  0
 10 13  1  0
 11 10  2  0
 13 14  1  0
 14 18  1  0
 14 15  1  1
 16 15  1  0
 17 16  2  0
 18 21  2  0
 18 19  1  0
 20 16  1  0
M  END
$$$$
