GDD.pdb
     RDKit          3D

 21 20  0  0  1  0  0  0  0  0999 V2000
   10.6789  -17.3328   17.3367 N   0  0  0  0  0  0  0  0  0  0  0  0
   10.3711  -18.1118   18.5047 C   0  0  0  0  0  0  0  0  0  0  0  0
   10.6470  -17.3079   19.7321 C   0  0  0  0  0  0  0  0  0  0  0  0
   11.1635  -16.1836   19.6143 O   0  0  0  0  0  0  0  0  0  0  0  0
   10.3433  -17.7750   21.0312 N   0  0  0  0  0  0  0  0  0  0  0  0
   10.6081  -16.9489   22.1756 C   0  0  1  0  0  0  0  0  0  0  0  0
    9.3814  -16.7239   23.0382 C   0  0  0  0  0  0  0  0  0  0  0  0
    9.6320  -15.8957   24.2179 C   0  0  0  0  0  0  0  0  0  0  0  0
    9.4931  -14.6497   24.2371 O   0  0  0  0  0  0  0  0  0  0  0  0
   11.7100  -17.5644   22.9510 C   0  0  0  0  0  0  0  0  0  0  0  0
   11.7143  -18.7843   23.1522 O   0  0  0  0  0  0  0  0  0  0  0  0
   10.0451  -16.5182   25.3775 O   0  0  0  0  0  0  0  0  0  0  0  0
   12.7944  -16.8156   23.4938 N   0  0  0  0  0  0  0  0  0  0  0  0
   13.8428  -17.3965   24.2482 C   0  0  1  0  0  0  0  0  0  0  0  0
   15.0993  -16.5918   24.3462 C   0  0  0  0  0  0  0  0  0  0  0  0
   15.6670  -16.2211   23.0328 C   0  0  0  0  0  0  0  0  0  0  0  0
   15.7824  -17.0709   22.1237 O   0  0  0  0  0  0  0  0  0  0  0  0
   13.3928  -17.6788   25.6389 C   0  0  0  0  0  0  0  0  0  0  0  0
   14.2170  -18.3123   26.5442 O   0  0  0  0  0  0  0  0  0  0  0  0
   16.0823  -14.9282   22.7810 O   0  0  0  0  0  0  0  0  0  0  0  0
   12.2385  -17.3299   25.9858 O   0  0  0  0  0  0  0  0  0  0  0  0
  1  2  1  0
  3  2  1  0
  3  4  2  0
  5  3  1  0
  6  5  1  0
  6 10  1  0
  6  7  1  1
  8 12  1  0
  8  7  1  0
  9  8  2  0
 10 13  1  0
 11 10  2  0
 13 14  1  0
 14 18  1  0
 14 15  1  1
 16 15  1  0
 17 16  2  0
 18 21  2  0
 18 19  1  0
 20 16  1  0
M  END
$$$$
