SNH.pdb
     RDKit          3D

 25 25  0  0  1  0  0  0  0  0999 V2000
   15.5359  -10.4620  -14.7998 O   0  0  0  0  0  0  0  0  0  0  0  0
   16.5642  -11.4074  -14.5964 C   0  0  0  0  0  0  0  0  0  0  0  0
   17.3895  -11.4055  -15.8675 C   0  0  2  0  0  0  0  0  0  0  0  0
   17.5443  -12.7404  -16.3924 N   0  0  0  0  0  0  0  0  0  0  0  0
   18.6879  -10.7471  -15.6860 C   0  0  0  0  0  0  0  0  0  0  0  0
   19.5584  -11.3296  -14.9636 O   0  0  0  0  0  0  0  0  0  0  0  0
   23.4166   -8.9368  -16.7549 N   0  0  0  0  0  0  0  0  0  0  0  0
   22.3138   -8.1392  -17.1821 C   0  0  0  0  0  0  0  0  0  0  0  0
   22.4897   -6.9249  -17.3459 O   0  0  0  0  0  0  0  0  0  0  0  0
   21.0006   -8.7622  -17.4188 C   0  0  0  0  0  0  0  0  0  0  0  0
   20.2381   -8.8985  -16.1429 C   0  0  2  0  0  0  0  0  0  0  0  0
   18.9500   -9.4951  -16.3059 N   0  0  0  0  0  0  0  0  0  0  0  0
   20.1416   -7.5264  -15.5366 C   0  0  0  0  0  0  0  0  0  0  0  0
   19.3255   -6.6753  -15.9728 O   0  0  0  0  0  0  0  0  0  0  0  0
   20.9599   -7.1308  -14.4529 N   0  0  0  0  0  0  0  0  0  0  0  0
   20.8187   -5.7827  -13.8239 C   0  0  1  0  0  0  0  0  0  0  0  0
   20.6967   -6.0791  -12.3628 C   0  0  0  0  0  0  0  0  0  0  0  0
   19.3565   -6.0557  -11.7840 C   0  0  0  0  0  0  0  0  0  0  0  0
   18.1377   -5.7906  -12.3496 C   0  0  0  0  0  0  0  0  0  0  0  0
   17.1896   -5.9625  -11.3945 N   0  0  0  0  0  0  0  0  0  0  0  0
   17.8023   -6.3221  -10.2803 C   0  0  0  0  0  0  0  0  0  0  0  0
   19.1056   -6.3854  -10.4890 N   0  0  0  0  0  0  0  0  0  0  0  0
   22.1103   -5.0599  -14.0922 C   0  0  0  0  0  0  0  0  0  0  0  0
   22.1860   -3.6855  -13.8034 O   0  0  0  0  0  0  0  0  0  0  0  0
   23.0875   -5.6190  -14.5479 O   0  0  0  0  0  0  0  0  0  0  0  0
  1  2  1  0
  2  3  1  0
  3  5  1  0
  3  4  1  1
  5  6  2  0
  7  8  1  0
  8 10  1  0
  9  8  2  0
 11 10  1  6
 11 13  1  0
 12 11  1  0
 12  5  1  0
 13 15  1  0
 14 13  2  0
 15 16  1  0
 16 23  1  0
 16 17  1  1
 18 17  1  0
 19 18  2  0
 20 19  1  0
 21 20  1  0
 21 22  2  0
 22 18  1  0
 23 25  2  0
 23 24  1  0
M  END
$$$$
