SNH.pdb
     RDKit          3D

 25 25  0  0  1  0  0  0  0  0999 V2000
   14.3985  -14.5045    4.7558 O   0  0  0  0  0  0  0  0  0  0  0  0
   15.6399  -14.3947    5.4187 C   0  0  0  0  0  0  0  0  0  0  0  0
   16.6927  -14.3598    4.3290 C   0  0  2  0  0  0  0  0  0  0  0  0
   16.6946  -15.5834    3.5645 N   0  0  0  0  0  0  0  0  0  0  0  0
   18.0276  -14.0548    4.8556 C   0  0  0  0  0  0  0  0  0  0  0  0
   18.8874  -14.9922    4.8857 O   0  0  0  0  0  0  0  0  0  0  0  0
   22.0704  -11.9983    6.9623 N   0  0  0  0  0  0  0  0  0  0  0  0
   21.1851  -10.8872    6.8339 C   0  0  0  0  0  0  0  0  0  0  0  0
   21.6017   -9.7606    7.1333 O   0  0  0  0  0  0  0  0  0  0  0  0
   19.8081  -11.0926    6.3541 C   0  0  0  0  0  0  0  0  0  0  0  0
   19.5858  -12.5170    5.9674 C   0  0  2  0  0  0  0  0  0  0  0  0
   18.3354  -12.7452    5.3147 N   0  0  0  0  0  0  0  0  0  0  0  0
   19.7176  -13.3405    7.2180 C   0  0  0  0  0  0  0  0  0  0  0  0
   18.7486  -13.4945    8.0040 O   0  0  0  0  0  0  0  0  0  0  0  0
   20.9314  -13.9773    7.5670 N   0  0  0  0  0  0  0  0  0  0  0  0
   21.0151  -14.9031    8.7369 C   0  0  1  0  0  0  0  0  0  0  0  0
   21.6164  -16.1485    8.1672 C   0  0  0  0  0  0  0  0  0  0  0  0
   21.9036  -17.2389    9.0947 C   0  0  0  0  0  0  0  0  0  0  0  0
   21.2245  -17.6827   10.1981 C   0  0  0  0  0  0  0  0  0  0  0  0
   21.8768  -18.7711   10.6783 N   0  0  0  0  0  0  0  0  0  0  0  0
   22.9201  -18.9909    9.8977 C   0  0  0  0  0  0  0  0  0  0  0  0
   22.9578  -18.0832    8.9382 N   0  0  0  0  0  0  0  0  0  0  0  0
   21.9767  -14.2677    9.7036 C   0  0  0  0  0  0  0  0  0  0  0  0
   22.7695  -13.1948    9.2583 O   0  0  0  0  0  0  0  0  0  0  0  0
   22.0928  -14.6469   10.8515 O   0  0  0  0  0  0  0  0  0  0  0  0
  1  2  1  0
  2  3  1  0
  3  5  1  0
  3  4  1  1
  5  6  2  0
  7  8  1  0
  8 10  1  0
  9  8  2  0
 11 10  1  1
 11 13  1  0
 12 11  1  0
 12  5  1  0
 13 15  1  0
 14 13  2  0
 15 16  1  0
 16 23  1  0
 16 17  1  6
 18 17  1  0
 19 18  2  0
 20 19  1  0
 21 20  1  0
 21 22  2  0
 22 18  1  0
 23 25  2  0
 23 24  1  0
M  END
$$$$
