SNH.pdb
     RDKit          3D

 25 25  0  0  1  0  0  0  0  0999 V2000
   14.8560  -14.5769  -14.1168 O   0  0  0  0  0  0  0  0  0  0  0  0
   16.1379  -14.0306  -14.3420 C   0  0  0  0  0  0  0  0  0  0  0  0
   16.4159  -14.2152  -15.8203 C   0  0  2  0  0  0  0  0  0  0  0  0
   16.8752  -15.5534  -16.1030 N   0  0  0  0  0  0  0  0  0  0  0  0
   17.3469  -13.2079  -16.3408 C   0  0  0  0  0  0  0  0  0  0  0  0
   18.4374  -13.6113  -16.8573 O   0  0  0  0  0  0  0  0  0  0  0  0
   19.3876   -9.2141  -18.4409 N   0  0  0  0  0  0  0  0  0  0  0  0
   18.0993   -8.7427  -18.0497 C   0  0  0  0  0  0  0  0  0  0  0  0
   17.7283   -7.6319  -18.4509 O   0  0  0  0  0  0  0  0  0  0  0  0
   17.2411   -9.5717  -17.1866 C   0  0  0  0  0  0  0  0  0  0  0  0
   17.8977  -10.8761  -16.8780 C   0  0  2  0  0  0  0  0  0  0  0  0
   17.0251  -11.8255  -16.2625 N   0  0  0  0  0  0  0  0  0  0  0  0
   19.0910  -10.5773  -16.0140 C   0  0  0  0  0  0  0  0  0  0  0  0
   18.9781  -10.4384  -14.7696 O   0  0  0  0  0  0  0  0  0  0  0  0
   20.3893  -10.4391  -16.5577 N   0  0  0  0  0  0  0  0  0  0  0  0
   21.5913  -10.3169  -15.6783 C   0  0  1  0  0  0  0  0  0  0  0  0
   22.7367  -10.6195  -16.5914 C   0  0  0  0  0  0  0  0  0  0  0  0
   24.0830  -10.5014  -16.0393 C   0  0  0  0  0  0  0  0  0  0  0  0
   24.5133  -10.3026  -14.7544 C   0  0  0  0  0  0  0  0  0  0  0  0
   25.8697  -10.3306  -14.7607 N   0  0  0  0  0  0  0  0  0  0  0  0
   26.2614  -10.5404  -16.0052 C   0  0  0  0  0  0  0  0  0  0  0  0
   25.2056  -10.6468  -16.7926 N   0  0  0  0  0  0  0  0  0  0  0  0
   21.6482   -8.8768  -15.2476 C   0  0  0  0  0  0  0  0  0  0  0  0
   21.1141   -7.8961  -16.1025 O   0  0  0  0  0  0  0  0  0  0  0  0
   22.1375   -8.5315  -14.1909 O   0  0  0  0  0  0  0  0  0  0  0  0
  1  2  1  0
  2  3  1  0
  3  5  1  0
  3  4  1  1
  5  6  2  0
  7  8  1  0
  8 10  1  0
  9  8  2  0
 11 10  1  1
 11 13  1  0
 12 11  1  0
 12  5  1  0
 13 15  1  0
 14 13  2  0
 15 16  1  0
 16 23  1  0
 16 17  1  6
 18 17  1  0
 19 18  2  0
 20 19  1  0
 21 20  1  0
 21 22  2  0
 22 18  1  0
 23 25  2  0
 23 24  1  0
M  END
$$$$
