SNH.pdb
     RDKit          3D

 25 25  0  0  1  0  0  0  0  0999 V2000
   25.4698  -22.1067  -15.8424 O   0  0  0  0  0  0  0  0  0  0  0  0
   26.1009  -21.2699  -16.7880 C   0  0  0  0  0  0  0  0  0  0  0  0
   26.3359  -19.9486  -16.0840 C   0  0  2  0  0  0  0  0  0  0  0  0
   27.2061  -20.1105  -14.9447 N   0  0  0  0  0  0  0  0  0  0  0  0
   25.0809  -19.2871  -15.7101 C   0  0  0  0  0  0  0  0  0  0  0  0
   24.8754  -19.0469  -14.4777 O   0  0  0  0  0  0  0  0  0  0  0  0
   23.5229  -16.3954  -19.4040 N   0  0  0  0  0  0  0  0  0  0  0  0
   23.1826  -16.4078  -18.0187 C   0  0  0  0  0  0  0  0  0  0  0  0
   23.6227  -15.5068  -17.2929 O   0  0  0  0  0  0  0  0  0  0  0  0
   22.3250  -17.4765  -17.4791 C   0  0  0  0  0  0  0  0  0  0  0  0
   22.9882  -18.1632  -16.3317 C   0  0  2  0  0  0  0  0  0  0  0  0
   24.1327  -18.9316  -16.7076 N   0  0  0  0  0  0  0  0  0  0  0  0
   21.9448  -19.0128  -15.6617 C   0  0  0  0  0  0  0  0  0  0  0  0
   21.8628  -20.2467  -15.8885 O   0  0  0  0  0  0  0  0  0  0  0  0
   21.0117  -18.4669  -14.7498 N   0  0  0  0  0  0  0  0  0  0  0  0
   20.0303  -19.3335  -14.0295 C   0  0  1  0  0  0  0  0  0  0  0  0
   19.4927  -18.4477  -12.9509 C   0  0  0  0  0  0  0  0  0  0  0  0
   18.3188  -18.9176  -12.2210 C   0  0  0  0  0  0  0  0  0  0  0  0
   17.6472  -20.1101  -12.2710 C   0  0  0  0  0  0  0  0  0  0  0  0
   16.6571  -20.0692  -11.3443 N   0  0  0  0  0  0  0  0  0  0  0  0
   16.7172  -18.8937  -10.7438 C   0  0  0  0  0  0  0  0  0  0  0  0
   17.7082  -18.1833  -11.2531 N   0  0  0  0  0  0  0  0  0  0  0  0
   18.9440  -19.6470  -15.0217 C   0  0  0  0  0  0  0  0  0  0  0  0
   18.3369  -18.5842  -15.7145 O   0  0  0  0  0  0  0  0  0  0  0  0
   18.5733  -20.7817  -15.2454 O   0  0  0  0  0  0  0  0  0  0  0  0
  1  2  1  0
  2  3  1  0
  3  5  1  0
  3  4  1  1
  5  6  2  0
  7  8  1  0
  8 10  1  0
  9  8  2  0
 11 10  1  6
 11 13  1  0
 12 11  1  0
 12  5  1  0
 13 15  1  0
 14 13  2  0
 15 16  1  0
 16 23  1  0
 16 17  1  1
 18 17  1  0
 19 18  2  0
 20 19  1  0
 21 20  1  0
 21 22  2  0
 22 18  1  0
 23 25  2  0
 23 24  1  0
M  END
$$$$
