SNH.pdb
     RDKit          3D

 25 25  0  0  1  0  0  0  0  0999 V2000
   16.9677  -11.5879  -16.2540 O   0  0  0  0  0  0  0  0  0  0  0  0
   17.9744  -10.7853  -15.6754 C   0  0  0  0  0  0  0  0  0  0  0  0
   19.2745  -11.2142  -16.3253 C   0  0  2  0  0  0  0  0  0  0  0  0
   19.6625  -12.5360  -15.8964 N   0  0  0  0  0  0  0  0  0  0  0  0
   20.3518  -10.2424  -16.1076 C   0  0  0  0  0  0  0  0  0  0  0  0
   20.7432  -10.0405  -14.9140 O   0  0  0  0  0  0  0  0  0  0  0  0
   23.9998  -10.2132  -19.4134 N   0  0  0  0  0  0  0  0  0  0  0  0
   23.8713   -9.4534  -18.2129 C   0  0  0  0  0  0  0  0  0  0  0  0
   24.6161   -9.7202  -17.2608 O   0  0  0  0  0  0  0  0  0  0  0  0
   22.8692   -8.3780  -18.1241 C   0  0  0  0  0  0  0  0  0  0  0  0
   21.9584   -8.5935  -16.9614 C   0  0  2  0  0  0  0  0  0  0  0  0
   20.9307   -9.5548  -17.2089 N   0  0  0  0  0  0  0  0  0  0  0  0
   21.3872   -7.2528  -16.5925 C   0  0  0  0  0  0  0  0  0  0  0  0
   20.4184   -6.7594  -17.2238 O   0  0  0  0  0  0  0  0  0  0  0  0
   21.9102   -6.4880  -15.5239 N   0  0  0  0  0  0  0  0  0  0  0  0
   21.2222   -5.2516  -15.0433 C   0  0  1  0  0  0  0  0  0  0  0  0
   19.9668   -5.7621  -14.4103 C   0  0  0  0  0  0  0  0  0  0  0  0
   18.7507   -5.7357  -15.2176 C   0  0  0  0  0  0  0  0  0  0  0  0
   18.5404   -5.3461  -16.5136 C   0  0  0  0  0  0  0  0  0  0  0  0
   17.2369   -5.5762  -16.8110 N   0  0  0  0  0  0  0  0  0  0  0  0
   16.6644   -6.0906  -15.7368 C   0  0  0  0  0  0  0  0  0  0  0  0
   17.5540   -6.1966  -14.7655 N   0  0  0  0  0  0  0  0  0  0  0  0
   22.1190   -4.6572  -13.9921 C   0  0  0  0  0  0  0  0  0  0  0  0
   23.2751   -5.3636  -13.6146 O   0  0  0  0  0  0  0  0  0  0  0  0
   21.8814   -3.5921  -13.4591 O   0  0  0  0  0  0  0  0  0  0  0  0
  1  2  1  0
  2  3  1  0
  3  5  1  0
  3  4  1  1
  5  6  2  0
  7  8  1  0
  8 10  1  0
  9  8  2  0
 11 10  1  6
 11 13  1  0
 12 11  1  0
 12  5  1  0
 13 15  1  0
 14 13  2  0
 15 16  1  0
 16 23  1  0
 16 17  1  1
 18 17  1  0
 19 18  2  0
 20 19  1  0
 21 20  1  0
 21 22  2  0
 22 18  1  0
 23 25  2  0
 23 24  1  0
M  END
$$$$
