SNH.pdb
     RDKit          3D

 25 25  0  0  1  0  0  0  0  0999 V2000
   28.7259  -33.4545   -4.1154 O   0  0  0  0  0  0  0  0  0  0  0  0
   28.5519  -33.7181   -2.7397 C   0  0  0  0  0  0  0  0  0  0  0  0
   29.7201  -34.5932   -2.3319 C   0  0  2  0  0  0  0  0  0  0  0  0
   29.4622  -35.9814   -2.6284 N   0  0  0  0  0  0  0  0  0  0  0  0
   30.0904  -34.4056   -0.9247 C   0  0  0  0  0  0  0  0  0  0  0  0
   29.3903  -34.9915   -0.0386 O   0  0  0  0  0  0  0  0  0  0  0  0
   33.8574  -33.4050    3.1309 N   0  0  0  0  0  0  0  0  0  0  0  0
   33.0288  -32.4510    2.4689 C   0  0  0  0  0  0  0  0  0  0  0  0
   32.5581  -31.5160    3.1297 O   0  0  0  0  0  0  0  0  0  0  0  0
   32.7490  -32.5894    1.0297 C   0  0  0  0  0  0  0  0  0  0  0  0
   31.5131  -33.3950    0.8026 C   0  0  2  0  0  0  0  0  0  0  0  0
   31.2017  -33.5897   -0.5782 N   0  0  0  0  0  0  0  0  0  0  0  0
   30.3947  -32.7044    1.5319 C   0  0  0  0  0  0  0  0  0  0  0  0
   29.7256  -31.7903    0.9866 O   0  0  0  0  0  0  0  0  0  0  0  0
   30.0449  -33.0487    2.8583 N   0  0  0  0  0  0  0  0  0  0  0  0
   28.9435  -32.3423    3.5800 C   0  0  1  0  0  0  0  0  0  0  0  0
   27.7054  -32.7833    2.8660 C   0  0  0  0  0  0  0  0  0  0  0  0
   26.4234  -32.4560    3.4833 C   0  0  0  0  0  0  0  0  0  0  0  0
   26.1230  -31.6966    4.5826 C   0  0  0  0  0  0  0  0  0  0  0  0
   24.7722  -31.6524    4.7014 N   0  0  0  0  0  0  0  0  0  0  0  0
   24.2584  -32.3586    3.7096 C   0  0  0  0  0  0  0  0  0  0  0  0
   25.2310  -32.8517    2.9633 N   0  0  0  0  0  0  0  0  0  0  0  0
   28.9463  -32.8879    4.9818 C   0  0  0  0  0  0  0  0  0  0  0  0
   29.9192  -33.8412    5.3320 O   0  0  0  0  0  0  0  0  0  0  0  0
   28.1408  -32.5358    5.8198 O   0  0  0  0  0  0  0  0  0  0  0  0
  1  2  1  0
  2  3  1  0
  3  5  1  0
  3  4  1  1
  5  6  2  0
  7  8  1  0
  8 10  1  0
  9  8  2  0
 11 10  1  6
 11 13  1  0
 12 11  1  0
 12  5  1  0
 13 15  1  0
 14 13  2  0
 15 16  1  0
 16 23  1  0
 16 17  1  6
 18 17  1  0
 19 18  2  0
 20 19  1  0
 21 20  1  0
 21 22  2  0
 22 18  1  0
 23 25  2  0
 23 24  1  0
M  END
$$$$
