SNH.pdb
     RDKit          3D

 25 25  0  0  1  0  0  0  0  0999 V2000
   21.3729  -13.9090  -17.4734 O   0  0  0  0  0  0  0  0  0  0  0  0
   20.6821  -12.7556  -17.0434 C   0  0  0  0  0  0  0  0  0  0  0  0
   21.6307  -11.5946  -17.2651 C   0  0  2  0  0  0  0  0  0  0  0  0
   22.9850  -11.9525  -16.9196 N   0  0  0  0  0  0  0  0  0  0  0  0
   21.2001  -10.3826  -16.5596 C   0  0  0  0  0  0  0  0  0  0  0  0
   19.9882  -10.0159  -16.6849 O   0  0  0  0  0  0  0  0  0  0  0  0
   22.3812   -5.6934  -13.2593 N   0  0  0  0  0  0  0  0  0  0  0  0
   21.7300   -6.9618  -13.2140 C   0  0  0  0  0  0  0  0  0  0  0  0
   20.6450   -7.0496  -12.6245 O   0  0  0  0  0  0  0  0  0  0  0  0
   22.3483   -8.1320  -13.8596 C   0  0  0  0  0  0  0  0  0  0  0  0
   21.7020   -8.4184  -15.1742 C   0  0  2  0  0  0  0  0  0  0  0  0
   22.1223   -9.6505  -15.7632 N   0  0  0  0  0  0  0  0  0  0  0  0
   21.9885   -7.2476  -16.0724 C   0  0  0  0  0  0  0  0  0  0  0  0
   22.9972   -7.2312  -16.8227 O   0  0  0  0  0  0  0  0  0  0  0  0
   21.1414   -6.1158  -16.1152 N   0  0  0  0  0  0  0  0  0  0  0  0
   21.3978   -4.9883  -17.0618 C   0  0  1  0  0  0  0  0  0  0  0  0
   20.9339   -5.5155  -18.3824 C   0  0  0  0  0  0  0  0  0  0  0  0
   20.9630   -4.5981  -19.5177 C   0  0  0  0  0  0  0  0  0  0  0  0
   21.5063   -3.3478  -19.6493 C   0  0  0  0  0  0  0  0  0  0  0  0
   21.3160   -2.9441  -20.9305 N   0  0  0  0  0  0  0  0  0  0  0  0
   20.6792   -3.9119  -21.5662 C   0  0  0  0  0  0  0  0  0  0  0  0
   20.4559   -4.9172  -20.7383 N   0  0  0  0  0  0  0  0  0  0  0  0
   20.5048   -3.8614  -16.6196 C   0  0  0  0  0  0  0  0  0  0  0  0
   20.9321   -2.5388  -16.8350 O   0  0  0  0  0  0  0  0  0  0  0  0
   19.4312   -4.0520  -16.0849 O   0  0  0  0  0  0  0  0  0  0  0  0
  1  2  1  0
  2  3  1  0
  3  5  1  0
  3  4  1  1
  5  6  2  0
  7  8  1  0
  8 10  1  0
  9  8  2  0
 11 10  1  1
 11 13  1  0
 12 11  1  0
 12  5  1  0
 13 15  1  0
 14 13  2  0
 15 16  1  0
 16 23  1  0
 16 17  1  6
 18 17  1  0
 19 18  2  0
 20 19  1  0
 21 20  1  0
 21 22  2  0
 22 18  1  0
 23 25  2  0
 23 24  1  0
M  END
$$$$
