QPQ.pdb
     RDKit          3D

 26 26  0  0  1  0  0  0  0  0999 V2000
   22.3152  -14.5223  -20.1986 N   0  0  0  0  0  0  0  0  0  0  0  0
   23.3121  -15.5232  -20.0830 C   0  0  0  0  0  0  0  0  0  0  0  0
   23.2083  -16.5217  -20.8572 O   0  0  0  0  0  0  0  0  0  0  0  0
   24.4335  -15.4355  -19.1143 C   0  0  0  0  0  0  0  0  0  0  0  0
   24.3024  -14.1587  -18.3469 C   0  0  0  0  0  0  0  0  0  0  0  0
   25.4304  -14.0004  -17.3187 C   0  0  2  0  0  0  0  0  0  0  0  0
   25.5766  -15.1445  -16.4974 N   0  0  0  0  0  0  0  0  0  0  0  0
   25.3027  -12.7037  -16.6478 C   0  0  0  0  0  0  0  0  0  0  0  0
   24.5704  -12.7639  -15.5931 O   0  0  0  0  0  0  0  0  0  0  0  0
   25.8846  -11.4728  -17.0453 N   0  0  0  0  0  0  0  0  0  0  0  0
   26.7070  -11.0920  -18.1568 C   0  0  0  0  0  0  0  0  0  0  0  0
   27.8286  -10.3048  -17.5152 C   0  0  0  0  0  0  0  0  0  0  0  0
   27.1289   -9.6752  -16.3377 C   0  0  0  0  0  0  0  0  0  0  0  0
   25.7252  -10.2389  -16.3013 C   0  0  1  0  0  0  0  0  0  0  0  0
   24.7675   -9.3083  -16.9213 C   0  0  0  0  0  0  0  0  0  0  0  0
   24.5049   -9.2354  -18.1350 O   0  0  0  0  0  0  0  0  0  0  0  0
   20.0267   -9.5901  -13.7264 N   0  0  0  0  0  0  0  0  0  0  0  0
   19.3990   -8.6695  -14.6094 C   0  0  0  0  0  0  0  0  0  0  0  0
   18.1834   -8.4249  -14.5561 O   0  0  0  0  0  0  0  0  0  0  0  0
   20.3190   -8.0116  -15.6162 C   0  0  0  0  0  0  0  0  0  0  0  0
   21.7227   -8.5219  -15.4244 C   0  0  0  0  0  0  0  0  0  0  0  0
   22.7111   -7.9826  -16.3863 C   0  0  2  0  0  0  0  0  0  0  0  0
   24.0793   -8.4116  -16.0613 N   0  0  0  0  0  0  0  0  0  0  0  0
   22.6807   -6.5099  -16.4232 C   0  0  0  0  0  0  0  0  0  0  0  0
   21.7623   -5.9265  -17.0978 O   0  0  0  0  0  0  0  0  0  0  0  0
   23.5779   -5.6813  -15.7762 O   0  0  0  0  0  0  0  0  0  0  0  0
  2  1  1  0
  3  2  2  0
  4  2  1  0
  5  4  1  0
  6  5  1  0
  6  7  1  1
  8 10  1  0
  8  6  1  0
  9  8  2  0
 10 14  1  0
 11 12  1  0
 11 10  1  0
 12 13  1  0
 13 14  1  0
 14 15  1  6
 15 16  2  0
 18 17  1  0
 18 19  2  0
 20 21  1  0
 20 18  1  0
 22 21  1  1
 22 24  1  0
 22 23  1  0
 23 15  1  0
 24 26  1  0
 25 24  2  0
M  END
$$$$
