QPQ.pdb
     RDKit          3D

 26 26  0  0  1  0  0  0  0  0999 V2000
   21.5065  -20.6762  -18.8071 N   0  0  0  0  0  0  0  0  0  0  0  0
   21.6550  -21.6773  -17.8147 C   0  0  0  0  0  0  0  0  0  0  0  0
   21.2082  -22.8295  -18.0976 O   0  0  0  0  0  0  0  0  0  0  0  0
   22.2967  -21.4206  -16.5010 C   0  0  0  0  0  0  0  0  0  0  0  0
   22.5856  -19.9576  -16.3888 C   0  0  0  0  0  0  0  0  0  0  0  0
   23.1749  -19.6028  -15.0171 C   0  0  2  0  0  0  0  0  0  0  0  0
   22.5310  -20.2889  -13.9591 N   0  0  0  0  0  0  0  0  0  0  0  0
   23.2963  -18.1471  -14.8983 C   0  0  0  0  0  0  0  0  0  0  0  0
   22.3714  -17.6329  -14.1687 O   0  0  0  0  0  0  0  0  0  0  0  0
   24.2871  -17.3196  -15.4857 N   0  0  0  0  0  0  0  0  0  0  0  0
   25.3785  -17.5814  -16.3785 C   0  0  0  0  0  0  0  0  0  0  0  0
   26.5453  -16.8678  -15.7316 C   0  0  0  0  0  0  0  0  0  0  0  0
   25.8622  -15.6996  -15.0674 C   0  0  0  0  0  0  0  0  0  0  0  0
   24.3728  -15.8912  -15.2532 C   0  0  1  0  0  0  0  0  0  0  0  0
   23.8753  -15.0895  -16.3833 C   0  0  0  0  0  0  0  0  0  0  0  0
   23.8746  -15.4367  -17.5777 O   0  0  0  0  0  0  0  0  0  0  0  0
   19.8942  -10.6686  -14.8546 N   0  0  0  0  0  0  0  0  0  0  0  0
   19.5890  -10.6529  -16.2430 C   0  0  0  0  0  0  0  0  0  0  0  0
   18.7175   -9.9095  -16.7208 O   0  0  0  0  0  0  0  0  0  0  0  0
   20.4021  -11.6062  -17.0931 C   0  0  0  0  0  0  0  0  0  0  0  0
   21.4552  -12.2662  -16.2428 C   0  0  0  0  0  0  0  0  0  0  0  0
   22.3422  -13.1993  -16.9745 C   0  0  2  0  0  0  0  0  0  0  0  0
   23.3481  -13.8039  -16.0889 N   0  0  0  0  0  0  0  0  0  0  0  0
   23.0415  -12.5237  -18.0814 C   0  0  0  0  0  0  0  0  0  0  0  0
   24.2740  -12.2101  -17.9353 O   0  0  0  0  0  0  0  0  0  0  0  0
   22.4705  -12.1912  -19.2954 O   0  0  0  0  0  0  0  0  0  0  0  0
  2  1  1  0
  3  2  2  0
  4  2  1  0
  5  4  1  0
  6  5  1  0
  6  7  1  1
  8 10  1  0
  8  6  1  0
  9  8  2  0
 10 14  1  0
 11 12  1  0
 11 10  1  0
 12 13  1  0
 13 14  1  0
 14 15  1  6
 15 16  2  0
 18 17  1  0
 18 19  2  0
 20 21  1  0
 20 18  1  0
 22 21  1  1
 22 24  1  0
 22 23  1  0
 23 15  1  0
 24 26  1  0
 25 24  2  0
M  END
$$$$
