QPQ.pdb
     RDKit          3D

 26 26  0  0  1  0  0  0  0  0999 V2000
   25.1259  -22.7329  -13.9530 N   0  0  0  0  0  0  0  0  0  0  0  0
   24.0041  -22.7900  -13.0885 C   0  0  0  0  0  0  0  0  0  0  0  0
   22.8895  -23.0757  -13.6208 O   0  0  0  0  0  0  0  0  0  0  0  0
   24.0974  -22.5333  -11.6294 C   0  0  0  0  0  0  0  0  0  0  0  0
   25.5258  -22.2560  -11.2841 C   0  0  0  0  0  0  0  0  0  0  0  0
   25.7155  -20.8188  -10.7808 C   0  0  2  0  0  0  0  0  0  0  0  0
   24.7028  -20.4270   -9.8722 N   0  0  0  0  0  0  0  0  0  0  0  0
   25.9771  -19.9325  -11.9184 C   0  0  0  0  0  0  0  0  0  0  0  0
   25.1546  -18.9464  -11.9748 O   0  0  0  0  0  0  0  0  0  0  0  0
   26.9972  -20.0698  -12.8941 N   0  0  0  0  0  0  0  0  0  0  0  0
   28.0315  -21.0418  -13.0997 C   0  0  0  0  0  0  0  0  0  0  0  0
   29.2692  -20.2010  -13.3245 C   0  0  0  0  0  0  0  0  0  0  0  0
   28.6942  -18.9792  -13.9947 C   0  0  0  0  0  0  0  0  0  0  0  0
   27.1890  -19.1331  -13.9838 C   0  0  1  0  0  0  0  0  0  0  0  0
   26.7019  -19.6412  -15.2769 C   0  0  0  0  0  0  0  0  0  0  0  0
   26.7828  -20.8172  -15.6741 O   0  0  0  0  0  0  0  0  0  0  0  0
   21.4022  -20.2060  -15.9942 N   0  0  0  0  0  0  0  0  0  0  0  0
   21.8073  -18.9580  -15.4470 C   0  0  0  0  0  0  0  0  0  0  0  0
   21.0514  -18.2652  -14.7479 O   0  0  0  0  0  0  0  0  0  0  0  0
   23.2237  -18.5375  -15.7787 C   0  0  0  0  0  0  0  0  0  0  0  0
   23.8561  -19.5647  -16.6801 C   0  0  0  0  0  0  0  0  0  0  0  0
   25.1830  -19.1820  -17.2146 C   0  0  2  0  0  0  0  0  0  0  0  0
   26.0836  -18.7096  -16.1527 N   0  0  0  0  0  0  0  0  0  0  0  0
   25.0698  -18.1246  -18.2344 C   0  0  0  0  0  0  0  0  0  0  0  0
   25.5773  -16.9745  -17.9926 O   0  0  0  0  0  0  0  0  0  0  0  0
   24.4499  -18.2687  -19.4613 O   0  0  0  0  0  0  0  0  0  0  0  0
  2  1  1  0
  3  2  2  0
  4  2  1  0
  5  4  1  0
  6  5  1  0
  6  7  1  6
  8 10  1  0
  8  6  1  0
  9  8  2  0
 10 14  1  0
 11 12  1  0
 11 10  1  0
 12 13  1  0
 13 14  1  0
 14 15  1  6
 15 16  2  0
 18 17  1  0
 18 19  2  0
 20 21  1  0
 20 18  1  0
 22 21  1  1
 22 24  1  0
 22 23  1  0
 23 15  1  0
 24 26  1  0
 25 24  2  0
M  END
$$$$
