QPQ.pdb
     RDKit          3D

 26 26  0  0  1  0  0  0  0  0999 V2000
   25.0693  -24.5455  -14.4025 N   0  0  0  0  0  0  0  0  0  0  0  0
   24.0300  -23.6033  -14.1999 C   0  0  0  0  0  0  0  0  0  0  0  0
   22.9121  -23.8649  -14.7377 O   0  0  0  0  0  0  0  0  0  0  0  0
   24.2101  -22.3638  -13.4033 C   0  0  0  0  0  0  0  0  0  0  0  0
   25.5659  -22.3944  -12.7729 C   0  0  0  0  0  0  0  0  0  0  0  0
   25.8218  -21.1415  -11.9247 C   0  0  2  0  0  0  0  0  0  0  0  0
   25.1219  -21.1705  -10.6943 N   0  0  0  0  0  0  0  0  0  0  0  0
   25.6662  -19.9461  -12.7582 C   0  0  0  0  0  0  0  0  0  0  0  0
   24.7447  -19.1606  -12.3270 O   0  0  0  0  0  0  0  0  0  0  0  0
   26.4032  -19.6126  -13.9232 N   0  0  0  0  0  0  0  0  0  0  0  0
   27.4291  -20.2909  -14.6608 C   0  0  0  0  0  0  0  0  0  0  0  0
   28.4855  -19.2262  -14.8608 C   0  0  0  0  0  0  0  0  0  0  0  0
   27.6494  -17.9747  -14.9452 C   0  0  0  0  0  0  0  0  0  0  0  0
   26.2193  -18.3750  -14.6554 C   0  0  1  0  0  0  0  0  0  0  0  0
   25.4574  -18.5479  -15.9032 C   0  0  0  0  0  0  0  0  0  0  0  0
   25.6813  -19.4006  -16.7807 O   0  0  0  0  0  0  0  0  0  0  0  0
   19.5799  -18.5929  -16.0596 N   0  0  0  0  0  0  0  0  0  0  0  0
   20.5155  -19.1180  -15.1269 C   0  0  0  0  0  0  0  0  0  0  0  0
   20.1608  -19.7157  -14.0986 O   0  0  0  0  0  0  0  0  0  0  0  0
   21.9714  -18.8954  -15.4786 C   0  0  0  0  0  0  0  0  0  0  0  0
   22.0661  -18.1548  -16.7863 C   0  0  0  0  0  0  0  0  0  0  0  0
   23.4487  -17.9020  -17.2526 C   0  0  2  0  0  0  0  0  0  0  0  0
   24.3684  -17.6647  -16.1302 N   0  0  0  0  0  0  0  0  0  0  0  0
   23.5095  -16.7416  -18.1584 C   0  0  0  0  0  0  0  0  0  0  0  0
   24.1333  -15.6907  -17.7772 O   0  0  0  0  0  0  0  0  0  0  0  0
   22.9395  -16.6862  -19.4163 O   0  0  0  0  0  0  0  0  0  0  0  0
  2  1  1  0
  3  2  2  0
  4  2  1  0
  5  4  1  0
  6  5  1  0
  6  7  1  1
  8 10  1  0
  8  6  1  0
  9  8  2  0
 10 14  1  0
 11 12  1  0
 11 10  1  0
 12 13  1  0
 13 14  1  0
 14 15  1  6
 15 16  2  0
 18 17  1  0
 18 19  2  0
 20 21  1  0
 20 18  1  0
 22 21  1  1
 22 24  1  0
 22 23  1  0
 23 15  1  0
 24 26  1  0
 25 24  2  0
M  END
$$$$
