QPQ.pdb
     RDKit          3D

 26 26  0  0  1  0  0  0  0  0999 V2000
   14.5937  -13.4193  -13.3869 N   0  0  0  0  0  0  0  0  0  0  0  0
   14.3702  -14.3740  -14.4104 C   0  0  0  0  0  0  0  0  0  0  0  0
   13.7722  -15.4399  -14.0735 O   0  0  0  0  0  0  0  0  0  0  0  0
   14.8024  -14.1655  -15.8152 C   0  0  0  0  0  0  0  0  0  0  0  0
   15.4512  -12.8222  -15.9204 C   0  0  0  0  0  0  0  0  0  0  0  0
   16.0497  -12.5928  -17.3147 C   0  0  2  0  0  0  0  0  0  0  0  0
   16.9381  -13.6266  -17.6975 N   0  0  0  0  0  0  0  0  0  0  0  0
   16.5385  -11.2149  -17.4167 C   0  0  0  0  0  0  0  0  0  0  0  0
   17.7579  -11.1525  -17.8181 O   0  0  0  0  0  0  0  0  0  0  0  0
   15.8192  -10.0274  -17.1267 N   0  0  0  0  0  0  0  0  0  0  0  0
   14.5139   -9.7801  -16.5864 C   0  0  0  0  0  0  0  0  0  0  0  0
   13.9273   -8.7540  -17.5309 C   0  0  0  0  0  0  0  0  0  0  0  0
   15.1551   -7.9905  -17.9576 C   0  0  0  0  0  0  0  0  0  0  0  0
   16.3498   -8.6980  -17.3564 C   0  0  1  0  0  0  0  0  0  0  0  0
   16.7916   -8.0293  -16.1214 C   0  0  0  0  0  0  0  0  0  0  0  0
   16.3069   -8.1987  -14.9884 O   0  0  0  0  0  0  0  0  0  0  0  0
   21.3834   -8.0415  -12.3592 N   0  0  0  0  0  0  0  0  0  0  0  0
   21.7478   -7.6295  -13.6701 C   0  0  0  0  0  0  0  0  0  0  0  0
   22.6085   -8.2259  -14.3362 O   0  0  0  0  0  0  0  0  0  0  0  0
   21.0113   -6.4138  -14.1923 C   0  0  0  0  0  0  0  0  0  0  0  0
   20.1256   -6.8167  -15.3415 C   0  0  0  0  0  0  0  0  0  0  0  0
   18.6754   -6.7786  -15.0444 C   0  0  2  0  0  0  0  0  0  0  0  0
   17.8669   -7.1075  -16.2276 N   0  0  0  0  0  0  0  0  0  0  0  0
   18.2601   -5.4544  -14.5495 C   0  0  0  0  0  0  0  0  0  0  0  0
   17.7646   -4.6120  -15.3763 O   0  0  0  0  0  0  0  0  0  0  0  0
   18.3592   -5.0308  -13.2376 O   0  0  0  0  0  0  0  0  0  0  0  0
  2  1  1  0
  3  2  2  0
  4  2  1  0
  5  4  1  0
  6  5  1  0
  6  7  1  1
  8 10  1  0
  8  6  1  0
  9  8  2  0
 10 14  1  0
 11 12  1  0
 11 10  1  0
 12 13  1  0
 13 14  1  0
 14 15  1  1
 15 16  2  0
 18 17  1  0
 18 19  2  0
 20 21  1  0
 20 18  1  0
 22 21  1  6
 22 24  1  0
 22 23  1  0
 23 15  1  0
 24 26  1  0
 25 24  2  0
M  END
$$$$
