QPQ.pdb
     RDKit          3D

 26 26  0  0  1  0  0  0  0  0999 V2000
   22.5253  -20.8583  -13.9524 N   0  0  0  0  0  0  0  0  0  0  0  0
   22.0879  -21.4376  -12.7350 C   0  0  0  0  0  0  0  0  0  0  0  0
   20.8445  -21.3836  -12.4936 O   0  0  0  0  0  0  0  0  0  0  0  0
   23.0144  -22.0823  -11.7708 C   0  0  0  0  0  0  0  0  0  0  0  0
   24.4032  -22.0073  -12.3205 C   0  0  0  0  0  0  0  0  0  0  0  0
   25.2023  -20.8648  -11.6797 C   0  0  2  0  0  0  0  0  0  0  0  0
   24.5921  -20.3748  -10.4998 N   0  0  0  0  0  0  0  0  0  0  0  0
   25.5628  -19.8835  -12.7069 C   0  0  0  0  0  0  0  0  0  0  0  0
   24.7965  -18.8517  -12.6941 O   0  0  0  0  0  0  0  0  0  0  0  0
   26.6190  -19.9785  -13.6488 N   0  0  0  0  0  0  0  0  0  0  0  0
   27.5429  -21.0234  -13.9823 C   0  0  0  0  0  0  0  0  0  0  0  0
   28.8824  -20.3200  -14.0021 C   0  0  0  0  0  0  0  0  0  0  0  0
   28.4979  -18.9381  -14.4661 C   0  0  0  0  0  0  0  0  0  0  0  0
   26.9873  -18.8999  -14.5446 C   0  0  1  0  0  0  0  0  0  0  0  0
   26.5260  -19.1117  -15.9266 C   0  0  0  0  0  0  0  0  0  0  0  0
   27.0660  -19.8503  -16.7692 O   0  0  0  0  0  0  0  0  0  0  0  0
   23.1778  -22.6444  -17.1636 N   0  0  0  0  0  0  0  0  0  0  0  0
   22.0298  -21.9199  -16.7416 C   0  0  0  0  0  0  0  0  0  0  0  0
   20.8911  -22.4131  -16.7627 O   0  0  0  0  0  0  0  0  0  0  0  0
   22.2971  -20.5073  -16.2662 C   0  0  0  0  0  0  0  0  0  0  0  0
   23.7828  -20.2727  -16.1945 C   0  0  0  0  0  0  0  0  0  0  0  0
   24.2665  -19.1331  -17.0070 C   0  0  2  0  0  0  0  0  0  0  0  0
   25.3607  -18.4125  -16.3397 N   0  0  0  0  0  0  0  0  0  0  0  0
   23.1838  -18.1756  -17.2927 C   0  0  0  0  0  0  0  0  0  0  0  0
   22.6477  -18.1761  -18.4553 O   0  0  0  0  0  0  0  0  0  0  0  0
   22.6815  -17.2542  -16.3933 O   0  0  0  0  0  0  0  0  0  0  0  0
  2  1  1  0
  3  2  2  0
  4  2  1  0
  5  4  1  0
  6  5  1  0
  6  7  1  1
  8 10  1  0
  8  6  1  0
  9  8  2  0
 10 14  1  0
 11 12  1  0
 11 10  1  0
 12 13  1  0
 13 14  1  0
 14 15  1  6
 15 16  2  0
 18 17  1  0
 18 19  2  0
 20 21  1  0
 20 18  1  0
 22 21  1  1
 22 24  1  0
 22 23  1  0
 23 15  1  0
 24 26  1  0
 25 24  2  0
M  END
$$$$
