QPQ.pdb
     RDKit          3D

 26 26  0  0  1  0  0  0  0  0999 V2000
   17.6661  -18.3009  -12.8857 N   0  0  0  0  0  0  0  0  0  0  0  0
   18.6162  -17.9812  -13.8878 C   0  0  0  0  0  0  0  0  0  0  0  0
   18.3604  -16.9736  -14.6135 O   0  0  0  0  0  0  0  0  0  0  0  0
   19.8574  -18.7669  -14.1014 C   0  0  0  0  0  0  0  0  0  0  0  0
   19.8910  -19.8851  -13.1089 C   0  0  0  0  0  0  0  0  0  0  0  0
   21.3109  -20.4396  -12.9322 C   0  0  2  0  0  0  0  0  0  0  0  0
   21.8716  -20.8865  -14.1531 N   0  0  0  0  0  0  0  0  0  0  0  0
   21.3352  -21.3710  -11.8009 C   0  0  0  0  0  0  0  0  0  0  0  0
   21.4521  -22.5959  -12.1728 O   0  0  0  0  0  0  0  0  0  0  0  0
   21.2458  -21.0473  -10.4230 N   0  0  0  0  0  0  0  0  0  0  0  0
   21.0428  -19.8153   -9.7175 C   0  0  0  0  0  0  0  0  0  0  0  0
   22.1162  -19.8356   -8.6514 C   0  0  0  0  0  0  0  0  0  0  0  0
   22.2425  -21.3110   -8.3693 C   0  0  0  0  0  0  0  0  0  0  0  0
   21.3586  -22.0311   -9.3642 C   0  0  1  0  0  0  0  0  0  0  0  0
   20.0630  -22.3828   -8.7600 C   0  0  0  0  0  0  0  0  0  0  0  0
   19.0443  -21.6691   -8.7550 O   0  0  0  0  0  0  0  0  0  0  0  0
   18.6156  -28.2626   -8.5410 N   0  0  0  0  0  0  0  0  0  0  0  0
   17.3630  -27.8115   -8.0423 C   0  0  0  0  0  0  0  0  0  0  0  0
   16.4201  -28.5877   -7.8214 O   0  0  0  0  0  0  0  0  0  0  0  0
   17.2640  -26.3198   -7.8015 C   0  0  0  0  0  0  0  0  0  0  0  0
   18.6009  -25.6777   -8.0618 C   0  0  0  0  0  0  0  0  0  0  0  0
   18.6406  -24.2173   -7.8196 C   0  0  2  0  0  0  0  0  0  0  0  0
   19.9619  -23.6492   -8.1246 N   0  0  0  0  0  0  0  0  0  0  0  0
   18.3047  -23.8923   -6.4224 C   0  0  0  0  0  0  0  0  0  0  0  0
   19.2537  -23.7429   -5.5762 O   0  0  0  0  0  0  0  0  0  0  0  0
   17.0229  -23.7286   -5.9319 O   0  0  0  0  0  0  0  0  0  0  0  0
  2  1  1  0
  3  2  2  0
  4  2  1  0
  5  4  1  0
  6  5  1  0
  6  7  1  6
  8 10  1  0
  8  6  1  0
  9  8  2  0
 10 14  1  0
 11 12  1  0
 11 10  1  0
 12 13  1  0
 13 14  1  0
 14 15  1  1
 15 16  2  0
 18 17  1  0
 18 19  2  0
 20 21  1  0
 20 18  1  0
 22 21  1  1
 22 24  1  0
 22 23  1  0
 23 15  1  0
 24 26  1  0
 25 24  2  0
M  END
$$$$
