QWN.pdb
     RDKit          3D

 32 33  0  0  1  0  0  0  0  0999 V2000
   25.9606  -22.7903  -18.7540 N   0  0  0  0  0  0  0  0  0  0  0  0
   27.1938  -22.4001  -18.1691 C   0  0  0  0  0  0  0  0  0  0  0  0
   27.7145  -21.3095  -18.4579 O   0  0  0  0  0  0  0  0  0  0  0  0
   27.8485  -23.3065  -17.2126 C   0  0  0  0  0  0  0  0  0  0  0  0
   27.2733  -23.2489  -15.8406 C   0  0  0  0  0  0  0  0  0  0  0  0
   27.3904  -21.8814  -15.1991 C   0  0  2  0  0  0  0  0  0  0  0  0
   28.8114  -21.5373  -15.0256 N   0  0  0  0  0  0  0  0  0  0  0  0
   26.7887  -21.9966  -13.8451 C   0  0  0  0  0  0  0  0  0  0  0  0
   26.5545  -23.1152  -13.3827 O   0  0  0  0  0  0  0  0  0  0  0  0
   26.4995  -20.8168  -13.1219 N   0  0  0  0  0  0  0  0  0  0  0  0
   25.7112  -20.8330  -11.8843 C   0  0  1  0  0  0  0  0  0  0  0  0
   26.2690  -19.8725  -10.9005 C   0  0  0  0  0  0  0  0  0  0  0  0
   27.4786  -20.3607  -10.2452 C   0  0  0  0  0  0  0  0  0  0  0  0
   28.5530  -20.9468  -10.8706 C   0  0  0  0  0  0  0  0  0  0  0  0
   29.4327  -21.2816   -9.9347 N   0  0  0  0  0  0  0  0  0  0  0  0
   28.9685  -20.9323   -8.7059 C   0  0  0  0  0  0  0  0  0  0  0  0
   29.5176  -21.0738   -7.4335 C   0  0  0  0  0  0  0  0  0  0  0  0
   28.7860  -20.6122   -6.3672 C   0  0  0  0  0  0  0  0  0  0  0  0
   27.5486  -20.0236   -6.5054 C   0  0  0  0  0  0  0  0  0  0  0  0
   27.0358  -19.8998   -7.7774 C   0  0  0  0  0  0  0  0  0  0  0  0
   27.7467  -20.3539   -8.8735 C   0  0  0  0  0  0  0  0  0  0  0  0
   24.3099  -20.6704  -12.2822 C   0  0  0  0  0  0  0  0  0  0  0  0
   23.8775  -19.5167  -12.6623 O   0  0  0  0  0  0  0  0  0  0  0  0
   19.4658  -20.3734  -11.3774 N   0  0  0  0  0  0  0  0  0  0  0  0
   20.5814  -19.5199  -11.0570 C   0  0  0  0  0  0  0  0  0  0  0  0
   20.4061  -18.4037  -10.5432 O   0  0  0  0  0  0  0  0  0  0  0  0
   21.9081  -20.0338  -11.3658 C   0  0  0  0  0  0  0  0  0  0  0  0
   21.8849  -21.3666  -12.0320 C   0  0  2  0  0  0  0  0  0  0  0  0
   23.3120  -21.6732  -12.3112 N   0  0  0  0  0  0  0  0  0  0  0  0
   21.1434  -21.3322  -13.3007 C   0  0  0  0  0  0  0  0  0  0  0  0
   19.7787  -21.2210  -13.3448 O   0  0  0  0  0  0  0  0  0  0  0  0
   21.7356  -21.4059  -14.4220 O   0  0  0  0  0  0  0  0  0  0  0  0
  1  2  1  0
  2  3  2  0
  4  2  1  0
  4  5  1  0
  6  5  1  0
  6  7  1  1
  8  6  1  0
  8  9  2  0
 10  8  1  0
 11 10  1  0
 11 12  1  1
 13 12  1  0
 13 14  2  0
 15 14  1  0
 16 21  2  0
 16 15  1  0
 17 16  1  0
 18 17  2  0
 19 18  1  0
 19 20  2  0
 20 21  1  0
 21 13  1  0
 22 11  1  0
 23 22  2  0
 25 26  2  0
 25 24  1  0
 27 25  1  0
 28 27  1  6
 28 29  1  0
 29 22  1  0
 30 28  1  0
 31 30  1  0
 32 30  2  0
M  END
$$$$
