QWN.pdb
     RDKit          3D

 32 33  0  0  1  0  0  0  0  0999 V2000
   28.0054  -23.2811  -20.1178 N   0  0  0  0  0  0  0  0  0  0  0  0
   29.3430  -22.9180  -19.8115 C   0  0  0  0  0  0  0  0  0  0  0  0
   30.1514  -22.6562  -20.7182 O   0  0  0  0  0  0  0  0  0  0  0  0
   29.7604  -22.8547  -18.4020 C   0  0  0  0  0  0  0  0  0  0  0  0
   28.6625  -23.1391  -17.4374 C   0  0  0  0  0  0  0  0  0  0  0  0
   27.8681  -21.9073  -17.0542 C   0  0  2  0  0  0  0  0  0  0  0  0
   28.7604  -20.7368  -17.0144 N   0  0  0  0  0  0  0  0  0  0  0  0
   27.3701  -22.1383  -15.6731 C   0  0  0  0  0  0  0  0  0  0  0  0
   27.2304  -23.2943  -15.2681 O   0  0  0  0  0  0  0  0  0  0  0  0
   27.0685  -21.0227  -14.8587 N   0  0  0  0  0  0  0  0  0  0  0  0
   26.5126  -21.1691  -13.5085 C   0  0  1  0  0  0  0  0  0  0  0  0
   27.3154  -20.3954  -12.5296 C   0  0  0  0  0  0  0  0  0  0  0  0
   26.7240  -20.3709  -11.1951 C   0  0  0  0  0  0  0  0  0  0  0  0
   25.3899  -20.2076  -10.9082 C   0  0  0  0  0  0  0  0  0  0  0  0
   25.2570  -20.2083   -9.5875 N   0  0  0  0  0  0  0  0  0  0  0  0
   26.4687  -20.3679   -8.9928 C   0  0  0  0  0  0  0  0  0  0  0  0
   26.8415  -20.4307   -7.6519 C   0  0  0  0  0  0  0  0  0  0  0  0
   28.1739  -20.5997   -7.3668 C   0  0  0  0  0  0  0  0  0  0  0  0
   29.1415  -20.7077   -8.3409 C   0  0  0  0  0  0  0  0  0  0  0  0
   28.7379  -20.6413   -9.6558 C   0  0  0  0  0  0  0  0  0  0  0  0
   27.4035  -20.4718   -9.9780 C   0  0  0  0  0  0  0  0  0  0  0  0
   25.0821  -20.8668  -13.6132 C   0  0  0  0  0  0  0  0  0  0  0  0
   24.6958  -19.7440  -14.1157 O   0  0  0  0  0  0  0  0  0  0  0  0
   19.8087  -23.3579  -14.5937 N   0  0  0  0  0  0  0  0  0  0  0  0
   20.6417  -22.1849  -14.6692 C   0  0  0  0  0  0  0  0  0  0  0  0
   20.1680  -21.0834  -14.9902 O   0  0  0  0  0  0  0  0  0  0  0  0
   22.0516  -22.3621  -14.3520 C   0  0  0  0  0  0  0  0  0  0  0  0
   22.5908  -21.3070  -13.4484 C   0  0  2  0  0  0  0  0  0  0  0  0
   24.0063  -21.6962  -13.2171 N   0  0  0  0  0  0  0  0  0  0  0  0
   21.8842  -21.2756  -12.1598 C   0  0  0  0  0  0  0  0  0  0  0  0
   20.7436  -20.5406  -11.9714 O   0  0  0  0  0  0  0  0  0  0  0  0
   22.3005  -21.9305  -11.1542 O   0  0  0  0  0  0  0  0  0  0  0  0
  1  2  1  0
  2  3  2  0
  4  2  1  0
  4  5  1  0
  6  5  1  0
  6  7  1  1
  8  6  1  0
  8  9  2  0
 10  8  1  0
 11 10  1  0
 11 12  1  1
 13 12  1  0
 13 14  2  0
 15 14  1  0
 16 21  2  0
 16 15  1  0
 17 16  1  0
 18 17  2  0
 19 18  1  0
 19 20  2  0
 20 21  1  0
 21 13  1  0
 22 11  1  0
 23 22  2  0
 25 26  2  0
 25 24  1  0
 27 25  1  0
 28 27  1  6
 28 29  1  0
 29 22  1  0
 30 28  1  0
 31 30  1  0
 32 30  2  0
M  END
$$$$
