QWN.pdb
     RDKit          3D

 32 33  0  0  1  0  0  0  0  0999 V2000
   31.0826  -23.1991  -15.0063 N   0  0  0  0  0  0  0  0  0  0  0  0
   30.7871  -22.8357  -16.3463 C   0  0  0  0  0  0  0  0  0  0  0  0
   31.6949  -22.7276  -17.1879 O   0  0  0  0  0  0  0  0  0  0  0  0
   29.3873  -22.5892  -16.7268 C   0  0  0  0  0  0  0  0  0  0  0  0
   28.4267  -22.7156  -15.5964 C   0  0  0  0  0  0  0  0  0  0  0  0
   27.7154  -21.4191  -15.2671 C   0  0  2  0  0  0  0  0  0  0  0  0
   28.7022  -20.4021  -14.8675 N   0  0  0  0  0  0  0  0  0  0  0  0
   26.8552  -21.6966  -14.0874 C   0  0  0  0  0  0  0  0  0  0  0  0
   26.2983  -22.7924  -13.9919 O   0  0  0  0  0  0  0  0  0  0  0  0
   26.6976  -20.6934  -13.1039 N   0  0  0  0  0  0  0  0  0  0  0  0
   25.7843  -20.8517  -11.9663 C   0  0  1  0  0  0  0  0  0  0  0  0
   26.1987  -19.9769  -10.8418 C   0  0  0  0  0  0  0  0  0  0  0  0
   27.3643  -20.4817  -10.1223 C   0  0  0  0  0  0  0  0  0  0  0  0
   28.4020  -21.1968  -10.6708 C   0  0  0  0  0  0  0  0  0  0  0  0
   29.2461  -21.4999   -9.6923 N   0  0  0  0  0  0  0  0  0  0  0  0
   28.7941  -21.0041   -8.5103 C   0  0  0  0  0  0  0  0  0  0  0  0
   29.3182  -21.0607   -7.2208 C   0  0  0  0  0  0  0  0  0  0  0  0
   28.6089  -20.4507   -6.2158 C   0  0  0  0  0  0  0  0  0  0  0  0
   27.4170  -19.7949   -6.4305 C   0  0  0  0  0  0  0  0  0  0  0  0
   26.9279  -19.7583   -7.7172 C   0  0  0  0  0  0  0  0  0  0  0  0
   27.6173  -20.3624   -8.7530 C   0  0  0  0  0  0  0  0  0  0  0  0
   24.4276  -20.6892  -12.4971 C   0  0  0  0  0  0  0  0  0  0  0  0
   24.1198  -19.6310  -13.1663 O   0  0  0  0  0  0  0  0  0  0  0  0
   19.4754  -21.2199  -13.8526 N   0  0  0  0  0  0  0  0  0  0  0  0
   19.9809  -22.5384  -13.5664 C   0  0  0  0  0  0  0  0  0  0  0  0
   19.2876  -23.5476  -13.7702 O   0  0  0  0  0  0  0  0  0  0  0  0
   21.3327  -22.6189  -13.0318 C   0  0  0  0  0  0  0  0  0  0  0  0
   22.0001  -21.2920  -12.9111 C   0  0  2  0  0  0  0  0  0  0  0  0
   23.3498  -21.5969  -12.3688 N   0  0  0  0  0  0  0  0  0  0  0  0
   21.2941  -20.4069  -11.9736 C   0  0  0  0  0  0  0  0  0  0  0  0
   20.2863  -19.5717  -12.3779 O   0  0  0  0  0  0  0  0  0  0  0  0
   21.5875  -20.3730  -10.7382 O   0  0  0  0  0  0  0  0  0  0  0  0
  1  2  1  0
  2  3  2  0
  4  2  1  0
  4  5  1  0
  6  5  1  0
  6  7  1  1
  8  6  1  0
  8  9  2  0
 10  8  1  0
 11 10  1  0
 11 12  1  1
 13 12  1  0
 13 14  2  0
 15 14  1  0
 16 21  2  0
 16 15  1  0
 17 16  1  0
 18 17  2  0
 19 18  1  0
 19 20  2  0
 20 21  1  0
 21 13  1  0
 22 11  1  0
 23 22  2  0
 25 26  2  0
 25 24  1  0
 27 25  1  0
 28 27  1  1
 28 29  1  0
 29 22  1  0
 30 28  1  0
 31 30  1  0
 32 30  2  0
M  END
$$$$
