QWN.pdb
     RDKit          3D

 32 33  0  0  1  0  0  0  0  0999 V2000
   20.2821  -22.0391   -9.9756 N   0  0  0  0  0  0  0  0  0  0  0  0
   19.7943  -21.9049  -11.3019 C   0  0  0  0  0  0  0  0  0  0  0  0
   19.1146  -22.8065  -11.8208 O   0  0  0  0  0  0  0  0  0  0  0  0
   20.1043  -20.6799  -12.0558 C   0  0  0  0  0  0  0  0  0  0  0  0
   21.5225  -20.2432  -11.9349 C   0  0  0  0  0  0  0  0  0  0  0  0
   22.4278  -20.8500  -12.9873 C   0  0  2  0  0  0  0  0  0  0  0  0
   22.4809  -22.3107  -12.8104 N   0  0  0  0  0  0  0  0  0  0  0  0
   23.7913  -20.3176  -12.7300 C   0  0  0  0  0  0  0  0  0  0  0  0
   23.9791  -19.0996  -12.7641 O   0  0  0  0  0  0  0  0  0  0  0  0
   24.8394  -21.2249  -12.4529 N   0  0  0  0  0  0  0  0  0  0  0  0
   26.2440  -20.8033  -12.4013 C   0  0  1  0  0  0  0  0  0  0  0  0
   26.9482  -21.4782  -11.2833 C   0  0  0  0  0  0  0  0  0  0  0  0
   26.7151  -20.8407   -9.9909 C   0  0  0  0  0  0  0  0  0  0  0  0
   25.5659  -20.1908   -9.6089 C   0  0  0  0  0  0  0  0  0  0  0  0
   25.7554  -19.7215   -8.3818 N   0  0  0  0  0  0  0  0  0  0  0  0
   27.0003  -20.0437   -7.9417 C   0  0  0  0  0  0  0  0  0  0  0  0
   27.6559  -19.7790   -6.7413 C   0  0  0  0  0  0  0  0  0  0  0  0
   28.9385  -20.2475   -6.5974 C   0  0  0  0  0  0  0  0  0  0  0  0
   29.5918  -20.9584   -7.5795 C   0  0  0  0  0  0  0  0  0  0  0  0
   28.9142  -21.2020   -8.7532 C   0  0  0  0  0  0  0  0  0  0  0  0
   27.6212  -20.7445   -8.9310 C   0  0  0  0  0  0  0  0  0  0  0  0
   26.7802  -20.9782  -13.7542 C   0  0  0  0  0  0  0  0  0  0  0  0
   27.1416  -22.1481  -14.1580 O   0  0  0  0  0  0  0  0  0  0  0  0
   24.2147  -21.1931  -16.9698 N   0  0  0  0  0  0  0  0  0  0  0  0
   25.6394  -21.3771  -17.0797 C   0  0  0  0  0  0  0  0  0  0  0  0
   26.1300  -22.5096  -17.2107 O   0  0  0  0  0  0  0  0  0  0  0  0
   26.4600  -20.1755  -17.0291 C   0  0  0  0  0  0  0  0  0  0  0  0
   27.5814  -20.2669  -16.0521 C   0  0  2  0  0  0  0  0  0  0  0  0
   26.9585  -19.9739  -14.7350 N   0  0  0  0  0  0  0  0  0  0  0  0
   28.6264  -19.2691  -16.3223 C   0  0  0  0  0  0  0  0  0  0  0  0
   29.8457  -19.6131  -16.8434 O   0  0  0  0  0  0  0  0  0  0  0  0
   28.4481  -18.0344  -16.0828 O   0  0  0  0  0  0  0  0  0  0  0  0
  1  2  1  0
  2  3  2  0
  4  2  1  0
  4  5  1  0
  6  5  1  0
  6  7  1  1
  8  6  1  0
  8  9  2  0
 10  8  1  0
 11 10  1  0
 11 12  1  1
 13 12  1  0
 13 14  2  0
 15 14  1  0
 16 21  2  0
 16 15  1  0
 17 16  1  0
 18 17  2  0
 19 18  1  0
 19 20  2  0
 20 21  1  0
 21 13  1  0
 22 11  1  0
 23 22  2  0
 25 26  2  0
 25 24  1  0
 27 25  1  0
 28 27  1  6
 28 29  1  0
 29 22  1  0
 30 28  1  0
 31 30  1  0
 32 30  2  0
M  END
$$$$
