QWN.pdb
     RDKit          3D

 32 33  0  0  1  0  0  0  0  0999 V2000
   18.7832  -16.4932  -15.0677 N   0  0  0  0  0  0  0  0  0  0  0  0
   18.2674  -16.4323  -16.3887 C   0  0  0  0  0  0  0  0  0  0  0  0
   17.5419  -17.3407  -16.8276 O   0  0  0  0  0  0  0  0  0  0  0  0
   18.6035  -15.2754  -17.2335 C   0  0  0  0  0  0  0  0  0  0  0  0
   19.3350  -14.1977  -16.5123 C   0  0  0  0  0  0  0  0  0  0  0  0
   20.5604  -13.7053  -17.2548 C   0  0  2  0  0  0  0  0  0  0  0  0
   21.5807  -14.7664  -17.2823 N   0  0  0  0  0  0  0  0  0  0  0  0
   21.1100  -12.5755  -16.4609 C   0  0  0  0  0  0  0  0  0  0  0  0
   21.6591  -12.8080  -15.3818 O   0  0  0  0  0  0  0  0  0  0  0  0
   20.9875  -11.2607  -16.9657 N   0  0  0  0  0  0  0  0  0  0  0  0
   21.6609  -10.1176  -16.3387 C   0  0  1  0  0  0  0  0  0  0  0  0
   22.5949   -9.4758  -17.2963 C   0  0  0  0  0  0  0  0  0  0  0  0
   23.8364  -10.2228  -17.4744 C   0  0  0  0  0  0  0  0  0  0  0  0
   24.1611  -10.9981  -18.5618 C   0  0  0  0  0  0  0  0  0  0  0  0
   25.3531  -11.5358  -18.3339 N   0  0  0  0  0  0  0  0  0  0  0  0
   25.8258  -11.1366  -17.1238 C   0  0  0  0  0  0  0  0  0  0  0  0
   27.0098  -11.4276  -16.4497 C   0  0  0  0  0  0  0  0  0  0  0  0
   27.1979  -10.8585  -15.2145 C   0  0  0  0  0  0  0  0  0  0  0  0
   26.2748  -10.0235  -14.6250 C   0  0  0  0  0  0  0  0  0  0  0  0
   25.1157   -9.7573  -15.3191 C   0  0  0  0  0  0  0  0  0  0  0  0
   24.8945  -10.3140  -16.5658 C   0  0  0  0  0  0  0  0  0  0  0  0
   20.6071   -9.2874  -15.7481 C   0  0  0  0  0  0  0  0  0  0  0  0
   19.5399   -9.0248  -16.4222 O   0  0  0  0  0  0  0  0  0  0  0  0
   17.9452   -7.8747  -10.6035 N   0  0  0  0  0  0  0  0  0  0  0  0
   17.9654   -7.7827  -12.0412 C   0  0  0  0  0  0  0  0  0  0  0  0
   17.1249   -7.1024  -12.6507 O   0  0  0  0  0  0  0  0  0  0  0  0
   19.0133   -8.5230  -12.7294 C   0  0  0  0  0  0  0  0  0  0  0  0
   19.4788   -7.8618  -13.9812 C   0  0  2  0  0  0  0  0  0  0  0  0
   20.6045   -8.7070  -14.4576 N   0  0  0  0  0  0  0  0  0  0  0  0
   19.9725   -6.5001  -13.7306 C   0  0  0  0  0  0  0  0  0  0  0  0
   19.1325   -5.4688  -13.4029 O   0  0  0  0  0  0  0  0  0  0  0  0
   21.2075   -6.2132  -13.8081 O   0  0  0  0  0  0  0  0  0  0  0  0
  1  2  1  0
  2  3  2  0
  4  2  1  0
  4  5  1  0
  6  5  1  0
  6  7  1  1
  8  6  1  0
  8  9  2  0
 10  8  1  0
 11 10  1  0
 11 12  1  6
 13 12  1  0
 13 14  2  0
 15 14  1  0
 16 21  2  0
 16 15  1  0
 17 16  1  0
 18 17  2  0
 19 18  1  0
 19 20  2  0
 20 21  1  0
 21 13  1  0
 22 11  1  0
 23 22  2  0
 25 26  2  0
 25 24  1  0
 27 25  1  0
 28 27  1  1
 28 29  1  0
 29 22  1  0
 30 28  1  0
 31 30  1  0
 32 30  2  0
M  END
$$$$
