DQD.pdb
     RDKit          3D

 26 25  0  0  1  0  0  0  0  0999 V2000
   10.0945  -18.7984   18.3256 N   0  0  0  0  0  0  0  0  0  0  0  0
   11.4390  -18.3560   18.5314 C   0  0  1  0  0  0  0  0  0  0  0  0
   11.9874  -17.7784   17.2432 C   0  0  0  0  0  0  0  0  0  0  0  0
   10.9046  -17.7826   16.2330 C   0  0  0  0  0  0  0  0  0  0  0  0
   10.9367  -17.0434   15.2186 O   0  0  0  0  0  0  0  0  0  0  0  0
   11.4519  -17.3684   19.6334 C   0  0  0  0  0  0  0  0  0  0  0  0
   12.4701  -16.7084   19.9684 O   0  0  0  0  0  0  0  0  0  0  0  0
    9.7924  -18.6159   16.3660 O   0  0  0  0  0  0  0  0  0  0  0  0
    6.7825  -13.7778   21.0155 N   0  0  0  0  0  0  0  0  0  0  0  0
    7.6684  -13.9583   19.9249 C   0  0  0  0  0  0  0  0  0  0  0  0
    7.3755  -13.4222   18.8311 O   0  0  0  0  0  0  0  0  0  0  0  0
    8.8935  -14.7516   20.0758 C   0  0  0  0  0  0  0  0  0  0  0  0
    9.0071  -15.3661   21.4516 C   0  0  0  0  0  0  0  0  0  0  0  0
   10.2152  -16.2796   21.5484 C   0  0  2  0  0  0  0  0  0  0  0  0
   10.2576  -17.1305   20.3749 N   0  0  0  0  0  0  0  0  0  0  0  0
   10.1644  -17.0807   22.7910 C   0  0  0  0  0  0  0  0  0  0  0  0
    9.4742  -18.1310   22.8425 O   0  0  0  0  0  0  0  0  0  0  0  0
   10.8937  -16.6720   23.9365 N   0  0  0  0  0  0  0  0  0  0  0  0
   10.8544  -17.5023   25.1421 C   0  0  1  0  0  0  0  0  0  0  0  0
   12.2790  -17.8758   25.4785 C   0  0  0  0  0  0  0  0  0  0  0  0
   12.3406  -18.6485   26.7255 C   0  0  0  0  0  0  0  0  0  0  0  0
   11.3954  -19.4179   27.0301 O   0  0  0  0  0  0  0  0  0  0  0  0
   10.2326  -16.7518   26.2455 C   0  0  0  0  0  0  0  0  0  0  0  0
    9.9762  -15.5291   26.2314 O   0  0  0  0  0  0  0  0  0  0  0  0
   13.4107  -18.5738   27.6065 O   0  0  0  0  0  0  0  0  0  0  0  0
    9.8852  -17.4301   27.4256 O   0  0  0  0  0  0  0  0  0  0  0  0
  2  1  1  6
  2  3  1  0
  3  4  1  0
  4  5  2  0
  4  8  1  0
  6  7  2  0
  6  2  1  0
  9 10  1  0
 10 12  1  0
 11 10  2  0
 12 13  1  0
 14 13  1  6
 14 15  1  0
 15  6  1  0
 16 14  1  0
 16 17  2  0
 18 16  1  0
 19 18  1  0
 19 20  1  1
 20 21  1  0
 21 22  2  0
 21 25  1  0
 23 19  1  0
 24 23  2  0
 26 23  1  0
M  END
$$$$
