DQD.pdb
     RDKit          3D

 26 25  0  0  1  0  0  0  0  0999 V2000
   13.0349  -16.4828   17.7727 N   0  0  0  0  0  0  0  0  0  0  0  0
   13.9651  -15.3963   17.7786 C   0  0  1  0  0  0  0  0  0  0  0  0
   13.5641  -14.3775   16.7321 C   0  0  0  0  0  0  0  0  0  0  0  0
   13.6437  -15.0214   15.4010 C   0  0  0  0  0  0  0  0  0  0  0  0
   14.6854  -15.5965   15.0000 O   0  0  0  0  0  0  0  0  0  0  0  0
   14.0054  -14.8113   19.1373 C   0  0  0  0  0  0  0  0  0  0  0  0
   14.7013  -13.8090   19.4462 O   0  0  0  0  0  0  0  0  0  0  0  0
   12.5547  -15.0168   14.5273 O   0  0  0  0  0  0  0  0  0  0  0  0
    9.5683  -15.3147   23.5103 N   0  0  0  0  0  0  0  0  0  0  0  0
    9.9104  -16.2950   22.5466 C   0  0  0  0  0  0  0  0  0  0  0  0
    9.0796  -17.2012   22.3053 O   0  0  0  0  0  0  0  0  0  0  0  0
   11.2023  -16.2473   21.8526 C   0  0  0  0  0  0  0  0  0  0  0  0
   12.0047  -15.0232   22.2285 C   0  0  0  0  0  0  0  0  0  0  0  0
   13.3733  -15.0393   21.5726 C   0  0  2  0  0  0  0  0  0  0  0  0
   13.2216  -15.3957   20.1751 N   0  0  0  0  0  0  0  0  0  0  0  0
   14.2751  -15.9806   22.2720 C   0  0  0  0  0  0  0  0  0  0  0  0
   14.0390  -17.2161   22.2584 O   0  0  0  0  0  0  0  0  0  0  0  0
   15.4150  -15.4989   22.9646 N   0  0  0  0  0  0  0  0  0  0  0  0
   16.2551  -16.4446   23.7022 C   0  0  1  0  0  0  0  0  0  0  0  0
   17.6676  -15.9094   23.6740 C   0  0  0  0  0  0  0  0  0  0  0  0
   18.0912  -15.6127   22.2999 C   0  0  0  0  0  0  0  0  0  0  0  0
   17.7717  -16.3907   21.3667 O   0  0  0  0  0  0  0  0  0  0  0  0
   15.7681  -16.5716   25.0858 C   0  0  0  0  0  0  0  0  0  0  0  0
   16.2461  -17.3358   25.9510 O   0  0  0  0  0  0  0  0  0  0  0  0
   18.8428  -14.4940   21.9678 O   0  0  0  0  0  0  0  0  0  0  0  0
   14.6804  -15.7874   25.5043 O   0  0  0  0  0  0  0  0  0  0  0  0
  2  1  1  1
  2  3  1  0
  3  4  1  0
  4  5  2  0
  4  8  1  0
  6  7  2  0
  6  2  1  0
  9 10  1  0
 10 12  1  0
 11 10  2  0
 12 13  1  0
 14 13  1  1
 14 15  1  0
 15  6  1  0
 16 14  1  0
 16 17  2  0
 18 16  1  0
 19 18  1  0
 19 20  1  1
 20 21  1  0
 21 22  2  0
 21 25  1  0
 23 19  1  0
 24 23  2  0
 26 23  1  0
M  END
$$$$
