DQD.pdb
     RDKit          3D

 26 25  0  0  1  0  0  0  0  0999 V2000
    9.4018  -17.8012   16.8947 N   0  0  0  0  0  0  0  0  0  0  0  0
   10.5530  -17.2480   16.2507 C   0  0  1  0  0  0  0  0  0  0  0  0
   10.1952  -16.8309   14.8394 C   0  0  0  0  0  0  0  0  0  0  0  0
   11.4471  -16.5043   14.1190 C   0  0  0  0  0  0  0  0  0  0  0  0
   11.5167  -15.5544   13.3007 O   0  0  0  0  0  0  0  0  0  0  0  0
   11.0495  -16.1111   17.0575 C   0  0  0  0  0  0  0  0  0  0  0  0
   11.9524  -15.3229   16.6728 O   0  0  0  0  0  0  0  0  0  0  0  0
   12.6136  -17.2445   14.3204 O   0  0  0  0  0  0  0  0  0  0  0  0
    7.0470  -13.0695   20.1617 N   0  0  0  0  0  0  0  0  0  0  0  0
    7.6427  -12.6950   18.9322 C   0  0  0  0  0  0  0  0  0  0  0  0
    7.0017  -11.9309   18.1740 O   0  0  0  0  0  0  0  0  0  0  0  0
    8.9730  -13.1900   18.5605 C   0  0  0  0  0  0  0  0  0  0  0  0
    9.5845  -14.0463   19.6452 C   0  0  0  0  0  0  0  0  0  0  0  0
   10.8522  -14.7258   19.1609 C   0  0  2  0  0  0  0  0  0  0  0  0
   10.4916  -15.8709   18.3474 N   0  0  0  0  0  0  0  0  0  0  0  0
   11.6989  -15.1260   20.3061 C   0  0  0  0  0  0  0  0  0  0  0  0
   12.0854  -14.2684   21.1413 O   0  0  0  0  0  0  0  0  0  0  0  0
   12.0831  -16.4807   20.4734 N   0  0  0  0  0  0  0  0  0  0  0  0
   12.8436  -16.8658   21.6640 C   0  0  1  0  0  0  0  0  0  0  0  0
   14.2071  -16.2246   21.5546 C   0  0  0  0  0  0  0  0  0  0  0  0
   15.1143  -16.7355   22.5898 C   0  0  0  0  0  0  0  0  0  0  0  0
   15.4925  -15.9774   23.5174 O   0  0  0  0  0  0  0  0  0  0  0  0
   12.1423  -16.4075   22.8746 C   0  0  0  0  0  0  0  0  0  0  0  0
   12.1901  -15.2491   23.3406 O   0  0  0  0  0  0  0  0  0  0  0  0
   15.5878  -18.0403   22.6000 O   0  0  0  0  0  0  0  0  0  0  0  0
   11.3458  -17.3162   23.5908 O   0  0  0  0  0  0  0  0  0  0  0  0
  2  1  1  1
  2  3  1  0
  3  4  1  0
  4  5  2  0
  4  8  1  0
  6  7  2  0
  6  2  1  0
  9 10  1  0
 10 12  1  0
 11 10  2  0
 12 13  1  0
 14 13  1  1
 14 15  1  0
 15  6  1  0
 16 14  1  0
 16 17  2  0
 18 16  1  0
 19 18  1  0
 19 20  1  6
 20 21  1  0
 21 22  2  0
 21 25  1  0
 23 19  1  0
 24 23  2  0
 26 23  1  0
M  END
$$$$
