DQD.pdb
     RDKit          3D

 26 25  0  0  1  0  0  0  0  0999 V2000
    9.6623  -16.0946   21.2277 N   0  0  0  0  0  0  0  0  0  0  0  0
    8.8474  -14.9441   21.4690 C   0  0  1  0  0  0  0  0  0  0  0  0
    7.7030  -14.9142   20.4774 C   0  0  0  0  0  0  0  0  0  0  0  0
    8.2719  -14.8889   19.1104 C   0  0  0  0  0  0  0  0  0  0  0  0
    8.9560  -13.9231   18.6911 O   0  0  0  0  0  0  0  0  0  0  0  0
    8.3692  -14.9844   22.8688 C   0  0  0  0  0  0  0  0  0  0  0  0
    7.5052  -14.1967   23.3350 O   0  0  0  0  0  0  0  0  0  0  0  0
    8.0706  -15.9466   18.2218 O   0  0  0  0  0  0  0  0  0  0  0  0
    5.9798  -19.8089   22.6580 N   0  0  0  0  0  0  0  0  0  0  0  0
    5.6543  -19.5574   24.0135 C   0  0  0  0  0  0  0  0  0  0  0  0
    4.9287  -20.3862   24.6103 O   0  0  0  0  0  0  0  0  0  0  0  0
    6.1547  -18.3588   24.6963 C   0  0  0  0  0  0  0  0  0  0  0  0
    7.0815  -17.5499   23.8187 C   0  0  0  0  0  0  0  0  0  0  0  0
    8.0685  -16.7508   24.6498 C   0  0  2  0  0  0  0  0  0  0  0  0
    8.8998  -15.9603   23.7626 N   0  0  0  0  0  0  0  0  0  0  0  0
    8.8865  -17.6492   25.4936 C   0  0  0  0  0  0  0  0  0  0  0  0
    8.3430  -18.3617   26.3764 O   0  0  0  0  0  0  0  0  0  0  0  0
   10.2918  -17.7157   25.3155 N   0  0  0  0  0  0  0  0  0  0  0  0
   11.0839  -18.5747   26.1981 C   0  0  1  0  0  0  0  0  0  0  0  0
   12.5139  -18.5217   25.7139 C   0  0  0  0  0  0  0  0  0  0  0  0
   12.5713  -18.2980   24.2640 C   0  0  0  0  0  0  0  0  0  0  0  0
   11.8989  -19.0273   23.4931 O   0  0  0  0  0  0  0  0  0  0  0  0
   10.9802  -18.0956   27.5863 C   0  0  0  0  0  0  0  0  0  0  0  0
   11.4720  -18.6646   28.5840 O   0  0  0  0  0  0  0  0  0  0  0  0
   13.3456  -17.3021   23.6849 O   0  0  0  0  0  0  0  0  0  0  0  0
   10.2801  -16.9068   27.8506 O   0  0  0  0  0  0  0  0  0  0  0  0
  2  1  1  6
  2  3  1  0
  3  4  1  0
  4  5  2  0
  4  8  1  0
  6  7  2  0
  6  2  1  0
  9 10  1  0
 10 12  1  0
 11 10  2  0
 12 13  1  0
 14 13  1  6
 14 15  1  0
 15  6  1  0
 16 14  1  0
 16 17  2  0
 18 16  1  0
 19 18  1  0
 19 20  1  6
 20 21  1  0
 21 22  2  0
 21 25  1  0
 23 19  1  0
 24 23  2  0
 26 23  1  0
M  END
$$$$
