DQD.pdb
     RDKit          3D

 26 25  0  0  1  0  0  0  0  0999 V2000
    7.6538  -17.6574   16.4226 N   0  0  0  0  0  0  0  0  0  0  0  0
    9.0567  -17.3873   16.4923 C   0  0  1  0  0  0  0  0  0  0  0  0
    9.5026  -16.6830   15.2278 C   0  0  0  0  0  0  0  0  0  0  0  0
    8.9739  -17.4334   14.0657 C   0  0  0  0  0  0  0  0  0  0  0  0
    8.2554  -18.4540   14.2024 O   0  0  0  0  0  0  0  0  0  0  0  0
    9.3267  -16.5803   17.7029 C   0  0  0  0  0  0  0  0  0  0  0  0
   10.4684  -16.1544   18.0185 O   0  0  0  0  0  0  0  0  0  0  0  0
    9.2538  -17.0348   12.7573 O   0  0  0  0  0  0  0  0  0  0  0  0
    7.4514  -12.4121   20.2370 N   0  0  0  0  0  0  0  0  0  0  0  0
    7.4168  -12.9860   21.5317 C   0  0  0  0  0  0  0  0  0  0  0  0
    7.5549  -12.2262   22.5183 O   0  0  0  0  0  0  0  0  0  0  0  0
    7.2246  -14.4298   21.7084 C   0  0  0  0  0  0  0  0  0  0  0  0
    7.0869  -15.1509   20.3876 C   0  0  0  0  0  0  0  0  0  0  0  0
    8.4433  -15.5398   19.8287 C   0  0  2  0  0  0  0  0  0  0  0  0
    8.2517  -16.2515   18.5798 N   0  0  0  0  0  0  0  0  0  0  0  0
    9.1932  -16.3603   20.8048 C   0  0  0  0  0  0  0  0  0  0  0  0
    8.9695  -17.5943   20.9028 O   0  0  0  0  0  0  0  0  0  0  0  0
   10.1718  -15.7634   21.6397 N   0  0  0  0  0  0  0  0  0  0  0  0
   10.9462  -16.6093   22.5502 C   0  0  1  0  0  0  0  0  0  0  0  0
   12.4081  -16.3339   22.2874 C   0  0  0  0  0  0  0  0  0  0  0  0
   13.2603  -17.0644   23.2338 C   0  0  0  0  0  0  0  0  0  0  0  0
   13.0773  -18.2936   23.4178 O   0  0  0  0  0  0  0  0  0  0  0  0
   10.5940  -16.2955   23.9448 C   0  0  0  0  0  0  0  0  0  0  0  0
    9.8188  -15.3843   24.3051 O   0  0  0  0  0  0  0  0  0  0  0  0
   14.2807  -16.4574   23.9529 O   0  0  0  0  0  0  0  0  0  0  0  0
   11.1544  -17.0595   24.9819 O   0  0  0  0  0  0  0  0  0  0  0  0
  2  1  1  6
  2  3  1  0
  3  4  1  0
  4  5  2  0
  4  8  1  0
  6  7  2  0
  6  2  1  0
  9 10  1  0
 10 12  1  0
 11 10  2  0
 12 13  1  0
 14 13  1  1
 14 15  1  0
 15  6  1  0
 16 14  1  0
 16 17  2  0
 18 16  1  0
 19 18  1  0
 19 20  1  1
 20 21  1  0
 21 22  2  0
 21 25  1  0
 23 19  1  0
 24 23  2  0
 26 23  1  0
M  END
$$$$
