DQD.pdb
     RDKit          3D

 26 25  0  0  1  0  0  0  0  0999 V2000
    9.6146  -15.9798   20.2320 N   0  0  0  0  0  0  0  0  0  0  0  0
    9.9088  -16.9992   21.1913 C   0  0  1  0  0  0  0  0  0  0  0  0
   11.0730  -17.8361   20.7036 C   0  0  0  0  0  0  0  0  0  0  0  0
   10.5740  -18.7694   19.6678 C   0  0  0  0  0  0  0  0  0  0  0  0
    9.3626  -18.8165   19.3411 O   0  0  0  0  0  0  0  0  0  0  0  0
   10.1919  -16.3587   22.4950 C   0  0  0  0  0  0  0  0  0  0  0  0
   11.3520  -16.0969   22.9076 O   0  0  0  0  0  0  0  0  0  0  0  0
   11.4364  -19.6442   19.0044 O   0  0  0  0  0  0  0  0  0  0  0  0
    6.0433  -12.8520   25.7788 N   0  0  0  0  0  0  0  0  0  0  0  0
    7.2223  -12.8573   26.5640 C   0  0  0  0  0  0  0  0  0  0  0  0
    7.3264  -12.0074   27.4787 O   0  0  0  0  0  0  0  0  0  0  0  0
    8.2893  -13.8319   26.3105 C   0  0  0  0  0  0  0  0  0  0  0  0
    8.0966  -14.5575   24.9990 C   0  0  0  0  0  0  0  0  0  0  0  0
    9.3012  -15.4177   24.6637 C   0  0  2  0  0  0  0  0  0  0  0  0
    9.1087  -16.0073   23.3529 N   0  0  0  0  0  0  0  0  0  0  0  0
    9.5023  -16.4579   25.6962 C   0  0  0  0  0  0  0  0  0  0  0  0
    8.6232  -17.3357   25.8939 O   0  0  0  0  0  0  0  0  0  0  0  0
   10.6884  -16.4754   26.4731 N   0  0  0  0  0  0  0  0  0  0  0  0
   10.8635  -17.5183   27.4861 C   0  0  1  0  0  0  0  0  0  0  0  0
   12.2539  -18.0836   27.3152 C   0  0  0  0  0  0  0  0  0  0  0  0
   12.4472  -18.6056   25.9566 C   0  0  0  0  0  0  0  0  0  0  0  0
   11.7744  -19.5919   25.5657 O   0  0  0  0  0  0  0  0  0  0  0  0
   10.6909  -16.9431   28.8303 C   0  0  0  0  0  0  0  0  0  0  0  0
   10.4684  -15.7384   29.0759 O   0  0  0  0  0  0  0  0  0  0  0  0
   13.3532  -18.0565   25.0599 O   0  0  0  0  0  0  0  0  0  0  0  0
   10.7763  -17.7844   29.9520 O   0  0  0  0  0  0  0  0  0  0  0  0
  2  1  1  6
  2  3  1  0
  3  4  1  0
  4  5  2  0
  4  8  1  0
  6  7  2  0
  6  2  1  0
  9 10  1  0
 10 12  1  0
 11 10  2  0
 12 13  1  0
 14 13  1  1
 14 15  1  0
 15  6  1  0
 16 14  1  0
 16 17  2  0
 18 16  1  0
 19 18  1  0
 19 20  1  1
 20 21  1  0
 21 22  2  0
 21 25  1  0
 23 19  1  0
 24 23  2  0
 26 23  1  0
M  END
$$$$
