DLW.pdb
     RDKit          3D

 31 32  0  0  1  0  0  0  0  0999 V2000
   10.4642  -19.4495   19.3181 N   0  0  0  0  0  0  0  0  0  0  0  0
    9.7012  -19.0615   20.4871 C   0  0  1  0  0  0  0  0  0  0  0  0
   10.0819  -19.9525   21.6612 C   0  0  0  0  0  0  0  0  0  0  0  0
    9.8204  -21.3804   21.3463 C   0  0  0  0  0  0  0  0  0  0  0  0
    9.9432  -22.2742   22.2160 O   0  0  0  0  0  0  0  0  0  0  0  0
    9.9061  -17.6298   20.8178 C   0  0  0  0  0  0  0  0  0  0  0  0
   11.0353  -17.0676   20.6340 O   0  0  0  0  0  0  0  0  0  0  0  0
    9.4312  -21.7602   20.0715 O   0  0  0  0  0  0  0  0  0  0  0  0
    6.2469  -12.8655   20.9860 C   0  0  0  0  0  0  0  0  0  0  0  0
    7.6513  -13.3223   21.2400 C   0  0  2  0  0  0  0  0  0  0  0  0
    8.5837  -12.8356   20.1177 C   0  0  0  0  0  0  0  0  0  0  0  0
    7.7696  -14.7872   21.3388 C   0  0  0  0  0  0  0  0  0  0  0  0
    9.0540  -15.4076   21.6974 C   0  0  2  0  0  0  0  0  0  0  0  0
    8.8603  -16.8574   21.3421 N   0  0  0  0  0  0  0  0  0  0  0  0
    9.5556  -15.4071   23.0523 C   0  0  0  0  0  0  0  0  0  0  0  0
   10.1629  -14.3759   23.5041 O   0  0  0  0  0  0  0  0  0  0  0  0
    9.3993  -16.5340   23.9285 N   0  0  0  0  0  0  0  0  0  0  0  0
    9.9434  -16.4836   25.2672 C   0  0  1  0  0  0  0  0  0  0  0  0
    8.8209  -16.6501   26.2650 C   0  0  0  0  0  0  0  0  0  0  0  0
    7.7554  -15.6613   26.1020 C   0  0  0  0  0  0  0  0  0  0  0  0
    6.4966  -15.9123   25.6128 C   0  0  0  0  0  0  0  0  0  0  0  0
    5.8202  -14.7489   25.6222 N   0  0  0  0  0  0  0  0  0  0  0  0
    6.5721  -13.7499   26.0925 C   0  0  0  0  0  0  0  0  0  0  0  0
    6.3357  -12.3983   26.2935 C   0  0  0  0  0  0  0  0  0  0  0  0
    7.3118  -11.5711   26.8050 C   0  0  0  0  0  0  0  0  0  0  0  0
    8.5443  -12.1241   27.1164 C   0  0  0  0  0  0  0  0  0  0  0  0
    8.7627  -13.4658   26.9113 C   0  0  0  0  0  0  0  0  0  0  0  0
    7.8007  -14.3173   26.3995 C   0  0  0  0  0  0  0  0  0  0  0  0
   10.9825  -17.5378   25.4406 C   0  0  0  0  0  0  0  0  0  0  0  0
   11.1924  -18.4260   24.5828 O   0  0  0  0  0  0  0  0  0  0  0  0
   11.7438  -17.5307   26.5984 O   0  0  0  0  0  0  0  0  0  0  0  0
  2  1  1  6
  2  3  1  0
  3  4  1  0
  4  5  2  0
  4  8  1  0
  6  2  1  0
  7  6  2  0
 10 12  1  0
 10  9  1  6
 11 10  1  0
 13 12  1  1
 13 15  1  0
 13 14  1  0
 14  6  1  0
 15 16  2  0
 17 18  1  0
 17 15  1  0
 18 19  1  1
 20 19  1  0
 21 20  2  0
 22 21  1  0
 23 22  1  0
 23 28  2  0
 24 23  1  0
 25 24  2  0
 25 26  1  0
 26 27  2  0
 27 28  1  0
 28 20  1  0
 29 18  1  0
 30 29  2  0
 31 29  1  0
M  END
$$$$
