DLW.pdb
     RDKit          3D

 31 32  0  0  1  0  0  0  0  0999 V2000
    9.9815  -19.5187   20.6003 N   0  0  0  0  0  0  0  0  0  0  0  0
   11.1305  -18.6830   20.3164 C   0  0  1  0  0  0  0  0  0  0  0  0
   11.4894  -18.7964   18.8414 C   0  0  0  0  0  0  0  0  0  0  0  0
   12.2488  -20.0454   18.5778 C   0  0  0  0  0  0  0  0  0  0  0  0
   11.6651  -21.1173   18.2938 O   0  0  0  0  0  0  0  0  0  0  0  0
   10.8808  -17.2706   20.6958 C   0  0  0  0  0  0  0  0  0  0  0  0
   11.7370  -16.3606   20.4426 O   0  0  0  0  0  0  0  0  0  0  0  0
   13.6334  -20.0539   18.6405 O   0  0  0  0  0  0  0  0  0  0  0  0
    6.0782  -13.8014   20.8607 C   0  0  0  0  0  0  0  0  0  0  0  0
    7.4951  -13.8628   21.3446 C   0  0  2  0  0  0  0  0  0  0  0  0
    8.3802  -12.9024   20.5322 C   0  0  0  0  0  0  0  0  0  0  0  0
    8.0740  -15.2144   21.2561 C   0  0  0  0  0  0  0  0  0  0  0  0
    9.4329  -15.4760   21.7544 C   0  0  2  0  0  0  0  0  0  0  0  0
    9.6942  -16.9003   21.3437 N   0  0  0  0  0  0  0  0  0  0  0  0
    9.7608  -15.4144   23.1600 C   0  0  0  0  0  0  0  0  0  0  0  0
   10.1926  -14.3208   23.6639 O   0  0  0  0  0  0  0  0  0  0  0  0
    9.6206  -16.5476   24.0308 N   0  0  0  0  0  0  0  0  0  0  0  0
    9.9731  -16.4276   25.4280 C   0  0  1  0  0  0  0  0  0  0  0  0
    8.7324  -16.6145   26.2699 C   0  0  0  0  0  0  0  0  0  0  0  0
    7.7099  -15.5985   26.0208 C   0  0  0  0  0  0  0  0  0  0  0  0
    6.4416  -15.8359   25.5497 C   0  0  0  0  0  0  0  0  0  0  0  0
    5.8154  -14.6482   25.4592 N   0  0  0  0  0  0  0  0  0  0  0  0
    6.6092  -13.6461   25.8469 C   0  0  0  0  0  0  0  0  0  0  0  0
    6.4306  -12.2736   25.9332 C   0  0  0  0  0  0  0  0  0  0  0  0
    7.4410  -11.4486   26.3772 C   0  0  0  0  0  0  0  0  0  0  0  0
    8.6488  -12.0255   26.7384 C   0  0  0  0  0  0  0  0  0  0  0  0
    8.8099  -13.3877   26.6471 C   0  0  0  0  0  0  0  0  0  0  0  0
    7.8125  -14.2375   26.2049 C   0  0  0  0  0  0  0  0  0  0  0  0
   11.0225  -17.4248   25.7817 C   0  0  0  0  0  0  0  0  0  0  0  0
   11.4565  -18.2672   24.9626 O   0  0  0  0  0  0  0  0  0  0  0  0
   11.5354  -17.4157   27.0689 O   0  0  0  0  0  0  0  0  0  0  0  0
  2  1  1  6
  2  3  1  0
  3  4  1  0
  4  5  2  0
  4  8  1  0
  6  2  1  0
  7  6  2  0
 10 12  1  0
 10  9  1  6
 11 10  1  0
 13 12  1  1
 13 15  1  0
 13 14  1  0
 14  6  1  0
 15 16  2  0
 17 18  1  0
 17 15  1  0
 18 19  1  1
 20 19  1  0
 21 20  2  0
 22 21  1  0
 23 22  1  0
 23 28  2  0
 24 23  1  0
 25 24  2  0
 25 26  1  0
 26 27  2  0
 27 28  1  0
 28 20  1  0
 29 18  1  0
 30 29  2  0
 31 29  1  0
M  END
$$$$
