DLW.pdb
     RDKit          3D

 31 32  0  0  1  0  0  0  0  0999 V2000
   10.0452  -19.2510   19.1561 N   0  0  0  0  0  0  0  0  0  0  0  0
   11.3417  -18.7146   19.5179 C   0  0  1  0  0  0  0  0  0  0  0  0
   12.2109  -18.6031   18.2731 C   0  0  0  0  0  0  0  0  0  0  0  0
   13.0466  -19.8192   18.1027 C   0  0  0  0  0  0  0  0  0  0  0  0
   14.2111  -19.7526   17.6445 O   0  0  0  0  0  0  0  0  0  0  0  0
   11.2151  -17.4018   20.1973 C   0  0  0  0  0  0  0  0  0  0  0  0
   12.2141  -16.6170   20.3025 O   0  0  0  0  0  0  0  0  0  0  0  0
   12.5529  -21.0669   18.4496 O   0  0  0  0  0  0  0  0  0  0  0  0
    6.4254  -13.8449   21.2879 C   0  0  0  0  0  0  0  0  0  0  0  0
    7.8749  -14.0197   21.6257 C   0  0  2  0  0  0  0  0  0  0  0  0
    8.7022  -12.8570   21.0518 C   0  0  0  0  0  0  0  0  0  0  0  0
    8.4348  -15.2833   21.1163 C   0  0  0  0  0  0  0  0  0  0  0  0
    9.8328  -15.6442   21.3965 C   0  0  2  0  0  0  0  0  0  0  0  0
    9.9907  -16.9904   20.7419 N   0  0  0  0  0  0  0  0  0  0  0  0
   10.3281  -15.8109   22.7434 C   0  0  0  0  0  0  0  0  0  0  0  0
   11.4509  -15.2955   23.0753 O   0  0  0  0  0  0  0  0  0  0  0  0
    9.6018  -16.5429   23.7427 N   0  0  0  0  0  0  0  0  0  0  0  0
   10.0741  -16.5546   25.1093 C   0  0  1  0  0  0  0  0  0  0  0  0
    9.8005  -15.2090   25.7398 C   0  0  0  0  0  0  0  0  0  0  0  0
    8.3785  -14.8673   25.7715 C   0  0  0  0  0  0  0  0  0  0  0  0
    7.3396  -15.7373   25.5464 C   0  0  0  0  0  0  0  0  0  0  0  0
    6.1952  -15.0395   25.6664 N   0  0  0  0  0  0  0  0  0  0  0  0
    6.4324  -13.7577   25.9585 C   0  0  0  0  0  0  0  0  0  0  0  0
    5.6056  -12.6657   26.1754 C   0  0  0  0  0  0  0  0  0  0  0  0
    6.1255  -11.4233   26.4669 C   0  0  0  0  0  0  0  0  0  0  0  0
    7.5034  -11.2885   26.5389 C   0  0  0  0  0  0  0  0  0  0  0  0
    8.3092  -12.3808   26.3213 C   0  0  0  0  0  0  0  0  0  0  0  0
    7.8132  -13.6378   26.0273 C   0  0  0  0  0  0  0  0  0  0  0  0
    9.4166  -17.6534   25.8718 C   0  0  0  0  0  0  0  0  0  0  0  0
    9.6576  -17.8737   27.0811 O   0  0  0  0  0  0  0  0  0  0  0  0
    8.5033  -18.4603   25.2125 O   0  0  0  0  0  0  0  0  0  0  0  0
  2  1  1  6
  2  3  1  0
  3  4  1  0
  4  5  2  0
  4  8  1  0
  6  2  1  0
  7  6  2  0
 10 12  1  0
 10  9  1  6
 11 10  1  0
 13 12  1  1
 13 15  1  0
 13 14  1  0
 14  6  1  0
 15 16  2  0
 17 18  1  0
 17 15  1  0
 18 19  1  1
 20 19  1  0
 21 20  2  0
 22 21  1  0
 23 22  1  0
 23 28  2  0
 24 23  1  0
 25 24  2  0
 25 26  1  0
 26 27  2  0
 27 28  1  0
 28 20  1  0
 29 18  1  0
 30 29  2  0
 31 29  1  0
M  END
$$$$
