DLW.pdb
     RDKit          3D

 31 32  0  0  1  0  0  0  0  0999 V2000
    8.9601  -18.6488   19.8263 N   0  0  0  0  0  0  0  0  0  0  0  0
   10.3234  -18.1588   19.8070 C   0  0  1  0  0  0  0  0  0  0  0  0
   10.8111  -18.0696   18.3677 C   0  0  0  0  0  0  0  0  0  0  0  0
   11.1362  -19.4180   17.8363 C   0  0  0  0  0  0  0  0  0  0  0  0
   11.7394  -19.5631   16.7475 O   0  0  0  0  0  0  0  0  0  0  0  0
   10.4378  -16.8464   20.4894 C   0  0  0  0  0  0  0  0  0  0  0  0
   11.5144  -16.1663   20.4305 O   0  0  0  0  0  0  0  0  0  0  0  0
   10.7764  -20.5571   18.5391 O   0  0  0  0  0  0  0  0  0  0  0  0
    8.5999  -12.9614   19.7291 C   0  0  0  0  0  0  0  0  0  0  0  0
    7.7297  -14.0102   20.3522 C   0  0  2  0  0  0  0  0  0  0  0  0
    6.2710  -13.5268   20.4159 C   0  0  0  0  0  0  0  0  0  0  0  0
    8.1571  -14.3764   21.7135 C   0  0  0  0  0  0  0  0  0  0  0  0
    9.4687  -15.0027   21.9384 C   0  0  2  0  0  0  0  0  0  0  0  0
    9.3620  -16.3200   21.2179 N   0  0  0  0  0  0  0  0  0  0  0  0
    9.9489  -15.3260   23.2621 C   0  0  0  0  0  0  0  0  0  0  0  0
   10.8419  -14.5922   23.8103 O   0  0  0  0  0  0  0  0  0  0  0  0
    9.4584  -16.4551   24.0015 N   0  0  0  0  0  0  0  0  0  0  0  0
   10.0367  -16.7778   25.2869 C   0  0  1  0  0  0  0  0  0  0  0  0
    9.6726  -15.6980   26.2793 C   0  0  0  0  0  0  0  0  0  0  0  0
    8.2695  -15.2925   26.1989 C   0  0  0  0  0  0  0  0  0  0  0  0
    7.2158  -16.1110   25.8723 C   0  0  0  0  0  0  0  0  0  0  0  0
    6.0972  -15.3638   25.9094 N   0  0  0  0  0  0  0  0  0  0  0  0
    6.3653  -14.0985   26.2436 C   0  0  0  0  0  0  0  0  0  0  0  0
    5.5723  -12.9732   26.4109 C   0  0  0  0  0  0  0  0  0  0  0  0
    6.1202  -11.7601   26.7672 C   0  0  0  0  0  0  0  0  0  0  0  0
    7.4917  -11.6892   26.9561 C   0  0  0  0  0  0  0  0  0  0  0  0
    8.2640  -12.8138   26.7864 C   0  0  0  0  0  0  0  0  0  0  0  0
    7.7394  -14.0424   26.4292 C   0  0  0  0  0  0  0  0  0  0  0  0
    9.5627  -18.1148   25.7436 C   0  0  0  0  0  0  0  0  0  0  0  0
    8.6495  -18.7427   25.1598 O   0  0  0  0  0  0  0  0  0  0  0  0
   10.1589  -18.6816   26.8587 O   0  0  0  0  0  0  0  0  0  0  0  0
  2  1  1  6
  2  3  1  0
  3  4  1  0
  4  5  2  0
  4  8  1  0
  6  2  1  0
  7  6  2  0
 10 12  1  0
 10  9  1  1
 11 10  1  0
 13 12  1  1
 13 15  1  0
 13 14  1  0
 14  6  1  0
 15 16  2  0
 17 18  1  0
 17 15  1  0
 18 19  1  1
 20 19  1  0
 21 20  2  0
 22 21  1  0
 23 22  1  0
 23 28  2  0
 24 23  1  0
 25 24  2  0
 25 26  1  0
 26 27  2  0
 27 28  1  0
 28 20  1  0
 29 18  1  0
 30 29  2  0
 31 29  1  0
M  END
$$$$
