DLW.pdb
     RDKit          3D

 31 32  0  0  1  0  0  0  0  0999 V2000
    8.9267  -18.7543   20.1072 N   0  0  0  0  0  0  0  0  0  0  0  0
   10.1803  -18.1416   19.7170 C   0  0  1  0  0  0  0  0  0  0  0  0
   10.2227  -17.9907   18.2028 C   0  0  0  0  0  0  0  0  0  0  0  0
   10.3957  -19.3115   17.5457 C   0  0  0  0  0  0  0  0  0  0  0  0
   10.4519  -20.3708   18.2129 O   0  0  0  0  0  0  0  0  0  0  0  0
   10.3761  -16.8326   20.3874 C   0  0  0  0  0  0  0  0  0  0  0  0
   11.4472  -16.1619   20.2202 O   0  0  0  0  0  0  0  0  0  0  0  0
   10.4999  -19.4034   16.1667 O   0  0  0  0  0  0  0  0  0  0  0  0
    8.7594  -12.9833   19.7245 C   0  0  0  0  0  0  0  0  0  0  0  0
    7.8240  -13.9222   20.4240 C   0  0  2  0  0  0  0  0  0  0  0  0
    6.4297  -13.2870   20.5585 C   0  0  0  0  0  0  0  0  0  0  0  0
    8.2918  -14.3035   21.7677 C   0  0  0  0  0  0  0  0  0  0  0  0
    9.5812  -14.9897   21.9398 C   0  0  2  0  0  0  0  0  0  0  0  0
    9.3856  -16.2992   21.2237 N   0  0  0  0  0  0  0  0  0  0  0  0
   10.0986  -15.3374   23.2431 C   0  0  0  0  0  0  0  0  0  0  0  0
   11.1012  -14.7010   23.7187 O   0  0  0  0  0  0  0  0  0  0  0  0
    9.5260  -16.3848   24.0413 N   0  0  0  0  0  0  0  0  0  0  0  0
   10.0043  -16.6045   25.3880 C   0  0  1  0  0  0  0  0  0  0  0  0
    8.8253  -16.8651   26.2964 C   0  0  0  0  0  0  0  0  0  0  0  0
    7.6980  -15.9668   26.0474 C   0  0  0  0  0  0  0  0  0  0  0  0
    6.4961  -16.3248   25.4868 C   0  0  0  0  0  0  0  0  0  0  0  0
    5.7315  -15.2189   25.4301 N   0  0  0  0  0  0  0  0  0  0  0  0
    6.3717  -14.1559   25.9248 C   0  0  0  0  0  0  0  0  0  0  0  0
    6.0179  -12.8243   26.0826 C   0  0  0  0  0  0  0  0  0  0  0  0
    6.8921  -11.9140   26.6358 C   0  0  0  0  0  0  0  0  0  0  0  0
    8.1419  -12.3624   27.0342 C   0  0  0  0  0  0  0  0  0  0  0  0
    8.4773  -13.6856   26.8711 C   0  0  0  0  0  0  0  0  0  0  0  0
    7.6191  -14.6189   26.3189 C   0  0  0  0  0  0  0  0  0  0  0  0
   10.9683  -17.7408   25.4130 C   0  0  0  0  0  0  0  0  0  0  0  0
   11.2059  -18.4466   24.4058 O   0  0  0  0  0  0  0  0  0  0  0  0
   11.6251  -18.0238   26.5998 O   0  0  0  0  0  0  0  0  0  0  0  0
  2  1  1  6
  2  3  1  0
  3  4  1  0
  4  5  2  0
  4  8  1  0
  6  2  1  0
  7  6  2  0
 10 12  1  0
 10  9  1  1
 11 10  1  0
 13 12  1  1
 13 15  1  0
 13 14  1  0
 14  6  1  0
 15 16  2  0
 17 18  1  0
 17 15  1  0
 18 19  1  1
 20 19  1  0
 21 20  2  0
 22 21  1  0
 23 22  1  0
 23 28  2  0
 24 23  1  0
 25 24  2  0
 25 26  1  0
 26 27  2  0
 27 28  1  0
 28 20  1  0
 29 18  1  0
 30 29  2  0
 31 29  1  0
M  END
$$$$
