DLW.pdb
     RDKit          3D

 31 32  0  0  1  0  0  0  0  0999 V2000
    9.2700  -18.7454   20.2956 N   0  0  0  0  0  0  0  0  0  0  0  0
   10.4762  -17.9795   20.0555 C   0  0  1  0  0  0  0  0  0  0  0  0
   10.6921  -17.8279   18.5563 C   0  0  0  0  0  0  0  0  0  0  0  0
   11.4396  -18.9898   18.0109 C   0  0  0  0  0  0  0  0  0  0  0  0
   11.7440  -19.9680   18.7326 O   0  0  0  0  0  0  0  0  0  0  0  0
   10.4189  -16.6547   20.7211 C   0  0  0  0  0  0  0  0  0  0  0  0
   11.4267  -15.8741   20.7196 O   0  0  0  0  0  0  0  0  0  0  0  0
   11.8212  -19.0188   16.6787 O   0  0  0  0  0  0  0  0  0  0  0  0
    8.3977  -12.7928   19.8678 C   0  0  0  0  0  0  0  0  0  0  0  0
    7.5332  -13.9410   20.2918 C   0  0  2  0  0  0  0  0  0  0  0  0
    6.0477  -13.5504   20.2124 C   0  0  0  0  0  0  0  0  0  0  0  0
    7.8197  -14.4002   21.6618 C   0  0  0  0  0  0  0  0  0  0  0  0
    9.1649  -14.8734   22.0219 C   0  0  2  0  0  0  0  0  0  0  0  0
    9.2521  -16.2272   21.3698 N   0  0  0  0  0  0  0  0  0  0  0  0
    9.5643  -15.0811   23.3947 C   0  0  0  0  0  0  0  0  0  0  0  0
   10.0169  -14.1000   24.0796 O   0  0  0  0  0  0  0  0  0  0  0  0
    9.4736  -16.3635   24.0343 N   0  0  0  0  0  0  0  0  0  0  0  0
    9.9134  -16.5158   25.4034 C   0  0  1  0  0  0  0  0  0  0  0  0
    8.7260  -16.8676   26.2691 C   0  0  0  0  0  0  0  0  0  0  0  0
    7.6551  -15.8729   26.2083 C   0  0  0  0  0  0  0  0  0  0  0  0
    6.3799  -16.0947   25.7484 C   0  0  0  0  0  0  0  0  0  0  0  0
    5.7041  -14.9361   25.8571 N   0  0  0  0  0  0  0  0  0  0  0  0
    6.4720  -13.9679   26.3645 C   0  0  0  0  0  0  0  0  0  0  0  0
    6.2427  -12.6327   26.6610 C   0  0  0  0  0  0  0  0  0  0  0  0
    7.2361  -11.8380   27.1904 C   0  0  0  0  0  0  0  0  0  0  0  0
    8.4789  -12.4071   27.4217 C   0  0  0  0  0  0  0  0  0  0  0  0
    8.6902  -13.7322   27.1223 C   0  0  0  0  0  0  0  0  0  0  0  0
    7.7108  -14.5510   26.5906 C   0  0  0  0  0  0  0  0  0  0  0  0
   10.9744  -17.5587   25.4903 C   0  0  0  0  0  0  0  0  0  0  0  0
   11.5162  -17.8817   26.5725 O   0  0  0  0  0  0  0  0  0  0  0  0
   11.3740  -18.1932   24.3251 O   0  0  0  0  0  0  0  0  0  0  0  0
  2  1  1  6
  2  3  1  0
  3  4  1  0
  4  5  2  0
  4  8  1  0
  6  2  1  0
  7  6  2  0
 10 12  1  0
 10  9  1  1
 11 10  1  0
 13 12  1  1
 13 15  1  0
 13 14  1  0
 14  6  1  0
 15 16  2  0
 17 18  1  0
 17 15  1  0
 18 19  1  1
 20 19  1  0
 21 20  2  0
 22 21  1  0
 23 22  1  0
 23 28  2  0
 24 23  1  0
 25 24  2  0
 25 26  1  0
 26 27  2  0
 27 28  1  0
 28 20  1  0
 29 18  1  0
 30 29  2  0
 31 29  1  0
M  END
$$$$
