MKF.pdb
     RDKit          3D

 29 29  0  0  1  0  0  0  0  0999 V2000
   26.0591  -24.8105  -16.5762 C   0  0  0  0  0  0  0  0  0  0  0  0
   27.8291  -24.7076  -16.9731 S   0  0  0  0  0  0  0  0  0  0  0  0
   28.5000  -26.3488  -17.3683 C   0  0  0  0  0  0  0  0  0  0  0  0
   27.6305  -27.3824  -16.6915 C   0  0  0  0  0  0  0  0  0  0  0  0
   28.1902  -28.7606  -17.0054 C   0  0  2  0  0  0  0  0  0  0  0  0
   28.9822  -28.7202  -18.1993 N   0  0  0  0  0  0  0  0  0  0  0  0
   27.0917  -29.7320  -17.1766 C   0  0  0  0  0  0  0  0  0  0  0  0
   26.2333  -29.6379  -18.1005 O   0  0  0  0  0  0  0  0  0  0  0  0
   26.9505  -30.8356  -16.2919 N   0  0  0  0  0  0  0  0  0  0  0  0
   25.9146  -31.8403  -16.4276 C   0  0  1  0  0  0  0  0  0  0  0  0
   26.6429  -33.1006  -16.9283 C   0  0  0  0  0  0  0  0  0  0  0  0
   26.7588  -33.0706  -18.4288 C   0  0  0  0  0  0  0  0  0  0  0  0
   27.3446  -34.3688  -18.9132 C   0  0  0  0  0  0  0  0  0  0  0  0
   27.5046  -34.3721  -20.3908 C   0  0  0  0  0  0  0  0  0  0  0  0
   28.0775  -35.6019  -20.9014 N   0  0  0  0  0  0  0  0  0  0  0  0
   25.3880  -32.1958  -15.0969 C   0  0  0  0  0  0  0  0  0  0  0  0
   26.1833  -32.4143  -14.1616 O   0  0  0  0  0  0  0  0  0  0  0  0
   23.9996  -32.2951  -14.8568 N   0  0  0  0  0  0  0  0  0  0  0  0
   23.5508  -32.6507  -13.5181 C   0  0  1  0  0  0  0  0  0  0  0  0
   23.5387  -31.4675  -12.6080 C   0  0  0  0  0  0  0  0  0  0  0  0
   23.0522  -31.8497  -11.2647 C   0  0  0  0  0  0  0  0  0  0  0  0
   23.9211  -32.3681  -10.3065 C   0  0  0  0  0  0  0  0  0  0  0  0
   23.4928  -32.7047   -9.0487 C   0  0  0  0  0  0  0  0  0  0  0  0
   22.1685  -32.5321   -8.7049 C   0  0  0  0  0  0  0  0  0  0  0  0
   21.3056  -32.0177   -9.6545 C   0  0  0  0  0  0  0  0  0  0  0  0
   21.7302  -31.6847  -10.8989 C   0  0  0  0  0  0  0  0  0  0  0  0
   22.2232  -33.2805  -13.6147 C   0  0  0  0  0  0  0  0  0  0  0  0
   21.4399  -33.0704  -14.5568 O   0  0  0  0  0  0  0  0  0  0  0  0
   21.7936  -34.1694  -12.6036 O   0  0  0  0  0  0  0  0  0  0  0  0
  2  1  1  0
  3  2  1  0
  4  5  1  0
  4  3  1  0
  5  6  1  6
  7  5  1  0
  7  8  2  0
  9  7  1  0
 10  9  1  0
 10 11  1  1
 12 11  1  0
 12 13  1  0
 13 14  1  0
 14 15  1  0
 16 18  1  0
 16 10  1  0
 17 16  2  0
 19 18  1  0
 19 27  1  0
 19 20  1  1
 21 20  1  0
 21 22  2  0
 23 22  1  0
 24 23  2  0
 25 26  2  0
 25 24  1  0
 26 21  1  0
 27 29  1  0
 28 27  2  0
M  END
$$$$
