MKF.pdb
     RDKit          3D

 29 29  0  0  1  0  0  0  0  0999 V2000
   27.3567  -14.9127  -17.2624 C   0  0  0  0  0  0  0  0  0  0  0  0
   28.6366  -16.1897  -17.4416 S   0  0  0  0  0  0  0  0  0  0  0  0
   27.8876  -17.8293  -17.6667 C   0  0  0  0  0  0  0  0  0  0  0  0
   26.3878  -17.6725  -17.5749 C   0  0  0  0  0  0  0  0  0  0  0  0
   25.7465  -19.0256  -17.8378 C   0  0  2  0  0  0  0  0  0  0  0  0
   25.9968  -19.4456  -19.1851 N   0  0  0  0  0  0  0  0  0  0  0  0
   24.2901  -18.9548  -17.6073 C   0  0  0  0  0  0  0  0  0  0  0  0
   23.6249  -17.8897  -17.7567 O   0  0  0  0  0  0  0  0  0  0  0  0
   23.5602  -20.1045  -17.1994 N   0  0  0  0  0  0  0  0  0  0  0  0
   22.1226  -20.1137  -17.0151 C   0  0  1  0  0  0  0  0  0  0  0  0
   21.6368  -21.3911  -17.7234 C   0  0  0  0  0  0  0  0  0  0  0  0
   21.5971  -21.1750  -19.2125 C   0  0  0  0  0  0  0  0  0  0  0  0
   22.2906  -22.3168  -19.9042 C   0  0  0  0  0  0  0  0  0  0  0  0
   22.3398  -22.1086  -21.3750 C   0  0  0  0  0  0  0  0  0  0  0  0
   23.0549  -23.1558  -22.0774 N   0  0  0  0  0  0  0  0  0  0  0  0
   21.8045  -20.3125  -15.5890 C   0  0  0  0  0  0  0  0  0  0  0  0
   22.5943  -20.9547  -14.8687 O   0  0  0  0  0  0  0  0  0  0  0  0
   20.6223  -19.7908  -15.0185 N   0  0  0  0  0  0  0  0  0  0  0  0
   20.4383  -19.9040  -13.5786 C   0  0  1  0  0  0  0  0  0  0  0  0
   20.6032  -18.5865  -12.8963 C   0  0  0  0  0  0  0  0  0  0  0  0
   19.6569  -17.5930  -13.4483 C   0  0  0  0  0  0  0  0  0  0  0  0
   18.3872  -17.4274  -12.8984 C   0  0  0  0  0  0  0  0  0  0  0  0
   17.5062  -16.4948  -13.3812 C   0  0  0  0  0  0  0  0  0  0  0  0
   17.8701  -15.6896  -14.4400 C   0  0  0  0  0  0  0  0  0  0  0  0
   19.1295  -15.8529  -14.9862 C   0  0  0  0  0  0  0  0  0  0  0  0
   20.0007  -16.7758  -14.5078 C   0  0  0  0  0  0  0  0  0  0  0  0
   19.1157  -20.4953  -13.3145 C   0  0  0  0  0  0  0  0  0  0  0  0
   18.2719  -20.6943  -14.2053 O   0  0  0  0  0  0  0  0  0  0  0  0
   18.7628  -20.8632  -11.9966 O   0  0  0  0  0  0  0  0  0  0  0  0
  2  1  1  0
  3  2  1  0
  4  5  1  0
  4  3  1  0
  5  6  1  6
  7  5  1  0
  7  8  2  0
  9  7  1  0
 10  9  1  0
 10 11  1  6
 12 11  1  0
 12 13  1  0
 13 14  1  0
 14 15  1  0
 16 18  1  0
 16 10  1  0
 17 16  2  0
 19 18  1  0
 19 27  1  0
 19 20  1  1
 21 20  1  0
 21 22  2  0
 23 22  1  0
 24 23  2  0
 25 26  2  0
 25 24  1  0
 26 21  1  0
 27 29  1  0
 28 27  2  0
M  END
$$$$
