MKF.pdb
     RDKit          3D

 29 29  0  0  1  0  0  0  0  0999 V2000
   23.0053  -14.8983  -12.8676 C   0  0  0  0  0  0  0  0  0  0  0  0
   21.2126  -15.1099  -13.0731 S   0  0  0  0  0  0  0  0  0  0  0  0
   20.8278  -16.7534  -13.7445 C   0  0  0  0  0  0  0  0  0  0  0  0
   22.1141  -17.3613  -14.2528 C   0  0  0  0  0  0  0  0  0  0  0  0
   21.8165  -18.7658  -14.7531 C   0  0  2  0  0  0  0  0  0  0  0  0
   20.4017  -18.9852  -14.8191 N   0  0  0  0  0  0  0  0  0  0  0  0
   22.4283  -19.7678  -13.8580 C   0  0  0  0  0  0  0  0  0  0  0  0
   21.7629  -20.4138  -12.9982 O   0  0  0  0  0  0  0  0  0  0  0  0
   23.8190  -20.0538  -13.9271 N   0  0  0  0  0  0  0  0  0  0  0  0
   24.4189  -21.2433  -13.3560 C   0  0  1  0  0  0  0  0  0  0  0  0
   25.4206  -21.7346  -14.4166 C   0  0  0  0  0  0  0  0  0  0  0  0
   25.3186  -23.2283  -14.5733 C   0  0  0  0  0  0  0  0  0  0  0  0
   26.2408  -23.6820  -15.6718 C   0  0  0  0  0  0  0  0  0  0  0  0
   26.1733  -25.1546  -15.8611 C   0  0  0  0  0  0  0  0  0  0  0  0
   24.8174  -25.6668  -15.8846 N   0  0  0  0  0  0  0  0  0  0  0  0
   25.2375  -20.8758  -12.1859 C   0  0  0  0  0  0  0  0  0  0  0  0
   26.2355  -20.1445  -12.3416 O   0  0  0  0  0  0  0  0  0  0  0  0
   24.9165  -21.3346  -10.8891 N   0  0  0  0  0  0  0  0  0  0  0  0
   25.9082  -21.1823   -9.8340 C   0  0  1  0  0  0  0  0  0  0  0  0
   26.4233  -19.7832   -9.7592 C   0  0  0  0  0  0  0  0  0  0  0  0
   27.3270  -19.6232   -8.5995 C   0  0  0  0  0  0  0  0  0  0  0  0
   27.1514  -18.5818   -7.6902 C   0  0  0  0  0  0  0  0  0  0  0  0
   27.9640  -18.4324   -6.5964 C   0  0  0  0  0  0  0  0  0  0  0  0
   28.9885  -19.3283   -6.3743 C   0  0  0  0  0  0  0  0  0  0  0  0
   29.1635  -20.3618   -7.2755 C   0  0  0  0  0  0  0  0  0  0  0  0
   28.3590  -20.5091   -8.3575 C   0  0  0  0  0  0  0  0  0  0  0  0
   25.3137  -21.6156   -8.5583 C   0  0  0  0  0  0  0  0  0  0  0  0
   25.9308  -22.2927   -7.7181 O   0  0  0  0  0  0  0  0  0  0  0  0
   23.9818  -21.2593   -8.2485 O   0  0  0  0  0  0  0  0  0  0  0  0
  2  1  1  0
  3  2  1  0
  4  5  1  0
  4  3  1  0
  5  6  1  1
  7  5  1  0
  7  8  2  0
  9  7  1  0
 10  9  1  0
 10 11  1  6
 12 11  1  0
 12 13  1  0
 13 14  1  0
 14 15  1  0
 16 18  1  0
 16 10  1  0
 17 16  2  0
 19 18  1  0
 19 27  1  0
 19 20  1  1
 21 20  1  0
 21 22  2  0
 23 22  1  0
 24 23  2  0
 25 26  2  0
 25 24  1  0
 26 21  1  0
 27 29  1  0
 28 27  2  0
M  END
$$$$
