MKF.pdb
     RDKit          3D

 29 29  0  0  1  0  0  0  0  0999 V2000
   15.3999  -31.6570  -12.0115 C   0  0  0  0  0  0  0  0  0  0  0  0
   17.0482  -31.2488  -11.3654 S   0  0  0  0  0  0  0  0  0  0  0  0
   17.7344  -29.7966  -12.2140 C   0  0  0  0  0  0  0  0  0  0  0  0
   19.1029  -29.5230  -11.6354 C   0  0  0  0  0  0  0  0  0  0  0  0
   19.6384  -28.2416  -12.2541 C   0  0  2  0  0  0  0  0  0  0  0  0
   20.8998  -28.4813  -12.8909 N   0  0  0  0  0  0  0  0  0  0  0  0
   19.8000  -27.2022  -11.2183 C   0  0  0  0  0  0  0  0  0  0  0  0
   20.7727  -27.1872  -10.4102 O   0  0  0  0  0  0  0  0  0  0  0  0
   18.8496  -26.1537  -11.0835 N   0  0  0  0  0  0  0  0  0  0  0  0
   18.9529  -25.1054  -10.0879 C   0  0  1  0  0  0  0  0  0  0  0  0
   18.4779  -23.8273  -10.8022 C   0  0  0  0  0  0  0  0  0  0  0  0
   19.5557  -23.3153  -11.7199 C   0  0  0  0  0  0  0  0  0  0  0  0
   19.0316  -22.1444  -12.5057 C   0  0  0  0  0  0  0  0  0  0  0  0
   20.0589  -21.6180  -13.4420 C   0  0  0  0  0  0  0  0  0  0  0  0
   19.5883  -20.5024  -14.2392 N   0  0  0  0  0  0  0  0  0  0  0  0
   17.9709  -25.3405   -9.0132 C   0  0  0  0  0  0  0  0  0  0  0  0
   16.8549  -25.8189   -9.2969 O   0  0  0  0  0  0  0  0  0  0  0  0
   18.2663  -25.0351   -7.6661 N   0  0  0  0  0  0  0  0  0  0  0  0
   17.3734  -25.5340   -6.6299 C   0  0  1  0  0  0  0  0  0  0  0  0
   17.2555  -27.0216   -6.6728 C   0  0  0  0  0  0  0  0  0  0  0  0
   16.4025  -27.5077   -5.5668 C   0  0  0  0  0  0  0  0  0  0  0  0
   15.0135  -27.4217   -5.6396 C   0  0  0  0  0  0  0  0  0  0  0  0
   14.2065  -27.8893   -4.6351 C   0  0  0  0  0  0  0  0  0  0  0  0
   14.7680  -28.4638   -3.5142 C   0  0  0  0  0  0  0  0  0  0  0  0
   16.1457  -28.5498   -3.4409 C   0  0  0  0  0  0  0  0  0  0  0  0
   16.9436  -28.0869   -4.4353 C   0  0  0  0  0  0  0  0  0  0  0  0
   17.8546  -25.0607   -5.3210 C   0  0  0  0  0  0  0  0  0  0  0  0
   17.0914  -24.7359   -4.3951 O   0  0  0  0  0  0  0  0  0  0  0  0
   19.2432  -24.9613   -5.0786 O   0  0  0  0  0  0  0  0  0  0  0  0
  2  1  1  0
  3  2  1  0
  4  5  1  0
  4  3  1  0
  5  6  1  1
  7  5  1  0
  7  8  2  0
  9  7  1  0
 10  9  1  0
 10 11  1  6
 12 11  1  0
 12 13  1  0
 13 14  1  0
 14 15  1  0
 16 18  1  0
 16 10  1  0
 17 16  2  0
 19 18  1  0
 19 27  1  0
 19 20  1  1
 21 20  1  0
 21 22  2  0
 23 22  1  0
 24 23  2  0
 25 26  2  0
 25 24  1  0
 26 21  1  0
 27 29  1  0
 28 27  2  0
M  END
$$$$
