MKF.pdb
     RDKit          3D

 29 29  0  0  1  0  0  0  0  0999 V2000
   16.2351  -22.4263  -13.2078 C   0  0  0  0  0  0  0  0  0  0  0  0
   17.9170  -22.7775  -12.6173 S   0  0  0  0  0  0  0  0  0  0  0  0
   19.1579  -22.1137  -13.7660 C   0  0  0  0  0  0  0  0  0  0  0  0
   20.5203  -22.3085  -13.1428 C   0  0  0  0  0  0  0  0  0  0  0  0
   21.5649  -21.7227  -14.0793 C   0  0  2  0  0  0  0  0  0  0  0  0
   21.4336  -22.2848  -15.3912 N   0  0  0  0  0  0  0  0  0  0  0  0
   22.9220  -21.9902  -13.5633 C   0  0  0  0  0  0  0  0  0  0  0  0
   23.4490  -23.1395  -13.5882 O   0  0  0  0  0  0  0  0  0  0  0  0
   23.7084  -20.9456  -13.0057 N   0  0  0  0  0  0  0  0  0  0  0  0
   25.0570  -21.1386  -12.5106 C   0  0  1  0  0  0  0  0  0  0  0  0
   25.9044  -20.0765  -13.2340 C   0  0  0  0  0  0  0  0  0  0  0  0
   27.1294  -20.7120  -13.8351 C   0  0  0  0  0  0  0  0  0  0  0  0
   26.7546  -21.4183  -15.1094 C   0  0  0  0  0  0  0  0  0  0  0  0
   27.9337  -22.0773  -15.7295 C   0  0  0  0  0  0  0  0  0  0  0  0
   28.6488  -21.2190  -16.6532 N   0  0  0  0  0  0  0  0  0  0  0  0
   25.1189  -20.7810  -11.0814 C   0  0  0  0  0  0  0  0  0  0  0  0
   24.4269  -19.8349  -10.6559 O   0  0  0  0  0  0  0  0  0  0  0  0
   25.9465  -21.4874  -10.1807 N   0  0  0  0  0  0  0  0  0  0  0  0
   26.3155  -20.8445   -8.9275 C   0  0  1  0  0  0  0  0  0  0  0  0
   27.5084  -21.4917   -8.3059 C   0  0  0  0  0  0  0  0  0  0  0  0
   27.9321  -20.7504   -7.0984 C   0  0  0  0  0  0  0  0  0  0  0  0
   27.1760  -20.7907   -5.9285 C   0  0  0  0  0  0  0  0  0  0  0  0
   27.5659  -20.1300   -4.7925 C   0  0  0  0  0  0  0  0  0  0  0  0
   28.7361  -19.4004   -4.7897 C   0  0  0  0  0  0  0  0  0  0  0  0
   29.4871  -19.3598   -5.9496 C   0  0  0  0  0  0  0  0  0  0  0  0
   29.1007  -20.0140   -7.0732 C   0  0  0  0  0  0  0  0  0  0  0  0
   26.5391  -19.4106   -9.1779 C   0  0  0  0  0  0  0  0  0  0  0  0
   25.9418  -18.5131   -8.5592 O   0  0  0  0  0  0  0  0  0  0  0  0
   27.4703  -19.0075  -10.1614 O   0  0  0  0  0  0  0  0  0  0  0  0
  2  1  1  0
  3  2  1  0
  4  5  1  0
  4  3  1  0
  5  6  1  6
  7  5  1  0
  7  8  2  0
  9  7  1  0
 10  9  1  0
 10 11  1  6
 12 11  1  0
 12 13  1  0
 13 14  1  0
 14 15  1  0
 16 18  1  0
 16 10  1  0
 17 16  2  0
 19 18  1  0
 19 27  1  0
 19 20  1  6
 21 20  1  0
 21 22  2  0
 23 22  1  0
 24 23  2  0
 25 26  2  0
 25 24  1  0
 26 21  1  0
 27 29  1  0
 28 27  2  0
M  END
$$$$
