MKF.pdb
     RDKit          3D

 29 29  0  0  1  0  0  0  0  0999 V2000
   26.6054  -19.5376   -6.5217 C   0  0  0  0  0  0  0  0  0  0  0  0
   25.9677  -20.2159   -8.0818 S   0  0  0  0  0  0  0  0  0  0  0  0
   27.2253  -20.1236   -9.3895 C   0  0  0  0  0  0  0  0  0  0  0  0
   26.5139  -20.1490  -10.7220 C   0  0  0  0  0  0  0  0  0  0  0  0
   25.6748  -21.4148  -10.7943 C   0  0  2  0  0  0  0  0  0  0  0  0
   26.5178  -22.5719  -10.8630 N   0  0  0  0  0  0  0  0  0  0  0  0
   24.7935  -21.3773  -11.9781 C   0  0  0  0  0  0  0  0  0  0  0  0
   25.0346  -22.0346  -13.0313 O   0  0  0  0  0  0  0  0  0  0  0  0
   23.6135  -20.5848  -11.9831 N   0  0  0  0  0  0  0  0  0  0  0  0
   22.6526  -20.5903  -13.0683 C   0  0  1  0  0  0  0  0  0  0  0  0
   21.3638  -20.0041  -12.4643 C   0  0  0  0  0  0  0  0  0  0  0  0
   20.4020  -21.1103  -12.1220 C   0  0  0  0  0  0  0  0  0  0  0  0
   20.2479  -22.0258  -13.3057 C   0  0  0  0  0  0  0  0  0  0  0  0
   19.2095  -23.0599  -13.0582 C   0  0  0  0  0  0  0  0  0  0  0  0
   19.1345  -24.0579  -14.1069 N   0  0  0  0  0  0  0  0  0  0  0  0
   23.0691  -19.6303  -14.1073 C   0  0  0  0  0  0  0  0  0  0  0  0
   23.0971  -18.4126  -13.8406 O   0  0  0  0  0  0  0  0  0  0  0  0
   23.4378  -20.0598  -15.4015 N   0  0  0  0  0  0  0  0  0  0  0  0
   23.7526  -19.0515  -16.4035 C   0  0  1  0  0  0  0  0  0  0  0  0
   25.1410  -19.2104  -16.9286 C   0  0  0  0  0  0  0  0  0  0  0  0
   26.1300  -19.0462  -15.8414 C   0  0  0  0  0  0  0  0  0  0  0  0
   26.4310  -17.7860  -15.3282 C   0  0  0  0  0  0  0  0  0  0  0  0
   27.3265  -17.6172  -14.3043 C   0  0  0  0  0  0  0  0  0  0  0  0
   27.9563  -18.7142  -13.7548 C   0  0  0  0  0  0  0  0  0  0  0  0
   27.6584  -19.9648  -14.2628 C   0  0  0  0  0  0  0  0  0  0  0  0
   26.7720  -20.1309  -15.2760 C   0  0  0  0  0  0  0  0  0  0  0  0
   22.7493  -19.1224  -17.4792 C   0  0  0  0  0  0  0  0  0  0  0  0
   21.8023  -19.9275  -17.4711 O   0  0  0  0  0  0  0  0  0  0  0  0
   22.8428  -18.2463  -18.5840 O   0  0  0  0  0  0  0  0  0  0  0  0
  2  1  1  0
  3  2  1  0
  4  5  1  0
  4  3  1  0
  5  6  1  6
  7  5  1  0
  7  8  2  0
  9  7  1  0
 10  9  1  0
 10 11  1  1
 12 11  1  0
 12 13  1  0
 13 14  1  0
 14 15  1  0
 16 18  1  0
 16 10  1  0
 17 16  2  0
 19 18  1  0
 19 27  1  0
 19 20  1  6
 21 20  1  0
 21 22  2  0
 23 22  1  0
 24 23  2  0
 25 26  2  0
 25 24  1  0
 26 21  1  0
 27 29  1  0
 28 27  2  0
M  END
$$$$
