MKF.pdb
     RDKit          3D

 29 29  0  0  1  0  0  0  0  0999 V2000
   27.3652  -24.9249  -14.9985 C   0  0  0  0  0  0  0  0  0  0  0  0
   27.9763  -24.5482  -16.6675 S   0  0  0  0  0  0  0  0  0  0  0  0
   29.0110  -23.0551  -16.6560 C   0  0  0  0  0  0  0  0  0  0  0  0
   28.7166  -22.2946  -15.3842 C   0  0  0  0  0  0  0  0  0  0  0  0
   27.5536  -21.3513  -15.6470 C   0  0  2  0  0  0  0  0  0  0  0  0
   27.9210  -20.3601  -16.6150 N   0  0  0  0  0  0  0  0  0  0  0  0
   27.1410  -20.6868  -14.3950 C   0  0  0  0  0  0  0  0  0  0  0  0
   27.6573  -19.6048  -13.9926 O   0  0  0  0  0  0  0  0  0  0  0  0
   26.1255  -21.2472  -13.5732 N   0  0  0  0  0  0  0  0  0  0  0  0
   25.5315  -20.5494  -12.4502 C   0  0  1  0  0  0  0  0  0  0  0  0
   24.0135  -20.7434  -12.6164 C   0  0  0  0  0  0  0  0  0  0  0  0
   23.4238  -19.5878  -13.3798 C   0  0  0  0  0  0  0  0  0  0  0  0
   21.9432  -19.7978  -13.5440 C   0  0  0  0  0  0  0  0  0  0  0  0
   21.3331  -18.7247  -14.3717 C   0  0  0  0  0  0  0  0  0  0  0  0
   21.7194  -17.3911  -13.9547 N   0  0  0  0  0  0  0  0  0  0  0  0
   25.8786  -21.2400  -11.1944 C   0  0  0  0  0  0  0  0  0  0  0  0
   26.6616  -22.2100  -11.2248 O   0  0  0  0  0  0  0  0  0  0  0  0
   25.3429  -20.8270   -9.9544 N   0  0  0  0  0  0  0  0  0  0  0  0
   26.1556  -20.9926   -8.7579 C   0  0  1  0  0  0  0  0  0  0  0  0
   27.3188  -20.0570   -8.7473 C   0  0  0  0  0  0  0  0  0  0  0  0
   27.9856  -20.0712   -7.4273 C   0  0  0  0  0  0  0  0  0  0  0  0
   27.6718  -19.1250   -6.4536 C   0  0  0  0  0  0  0  0  0  0  0  0
   28.2617  -19.1377   -5.2164 C   0  0  0  0  0  0  0  0  0  0  0  0
   29.1937  -20.1068   -4.9097 C   0  0  0  0  0  0  0  0  0  0  0  0
   29.5057  -21.0461   -5.8747 C   0  0  0  0  0  0  0  0  0  0  0  0
   28.9214  -21.0329   -7.0988 C   0  0  0  0  0  0  0  0  0  0  0  0
   25.2986  -20.8137   -7.5738 C   0  0  0  0  0  0  0  0  0  0  0  0
   25.4341  -21.4781   -6.5320 O   0  0  0  0  0  0  0  0  0  0  0  0
   24.2663  -19.8489   -7.5948 O   0  0  0  0  0  0  0  0  0  0  0  0
  2  1  1  0
  3  2  1  0
  4  5  1  0
  4  3  1  0
  5  6  1  6
  7  5  1  0
  7  8  2  0
  9  7  1  0
 10  9  1  0
 10 11  1  6
 12 11  1  0
 12 13  1  0
 13 14  1  0
 14 15  1  0
 16 18  1  0
 16 10  1  0
 17 16  2  0
 19 18  1  0
 19 27  1  0
 19 20  1  6
 21 20  1  0
 21 22  2  0
 23 22  1  0
 24 23  2  0
 25 26  2  0
 25 24  1  0
 26 21  1  0
 27 29  1  0
 28 27  2  0
M  END
$$$$
