MKF.pdb
     RDKit          3D

 29 29  0  0  1  0  0  0  0  0999 V2000
   29.6729  -16.4035  -15.6833 C   0  0  0  0  0  0  0  0  0  0  0  0
   30.1824  -16.9847  -17.3275 S   0  0  0  0  0  0  0  0  0  0  0  0
   29.0305  -18.2414  -17.9552 C   0  0  0  0  0  0  0  0  0  0  0  0
   27.9453  -18.4354  -16.9222 C   0  0  0  0  0  0  0  0  0  0  0  0
   26.9812  -19.4948  -17.4318 C   0  0  2  0  0  0  0  0  0  0  0  0
   26.3003  -19.0306  -18.6045 N   0  0  0  0  0  0  0  0  0  0  0  0
   25.9916  -19.8299  -16.3888 C   0  0  0  0  0  0  0  0  0  0  0  0
   24.9687  -19.1212  -16.1635 O   0  0  0  0  0  0  0  0  0  0  0  0
   26.1508  -20.9866  -15.5781 N   0  0  0  0  0  0  0  0  0  0  0  0
   25.2107  -21.3730  -14.5447 C   0  0  1  0  0  0  0  0  0  0  0  0
   24.9557  -22.8732  -14.7767 C   0  0  0  0  0  0  0  0  0  0  0  0
   23.9227  -23.3797  -13.8060 C   0  0  0  0  0  0  0  0  0  0  0  0
   23.6782  -24.8436  -14.0513 C   0  0  0  0  0  0  0  0  0  0  0  0
   22.5797  -25.3597  -13.1935 C   0  0  0  0  0  0  0  0  0  0  0  0
   22.2041  -26.7249  -13.5046 N   0  0  0  0  0  0  0  0  0  0  0  0
   25.8595  -21.2866  -13.2233 C   0  0  0  0  0  0  0  0  0  0  0  0
   26.9585  -21.8472  -13.0425 O   0  0  0  0  0  0  0  0  0  0  0  0
   25.2628  -20.5816  -12.1547 N   0  0  0  0  0  0  0  0  0  0  0  0
   25.8362  -20.7236  -10.8239 C   0  0  1  0  0  0  0  0  0  0  0  0
   26.4617  -19.4521  -10.3544 C   0  0  0  0  0  0  0  0  0  0  0  0
   27.3032  -19.6956   -9.1628 C   0  0  0  0  0  0  0  0  0  0  0  0
   28.1591  -20.7935   -9.0999 C   0  0  0  0  0  0  0  0  0  0  0  0
   28.9641  -21.0215   -8.0142 C   0  0  0  0  0  0  0  0  0  0  0  0
   28.9391  -20.1502   -6.9455 C   0  0  0  0  0  0  0  0  0  0  0  0
   28.0906  -19.0606   -7.0068 C   0  0  0  0  0  0  0  0  0  0  0  0
   27.2944  -18.8357   -8.0816 C   0  0  0  0  0  0  0  0  0  0  0  0
   24.7864  -21.1899   -9.9024 C   0  0  0  0  0  0  0  0  0  0  0  0
   23.5982  -20.8361   -9.9935 O   0  0  0  0  0  0  0  0  0  0  0  0
   25.1166  -22.0814   -8.8569 O   0  0  0  0  0  0  0  0  0  0  0  0
  2  1  1  0
  3  2  1  0
  4  5  1  0
  4  3  1  0
  5  6  1  6
  7  5  1  0
  7  8  2  0
  9  7  1  0
 10  9  1  0
 10 11  1  6
 12 11  1  0
 12 13  1  0
 13 14  1  0
 14 15  1  0
 16 18  1  0
 16 10  1  0
 17 16  2  0
 19 18  1  0
 19 27  1  0
 19 20  1  1
 21 20  1  0
 21 22  2  0
 23 22  1  0
 24 23  2  0
 25 26  2  0
 25 24  1  0
 26 21  1  0
 27 29  1  0
 28 27  2  0
M  END
$$$$
