CKR.pdb
     RDKit          3D

 27 26  0  0  1  0  0  0  0  0999 V2000
    5.2372  -19.1583   21.5212 N   0  0  0  0  0  0  0  0  0  0  0  0
    6.6295  -19.5613   21.3968 C   0  0  1  0  0  0  0  0  0  0  0  0
    6.7273  -20.5088   20.2211 C   0  0  0  0  0  0  0  0  0  0  0  0
    6.2850  -22.2010   20.6839 S   0  0  0  0  0  0  0  0  0  0  0  0
    7.4887  -18.3794   21.0635 C   0  0  0  0  0  0  0  0  0  0  0  0
    8.6782  -18.5391   20.6882 O   0  0  0  0  0  0  0  0  0  0  0  0
    7.0154  -17.0409   21.1518 N   0  0  0  0  0  0  0  0  0  0  0  0
    7.9112  -15.9024   20.9134 C   0  0  1  0  0  0  0  0  0  0  0  0
    7.0261  -14.7396   20.5721 C   0  0  0  0  0  0  0  0  0  0  0  0
    7.7289  -13.5934   19.9243 C   0  0  0  0  0  0  0  0  0  0  0  0
    7.7708  -13.7375   18.4279 C   0  0  0  0  0  0  0  0  0  0  0  0
    8.5887  -12.6726   17.7480 C   0  0  0  0  0  0  0  0  0  0  0  0
    8.6523  -12.9128   16.2994 N   0  0  0  0  0  0  0  0  0  0  0  0
    8.7620  -15.6673   22.1231 C   0  0  0  0  0  0  0  0  0  0  0  0
    8.2407  -15.5470   23.2528 O   0  0  0  0  0  0  0  0  0  0  0  0
   13.9315  -19.5593   27.2690 N   0  0  0  0  0  0  0  0  0  0  0  0
   12.8608  -20.2785   26.6795 C   0  0  0  0  0  0  0  0  0  0  0  0
   12.8466  -21.5579   26.7916 N   0  0  0  0  0  0  0  0  0  0  0  0
   11.8126  -19.6399   25.9754 N   0  0  0  0  0  0  0  0  0  0  0  0
   11.7377  -18.2080   25.8014 C   0  0  0  0  0  0  0  0  0  0  0  0
   12.1812  -17.7826   24.3943 C   0  0  0  0  0  0  0  0  0  0  0  0
   11.0303  -17.3311   23.5537 C   0  0  0  0  0  0  0  0  0  0  0  0
   11.1514  -15.9528   22.9552 C   0  0  2  0  0  0  0  0  0  0  0  0
   10.1673  -15.5768   22.0128 N   0  0  0  0  0  0  0  0  0  0  0  0
   12.5404  -15.6863   22.6034 C   0  0  0  0  0  0  0  0  0  0  0  0
   12.9027  -15.1072   21.3822 O   0  0  0  0  0  0  0  0  0  0  0  0
   13.4756  -15.9704   23.3935 O   0  0  0  0  0  0  0  0  0  0  0  0
  2  1  1  6
  3  4  1  0
  3  2  1  0
  5  2  1  0
  5  6  2  0
  7  5  1  0
  8  7  1  0
  8  9  1  1
 10  9  1  0
 11 12  1  0
 11 10  1  0
 13 12  1  0
 14  8  1  0
 15 14  2  0
 17 19  1  0
 17 16  1  0
 18 17  2  0
 20 19  1  0
 21 20  1  0
 21 22  1  0
 23 22  1  6
 23 24  1  0
 24 14  1  0
 25 26  1  0
 25 23  1  0
 27 25  2  0
M  END
$$$$
