CKR.pdb
     RDKit          3D

 27 26  0  0  1  0  0  0  0  0999 V2000
    4.7005  -13.4230   26.3635 N   0  0  0  0  0  0  0  0  0  0  0  0
    5.9685  -12.8922   25.8869 C   0  0  1  0  0  0  0  0  0  0  0  0
    6.9323  -12.8959   27.0533 C   0  0  0  0  0  0  0  0  0  0  0  0
    8.4830  -12.0575   26.6457 S   0  0  0  0  0  0  0  0  0  0  0  0
    6.5563  -13.7962   24.8461 C   0  0  0  0  0  0  0  0  0  0  0  0
    6.6158  -15.0376   25.0372 O   0  0  0  0  0  0  0  0  0  0  0  0
    7.0682  -13.3093   23.6115 N   0  0  0  0  0  0  0  0  0  0  0  0
    7.6141  -14.2257   22.6027 C   0  0  1  0  0  0  0  0  0  0  0  0
    7.7670  -13.4197   21.3462 C   0  0  0  0  0  0  0  0  0  0  0  0
    8.2202  -14.2013   20.1584 C   0  0  0  0  0  0  0  0  0  0  0  0
    8.3001  -13.3458   18.9240 C   0  0  0  0  0  0  0  0  0  0  0  0
    8.6454  -14.1213   17.6812 C   0  0  0  0  0  0  0  0  0  0  0  0
    8.5356  -13.2678   16.4897 N   0  0  0  0  0  0  0  0  0  0  0  0
    8.9022  -14.8095   23.0952 C   0  0  0  0  0  0  0  0  0  0  0  0
    9.8160  -14.0678   23.5162 O   0  0  0  0  0  0  0  0  0  0  0  0
   11.2571  -19.4136   29.3403 N   0  0  0  0  0  0  0  0  0  0  0  0
   12.1258  -19.3232   28.2230 C   0  0  0  0  0  0  0  0  0  0  0  0
   13.2643  -18.7489   28.3766 N   0  0  0  0  0  0  0  0  0  0  0  0
   11.7846  -19.8408   26.9510 N   0  0  0  0  0  0  0  0  0  0  0  0
   10.7153  -19.3035   26.1423 C   0  0  0  0  0  0  0  0  0  0  0  0
   11.2107  -18.8843   24.7509 C   0  0  0  0  0  0  0  0  0  0  0  0
   10.1078  -18.3399   23.9009 C   0  0  0  0  0  0  0  0  0  0  0  0
   10.2853  -16.9228   23.4182 C   0  0  2  0  0  0  0  0  0  0  0  0
    9.1106  -16.2066   23.0941 N   0  0  0  0  0  0  0  0  0  0  0  0
   11.3838  -16.8594   22.4626 C   0  0  0  0  0  0  0  0  0  0  0  0
   12.7128  -16.6846   22.8642 O   0  0  0  0  0  0  0  0  0  0  0  0
   11.1755  -16.9605   21.2272 O   0  0  0  0  0  0  0  0  0  0  0  0
  2  1  1  1
  3  4  1  0
  3  2  1  0
  5  2  1  0
  5  6  2  0
  7  5  1  0
  8  7  1  0
  8  9  1  6
 10  9  1  0
 11 12  1  0
 11 10  1  0
 13 12  1  0
 14  8  1  0
 15 14  2  0
 17 19  1  0
 17 16  1  0
 18 17  2  0
 20 19  1  0
 21 20  1  0
 21 22  1  0
 23 22  1  6
 23 24  1  0
 24 14  1  0
 25 26  1  0
 25 23  1  0
 27 25  2  0
M  END
$$$$
