CKR.pdb
     RDKit          3D

 27 26  0  0  1  0  0  0  0  0999 V2000
    7.9938  -14.7679   16.4994 N   0  0  0  0  0  0  0  0  0  0  0  0
    8.8765  -14.4440   17.6096 C   0  0  1  0  0  0  0  0  0  0  0  0
    8.3948  -13.1418   18.2111 C   0  0  0  0  0  0  0  0  0  0  0  0
    9.2946  -12.7281   19.7252 S   0  0  0  0  0  0  0  0  0  0  0  0
    8.7628  -15.4787   18.6878 C   0  0  0  0  0  0  0  0  0  0  0  0
    7.6364  -15.8185   19.1317 O   0  0  0  0  0  0  0  0  0  0  0  0
    9.8989  -16.1191   19.2557 N   0  0  0  0  0  0  0  0  0  0  0  0
    9.7633  -17.0303   20.3989 C   0  0  1  0  0  0  0  0  0  0  0  0
   10.8166  -18.0840   20.2196 C   0  0  0  0  0  0  0  0  0  0  0  0
   10.8865  -19.0861   21.3233 C   0  0  0  0  0  0  0  0  0  0  0  0
   11.7757  -20.2461   20.9691 C   0  0  0  0  0  0  0  0  0  0  0  0
   11.8442  -21.2965   22.0448 C   0  0  0  0  0  0  0  0  0  0  0  0
   12.8271  -22.3324   21.6970 N   0  0  0  0  0  0  0  0  0  0  0  0
    9.9025  -16.2616   21.6765 C   0  0  0  0  0  0  0  0  0  0  0  0
   10.9351  -15.5966   21.9086 O   0  0  0  0  0  0  0  0  0  0  0  0
    4.4982  -10.9890   26.2525 N   0  0  0  0  0  0  0  0  0  0  0  0
    5.7191  -11.2885   26.9089 C   0  0  0  0  0  0  0  0  0  0  0  0
    6.3542  -10.3337   27.4875 N   0  0  0  0  0  0  0  0  0  0  0  0
    6.2600  -12.5954   26.9489 N   0  0  0  0  0  0  0  0  0  0  0  0
    6.1926  -13.5109   25.8338 C   0  0  0  0  0  0  0  0  0  0  0  0
    7.5671  -14.1131   25.5091 C   0  0  0  0  0  0  0  0  0  0  0  0
    7.5272  -14.9851   24.2953 C   0  0  0  0  0  0  0  0  0  0  0  0
    8.8344  -15.6220   23.8977 C   0  0  2  0  0  0  0  0  0  0  0  0
    8.8726  -16.2723   22.6432 N   0  0  0  0  0  0  0  0  0  0  0  0
    9.4005  -16.3400   25.0326 C   0  0  0  0  0  0  0  0  0  0  0  0
   10.3724  -15.7730   25.8645 O   0  0  0  0  0  0  0  0  0  0  0  0
    9.0323  -17.5093   25.3095 O   0  0  0  0  0  0  0  0  0  0  0  0
  2  1  1  6
  3  4  1  0
  3  2  1  0
  5  2  1  0
  5  6  2  0
  7  5  1  0
  8  7  1  0
  8  9  1  6
 10  9  1  0
 11 12  1  0
 11 10  1  0
 13 12  1  0
 14  8  1  0
 15 14  2  0
 17 19  1  0
 17 16  1  0
 18 17  2  0
 20 19  1  0
 21 20  1  0
 21 22  1  0
 23 22  1  1
 23 24  1  0
 24 14  1  0
 25 26  1  0
 25 23  1  0
 27 25  2  0
M  END
$$$$
