SFQ.pdb
     RDKit          3D

 27 27  0  0  1  0  0  0  0  0999 V2000
   24.4222   -5.9220  -20.6627 O   0  0  0  0  0  0  0  0  0  0  0  0
   23.2418   -6.1357  -19.9563 C   0  0  0  0  0  0  0  0  0  0  0  0
   23.2229   -7.5241  -19.3548 C   0  0  2  0  0  0  0  0  0  0  0  0
   22.6669   -8.4634  -20.2819 N   0  0  0  0  0  0  0  0  0  0  0  0
   22.3776   -7.5127  -18.1314 C   0  0  0  0  0  0  0  0  0  0  0  0
   21.1121   -7.6639  -18.2008 O   0  0  0  0  0  0  0  0  0  0  0  0
   22.9196   -7.3346  -16.8215 N   0  0  0  0  0  0  0  0  0  0  0  0
   22.0981   -7.3568  -15.6335 C   0  0  1  0  0  0  0  0  0  0  0  0
   22.7749   -8.1199  -14.5167 C   0  0  0  0  0  0  0  0  0  0  0  0
   22.9677   -9.5396  -14.8272 C   0  0  0  0  0  0  0  0  0  0  0  0
   24.2148  -10.1115  -14.7655 C   0  0  0  0  0  0  0  0  0  0  0  0
   24.3714  -11.4616  -15.0651 C   0  0  0  0  0  0  0  0  0  0  0  0
   23.2963  -12.2514  -15.4266 C   0  0  0  0  0  0  0  0  0  0  0  0
   22.0438  -11.6751  -15.4881 C   0  0  0  0  0  0  0  0  0  0  0  0
   21.8919  -10.3283  -15.1886 C   0  0  0  0  0  0  0  0  0  0  0  0
   21.9300   -5.9586  -15.1667 C   0  0  0  0  0  0  0  0  0  0  0  0
   22.9420   -5.3488  -14.7481 O   0  0  0  0  0  0  0  0  0  0  0  0
   22.5840   -1.5587  -17.9174 N   0  0  0  0  0  0  0  0  0  0  0  0
   21.3637   -2.2289  -18.1580 C   0  0  0  0  0  0  0  0  0  0  0  0
   20.8407   -2.1505  -19.2942 O   0  0  0  0  0  0  0  0  0  0  0  0
   20.6454   -3.0408  -17.1203 C   0  0  0  0  0  0  0  0  0  0  0  0
   21.3834   -3.0567  -15.8285 C   0  0  0  0  0  0  0  0  0  0  0  0
   20.6647   -3.8697  -14.7975 C   0  0  2  0  0  0  0  0  0  0  0  0
   20.6864   -5.2923  -15.1746 N   0  0  0  0  0  0  0  0  0  0  0  0
   19.2443   -3.4929  -14.6615 C   0  0  0  0  0  0  0  0  0  0  0  0
   18.9777   -2.3491  -14.1588 O   0  0  0  0  0  0  0  0  0  0  0  0
   18.1828   -4.3214  -15.0564 O   0  0  0  0  0  0  0  0  0  0  0  0
  2  1  1  0
  3  4  1  6
  3  2  1  0
  5  3  1  0
  6  5  2  0
  7  5  1  0
  8 16  1  0
  8  7  1  0
  8  9  1  1
 10  9  1  0
 11 10  2  0
 12 11  1  0
 13 12  2  0
 13 14  1  0
 14 15  2  0
 15 10  1  0
 16 17  2  0
 19 21  1  0
 19 18  1  0
 20 19  2  0
 22 21  1  0
 23 22  1  6
 24 23  1  0
 24 16  1  0
 25 27  1  0
 25 23  1  0
 26 25  2  0
M  END
$$$$
