SFQ.pdb
     RDKit          3D

 27 27  0  0  1  0  0  0  0  0999 V2000
   24.2732  -10.0837  -22.7065 O   0  0  0  0  0  0  0  0  0  0  0  0
   23.8913  -10.3170  -21.3884 C   0  0  0  0  0  0  0  0  0  0  0  0
   25.0706  -10.7890  -20.5658 C   0  0  2  0  0  0  0  0  0  0  0  0
   25.2054  -12.2119  -20.6554 N   0  0  0  0  0  0  0  0  0  0  0  0
   24.8466  -10.4255  -19.1414 C   0  0  0  0  0  0  0  0  0  0  0  0
   24.1372  -11.1597  -18.3753 O   0  0  0  0  0  0  0  0  0  0  0  0
   25.4025   -9.2500  -18.5492 N   0  0  0  0  0  0  0  0  0  0  0  0
   25.2227   -8.9267  -17.1528 C   0  0  1  0  0  0  0  0  0  0  0  0
   26.5545   -8.7615  -16.4555 C   0  0  0  0  0  0  0  0  0  0  0  0
   27.2773  -10.0264  -16.2926 C   0  0  0  0  0  0  0  0  0  0  0  0
   28.3520  -10.3321  -17.0912 C   0  0  0  0  0  0  0  0  0  0  0  0
   29.0213  -11.5397  -16.9164 C   0  0  0  0  0  0  0  0  0  0  0  0
   28.6313  -12.4497  -15.9520 C   0  0  0  0  0  0  0  0  0  0  0  0
   27.5511  -12.1409  -15.1503 C   0  0  0  0  0  0  0  0  0  0  0  0
   26.8863  -10.9355  -15.3278 C   0  0  0  0  0  0  0  0  0  0  0  0
   24.5229   -7.6211  -17.0714 C   0  0  0  0  0  0  0  0  0  0  0  0
   24.8179   -6.7382  -17.9109 O   0  0  0  0  0  0  0  0  0  0  0  0
   19.9189   -5.2275  -19.1656 N   0  0  0  0  0  0  0  0  0  0  0  0
   19.8418   -6.4369  -18.4392 C   0  0  0  0  0  0  0  0  0  0  0  0
   18.8152   -7.1473  -18.5482 O   0  0  0  0  0  0  0  0  0  0  0  0
   20.9308   -6.9296  -17.5318 C   0  0  0  0  0  0  0  0  0  0  0  0
   22.0893   -5.9964  -17.5082 C   0  0  0  0  0  0  0  0  0  0  0  0
   22.8173   -6.0604  -16.2018 C   0  0  2  0  0  0  0  0  0  0  0  0
   23.5459   -7.3348  -16.0946 N   0  0  0  0  0  0  0  0  0  0  0  0
   21.9105   -5.9960  -15.0392 C   0  0  0  0  0  0  0  0  0  0  0  0
   21.3398   -4.8802  -14.7910 O   0  0  0  0  0  0  0  0  0  0  0  0
   21.6456   -7.0912  -14.2029 O   0  0  0  0  0  0  0  0  0  0  0  0
  2  1  1  0
  3  4  1  1
  3  2  1  0
  5  3  1  0
  6  5  2  0
  7  5  1  0
  8 16  1  0
  8  7  1  0
  8  9  1  1
 10  9  1  0
 11 10  2  0
 12 11  1  0
 13 12  2  0
 13 14  1  0
 14 15  2  0
 15 10  1  0
 16 17  2  0
 19 21  1  0
 19 18  1  0
 20 19  2  0
 22 21  1  0
 23 22  1  6
 24 23  1  0
 24 16  1  0
 25 27  1  0
 25 23  1  0
 26 25  2  0
M  END
$$$$
