SFQ.pdb
     RDKit          3D

 27 27  0  0  1  0  0  0  0  0999 V2000
   33.1520  -40.4266   -7.3509 O   0  0  0  0  0  0  0  0  0  0  0  0
   33.7446  -39.5536   -6.4429 C   0  0  0  0  0  0  0  0  0  0  0  0
   33.4564  -38.1161   -6.8176 C   0  0  2  0  0  0  0  0  0  0  0  0
   34.5667  -37.5511   -7.5239 N   0  0  0  0  0  0  0  0  0  0  0  0
   33.2348  -37.3254   -5.5778 C   0  0  0  0  0  0  0  0  0  0  0  0
   34.2148  -36.8442   -4.9165 O   0  0  0  0  0  0  0  0  0  0  0  0
   31.9317  -37.0582   -5.0565 N   0  0  0  0  0  0  0  0  0  0  0  0
   31.7113  -36.1687   -3.9399 C   0  0  1  0  0  0  0  0  0  0  0  0
   31.0443  -34.8870   -4.3870 C   0  0  0  0  0  0  0  0  0  0  0  0
   31.9563  -33.9819   -5.0926 C   0  0  0  0  0  0  0  0  0  0  0  0
   31.6530  -33.5125   -6.3471 C   0  0  0  0  0  0  0  0  0  0  0  0
   32.5357  -32.6541   -6.9958 C   0  0  0  0  0  0  0  0  0  0  0  0
   33.7214  -32.2564   -6.4074 C   0  0  0  0  0  0  0  0  0  0  0  0
   34.0248  -32.7290   -5.1467 C   0  0  0  0  0  0  0  0  0  0  0  0
   33.1417  -33.5849   -4.5031 C   0  0  0  0  0  0  0  0  0  0  0  0
   30.7816  -36.8383   -2.9974 C   0  0  0  0  0  0  0  0  0  0  0  0
   29.8774  -37.5641   -3.4736 O   0  0  0  0  0  0  0  0  0  0  0  0
   29.3889  -39.1904    3.9141 N   0  0  0  0  0  0  0  0  0  0  0  0
   30.0656  -38.4819    2.8961 C   0  0  0  0  0  0  0  0  0  0  0  0
   31.0561  -37.7774    3.2010 O   0  0  0  0  0  0  0  0  0  0  0  0
   29.6641  -38.5224    1.4507 C   0  0  0  0  0  0  0  0  0  0  0  0
   30.4876  -37.5973    0.6264 C   0  0  0  0  0  0  0  0  0  0  0  0
   29.9419  -37.4676   -0.7614 C   0  0  2  0  0  0  0  0  0  0  0  0
   30.8731  -36.6924   -1.5970 N   0  0  0  0  0  0  0  0  0  0  0  0
   28.6493  -36.7566   -0.8025 C   0  0  0  0  0  0  0  0  0  0  0  0
   27.5917  -37.4305   -0.5585 O   0  0  0  0  0  0  0  0  0  0  0  0
   28.5274  -35.3888   -1.0913 O   0  0  0  0  0  0  0  0  0  0  0  0
  2  1  1  0
  3  4  1  1
  3  2  1  0
  5  3  1  0
  6  5  2  0
  7  5  1  0
  8 16  1  0
  8  7  1  0
  8  9  1  6
 10  9  1  0
 11 10  2  0
 12 11  1  0
 13 12  2  0
 13 14  1  0
 14 15  2  0
 15 10  1  0
 16 17  2  0
 19 21  1  0
 19 18  1  0
 20 19  2  0
 22 21  1  0
 23 22  1  1
 24 23  1  0
 24 16  1  0
 25 27  1  0
 25 23  1  0
 26 25  2  0
M  END
$$$$
