SFQ.pdb
     RDKit          3D

 27 27  0  0  1  0  0  0  0  0999 V2000
   21.6556  -13.1892  -18.4288 O   0  0  0  0  0  0  0  0  0  0  0  0
   23.0108  -13.0770  -18.7266 C   0  0  0  0  0  0  0  0  0  0  0  0
   23.8547  -13.5076  -17.5466 C   0  0  2  0  0  0  0  0  0  0  0  0
   23.4982  -14.8318  -17.1335 N   0  0  0  0  0  0  0  0  0  0  0  0
   23.6131  -12.5786  -16.4110 C   0  0  0  0  0  0  0  0  0  0  0  0
   22.8034  -12.8795  -15.4713 O   0  0  0  0  0  0  0  0  0  0  0  0
   24.2616  -11.3102  -16.3013 N   0  0  0  0  0  0  0  0  0  0  0  0
   23.9477  -10.3676  -15.2526 C   0  0  1  0  0  0  0  0  0  0  0  0
   25.2062   -9.7994  -14.6355 C   0  0  0  0  0  0  0  0  0  0  0  0
   26.3384   -9.7700  -15.5662 C   0  0  0  0  0  0  0  0  0  0  0  0
   27.3297  -10.7182  -15.5004 C   0  0  0  0  0  0  0  0  0  0  0  0
   28.3942  -10.6682  -16.3956 C   0  0  0  0  0  0  0  0  0  0  0  0
   28.4830   -9.6812  -17.3590 C   0  0  0  0  0  0  0  0  0  0  0  0
   27.4860   -8.7290  -17.4237 C   0  0  0  0  0  0  0  0  0  0  0  0
   26.4261   -8.7824  -16.5291 C   0  0  0  0  0  0  0  0  0  0  0  0
   23.2103   -9.2335  -15.8617 C   0  0  0  0  0  0  0  0  0  0  0  0
   23.2048   -9.1342  -17.1112 O   0  0  0  0  0  0  0  0  0  0  0  0
   18.4973   -9.6067  -17.9069 N   0  0  0  0  0  0  0  0  0  0  0  0
   18.5164   -8.1941  -17.9274 C   0  0  0  0  0  0  0  0  0  0  0  0
   17.6244   -7.5831  -18.5610 O   0  0  0  0  0  0  0  0  0  0  0  0
   19.5554   -7.3690  -17.2261 C   0  0  0  0  0  0  0  0  0  0  0  0
   20.5262   -8.2211  -16.4879 C   0  0  0  0  0  0  0  0  0  0  0  0
   21.5632   -7.3942  -15.7938 C   0  0  2  0  0  0  0  0  0  0  0  0
   22.5200   -8.2692  -15.0973 N   0  0  0  0  0  0  0  0  0  0  0  0
   20.9889   -6.5004  -14.7695 C   0  0  0  0  0  0  0  0  0  0  0  0
   20.9931   -6.9044  -13.5575 O   0  0  0  0  0  0  0  0  0  0  0  0
   20.4460   -5.2393  -15.0595 O   0  0  0  0  0  0  0  0  0  0  0  0
  2  1  1  0
  3  4  1  1
  3  2  1  0
  5  3  1  0
  6  5  2  0
  7  5  1  0
  8 16  1  0
  8  7  1  0
  8  9  1  6
 10  9  1  0
 11 10  2  0
 12 11  1  0
 13 12  2  0
 13 14  1  0
 14 15  2  0
 15 10  1  0
 16 17  2  0
 19 21  1  0
 19 18  1  0
 20 19  2  0
 22 21  1  0
 23 22  1  1
 24 23  1  0
 24 16  1  0
 25 27  1  0
 25 23  1  0
 26 25  2  0
M  END
$$$$
