SFQ.pdb
     RDKit          3D

 27 27  0  0  1  0  0  0  0  0999 V2000
   25.9209  -20.1389  -17.3349 O   0  0  0  0  0  0  0  0  0  0  0  0
   27.2888  -20.3743  -17.2291 C   0  0  0  0  0  0  0  0  0  0  0  0
   27.5520  -21.6989  -16.5464 C   0  0  2  0  0  0  0  0  0  0  0  0
   27.1543  -22.7847  -17.3912 N   0  0  0  0  0  0  0  0  0  0  0  0
   26.7591  -21.7645  -15.2900 C   0  0  0  0  0  0  0  0  0  0  0  0
   25.6929  -22.4623  -15.2167 O   0  0  0  0  0  0  0  0  0  0  0  0
   27.1346  -21.0617  -14.1040 N   0  0  0  0  0  0  0  0  0  0  0  0
   26.3883  -21.1677  -12.8717 C   0  0  1  0  0  0  0  0  0  0  0  0
   27.1257  -20.5056  -11.7291 C   0  0  0  0  0  0  0  0  0  0  0  0
   26.3632  -20.5072  -10.4771 C   0  0  0  0  0  0  0  0  0  0  0  0
   26.2954  -21.6337   -9.6945 C   0  0  0  0  0  0  0  0  0  0  0  0
   25.5648  -21.6094   -8.5102 C   0  0  0  0  0  0  0  0  0  0  0  0
   24.8984  -20.4720   -8.0949 C   0  0  0  0  0  0  0  0  0  0  0  0
   24.9674  -19.3408   -8.8826 C   0  0  0  0  0  0  0  0  0  0  0  0
   25.6972  -19.3692  -10.0629 C   0  0  0  0  0  0  0  0  0  0  0  0
   25.1090  -20.4371  -13.0466 C   0  0  0  0  0  0  0  0  0  0  0  0
   25.1253  -19.3607  -13.6888 O   0  0  0  0  0  0  0  0  0  0  0  0
   21.6541  -21.1570  -17.0869 N   0  0  0  0  0  0  0  0  0  0  0  0
   20.8074  -20.3444  -16.3003 C   0  0  0  0  0  0  0  0  0  0  0  0
   19.7610  -19.8821  -16.8121 O   0  0  0  0  0  0  0  0  0  0  0  0
   21.0891  -19.9961  -14.8680 C   0  0  0  0  0  0  0  0  0  0  0  0
   22.3720  -20.5880  -14.4017 C   0  0  0  0  0  0  0  0  0  0  0  0
   22.6481  -20.2393  -12.9724 C   0  0  2  0  0  0  0  0  0  0  0  0
   23.8837  -20.9012  -12.5234 N   0  0  0  0  0  0  0  0  0  0  0  0
   21.5776  -20.6842  -12.0591 C   0  0  0  0  0  0  0  0  0  0  0  0
   21.6274  -21.8844  -11.6240 O   0  0  0  0  0  0  0  0  0  0  0  0
   20.5193  -19.8597  -11.6476 O   0  0  0  0  0  0  0  0  0  0  0  0
  2  1  1  0
  3  4  1  6
  3  2  1  0
  5  3  1  0
  6  5  2  0
  7  5  1  0
  8 16  1  0
  8  7  1  0
  8  9  1  1
 10  9  1  0
 11 10  2  0
 12 11  1  0
 13 12  2  0
 13 14  1  0
 14 15  2  0
 15 10  1  0
 16 17  2  0
 19 21  1  0
 19 18  1  0
 20 19  2  0
 22 21  1  0
 23 22  1  6
 24 23  1  0
 24 16  1  0
 25 27  1  0
 25 23  1  0
 26 25  2  0
M  END
$$$$
