SFQ.pdb
     RDKit          3D

 27 27  0  0  1  0  0  0  0  0999 V2000
   27.0726  -19.0186  -15.5866 O   0  0  0  0  0  0  0  0  0  0  0  0
   27.7671  -18.6252  -14.4461 C   0  0  0  0  0  0  0  0  0  0  0  0
   28.3335  -19.8282  -13.7236 C   0  0  2  0  0  0  0  0  0  0  0  0
   28.9273  -20.7381  -14.6566 N   0  0  0  0  0  0  0  0  0  0  0  0
   27.2325  -20.5323  -13.0142 C   0  0  0  0  0  0  0  0  0  0  0  0
   26.7561  -21.6303  -13.4575 O   0  0  0  0  0  0  0  0  0  0  0  0
   26.6472  -20.0324  -11.8105 N   0  0  0  0  0  0  0  0  0  0  0  0
   25.5839  -20.7250  -11.1202 C   0  0  1  0  0  0  0  0  0  0  0  0
   25.3588  -20.1435   -9.7423 C   0  0  0  0  0  0  0  0  0  0  0  0
   26.5447  -20.2261   -8.8844 C   0  0  0  0  0  0  0  0  0  0  0  0
   26.7617  -19.3027   -7.8912 C   0  0  0  0  0  0  0  0  0  0  0  0
   27.8955  -19.4032   -7.0902 C   0  0  0  0  0  0  0  0  0  0  0  0
   28.8187  -20.4162   -7.2677 C   0  0  0  0  0  0  0  0  0  0  0  0
   28.5990  -21.3433   -8.2663 C   0  0  0  0  0  0  0  0  0  0  0  0
   27.4672  -21.2396   -9.0629 C   0  0  0  0  0  0  0  0  0  0  0  0
   24.3311  -20.5228  -11.8888 C   0  0  0  0  0  0  0  0  0  0  0  0
   24.2686  -19.5465  -12.6724 O   0  0  0  0  0  0  0  0  0  0  0  0
   19.1822  -22.6273  -15.0338 N   0  0  0  0  0  0  0  0  0  0  0  0
   20.4824  -22.6420  -15.5863 C   0  0  0  0  0  0  0  0  0  0  0  0
   20.6996  -23.3289  -16.6118 O   0  0  0  0  0  0  0  0  0  0  0  0
   21.6361  -21.8737  -15.0112 C   0  0  0  0  0  0  0  0  0  0  0  0
   21.9607  -22.3231  -13.6306 C   0  0  0  0  0  0  0  0  0  0  0  0
   22.0851  -21.1633  -12.6924 C   0  0  2  0  0  0  0  0  0  0  0  0
   23.2152  -21.3786  -11.7744 N   0  0  0  0  0  0  0  0  0  0  0  0
   20.8879  -20.9804  -11.8490 C   0  0  0  0  0  0  0  0  0  0  0  0
   20.0919  -20.0259  -12.1449 O   0  0  0  0  0  0  0  0  0  0  0  0
   20.5834  -21.7980  -10.7499 O   0  0  0  0  0  0  0  0  0  0  0  0
  2  1  1  0
  3  4  1  6
  3  2  1  0
  5  3  1  0
  6  5  2  0
  7  5  1  0
  8 16  1  0
  8  7  1  0
  8  9  1  1
 10  9  1  0
 11 10  2  0
 12 11  1  0
 13 12  2  0
 13 14  1  0
 14 15  2  0
 15 10  1  0
 16 17  2  0
 19 21  1  0
 19 18  1  0
 20 19  2  0
 22 21  1  0
 23 22  1  6
 24 23  1  0
 24 16  1  0
 25 27  1  0
 25 23  1  0
 26 25  2  0
M  END
$$$$
