SFQ.pdb
     RDKit          3D

 27 27  0  0  1  0  0  0  0  0999 V2000
   16.7002  -11.2797  -20.2497 O   0  0  0  0  0  0  0  0  0  0  0  0
   17.9161  -11.0065  -19.6296 C   0  0  0  0  0  0  0  0  0  0  0  0
   17.9943  -11.6903  -18.2819 C   0  0  2  0  0  0  0  0  0  0  0  0
   16.7669  -12.3696  -17.9938 N   0  0  0  0  0  0  0  0  0  0  0  0
   18.2241  -10.6656  -17.2291 C   0  0  0  0  0  0  0  0  0  0  0  0
   17.2697  -10.2520  -16.4894 O   0  0  0  0  0  0  0  0  0  0  0  0
   19.5076  -10.0881  -16.9827 N   0  0  0  0  0  0  0  0  0  0  0  0
   19.6990   -8.9876  -16.0666 C   0  0  1  0  0  0  0  0  0  0  0  0
   21.1119   -8.9665  -15.5274 C   0  0  0  0  0  0  0  0  0  0  0  0
   21.3564   -7.8551  -14.6033 C   0  0  0  0  0  0  0  0  0  0  0  0
   21.9741   -6.7055  -15.0312 C   0  0  0  0  0  0  0  0  0  0  0  0
   22.1947   -5.6646  -14.1341 C   0  0  0  0  0  0  0  0  0  0  0  0
   21.8057   -5.7558  -12.8110 C   0  0  0  0  0  0  0  0  0  0  0  0
   21.1851   -6.9117  -12.3826 C   0  0  0  0  0  0  0  0  0  0  0  0
   20.9670   -7.9475  -13.2805 C   0  0  0  0  0  0  0  0  0  0  0  0
   19.5008   -7.7249  -16.8198 C   0  0  0  0  0  0  0  0  0  0  0  0
   19.9612   -7.6514  -17.9833 O   0  0  0  0  0  0  0  0  0  0  0  0
   15.9026   -3.8509  -20.4115 N   0  0  0  0  0  0  0  0  0  0  0  0
   15.8135   -4.0632  -19.0175 C   0  0  0  0  0  0  0  0  0  0  0  0
   14.7196   -4.4278  -18.5267 O   0  0  0  0  0  0  0  0  0  0  0  0
   16.9663   -3.8756  -18.0752 C   0  0  0  0  0  0  0  0  0  0  0  0
   17.1857   -5.0804  -17.2303 C   0  0  0  0  0  0  0  0  0  0  0  0
   18.6379   -5.4339  -17.1476 C   0  0  2  0  0  0  0  0  0  0  0  0
   18.8200   -6.6115  -16.2836 N   0  0  0  0  0  0  0  0  0  0  0  0
   19.4561   -4.3536  -16.5630 C   0  0  0  0  0  0  0  0  0  0  0  0
   19.5438   -4.2964  -15.2897 O   0  0  0  0  0  0  0  0  0  0  0  0
   20.1376   -3.3972  -17.3309 O   0  0  0  0  0  0  0  0  0  0  0  0
  2  1  1  0
  3  4  1  1
  3  2  1  0
  5  3  1  0
  6  5  2  0
  7  5  1  0
  8 16  1  0
  8  7  1  0
  8  9  1  6
 10  9  1  0
 11 10  2  0
 12 11  1  0
 13 12  2  0
 13 14  1  0
 14 15  2  0
 15 10  1  0
 16 17  2  0
 19 21  1  0
 19 18  1  0
 20 19  2  0
 22 21  1  0
 23 22  1  1
 24 23  1  0
 24 16  1  0
 25 27  1  0
 25 23  1  0
 26 25  2  0
M  END
$$$$
