TYV.pdb
     RDKit          3D

 27 27  0  0  1  0  0  0  0  0999 V2000
    9.0157  -19.5062   20.4075 C   0  0  0  0  0  0  0  0  0  0  0  0
    9.7698  -18.7259   19.3606 C   0  0  1  0  0  0  0  0  0  0  0  0
    9.7955  -19.4183   18.1614 O   0  0  0  0  0  0  0  0  0  0  0  0
    9.2619  -17.3155   19.2145 C   0  0  2  0  0  0  0  0  0  0  0  0
    9.9544  -16.6716   18.1190 N   0  0  0  0  0  0  0  0  0  0  0  0
    9.3984  -16.4997   20.4190 C   0  0  0  0  0  0  0  0  0  0  0  0
   10.5366  -16.1194   20.7895 O   0  0  0  0  0  0  0  0  0  0  0  0
    7.3353  -12.0878   27.8330 O   0  0  0  0  0  0  0  0  0  0  0  0
    7.2735  -12.7588   26.6042 C   0  0  0  0  0  0  0  0  0  0  0  0
    6.7204  -14.0194   26.5021 C   0  0  0  0  0  0  0  0  0  0  0  0
    6.6360  -14.7197   25.3197 C   0  0  0  0  0  0  0  0  0  0  0  0
    7.1235  -14.1491   24.1684 C   0  0  0  0  0  0  0  0  0  0  0  0
    7.0682  -14.8440   22.8521 C   0  0  0  0  0  0  0  0  0  0  0  0
    8.4450  -15.4160   22.4932 C   0  0  2  0  0  0  0  0  0  0  0  0
    8.3068  -16.0863   21.2356 N   0  0  0  0  0  0  0  0  0  0  0  0
    8.8026  -16.3419   23.5979 C   0  0  0  0  0  0  0  0  0  0  0  0
    8.1063  -17.3629   23.8202 O   0  0  0  0  0  0  0  0  0  0  0  0
    7.6796  -12.8921   24.2479 C   0  0  0  0  0  0  0  0  0  0  0  0
    7.7570  -12.2031   25.4389 C   0  0  0  0  0  0  0  0  0  0  0  0
   12.2446  -18.3607   26.4074 C   0  0  0  0  0  0  0  0  0  0  0  0
   11.8114  -17.3649   25.3849 C   0  0  1  0  0  0  0  0  0  0  0  0
   12.2072  -17.8131   24.0159 C   0  0  0  0  0  0  0  0  0  0  0  0
   10.3163  -17.1121   25.4098 C   0  0  2  0  0  0  0  0  0  0  0  0
    9.9267  -16.1209   24.4387 N   0  0  0  0  0  0  0  0  0  0  0  0
    9.8666  -16.7494   26.7766 C   0  0  0  0  0  0  0  0  0  0  0  0
    9.7090  -15.5637   27.1456 O   0  0  0  0  0  0  0  0  0  0  0  0
    9.6083  -17.7585   27.6876 O   0  0  0  0  0  0  0  0  0  0  0  0
  2  1  1  1
  2  3  1  0
  4  2  1  0
  4  5  1  6
  6  4  1  0
  6  7  2  0
  8  9  1  0
  9 10  2  0
 10 11  1  0
 12 11  2  0
 12 13  1  0
 14 15  1  0
 14 13  1  1
 15  6  1  0
 16 14  1  0
 17 16  2  0
 18 12  1  0
 19  9  1  0
 19 18  2  0
 21 20  1  1
 21 22  1  0
 23 21  1  0
 23 24  1  6
 24 16  1  0
 25 27  1  0
 25 23  1  0
 26 25  2  0
M  END
$$$$
