TYV.pdb
     RDKit          3D

 27 27  0  0  1  0  0  0  0  0999 V2000
    8.2470  -14.1884   20.5689 C   0  0  0  0  0  0  0  0  0  0  0  0
    7.2225  -15.1465   20.0160 C   0  0  1  0  0  0  0  0  0  0  0  0
    7.2027  -15.0935   18.6322 O   0  0  0  0  0  0  0  0  0  0  0  0
    7.3933  -16.5452   20.5484 C   0  0  2  0  0  0  0  0  0  0  0  0
    6.3611  -17.3946   19.9941 N   0  0  0  0  0  0  0  0  0  0  0  0
    7.3670  -16.6407   22.0062 C   0  0  0  0  0  0  0  0  0  0  0  0
    6.2691  -16.5990   22.6146 O   0  0  0  0  0  0  0  0  0  0  0  0
    9.5611  -18.1762   30.3960 O   0  0  0  0  0  0  0  0  0  0  0  0
    9.5799  -18.0569   28.9998 C   0  0  0  0  0  0  0  0  0  0  0  0
   10.5189  -17.2738   28.3591 C   0  0  0  0  0  0  0  0  0  0  0  0
   10.5795  -17.1239   26.9919 C   0  0  0  0  0  0  0  0  0  0  0  0
    9.6640  -17.7818   26.2059 C   0  0  0  0  0  0  0  0  0  0  0  0
    9.6655  -17.6694   24.7207 C   0  0  0  0  0  0  0  0  0  0  0  0
    8.5160  -16.7685   24.2532 C   0  0  2  0  0  0  0  0  0  0  0  0
    8.5266  -16.7823   22.8216 N   0  0  0  0  0  0  0  0  0  0  0  0
    8.7987  -15.4226   24.8138 C   0  0  0  0  0  0  0  0  0  0  0  0
    9.7695  -14.7495   24.3884 O   0  0  0  0  0  0  0  0  0  0  0  0
    8.7184  -18.5683   26.8246 C   0  0  0  0  0  0  0  0  0  0  0  0
    8.6701  -18.7087   28.1947 C   0  0  0  0  0  0  0  0  0  0  0  0
    6.7133  -12.3398   24.8798 C   0  0  0  0  0  0  0  0  0  0  0  0
    7.1493  -12.5923   26.2837 C   0  0  1  0  0  0  0  0  0  0  0  0
    6.0193  -13.1397   27.0931 C   0  0  0  0  0  0  0  0  0  0  0  0
    8.3262  -13.5451   26.3692 C   0  0  2  0  0  0  0  0  0  0  0  0
    8.0003  -14.8444   25.8373 N   0  0  0  0  0  0  0  0  0  0  0  0
    8.8329  -13.6319   27.7612 C   0  0  0  0  0  0  0  0  0  0  0  0
    8.7314  -14.6684   28.4556 O   0  0  0  0  0  0  0  0  0  0  0  0
    9.4447  -12.5249   28.3225 O   0  0  0  0  0  0  0  0  0  0  0  0
  2  1  1  6
  2  3  1  0
  4  2  1  0
  4  5  1  6
  6  4  1  0
  6  7  2  0
  8  9  1  0
  9 10  2  0
 10 11  1  0
 12 11  2  0
 12 13  1  0
 14 15  1  0
 14 13  1  1
 15  6  1  0
 16 14  1  0
 17 16  2  0
 18 12  1  0
 19  9  1  0
 19 18  2  0
 21 20  1  6
 21 22  1  0
 23 21  1  0
 23 24  1  1
 24 16  1  0
 25 27  1  0
 25 23  1  0
 26 25  2  0
M  END
$$$$
