TYV.pdb
     RDKit          3D

 27 27  0  0  1  0  0  0  0  0999 V2000
    6.3833  -22.5387   23.0909 C   0  0  0  0  0  0  0  0  0  0  0  0
    6.5950  -21.0469   23.1475 C   0  0  1  0  0  0  0  0  0  0  0  0
    7.0636  -20.5748   21.9327 O   0  0  0  0  0  0  0  0  0  0  0  0
    5.3757  -20.3087   23.6343 C   0  0  2  0  0  0  0  0  0  0  0  0
    4.2526  -20.6296   22.7799 N   0  0  0  0  0  0  0  0  0  0  0  0
    5.5366  -18.8578   23.6968 C   0  0  0  0  0  0  0  0  0  0  0  0
    5.0227  -18.1340   22.8083 O   0  0  0  0  0  0  0  0  0  0  0  0
    7.3857  -10.7326   26.6465 O   0  0  0  0  0  0  0  0  0  0  0  0
    7.3064  -12.1255   26.5135 C   0  0  0  0  0  0  0  0  0  0  0  0
    6.0911  -12.7798   26.5296 C   0  0  0  0  0  0  0  0  0  0  0  0
    5.9599  -14.1444   26.4028 C   0  0  0  0  0  0  0  0  0  0  0  0
    7.0888  -14.9134   26.2510 C   0  0  0  0  0  0  0  0  0  0  0  0
    7.0280  -16.3946   26.1079 C   0  0  0  0  0  0  0  0  0  0  0  0
    6.5587  -16.7750   24.6984 C   0  0  2  0  0  0  0  0  0  0  0  0
    6.2542  -18.1739   24.7199 N   0  0  0  0  0  0  0  0  0  0  0  0
    7.6884  -16.4501   23.7908 C   0  0  0  0  0  0  0  0  0  0  0  0
    8.6792  -17.2173   23.7116 O   0  0  0  0  0  0  0  0  0  0  0  0
    8.3116  -14.2807   26.2322 C   0  0  0  0  0  0  0  0  0  0  0  0
    8.4272  -12.9135   26.3603 C   0  0  0  0  0  0  0  0  0  0  0  0
    6.8286  -14.0101   20.5461 C   0  0  0  0  0  0  0  0  0  0  0  0
    8.2579  -14.0015   20.9723 C   0  0  1  0  0  0  0  0  0  0  0  0
    8.5860  -12.7281   21.6813 C   0  0  0  0  0  0  0  0  0  0  0  0
    8.6085  -15.1722   21.8703 C   0  0  2  0  0  0  0  0  0  0  0  0
    7.7016  -15.2794   22.9854 N   0  0  0  0  0  0  0  0  0  0  0  0
   10.0212  -15.0887   22.3165 C   0  0  0  0  0  0  0  0  0  0  0  0
   10.3457  -14.9694   23.5196 O   0  0  0  0  0  0  0  0  0  0  0  0
   11.0283  -15.1443   21.3691 O   0  0  0  0  0  0  0  0  0  0  0  0
  2  1  1  6
  2  3  1  0
  4  2  1  0
  4  5  1  6
  6  4  1  0
  6  7  2  0
  8  9  1  0
  9 10  2  0
 10 11  1  0
 12 11  2  0
 12 13  1  0
 14 15  1  0
 14 13  1  1
 15  6  1  0
 16 14  1  0
 17 16  2  0
 18 12  1  0
 19  9  1  0
 19 18  2  0
 21 20  1  1
 21 22  1  0
 23 21  1  0
 23 24  1  1
 24 16  1  0
 25 27  1  0
 25 23  1  0
 26 25  2  0
M  END
$$$$
