TYV.pdb
     RDKit          3D

 27 27  0  0  1  0  0  0  0  0999 V2000
    9.9124  -17.8721   16.9607 C   0  0  0  0  0  0  0  0  0  0  0  0
    9.9790  -16.9491   18.1511 C   0  0  1  0  0  0  0  0  0  0  0  0
    9.3702  -15.7388   17.8638 O   0  0  0  0  0  0  0  0  0  0  0  0
    9.4510  -17.5891   19.4082 C   0  0  2  0  0  0  0  0  0  0  0  0
    8.0628  -17.9483   19.2123 N   0  0  0  0  0  0  0  0  0  0  0  0
    9.5710  -16.7563   20.6027 C   0  0  0  0  0  0  0  0  0  0  0  0
   10.7042  -16.5305   21.0949 O   0  0  0  0  0  0  0  0  0  0  0  0
    7.1427  -12.1980   27.8518 O   0  0  0  0  0  0  0  0  0  0  0  0
    7.1435  -12.8708   26.6224 C   0  0  0  0  0  0  0  0  0  0  0  0
    7.8546  -12.3896   25.5416 C   0  0  0  0  0  0  0  0  0  0  0  0
    7.8877  -13.0126   24.3143 C   0  0  0  0  0  0  0  0  0  0  0  0
    7.1807  -14.1777   24.1366 C   0  0  0  0  0  0  0  0  0  0  0  0
    7.1675  -14.9091   22.8392 C   0  0  0  0  0  0  0  0  0  0  0  0
    8.5637  -15.4589   22.5231 C   0  0  2  0  0  0  0  0  0  0  0  0
    8.4679  -16.1586   21.2777 N   0  0  0  0  0  0  0  0  0  0  0  0
    8.9159  -16.3530   23.6553 C   0  0  0  0  0  0  0  0  0  0  0  0
    8.2571  -17.4014   23.8643 O   0  0  0  0  0  0  0  0  0  0  0  0
    6.4644  -14.6753   25.2020 C   0  0  0  0  0  0  0  0  0  0  0  0
    6.4408  -14.0403   26.4249 C   0  0  0  0  0  0  0  0  0  0  0  0
   12.2478  -18.3196   26.5690 C   0  0  0  0  0  0  0  0  0  0  0  0
   11.8366  -17.3623   25.5016 C   0  0  1  0  0  0  0  0  0  0  0  0
   12.1503  -17.9170   24.1505 C   0  0  0  0  0  0  0  0  0  0  0  0
   10.3618  -17.0142   25.5633 C   0  0  2  0  0  0  0  0  0  0  0  0
    9.9931  -16.0706   24.5381 N   0  0  0  0  0  0  0  0  0  0  0  0
    9.9916  -16.5293   26.9159 C   0  0  0  0  0  0  0  0  0  0  0  0
   10.0854  -15.3277   27.2539 O   0  0  0  0  0  0  0  0  0  0  0  0
    9.5221  -17.4372   27.8487 O   0  0  0  0  0  0  0  0  0  0  0  0
  2  1  1  6
  2  3  1  0
  4  2  1  0
  4  5  1  6
  6  4  1  0
  6  7  2  0
  8  9  1  0
  9 10  2  0
 10 11  1  0
 12 11  2  0
 12 13  1  0
 14 15  1  0
 14 13  1  1
 15  6  1  0
 16 14  1  0
 17 16  2  0
 18 12  1  0
 19  9  1  0
 19 18  2  0
 21 20  1  1
 21 22  1  0
 23 21  1  0
 23 24  1  6
 24 16  1  0
 25 27  1  0
 25 23  1  0
 26 25  2  0
M  END
$$$$
