TYV.pdb
     RDKit          3D

 27 27  0  0  1  0  0  0  0  0999 V2000
   10.9620  -19.2537   22.6000 C   0  0  0  0  0  0  0  0  0  0  0  0
   11.8564  -18.6038   21.5747 C   0  0  1  0  0  0  0  0  0  0  0  0
   12.3031  -19.5385   20.6555 O   0  0  0  0  0  0  0  0  0  0  0  0
   11.2165  -17.4030   20.9286 C   0  0  2  0  0  0  0  0  0  0  0  0
   12.1248  -16.8507   19.9466 N   0  0  0  0  0  0  0  0  0  0  0  0
   10.8228  -16.3542   21.8667 C   0  0  0  0  0  0  0  0  0  0  0  0
   11.6928  -15.5830   22.3418 O   0  0  0  0  0  0  0  0  0  0  0  0
    5.8652  -11.2669   27.1882 O   0  0  0  0  0  0  0  0  0  0  0  0
    6.2894  -12.1970   26.2295 C   0  0  0  0  0  0  0  0  0  0  0  0
    7.0721  -11.8167   25.1581 C   0  0  0  0  0  0  0  0  0  0  0  0
    7.5142  -12.6909   24.1906 C   0  0  0  0  0  0  0  0  0  0  0  0
    7.1676  -14.0178   24.2796 C   0  0  0  0  0  0  0  0  0  0  0  0
    7.6071  -15.0231   23.2724 C   0  0  0  0  0  0  0  0  0  0  0  0
    9.1196  -15.2540   23.3748 C   0  0  2  0  0  0  0  0  0  0  0  0
    9.4851  -16.1279   22.3011 N   0  0  0  0  0  0  0  0  0  0  0  0
    9.3499  -15.8620   24.7100 C   0  0  0  0  0  0  0  0  0  0  0  0
    9.3125  -17.1088   24.8542 O   0  0  0  0  0  0  0  0  0  0  0  0
    6.3871  -14.4186   25.3407 C   0  0  0  0  0  0  0  0  0  0  0  0
    5.9520  -13.5317   26.3017 C   0  0  0  0  0  0  0  0  0  0  0  0
   10.8536  -15.2870   29.4245 C   0  0  0  0  0  0  0  0  0  0  0  0
   10.2114  -14.7053   28.2105 C   0  0  1  0  0  0  0  0  0  0  0  0
   10.9651  -13.5028   27.7439 C   0  0  0  0  0  0  0  0  0  0  0  0
   10.1089  -15.6986   27.0690 C   0  0  2  0  0  0  0  0  0  0  0  0
    9.6180  -15.0779   25.8644 N   0  0  0  0  0  0  0  0  0  0  0  0
    9.2833  -16.8675   27.4612 C   0  0  0  0  0  0  0  0  0  0  0  0
    8.0681  -16.9645   27.1769 O   0  0  0  0  0  0  0  0  0  0  0  0
    9.8740  -17.8980   28.1712 O   0  0  0  0  0  0  0  0  0  0  0  0
  2  1  1  1
  2  3  1  0
  4  2  1  0
  4  5  1  6
  6  4  1  0
  6  7  2  0
  8  9  1  0
  9 10  2  0
 10 11  1  0
 12 11  2  0
 12 13  1  0
 14 15  1  0
 14 13  1  6
 15  6  1  0
 16 14  1  0
 17 16  2  0
 18 12  1  0
 19  9  1  0
 19 18  2  0
 21 20  1  1
 21 22  1  0
 23 21  1  0
 23 24  1  6
 24 16  1  0
 25 27  1  0
 25 23  1  0
 26 25  2  0
M  END
$$$$
