IQT.pdb
     RDKit          3D

 25 24  0  0  1  0  0  0  0  0999 V2000
    5.6733  -11.2679   26.7311 C   0  0  0  0  0  0  0  0  0  0  0  0
    5.4575  -12.5662   25.9859 C   0  0  0  0  0  0  0  0  0  0  0  0
    6.7962  -13.3179   25.8672 C   0  0  2  0  0  0  0  0  0  0  0  0
    7.7094  -12.4528   25.0326 C   0  0  0  0  0  0  0  0  0  0  0  0
    6.5080  -14.5945   25.1050 C   0  0  2  0  0  0  0  0  0  0  0  0
    5.4517  -15.3125   25.8639 N   0  0  0  0  0  0  0  0  0  0  0  0
    7.6663  -15.5010   24.9912 C   0  0  0  0  0  0  0  0  0  0  0  0
    7.9891  -16.2386   25.9886 O   0  0  0  0  0  0  0  0  0  0  0  0
   10.8534  -17.3940   19.8615 N   0  0  0  0  0  0  0  0  0  0  0  0
   11.7374  -17.7816   20.9214 C   0  0  0  0  0  0  0  0  0  0  0  0
   12.8667  -18.2132   20.5672 O   0  0  0  0  0  0  0  0  0  0  0  0
   11.3341  -17.6758   22.3500 C   0  0  0  0  0  0  0  0  0  0  0  0
   10.1187  -16.7899   22.4130 C   0  0  0  0  0  0  0  0  0  0  0  0
    9.5968  -16.6038   23.8112 C   0  0  2  0  0  0  0  0  0  0  0  0
    8.4912  -15.6520   23.8536 N   0  0  0  0  0  0  0  0  0  0  0  0
   10.6585  -16.2416   24.7744 C   0  0  0  0  0  0  0  0  0  0  0  0
   11.5420  -15.4584   24.4088 O   0  0  0  0  0  0  0  0  0  0  0  0
    9.7590  -15.2872   28.4605 C   0  0  0  0  0  0  0  0  0  0  0  0
   11.2016  -15.2576   27.9910 C   0  0  1  0  0  0  0  0  0  0  0  0
   12.0923  -15.0408   29.0370 O   0  0  0  0  0  0  0  0  0  0  0  0
   11.5638  -16.4059   27.1267 C   0  0  2  0  0  0  0  0  0  0  0  0
   10.6951  -16.7508   26.0716 N   0  0  0  0  0  0  0  0  0  0  0  0
   11.7838  -17.5924   27.9884 C   0  0  0  0  0  0  0  0  0  0  0  0
   12.7268  -17.6059   29.0110 O   0  0  0  0  0  0  0  0  0  0  0  0
   11.0878  -18.6167   27.7783 O   0  0  0  0  0  0  0  0  0  0  0  0
  1  2  1  0
  3  2  1  0
  3  5  1  0
  3  4  1  6
  5  7  1  0
  5  6  1  1
  7  8  2  0
  9 10  1  0
 10 12  1  0
 11 10  2  0
 13 12  1  0
 14 13  1  6
 15 14  1  0
 15  7  1  0
 16 17  2  0
 16 14  1  0
 19 18  1  1
 19 21  1  0
 20 19  1  0
 21 22  1  6
 21 23  1  0
 22 16  1  0
 23 24  1  0
 25 23  2  0
M  END
$$$$
