IQT.pdb
     RDKit          3D

 25 24  0  0  1  0  0  0  0  0999 V2000
    7.3147  -11.7461   18.7667 C   0  0  0  0  0  0  0  0  0  0  0  0
    7.9673  -13.0553   18.3824 C   0  0  0  0  0  0  0  0  0  0  0  0
    8.1351  -13.9323   19.6370 C   0  0  2  0  0  0  0  0  0  0  0  0
    9.0853  -13.2022   20.5552 C   0  0  0  0  0  0  0  0  0  0  0  0
    8.7941  -15.2171   19.1802 C   0  0  2  0  0  0  0  0  0  0  0  0
    7.8629  -15.8503   18.2111 N   0  0  0  0  0  0  0  0  0  0  0  0
    9.0335  -16.1882   20.2647 C   0  0  0  0  0  0  0  0  0  0  0  0
    8.0469  -16.8486   20.7479 O   0  0  0  0  0  0  0  0  0  0  0  0
   10.9878  -20.9691   21.6322 N   0  0  0  0  0  0  0  0  0  0  0  0
   11.2734  -20.3501   20.3712 C   0  0  0  0  0  0  0  0  0  0  0  0
   11.1344  -21.0807   19.3544 O   0  0  0  0  0  0  0  0  0  0  0  0
   11.7073  -18.9293   20.2813 C   0  0  0  0  0  0  0  0  0  0  0  0
   11.6502  -18.3499   21.6696 C   0  0  0  0  0  0  0  0  0  0  0  0
   10.4398  -17.4871   21.8988 C   0  0  2  0  0  0  0  0  0  0  0  0
   10.2852  -16.4830   20.8510 N   0  0  0  0  0  0  0  0  0  0  0  0
   10.4224  -16.8718   23.2432 C   0  0  0  0  0  0  0  0  0  0  0  0
   11.2223  -15.9608   23.4834 O   0  0  0  0  0  0  0  0  0  0  0  0
    8.0273  -14.6470   25.1099 C   0  0  0  0  0  0  0  0  0  0  0  0
    8.0951  -15.9968   25.7995 C   0  0  1  0  0  0  0  0  0  0  0  0
    6.9447  -16.7515   25.5957 O   0  0  0  0  0  0  0  0  0  0  0  0
    9.3503  -16.7360   25.5262 C   0  0  2  0  0  0  0  0  0  0  0  0
    9.5397  -17.2828   24.2409 N   0  0  0  0  0  0  0  0  0  0  0  0
    9.4961  -17.8072   26.5411 C   0  0  0  0  0  0  0  0  0  0  0  0
    9.6092  -17.5349   27.9006 O   0  0  0  0  0  0  0  0  0  0  0  0
    9.5170  -18.9998   26.1475 O   0  0  0  0  0  0  0  0  0  0  0  0
  1  2  1  0
  3  2  1  0
  3  5  1  0
  3  4  1  1
  5  7  1  0
  5  6  1  6
  7  8  2  0
  9 10  1  0
 10 12  1  0
 11 10  2  0
 13 12  1  0
 14 13  1  6
 15 14  1  0
 15  7  1  0
 16 17  2  0
 16 14  1  0
 19 18  1  6
 19 21  1  0
 20 19  1  0
 21 22  1  6
 21 23  1  0
 22 16  1  0
 23 24  1  0
 25 23  2  0
M  END
$$$$
