IQT.pdb
     RDKit          3D

 25 24  0  0  1  0  0  0  0  0999 V2000
    5.7474  -11.1094   26.4655 C   0  0  0  0  0  0  0  0  0  0  0  0
    5.5381  -12.4017   25.7081 C   0  0  0  0  0  0  0  0  0  0  0  0
    6.8502  -13.2078   25.6972 C   0  0  2  0  0  0  0  0  0  0  0  0
    7.8615  -12.3841   24.9374 C   0  0  0  0  0  0  0  0  0  0  0  0
    6.5716  -14.4747   24.9155 C   0  0  2  0  0  0  0  0  0  0  0  0
    5.4672  -15.1745   25.6212 N   0  0  0  0  0  0  0  0  0  0  0  0
    7.7154  -15.4042   24.8501 C   0  0  0  0  0  0  0  0  0  0  0  0
    7.8337  -16.3207   25.7383 O   0  0  0  0  0  0  0  0  0  0  0  0
   10.7391  -18.9950   20.5492 N   0  0  0  0  0  0  0  0  0  0  0  0
   11.6167  -17.9738   21.0413 C   0  0  0  0  0  0  0  0  0  0  0  0
   12.4341  -17.5007   20.2077 O   0  0  0  0  0  0  0  0  0  0  0  0
   11.5562  -17.5089   22.4538 C   0  0  0  0  0  0  0  0  0  0  0  0
   10.5101  -16.4290   22.5306 C   0  0  0  0  0  0  0  0  0  0  0  0
    9.8217  -16.3692   23.8665 C   0  0  2  0  0  0  0  0  0  0  0  0
    8.7357  -15.3943   23.8721 N   0  0  0  0  0  0  0  0  0  0  0  0
   10.7615  -16.1371   24.9842 C   0  0  0  0  0  0  0  0  0  0  0  0
   11.8185  -15.5410   24.7496 O   0  0  0  0  0  0  0  0  0  0  0  0
   10.1814  -14.1218   28.2152 C   0  0  0  0  0  0  0  0  0  0  0  0
   10.5110  -15.5630   28.5566 C   0  0  1  0  0  0  0  0  0  0  0  0
    9.4132  -16.2486   29.0657 O   0  0  0  0  0  0  0  0  0  0  0  0
   11.2104  -16.2820   27.4656 C   0  0  2  0  0  0  0  0  0  0  0  0
   10.4961  -16.5655   26.2840 N   0  0  0  0  0  0  0  0  0  0  0  0
   11.7695  -17.5410   28.0144 C   0  0  0  0  0  0  0  0  0  0  0  0
   11.4283  -18.7908   27.5077 O   0  0  0  0  0  0  0  0  0  0  0  0
   12.5795  -17.4641   28.9714 O   0  0  0  0  0  0  0  0  0  0  0  0
  1  2  1  0
  3  2  1  0
  3  5  1  0
  3  4  1  6
  5  7  1  0
  5  6  1  1
  7  8  2  0
  9 10  1  0
 10 12  1  0
 11 10  2  0
 13 12  1  0
 14 13  1  6
 15 14  1  0
 15  7  1  0
 16 17  2  0
 16 14  1  0
 19 18  1  6
 19 21  1  0
 20 19  1  0
 21 22  1  6
 21 23  1  0
 22 16  1  0
 23 24  1  0
 25 23  2  0
M  END
$$$$
