IQT.pdb
     RDKit          3D

 25 24  0  0  1  0  0  0  0  0999 V2000
    7.0928  -11.9198   18.9301 C   0  0  0  0  0  0  0  0  0  0  0  0
    7.6163  -13.2819   18.5324 C   0  0  0  0  0  0  0  0  0  0  0  0
    8.1119  -14.0266   19.7858 C   0  0  2  0  0  0  0  0  0  0  0  0
    9.2241  -13.1940   20.3762 C   0  0  0  0  0  0  0  0  0  0  0  0
    8.6928  -15.3403   19.3055 C   0  0  2  0  0  0  0  0  0  0  0  0
    7.5894  -16.0701   18.6294 N   0  0  0  0  0  0  0  0  0  0  0  0
    9.1987  -16.2052   20.3882 C   0  0  0  0  0  0  0  0  0  0  0  0
    8.3659  -16.8158   21.1476 O   0  0  0  0  0  0  0  0  0  0  0  0
   14.7242  -19.0514   20.9931 N   0  0  0  0  0  0  0  0  0  0  0  0
   14.1566  -19.3073   22.2844 C   0  0  0  0  0  0  0  0  0  0  0  0
   14.8492  -20.0187   23.0598 O   0  0  0  0  0  0  0  0  0  0  0  0
   12.8285  -18.7601   22.6739 C   0  0  0  0  0  0  0  0  0  0  0  0
   12.3469  -17.8921   21.5421 C   0  0  0  0  0  0  0  0  0  0  0  0
   10.9739  -17.3250   21.7775 C   0  0  2  0  0  0  0  0  0  0  0  0
   10.5585  -16.4452   20.6896 N   0  0  0  0  0  0  0  0  0  0  0  0
   10.8487  -16.6565   23.0904 C   0  0  0  0  0  0  0  0  0  0  0  0
   11.5573  -15.6698   23.3179 O   0  0  0  0  0  0  0  0  0  0  0  0
    8.1486  -14.6473   24.8600 C   0  0  0  0  0  0  0  0  0  0  0  0
    8.3818  -15.9494   25.6032 C   0  0  1  0  0  0  0  0  0  0  0  0
    7.3276  -16.8428   25.4453 O   0  0  0  0  0  0  0  0  0  0  0  0
    9.7136  -16.5456   25.3441 C   0  0  2  0  0  0  0  0  0  0  0  0
    9.9640  -17.0997   24.0724 N   0  0  0  0  0  0  0  0  0  0  0  0
    9.9828  -17.5666   26.3852 C   0  0  0  0  0  0  0  0  0  0  0  0
    9.9793  -17.2647   27.7432 O   0  0  0  0  0  0  0  0  0  0  0  0
   10.2213  -18.7433   26.0160 O   0  0  0  0  0  0  0  0  0  0  0  0
  1  2  1  0
  3  2  1  0
  3  5  1  0
  3  4  1  6
  5  7  1  0
  5  6  1  1
  7  8  2  0
  9 10  1  0
 10 12  1  0
 11 10  2  0
 13 12  1  0
 14 13  1  6
 15 14  1  0
 15  7  1  0
 16 17  2  0
 16 14  1  0
 19 18  1  6
 19 21  1  0
 20 19  1  0
 21 22  1  6
 21 23  1  0
 22 16  1  0
 23 24  1  0
 25 23  2  0
M  END
$$$$
