IQT.pdb
     RDKit          3D

 25 24  0  0  1  0  0  0  0  0999 V2000
    7.8748  -11.7119   21.5637 C   0  0  0  0  0  0  0  0  0  0  0  0
    7.5934  -13.1977   21.5945 C   0  0  0  0  0  0  0  0  0  0  0  0
    8.4609  -13.9059   20.5374 C   0  0  2  0  0  0  0  0  0  0  0  0
    7.9834  -13.4250   19.1885 C   0  0  0  0  0  0  0  0  0  0  0  0
    8.1640  -15.3861   20.6571 C   0  0  2  0  0  0  0  0  0  0  0  0
    6.7042  -15.5457   20.4316 N   0  0  0  0  0  0  0  0  0  0  0  0
    8.4729  -15.9558   21.9824 C   0  0  0  0  0  0  0  0  0  0  0  0
    7.5293  -16.1143   22.8353 O   0  0  0  0  0  0  0  0  0  0  0  0
   12.8670  -19.9448   23.7450 N   0  0  0  0  0  0  0  0  0  0  0  0
   11.7522  -20.1091   22.8588 C   0  0  0  0  0  0  0  0  0  0  0  0
   11.7528  -21.1578   22.1608 O   0  0  0  0  0  0  0  0  0  0  0  0
   10.6659  -19.0951   22.7771 C   0  0  0  0  0  0  0  0  0  0  0  0
   10.9857  -18.0082   23.7685 C   0  0  0  0  0  0  0  0  0  0  0  0
    9.9725  -16.8967   23.7716 C   0  0  2  0  0  0  0  0  0  0  0  0
    9.7493  -16.3647   22.4310 N   0  0  0  0  0  0  0  0  0  0  0  0
   10.3060  -15.8217   24.7305 C   0  0  0  0  0  0  0  0  0  0  0  0
   11.0472  -14.9071   24.3543 O   0  0  0  0  0  0  0  0  0  0  0  0
    8.5492  -12.9002   26.1527 C   0  0  0  0  0  0  0  0  0  0  0  0
    8.7880  -13.9068   27.2626 C   0  0  1  0  0  0  0  0  0  0  0  0
    7.6267  -14.5839   27.6193 O   0  0  0  0  0  0  0  0  0  0  0  0
    9.9454  -14.7979   27.0112 C   0  0  2  0  0  0  0  0  0  0  0  0
    9.8151  -15.8065   26.0352 N   0  0  0  0  0  0  0  0  0  0  0  0
   10.3557  -15.4106   28.2976 C   0  0  0  0  0  0  0  0  0  0  0  0
   10.7080  -14.6486   29.4069 O   0  0  0  0  0  0  0  0  0  0  0  0
   10.3824  -16.6639   28.3772 O   0  0  0  0  0  0  0  0  0  0  0  0
  1  2  1  0
  3  2  1  0
  3  5  1  0
  3  4  1  6
  5  7  1  0
  5  6  1  1
  7  8  2  0
  9 10  1  0
 10 12  1  0
 11 10  2  0
 13 12  1  0
 14 13  1  6
 15 14  1  0
 15  7  1  0
 16 17  2  0
 16 14  1  0
 19 18  1  6
 19 21  1  0
 20 19  1  0
 21 22  1  6
 21 23  1  0
 22 16  1  0
 23 24  1  0
 25 23  2  0
M  END
$$$$
