IQT.pdb
     RDKit          3D

 25 24  0  0  1  0  0  0  0  0999 V2000
    5.6743  -11.3825   26.8125 C   0  0  0  0  0  0  0  0  0  0  0  0
    5.5164  -12.6089   25.9416 C   0  0  0  0  0  0  0  0  0  0  0  0
    6.8596  -13.3578   25.8621 C   0  0  2  0  0  0  0  0  0  0  0  0
    7.8429  -12.4206   25.2035 C   0  0  0  0  0  0  0  0  0  0  0  0
    6.6376  -14.5462   24.9499 C   0  0  2  0  0  0  0  0  0  0  0  0
    5.5543  -15.3562   25.5644 N   0  0  0  0  0  0  0  0  0  0  0  0
    7.8169  -15.4205   24.8043 C   0  0  0  0  0  0  0  0  0  0  0  0
    8.0572  -16.3079   25.6976 O   0  0  0  0  0  0  0  0  0  0  0  0
   11.4977  -19.6087   22.8651 N   0  0  0  0  0  0  0  0  0  0  0  0
   11.2712  -18.5344   21.9433 C   0  0  0  0  0  0  0  0  0  0  0  0
   10.6457  -18.8333   20.8914 O   0  0  0  0  0  0  0  0  0  0  0  0
   11.7507  -17.1536   22.2232 C   0  0  0  0  0  0  0  0  0  0  0  0
   10.5400  -16.2637   22.3147 C   0  0  0  0  0  0  0  0  0  0  0  0
    9.8839  -16.2984   23.6676 C   0  0  2  0  0  0  0  0  0  0  0  0
    8.7475  -15.3856   23.7411 N   0  0  0  0  0  0  0  0  0  0  0  0
   10.8383  -16.0627   24.7721 C   0  0  0  0  0  0  0  0  0  0  0  0
   11.8736  -15.4326   24.5303 O   0  0  0  0  0  0  0  0  0  0  0  0
   11.5015  -14.0697   27.8964 C   0  0  0  0  0  0  0  0  0  0  0  0
   11.1672  -15.5038   28.2623 C   0  0  1  0  0  0  0  0  0  0  0  0
    9.8844  -15.6294   28.7848 O   0  0  0  0  0  0  0  0  0  0  0  0
   11.4699  -16.4733   27.1830 C   0  0  2  0  0  0  0  0  0  0  0  0
   10.6098  -16.5245   26.0675 N   0  0  0  0  0  0  0  0  0  0  0  0
   11.5773  -17.8256   27.7817 C   0  0  0  0  0  0  0  0  0  0  0  0
   10.7544  -18.8787   27.3957 O   0  0  0  0  0  0  0  0  0  0  0  0
   12.4463  -18.0156   28.6686 O   0  0  0  0  0  0  0  0  0  0  0  0
  1  2  1  0
  3  2  1  0
  3  5  1  0
  3  4  1  6
  5  7  1  0
  5  6  1  1
  7  8  2  0
  9 10  1  0
 10 12  1  0
 11 10  2  0
 13 12  1  0
 14 13  1  6
 15 14  1  0
 15  7  1  0
 16 17  2  0
 16 14  1  0
 19 18  1  6
 19 21  1  0
 20 19  1  0
 21 22  1  6
 21 23  1  0
 22 16  1  0
 23 24  1  0
 25 23  2  0
M  END
$$$$
