RDV.pdb
     RDKit          3D

 27 26  0  0  1  0  0  0  0  0999 V2000
    7.8025  -15.1404   16.4223 N   0  0  0  0  0  0  0  0  0  0  0  0
    7.7888  -13.7649   16.0958 C   0  0  0  0  0  0  0  0  0  0  0  0
    7.8421  -13.3300   14.8661 N   0  0  0  0  0  0  0  0  0  0  0  0
    7.7367  -12.7710   17.1306 N   0  0  0  0  0  0  0  0  0  0  0  0
    7.4752  -13.1106   18.5146 C   0  0  0  0  0  0  0  0  0  0  0  0
    7.9808  -14.5348   18.7609 C   0  0  0  0  0  0  0  0  0  0  0  0
    7.8380  -14.9573   20.1850 C   0  0  0  0  0  0  0  0  0  0  0  0
    8.3875  -16.3604   20.3809 C   0  0  2  0  0  0  0  0  0  0  0  0
    7.5269  -17.3025   19.7272 N   0  0  0  0  0  0  0  0  0  0  0  0
    8.4910  -16.5727   21.8360 C   0  0  0  0  0  0  0  0  0  0  0  0
    7.3867  -16.8595   22.4336 O   0  0  0  0  0  0  0  0  0  0  0  0
    7.8072  -12.2692   14.7466 N   0  0  0  0  0  0  0  0  0  0  0  0
    9.6268  -16.5018   22.6624 C   0  0  1  0  0  0  0  0  0  0  0  0
    9.5259  -16.7481   24.0959 C   0  0  0  0  0  0  0  0  0  0  0  0
   10.5786  -17.7168   24.5080 C   0  0  0  0  0  0  0  0  0  0  0  0
   10.6543  -17.9716   25.9753 O   0  0  0  0  0  0  0  0  0  0  0  0
    9.6380  -18.0226   26.7026 C   0  0  0  0  0  0  0  0  0  0  0  0
    9.6647  -15.5002   24.8905 O   0  0  0  0  0  0  0  0  0  0  0  0
   10.7285  -14.8610   24.7047 O   0  0  0  0  0  0  0  0  0  0  0  0
   11.9098  -18.1666   26.5987 C   0  0  0  0  0  0  0  0  0  0  0  0
    7.4143  -12.4933   25.1032 C   0  0  2  0  0  0  0  0  0  0  0  0
    7.5891  -12.9448   26.5526 C   0  0  0  0  0  0  0  0  0  0  0  0
    6.3442  -13.7343   26.9752 C   0  0  2  0  0  0  0  0  0  0  0  0
    8.8183  -13.8180   26.6029 N   0  0  0  0  0  0  0  0  0  0  0  0
    8.7119  -15.0180   25.7984 C   0  0  0  0  0  0  0  0  0  0  0  0
    9.1670  -14.1000   27.9894 O   0  0  0  0  0  0  0  0  0  0  0  0
    9.1429  -15.3641   28.3127 O   0  0  0  0  0  0  0  0  0  0  0  0
  2  1  1  0
  3  2  2  0
  4  2  1  0
  5  4  1  0
  5  6  1  0
  6  7  1  0
  8 10  1  0
  8  7  1  0
  8  9  1  1
 10 12  1  0
 11 10  2  0
 12 13  1  0
 13 14  1  1
 15 16  2  0
 15 14  1  0
 17 18  2  0
 17 13  1  0
 19 15  1  0
 21 20  1  1
 21 23  1  0
 22 21  1  0
 23 24  1  1
 24 17  1  0
 25 23  1  0
 25 27  1  0
 26 25  2  0
M  END
$$$$
