RDV.pdb
     RDKit          3D

 27 26  0  0  1  0  0  0  0  0999 V2000
    8.8769  -13.1263   17.3416 N   0  0  0  0  0  0  0  0  0  0  0  0
    8.3135  -12.6971   18.5652 C   0  0  0  0  0  0  0  0  0  0  0  0
    8.8192  -11.7238   19.2730 N   0  0  0  0  0  0  0  0  0  0  0  0
    7.1490  -13.3461   19.0984 N   0  0  0  0  0  0  0  0  0  0  0  0
    7.2123  -14.6486   19.7297 C   0  0  0  0  0  0  0  0  0  0  0  0
    7.9550  -14.4992   21.0604 C   0  0  0  0  0  0  0  0  0  0  0  0
    7.3961  -15.3745   22.1321 C   0  0  0  0  0  0  0  0  0  0  0  0
    7.8371  -16.8141   21.9263 C   0  0  2  0  0  0  0  0  0  0  0  0
    6.6831  -17.6382   21.7155 N   0  0  0  0  0  0  0  0  0  0  0  0
    8.6160  -17.1905   23.1199 C   0  0  0  0  0  0  0  0  0  0  0  0
    7.9319  -17.3515   24.1993 O   0  0  0  0  0  0  0  0  0  0  0  0
    8.3126  -11.5020   20.1868 N   0  0  0  0  0  0  0  0  0  0  0  0
   10.0020  -17.3944   23.2446 C   0  0  2  0  0  0  0  0  0  0  0  0
   10.5890  -17.7868   24.5201 C   0  0  0  0  0  0  0  0  0  0  0  0
   11.9434  -18.3594   24.2877 C   0  0  0  0  0  0  0  0  0  0  0  0
   12.6038  -18.9171   25.5028 O   0  0  0  0  0  0  0  0  0  0  0  0
   13.1020  -18.1909   26.3910 C   0  0  0  0  0  0  0  0  0  0  0  0
   10.6911  -16.6449   25.4654 O   0  0  0  0  0  0  0  0  0  0  0  0
   11.3071  -15.6416   25.0309 O   0  0  0  0  0  0  0  0  0  0  0  0
   12.6864  -20.3180   25.6867 C   0  0  0  0  0  0  0  0  0  0  0  0
    9.2226  -13.7631   29.0290 C   0  0  2  0  0  0  0  0  0  0  0  0
    8.9375  -14.9142   28.0654 C   0  0  0  0  0  0  0  0  0  0  0  0
    8.2638  -14.3485   26.8092 C   0  0  1  0  0  0  0  0  0  0  0  0
   10.2629  -15.5475   27.7218 N   0  0  0  0  0  0  0  0  0  0  0  0
   10.1593  -16.6278   26.7621 C   0  0  0  0  0  0  0  0  0  0  0  0
   10.9515  -15.9449   28.9431 O   0  0  0  0  0  0  0  0  0  0  0  0
   11.0420  -17.2340   29.1247 O   0  0  0  0  0  0  0  0  0  0  0  0
  2  1  1  0
  3  2  2  0
  4  2  1  0
  5  4  1  0
  5  6  1  0
  6  7  1  0
  8 10  1  0
  8  7  1  0
  8  9  1  1
 10 12  1  0
 11 10  2  0
 12 13  1  0
 13 14  1  6
 15 16  2  0
 15 14  1  0
 17 18  2  0
 17 13  1  0
 19 15  1  0
 21 20  1  1
 21 23  1  0
 22 21  1  0
 23 24  1  1
 24 17  1  0
 25 23  1  0
 25 27  1  0
 26 25  2  0
M  END
$$$$
