RDV.pdb
     RDKit          3D

 27 26  0  0  1  0  0  0  0  0999 V2000
    9.9591  -13.4020   18.1843 N   0  0  0  0  0  0  0  0  0  0  0  0
    8.7213  -12.7773   18.4606 C   0  0  0  0  0  0  0  0  0  0  0  0
    8.5295  -11.4942   18.3153 N   0  0  0  0  0  0  0  0  0  0  0  0
    7.6091  -13.5459   18.9439 N   0  0  0  0  0  0  0  0  0  0  0  0
    7.6818  -14.3268   20.1622 C   0  0  0  0  0  0  0  0  0  0  0  0
    6.3077  -14.9559   20.4092 C   0  0  0  0  0  0  0  0  0  0  0  0
    6.2616  -15.7613   21.6647 C   0  0  0  0  0  0  0  0  0  0  0  0
    6.9971  -17.0780   21.4787 C   0  0  2  0  0  0  0  0  0  0  0  0
    6.0430  -18.1355   21.3153 N   0  0  0  0  0  0  0  0  0  0  0  0
    7.8628  -17.2470   22.6598 C   0  0  0  0  0  0  0  0  0  0  0  0
    7.2490  -17.4857   23.7667 O   0  0  0  0  0  0  0  0  0  0  0  0
    7.5696  -11.1316   18.6116 N   0  0  0  0  0  0  0  0  0  0  0  0
    9.2650  -17.1802   22.7465 C   0  0  2  0  0  0  0  0  0  0  0  0
    9.9434  -17.3251   24.0289 C   0  0  0  0  0  0  0  0  0  0  0  0
   11.3403  -17.7868   23.8018 C   0  0  0  0  0  0  0  0  0  0  0  0
   12.1509  -17.9610   25.0413 O   0  0  0  0  0  0  0  0  0  0  0  0
   11.6316  -18.1374   26.1654 C   0  0  0  0  0  0  0  0  0  0  0  0
    9.9621  -16.0550   24.8000 O   0  0  0  0  0  0  0  0  0  0  0  0
   10.6586  -15.1363   24.3045 O   0  0  0  0  0  0  0  0  0  0  0  0
   13.5643  -17.9300   24.9760 C   0  0  0  0  0  0  0  0  0  0  0  0
    6.8437  -14.6144   27.1118 C   0  0  2  0  0  0  0  0  0  0  0  0
    8.0185  -13.7862   26.5933 C   0  0  0  0  0  0  0  0  0  0  0  0
    8.1020  -12.4886   27.4063 C   0  0  1  0  0  0  0  0  0  0  0  0
    9.2654  -14.6147   26.7795 N   0  0  0  0  0  0  0  0  0  0  0  0
    9.2730  -15.8362   26.0008 C   0  0  0  0  0  0  0  0  0  0  0  0
    9.4930  -14.8518   28.1992 O   0  0  0  0  0  0  0  0  0  0  0  0
    9.4005  -16.1007   28.5663 O   0  0  0  0  0  0  0  0  0  0  0  0
  2  1  1  0
  3  2  2  0
  4  2  1  0
  5  4  1  0
  5  6  1  0
  6  7  1  0
  8 10  1  0
  8  7  1  0
  8  9  1  1
 10 12  1  0
 11 10  2  0
 12 13  1  0
 13 14  1  6
 15 16  2  0
 15 14  1  0
 17 18  2  0
 17 13  1  0
 19 15  1  0
 21 20  1  6
 21 23  1  0
 22 21  1  0
 23 24  1  6
 24 17  1  0
 25 23  1  0
 25 27  1  0
 26 25  2  0
M  END
$$$$
