RDV.pdb
     RDKit          3D

 27 26  0  0  1  0  0  0  0  0999 V2000
    7.1236  -13.1296   15.9945 N   0  0  0  0  0  0  0  0  0  0  0  0
    7.5650  -13.2594   17.3314 C   0  0  0  0  0  0  0  0  0  0  0  0
    7.6011  -12.2547   18.1642 N   0  0  0  0  0  0  0  0  0  0  0  0
    8.0216  -14.5267   17.8281 N   0  0  0  0  0  0  0  0  0  0  0  0
    7.4484  -15.1462   19.0057 C   0  0  0  0  0  0  0  0  0  0  0  0
    7.8929  -14.3441   20.2320 C   0  0  0  0  0  0  0  0  0  0  0  0
    7.7417  -15.1087   21.5046 C   0  0  0  0  0  0  0  0  0  0  0  0
    8.5486  -16.3953   21.4507 C   0  0  2  0  0  0  0  0  0  0  0  0
    7.7573  -17.4265   20.8458 N   0  0  0  0  0  0  0  0  0  0  0  0
    8.9482  -16.7000   22.8365 C   0  0  0  0  0  0  0  0  0  0  0  0
    8.0489  -16.4824   23.7326 O   0  0  0  0  0  0  0  0  0  0  0  0
    7.9495  -12.4796   19.1485 N   0  0  0  0  0  0  0  0  0  0  0  0
   10.1755  -17.1914   23.3163 C   0  0  1  0  0  0  0  0  0  0  0  0
   10.3549  -17.5069   24.7283 C   0  0  0  0  0  0  0  0  0  0  0  0
   11.3951  -18.5622   24.8726 C   0  0  0  0  0  0  0  0  0  0  0  0
   11.6889  -18.9628   26.2786 O   0  0  0  0  0  0  0  0  0  0  0  0
   10.8213  -18.9420   27.1794 C   0  0  0  0  0  0  0  0  0  0  0  0
   10.7470  -16.3148   25.5239 O   0  0  0  0  0  0  0  0  0  0  0  0
   11.7130  -15.6576   25.0658 O   0  0  0  0  0  0  0  0  0  0  0  0
   12.9900  -19.3871   26.6393 C   0  0  0  0  0  0  0  0  0  0  0  0
    9.1350  -13.2262   26.2372 C   0  0  2  0  0  0  0  0  0  0  0  0
    9.4383  -13.7175   27.6520 C   0  0  0  0  0  0  0  0  0  0  0  0
    8.1553  -14.3027   28.2548 C   0  0  2  0  0  0  0  0  0  0  0  0
   10.5064  -14.7766   27.5375 N   0  0  0  0  0  0  0  0  0  0  0  0
   10.1230  -15.9013   26.7089 C   0  0  0  0  0  0  0  0  0  0  0  0
   10.9445  -15.1816   28.8670 O   0  0  0  0  0  0  0  0  0  0  0  0
   11.4581  -14.2232   29.5887 O   0  0  0  0  0  0  0  0  0  0  0  0
  2  1  1  0
  3  2  2  0
  4  2  1  0
  5  4  1  0
  5  6  1  0
  6  7  1  0
  8 10  1  0
  8  7  1  0
  8  9  1  1
 10 12  1  0
 11 10  2  0
 12 13  1  0
 13 14  1  1
 15 16  2  0
 15 14  1  0
 17 18  2  0
 17 13  1  0
 19 15  1  0
 21 20  1  1
 21 23  1  0
 22 21  1  0
 23 24  1  1
 24 17  1  0
 25 23  1  0
 25 27  1  0
 26 25  2  0
M  END
$$$$
