RDV.pdb
     RDKit          3D

 27 26  0  0  1  0  0  0  0  0999 V2000
   10.8782  -12.9889   18.6364 N   0  0  0  0  0  0  0  0  0  0  0  0
    9.5046  -12.9698   18.3018 C   0  0  0  0  0  0  0  0  0  0  0  0
    9.0725  -13.1352   17.0811 N   0  0  0  0  0  0  0  0  0  0  0  0
    8.5115  -12.7401   19.3130 N   0  0  0  0  0  0  0  0  0  0  0  0
    8.2540  -13.6940   20.3726 C   0  0  0  0  0  0  0  0  0  0  0  0
    6.8035  -14.1682   20.2465 C   0  0  0  0  0  0  0  0  0  0  0  0
    6.3694  -15.0042   21.4040 C   0  0  0  0  0  0  0  0  0  0  0  0
    6.9761  -16.3944   21.3128 C   0  0  2  0  0  0  0  0  0  0  0  0
    5.9831  -17.3155   20.8427 N   0  0  0  0  0  0  0  0  0  0  0  0
    7.4877  -16.7194   22.6565 C   0  0  0  0  0  0  0  0  0  0  0  0
    6.5902  -16.8895   23.5645 O   0  0  0  0  0  0  0  0  0  0  0  0
    8.0239  -12.9930   16.9363 N   0  0  0  0  0  0  0  0  0  0  0  0
    8.8192  -16.8659   23.0854 C   0  0  2  0  0  0  0  0  0  0  0  0
    9.1310  -17.1094   24.4886 C   0  0  0  0  0  0  0  0  0  0  0  0
   10.2813  -18.0496   24.5852 C   0  0  0  0  0  0  0  0  0  0  0  0
   10.6829  -18.4057   25.9765 O   0  0  0  0  0  0  0  0  0  0  0  0
    9.9412  -18.2041   26.9633 C   0  0  0  0  0  0  0  0  0  0  0  0
    9.4555  -15.8554   25.2167 O   0  0  0  0  0  0  0  0  0  0  0  0
   10.5263  -15.2977   24.8747 O   0  0  0  0  0  0  0  0  0  0  0  0
   11.9456  -18.9956   26.2224 C   0  0  0  0  0  0  0  0  0  0  0  0
    7.7526  -12.4944   25.7363 C   0  0  2  0  0  0  0  0  0  0  0  0
    7.9053  -13.1091   27.1270 C   0  0  0  0  0  0  0  0  0  0  0  0
    6.5764  -13.7637   27.5237 C   0  0  2  0  0  0  0  0  0  0  0  0
    9.0040  -14.1393   27.0415 N   0  0  0  0  0  0  0  0  0  0  0  0
    8.6638  -15.2852   26.2230 C   0  0  0  0  0  0  0  0  0  0  0  0
    9.4344  -14.5143   28.3823 O   0  0  0  0  0  0  0  0  0  0  0  0
    9.8590  -13.5230   29.1172 O   0  0  0  0  0  0  0  0  0  0  0  0
  2  1  1  0
  3  2  2  0
  4  2  1  0
  5  4  1  0
  5  6  1  0
  6  7  1  0
  8 10  1  0
  8  7  1  0
  8  9  1  1
 10 12  1  0
 11 10  2  0
 12 13  1  0
 13 14  1  6
 15 16  2  0
 15 14  1  0
 17 18  2  0
 17 13  1  0
 19 15  1  0
 21 20  1  1
 21 23  1  0
 22 21  1  0
 23 24  1  1
 24 17  1  0
 25 23  1  0
 25 27  1  0
 26 25  2  0
M  END
$$$$
