RDV.pdb
     RDKit          3D

 27 26  0  0  1  0  0  0  0  0999 V2000
    8.2431  -15.3379   15.9370 N   0  0  0  0  0  0  0  0  0  0  0  0
    8.3563  -14.2660   16.8519 C   0  0  0  0  0  0  0  0  0  0  0  0
    7.9666  -13.0523   16.5699 N   0  0  0  0  0  0  0  0  0  0  0  0
    8.9384  -14.4727   18.1479 N   0  0  0  0  0  0  0  0  0  0  0  0
    8.6643  -13.5933   19.2663 C   0  0  0  0  0  0  0  0  0  0  0  0
    7.2476  -13.8860   19.7683 C   0  0  0  0  0  0  0  0  0  0  0  0
    7.2367  -14.5385   21.1103 C   0  0  0  0  0  0  0  0  0  0  0  0
    7.6949  -15.9833   21.0025 C   0  0  2  0  0  0  0  0  0  0  0  0
    6.6071  -16.7926   20.5365 N   0  0  0  0  0  0  0  0  0  0  0  0
    8.1834  -16.3708   22.3383 C   0  0  0  0  0  0  0  0  0  0  0  0
    7.2857  -16.4318   23.2599 O   0  0  0  0  0  0  0  0  0  0  0  0
    8.0809  -12.3342   17.3523 N   0  0  0  0  0  0  0  0  0  0  0  0
    9.4934  -16.6793   22.7468 C   0  0  2  0  0  0  0  0  0  0  0  0
    9.7783  -17.0547   24.1265 C   0  0  0  0  0  0  0  0  0  0  0  0
   11.0445  -17.8361   24.1766 C   0  0  0  0  0  0  0  0  0  0  0  0
   11.4373  -18.3041   25.5369 O   0  0  0  0  0  0  0  0  0  0  0  0
   10.6106  -18.4438   26.4651 C   0  0  0  0  0  0  0  0  0  0  0  0
    9.8928  -15.8710   25.0175 O   0  0  0  0  0  0  0  0  0  0  0  0
   10.8097  -15.0657   24.7251 O   0  0  0  0  0  0  0  0  0  0  0  0
   12.7899  -18.6093   25.8200 C   0  0  0  0  0  0  0  0  0  0  0  0
    8.2262  -12.5733   28.1857 C   0  0  2  0  0  0  0  0  0  0  0  0
    7.9430  -13.6705   27.1607 C   0  0  0  0  0  0  0  0  0  0  0  0
    7.6125  -13.0131   25.8152 C   0  0  1  0  0  0  0  0  0  0  0  0
    9.1900  -14.5126   27.0520 N   0  0  0  0  0  0  0  0  0  0  0  0
    9.0670  -15.6155   26.1208 C   0  0  0  0  0  0  0  0  0  0  0  0
    9.6129  -14.9418   28.3788 O   0  0  0  0  0  0  0  0  0  0  0  0
    9.4039  -16.2038   28.6373 O   0  0  0  0  0  0  0  0  0  0  0  0
  2  1  1  0
  3  2  2  0
  4  2  1  0
  5  4  1  0
  5  6  1  0
  6  7  1  0
  8 10  1  0
  8  7  1  0
  8  9  1  1
 10 12  1  0
 11 10  2  0
 12 13  1  0
 13 14  1  6
 15 16  2  0
 15 14  1  0
 17 18  2  0
 17 13  1  0
 19 15  1  0
 21 20  1  1
 21 23  1  0
 22 21  1  0
 23 24  1  1
 24 17  1  0
 25 23  1  0
 25 27  1  0
 26 25  2  0
M  END
$$$$
