RDV.pdb
     RDKit          3D

 27 26  0  0  1  0  0  0  0  0999 V2000
    9.1433  -15.0055   16.2005 N   0  0  0  0  0  0  0  0  0  0  0  0
    8.1880  -14.0387   15.8111 C   0  0  0  0  0  0  0  0  0  0  0  0
    7.7227  -13.9554   14.5942 N   0  0  0  0  0  0  0  0  0  0  0  0
    7.6990  -13.0755   16.7569 N   0  0  0  0  0  0  0  0  0  0  0  0
    8.0661  -13.1143   18.1579 C   0  0  0  0  0  0  0  0  0  0  0  0
    7.4000  -14.3383   18.7927 C   0  0  0  0  0  0  0  0  0  0  0  0
    7.8495  -14.5742   20.1961 C   0  0  0  0  0  0  0  0  0  0  0  0
    8.0056  -16.0623   20.4611 C   0  0  2  0  0  0  0  0  0  0  0  0
    6.8689  -16.7597   19.9349 N   0  0  0  0  0  0  0  0  0  0  0  0
    8.1643  -16.2159   21.9186 C   0  0  0  0  0  0  0  0  0  0  0  0
    7.0707  -16.2061   22.5988 O   0  0  0  0  0  0  0  0  0  0  0  0
    7.0457  -13.1501   14.4099 N   0  0  0  0  0  0  0  0  0  0  0  0
    9.3438  -16.3678   22.6695 C   0  0  1  0  0  0  0  0  0  0  0  0
    9.2912  -16.5803   24.1109 C   0  0  0  0  0  0  0  0  0  0  0  0
   10.3860  -17.5041   24.5164 C   0  0  0  0  0  0  0  0  0  0  0  0
   10.5035  -18.7374   23.6865 O   0  0  0  0  0  0  0  0  0  0  0  0
    9.5926  -19.5919   23.6187 C   0  0  0  0  0  0  0  0  0  0  0  0
    9.4114  -15.3086   24.8700 O   0  0  0  0  0  0  0  0  0  0  0  0
   10.3916  -14.5890   24.5601 O   0  0  0  0  0  0  0  0  0  0  0  0
   11.6784  -18.9791   22.9355 C   0  0  0  0  0  0  0  0  0  0  0  0
    6.9741  -12.4613   25.4134 C   0  0  2  0  0  0  0  0  0  0  0  0
    7.3724  -12.9117   26.8182 C   0  0  0  0  0  0  0  0  0  0  0  0
    6.2525  -13.7901   27.3889 C   0  0  2  0  0  0  0  0  0  0  0  0
    8.6541  -13.6969   26.6886 N   0  0  0  0  0  0  0  0  0  0  0  0
    8.5266  -14.8864   25.8718 C   0  0  0  0  0  0  0  0  0  0  0  0
    9.1960  -13.9790   28.0116 O   0  0  0  0  0  0  0  0  0  0  0  0
    9.4451  -12.9228   28.7366 O   0  0  0  0  0  0  0  0  0  0  0  0
  2  1  1  0
  3  2  2  0
  4  2  1  0
  5  4  1  0
  5  6  1  0
  6  7  1  0
  8 10  1  0
  8  7  1  0
  8  9  1  1
 10 12  1  0
 11 10  2  0
 12 13  1  0
 13 14  1  1
 15 16  2  0
 15 14  1  0
 17 18  2  0
 17 13  1  0
 19 15  1  0
 21 20  1  1
 21 23  1  0
 22 21  1  0
 23 24  1  1
 24 17  1  0
 25 23  1  0
 25 27  1  0
 26 25  2  0
M  END
$$$$
