HMK.pdb
     RDKit          3D

 28 28  0  0  1  0  0  0  0  0999 V2000
   19.9548  -13.6796  -16.5914 N   0  0  0  0  0  0  0  0  0  0  0  0
   19.8186  -12.2529  -16.9213 C   0  0  1  0  0  0  0  0  0  0  0  0
   18.4505  -11.8553  -16.3501 C   0  0  0  0  0  0  0  0  0  0  0  0
   17.3381  -12.4605  -17.0836 C   0  0  0  0  0  0  0  0  0  0  0  0
   16.5527  -13.5077  -16.6610 C   0  0  0  0  0  0  0  0  0  0  0  0
   15.6266  -13.7906  -17.6085 N   0  0  0  0  0  0  0  0  0  0  0  0
   15.8532  -12.9089  -18.6105 C   0  0  0  0  0  0  0  0  0  0  0  0
   16.8928  -12.1055  -18.2849 N   0  0  0  0  0  0  0  0  0  0  0  0
   20.8129  -11.4560  -16.1752 C   0  0  0  0  0  0  0  0  0  0  0  0
   20.7592  -11.5090  -14.9204 O   0  0  0  0  0  0  0  0  0  0  0  0
   27.1547  -11.5588  -14.7769 C   0  0  0  0  0  0  0  0  0  0  0  0
   26.8645  -10.0810  -15.7969 S   0  0  0  0  0  0  0  0  0  0  0  0
   25.1596   -9.4840  -15.4856 C   0  0  0  0  0  0  0  0  0  0  0  0
   24.1662  -10.2942  -16.2628 C   0  0  0  0  0  0  0  0  0  0  0  0
   22.7767   -9.8754  -15.9794 C   0  0  2  0  0  0  0  0  0  0  0  0
   21.8064  -10.6495  -16.7527 N   0  0  0  0  0  0  0  0  0  0  0  0
   22.5330   -8.4122  -16.1728 C   0  0  0  0  0  0  0  0  0  0  0  0
   22.3220   -7.9244  -17.3096 O   0  0  0  0  0  0  0  0  0  0  0  0
   22.5496   -7.5911  -15.0158 N   0  0  0  0  0  0  0  0  0  0  0  0
   22.1620   -6.1975  -14.9810 C   0  0  1  0  0  0  0  0  0  0  0  0
   21.1258   -5.8750  -15.9683 C   0  0  0  0  0  0  0  0  0  0  0  0
   19.7341   -5.9569  -15.5038 C   0  0  0  0  0  0  0  0  0  0  0  0
   18.7164   -5.5096  -16.5253 C   0  0  0  0  0  0  0  0  0  0  0  0
   17.2989   -5.6442  -15.9617 C   0  0  0  0  0  0  0  0  0  0  0  0
   16.3232   -5.2894  -16.9476 N   0  0  0  0  0  0  0  0  0  0  0  0
   22.2845   -5.5444  -13.7115 C   0  0  0  0  0  0  0  0  0  0  0  0
   22.5853   -6.2550  -12.6749 O   0  0  0  0  0  0  0  0  0  0  0  0
   22.1189   -4.2136  -13.4230 O   0  0  0  0  0  0  0  0  0  0  0  0
  2  9  1  0
  2  1  1  1
  3  2  1  0
  4  3  1  0
  4  5  2  0
  6  5  1  0
  7  6  1  0
  8  7  2  0
  8  4  1  0
  9 16  1  0
 10  9  2  0
 12 11  1  0
 13 12  1  0
 14 13  1  0
 15 14  1  6
 16 15  1  0
 17 18  2  0
 17 15  1  0
 19 17  1  0
 20 19  1  0
 20 26  1  0
 20 21  1  1
 22 21  1  0
 23 22  1  0
 24 23  1  0
 24 25  1  0
 26 28  1  0
 27 26  2  0
M  END
$$$$
