HMK.pdb
     RDKit          3D

 28 28  0  0  1  0  0  0  0  0999 V2000
   22.1774  -14.3204  -17.5768 N   0  0  0  0  0  0  0  0  0  0  0  0
   21.9925  -12.9091  -17.9471 C   0  0  1  0  0  0  0  0  0  0  0  0
   20.4707  -12.7088  -17.9501 C   0  0  0  0  0  0  0  0  0  0  0  0
   19.8157  -13.3976  -19.0628 C   0  0  0  0  0  0  0  0  0  0  0  0
   20.2686  -13.4721  -20.3595 C   0  0  0  0  0  0  0  0  0  0  0  0
   19.3953  -14.1926  -21.1038 N   0  0  0  0  0  0  0  0  0  0  0  0
   18.4080  -14.5562  -20.2518 C   0  0  0  0  0  0  0  0  0  0  0  0
   18.6700  -14.0703  -19.0159 N   0  0  0  0  0  0  0  0  0  0  0  0
   22.5122  -12.0267  -16.8834 C   0  0  0  0  0  0  0  0  0  0  0  0
   22.1826  -12.3037  -15.7023 O   0  0  0  0  0  0  0  0  0  0  0  0
   28.2275  -12.8371  -14.8766 C   0  0  0  0  0  0  0  0  0  0  0  0
   27.6093  -11.2284  -15.4582 S   0  0  0  0  0  0  0  0  0  0  0  0
   25.7770  -11.2778  -15.4694 C   0  0  0  0  0  0  0  0  0  0  0  0
   25.2152   -9.9459  -15.8664 C   0  0  0  0  0  0  0  0  0  0  0  0
   23.7453   -9.9953  -16.0197 C   0  0  2  0  0  0  0  0  0  0  0  0
   23.3396  -10.9107  -17.0856 N   0  0  0  0  0  0  0  0  0  0  0  0
   23.1121   -8.6561  -16.2282 C   0  0  0  0  0  0  0  0  0  0  0  0
   22.8599   -8.2187  -17.3771 O   0  0  0  0  0  0  0  0  0  0  0  0
   22.8056   -7.8939  -15.0714 N   0  0  0  0  0  0  0  0  0  0  0  0
   22.0736   -6.6458  -15.0693 C   0  0  1  0  0  0  0  0  0  0  0  0
   21.1191   -6.5494  -16.1794 C   0  0  0  0  0  0  0  0  0  0  0  0
   20.3630   -5.2937  -16.2825 C   0  0  0  0  0  0  0  0  0  0  0  0
   19.3906   -5.2531  -17.4367 C   0  0  0  0  0  0  0  0  0  0  0  0
   18.6255   -3.9266  -17.4443 C   0  0  0  0  0  0  0  0  0  0  0  0
   17.7784   -3.8342  -18.5948 N   0  0  0  0  0  0  0  0  0  0  0  0
   21.8678   -6.0420  -13.7862 C   0  0  0  0  0  0  0  0  0  0  0  0
   21.6911   -6.8087  -12.7611 O   0  0  0  0  0  0  0  0  0  0  0  0
   21.8269   -4.7069  -13.4741 O   0  0  0  0  0  0  0  0  0  0  0  0
  2  9  1  0
  2  1  1  1
  3  2  1  0
  4  3  1  0
  4  5  2  0
  6  5  1  0
  7  6  1  0
  8  7  2  0
  8  4  1  0
  9 16  1  0
 10  9  2  0
 12 11  1  0
 13 12  1  0
 14 13  1  0
 15 14  1  6
 16 15  1  0
 17 18  2  0
 17 15  1  0
 19 17  1  0
 20 19  1  0
 20 26  1  0
 20 21  1  1
 22 21  1  0
 23 22  1  0
 24 23  1  0
 24 25  1  0
 26 28  1  0
 27 26  2  0
M  END
$$$$
