HMK.pdb
     RDKit          3D

 28 28  0  0  1  0  0  0  0  0999 V2000
   28.3703  -21.3733  -16.6289 N   0  0  0  0  0  0  0  0  0  0  0  0
   27.7811  -20.2841  -15.8356 C   0  0  1  0  0  0  0  0  0  0  0  0
   26.9034  -19.5142  -16.8321 C   0  0  0  0  0  0  0  0  0  0  0  0
   27.6311  -18.4397  -17.5083 C   0  0  0  0  0  0  0  0  0  0  0  0
   28.5830  -18.5879  -18.4901 C   0  0  0  0  0  0  0  0  0  0  0  0
   29.0331  -17.3685  -18.8726 N   0  0  0  0  0  0  0  0  0  0  0  0
   28.3491  -16.4772  -18.1173 C   0  0  0  0  0  0  0  0  0  0  0  0
   27.5008  -17.1344  -17.2922 N   0  0  0  0  0  0  0  0  0  0  0  0
   26.8558  -20.8292  -14.8222 C   0  0  0  0  0  0  0  0  0  0  0  0
   26.3413  -21.9501  -15.0655 O   0  0  0  0  0  0  0  0  0  0  0  0
   24.8072  -21.5767   -7.2921 C   0  0  0  0  0  0  0  0  0  0  0  0
   25.8188  -20.6761   -8.5061 S   0  0  0  0  0  0  0  0  0  0  0  0
   25.2358  -21.1124  -10.1883 C   0  0  0  0  0  0  0  0  0  0  0  0
   26.1092  -20.4808  -11.2302 C   0  0  0  0  0  0  0  0  0  0  0  0
   25.6530  -20.8073  -12.5983 C   0  0  2  0  0  0  0  0  0  0  0  0
   26.5079  -20.1989  -13.6169 N   0  0  0  0  0  0  0  0  0  0  0  0
   24.2215  -20.4597  -12.8592 C   0  0  0  0  0  0  0  0  0  0  0  0
   23.8389  -19.2679  -12.9480 O   0  0  0  0  0  0  0  0  0  0  0  0
   23.3066  -21.5347  -13.0032 N   0  0  0  0  0  0  0  0  0  0  0  0
   21.8702  -21.3942  -13.1070 C   0  0  1  0  0  0  0  0  0  0  0  0
   21.2007  -22.6607  -13.4237 C   0  0  0  0  0  0  0  0  0  0  0  0
   20.4669  -22.7105  -14.6957 C   0  0  0  0  0  0  0  0  0  0  0  0
   19.7870  -24.0316  -14.9634 C   0  0  0  0  0  0  0  0  0  0  0  0
   19.0582  -23.9944  -16.3098 C   0  0  0  0  0  0  0  0  0  0  0  0
   18.4377  -25.2543  -16.5878 N   0  0  0  0  0  0  0  0  0  0  0  0
   21.2824  -20.3593  -12.3092 C   0  0  0  0  0  0  0  0  0  0  0  0
   21.2474  -20.5096  -11.0261 O   0  0  0  0  0  0  0  0  0  0  0  0
   20.7235  -19.1791  -12.7290 O   0  0  0  0  0  0  0  0  0  0  0  0
  2  9  1  0
  2  1  1  6
  3  2  1  0
  4  3  1  0
  4  5  2  0
  6  5  1  0
  7  6  1  0
  8  7  2  0
  8  4  1  0
  9 16  1  0
 10  9  2  0
 12 11  1  0
 13 12  1  0
 14 13  1  0
 15 14  1  1
 16 15  1  0
 17 18  2  0
 17 15  1  0
 19 17  1  0
 20 19  1  0
 20 26  1  0
 20 21  1  1
 22 21  1  0
 23 22  1  0
 24 23  1  0
 24 25  1  0
 26 28  1  0
 27 26  2  0
M  END
$$$$
