HMK.pdb
     RDKit          3D

 28 28  0  0  1  0  0  0  0  0999 V2000
   26.1170  -21.5129  -17.7207 N   0  0  0  0  0  0  0  0  0  0  0  0
   26.2093  -20.5054  -16.6533 C   0  0  1  0  0  0  0  0  0  0  0  0
   25.2765  -19.3752  -17.1101 C   0  0  0  0  0  0  0  0  0  0  0  0
   25.9300  -18.4456  -18.0323 C   0  0  0  0  0  0  0  0  0  0  0  0
   25.3993  -17.9384  -19.1956 C   0  0  0  0  0  0  0  0  0  0  0  0
   26.2986  -17.1113  -19.7811 N   0  0  0  0  0  0  0  0  0  0  0  0
   27.3801  -17.1183  -18.9667 C   0  0  0  0  0  0  0  0  0  0  0  0
   27.1490  -17.9297  -17.9082 N   0  0  0  0  0  0  0  0  0  0  0  0
   25.6253  -21.0278  -15.4018 C   0  0  0  0  0  0  0  0  0  0  0  0
   24.7024  -21.8740  -15.5141 O   0  0  0  0  0  0  0  0  0  0  0  0
   25.2590  -21.2335   -7.4802 C   0  0  0  0  0  0  0  0  0  0  0  0
   26.2200  -20.7158   -8.9352 S   0  0  0  0  0  0  0  0  0  0  0  0
   25.2674  -21.1386  -10.4430 C   0  0  0  0  0  0  0  0  0  0  0  0
   26.0582  -20.8162  -11.6751 C   0  0  0  0  0  0  0  0  0  0  0  0
   25.2484  -20.9733  -12.9023 C   0  0  2  0  0  0  0  0  0  0  0  0
   26.0166  -20.6567  -14.1057 N   0  0  0  0  0  0  0  0  0  0  0  0
   23.9725  -20.1922  -12.8909 C   0  0  0  0  0  0  0  0  0  0  0  0
   23.9687  -18.9377  -12.8595 O   0  0  0  0  0  0  0  0  0  0  0  0
   22.7592  -20.9273  -12.9168 N   0  0  0  0  0  0  0  0  0  0  0  0
   21.4350  -20.3456  -12.8759 C   0  0  1  0  0  0  0  0  0  0  0  0
   21.1444  -19.5203  -14.0537 C   0  0  0  0  0  0  0  0  0  0  0  0
   20.4376  -20.1846  -15.1574 C   0  0  0  0  0  0  0  0  0  0  0  0
   19.0900  -19.5833  -15.4764 C   0  0  0  0  0  0  0  0  0  0  0  0
   18.4725  -20.2728  -16.6965 C   0  0  0  0  0  0  0  0  0  0  0  0
   17.2576  -19.6240  -17.0872 N   0  0  0  0  0  0  0  0  0  0  0  0
   20.4431  -21.0946  -12.1628 C   0  0  0  0  0  0  0  0  0  0  0  0
   19.3662  -20.4911  -11.7806 O   0  0  0  0  0  0  0  0  0  0  0  0
   20.4732  -22.4195  -11.8087 O   0  0  0  0  0  0  0  0  0  0  0  0
  2  9  1  0
  2  1  1  6
  3  2  1  0
  4  3  1  0
  4  5  2  0
  6  5  1  0
  7  6  1  0
  8  7  2  0
  8  4  1  0
  9 16  1  0
 10  9  2  0
 12 11  1  0
 13 12  1  0
 14 13  1  0
 15 14  1  1
 16 15  1  0
 17 18  2  0
 17 15  1  0
 19 17  1  0
 20 19  1  0
 20 26  1  0
 20 21  1  6
 22 21  1  0
 23 22  1  0
 24 23  1  0
 24 25  1  0
 26 28  1  0
 27 26  2  0
M  END
$$$$
