HMK.pdb
     RDKit          3D

 28 28  0  0  1  0  0  0  0  0999 V2000
   22.9509  -20.5977  -14.3117 N   0  0  0  0  0  0  0  0  0  0  0  0
   21.9856  -20.0706  -13.3353 C   0  0  1  0  0  0  0  0  0  0  0  0
   20.6306  -20.1523  -14.0519 C   0  0  0  0  0  0  0  0  0  0  0  0
   20.4844  -19.1360  -15.0945 C   0  0  0  0  0  0  0  0  0  0  0  0
   21.2279  -17.9862  -15.2265 C   0  0  0  0  0  0  0  0  0  0  0  0
   20.8030  -17.2937  -16.3107 N   0  0  0  0  0  0  0  0  0  0  0  0
   19.7961  -18.0293  -16.8378 C   0  0  0  0  0  0  0  0  0  0  0  0
   19.6087  -19.1451  -16.0948 N   0  0  0  0  0  0  0  0  0  0  0  0
   21.8820  -20.9774  -12.1745 C   0  0  0  0  0  0  0  0  0  0  0  0
   22.1346  -22.1921  -12.3768 O   0  0  0  0  0  0  0  0  0  0  0  0
   26.2687  -20.1210   -7.4243 C   0  0  0  0  0  0  0  0  0  0  0  0
   24.4661  -20.1490   -7.1832 S   0  0  0  0  0  0  0  0  0  0  0  0
   23.6909  -20.8901   -8.6696 C   0  0  0  0  0  0  0  0  0  0  0  0
   22.1968  -20.8784   -8.5476 C   0  0  0  0  0  0  0  0  0  0  0  0
   21.5465  -21.4967   -9.7229 C   0  0  2  0  0  0  0  0  0  0  0  0
   21.5262  -20.5926  -10.8721 N   0  0  0  0  0  0  0  0  0  0  0  0
   20.1676  -22.0101   -9.4526 C   0  0  0  0  0  0  0  0  0  0  0  0
   19.1482  -21.3223   -9.7026 O   0  0  0  0  0  0  0  0  0  0  0  0
   20.0546  -23.3118   -8.8994 N   0  0  0  0  0  0  0  0  0  0  0  0
   18.8106  -23.9521   -8.5307 C   0  0  1  0  0  0  0  0  0  0  0  0
   18.9909  -25.3565   -8.1462 C   0  0  0  0  0  0  0  0  0  0  0  0
   17.7644  -26.1378   -7.9355 C   0  0  0  0  0  0  0  0  0  0  0  0
   18.0093  -27.5752   -7.5439 C   0  0  0  0  0  0  0  0  0  0  0  0
   16.6838  -28.3361   -7.4480 C   0  0  0  0  0  0  0  0  0  0  0  0
   16.9089  -29.7113   -7.1195 N   0  0  0  0  0  0  0  0  0  0  0  0
   17.8059  -23.0957   -7.9736 C   0  0  0  0  0  0  0  0  0  0  0  0
   18.1586  -22.2148   -7.0963 O   0  0  0  0  0  0  0  0  0  0  0  0
   16.4618  -23.0758   -8.2472 O   0  0  0  0  0  0  0  0  0  0  0  0
  2  9  1  0
  2  1  1  6
  3  2  1  0
  4  3  1  0
  4  5  2  0
  6  5  1  0
  7  6  1  0
  8  7  2  0
  8  4  1  0
  9 16  1  0
 10  9  2  0
 12 11  1  0
 13 12  1  0
 14 13  1  0
 15 14  1  1
 16 15  1  0
 17 18  2  0
 17 15  1  0
 19 17  1  0
 20 19  1  0
 20 26  1  0
 20 21  1  1
 22 21  1  0
 23 22  1  0
 24 23  1  0
 24 25  1  0
 26 28  1  0
 27 26  2  0
M  END
$$$$
