HMK.pdb
     RDKit          3D

 28 28  0  0  1  0  0  0  0  0999 V2000
   28.1137  -21.1069  -15.7615 N   0  0  0  0  0  0  0  0  0  0  0  0
   27.5855  -20.1069  -14.8213 C   0  0  1  0  0  0  0  0  0  0  0  0
   26.8912  -19.0691  -15.7141 C   0  0  0  0  0  0  0  0  0  0  0  0
   27.8420  -18.2081  -16.4184 C   0  0  0  0  0  0  0  0  0  0  0  0
   29.2133  -18.2483  -16.3167 C   0  0  0  0  0  0  0  0  0  0  0  0
   29.7550  -17.2989  -17.1171 N   0  0  0  0  0  0  0  0  0  0  0  0
   28.7049  -16.6805  -17.7066 C   0  0  0  0  0  0  0  0  0  0  0  0
   27.5480  -17.2374  -17.2779 N   0  0  0  0  0  0  0  0  0  0  0  0
   26.5195  -20.6981  -13.9880 C   0  0  0  0  0  0  0  0  0  0  0  0
   25.9492  -21.7245  -14.4370 O   0  0  0  0  0  0  0  0  0  0  0  0
   28.1121  -20.8329   -7.4668 C   0  0  0  0  0  0  0  0  0  0  0  0
   26.4954  -20.3433   -8.1412 S   0  0  0  0  0  0  0  0  0  0  0  0
   26.4016  -20.8937   -9.8871 C   0  0  0  0  0  0  0  0  0  0  0  0
   25.1243  -20.4290  -10.5194 C   0  0  0  0  0  0  0  0  0  0  0  0
   25.0408  -20.8270  -11.9411 C   0  0  2  0  0  0  0  0  0  0  0  0
   26.0957  -20.2078  -12.7426 N   0  0  0  0  0  0  0  0  0  0  0  0
   23.7064  -20.5678  -12.5658 C   0  0  0  0  0  0  0  0  0  0  0  0
   23.3851  -19.4292  -12.9841 O   0  0  0  0  0  0  0  0  0  0  0  0
   22.8117  -21.6644  -12.6682 N   0  0  0  0  0  0  0  0  0  0  0  0
   21.4239  -21.5693  -13.0662 C   0  0  1  0  0  0  0  0  0  0  0  0
   20.8073  -22.8831  -13.2818 C   0  0  0  0  0  0  0  0  0  0  0  0
   19.3864  -22.8833  -13.6560 C   0  0  0  0  0  0  0  0  0  0  0  0
   18.7905  -24.2617  -13.8115 C   0  0  0  0  0  0  0  0  0  0  0  0
   17.3092  -24.1642  -14.1875 C   0  0  0  0  0  0  0  0  0  0  0  0
   16.6984  -25.4591  -14.1906 N   0  0  0  0  0  0  0  0  0  0  0  0
   20.7110  -20.4233  -12.5851 C   0  0  0  0  0  0  0  0  0  0  0  0
   20.1701  -19.6237  -13.4441 O   0  0  0  0  0  0  0  0  0  0  0  0
   20.5122  -20.0325  -11.2853 O   0  0  0  0  0  0  0  0  0  0  0  0
  2  9  1  0
  2  1  1  6
  3  2  1  0
  4  3  1  0
  4  5  2  0
  6  5  1  0
  7  6  1  0
  8  7  2  0
  8  4  1  0
  9 16  1  0
 10  9  2  0
 12 11  1  0
 13 12  1  0
 14 13  1  0
 15 14  1  1
 16 15  1  0
 17 18  2  0
 17 15  1  0
 19 17  1  0
 20 19  1  0
 20 26  1  0
 20 21  1  1
 22 21  1  0
 23 22  1  0
 24 23  1  0
 24 25  1  0
 26 28  1  0
 27 26  2  0
M  END
$$$$
