HMK.pdb
     RDKit          3D

 28 28  0  0  1  0  0  0  0  0999 V2000
   26.3598  -22.8794  -15.3088 N   0  0  0  0  0  0  0  0  0  0  0  0
   25.0328  -23.4666  -15.5480 C   0  0  1  0  0  0  0  0  0  0  0  0
   25.2720  -24.9825  -15.5162 C   0  0  0  0  0  0  0  0  0  0  0  0
   25.9988  -25.4613  -16.6926 C   0  0  0  0  0  0  0  0  0  0  0  0
   26.3758  -24.7118  -17.7827 C   0  0  0  0  0  0  0  0  0  0  0  0
   27.0294  -25.4997  -18.6702 N   0  0  0  0  0  0  0  0  0  0  0  0
   27.0479  -26.7335  -18.1133 C   0  0  0  0  0  0  0  0  0  0  0  0
   26.4210  -26.7024  -16.9141 N   0  0  0  0  0  0  0  0  0  0  0  0
   24.1314  -23.1778  -14.4147 C   0  0  0  0  0  0  0  0  0  0  0  0
   24.5363  -23.4997  -13.2690 O   0  0  0  0  0  0  0  0  0  0  0  0
   19.5446  -18.3077  -10.5732 C   0  0  0  0  0  0  0  0  0  0  0  0
   20.4858  -18.6789  -12.0847 S   0  0  0  0  0  0  0  0  0  0  0  0
   20.9475  -20.4526  -12.0627 C   0  0  0  0  0  0  0  0  0  0  0  0
   21.8119  -20.7880  -13.2406 C   0  0  0  0  0  0  0  0  0  0  0  0
   22.0298  -22.2455  -13.3626 C   0  0  2  0  0  0  0  0  0  0  0  0
   22.8669  -22.5762  -14.5152 N   0  0  0  0  0  0  0  0  0  0  0  0
   20.7667  -23.0461  -13.4025 C   0  0  0  0  0  0  0  0  0  0  0  0
   20.0081  -23.0298  -14.4020 O   0  0  0  0  0  0  0  0  0  0  0  0
   20.4563  -23.8294  -12.2608 N   0  0  0  0  0  0  0  0  0  0  0  0
   19.1953  -24.5013  -12.0328 C   0  0  1  0  0  0  0  0  0  0  0  0
   19.2614  -25.4664  -10.9296 C   0  0  0  0  0  0  0  0  0  0  0  0
   18.0551  -26.2716  -10.6941 C   0  0  0  0  0  0  0  0  0  0  0  0
   18.1737  -27.2353   -9.5381 C   0  0  0  0  0  0  0  0  0  0  0  0
   16.8463  -27.9648   -9.3122 C   0  0  0  0  0  0  0  0  0  0  0  0
   17.0098  -29.0444   -8.3863 N   0  0  0  0  0  0  0  0  0  0  0  0
   18.0185  -23.7576  -12.3720 C   0  0  0  0  0  0  0  0  0  0  0  0
   17.8103  -22.6248  -11.7860 O   0  0  0  0  0  0  0  0  0  0  0  0
   17.0343  -24.0898  -13.2679 O   0  0  0  0  0  0  0  0  0  0  0  0
  2  9  1  0
  2  1  1  1
  3  2  1  0
  4  3  1  0
  4  5  2  0
  6  5  1  0
  7  6  1  0
  8  7  2  0
  8  4  1  0
  9 16  1  0
 10  9  2  0
 12 11  1  0
 13 12  1  0
 14 13  1  0
 15 14  1  6
 16 15  1  0
 17 18  2  0
 17 15  1  0
 19 17  1  0
 20 19  1  0
 20 26  1  0
 20 21  1  1
 22 21  1  0
 23 22  1  0
 24 23  1  0
 24 25  1  0
 26 28  1  0
 27 26  2  0
M  END
$$$$
