HMK.pdb
     RDKit          3D

 28 28  0  0  1  0  0  0  0  0999 V2000
   20.4057  -20.2446  -13.1794 N   0  0  0  0  0  0  0  0  0  0  0  0
   21.4086  -21.3171  -13.2610 C   0  0  1  0  0  0  0  0  0  0  0  0
   21.4727  -21.6706  -14.7533 C   0  0  0  0  0  0  0  0  0  0  0  0
   20.2889  -22.4002  -15.2092 C   0  0  0  0  0  0  0  0  0  0  0  0
   19.2374  -21.8846  -15.9308 C   0  0  0  0  0  0  0  0  0  0  0  0
   18.3281  -22.8607  -16.1670 N   0  0  0  0  0  0  0  0  0  0  0  0
   18.8328  -23.9738  -15.5847 C   0  0  0  0  0  0  0  0  0  0  0  0
   20.0222  -23.6866  -15.0058 N   0  0  0  0  0  0  0  0  0  0  0  0
   22.7461  -20.7972  -12.9130 C   0  0  0  0  0  0  0  0  0  0  0  0
   23.0169  -19.6277  -13.2858 O   0  0  0  0  0  0  0  0  0  0  0  0
   28.0745  -19.5195   -7.6658 C   0  0  0  0  0  0  0  0  0  0  0  0
   26.6733  -20.5541   -8.1898 S   0  0  0  0  0  0  0  0  0  0  0  0
   26.6755  -20.6543  -10.0200 C   0  0  0  0  0  0  0  0  0  0  0  0
   25.4799  -21.4152  -10.5087 C   0  0  0  0  0  0  0  0  0  0  0  0
   25.0274  -20.9335  -11.8315 C   0  0  2  0  0  0  0  0  0  0  0  0
   23.7321  -21.5012  -12.2036 N   0  0  0  0  0  0  0  0  0  0  0  0
   26.0179  -21.1584  -12.9299 C   0  0  0  0  0  0  0  0  0  0  0  0
   26.3027  -22.3118  -13.3338 O   0  0  0  0  0  0  0  0  0  0  0  0
   26.6273  -20.0116  -13.5015 N   0  0  0  0  0  0  0  0  0  0  0  0
   27.4668  -20.0178  -14.6800 C   0  0  1  0  0  0  0  0  0  0  0  0
   27.8386  -18.6669  -15.1152 C   0  0  0  0  0  0  0  0  0  0  0  0
   28.6635  -18.5761  -16.3278 C   0  0  0  0  0  0  0  0  0  0  0  0
   29.0414  -17.1658  -16.7116 C   0  0  0  0  0  0  0  0  0  0  0  0
   29.9711  -17.1741  -17.9286 C   0  0  0  0  0  0  0  0  0  0  0  0
   30.3028  -15.8389  -18.3249 N   0  0  0  0  0  0  0  0  0  0  0  0
   28.3050  -21.1680  -14.8463 C   0  0  0  0  0  0  0  0  0  0  0  0
   28.2542  -21.8161  -15.9632 O   0  0  0  0  0  0  0  0  0  0  0  0
   29.1925  -21.7072  -13.9501 O   0  0  0  0  0  0  0  0  0  0  0  0
  2  9  1  0
  2  1  1  6
  3  2  1  0
  4  3  1  0
  4  5  2  0
  6  5  1  0
  7  6  1  0
  8  7  2  0
  8  4  1  0
  9 16  1  0
 10  9  2  0
 12 11  1  0
 13 12  1  0
 14 13  1  0
 15 14  1  1
 16 15  1  0
 17 18  2  0
 17 15  1  0
 19 17  1  0
 20 19  1  0
 20 26  1  0
 20 21  1  1
 22 21  1  0
 23 22  1  0
 24 23  1  0
 24 25  1  0
 26 28  1  0
 27 26  2  0
M  END
$$$$
