IEE.pdb
     RDKit          3D

 27 26  0  0  1  0  0  0  0  0999 V2000
    6.8413  -12.6976   20.4505 C   0  0  0  0  0  0  0  0  0  0  0  0
    7.4110  -13.2386   19.1541 C   0  0  0  0  0  0  0  0  0  0  0  0
    8.7967  -13.7641   19.4568 C   0  0  2  0  0  0  0  0  0  0  0  0
    9.6318  -12.6030   19.9607 C   0  0  0  0  0  0  0  0  0  0  0  0
    9.4288  -14.4061   18.2417 C   0  0  2  0  0  0  0  0  0  0  0  0
    8.5436  -15.4045   17.7338 N   0  0  0  0  0  0  0  0  0  0  0  0
   10.7582  -14.9474   18.6109 C   0  0  0  0  0  0  0  0  0  0  0  0
   10.7408  -16.0774   19.2188 O   0  0  0  0  0  0  0  0  0  0  0  0
   11.9930  -14.3143   18.3411 N   0  0  0  0  0  0  0  0  0  0  0  0
   13.2400  -14.9376   18.7276 C   0  0  1  0  0  0  0  0  0  0  0  0
   14.3715  -14.6176   17.8425 C   0  0  0  0  0  0  0  0  0  0  0  0
   15.7177  -15.1174   18.1741 C   0  0  0  0  0  0  0  0  0  0  0  0
   16.8266  -14.7941   17.3027 C   0  0  0  0  0  0  0  0  0  0  0  0
   17.4116  -15.6726   16.6346 O   0  0  0  0  0  0  0  0  0  0  0  0
   13.5176  -14.8150   20.1643 C   0  0  0  0  0  0  0  0  0  0  0  0
   13.6555  -13.6991   20.7195 O   0  0  0  0  0  0  0  0  0  0  0  0
   17.2925  -13.4947   17.1694 O   0  0  0  0  0  0  0  0  0  0  0  0
   13.6347  -15.9757   20.9637 N   0  0  0  0  0  0  0  0  0  0  0  0
   13.8092  -15.8340   22.3644 C   0  0  1  0  0  0  0  0  0  0  0  0
   13.0083  -16.8136   23.1582 C   0  0  0  0  0  0  0  0  0  0  0  0
   13.1960  -16.8695   24.6173 C   0  0  0  0  0  0  0  0  0  0  0  0
   12.5061  -17.8931   25.3947 C   0  0  0  0  0  0  0  0  0  0  0  0
   12.3171  -17.7767   26.6124 O   0  0  0  0  0  0  0  0  0  0  0  0
   15.2460  -15.8487   22.7691 C   0  0  0  0  0  0  0  0  0  0  0  0
   15.5347  -15.4136   23.9048 O   0  0  0  0  0  0  0  0  0  0  0  0
   12.0173  -19.0690   24.8068 O   0  0  0  0  0  0  0  0  0  0  0  0
   16.2565  -16.3148   21.9566 O   0  0  0  0  0  0  0  0  0  0  0  0
  2  1  1  0
  3  2  1  0
  3  4  1  6
  5  6  1  1
  5  3  1  0
  7  5  1  0
  8  7  2  0
  9  7  1  0
 10  9  1  0
 10 11  1  6
 11 12  1  0
 12 13  1  0
 13 14  2  0
 13 17  1  0
 15 18  1  0
 15 10  1  0
 16 15  2  0
 19 24  1  0
 19 18  1  0
 19 20  1  1
 21 20  1  0
 21 22  1  0
 22 23  2  0
 22 26  1  0
 24 27  1  0
 25 24  2  0
M  END
$$$$
