IEE.pdb
     RDKit          3D

 27 26  0  0  1  0  0  0  0  0999 V2000
    6.8117  -11.6938   27.2628 C   0  0  0  0  0  0  0  0  0  0  0  0
    6.0231  -12.7555   26.5222 C   0  0  0  0  0  0  0  0  0  0  0  0
    7.0224  -13.6701   25.8492 C   0  0  2  0  0  0  0  0  0  0  0  0
    7.8709  -12.8240   24.9199 C   0  0  0  0  0  0  0  0  0  0  0  0
    6.3374  -14.7898   25.0973 C   0  0  2  0  0  0  0  0  0  0  0  0
    5.5215  -15.5264   26.0084 N   0  0  0  0  0  0  0  0  0  0  0  0
    7.3613  -15.6291   24.4313 C   0  0  0  0  0  0  0  0  0  0  0  0
    7.9248  -16.5051   25.1809 O   0  0  0  0  0  0  0  0  0  0  0  0
    7.7356  -15.5229   23.0722 N   0  0  0  0  0  0  0  0  0  0  0  0
    8.7388  -16.4030   22.5138 C   0  0  1  0  0  0  0  0  0  0  0  0
    8.7493  -16.4456   21.0427 C   0  0  0  0  0  0  0  0  0  0  0  0
    9.7577  -17.2642   20.3464 C   0  0  0  0  0  0  0  0  0  0  0  0
    9.7832  -17.2755   18.8997 C   0  0  0  0  0  0  0  0  0  0  0  0
   10.5102  -18.0678   18.2641 O   0  0  0  0  0  0  0  0  0  0  0  0
   10.0555  -16.2386   23.1427 C   0  0  0  0  0  0  0  0  0  0  0  0
   10.6538  -15.1365   23.1486 O   0  0  0  0  0  0  0  0  0  0  0  0
    9.0029  -16.4068   18.1514 O   0  0  0  0  0  0  0  0  0  0  0  0
   10.6840  -17.3410   23.7668 N   0  0  0  0  0  0  0  0  0  0  0  0
   11.7472  -17.1053   24.6759 C   0  0  1  0  0  0  0  0  0  0  0  0
   11.4298  -17.5269   26.0732 C   0  0  0  0  0  0  0  0  0  0  0  0
   12.4549  -17.3608   27.1167 C   0  0  0  0  0  0  0  0  0  0  0  0
   12.1680  -17.7823   28.4835 C   0  0  0  0  0  0  0  0  0  0  0  0
   11.0845  -18.2898   28.8004 O   0  0  0  0  0  0  0  0  0  0  0  0
   13.0408  -17.6873   24.2108 C   0  0  0  0  0  0  0  0  0  0  0  0
   12.9925  -18.6756   23.4470 O   0  0  0  0  0  0  0  0  0  0  0  0
   13.1040  -17.6363   29.5179 O   0  0  0  0  0  0  0  0  0  0  0  0
   14.2713  -17.1899   24.5811 O   0  0  0  0  0  0  0  0  0  0  0  0
  2  1  1  0
  3  2  1  0
  3  4  1  6
  5  6  1  1
  5  3  1  0
  7  5  1  0
  8  7  2  0
  9  7  1  0
 10  9  1  0
 10 11  1  6
 11 12  1  0
 12 13  1  0
 13 14  2  0
 13 17  1  0
 15 18  1  0
 15 10  1  0
 16 15  2  0
 19 24  1  0
 19 18  1  0
 19 20  1  1
 21 20  1  0
 21 22  1  0
 22 23  2  0
 22 26  1  0
 24 27  1  0
 25 24  2  0
M  END
$$$$
