IEE.pdb
     RDKit          3D

 27 26  0  0  1  0  0  0  0  0999 V2000
    6.6870  -11.5570   27.2347 C   0  0  0  0  0  0  0  0  0  0  0  0
    5.9401  -12.6691   26.5256 C   0  0  0  0  0  0  0  0  0  0  0  0
    6.9692  -13.5197   25.8146 C   0  0  2  0  0  0  0  0  0  0  0  0
    7.7354  -12.6204   24.8638 C   0  0  0  0  0  0  0  0  0  0  0  0
    6.3275  -14.6746   25.0780 C   0  0  2  0  0  0  0  0  0  0  0  0
    5.6398  -15.4981   26.0199 N   0  0  0  0  0  0  0  0  0  0  0  0
    7.3679  -15.4095   24.3203 C   0  0  0  0  0  0  0  0  0  0  0  0
    8.1315  -16.1619   25.0256 O   0  0  0  0  0  0  0  0  0  0  0  0
    7.5574  -15.3310   22.9216 N   0  0  0  0  0  0  0  0  0  0  0  0
    8.5840  -16.1168   22.2723 C   0  0  1  0  0  0  0  0  0  0  0  0
    8.4817  -16.1443   20.8045 C   0  0  0  0  0  0  0  0  0  0  0  0
    9.4920  -16.8751   20.0189 C   0  0  0  0  0  0  0  0  0  0  0  0
    9.3287  -16.9862   18.5855 C   0  0  0  0  0  0  0  0  0  0  0  0
   10.2621  -16.7231   17.7982 O   0  0  0  0  0  0  0  0  0  0  0  0
    9.9277  -15.8465   22.7992 C   0  0  0  0  0  0  0  0  0  0  0  0
   10.4469  -14.7068   22.7364 O   0  0  0  0  0  0  0  0  0  0  0  0
    8.1286  -17.3885   18.0189 O   0  0  0  0  0  0  0  0  0  0  0  0
   10.6742  -16.8863   23.4005 N   0  0  0  0  0  0  0  0  0  0  0  0
   11.9158  -16.5786   24.0139 C   0  0  1  0  0  0  0  0  0  0  0  0
   11.9391  -16.8802   25.4766 C   0  0  0  0  0  0  0  0  0  0  0  0
   11.6849  -18.2600   25.9226 C   0  0  0  0  0  0  0  0  0  0  0  0
   11.7549  -18.5834   27.3435 C   0  0  0  0  0  0  0  0  0  0  0  0
   11.4413  -19.6987   27.7793 O   0  0  0  0  0  0  0  0  0  0  0  0
   13.0749  -17.2020   23.3097 C   0  0  0  0  0  0  0  0  0  0  0  0
   14.2237  -16.8699   23.6739 O   0  0  0  0  0  0  0  0  0  0  0  0
   12.1814  -17.6484   28.2980 O   0  0  0  0  0  0  0  0  0  0  0  0
   12.9374  -18.1164   22.2881 O   0  0  0  0  0  0  0  0  0  0  0  0
  2  1  1  0
  3  2  1  0
  3  4  1  6
  5  6  1  1
  5  3  1  0
  7  5  1  0
  8  7  2  0
  9  7  1  0
 10  9  1  0
 10 11  1  6
 11 12  1  0
 12 13  1  0
 13 14  2  0
 13 17  1  0
 15 18  1  0
 15 10  1  0
 16 15  2  0
 19 24  1  0
 19 18  1  0
 19 20  1  1
 21 20  1  0
 21 22  1  0
 22 23  2  0
 22 26  1  0
 24 27  1  0
 25 24  2  0
M  END
$$$$
