IEE.pdb
     RDKit          3D

 27 26  0  0  1  0  0  0  0  0999 V2000
    8.1986  -11.9480   26.6322 C   0  0  0  0  0  0  0  0  0  0  0  0
    7.8805  -13.4004   26.3372 C   0  0  0  0  0  0  0  0  0  0  0  0
    6.8143  -13.4182   25.2643 C   0  0  2  0  0  0  0  0  0  0  0  0
    5.6258  -12.6305   25.7804 C   0  0  0  0  0  0  0  0  0  0  0  0
    6.4165  -14.8300   24.8949 C   0  0  2  0  0  0  0  0  0  0  0  0
    6.0744  -15.5399   26.0854 N   0  0  0  0  0  0  0  0  0  0  0  0
    7.5213  -15.4675   24.1402 C   0  0  0  0  0  0  0  0  0  0  0  0
    7.9304  -16.5896   24.6096 O   0  0  0  0  0  0  0  0  0  0  0  0
    8.1240  -14.9304   22.9797 N   0  0  0  0  0  0  0  0  0  0  0  0
    9.0341  -15.7274   22.1865 C   0  0  1  0  0  0  0  0  0  0  0  0
    9.1024  -15.3314   20.7707 C   0  0  0  0  0  0  0  0  0  0  0  0
    9.9999  -16.0581   19.8550 C   0  0  0  0  0  0  0  0  0  0  0  0
    9.4701  -17.1445   19.0597 C   0  0  0  0  0  0  0  0  0  0  0  0
    8.7201  -16.9352   18.0830 O   0  0  0  0  0  0  0  0  0  0  0  0
   10.3328  -15.9307   22.8409 C   0  0  0  0  0  0  0  0  0  0  0  0
   11.2525  -16.5878   22.2979 O   0  0  0  0  0  0  0  0  0  0  0  0
    9.7690  -18.4683   19.3451 O   0  0  0  0  0  0  0  0  0  0  0  0
   10.5753  -15.3768   24.1193 N   0  0  0  0  0  0  0  0  0  0  0  0
   11.5881  -15.9426   24.9357 C   0  0  1  0  0  0  0  0  0  0  0  0
   11.0703  -16.4688   26.2342 C   0  0  0  0  0  0  0  0  0  0  0  0
   11.9942  -17.1803   27.1327 C   0  0  0  0  0  0  0  0  0  0  0  0
   11.5110  -17.6819   28.4145 C   0  0  0  0  0  0  0  0  0  0  0  0
   11.0798  -18.8344   28.5483 O   0  0  0  0  0  0  0  0  0  0  0  0
   12.4001  -16.9680   24.2163 C   0  0  0  0  0  0  0  0  0  0  0  0
   11.7880  -17.8681   23.6017 O   0  0  0  0  0  0  0  0  0  0  0  0
   11.5068  -16.8864   29.5697 O   0  0  0  0  0  0  0  0  0  0  0  0
   13.7779  -16.9670   24.1994 O   0  0  0  0  0  0  0  0  0  0  0  0
  2  1  1  0
  3  2  1  0
  3  4  1  1
  5  6  1  1
  5  3  1  0
  7  5  1  0
  8  7  2  0
  9  7  1  0
 10  9  1  0
 10 11  1  6
 11 12  1  0
 12 13  1  0
 13 14  2  0
 13 17  1  0
 15 18  1  0
 15 10  1  0
 16 15  2  0
 19 24  1  0
 19 18  1  0
 19 20  1  1
 21 20  1  0
 21 22  1  0
 22 23  2  0
 22 26  1  0
 24 27  1  0
 25 24  2  0
M  END
$$$$
