IEE.pdb
     RDKit          3D

 27 26  0  0  1  0  0  0  0  0999 V2000
    6.1624  -11.8228   26.8123 C   0  0  0  0  0  0  0  0  0  0  0  0
    5.6717  -13.0914   26.1435 C   0  0  0  0  0  0  0  0  0  0  0  0
    6.8837  -13.8016   25.5824 C   0  0  2  0  0  0  0  0  0  0  0  0
    7.5717  -12.8525   24.6205 C   0  0  0  0  0  0  0  0  0  0  0  0
    6.5057  -15.0962   24.8974 C   0  0  2  0  0  0  0  0  0  0  0  0
    5.8369  -15.9377   25.8371 N   0  0  0  0  0  0  0  0  0  0  0  0
    7.7227  -15.7209   24.3273 C   0  0  0  0  0  0  0  0  0  0  0  0
    8.4252  -16.4074   25.1532 O   0  0  0  0  0  0  0  0  0  0  0  0
    8.1352  -15.6075   22.9799 N   0  0  0  0  0  0  0  0  0  0  0  0
    9.3153  -16.3000   22.5104 C   0  0  1  0  0  0  0  0  0  0  0  0
    9.4695  -16.3004   21.0468 C   0  0  0  0  0  0  0  0  0  0  0  0
   10.6040  -17.0154   20.4355 C   0  0  0  0  0  0  0  0  0  0  0  0
   10.3428  -18.0983   19.5121 C   0  0  0  0  0  0  0  0  0  0  0  0
   10.0380  -19.2413   19.9132 O   0  0  0  0  0  0  0  0  0  0  0  0
   10.5236  -15.9439   23.2650 C   0  0  0  0  0  0  0  0  0  0  0  0
   10.8162  -14.7521   23.5230 O   0  0  0  0  0  0  0  0  0  0  0  0
   10.4197  -17.9183   18.1391 O   0  0  0  0  0  0  0  0  0  0  0  0
   11.3951  -16.9582   23.7250 N   0  0  0  0  0  0  0  0  0  0  0  0
   12.1506  -16.7360   24.9049 C   0  0  1  0  0  0  0  0  0  0  0  0
   11.3090  -16.6672   26.1370 C   0  0  0  0  0  0  0  0  0  0  0  0
   11.9710  -16.5169   27.4433 C   0  0  0  0  0  0  0  0  0  0  0  0
   11.1630  -16.3842   28.6507 C   0  0  0  0  0  0  0  0  0  0  0  0
   11.6488  -16.0194   29.7291 O   0  0  0  0  0  0  0  0  0  0  0  0
   13.2702  -17.7107   25.0626 C   0  0  0  0  0  0  0  0  0  0  0  0
   14.2008  -17.4064   25.8398 O   0  0  0  0  0  0  0  0  0  0  0  0
    9.7884  -16.6628   28.6590 O   0  0  0  0  0  0  0  0  0  0  0  0
   13.3235  -18.9164   24.3979 O   0  0  0  0  0  0  0  0  0  0  0  0
  2  1  1  0
  3  2  1  0
  3  4  1  6
  5  6  1  1
  5  3  1  0
  7  5  1  0
  8  7  2  0
  9  7  1  0
 10  9  1  0
 10 11  1  6
 11 12  1  0
 12 13  1  0
 13 14  2  0
 13 17  1  0
 15 18  1  0
 15 10  1  0
 16 15  2  0
 19 24  1  0
 19 18  1  0
 19 20  1  1
 21 20  1  0
 21 22  1  0
 22 23  2  0
 22 26  1  0
 24 27  1  0
 25 24  2  0
M  END
$$$$
