IEE.pdb
     RDKit          3D

 27 26  0  0  1  0  0  0  0  0999 V2000
    6.8005  -11.9518   27.6723 C   0  0  0  0  0  0  0  0  0  0  0  0
    6.0567  -12.9017   26.7548 C   0  0  0  0  0  0  0  0  0  0  0  0
    7.0923  -13.7521   26.0529 C   0  0  2  0  0  0  0  0  0  0  0  0
    8.0250  -12.8203   25.3035 C   0  0  0  0  0  0  0  0  0  0  0  0
    6.4523  -14.7541   25.1179 C   0  0  2  0  0  0  0  0  0  0  0  0
    5.5026  -15.5284   25.8506 N   0  0  0  0  0  0  0  0  0  0  0  0
    7.5097  -15.5812   24.4899 C   0  0  0  0  0  0  0  0  0  0  0  0
    7.9252  -16.5690   25.1960 O   0  0  0  0  0  0  0  0  0  0  0  0
    8.0625  -15.3521   23.2092 N   0  0  0  0  0  0  0  0  0  0  0  0
    9.0727  -16.2386   22.6739 C   0  0  1  0  0  0  0  0  0  0  0  0
    9.1420  -16.2528   21.2039 C   0  0  0  0  0  0  0  0  0  0  0  0
    7.9929  -16.7505   20.4268 C   0  0  0  0  0  0  0  0  0  0  0  0
    8.0691  -16.7647   18.9819 C   0  0  0  0  0  0  0  0  0  0  0  0
    9.0981  -16.3962   18.3772 O   0  0  0  0  0  0  0  0  0  0  0  0
   10.3654  -16.1092   23.3582 C   0  0  0  0  0  0  0  0  0  0  0  0
   10.8302  -14.9930   23.6907 O   0  0  0  0  0  0  0  0  0  0  0  0
    7.0035  -17.1867   18.2012 O   0  0  0  0  0  0  0  0  0  0  0  0
   11.1235  -17.2637   23.6623 N   0  0  0  0  0  0  0  0  0  0  0  0
   12.2630  -17.1405   24.4983 C   0  0  1  0  0  0  0  0  0  0  0  0
   11.9417  -17.2656   25.9516 C   0  0  0  0  0  0  0  0  0  0  0  0
   11.7136  -18.6056   26.5171 C   0  0  0  0  0  0  0  0  0  0  0  0
   11.4495  -18.7509   27.9444 C   0  0  0  0  0  0  0  0  0  0  0  0
   12.1326  -18.1745   28.8006 O   0  0  0  0  0  0  0  0  0  0  0  0
   13.3686  -18.0622   24.1025 C   0  0  0  0  0  0  0  0  0  0  0  0
   13.1178  -18.9365   23.2451 O   0  0  0  0  0  0  0  0  0  0  0  0
   10.4059  -19.5531   28.4289 O   0  0  0  0  0  0  0  0  0  0  0  0
   14.6382  -17.9934   24.6335 O   0  0  0  0  0  0  0  0  0  0  0  0
  2  1  1  0
  3  2  1  0
  3  4  1  6
  5  6  1  1
  5  3  1  0
  7  5  1  0
  8  7  2  0
  9  7  1  0
 10  9  1  0
 10 11  1  6
 11 12  1  0
 12 13  1  0
 13 14  2  0
 13 17  1  0
 15 18  1  0
 15 10  1  0
 16 15  2  0
 19 24  1  0
 19 18  1  0
 19 20  1  1
 21 20  1  0
 21 22  1  0
 22 23  2  0
 22 26  1  0
 24 27  1  0
 25 24  2  0
M  END
$$$$
