NGD.pdb
     RDKit          3D

 21 20  0  0  1  0  0  0  0  0999 V2000
    7.0462  -16.2951   13.1400 N   0  0  0  0  0  0  0  0  0  0  0  0
    8.3173  -16.4141   13.7520 C   0  0  0  0  0  0  0  0  0  0  0  0
    9.2868  -16.9247   13.1684 O   0  0  0  0  0  0  0  0  0  0  0  0
    8.4929  -15.9143   15.1282 C   0  0  0  0  0  0  0  0  0  0  0  0
    9.0099  -17.0756   15.9767 C   0  0  2  0  0  0  0  0  0  0  0  0
    7.9164  -17.9470   16.3565 N   0  0  0  0  0  0  0  0  0  0  0  0
    9.5508  -16.4535   17.2178 C   0  0  0  0  0  0  0  0  0  0  0  0
   10.5802  -15.7040   17.1667 O   0  0  0  0  0  0  0  0  0  0  0  0
    8.9450  -16.6724   18.4904 N   0  0  0  0  0  0  0  0  0  0  0  0
    9.6471  -16.2432   19.6635 C   0  0  0  0  0  0  0  0  0  0  0  0
   10.7036  -17.2243   20.0683 C   0  0  0  0  0  0  0  0  0  0  0  0
   10.8201  -18.2677   19.3923 O   0  0  0  0  0  0  0  0  0  0  0  0
   11.5559  -17.0196   21.1636 N   0  0  0  0  0  0  0  0  0  0  0  0
   12.5266  -17.9173   21.7092 C   0  0  1  0  0  0  0  0  0  0  0  0
   13.8339  -17.2529   22.0176 C   0  0  0  0  0  0  0  0  0  0  0  0
   13.6838  -16.1404   22.9816 C   0  0  0  0  0  0  0  0  0  0  0  0
   12.5662  -15.8093   23.4487 O   0  0  0  0  0  0  0  0  0  0  0  0
   12.0620  -18.8076   22.7826 C   0  0  0  0  0  0  0  0  0  0  0  0
   12.6965  -19.9792   23.0846 O   0  0  0  0  0  0  0  0  0  0  0  0
   14.8041  -15.4366   23.3873 O   0  0  0  0  0  0  0  0  0  0  0  0
   11.0500  -18.4746   23.4428 O   0  0  0  0  0  0  0  0  0  0  0  0
  2  1  1  0
  3  2  2  0
  4  2  1  0
  5  6  1  1
  5  4  1  0
  7  5  1  0
  8  7  2  0
  9  7  1  0
 10 11  1  0
 10  9  1  0
 11 13  1  0
 12 11  2  0
 13 14  1  0
 14 18  1  0
 14 15  1  1
 15 16  1  0
 16 17  2  0
 18 21  2  0
 18 19  1  0
 20 16  1  0
M  END
$$$$
