NGD.pdb
     RDKit          3D

 21 20  0  0  1  0  0  0  0  0999 V2000
    8.5012  -12.7281   16.9805 N   0  0  0  0  0  0  0  0  0  0  0  0
    7.6829  -13.6779   17.6382 C   0  0  0  0  0  0  0  0  0  0  0  0
    7.1453  -14.6192   17.0332 O   0  0  0  0  0  0  0  0  0  0  0  0
    7.4634  -13.5425   19.0902 C   0  0  0  0  0  0  0  0  0  0  0  0
    8.4763  -14.4448   19.7943 C   0  0  2  0  0  0  0  0  0  0  0  0
    8.1456  -15.8385   19.5761 N   0  0  0  0  0  0  0  0  0  0  0  0
    8.3209  -14.1605   21.2486 C   0  0  0  0  0  0  0  0  0  0  0  0
    8.6539  -13.0253   21.7222 O   0  0  0  0  0  0  0  0  0  0  0  0
    7.8023  -15.1358   22.1510 N   0  0  0  0  0  0  0  0  0  0  0  0
    7.5803  -14.7548   23.5144 C   0  0  0  0  0  0  0  0  0  0  0  0
    8.7303  -15.1403   24.3927 C   0  0  0  0  0  0  0  0  0  0  0  0
    9.6353  -15.8415   23.8943 O   0  0  0  0  0  0  0  0  0  0  0  0
    8.8286  -14.7499   25.7366 N   0  0  0  0  0  0  0  0  0  0  0  0
    9.7357  -15.2294   26.7332 C   0  0  1  0  0  0  0  0  0  0  0  0
    9.3439  -14.8329   28.1242 C   0  0  0  0  0  0  0  0  0  0  0  0
   10.3446  -15.2531   29.1298 C   0  0  0  0  0  0  0  0  0  0  0  0
   10.5965  -16.4625   29.3546 O   0  0  0  0  0  0  0  0  0  0  0  0
   10.1396  -16.6386   26.6246 C   0  0  0  0  0  0  0  0  0  0  0  0
   11.4460  -17.0147   26.4893 O   0  0  0  0  0  0  0  0  0  0  0  0
   11.0297  -14.2906   29.8504 O   0  0  0  0  0  0  0  0  0  0  0  0
    9.2514  -17.5221   26.6609 O   0  0  0  0  0  0  0  0  0  0  0  0
  2  1  1  0
  3  2  2  0
  4  2  1  0
  5  6  1  1
  5  4  1  0
  7  5  1  0
  8  7  2  0
  9  7  1  0
 10 11  1  0
 10  9  1  0
 11 13  1  0
 12 11  2  0
 13 14  1  0
 14 18  1  0
 14 15  1  1
 15 16  1  0
 16 17  2  0
 18 21  2  0
 18 19  1  0
 20 16  1  0
M  END
$$$$
