NGD.pdb
     RDKit          3D

 21 20  0  0  1  0  0  0  0  0999 V2000
    6.3838  -12.4223   18.4231 N   0  0  0  0  0  0  0  0  0  0  0  0
    7.4633  -13.3285   18.2896 C   0  0  0  0  0  0  0  0  0  0  0  0
    7.5828  -14.0740   17.3041 O   0  0  0  0  0  0  0  0  0  0  0  0
    8.4783  -13.3868   19.3578 C   0  0  0  0  0  0  0  0  0  0  0  0
    8.5687  -14.8384   19.8273 C   0  0  2  0  0  0  0  0  0  0  0  0
    7.3476  -15.2252   20.5044 N   0  0  0  0  0  0  0  0  0  0  0  0
    9.6738  -14.8668   20.8263 C   0  0  0  0  0  0  0  0  0  0  0  0
   10.7721  -14.2655   20.5891 O   0  0  0  0  0  0  0  0  0  0  0  0
    9.5446  -15.5596   22.0664 N   0  0  0  0  0  0  0  0  0  0  0  0
   10.6704  -15.5889   22.9525 C   0  0  0  0  0  0  0  0  0  0  0  0
   10.3603  -16.3243   24.2196 C   0  0  0  0  0  0  0  0  0  0  0  0
    9.3441  -15.9816   24.8590 O   0  0  0  0  0  0  0  0  0  0  0  0
   11.1575  -17.3693   24.7101 N   0  0  0  0  0  0  0  0  0  0  0  0
   10.8709  -18.2730   25.7811 C   0  0  1  0  0  0  0  0  0  0  0  0
   10.2047  -19.5348   25.3233 C   0  0  0  0  0  0  0  0  0  0  0  0
    9.8205  -20.4081   26.4541 C   0  0  0  0  0  0  0  0  0  0  0  0
   10.0366  -20.0862   27.6485 O   0  0  0  0  0  0  0  0  0  0  0  0
   11.9553  -18.5075   26.7454 C   0  0  0  0  0  0  0  0  0  0  0  0
   13.2454  -18.1325   26.4978 O   0  0  0  0  0  0  0  0  0  0  0  0
    9.2030  -21.6199   26.1981 O   0  0  0  0  0  0  0  0  0  0  0  0
   11.6813  -19.0686   27.8321 O   0  0  0  0  0  0  0  0  0  0  0  0
  2  1  1  0
  3  2  2  0
  4  2  1  0
  5  6  1  1
  5  4  1  0
  7  5  1  0
  8  7  2  0
  9  7  1  0
 10 11  1  0
 10  9  1  0
 11 13  1  0
 12 11  2  0
 13 14  1  0
 14 18  1  0
 14 15  1  6
 15 16  1  0
 16 17  2  0
 18 21  2  0
 18 19  1  0
 20 16  1  0
M  END
$$$$
