NGD.pdb
     RDKit          3D

 21 20  0  0  1  0  0  0  0  0999 V2000
    6.2018  -12.8400   18.2930 N   0  0  0  0  0  0  0  0  0  0  0  0
    7.4546  -13.4982   18.3320 C   0  0  0  0  0  0  0  0  0  0  0  0
    7.9341  -14.0664   17.3377 O   0  0  0  0  0  0  0  0  0  0  0  0
    8.2132  -13.5078   19.5965 C   0  0  0  0  0  0  0  0  0  0  0  0
    9.0974  -14.7544   19.5927 C   0  0  2  0  0  0  0  0  0  0  0  0
    8.2807  -15.9506   19.6287 N   0  0  0  0  0  0  0  0  0  0  0  0
    9.8768  -14.6947   20.8612 C   0  0  0  0  0  0  0  0  0  0  0  0
   10.7176  -13.7574   21.0572 O   0  0  0  0  0  0  0  0  0  0  0  0
    9.7132  -15.6720   21.8872 N   0  0  0  0  0  0  0  0  0  0  0  0
   10.6200  -15.6556   22.9966 C   0  0  0  0  0  0  0  0  0  0  0  0
   11.7638  -16.6005   22.7926 C   0  0  0  0  0  0  0  0  0  0  0  0
   11.7701  -17.2927   21.7534 O   0  0  0  0  0  0  0  0  0  0  0  0
   12.8144  -16.7368   23.7123 N   0  0  0  0  0  0  0  0  0  0  0  0
   13.9161  -17.6480   23.6683 C   0  0  1  0  0  0  0  0  0  0  0  0
   15.0736  -17.2120   24.5142 C   0  0  0  0  0  0  0  0  0  0  0  0
   15.6300  -15.9128   24.0765 C   0  0  0  0  0  0  0  0  0  0  0  0
   15.5044  -15.4967   22.8984 O   0  0  0  0  0  0  0  0  0  0  0  0
   13.5910  -19.0733   23.8216 C   0  0  0  0  0  0  0  0  0  0  0  0
   12.6113  -19.5113   24.6670 O   0  0  0  0  0  0  0  0  0  0  0  0
   16.3119  -15.1240   24.9864 O   0  0  0  0  0  0  0  0  0  0  0  0
   14.2358  -19.9117   23.1492 O   0  0  0  0  0  0  0  0  0  0  0  0
  2  1  1  0
  3  2  2  0
  4  2  1  0
  5  6  1  1
  5  4  1  0
  7  5  1  0
  8  7  2  0
  9  7  1  0
 10 11  1  0
 10  9  1  0
 11 13  1  0
 12 11  2  0
 13 14  1  0
 14 18  1  0
 14 15  1  1
 15 16  1  0
 16 17  2  0
 18 21  2  0
 18 19  1  0
 20 16  1  0
M  END
$$$$
