NGD.pdb
     RDKit          3D

 21 20  0  0  1  0  0  0  0  0999 V2000
    7.2365  -12.0639   17.7156 N   0  0  0  0  0  0  0  0  0  0  0  0
    7.3509  -13.4170   17.3150 C   0  0  0  0  0  0  0  0  0  0  0  0
    7.4463  -13.7476   16.1222 O   0  0  0  0  0  0  0  0  0  0  0  0
    7.3570  -14.4666   18.3509 C   0  0  0  0  0  0  0  0  0  0  0  0
    8.8128  -14.7170   18.7432 C   0  0  2  0  0  0  0  0  0  0  0  0
    9.5318  -15.3290   17.6443 N   0  0  0  0  0  0  0  0  0  0  0  0
    8.7615  -15.7013   19.8605 C   0  0  0  0  0  0  0  0  0  0  0  0
    8.7585  -16.9522   19.6172 O   0  0  0  0  0  0  0  0  0  0  0  0
    8.7131  -15.2848   21.2238 N   0  0  0  0  0  0  0  0  0  0  0  0
    8.6410  -16.2898   22.2426 C   0  0  0  0  0  0  0  0  0  0  0  0
    9.9855  -16.5745   22.8376 C   0  0  0  0  0  0  0  0  0  0  0  0
   10.9489  -15.8737   22.4635 O   0  0  0  0  0  0  0  0  0  0  0  0
   10.2018  -17.5853   23.7860 N   0  0  0  0  0  0  0  0  0  0  0  0
   11.3954  -17.8671   24.5221 C   0  0  1  0  0  0  0  0  0  0  0  0
   11.1307  -18.2530   25.9457 C   0  0  0  0  0  0  0  0  0  0  0  0
   12.3718  -18.3201   26.7484 C   0  0  0  0  0  0  0  0  0  0  0  0
   13.4878  -17.9859   26.2798 O   0  0  0  0  0  0  0  0  0  0  0  0
   12.3811  -18.7340   23.8607 C   0  0  0  0  0  0  0  0  0  0  0  0
   13.4843  -18.2342   23.2285 O   0  0  0  0  0  0  0  0  0  0  0  0
   12.3113  -18.7638   28.0579 O   0  0  0  0  0  0  0  0  0  0  0  0
   12.2005  -19.9740   23.8827 O   0  0  0  0  0  0  0  0  0  0  0  0
  2  1  1  0
  3  2  2  0
  4  2  1  0
  5  6  1  6
  5  4  1  0
  7  5  1  0
  8  7  2  0
  9  7  1  0
 10 11  1  0
 10  9  1  0
 11 13  1  0
 12 11  2  0
 13 14  1  0
 14 18  1  0
 14 15  1  1
 15 16  1  0
 16 17  2  0
 18 21  2  0
 18 19  1  0
 20 16  1  0
M  END
$$$$
