NGD.pdb
     RDKit          3D

 21 20  0  0  1  0  0  0  0  0999 V2000
   -6.7158  -18.4614   18.0220 N   0  0  0  0  0  0  0  0  0  0  0  0
   -6.8716  -17.9379   19.3281 C   0  0  0  0  0  0  0  0  0  0  0  0
   -7.5495  -16.9234   19.5573 O   0  0  0  0  0  0  0  0  0  0  0  0
   -6.2057  -18.6222   20.4519 C   0  0  0  0  0  0  0  0  0  0  0  0
   -5.3987  -19.7826   19.8705 C   0  0  2  0  0  0  0  0  0  0  0  0
   -6.2868  -20.7959   19.3378 N   0  0  0  0  0  0  0  0  0  0  0  0
   -4.6666  -20.3772   21.0239 C   0  0  0  0  0  0  0  0  0  0  0  0
   -3.7441  -19.7208   21.6088 O   0  0  0  0  0  0  0  0  0  0  0  0
   -4.9668  -21.6850   21.5075 N   0  0  0  0  0  0  0  0  0  0  0  0
   -4.2136  -22.1926   22.6159 C   0  0  0  0  0  0  0  0  0  0  0  0
   -4.6592  -23.5680   23.0064 C   0  0  0  0  0  0  0  0  0  0  0  0
   -5.5577  -24.1051   22.3258 O   0  0  0  0  0  0  0  0  0  0  0  0
   -4.1138  -24.2669   24.0937 N   0  0  0  0  0  0  0  0  0  0  0  0
   -4.4944  -25.5484   24.6023 C   0  0  1  0  0  0  0  0  0  0  0  0
   -3.6345  -26.0082   25.7402 C   0  0  0  0  0  0  0  0  0  0  0  0
   -2.2130  -26.1391   25.3515 C   0  0  0  0  0  0  0  0  0  0  0  0
   -1.8295  -25.9879   24.1654 O   0  0  0  0  0  0  0  0  0  0  0  0
   -5.9299  -25.7564   24.8403 C   0  0  0  0  0  0  0  0  0  0  0  0
   -6.5995  -25.1312   25.8538 O   0  0  0  0  0  0  0  0  0  0  0  0
   -1.2685  -26.4373   26.3181 O   0  0  0  0  0  0  0  0  0  0  0  0
   -6.5577  -26.5328   24.0827 O   0  0  0  0  0  0  0  0  0  0  0  0
  2  1  1  0
  3  2  2  0
  4  2  1  0
  5  6  1  1
  5  4  1  0
  7  5  1  0
  8  7  2  0
  9  7  1  0
 10 11  1  0
 10  9  1  0
 11 13  1  0
 12 11  2  0
 13 14  1  0
 14 18  1  0
 14 15  1  1
 15 16  1  0
 16 17  2  0
 18 21  2  0
 18 19  1  0
 20 16  1  0
M  END
$$$$
