NGD.pdb
     RDKit          3D

 21 20  0  0  1  0  0  0  0  0999 V2000
    6.2837  -10.4390   26.8376 N   0  0  0  0  0  0  0  0  0  0  0  0
    6.1659  -11.7819   26.4052 C   0  0  0  0  0  0  0  0  0  0  0  0
    5.6132  -12.6529   27.0960 O   0  0  0  0  0  0  0  0  0  0  0  0
    6.7188  -12.1561   25.0903 C   0  0  0  0  0  0  0  0  0  0  0  0
    6.6192  -13.6760   24.9653 C   0  0  2  0  0  0  0  0  0  0  0  0
    7.3649  -14.3182   26.0286 N   0  0  0  0  0  0  0  0  0  0  0  0
    7.2810  -14.0146   23.6740 C   0  0  0  0  0  0  0  0  0  0  0  0
    6.8585  -13.5111   22.5822 O   0  0  0  0  0  0  0  0  0  0  0  0
    8.3950  -14.9033   23.6140 N   0  0  0  0  0  0  0  0  0  0  0  0
    8.9929  -15.1633   22.3380 C   0  0  0  0  0  0  0  0  0  0  0  0
   10.1050  -16.1612   22.4390 C   0  0  0  0  0  0  0  0  0  0  0  0
   11.0236  -16.0979   21.5957 O   0  0  0  0  0  0  0  0  0  0  0  0
   10.1535  -17.1519   23.4311 N   0  0  0  0  0  0  0  0  0  0  0  0
   11.1797  -17.3841   24.4001 C   0  0  1  0  0  0  0  0  0  0  0  0
   12.4728  -16.7070   24.0607 C   0  0  0  0  0  0  0  0  0  0  0  0
   13.2562  -17.4642   23.0596 C   0  0  0  0  0  0  0  0  0  0  0  0
   12.8983  -18.5960   22.6502 O   0  0  0  0  0  0  0  0  0  0  0  0
   10.7949  -17.2244   25.8098 C   0  0  0  0  0  0  0  0  0  0  0  0
    9.5769  -16.7300   26.1819 O   0  0  0  0  0  0  0  0  0  0  0  0
   14.4214  -16.9164   22.5524 O   0  0  0  0  0  0  0  0  0  0  0  0
   11.6148  -17.5574   26.6973 O   0  0  0  0  0  0  0  0  0  0  0  0
  2  1  1  0
  3  2  2  0
  4  2  1  0
  5  6  1  1
  5  4  1  0
  7  5  1  0
  8  7  2  0
  9  7  1  0
 10 11  1  0
 10  9  1  0
 11 13  1  0
 12 11  2  0
 13 14  1  0
 14 18  1  0
 14 15  1  6
 15 16  1  0
 16 17  2  0
 18 21  2  0
 18 19  1  0
 20 16  1  0
M  END
$$$$
