VRD.pdb
     RDKit          3D

 27 26  0  0  1  0  0  0  0  0999 V2000
    8.3001  -12.6435   26.0118 C   0  0  0  0  0  0  0  0  0  0  0  0
    7.3264  -13.5168   26.8138 C   0  0  1  0  0  0  0  0  0  0  0  0
    6.6388  -12.7214   27.8791 C   0  0  0  0  0  0  0  0  0  0  0  0
    6.3751  -14.1219   25.8160 C   0  0  2  0  0  0  0  0  0  0  0  0
    5.4973  -15.0592   26.4854 N   0  0  0  0  0  0  0  0  0  0  0  0
    7.0408  -14.7998   24.7038 C   0  0  0  0  0  0  0  0  0  0  0  0
    7.4433  -15.9868   24.8562 O   0  0  0  0  0  0  0  0  0  0  0  0
    7.3777  -15.0435   16.2177 N   0  0  0  0  0  0  0  0  0  0  0  0
    8.0078  -14.1784   17.1510 C   0  0  0  0  0  0  0  0  0  0  0  0
    8.4653  -13.0613   16.7493 N   0  0  0  0  0  0  0  0  0  0  0  0
    8.1106  -14.5869   18.5175 N   0  0  0  0  0  0  0  0  0  0  0  0
    6.9520  -15.0710   19.2290 C   0  0  0  0  0  0  0  0  0  0  0  0
    6.6397  -14.1511   20.4188 C   0  0  0  0  0  0  0  0  0  0  0  0
    7.8943  -13.9871   21.1857 C   0  0  0  0  0  0  0  0  0  0  0  0
    8.0734  -14.8957   22.3781 C   0  0  2  0  0  0  0  0  0  0  0  0
    7.2823  -14.2332   23.4377 N   0  0  0  0  0  0  0  0  0  0  0  0
    9.4560  -15.0937   22.8142 C   0  0  0  0  0  0  0  0  0  0  0  0
    9.9719  -14.1930   23.5508 O   0  0  0  0  0  0  0  0  0  0  0  0
    8.9782  -12.4419   17.4100 N   0  0  0  0  0  0  0  0  0  0  0  0
   10.2726  -16.2026   22.4928 C   0  0  1  0  0  0  0  0  0  0  0  0
   11.6534  -16.2861   23.0124 C   0  0  0  0  0  0  0  0  0  0  0  0
   11.6047  -17.3051   24.1230 C   0  0  0  0  0  0  0  0  0  0  0  0
   12.7877  -17.2607   24.9984 O   0  0  0  0  0  0  0  0  0  0  0  0
   13.7632  -16.4970   24.8990 C   0  0  0  0  0  0  0  0  0  0  0  0
   12.4826  -16.8303   21.9150 O   0  0  0  0  0  0  0  0  0  0  0  0
   11.9931  -17.1587   20.6560 O   0  0  0  0  0  0  0  0  0  0  0  0
   12.7850  -18.1988   26.0559 O   0  0  0  0  0  0  0  0  0  0  0  0
  2  1  1  6
  3  2  1  0
  4  2  1  0
  4  5  1  1
  6  4  1  0
  6  7  2  0
  9  8  1  0
 10  9  2  0
 11  9  1  0
 12 13  1  0
 12 11  1  0
 13 14  1  0
 15 14  1  6
 15 16  1  0
 16  6  1  0
 17 15  1  0
 18 17  2  0
 19 17  1  0
 20 24  1  0
 20 19  1  0
 20 21  1  6
 22 21  1  0
 23 22  2  0
 24 25  1  0
 26 22  1  0
 27 24  2  0
M  END
$$$$
