VRD.pdb
     RDKit          3D

 27 26  0  0  1  0  0  0  0  0999 V2000
    9.3936  -13.3751   20.9959 C   0  0  0  0  0  0  0  0  0  0  0  0
    8.2466  -13.5428   19.9908 C   0  0  1  0  0  0  0  0  0  0  0  0
    7.7588  -12.2152   19.5009 C   0  0  0  0  0  0  0  0  0  0  0  0
    8.7695  -14.4273   18.8904 C   0  0  2  0  0  0  0  0  0  0  0  0
    7.8214  -14.4565   17.7961 N   0  0  0  0  0  0  0  0  0  0  0  0
    9.0486  -15.7977   19.3188 C   0  0  0  0  0  0  0  0  0  0  0  0
    8.0861  -16.5646   19.6012 O   0  0  0  0  0  0  0  0  0  0  0  0
   11.9337  -18.7247   15.2738 N   0  0  0  0  0  0  0  0  0  0  0  0
   10.7368  -19.4183   14.9532 C   0  0  0  0  0  0  0  0  0  0  0  0
   10.1667  -19.1881   13.8393 N   0  0  0  0  0  0  0  0  0  0  0  0
   10.2050  -20.3571   15.8916 N   0  0  0  0  0  0  0  0  0  0  0  0
   10.3656  -20.1489   17.3107 C   0  0  0  0  0  0  0  0  0  0  0  0
   10.3471  -18.6465   17.6300 C   0  0  0  0  0  0  0  0  0  0  0  0
   11.2116  -18.4403   18.8129 C   0  0  0  0  0  0  0  0  0  0  0  0
   10.5860  -17.7166   19.9810 C   0  0  2  0  0  0  0  0  0  0  0  0
   10.3330  -16.3598   19.4498 N   0  0  0  0  0  0  0  0  0  0  0  0
   11.4059  -17.6522   21.1913 C   0  0  0  0  0  0  0  0  0  0  0  0
   11.7000  -18.7532   21.7581 O   0  0  0  0  0  0  0  0  0  0  0  0
    9.3247  -19.7344   13.5638 N   0  0  0  0  0  0  0  0  0  0  0  0
   11.9063  -16.4718   21.7879 C   0  0  1  0  0  0  0  0  0  0  0  0
   12.6802  -16.5429   23.0447 C   0  0  0  0  0  0  0  0  0  0  0  0
   13.6138  -15.3592   23.0103 C   0  0  0  0  0  0  0  0  0  0  0  0
   14.7263  -15.5297   22.0610 O   0  0  0  0  0  0  0  0  0  0  0  0
   15.3474  -16.5784   21.8177 C   0  0  0  0  0  0  0  0  0  0  0  0
   11.7125  -16.3430   24.1454 O   0  0  0  0  0  0  0  0  0  0  0  0
   11.9990  -16.5673   25.4871 O   0  0  0  0  0  0  0  0  0  0  0  0
   15.1059  -14.3579   21.3674 O   0  0  0  0  0  0  0  0  0  0  0  0
  2  1  1  1
  3  2  1  0
  4  2  1  0
  4  5  1  6
  6  4  1  0
  6  7  2  0
  9  8  1  0
 10  9  2  0
 11  9  1  0
 12 13  1  0
 12 11  1  0
 13 14  1  0
 15 14  1  6
 15 16  1  0
 16  6  1  0
 17 15  1  0
 18 17  2  0
 19 17  1  0
 20 24  1  0
 20 19  1  0
 20 21  1  1
 22 21  1  0
 23 22  2  0
 24 25  1  0
 26 22  1  0
 27 24  2  0
M  END
$$$$
