VRD.pdb
     RDKit          3D

 27 26  0  0  1  0  0  0  0  0999 V2000
    8.7111  -13.4519   26.4888 C   0  0  0  0  0  0  0  0  0  0  0  0
    8.0726  -14.5979   27.2844 C   0  0  1  0  0  0  0  0  0  0  0  0
    7.5044  -14.1062   28.5789 C   0  0  0  0  0  0  0  0  0  0  0  0
    7.0421  -15.2217   26.3813 C   0  0  2  0  0  0  0  0  0  0  0  0
    6.4278  -16.3505   27.0490 N   0  0  0  0  0  0  0  0  0  0  0  0
    7.5767  -15.6606   25.0925 C   0  0  0  0  0  0  0  0  0  0  0  0
    8.0328  -16.8326   24.9800 O   0  0  0  0  0  0  0  0  0  0  0  0
    8.1999  -15.6485   17.3818 N   0  0  0  0  0  0  0  0  0  0  0  0
    8.0402  -14.2656   17.1010 C   0  0  0  0  0  0  0  0  0  0  0  0
    7.6429  -13.9099   15.9458 N   0  0  0  0  0  0  0  0  0  0  0  0
    8.3304  -13.3105   18.1248 N   0  0  0  0  0  0  0  0  0  0  0  0
    7.6782  -13.3898   19.4099 C   0  0  0  0  0  0  0  0  0  0  0  0
    8.5101  -14.2502   20.3728 C   0  0  0  0  0  0  0  0  0  0  0  0
    7.7694  -14.3155   21.6519 C   0  0  0  0  0  0  0  0  0  0  0  0
    8.2792  -15.3064   22.6706 C   0  0  2  0  0  0  0  0  0  0  0  0
    7.6318  -14.8719   23.9274 N   0  0  0  0  0  0  0  0  0  0  0  0
    9.7332  -15.3524   22.8284 C   0  0  0  0  0  0  0  0  0  0  0  0
   10.2871  -14.3795   23.4339 O   0  0  0  0  0  0  0  0  0  0  0  0
    7.4690  -12.9040   15.7431 N   0  0  0  0  0  0  0  0  0  0  0  0
   10.5812  -16.3871   22.3702 C   0  0  2  0  0  0  0  0  0  0  0  0
   12.0333  -16.3338   22.6392 C   0  0  0  0  0  0  0  0  0  0  0  0
   12.3847  -17.6801   23.2207 C   0  0  0  0  0  0  0  0  0  0  0  0
   13.8298  -17.8522   23.4440 O   0  0  0  0  0  0  0  0  0  0  0  0
   14.7154  -16.9911   23.3064 C   0  0  0  0  0  0  0  0  0  0  0  0
   12.6991  -16.2044   21.3246 O   0  0  0  0  0  0  0  0  0  0  0  0
   12.2538  -16.8196   20.1602 O   0  0  0  0  0  0  0  0  0  0  0  0
   14.2213  -19.1458   23.8585 O   0  0  0  0  0  0  0  0  0  0  0  0
  2  1  1  6
  3  2  1  0
  4  2  1  0
  4  5  1  1
  6  4  1  0
  6  7  2  0
  9  8  1  0
 10  9  2  0
 11  9  1  0
 12 13  1  0
 12 11  1  0
 13 14  1  0
 15 14  1  6
 15 16  1  0
 16  6  1  0
 17 15  1  0
 18 17  2  0
 19 17  1  0
 20 24  1  0
 20 19  1  0
 20 21  1  6
 22 21  1  0
 23 22  2  0
 24 25  1  0
 26 22  1  0
 27 24  2  0
M  END
$$$$
