VRD.pdb
     RDKit          3D

 27 26  0  0  1  0  0  0  0  0999 V2000
    7.7413  -11.9843   19.0392 C   0  0  0  0  0  0  0  0  0  0  0  0
    8.5157  -13.1040   19.7467 C   0  0  1  0  0  0  0  0  0  0  0  0
    8.3636  -13.0107   21.2329 C   0  0  0  0  0  0  0  0  0  0  0  0
    8.0062  -14.4010   19.1770 C   0  0  2  0  0  0  0  0  0  0  0  0
    6.5900  -14.5309   19.4504 N   0  0  0  0  0  0  0  0  0  0  0  0
    8.7026  -15.5821   19.6865 C   0  0  0  0  0  0  0  0  0  0  0  0
    8.2178  -16.2084   20.6699 O   0  0  0  0  0  0  0  0  0  0  0  0
   10.5470  -16.7931   14.5913 N   0  0  0  0  0  0  0  0  0  0  0  0
   11.8577  -17.2923   14.3691 C   0  0  0  0  0  0  0  0  0  0  0  0
   12.5434  -16.8251   13.4046 N   0  0  0  0  0  0  0  0  0  0  0  0
   12.3712  -18.3068   15.2362 N   0  0  0  0  0  0  0  0  0  0  0  0
   11.6136  -18.7452   16.3838 C   0  0  0  0  0  0  0  0  0  0  0  0
   11.6201  -17.6575   17.4684 C   0  0  0  0  0  0  0  0  0  0  0  0
   10.8459  -18.1798   18.6160 C   0  0  0  0  0  0  0  0  0  0  0  0
   10.6411  -17.2310   19.7725 C   0  0  2  0  0  0  0  0  0  0  0  0
    9.9026  -16.1026   19.1654 N   0  0  0  0  0  0  0  0  0  0  0  0
   11.8649  -16.7577   20.4202 C   0  0  0  0  0  0  0  0  0  0  0  0
   12.4582  -15.7624   19.8937 O   0  0  0  0  0  0  0  0  0  0  0  0
   13.5340  -17.1194   13.2808 N   0  0  0  0  0  0  0  0  0  0  0  0
   12.4476  -17.3066   21.5859 C   0  0  2  0  0  0  0  0  0  0  0  0
   13.6548  -16.6912   22.1756 C   0  0  0  0  0  0  0  0  0  0  0  0
   13.6881  -17.1622   23.6078 C   0  0  0  0  0  0  0  0  0  0  0  0
   14.8625  -16.6722   24.3486 O   0  0  0  0  0  0  0  0  0  0  0  0
   15.7681  -15.9400   23.9146 C   0  0  0  0  0  0  0  0  0  0  0  0
   14.8132  -17.2747   21.4647 O   0  0  0  0  0  0  0  0  0  0  0  0
   15.9707  -16.5719   21.1499 O   0  0  0  0  0  0  0  0  0  0  0  0
   14.9405  -17.0968   25.6947 O   0  0  0  0  0  0  0  0  0  0  0  0
  2  1  1  6
  3  2  1  0
  4  2  1  0
  4  5  1  1
  6  4  1  0
  6  7  2  0
  9  8  1  0
 10  9  2  0
 11  9  1  0
 12 13  1  0
 12 11  1  0
 13 14  1  0
 15 14  1  6
 15 16  1  0
 16  6  1  0
 17 15  1  0
 18 17  2  0
 19 17  1  0
 20 24  1  0
 20 19  1  0
 20 21  1  1
 22 21  1  0
 23 22  2  0
 24 25  1  0
 26 22  1  0
 27 24  2  0
M  END
$$$$
