VRD.pdb
     RDKit          3D

 27 26  0  0  1  0  0  0  0  0999 V2000
    9.9748  -13.3248   19.9664 C   0  0  0  0  0  0  0  0  0  0  0  0
    8.4479  -13.2129   20.0669 C   0  0  1  0  0  0  0  0  0  0  0  0
    7.9670  -11.8954   19.5441 C   0  0  0  0  0  0  0  0  0  0  0  0
    7.8837  -14.3914   19.3190 C   0  0  2  0  0  0  0  0  0  0  0  0
    6.4479  -14.2486   19.1954 N   0  0  0  0  0  0  0  0  0  0  0  0
    8.1850  -15.6816   19.9389 C   0  0  0  0  0  0  0  0  0  0  0  0
    7.5550  -16.0303   20.9761 O   0  0  0  0  0  0  0  0  0  0  0  0
   12.0532  -23.2454   19.0532 N   0  0  0  0  0  0  0  0  0  0  0  0
   10.8332  -23.4356   18.3517 C   0  0  0  0  0  0  0  0  0  0  0  0
   10.6134  -24.5520   17.7825 N   0  0  0  0  0  0  0  0  0  0  0  0
    9.8848  -22.3665   18.3043 N   0  0  0  0  0  0  0  0  0  0  0  0
   10.3232  -21.0023   18.1314 C   0  0  0  0  0  0  0  0  0  0  0  0
   10.1048  -20.2085   19.4282 C   0  0  0  0  0  0  0  0  0  0  0  0
    9.7037  -18.8383   19.0397 C   0  0  0  0  0  0  0  0  0  0  0  0
    9.4831  -17.8602   20.1685 C   0  0  2  0  0  0  0  0  0  0  0  0
    9.1435  -16.6008   19.4713 N   0  0  0  0  0  0  0  0  0  0  0  0
   10.6260  -17.6637   21.0609 C   0  0  0  0  0  0  0  0  0  0  0  0
   11.0871  -18.6901   21.6558 O   0  0  0  0  0  0  0  0  0  0  0  0
    9.7437  -24.6901   17.2278 N   0  0  0  0  0  0  0  0  0  0  0  0
   11.2694  -16.4313   21.3197 C   0  0  1  0  0  0  0  0  0  0  0  0
   12.4870  -16.3881   22.1560 C   0  0  0  0  0  0  0  0  0  0  0  0
   13.1813  -15.1004   21.7900 C   0  0  0  0  0  0  0  0  0  0  0  0
   13.8411  -15.1548   20.4749 O   0  0  0  0  0  0  0  0  0  0  0  0
   14.4482  -16.1210   19.9824 C   0  0  0  0  0  0  0  0  0  0  0  0
   12.0291  -16.2897   23.5590 O   0  0  0  0  0  0  0  0  0  0  0  0
   12.8664  -16.4030   24.6631 O   0  0  0  0  0  0  0  0  0  0  0  0
   13.7582  -13.9660   19.7144 O   0  0  0  0  0  0  0  0  0  0  0  0
  2  1  1  6
  3  2  1  0
  4  2  1  0
  4  5  1  1
  6  4  1  0
  6  7  2  0
  9  8  1  0
 10  9  2  0
 11  9  1  0
 12 13  1  0
 12 11  1  0
 13 14  1  0
 15 14  1  6
 15 16  1  0
 16  6  1  0
 17 15  1  0
 18 17  2  0
 19 17  1  0
 20 24  1  0
 20 19  1  0
 20 21  1  1
 22 21  1  0
 23 22  2  0
 24 25  1  0
 26 22  1  0
 27 24  2  0
M  END
$$$$
