VRD.pdb
     RDKit          3D

 27 26  0  0  1  0  0  0  0  0999 V2000
    9.4763  -12.1299   19.8216 C   0  0  0  0  0  0  0  0  0  0  0  0
    8.3810  -13.1659   19.5366 C   0  0  1  0  0  0  0  0  0  0  0  0
    7.0670  -12.5025   19.2650 C   0  0  0  0  0  0  0  0  0  0  0  0
    8.8740  -14.0023   18.3860 C   0  0  2  0  0  0  0  0  0  0  0  0
    7.8243  -14.9000   17.9506 N   0  0  0  0  0  0  0  0  0  0  0  0
   10.0726  -14.7816   18.6953 C   0  0  0  0  0  0  0  0  0  0  0  0
    9.9548  -15.8768   19.3124 O   0  0  0  0  0  0  0  0  0  0  0  0
   13.3592  -17.2547   13.9481 N   0  0  0  0  0  0  0  0  0  0  0  0
   14.7316  -17.1951   14.3078 C   0  0  0  0  0  0  0  0  0  0  0  0
   15.4802  -18.1942   14.0627 N   0  0  0  0  0  0  0  0  0  0  0  0
   15.2347  -16.0132   14.9359 N   0  0  0  0  0  0  0  0  0  0  0  0
   14.3552  -14.9083   15.2343 C   0  0  0  0  0  0  0  0  0  0  0  0
   13.2213  -15.3708   16.1615 C   0  0  0  0  0  0  0  0  0  0  0  0
   13.5318  -14.8663   17.5173 C   0  0  0  0  0  0  0  0  0  0  0  0
   12.5722  -15.2607   18.6142 C   0  0  2  0  0  0  0  0  0  0  0  0
   11.3887  -14.4117   18.3580 N   0  0  0  0  0  0  0  0  0  0  0  0
   13.0632  -15.0633   19.9784 C   0  0  0  0  0  0  0  0  0  0  0  0
   13.2885  -13.8676   20.3519 O   0  0  0  0  0  0  0  0  0  0  0  0
   16.5042  -18.1318   14.2385 N   0  0  0  0  0  0  0  0  0  0  0  0
   13.3068  -16.0857   20.9245 C   0  0  2  0  0  0  0  0  0  0  0  0
   13.7348  -15.7439   22.2969 C   0  0  0  0  0  0  0  0  0  0  0  0
   13.0801  -16.7678   23.1897 C   0  0  0  0  0  0  0  0  0  0  0  0
   13.5479  -16.7001   24.5841 O   0  0  0  0  0  0  0  0  0  0  0  0
   14.3723  -15.8998   25.0582 C   0  0  0  0  0  0  0  0  0  0  0  0
   15.1987  -15.9508   22.3438 O   0  0  0  0  0  0  0  0  0  0  0  0
   16.0673  -15.2066   23.1339 O   0  0  0  0  0  0  0  0  0  0  0  0
   12.9810  -17.6607   25.4526 O   0  0  0  0  0  0  0  0  0  0  0  0
  2  1  1  6
  3  2  1  0
  4  2  1  0
  4  5  1  1
  6  4  1  0
  6  7  2  0
  9  8  1  0
 10  9  2  0
 11  9  1  0
 12 13  1  0
 12 11  1  0
 13 14  1  0
 15 14  1  6
 15 16  1  0
 16  6  1  0
 17 15  1  0
 18 17  2  0
 19 17  1  0
 20 24  1  0
 20 19  1  0
 20 21  1  1
 22 21  1  0
 23 22  2  0
 24 25  1  0
 26 22  1  0
 27 24  2  0
M  END
$$$$
