VRD.pdb
     RDKit          3D

 27 26  0  0  1  0  0  0  0  0999 V2000
    8.8717  -13.7644   26.6891 C   0  0  0  0  0  0  0  0  0  0  0  0
    8.3566  -14.9725   27.4824 C   0  0  1  0  0  0  0  0  0  0  0  0
    7.9178  -14.5701   28.8557 C   0  0  0  0  0  0  0  0  0  0  0  0
    7.2530  -15.5834   26.6605 C   0  0  2  0  0  0  0  0  0  0  0  0
    6.7362  -16.7570   27.3334 N   0  0  0  0  0  0  0  0  0  0  0  0
    7.6621  -15.9500   25.3048 C   0  0  0  0  0  0  0  0  0  0  0  0
    8.1561  -17.0932   25.0968 O   0  0  0  0  0  0  0  0  0  0  0  0
    8.5695  -15.3421   18.2384 N   0  0  0  0  0  0  0  0  0  0  0  0
    8.2130  -14.0901   17.6711 C   0  0  0  0  0  0  0  0  0  0  0  0
    8.2005  -13.9645   16.4051 N   0  0  0  0  0  0  0  0  0  0  0  0
    7.8775  -13.0042   18.5390 N   0  0  0  0  0  0  0  0  0  0  0  0
    7.2572  -13.2509   19.8186 C   0  0  0  0  0  0  0  0  0  0  0  0
    7.9651  -14.4110   20.5344 C   0  0  0  0  0  0  0  0  0  0  0  0
    7.4900  -14.4153   21.9356 C   0  0  0  0  0  0  0  0  0  0  0  0
    8.0679  -15.4814   22.8350 C   0  0  2  0  0  0  0  0  0  0  0  0
    7.5525  -15.1194   24.1732 N   0  0  0  0  0  0  0  0  0  0  0  0
    9.5286  -15.5655   22.8502 C   0  0  0  0  0  0  0  0  0  0  0  0
   10.1650  -14.5977   23.3779 O   0  0  0  0  0  0  0  0  0  0  0  0
    7.9919  -13.0392   15.9767 N   0  0  0  0  0  0  0  0  0  0  0  0
   10.2999  -16.6319   22.3328 C   0  0  2  0  0  0  0  0  0  0  0  0
   11.7626  -16.6622   22.5403 C   0  0  0  0  0  0  0  0  0  0  0  0
   12.0590  -18.0225   23.1199 C   0  0  0  0  0  0  0  0  0  0  0  0
   13.5007  -18.2973   23.2378 O   0  0  0  0  0  0  0  0  0  0  0  0
   14.1825  -19.0386   22.5096 C   0  0  0  0  0  0  0  0  0  0  0  0
   12.3787  -16.5820   21.1979 O   0  0  0  0  0  0  0  0  0  0  0  0
   11.6847  -16.7701   20.0081 O   0  0  0  0  0  0  0  0  0  0  0  0
   14.1512  -17.6326   24.3024 O   0  0  0  0  0  0  0  0  0  0  0  0
  2  1  1  6
  3  2  1  0
  4  2  1  0
  4  5  1  1
  6  4  1  0
  6  7  2  0
  9  8  1  0
 10  9  2  0
 11  9  1  0
 12 13  1  0
 12 11  1  0
 13 14  1  0
 15 14  1  6
 15 16  1  0
 16  6  1  0
 17 15  1  0
 18 17  2  0
 19 17  1  0
 20 24  1  0
 20 19  1  0
 20 21  1  6
 22 21  1  0
 23 22  2  0
 24 25  1  0
 26 22  1  0
 27 24  2  0
M  END
$$$$
