SGS.pdb
     RDKit          3D

 17 16  0  0  1  0  0  0  0  0999 V2000
    6.3439  -13.4286   11.9135 O   0  0  0  0  0  0  0  0  0  0  0  0
    6.4929  -13.7702   13.2688 C   0  0  0  0  0  0  0  0  0  0  0  0
    7.8151  -13.1960   13.7138 C   0  0  2  0  0  0  0  0  0  0  0  0
    8.8529  -13.8161   12.9497 N   0  0  0  0  0  0  0  0  0  0  0  0
    8.0212  -13.2986   15.1762 C   0  0  0  0  0  0  0  0  0  0  0  0
    9.0858  -12.8546   15.6734 O   0  0  0  0  0  0  0  0  0  0  0  0
    7.0689  -13.8789   16.0575 N   0  0  0  0  0  0  0  0  0  0  0  0
    7.2761  -14.0701   17.4748 C   0  0  0  0  0  0  0  0  0  0  0  0
    8.1500  -15.1811   17.8363 C   0  0  0  0  0  0  0  0  0  0  0  0
    8.3347  -15.4451   19.0561 O   0  0  0  0  0  0  0  0  0  0  0  0
    9.6619  -18.0110   15.0936 O   0  0  0  0  0  0  0  0  0  0  0  0
    9.3220  -18.3233   16.4114 C   0  0  0  0  0  0  0  0  0  0  0  0
    9.6032  -17.1711   17.3465 C   0  0  2  0  0  0  0  0  0  0  0  0
    8.8231  -16.0015   16.9070 N   0  0  0  0  0  0  0  0  0  0  0  0
   11.0481  -16.8383   17.3924 C   0  0  0  0  0  0  0  0  0  0  0  0
   11.9379  -17.6286   17.7961 O   0  0  0  0  0  0  0  0  0  0  0  0
   11.4388  -15.5796   16.9638 O   0  0  0  0  0  0  0  0  0  0  0  0
  2  3  1  0
  2  1  1  0
  3  4  1  6
  5  7  1  0
  5  3  1  0
  6  5  2  0
  8  9  1  0
  8  7  1  0
  9 10  2  0
 11 12  1  0
 13 12  1  6
 14 13  1  0
 14  9  1  0
 15 13  1  0
 15 17  1  0
 16 15  2  0
M  END
$$$$
