SGS.pdb
     RDKit          3D

 17 16  0  0  1  0  0  0  0  0999 V2000
   -3.3571  -21.2441   26.7024 O   0  0  0  0  0  0  0  0  0  0  0  0
   -4.3297  -22.2587   26.6807 C   0  0  0  0  0  0  0  0  0  0  0  0
   -5.0958  -22.1473   27.9755 C   0  0  2  0  0  0  0  0  0  0  0  0
   -4.1552  -22.1324   29.0529 N   0  0  0  0  0  0  0  0  0  0  0  0
   -6.1352  -23.1919   28.1179 C   0  0  0  0  0  0  0  0  0  0  0  0
   -7.1683  -23.1233   27.4068 O   0  0  0  0  0  0  0  0  0  0  0  0
   -6.0258  -24.2799   29.0258 N   0  0  0  0  0  0  0  0  0  0  0  0
   -6.9939  -25.3460   29.1455 C   0  0  0  0  0  0  0  0  0  0  0  0
   -6.8632  -26.1811   30.3347 C   0  0  0  0  0  0  0  0  0  0  0  0
   -7.6509  -27.1539   30.4915 O   0  0  0  0  0  0  0  0  0  0  0  0
   -3.4612  -26.3617   32.5823 O   0  0  0  0  0  0  0  0  0  0  0  0
   -4.3866  -27.4073   32.5925 C   0  0  0  0  0  0  0  0  0  0  0  0
   -5.8047  -26.8961   32.4982 C   0  0  2  0  0  0  0  0  0  0  0  0
   -5.9037  -25.9799   31.3490 N   0  0  0  0  0  0  0  0  0  0  0  0
   -6.2267  -26.2080   33.7427 C   0  0  0  0  0  0  0  0  0  0  0  0
   -6.5314  -24.9902   33.8027 O   0  0  0  0  0  0  0  0  0  0  0  0
   -6.2881  -26.9543   34.9089 O   0  0  0  0  0  0  0  0  0  0  0  0
  2  3  1  0
  2  1  1  0
  3  4  1  1
  5  7  1  0
  5  3  1  0
  6  5  2  0
  8  9  1  0
  8  7  1  0
  9 10  2  0
 11 12  1  0
 13 12  1  1
 14 13  1  0
 14  9  1  0
 15 13  1  0
 15 17  1  0
 16 15  2  0
M  END
$$$$
