SGS.pdb
     RDKit          3D

 17 16  0  0  1  0  0  0  0  0999 V2000
    9.7047  -18.9227   21.0362 O   0  0  0  0  0  0  0  0  0  0  0  0
    9.9906  -18.0733   19.9533 C   0  0  0  0  0  0  0  0  0  0  0  0
   10.7415  -16.8936   20.5191 C   0  0  2  0  0  0  0  0  0  0  0  0
   12.0171  -17.3516   20.9761 N   0  0  0  0  0  0  0  0  0  0  0  0
    9.9723  -16.1682   21.5554 C   0  0  0  0  0  0  0  0  0  0  0  0
    8.8718  -15.6488   21.2443 O   0  0  0  0  0  0  0  0  0  0  0  0
   10.4170  -16.0265   22.8979 N   0  0  0  0  0  0  0  0  0  0  0  0
    9.6029  -15.5227   23.9804 C   0  0  0  0  0  0  0  0  0  0  0  0
   10.2343  -15.5299   25.2956 C   0  0  0  0  0  0  0  0  0  0  0  0
   11.3165  -16.1589   25.4537 O   0  0  0  0  0  0  0  0  0  0  0  0
   10.4148  -13.8958   29.9040 O   0  0  0  0  0  0  0  0  0  0  0  0
    9.7859  -13.9104   28.6574 C   0  0  0  0  0  0  0  0  0  0  0  0
   10.4283  -14.9070   27.7218 C   0  0  2  0  0  0  0  0  0  0  0  0
    9.7162  -14.8755   26.4327 N   0  0  0  0  0  0  0  0  0  0  0  0
   10.4141  -16.2796   28.2841 C   0  0  0  0  0  0  0  0  0  0  0  0
   11.2780  -16.7193   29.0840 O   0  0  0  0  0  0  0  0  0  0  0  0
    9.3856  -17.1270   27.9037 O   0  0  0  0  0  0  0  0  0  0  0  0
  2  3  1  0
  2  1  1  0
  3  4  1  1
  5  7  1  0
  5  3  1  0
  6  5  2  0
  8  9  1  0
  8  7  1  0
  9 10  2  0
 11 12  1  0
 13 12  1  1
 14 13  1  0
 14  9  1  0
 15 13  1  0
 15 17  1  0
 16 15  2  0
M  END
$$$$
