SGS.pdb
     RDKit          3D

 17 16  0  0  1  0  0  0  0  0999 V2000
    8.5888  -16.1640   16.1637 O   0  0  0  0  0  0  0  0  0  0  0  0
    8.1024  -16.7850   17.3271 C   0  0  0  0  0  0  0  0  0  0  0  0
    8.9410  -16.2713   18.4711 C   0  0  2  0  0  0  0  0  0  0  0  0
    9.9035  -17.2745   18.8070 N   0  0  0  0  0  0  0  0  0  0  0  0
    8.1262  -15.8293   19.6255 C   0  0  0  0  0  0  0  0  0  0  0  0
    7.5811  -16.6960   20.3529 O   0  0  0  0  0  0  0  0  0  0  0  0
    7.9256  -14.4622   19.9584 N   0  0  0  0  0  0  0  0  0  0  0  0
    7.0851  -13.9981   21.0384 C   0  0  0  0  0  0  0  0  0  0  0  0
    7.6470  -14.1436   22.3770 C   0  0  0  0  0  0  0  0  0  0  0  0
    8.8025  -14.6327   22.5081 O   0  0  0  0  0  0  0  0  0  0  0  0
    5.6452  -12.9515   25.8389 O   0  0  0  0  0  0  0  0  0  0  0  0
    7.0308  -12.7884   25.7815 C   0  0  0  0  0  0  0  0  0  0  0  0
    7.6731  -13.8036   24.8662 C   0  0  2  0  0  0  0  0  0  0  0  0
    6.9827  -13.7740   23.5653 N   0  0  0  0  0  0  0  0  0  0  0  0
    7.6290  -15.1703   25.4412 C   0  0  0  0  0  0  0  0  0  0  0  0
    6.9280  -16.1046   24.9774 O   0  0  0  0  0  0  0  0  0  0  0  0
    8.4081  -15.4311   26.5573 O   0  0  0  0  0  0  0  0  0  0  0  0
  2  3  1  0
  2  1  1  0
  3  4  1  1
  5  7  1  0
  5  3  1  0
  6  5  2  0
  8  9  1  0
  8  7  1  0
  9 10  2  0
 11 12  1  0
 13 12  1  1
 14 13  1  0
 14  9  1  0
 15 13  1  0
 15 17  1  0
 16 15  2  0
M  END
$$$$
