SGS.pdb
     RDKit          3D

 17 16  0  0  1  0  0  0  0  0999 V2000
   -1.8257  -25.7568   27.2510 O   0  0  0  0  0  0  0  0  0  0  0  0
   -2.7625  -24.7431   26.9848 C   0  0  0  0  0  0  0  0  0  0  0  0
   -2.9803  -24.0074   28.2837 C   0  0  2  0  0  0  0  0  0  0  0  0
   -3.3581  -24.9607   29.2808 N   0  0  0  0  0  0  0  0  0  0  0  0
   -3.9363  -22.8845   28.1528 C   0  0  0  0  0  0  0  0  0  0  0  0
   -3.7088  -21.9876   27.3035 O   0  0  0  0  0  0  0  0  0  0  0  0
   -5.1102  -22.7657   28.9452 N   0  0  0  0  0  0  0  0  0  0  0  0
   -6.0723  -21.6940   28.8263 C   0  0  0  0  0  0  0  0  0  0  0  0
   -7.4611  -22.0682   29.0710 C   0  0  0  0  0  0  0  0  0  0  0  0
   -8.3386  -21.7635   28.2173 O   0  0  0  0  0  0  0  0  0  0  0  0
   -8.5326  -25.4753   30.4046 O   0  0  0  0  0  0  0  0  0  0  0  0
   -9.3396  -24.5343   31.0471 C   0  0  0  0  0  0  0  0  0  0  0  0
   -9.3110  -23.2006   30.3389 C   0  0  2  0  0  0  0  0  0  0  0  0
   -7.9113  -22.7582   30.2159 N   0  0  0  0  0  0  0  0  0  0  0  0
  -10.1127  -22.1787   31.0552 C   0  0  0  0  0  0  0  0  0  0  0  0
   -9.6309  -21.1286   31.5499 O   0  0  0  0  0  0  0  0  0  0  0  0
  -11.4752  -22.3962   31.1862 O   0  0  0  0  0  0  0  0  0  0  0  0
  2  3  1  0
  2  1  1  0
  3  4  1  1
  5  7  1  0
  5  3  1  0
  6  5  2  0
  8  9  1  0
  8  7  1  0
  9 10  2  0
 11 12  1  0
 13 12  1  1
 14 13  1  0
 14  9  1  0
 15 13  1  0
 15 17  1  0
 16 15  2  0
M  END
$$$$
