SGS.pdb
     RDKit          3D

 17 16  0  0  1  0  0  0  0  0999 V2000
    7.0437  -15.8488   18.2091 O   0  0  0  0  0  0  0  0  0  0  0  0
    8.0803  -14.9176   18.0246 C   0  0  0  0  0  0  0  0  0  0  0  0
    8.8009  -14.8094   19.3456 C   0  0  2  0  0  0  0  0  0  0  0  0
    9.3530  -16.0904   19.6611 N   0  0  0  0  0  0  0  0  0  0  0  0
    7.9461  -14.2573   20.4209 C   0  0  0  0  0  0  0  0  0  0  0  0
    7.5116  -13.0840   20.3110 O   0  0  0  0  0  0  0  0  0  0  0  0
    7.5870  -14.9917   21.5837 N   0  0  0  0  0  0  0  0  0  0  0  0
    6.7726  -14.4736   22.6592 C   0  0  0  0  0  0  0  0  0  0  0  0
    7.5073  -13.9537   23.8075 C   0  0  0  0  0  0  0  0  0  0  0  0
    8.7573  -14.1160   23.8613 O   0  0  0  0  0  0  0  0  0  0  0  0
    5.6517  -12.1727   27.0691 O   0  0  0  0  0  0  0  0  0  0  0  0
    6.9349  -11.7197   26.7560 C   0  0  0  0  0  0  0  0  0  0  0  0
    7.7281  -12.7668   26.0108 C   0  0  2  0  0  0  0  0  0  0  0  0
    6.9154  -13.2697   24.8898 N   0  0  0  0  0  0  0  0  0  0  0  0
    8.1321  -13.8862   26.8963 C   0  0  0  0  0  0  0  0  0  0  0  0
    7.7326  -15.0698   26.7582 O   0  0  0  0  0  0  0  0  0  0  0  0
    9.0026  -13.6087   27.9384 O   0  0  0  0  0  0  0  0  0  0  0  0
  2  3  1  0
  2  1  1  0
  3  4  1  1
  5  7  1  0
  5  3  1  0
  6  5  2  0
  8  9  1  0
  8  7  1  0
  9 10  2  0
 11 12  1  0
 13 12  1  1
 14 13  1  0
 14  9  1  0
 15 13  1  0
 15 17  1  0
 16 15  2  0
M  END
$$$$
