KFP.pdb
     RDKit          3D

 28 29  0  0  1  0  0  0  0  0999 V2000
   26.9121  -20.5532  -12.4349 N   0  0  0  0  0  0  0  0  0  0  0  0
   25.9352  -20.1727  -11.4151 C   0  0  1  0  0  0  0  0  0  0  0  0
   24.7279  -21.0480  -11.6553 C   0  0  0  0  0  0  0  0  0  0  0  0
   23.6015  -20.3502  -12.3539 C   0  0  0  0  0  0  0  0  0  0  0  0
   23.7984  -20.5776  -13.8508 C   0  0  0  0  0  0  0  0  0  0  0  0
   22.6935  -19.8943  -14.6239 C   0  0  0  0  0  0  0  0  0  0  0  0
   21.4487  -20.5559  -14.3363 N   0  0  0  0  0  0  0  0  0  0  0  0
   26.5491  -20.4228  -10.0973 C   0  0  0  0  0  0  0  0  0  0  0  0
   27.1983  -21.4946   -9.8710 O   0  0  0  0  0  0  0  0  0  0  0  0
   26.4643  -19.4980   -8.9941 N   0  0  0  0  0  0  0  0  0  0  0  0
   27.1015  -19.7492   -7.7437 C   0  0  1  0  0  0  0  0  0  0  0  0
   27.4618  -18.4732   -7.0048 C   0  0  0  0  0  0  0  0  0  0  0  0
   28.1847  -18.7380   -5.7442 C   0  0  0  0  0  0  0  0  0  0  0  0
   27.5630  -19.1649   -4.5927 C   0  0  0  0  0  0  0  0  0  0  0  0
   28.2716  -19.4047   -3.4241 C   0  0  0  0  0  0  0  0  0  0  0  0
   29.6360  -19.2206   -3.3801 C   0  0  0  0  0  0  0  0  0  0  0  0
   30.2681  -18.7945   -4.5238 C   0  0  0  0  0  0  0  0  0  0  0  0
   29.5472  -18.5627   -5.6710 C   0  0  0  0  0  0  0  0  0  0  0  0
   26.4760  -20.7408   -6.8621 C   0  0  0  0  0  0  0  0  0  0  0  0
   25.1961  -20.5959   -6.7203 O   0  0  0  0  0  0  0  0  0  0  0  0
   27.0573  -21.8040   -6.1603 N   0  0  0  0  0  0  0  0  0  0  0  0
   28.4382  -22.1669   -6.0931 C   0  0  0  0  0  0  0  0  0  0  0  0
   28.3967  -23.6444   -5.6666 C   0  0  0  0  0  0  0  0  0  0  0  0
   27.2967  -23.6146   -4.6354 C   0  0  0  0  0  0  0  0  0  0  0  0
   26.2762  -22.7375   -5.3305 C   0  0  1  0  0  0  0  0  0  0  0  0
   25.4827  -22.0323   -4.3189 C   0  0  0  0  0  0  0  0  0  0  0  0
   25.5068  -20.7924   -4.2272 O   0  0  0  0  0  0  0  0  0  0  0  0
   24.6938  -22.7645   -3.4523 O   0  0  0  0  0  0  0  0  0  0  0  0
  2  1  1  6
  2  3  1  0
  4  5  1  0
  4  3  1  0
  6  5  1  0
  7  6  1  0
  8  9  2  0
  8  2  1  0
 10  8  1  0
 11 10  1  0
 12 13  1  0
 11 12  1  1
 13 14  2  0
 14 15  1  0
 16 15  2  0
 17 16  1  0
 18 13  1  0
 18 17  2  0
 19 20  2  0
 19 11  1  0
 21 19  1  0
 22 21  1  0
 23 24  1  0
 23 22  1  0
 24 25  1  0
 25 21  1  0
 25 26  1  1
 27 26  2  0
 28 26  1  0
M  END
$$$$
