KFP.pdb
     RDKit          3D

 28 29  0  0  1  0  0  0  0  0999 V2000
   25.9935  -19.0074  -19.3983 N   0  0  0  0  0  0  0  0  0  0  0  0
   24.6523  -19.1841  -18.8421 C   0  0  1  0  0  0  0  0  0  0  0  0
   23.8963  -20.0182  -19.8491 C   0  0  0  0  0  0  0  0  0  0  0  0
   22.9529  -19.2294  -20.7044 C   0  0  0  0  0  0  0  0  0  0  0  0
   23.8054  -18.3014  -21.5666 C   0  0  0  0  0  0  0  0  0  0  0  0
   22.9165  -17.4873  -22.4790 C   0  0  0  0  0  0  0  0  0  0  0  0
   22.6059  -16.2404  -21.8319 N   0  0  0  0  0  0  0  0  0  0  0  0
   24.7968  -19.8739  -17.5462 C   0  0  0  0  0  0  0  0  0  0  0  0
   25.4458  -20.9657  -17.4551 O   0  0  0  0  0  0  0  0  0  0  0  0
   24.2302  -19.3783  -16.3161 N   0  0  0  0  0  0  0  0  0  0  0  0
   24.3586  -20.0842  -15.0840 C   0  0  1  0  0  0  0  0  0  0  0  0
   24.4442  -19.1566  -13.8856 C   0  0  0  0  0  0  0  0  0  0  0  0
   24.6376  -19.8908  -12.6185 C   0  0  0  0  0  0  0  0  0  0  0  0
   23.6452  -20.0470  -11.6775 C   0  0  0  0  0  0  0  0  0  0  0  0
   23.8596  -20.7430  -10.4964 C   0  0  0  0  0  0  0  0  0  0  0  0
   25.0874  -21.3060  -10.2262 C   0  0  0  0  0  0  0  0  0  0  0  0
   26.0863  -21.1566  -11.1584 C   0  0  0  0  0  0  0  0  0  0  0  0
   25.8529  -20.4632  -12.3221 C   0  0  0  0  0  0  0  0  0  0  0  0
   23.4356  -21.2008  -14.8542 C   0  0  0  0  0  0  0  0  0  0  0  0
   22.1828  -20.8888  -14.9670 O   0  0  0  0  0  0  0  0  0  0  0  0
   23.7118  -22.5353  -14.5322 N   0  0  0  0  0  0  0  0  0  0  0  0
   24.9870  -23.1493  -14.3326 C   0  0  0  0  0  0  0  0  0  0  0  0
   24.6990  -24.6447  -14.5503 C   0  0  0  0  0  0  0  0  0  0  0  0
   23.3744  -24.7878  -13.8439 C   0  0  0  0  0  0  0  0  0  0  0  0
   22.6575  -23.5432  -14.3248 C   0  0  1  0  0  0  0  0  0  0  0  0
   21.6946  -23.1204  -13.3029 C   0  0  0  0  0  0  0  0  0  0  0  0
   20.6612  -23.7746  -13.0784 O   0  0  0  0  0  0  0  0  0  0  0  0
   21.9448  -21.9713  -12.5774 O   0  0  0  0  0  0  0  0  0  0  0  0
  2  1  1  6
  2  3  1  0
  4  5  1  0
  4  3  1  0
  6  5  1  0
  7  6  1  0
  8  9  2  0
  8  2  1  0
 10  8  1  0
 11 10  1  0
 12 13  1  0
 11 12  1  1
 13 14  2  0
 14 15  1  0
 16 15  2  0
 17 16  1  0
 18 13  1  0
 18 17  2  0
 19 20  2  0
 19 11  1  0
 21 19  1  0
 22 21  1  0
 23 24  1  0
 23 22  1  0
 24 25  1  0
 25 21  1  0
 25 26  1  1
 27 26  2  0
 28 26  1  0
M  END
$$$$
