KFP.pdb
     RDKit          3D

 28 29  0  0  1  0  0  0  0  0999 V2000
   26.0949  -19.1139  -12.0873 N   0  0  0  0  0  0  0  0  0  0  0  0
   25.7403  -20.1855  -11.1571 C   0  0  1  0  0  0  0  0  0  0  0  0
   25.8187  -21.4654  -11.9552 C   0  0  0  0  0  0  0  0  0  0  0  0
   24.5018  -22.1601  -12.1191 C   0  0  0  0  0  0  0  0  0  0  0  0
   23.5334  -21.1414  -12.7154 C   0  0  0  0  0  0  0  0  0  0  0  0
   22.1635  -21.7625  -12.8673 C   0  0  0  0  0  0  0  0  0  0  0  0
   21.2447  -21.0769  -11.9980 N   0  0  0  0  0  0  0  0  0  0  0  0
   26.7196  -20.1577  -10.0542 C   0  0  0  0  0  0  0  0  0  0  0  0
   27.9198  -20.5425  -10.2354 O   0  0  0  0  0  0  0  0  0  0  0  0
   26.4020  -19.7048   -8.7225 N   0  0  0  0  0  0  0  0  0  0  0  0
   27.3899  -19.6084   -7.6990 C   0  0  1  0  0  0  0  0  0  0  0  0
   26.9461  -18.7356   -6.5391 C   0  0  0  0  0  0  0  0  0  0  0  0
   27.9771  -18.6318   -5.4864 C   0  0  0  0  0  0  0  0  0  0  0  0
   28.0649  -19.5062   -4.4269 C   0  0  0  0  0  0  0  0  0  0  0  0
   29.0462  -19.3808   -3.4540 C   0  0  0  0  0  0  0  0  0  0  0  0
   29.9741  -18.3649   -3.5195 C   0  0  0  0  0  0  0  0  0  0  0  0
   29.8966  -17.4855   -4.5729 C   0  0  0  0  0  0  0  0  0  0  0  0
   28.9165  -17.6275   -5.5261 C   0  0  0  0  0  0  0  0  0  0  0  0
   28.0065  -20.8595   -7.2452 C   0  0  0  0  0  0  0  0  0  0  0  0
   27.1588  -21.7787   -6.9045 O   0  0  0  0  0  0  0  0  0  0  0  0
   29.3606  -21.1957   -7.1268 N   0  0  0  0  0  0  0  0  0  0  0  0
   30.4987  -20.4267   -7.5223 C   0  0  0  0  0  0  0  0  0  0  0  0
   31.6116  -21.4808   -7.6527 C   0  0  0  0  0  0  0  0  0  0  0  0
   31.3306  -22.3452   -6.4494 C   0  0  0  0  0  0  0  0  0  0  0  0
   29.8221  -22.4582   -6.5239 C   0  0  1  0  0  0  0  0  0  0  0  0
   29.2883  -22.6414   -5.1704 C   0  0  0  0  0  0  0  0  0  0  0  0
   28.5591  -21.7842   -4.6416 O   0  0  0  0  0  0  0  0  0  0  0  0
   29.6047  -23.7914   -4.4726 O   0  0  0  0  0  0  0  0  0  0  0  0
  2  1  1  6
  2  3  1  0
  4  5  1  0
  4  3  1  0
  6  5  1  0
  7  6  1  0
  8  9  2  0
  8  2  1  0
 10  8  1  0
 11 10  1  0
 12 13  1  0
 11 12  1  1
 13 14  2  0
 14 15  1  0
 16 15  2  0
 17 16  1  0
 18 13  1  0
 18 17  2  0
 19 20  2  0
 19 11  1  0
 21 19  1  0
 22 21  1  0
 23 24  1  0
 23 22  1  0
 24 25  1  0
 25 21  1  0
 25 26  1  1
 27 26  2  0
 28 26  1  0
M  END
$$$$
