KFP.pdb
     RDKit          3D

 28 29  0  0  1  0  0  0  0  0999 V2000
   24.8670  -18.4962  -19.5295 N   0  0  0  0  0  0  0  0  0  0  0  0
   24.3303  -17.9696  -18.2750 C   0  0  1  0  0  0  0  0  0  0  0  0
   22.8278  -18.0602  -18.4004 C   0  0  0  0  0  0  0  0  0  0  0  0
   22.1762  -16.7813  -18.8287 C   0  0  0  0  0  0  0  0  0  0  0  0
   22.5868  -15.7134  -17.8176 C   0  0  0  0  0  0  0  0  0  0  0  0
   21.9260  -14.3982  -18.1627 C   0  0  0  0  0  0  0  0  0  0  0  0
   22.2805  -13.4252  -17.1639 N   0  0  0  0  0  0  0  0  0  0  0  0
   24.8483  -18.8136  -17.1818 C   0  0  0  0  0  0  0  0  0  0  0  0
   24.7464  -20.0820  -17.2302 O   0  0  0  0  0  0  0  0  0  0  0  0
   25.4928  -18.2822  -16.0063 N   0  0  0  0  0  0  0  0  0  0  0  0
   25.8826  -19.1124  -14.9147 C   0  0  1  0  0  0  0  0  0  0  0  0
   26.9184  -18.4546  -14.0213 C   0  0  0  0  0  0  0  0  0  0  0  0
   27.4161  -19.3663  -12.9710 C   0  0  0  0  0  0  0  0  0  0  0  0
   28.4696  -20.2319  -13.1599 C   0  0  0  0  0  0  0  0  0  0  0  0
   28.9129  -21.0761  -12.1519 C   0  0  0  0  0  0  0  0  0  0  0  0
   28.3048  -21.0736  -10.9159 C   0  0  0  0  0  0  0  0  0  0  0  0
   27.2516  -20.2135  -10.7153 C   0  0  0  0  0  0  0  0  0  0  0  0
   26.8282  -19.3855  -11.7274 C   0  0  0  0  0  0  0  0  0  0  0  0
   24.8100  -19.7483  -14.1423 C   0  0  0  0  0  0  0  0  0  0  0  0
   23.9341  -18.9209  -13.6650 O   0  0  0  0  0  0  0  0  0  0  0  0
   24.6026  -21.1018  -13.8495 N   0  0  0  0  0  0  0  0  0  0  0  0
   25.3857  -22.2241  -14.2623 C   0  0  0  0  0  0  0  0  0  0  0  0
   24.4137  -23.4078  -14.1175 C   0  0  0  0  0  0  0  0  0  0  0  0
   23.7305  -23.0609  -12.8187 C   0  0  0  0  0  0  0  0  0  0  0  0
   23.4906  -21.5775  -13.0085 C   0  0  1  0  0  0  0  0  0  0  0  0
   23.4820  -20.9222  -11.6967 C   0  0  0  0  0  0  0  0  0  0  0  0
   24.4507  -20.2485  -11.3043 O   0  0  0  0  0  0  0  0  0  0  0  0
   22.3729  -21.0588  -10.8838 O   0  0  0  0  0  0  0  0  0  0  0  0
  2  1  1  6
  2  3  1  0
  4  5  1  0
  4  3  1  0
  6  5  1  0
  7  6  1  0
  8  9  2  0
  8  2  1  0
 10  8  1  0
 11 10  1  0
 12 13  1  0
 11 12  1  1
 13 14  2  0
 14 15  1  0
 16 15  2  0
 17 16  1  0
 18 13  1  0
 18 17  2  0
 19 20  2  0
 19 11  1  0
 21 19  1  0
 22 21  1  0
 23 24  1  0
 23 22  1  0
 24 25  1  0
 25 21  1  0
 25 26  1  1
 27 26  2  0
 28 26  1  0
M  END
$$$$
