KFP.pdb
     RDKit          3D

 28 29  0  0  1  0  0  0  0  0999 V2000
   28.1524  -23.6122  -18.1589 N   0  0  0  0  0  0  0  0  0  0  0  0
   27.6053  -22.2758  -17.9264 C   0  0  1  0  0  0  0  0  0  0  0  0
   26.5626  -22.0661  -18.9989 C   0  0  0  0  0  0  0  0  0  0  0  0
   27.1251  -21.6189  -20.3131 C   0  0  0  0  0  0  0  0  0  0  0  0
   27.6525  -20.2004  -20.1109 C   0  0  0  0  0  0  0  0  0  0  0  0
   28.1606  -19.6492  -21.4238 C   0  0  0  0  0  0  0  0  0  0  0  0
   28.6309  -18.3062  -21.2117 N   0  0  0  0  0  0  0  0  0  0  0  0
   27.0196  -22.2655  -16.5726 C   0  0  0  0  0  0  0  0  0  0  0  0
   26.3008  -23.2337  -16.1635 O   0  0  0  0  0  0  0  0  0  0  0  0
   27.2108  -21.1878  -15.6336 N   0  0  0  0  0  0  0  0  0  0  0  0
   26.5188  -21.1358  -14.3882 C   0  0  1  0  0  0  0  0  0  0  0  0
   27.2712  -20.3439  -13.3344 C   0  0  0  0  0  0  0  0  0  0  0  0
   26.5679  -20.3255  -12.0356 C   0  0  0  0  0  0  0  0  0  0  0  0
   26.6842  -21.3284  -11.0999 C   0  0  0  0  0  0  0  0  0  0  0  0
   26.0095  -21.2808   -9.8884 C   0  0  0  0  0  0  0  0  0  0  0  0
   25.1925  -20.2152   -9.5811 C   0  0  0  0  0  0  0  0  0  0  0  0
   25.0684  -19.2076  -10.5076 C   0  0  0  0  0  0  0  0  0  0  0  0
   25.7456  -19.2743  -11.7019 C   0  0  0  0  0  0  0  0  0  0  0  0
   25.0944  -20.7880  -14.4291 C   0  0  0  0  0  0  0  0  0  0  0  0
   24.8515  -19.5828  -14.8390 O   0  0  0  0  0  0  0  0  0  0  0  0
   23.9768  -21.5606  -14.0904 N   0  0  0  0  0  0  0  0  0  0  0  0
   23.9411  -22.9312  -13.6861 C   0  0  0  0  0  0  0  0  0  0  0  0
   22.4901  -23.3501  -13.9792 C   0  0  0  0  0  0  0  0  0  0  0  0
   21.7390  -22.1278  -13.5144 C   0  0  0  0  0  0  0  0  0  0  0  0
   22.6045  -21.0248  -14.0872 C   0  0  1  0  0  0  0  0  0  0  0  0
   22.4874  -19.8347  -13.2385 C   0  0  0  0  0  0  0  0  0  0  0  0
   23.4506  -19.4200  -12.5702 O   0  0  0  0  0  0  0  0  0  0  0  0
   21.2805  -19.1640  -13.1834 O   0  0  0  0  0  0  0  0  0  0  0  0
  2  1  1  6
  2  3  1  0
  4  5  1  0
  4  3  1  0
  6  5  1  0
  7  6  1  0
  8  9  2  0
  8  2  1  0
 10  8  1  0
 11 10  1  0
 12 13  1  0
 11 12  1  1
 13 14  2  0
 14 15  1  0
 16 15  2  0
 17 16  1  0
 18 13  1  0
 18 17  2  0
 19 20  2  0
 19 11  1  0
 21 19  1  0
 22 21  1  0
 23 24  1  0
 23 22  1  0
 24 25  1  0
 25 21  1  0
 25 26  1  1
 27 26  2  0
 28 26  1  0
M  END
$$$$
