QIF.pdb
     RDKit          3D

 29 29  0  0  1  0  0  0  0  0999 V2000
    8.9426  -20.8587   21.0262 N   0  0  0  0  0  0  0  0  0  0  0  0
   10.2722  -21.0809   20.5829 C   0  0  0  0  0  0  0  0  0  0  0  0
   10.8777  -22.0883   21.0255 O   0  0  0  0  0  0  0  0  0  0  0  0
   10.9172  -20.1574   19.6343 C   0  0  0  0  0  0  0  0  0  0  0  0
    9.9670  -19.0856   19.1433 C   0  0  0  0  0  0  0  0  0  0  0  0
   10.7251  -17.7968   19.0684 C   0  0  2  0  0  0  0  0  0  0  0  0
   12.1442  -18.0053   18.8707 N   0  0  0  0  0  0  0  0  0  0  0  0
   10.5228  -16.8949   20.1885 C   0  0  0  0  0  0  0  0  0  0  0  0
   11.5024  -16.5759   20.9123 O   0  0  0  0  0  0  0  0  0  0  0  0
    6.8144  -12.8598   19.8950 C   0  0  0  0  0  0  0  0  0  0  0  0
    8.0963  -13.5902   20.2224 C   0  0  0  0  0  0  0  0  0  0  0  0
    7.9049  -14.5092   21.4274 C   0  0  2  0  0  0  0  0  0  0  0  0
    7.6796  -13.5873   22.6004 C   0  0  0  0  0  0  0  0  0  0  0  0
    9.1598  -15.3375   21.6510 C   0  0  2  0  0  0  0  0  0  0  0  0
    9.2696  -16.3213   20.5502 N   0  0  0  0  0  0  0  0  0  0  0  0
    8.9849  -16.1234   22.8942 C   0  0  0  0  0  0  0  0  0  0  0  0
    8.1931  -17.1247   22.8416 O   0  0  0  0  0  0  0  0  0  0  0  0
    9.6187  -15.8589   24.1197 N   0  0  0  0  0  0  0  0  0  0  0  0
    9.5958  -16.8848   25.1725 C   0  0  1  0  0  0  0  0  0  0  0  0
   10.7450  -16.6706   26.1192 C   0  0  0  0  0  0  0  0  0  0  0  0
   10.4924  -15.4762   26.9459 C   0  0  0  0  0  0  0  0  0  0  0  0
   10.2310  -14.2327   26.3634 C   0  0  0  0  0  0  0  0  0  0  0  0
    9.9808  -13.1612   27.1792 C   0  0  0  0  0  0  0  0  0  0  0  0
    9.9815  -13.2839   28.5594 C   0  0  0  0  0  0  0  0  0  0  0  0
   10.2392  -14.5104   29.1342 C   0  0  0  0  0  0  0  0  0  0  0  0
   10.4886  -15.5792   28.3283 C   0  0  0  0  0  0  0  0  0  0  0  0
    8.2808  -16.8485   25.8291 C   0  0  0  0  0  0  0  0  0  0  0  0
    7.8883  -17.8005   26.7548 O   0  0  0  0  0  0  0  0  0  0  0  0
    7.4556  -15.9227   25.5537 O   0  0  0  0  0  0  0  0  0  0  0  0
  2  3  2  0
  2  1  1  0
  4  2  1  0
  5  6  1  0
  5  4  1  0
  6  8  1  0
  6  7  1  1
  8  9  2  0
 10 11  1  0
 12 11  1  0
 12 13  1  1
 12 14  1  0
 14 15  1  6
 15  8  1  0
 16 14  1  0
 16 17  2  0
 18 16  1  0
 19 18  1  0
 19 27  1  0
 19 20  1  1
 21 20  1  0
 21 26  2  0
 22 21  1  0
 23 22  2  0
 23 24  1  0
 24 25  2  0
 25 26  1  0
 27 29  2  0
 27 28  1  0
M  END
$$$$
