QIF.pdb
     RDKit          3D

 29 29  0  0  1  0  0  0  0  0999 V2000
   12.8860  -20.2233   17.9422 N   0  0  0  0  0  0  0  0  0  0  0  0
   11.6886  -20.9845   17.9626 C   0  0  0  0  0  0  0  0  0  0  0  0
   11.7652  -22.2064   17.6825 O   0  0  0  0  0  0  0  0  0  0  0  0
   10.3999  -20.3578   18.3020 C   0  0  0  0  0  0  0  0  0  0  0  0
   10.5399  -18.8760   18.5803 C   0  0  0  0  0  0  0  0  0  0  0  0
   10.1026  -18.6285   19.9905 C   0  0  2  0  0  0  0  0  0  0  0  0
    8.7736  -19.1407   20.2510 N   0  0  0  0  0  0  0  0  0  0  0  0
   10.1796  -17.2459   20.4278 C   0  0  0  0  0  0  0  0  0  0  0  0
   11.2691  -16.6231   20.3254 O   0  0  0  0  0  0  0  0  0  0  0  0
    7.0145  -12.0861   20.3151 C   0  0  0  0  0  0  0  0  0  0  0  0
    8.1472  -12.8414   20.9712 C   0  0  0  0  0  0  0  0  0  0  0  0
    8.0309  -14.3397   20.6974 C   0  0  2  0  0  0  0  0  0  0  0  0
    6.7570  -14.7724   21.3804 C   0  0  0  0  0  0  0  0  0  0  0  0
    9.2189  -15.0701   21.3026 C   0  0  2  0  0  0  0  0  0  0  0  0
    9.0923  -16.5097   20.9810 N   0  0  0  0  0  0  0  0  0  0  0  0
    9.1295  -14.9649   22.7772 C   0  0  0  0  0  0  0  0  0  0  0  0
    9.0339  -13.7904   23.2709 O   0  0  0  0  0  0  0  0  0  0  0  0
    9.1389  -16.0479   23.6720 N   0  0  0  0  0  0  0  0  0  0  0  0
    8.8935  -15.7977   25.0998 C   0  0  1  0  0  0  0  0  0  0  0  0
    7.4449  -15.4547   25.3164 C   0  0  0  0  0  0  0  0  0  0  0  0
    7.3292  -14.0666   25.7995 C   0  0  0  0  0  0  0  0  0  0  0  0
    8.4466  -13.3618   26.2562 C   0  0  0  0  0  0  0  0  0  0  0  0
    8.2854  -12.0668   26.6724 C   0  0  0  0  0  0  0  0  0  0  0  0
    7.0468  -11.4460   26.6502 C   0  0  0  0  0  0  0  0  0  0  0  0
    5.9445  -12.1410   26.1996 C   0  0  0  0  0  0  0  0  0  0  0  0
    6.0987  -13.4286   25.7845 C   0  0  0  0  0  0  0  0  0  0  0  0
    9.3374  -16.9744   25.8614 C   0  0  0  0  0  0  0  0  0  0  0  0
    9.3007  -17.0186   27.2449 O   0  0  0  0  0  0  0  0  0  0  0  0
    9.7766  -17.9996   25.2531 O   0  0  0  0  0  0  0  0  0  0  0  0
  2  3  2  0
  2  1  1  0
  4  2  1  0
  5  6  1  0
  5  4  1  0
  6  8  1  0
  6  7  1  6
  8  9  2  0
 10 11  1  0
 12 11  1  0
 12 13  1  1
 12 14  1  0
 14 15  1  1
 15  8  1  0
 16 14  1  0
 16 17  2  0
 18 16  1  0
 19 18  1  0
 19 27  1  0
 19 20  1  6
 21 20  1  0
 21 26  2  0
 22 21  1  0
 23 22  2  0
 23 24  1  0
 24 25  2  0
 25 26  1  0
 27 29  2  0
 27 28  1  0
M  END
$$$$
