QIF.pdb
     RDKit          3D

 29 29  0  0  1  0  0  0  0  0999 V2000
   10.7788  -21.2153   16.9710 N   0  0  0  0  0  0  0  0  0  0  0  0
    9.5713  -20.4705   16.9468 C   0  0  0  0  0  0  0  0  0  0  0  0
    9.0159  -20.2891   15.8350 O   0  0  0  0  0  0  0  0  0  0  0  0
    8.9915  -19.9294   18.1877 C   0  0  0  0  0  0  0  0  0  0  0  0
    9.7552  -18.7259   18.6987 C   0  0  0  0  0  0  0  0  0  0  0  0
    9.4124  -18.5425   20.1444 C   0  0  2  0  0  0  0  0  0  0  0  0
    8.0607  -18.9647   20.4460 N   0  0  0  0  0  0  0  0  0  0  0  0
    9.6258  -17.2037   20.6652 C   0  0  0  0  0  0  0  0  0  0  0  0
   10.7419  -16.6448   20.4997 O   0  0  0  0  0  0  0  0  0  0  0  0
    6.4600  -13.0592   19.8286 C   0  0  0  0  0  0  0  0  0  0  0  0
    7.6751  -13.9034   20.1364 C   0  0  0  0  0  0  0  0  0  0  0  0
    7.7714  -14.1906   21.6337 C   0  0  2  0  0  0  0  0  0  0  0  0
    7.9893  -12.8468   22.2843 C   0  0  0  0  0  0  0  0  0  0  0  0
    8.9573  -15.1005   21.9108 C   0  0  2  0  0  0  0  0  0  0  0  0
    8.6484  -16.4439   21.3705 N   0  0  0  0  0  0  0  0  0  0  0  0
    9.0882  -15.2630   23.3771 C   0  0  0  0  0  0  0  0  0  0  0  0
   10.0230  -14.6094   23.9527 O   0  0  0  0  0  0  0  0  0  0  0  0
    8.2693  -16.0723   24.1821 N   0  0  0  0  0  0  0  0  0  0  0  0
    8.6075  -16.2423   25.6027 C   0  0  1  0  0  0  0  0  0  0  0  0
    7.4901  -15.7142   26.4603 C   0  0  0  0  0  0  0  0  0  0  0  0
    7.5999  -14.2483   26.5733 C   0  0  0  0  0  0  0  0  0  0  0  0
    6.4899  -13.4206   26.3817 C   0  0  0  0  0  0  0  0  0  0  0  0
    6.6441  -12.0667   26.5213 C   0  0  0  0  0  0  0  0  0  0  0  0
    7.8685  -11.5053   26.8461 C   0  0  0  0  0  0  0  0  0  0  0  0
    8.9635  -12.3215   27.0352 C   0  0  0  0  0  0  0  0  0  0  0  0
    8.8163  -13.6681   26.8978 C   0  0  0  0  0  0  0  0  0  0  0  0
    8.9100  -17.6610   25.8424 C   0  0  0  0  0  0  0  0  0  0  0  0
    8.9953  -18.5844   24.8141 O   0  0  0  0  0  0  0  0  0  0  0  0
    9.1021  -18.0813   27.0257 O   0  0  0  0  0  0  0  0  0  0  0  0
  2  3  2  0
  2  1  1  0
  4  2  1  0
  5  6  1  0
  5  4  1  0
  6  8  1  0
  6  7  1  6
  8  9  2  0
 10 11  1  0
 12 11  1  0
 12 13  1  1
 12 14  1  0
 14 15  1  6
 15  8  1  0
 16 14  1  0
 16 17  2  0
 18 16  1  0
 19 18  1  0
 19 27  1  0
 19 20  1  1
 21 20  1  0
 21 26  2  0
 22 21  1  0
 23 22  2  0
 23 24  1  0
 24 25  2  0
 25 26  1  0
 27 29  2  0
 27 28  1  0
M  END
$$$$
