QIF.pdb
     RDKit          3D

 29 29  0  0  1  0  0  0  0  0999 V2000
   12.2244  -14.3292   20.7591 N   0  0  0  0  0  0  0  0  0  0  0  0
   11.9454  -13.9702   19.4149 C   0  0  0  0  0  0  0  0  0  0  0  0
   12.8534  -14.1351   18.5630 O   0  0  0  0  0  0  0  0  0  0  0  0
   10.6322  -13.4222   19.0356 C   0  0  0  0  0  0  0  0  0  0  0  0
    9.6546  -13.4267   20.1919 C   0  0  0  0  0  0  0  0  0  0  0  0
    8.5089  -14.3169   19.8232 C   0  0  2  0  0  0  0  0  0  0  0  0
    7.5749  -13.6672   18.9277 N   0  0  0  0  0  0  0  0  0  0  0  0
    7.7831  -14.8866   20.9447 C   0  0  0  0  0  0  0  0  0  0  0  0
    6.7367  -14.3210   21.3576 O   0  0  0  0  0  0  0  0  0  0  0  0
    6.1431  -19.8086   20.9896 C   0  0  0  0  0  0  0  0  0  0  0  0
    6.3123  -18.3318   21.2625 C   0  0  0  0  0  0  0  0  0  0  0  0
    7.1597  -18.1044   22.5129 C   0  0  2  0  0  0  0  0  0  0  0  0
    6.3683  -18.7089   23.6464 C   0  0  0  0  0  0  0  0  0  0  0  0
    7.3472  -16.6141   22.7469 C   0  0  2  0  0  0  0  0  0  0  0  0
    8.1665  -16.0694   21.6406 N   0  0  0  0  0  0  0  0  0  0  0  0
    8.1441  -16.4323   23.9820 C   0  0  0  0  0  0  0  0  0  0  0  0
    9.4114  -16.5575   23.8791 O   0  0  0  0  0  0  0  0  0  0  0  0
    7.6210  -16.1322   25.2508 N   0  0  0  0  0  0  0  0  0  0  0  0
    8.5470  -15.8790   26.3642 C   0  0  1  0  0  0  0  0  0  0  0  0
    7.8647  -15.0488   27.4170 C   0  0  0  0  0  0  0  0  0  0  0  0
    7.4221  -13.7697   26.8323 C   0  0  0  0  0  0  0  0  0  0  0  0
    8.3427  -12.7910   26.4468 C   0  0  0  0  0  0  0  0  0  0  0  0
    7.8770  -11.6304   25.8879 C   0  0  0  0  0  0  0  0  0  0  0  0
    6.5224  -11.4085   25.6984 C   0  0  0  0  0  0  0  0  0  0  0  0
    5.6142  -12.3737   26.0786 C   0  0  0  0  0  0  0  0  0  0  0  0
    6.0713  -13.5295   26.6346 C   0  0  0  0  0  0  0  0  0  0  0  0
    9.0380  -17.1715   26.8642 C   0  0  0  0  0  0  0  0  0  0  0  0
   10.2192  -17.2898   27.5771 O   0  0  0  0  0  0  0  0  0  0  0  0
    8.3754  -18.2332   26.6464 O   0  0  0  0  0  0  0  0  0  0  0  0
  2  3  2  0
  2  1  1  0
  4  2  1  0
  5  6  1  0
  5  4  1  0
  6  8  1  0
  6  7  1  1
  8  9  2  0
 10 11  1  0
 12 11  1  0
 12 13  1  1
 12 14  1  0
 14 15  1  6
 15  8  1  0
 16 14  1  0
 16 17  2  0
 18 16  1  0
 19 18  1  0
 19 27  1  0
 19 20  1  1
 21 20  1  0
 21 26  2  0
 22 21  1  0
 23 22  2  0
 23 24  1  0
 24 25  2  0
 25 26  1  0
 27 29  2  0
 27 28  1  0
M  END
$$$$
