QIF.pdb
     RDKit          3D

 29 29  0  0  1  0  0  0  0  0999 V2000
   14.6974  -19.4766   18.8087 N   0  0  0  0  0  0  0  0  0  0  0  0
   13.8265  -19.6187   17.6975 C   0  0  0  0  0  0  0  0  0  0  0  0
   14.0903  -20.5126   16.8556 O   0  0  0  0  0  0  0  0  0  0  0  0
   12.6523  -18.7439   17.5404 C   0  0  0  0  0  0  0  0  0  0  0  0
   12.5605  -17.7065   18.6396 C   0  0  0  0  0  0  0  0  0  0  0  0
   11.1838  -17.7746   19.2237 C   0  0  2  0  0  0  0  0  0  0  0  0
   10.1526  -17.6765   18.2120 N   0  0  0  0  0  0  0  0  0  0  0  0
   10.9130  -16.8167   20.2812 C   0  0  0  0  0  0  0  0  0  0  0  0
   11.8703  -16.2026   20.8213 O   0  0  0  0  0  0  0  0  0  0  0  0
    6.5837  -13.4707   20.3416 C   0  0  0  0  0  0  0  0  0  0  0  0
    7.9882  -13.9805   20.5681 C   0  0  0  0  0  0  0  0  0  0  0  0
    8.0332  -14.9368   21.7584 C   0  0  2  0  0  0  0  0  0  0  0  0
    7.7290  -14.0851   22.9661 C   0  0  0  0  0  0  0  0  0  0  0  0
    9.4227  -15.5405   21.8850 C   0  0  2  0  0  0  0  0  0  0  0  0
    9.6143  -16.5022   20.7758 N   0  0  0  0  0  0  0  0  0  0  0  0
    9.4751  -16.3329   23.1351 C   0  0  0  0  0  0  0  0  0  0  0  0
    8.9570  -17.5004   23.1048 O   0  0  0  0  0  0  0  0  0  0  0  0
   10.0482  -15.9068   24.3449 N   0  0  0  0  0  0  0  0  0  0  0  0
   10.3536  -16.9035   25.3816 C   0  0  1  0  0  0  0  0  0  0  0  0
   11.3483  -16.3369   26.3574 C   0  0  0  0  0  0  0  0  0  0  0  0
   10.6803  -15.3622   27.2392 C   0  0  0  0  0  0  0  0  0  0  0  0
   10.6496  -15.5397   28.6254 C   0  0  0  0  0  0  0  0  0  0  0  0
   10.0348  -14.5911   29.3989 C   0  0  0  0  0  0  0  0  0  0  0  0
    9.4473  -13.4676   28.8395 C   0  0  0  0  0  0  0  0  0  0  0  0
    9.4776  -13.2923   27.4723 C   0  0  0  0  0  0  0  0  0  0  0  0
   10.0874  -14.2320   26.6983 C   0  0  0  0  0  0  0  0  0  0  0  0
    9.0919  -17.3244   26.0083 C   0  0  0  0  0  0  0  0  0  0  0  0
    9.0326  -18.3462   26.9409 O   0  0  0  0  0  0  0  0  0  0  0  0
    8.0028  -16.7480   25.6996 O   0  0  0  0  0  0  0  0  0  0  0  0
  2  3  2  0
  2  1  1  0
  4  2  1  0
  5  6  1  0
  5  4  1  0
  6  8  1  0
  6  7  1  6
  8  9  2  0
 10 11  1  0
 12 11  1  0
 12 13  1  1
 12 14  1  0
 14 15  1  6
 15  8  1  0
 16 14  1  0
 16 17  2  0
 18 16  1  0
 19 18  1  0
 19 27  1  0
 19 20  1  1
 21 20  1  0
 21 26  2  0
 22 21  1  0
 23 22  2  0
 23 24  1  0
 24 25  2  0
 25 26  1  0
 27 29  2  0
 27 28  1  0
M  END
$$$$
