QIF.pdb
     RDKit          3D

 29 29  0  0  1  0  0  0  0  0999 V2000
    8.8810  -20.0969   16.0177 N   0  0  0  0  0  0  0  0  0  0  0  0
   10.0439  -19.9146   16.8101 C   0  0  0  0  0  0  0  0  0  0  0  0
   11.1516  -19.8539   16.2213 O   0  0  0  0  0  0  0  0  0  0  0  0
    9.9504  -19.8008   18.2754 C   0  0  0  0  0  0  0  0  0  0  0  0
   10.4869  -18.4785   18.7820 C   0  0  0  0  0  0  0  0  0  0  0  0
    9.9951  -18.2882   20.1831 C   0  0  2  0  0  0  0  0  0  0  0  0
    8.6232  -18.7208   20.3471 N   0  0  0  0  0  0  0  0  0  0  0  0
   10.1422  -16.9438   20.7124 C   0  0  0  0  0  0  0  0  0  0  0  0
   11.2803  -16.4056   20.7299 O   0  0  0  0  0  0  0  0  0  0  0  0
    6.8990  -12.8555   19.5248 C   0  0  0  0  0  0  0  0  0  0  0  0
    8.1431  -13.6111   19.9315 C   0  0  0  0  0  0  0  0  0  0  0  0
    8.1227  -13.9262   21.4260 C   0  0  2  0  0  0  0  0  0  0  0  0
    8.2410  -12.5901   22.1170 C   0  0  0  0  0  0  0  0  0  0  0  0
    9.3102  -14.8043   21.7860 C   0  0  2  0  0  0  0  0  0  0  0  0
    9.0738  -16.1562   21.2305 N   0  0  0  0  0  0  0  0  0  0  0  0
    9.3455  -14.9610   23.2583 C   0  0  0  0  0  0  0  0  0  0  0  0
    9.5703  -13.9099   23.9490 O   0  0  0  0  0  0  0  0  0  0  0  0
    9.1501  -16.1664   23.9530 N   0  0  0  0  0  0  0  0  0  0  0  0
    8.7900  -16.1203   25.3776 C   0  0  1  0  0  0  0  0  0  0  0  0
    7.3196  -15.8381   25.5237 C   0  0  0  0  0  0  0  0  0  0  0  0
    7.1241  -14.4686   26.0337 C   0  0  0  0  0  0  0  0  0  0  0  0
    8.1967  -13.7153   26.5195 C   0  0  0  0  0  0  0  0  0  0  0  0
    7.9616  -12.4398   26.9601 C   0  0  0  0  0  0  0  0  0  0  0  0
    6.6919  -11.8854   26.9343 C   0  0  0  0  0  0  0  0  0  0  0  0
    5.6339  -12.6283   26.4551 C   0  0  0  0  0  0  0  0  0  0  0  0
    5.8615  -13.8967   26.0156 C   0  0  0  0  0  0  0  0  0  0  0  0
    9.2098  -17.3821   26.0047 C   0  0  0  0  0  0  0  0  0  0  0  0
    9.1813  -17.5734   27.3758 O   0  0  0  0  0  0  0  0  0  0  0  0
    9.6195  -18.3463   25.2862 O   0  0  0  0  0  0  0  0  0  0  0  0
  2  3  2  0
  2  1  1  0
  4  2  1  0
  5  6  1  0
  5  4  1  0
  6  8  1  0
  6  7  1  6
  8  9  2  0
 10 11  1  0
 12 11  1  0
 12 13  1  1
 12 14  1  0
 14 15  1  6
 15  8  1  0
 16 14  1  0
 16 17  2  0
 18 16  1  0
 19 18  1  0
 19 27  1  0
 19 20  1  6
 21 20  1  0
 21 26  2  0
 22 21  1  0
 23 22  2  0
 23 24  1  0
 24 25  2  0
 25 26  1  0
 27 29  2  0
 27 28  1  0
M  END
$$$$
