QIF.pdb
     RDKit          3D

 29 29  0  0  1  0  0  0  0  0999 V2000
    4.6933  -19.0376   21.5397 N   0  0  0  0  0  0  0  0  0  0  0  0
    4.8267  -19.9137   20.4314 C   0  0  0  0  0  0  0  0  0  0  0  0
    3.7764  -20.3455   19.8950 O   0  0  0  0  0  0  0  0  0  0  0  0
    6.1558  -20.3015   19.9298 C   0  0  0  0  0  0  0  0  0  0  0  0
    7.2736  -19.5850   20.6579 C   0  0  0  0  0  0  0  0  0  0  0  0
    7.9092  -18.6275   19.6985 C   0  0  2  0  0  0  0  0  0  0  0  0
    8.8571  -19.2793   18.8193 N   0  0  0  0  0  0  0  0  0  0  0  0
    8.5362  -17.4676   20.3070 C   0  0  0  0  0  0  0  0  0  0  0  0
    9.7811  -17.4637   20.4960 O   0  0  0  0  0  0  0  0  0  0  0  0
    7.0709  -12.1441   19.6238 C   0  0  0  0  0  0  0  0  0  0  0  0
    7.9439  -13.3557   19.8562 C   0  0  0  0  0  0  0  0  0  0  0  0
    7.7201  -13.9256   21.2557 C   0  0  2  0  0  0  0  0  0  0  0  0
    8.2142  -12.8608   22.2037 C   0  0  0  0  0  0  0  0  0  0  0  0
    8.5340  -15.1972   21.4328 C   0  0  2  0  0  0  0  0  0  0  0  0
    7.8406  -16.2955   20.7222 N   0  0  0  0  0  0  0  0  0  0  0  0
    8.5248  -15.5610   22.8685 C   0  0  0  0  0  0  0  0  0  0  0  0
    7.3834  -15.6815   23.4298 O   0  0  0  0  0  0  0  0  0  0  0  0
    9.6649  -15.7854   23.6581 N   0  0  0  0  0  0  0  0  0  0  0  0
    9.4945  -16.1992   25.0585 C   0  0  1  0  0  0  0  0  0  0  0  0
    8.6664  -17.4534   25.1232 C   0  0  0  0  0  0  0  0  0  0  0  0
    9.4027  -18.5683   24.4998 C   0  0  0  0  0  0  0  0  0  0  0  0
   10.7745  -18.4801   24.2462 C   0  0  0  0  0  0  0  0  0  0  0  0
   11.4126  -19.5549   23.6860 C   0  0  0  0  0  0  0  0  0  0  0  0
   10.7312  -20.7188   23.3681 C   0  0  0  0  0  0  0  0  0  0  0  0
    9.3781  -20.8060   23.6182 C   0  0  0  0  0  0  0  0  0  0  0  0
    8.7384  -19.7409   24.1750 C   0  0  0  0  0  0  0  0  0  0  0  0
   10.8255  -16.3436   25.6662 C   0  0  0  0  0  0  0  0  0  0  0  0
   10.9994  -16.6364   27.0083 O   0  0  0  0  0  0  0  0  0  0  0  0
   11.8697  -16.1976   24.9575 O   0  0  0  0  0  0  0  0  0  0  0  0
  2  3  2  0
  2  1  1  0
  4  2  1  0
  5  6  1  0
  5  4  1  0
  6  8  1  0
  6  7  1  1
  8  9  2  0
 10 11  1  0
 12 11  1  0
 12 13  1  1
 12 14  1  0
 14 15  1  6
 15  8  1  0
 16 14  1  0
 16 17  2  0
 18 16  1  0
 19 18  1  0
 19 27  1  0
 19 20  1  6
 21 20  1  0
 21 26  2  0
 22 21  1  0
 23 22  2  0
 23 24  1  0
 24 25  2  0
 25 26  1  0
 27 29  2  0
 27 28  1  0
M  END
$$$$
