QIF.pdb
     RDKit          3D

 29 29  0  0  1  0  0  0  0  0999 V2000
   11.1695  -19.5014   16.7210 N   0  0  0  0  0  0  0  0  0  0  0  0
   10.0313  -18.6556   16.7726 C   0  0  0  0  0  0  0  0  0  0  0  0
    9.6456  -18.1247   15.7017 O   0  0  0  0  0  0  0  0  0  0  0  0
    9.3279  -18.4111   18.0431 C   0  0  0  0  0  0  0  0  0  0  0  0
    9.9023  -19.2278   19.1815 C   0  0  0  0  0  0  0  0  0  0  0  0
    9.1966  -18.8255   20.4391 C   0  0  2  0  0  0  0  0  0  0  0  0
    7.7564  -18.8883   20.3045 N   0  0  0  0  0  0  0  0  0  0  0  0
    9.5740  -17.5282   20.9716 C   0  0  0  0  0  0  0  0  0  0  0  0
   10.7904  -17.2059   21.0149 O   0  0  0  0  0  0  0  0  0  0  0  0
    7.1879  -12.8819   19.5900 C   0  0  0  0  0  0  0  0  0  0  0  0
    8.2447  -13.8640   20.0402 C   0  0  0  0  0  0  0  0  0  0  0  0
    8.0825  -14.1941   21.5228 C   0  0  2  0  0  0  0  0  0  0  0  0
    8.3344  -12.8965   22.2502 C   0  0  0  0  0  0  0  0  0  0  0  0
    9.1138  -15.2311   21.9378 C   0  0  2  0  0  0  0  0  0  0  0  0
    8.6555  -16.5572   21.4653 N   0  0  0  0  0  0  0  0  0  0  0  0
    9.1349  -15.3021   23.4170 C   0  0  0  0  0  0  0  0  0  0  0  0
    9.8101  -14.4085   24.0318 O   0  0  0  0  0  0  0  0  0  0  0  0
    8.4734  -16.2673   24.1946 N   0  0  0  0  0  0  0  0  0  0  0  0
    8.4708  -16.1271   25.6580 C   0  0  1  0  0  0  0  0  0  0  0  0
    7.1203  -15.6557   26.1234 C   0  0  0  0  0  0  0  0  0  0  0  0
    7.1325  -14.1899   26.2821 C   0  0  0  0  0  0  0  0  0  0  0  0
    5.9553  -13.4410   26.1962 C   0  0  0  0  0  0  0  0  0  0  0  0
    6.0215  -12.0845   26.3743 C   0  0  0  0  0  0  0  0  0  0  0  0
    7.2224  -11.4445   26.6357 C   0  0  0  0  0  0  0  0  0  0  0  0
    8.3836  -12.1830   26.7205 C   0  0  0  0  0  0  0  0  0  0  0  0
    8.3239  -13.5319   26.5445 C   0  0  0  0  0  0  0  0  0  0  0  0
    8.8795  -17.4099   26.2490 C   0  0  0  0  0  0  0  0  0  0  0  0
    9.0366  -17.5801   27.6142 O   0  0  0  0  0  0  0  0  0  0  0  0
    9.1049  -18.4131   25.5029 O   0  0  0  0  0  0  0  0  0  0  0  0
  2  3  2  0
  2  1  1  0
  4  2  1  0
  5  6  1  0
  5  4  1  0
  6  8  1  0
  6  7  1  6
  8  9  2  0
 10 11  1  0
 12 11  1  0
 12 13  1  1
 12 14  1  0
 14 15  1  6
 15  8  1  0
 16 14  1  0
 16 17  2  0
 18 16  1  0
 19 18  1  0
 19 27  1  0
 19 20  1  1
 21 20  1  0
 21 26  2  0
 22 21  1  0
 23 22  2  0
 23 24  1  0
 24 25  2  0
 25 26  1  0
 27 29  2  0
 27 28  1  0
M  END
$$$$
