QIF.pdb
     RDKit          3D

 29 29  0  0  1  0  0  0  0  0999 V2000
   11.9346  -19.0109   16.1400 N   0  0  0  0  0  0  0  0  0  0  0  0
   11.3242  -19.8499   17.1080 C   0  0  0  0  0  0  0  0  0  0  0  0
   10.7703  -20.9031   16.7062 O   0  0  0  0  0  0  0  0  0  0  0  0
   11.3419  -19.4933   18.5367 C   0  0  0  0  0  0  0  0  0  0  0  0
   10.6639  -18.1659   18.8037 C   0  0  0  0  0  0  0  0  0  0  0  0
   10.2103  -18.1588   20.2303 C   0  0  2  0  0  0  0  0  0  0  0  0
    8.9075  -18.7686   20.3952 N   0  0  0  0  0  0  0  0  0  0  0  0
   10.2174  -16.8573   20.8745 C   0  0  0  0  0  0  0  0  0  0  0  0
   11.2991  -16.2207   20.9738 O   0  0  0  0  0  0  0  0  0  0  0  0
    6.4849  -13.1881   19.8357 C   0  0  0  0  0  0  0  0  0  0  0  0
    7.7835  -13.8725   20.1949 C   0  0  0  0  0  0  0  0  0  0  0  0
    7.8682  -14.1206   21.6998 C   0  0  2  0  0  0  0  0  0  0  0  0
    7.8971  -12.7496   22.3291 C   0  0  0  0  0  0  0  0  0  0  0  0
    9.1487  -14.8707   22.0293 C   0  0  2  0  0  0  0  0  0  0  0  0
    9.0674  -16.2184   21.4218 N   0  0  0  0  0  0  0  0  0  0  0  0
    9.2038  -15.0787   23.4947 C   0  0  0  0  0  0  0  0  0  0  0  0
    9.7520  -14.1589   24.1917 O   0  0  0  0  0  0  0  0  0  0  0  0
    8.7018  -16.1998   24.1765 N   0  0  0  0  0  0  0  0  0  0  0  0
    8.9044  -16.3030   25.6290 C   0  0  1  0  0  0  0  0  0  0  0  0
    7.6085  -16.0379   26.3454 C   0  0  0  0  0  0  0  0  0  0  0  0
    7.4063  -14.5842   26.4863 C   0  0  0  0  0  0  0  0  0  0  0  0
    6.2118  -13.9760   26.0897 C   0  0  0  0  0  0  0  0  0  0  0  0
    6.0693  -12.6250   26.2646 C   0  0  0  0  0  0  0  0  0  0  0  0
    7.0772  -11.8549   26.8223 C   0  0  0  0  0  0  0  0  0  0  0  0
    8.2554  -12.4546   27.2137 C   0  0  0  0  0  0  0  0  0  0  0  0
    8.4028  -13.7973   27.0424 C   0  0  0  0  0  0  0  0  0  0  0  0
    9.4789  -17.6234   25.9260 C   0  0  0  0  0  0  0  0  0  0  0  0
    9.7393  -18.0442   27.2192 O   0  0  0  0  0  0  0  0  0  0  0  0
    9.7575  -18.4252   24.9808 O   0  0  0  0  0  0  0  0  0  0  0  0
  2  3  2  0
  2  1  1  0
  4  2  1  0
  5  6  1  0
  5  4  1  0
  6  8  1  0
  6  7  1  6
  8  9  2  0
 10 11  1  0
 12 11  1  0
 12 13  1  1
 12 14  1  0
 14 15  1  6
 15  8  1  0
 16 14  1  0
 16 17  2  0
 18 16  1  0
 19 18  1  0
 19 27  1  0
 19 20  1  1
 21 20  1  0
 21 26  2  0
 22 21  1  0
 23 22  2  0
 23 24  1  0
 24 25  2  0
 25 26  1  0
 27 29  2  0
 27 28  1  0
M  END
$$$$
