QIF.pdb
     RDKit          3D

 29 29  0  0  1  0  0  0  0  0999 V2000
    8.9138  -18.8480   15.9733 N   0  0  0  0  0  0  0  0  0  0  0  0
   10.0535  -18.0030   15.9459 C   0  0  0  0  0  0  0  0  0  0  0  0
   10.9255  -18.2220   15.0691 O   0  0  0  0  0  0  0  0  0  0  0  0
   10.2046  -16.9057   16.9165 C   0  0  0  0  0  0  0  0  0  0  0  0
    9.0546  -16.8491   17.8999 C   0  0  0  0  0  0  0  0  0  0  0  0
    9.5054  -17.4937   19.1737 C   0  0  2  0  0  0  0  0  0  0  0  0
    9.5206  -18.9386   19.0824 N   0  0  0  0  0  0  0  0  0  0  0  0
    8.7719  -17.0943   20.3617 C   0  0  0  0  0  0  0  0  0  0  0  0
    8.6560  -15.8710   20.6367 O   0  0  0  0  0  0  0  0  0  0  0  0
    4.9724  -20.2961   21.7767 C   0  0  0  0  0  0  0  0  0  0  0  0
    5.3365  -18.8335   21.8869 C   0  0  0  0  0  0  0  0  0  0  0  0
    6.4597  -18.6287   22.9017 C   0  0  2  0  0  0  0  0  0  0  0  0
    5.7711  -18.2313   24.1841 C   0  0  0  0  0  0  0  0  0  0  0  0
    7.3790  -17.5105   22.4375 C   0  0  2  0  0  0  0  0  0  0  0  0
    8.1518  -17.9978   21.2724 N   0  0  0  0  0  0  0  0  0  0  0  0
    8.3668  -17.2435   23.5083 C   0  0  0  0  0  0  0  0  0  0  0  0
    9.4110  -17.9793   23.5318 O   0  0  0  0  0  0  0  0  0  0  0  0
    8.2492  -16.2494   24.4940 N   0  0  0  0  0  0  0  0  0  0  0  0
    9.3809  -16.0030   25.3994 C   0  0  1  0  0  0  0  0  0  0  0  0
    9.7740  -14.5521   25.3421 C   0  0  0  0  0  0  0  0  0  0  0  0
    8.6154  -13.7086   25.6885 C   0  0  0  0  0  0  0  0  0  0  0  0
    8.3719  -13.3166   27.0080 C   0  0  0  0  0  0  0  0  0  0  0  0
    7.2934  -12.5138   27.2697 C   0  0  0  0  0  0  0  0  0  0  0  0
    6.4453  -12.0857   26.2610 C   0  0  0  0  0  0  0  0  0  0  0  0
    6.6854  -12.4723   24.9594 C   0  0  0  0  0  0  0  0  0  0  0  0
    7.7560  -13.2702   24.6931 C   0  0  0  0  0  0  0  0  0  0  0  0
    9.0058  -16.4558   26.7470 C   0  0  0  0  0  0  0  0  0  0  0  0
    7.7390  -16.9297   27.0436 O   0  0  0  0  0  0  0  0  0  0  0  0
    9.8546  -16.4196   27.6915 O   0  0  0  0  0  0  0  0  0  0  0  0
  2  3  2  0
  2  1  1  0
  4  2  1  0
  5  6  1  0
  5  4  1  0
  6  8  1  0
  6  7  1  6
  8  9  2  0
 10 11  1  0
 12 11  1  0
 12 13  1  1
 12 14  1  0
 14 15  1  6
 15  8  1  0
 16 14  1  0
 16 17  2  0
 18 16  1  0
 19 18  1  0
 19 27  1  0
 19 20  1  1
 21 20  1  0
 21 26  2  0
 22 21  1  0
 23 22  2  0
 23 24  1  0
 24 25  2  0
 25 26  1  0
 27 29  2  0
 27 28  1  0
M  END
$$$$
