RIT.pdb
     RDKit          3D

 27 26  0  0  1  0  0  0  0  0999 V2000
   23.9937  -25.9827  -13.4167 N   0  0  0  0  0  0  0  0  0  0  0  0
   23.7641  -25.7482  -14.8211 C   0  0  0  0  0  0  0  0  0  0  0  0
   23.9621  -26.6862  -15.6833 N   0  0  0  0  0  0  0  0  0  0  0  0
   23.3153  -24.4870  -15.2869 N   0  0  0  0  0  0  0  0  0  0  0  0
   22.4033  -23.6488  -14.5427 C   0  0  0  0  0  0  0  0  0  0  0  0
   23.0429  -22.3253  -14.2188 C   0  0  0  0  0  0  0  0  0  0  0  0
   23.3222  -22.1703  -12.7409 C   0  0  0  0  0  0  0  0  0  0  0  0
   24.7875  -21.7219  -12.6566 C   0  0  2  0  0  0  0  0  0  0  0  0
   25.1591  -21.8360  -11.2695 N   0  0  0  0  0  0  0  0  0  0  0  0
   24.8234  -20.3148  -13.1299 C   0  0  0  0  0  0  0  0  0  0  0  0
   24.3179  -19.3940  -12.4225 O   0  0  0  0  0  0  0  0  0  0  0  0
   23.7558  -26.5445  -16.6909 C   0  0  0  0  0  0  0  0  0  0  0  0
   29.0226  -19.7238  -14.6796 C   0  0  0  0  0  0  0  0  0  0  0  0
   27.8911  -18.8789  -14.1970 C   0  0  2  0  0  0  0  0  0  0  0  0
   26.9686  -18.4681  -15.3661 C   0  0  0  0  0  0  0  0  0  0  0  0
   27.2904  -17.0324  -15.7022 C   0  0  2  0  0  0  0  0  0  0  0  0
   25.5556  -18.6657  -14.8655 N   0  0  0  0  0  0  0  0  0  0  0  0
   25.4268  -20.0473  -14.3687 C   0  0  0  0  0  0  0  0  0  0  0  0
   24.4911  -18.3464  -15.8079 O   0  0  0  0  0  0  0  0  0  0  0  0
   24.4322  -19.1164  -16.8475 C   0  0  0  0  0  0  0  0  0  0  0  0
   21.0612  -19.0193  -15.9108 C   0  0  2  0  0  0  0  0  0  0  0  0
   21.1751  -17.5520  -16.1471 O   0  0  0  0  0  0  0  0  0  0  0  0
   20.8220  -16.7757  -15.0540 C   0  0  2  0  0  0  0  0  0  0  0  0
   22.5282  -17.1368  -16.7094 N   0  0  0  0  0  0  0  0  0  0  0  0
   23.5471  -17.3029  -15.6853 C   0  0  0  0  0  0  0  0  0  0  0  0
   22.4604  -15.7120  -17.1148 O   0  0  0  0  0  0  0  0  0  0  0  0
   23.1464  -14.8701  -16.5114 O   0  0  0  0  0  0  0  0  0  0  0  0
  2  3  2  0
  2  1  1  0
  4  2  1  0
  5  4  1  0
  6  5  1  0
  7  6  1  0
  8  7  1  0
  8 10  1  0
  8  9  1  1
 10 17  1  0
 11 10  2  0
 12 13  1  0
 13 14  1  0
 14 15  1  6
 16 14  1  0
 16 18  1  0
 16 17  1  1
 18 19  2  0
 18 24  1  0
 21 22  1  0
 21 20  1  6
 23 21  1  0
 23 24  1  6
 25 23  1  0
 25 27  1  0
 26 25  2  0
M  END
$$$$
