RIT.pdb
     RDKit          3D

 27 26  0  0  1  0  0  0  0  0999 V2000
   19.1917  -24.7114   -9.3140 N   0  0  0  0  0  0  0  0  0  0  0  0
   18.0952  -24.5915  -10.2432 C   0  0  0  0  0  0  0  0  0  0  0  0
   16.9754  -25.1890  -10.0162 N   0  0  0  0  0  0  0  0  0  0  0  0
   18.2195  -23.8160  -11.4231 N   0  0  0  0  0  0  0  0  0  0  0  0
   19.4740  -23.2570  -11.8725 C   0  0  0  0  0  0  0  0  0  0  0  0
   19.2901  -22.5144  -13.1688 C   0  0  0  0  0  0  0  0  0  0  0  0
   19.2786  -21.0151  -12.9738 C   0  0  0  0  0  0  0  0  0  0  0  0
   19.0755  -20.4315  -14.3786 C   0  0  2  0  0  0  0  0  0  0  0  0
   18.1127  -21.2838  -15.0280 N   0  0  0  0  0  0  0  0  0  0  0  0
   20.4008  -20.4766  -15.0471 C   0  0  0  0  0  0  0  0  0  0  0  0
   20.7445  -21.5014  -15.7069 O   0  0  0  0  0  0  0  0  0  0  0  0
   16.1982  -25.1567  -10.7040 C   0  0  0  0  0  0  0  0  0  0  0  0
   21.8074  -17.8566  -17.9869 C   0  0  0  0  0  0  0  0  0  0  0  0
   21.9357  -17.1017  -16.7060 C   0  0  1  0  0  0  0  0  0  0  0  0
   22.9132  -17.8092  -15.7414 C   0  0  0  0  0  0  0  0  0  0  0  0
   24.3041  -17.6060  -16.2909 C   0  0  2  0  0  0  0  0  0  0  0  0
   22.4853  -19.2591  -15.7109 N   0  0  0  0  0  0  0  0  0  0  0  0
   21.2444  -19.3617  -14.9223 C   0  0  0  0  0  0  0  0  0  0  0  0
   23.4834  -20.2124  -15.2437 O   0  0  0  0  0  0  0  0  0  0  0  0
   23.9338  -19.9912  -14.0498 C   0  0  0  0  0  0  0  0  0  0  0  0
   23.6493  -23.9580  -14.2745 C   0  0  2  0  0  0  0  0  0  0  0  0
   24.5782  -23.6072  -15.3861 O   0  0  0  0  0  0  0  0  0  0  0  0
   24.1206  -23.9774  -16.6415 C   0  0  2  0  0  0  0  0  0  0  0  0
   25.0199  -22.1499  -15.3635 N   0  0  0  0  0  0  0  0  0  0  0  0
   23.9829  -21.3228  -15.9596 C   0  0  0  0  0  0  0  0  0  0  0  0
   26.2715  -22.0175  -16.1477 O   0  0  0  0  0  0  0  0  0  0  0  0
   26.2739  -21.3373  -17.1874 O   0  0  0  0  0  0  0  0  0  0  0  0
  2  3  2  0
  2  1  1  0
  4  2  1  0
  5  4  1  0
  6  5  1  0
  7  6  1  0
  8  7  1  0
  8 10  1  0
  8  9  1  6
 10 17  1  0
 11 10  2  0
 12 13  1  0
 13 14  1  0
 14 15  1  6
 16 14  1  0
 16 18  1  0
 16 17  1  6
 18 19  2  0
 18 24  1  0
 21 22  1  0
 21 20  1  1
 23 21  1  0
 23 24  1  1
 25 23  1  0
 25 27  1  0
 26 25  2  0
M  END
$$$$
