RIT.pdb
     RDKit          3D

 27 26  0  0  1  0  0  0  0  0999 V2000
   28.2317  -19.0870  -19.0179 N   0  0  0  0  0  0  0  0  0  0  0  0
   28.6170  -17.7598  -18.6054 C   0  0  0  0  0  0  0  0  0  0  0  0
   29.2813  -16.9931  -19.4011 N   0  0  0  0  0  0  0  0  0  0  0  0
   28.2753  -17.2663  -17.3214 N   0  0  0  0  0  0  0  0  0  0  0  0
   27.8425  -18.1180  -16.2371 C   0  0  0  0  0  0  0  0  0  0  0  0
   27.2660  -19.4027  -16.7688 C   0  0  0  0  0  0  0  0  0  0  0  0
   26.2285  -19.9928  -15.8407 C   0  0  0  0  0  0  0  0  0  0  0  0
   27.0245  -20.8439  -14.8420 C   0  0  2  0  0  0  0  0  0  0  0  0
   27.6150  -21.9100  -15.6101 N   0  0  0  0  0  0  0  0  0  0  0  0
   26.0444  -21.3497  -13.8475 C   0  0  0  0  0  0  0  0  0  0  0  0
   25.2858  -22.3204  -14.1407 O   0  0  0  0  0  0  0  0  0  0  0  0
   29.6325  -16.0672  -19.0889 C   0  0  0  0  0  0  0  0  0  0  0  0
   27.0655  -20.6003   -8.6229 C   0  0  0  0  0  0  0  0  0  0  0  0
   26.5238  -21.1498   -9.9003 C   0  0  2  0  0  0  0  0  0  0  0  0
   25.2289  -20.4157  -10.3140 C   0  0  0  0  0  0  0  0  0  0  0  0
   24.1958  -20.7057   -9.2527 C   0  0  2  0  0  0  0  0  0  0  0  0
   24.8617  -20.9626  -11.6750 N   0  0  0  0  0  0  0  0  0  0  0  0
   25.9897  -20.7228  -12.5928 C   0  0  0  0  0  0  0  0  0  0  0  0
   23.6109  -20.4784  -12.2444 O   0  0  0  0  0  0  0  0  0  0  0  0
   23.5534  -19.1976  -12.4276 C   0  0  0  0  0  0  0  0  0  0  0  0
   21.1269  -22.6950  -14.6198 C   0  0  2  0  0  0  0  0  0  0  0  0
   21.1004  -21.2049  -14.5934 O   0  0  0  0  0  0  0  0  0  0  0  0
   19.9795  -20.6501  -15.1919 C   0  0  1  0  0  0  0  0  0  0  0  0
   21.3339  -20.6238  -13.2052 N   0  0  0  0  0  0  0  0  0  0  0  0
   22.4931  -21.2635  -12.6038 C   0  0  0  0  0  0  0  0  0  0  0  0
   20.1358  -20.8834  -12.3707 O   0  0  0  0  0  0  0  0  0  0  0  0
   19.0546  -20.3488  -12.6682 O   0  0  0  0  0  0  0  0  0  0  0  0
  2  3  2  0
  2  1  1  0
  4  2  1  0
  5  4  1  0
  6  5  1  0
  7  6  1  0
  8  7  1  0
  8 10  1  0
  8  9  1  6
 10 17  1  0
 11 10  2  0
 12 13  1  0
 13 14  1  0
 14 15  1  6
 16 14  1  0
 16 18  1  0
 16 17  1  6
 18 19  2  0
 18 24  1  0
 21 22  1  0
 21 20  1  6
 23 21  1  0
 23 24  1  6
 25 23  1  0
 25 27  1  0
 26 25  2  0
M  END
$$$$
