RIT.pdb
     RDKit          3D

 27 26  0  0  1  0  0  0  0  0999 V2000
   18.9583  -18.4589  -16.1904 N   0  0  0  0  0  0  0  0  0  0  0  0
   17.6446  -18.0218  -15.7865 C   0  0  0  0  0  0  0  0  0  0  0  0
   16.6877  -18.8730  -15.6370 N   0  0  0  0  0  0  0  0  0  0  0  0
   17.3736  -16.6520  -15.5430 N   0  0  0  0  0  0  0  0  0  0  0  0
   18.2175  -15.5821  -16.0239 C   0  0  0  0  0  0  0  0  0  0  0  0
   17.6222  -14.2423  -15.6831 C   0  0  0  0  0  0  0  0  0  0  0  0
   18.4465  -13.0951  -16.2221 C   0  0  0  0  0  0  0  0  0  0  0  0
   17.5097  -12.3456  -17.1792 C   0  0  2  0  0  0  0  0  0  0  0  0
   17.6543  -12.9873  -18.4608 N   0  0  0  0  0  0  0  0  0  0  0  0
   17.9768  -10.9363  -17.2052 C   0  0  0  0  0  0  0  0  0  0  0  0
   19.0596  -10.6369  -17.7897 O   0  0  0  0  0  0  0  0  0  0  0  0
   15.7314  -18.5677  -15.3718 C   0  0  0  0  0  0  0  0  0  0  0  0
   14.0968   -8.3059  -17.3063 C   0  0  0  0  0  0  0  0  0  0  0  0
   15.4788   -7.8479  -17.6339 C   0  0  2  0  0  0  0  0  0  0  0  0
   16.3340   -7.7088  -16.3548 C   0  0  0  0  0  0  0  0  0  0  0  0
   16.6259   -6.2392  -16.1736 C   0  0  2  0  0  0  0  0  0  0  0  0
   17.5726   -8.5422  -16.5942 N   0  0  0  0  0  0  0  0  0  0  0  0
   17.1886   -9.9649  -16.5685 C   0  0  0  0  0  0  0  0  0  0  0  0
   18.6986   -8.2873  -15.7051 O   0  0  0  0  0  0  0  0  0  0  0  0
   18.4774   -8.5448  -14.4554 C   0  0  0  0  0  0  0  0  0  0  0  0
   22.6971   -8.0434  -16.8353 C   0  0  2  0  0  0  0  0  0  0  0  0
   22.2570   -8.3096  -15.4363 O   0  0  0  0  0  0  0  0  0  0  0  0
   23.2499   -8.1203  -14.4871 C   0  0  1  0  0  0  0  0  0  0  0  0
   20.9789   -7.5732  -15.0575 N   0  0  0  0  0  0  0  0  0  0  0  0
   19.9705   -7.8008  -16.0803 C   0  0  0  0  0  0  0  0  0  0  0  0
   21.2725   -6.1226  -14.9650 O   0  0  0  0  0  0  0  0  0  0  0  0
   22.0511   -5.7097  -14.0894 O   0  0  0  0  0  0  0  0  0  0  0  0
  2  3  2  0
  2  1  1  0
  4  2  1  0
  5  4  1  0
  6  5  1  0
  7  6  1  0
  8  7  1  0
  8 10  1  0
  8  9  1  6
 10 17  1  0
 11 10  2  0
 12 13  1  0
 13 14  1  0
 14 15  1  1
 16 14  1  0
 16 18  1  0
 16 17  1  6
 18 19  2  0
 18 24  1  0
 21 22  1  0
 21 20  1  6
 23 21  1  0
 23 24  1  6
 25 23  1  0
 25 27  1  0
 26 25  2  0
M  END
$$$$
