RIT.pdb
     RDKit          3D

 27 26  0  0  1  0  0  0  0  0999 V2000
   19.4264  -14.2973  -25.0219 N   0  0  0  0  0  0  0  0  0  0  0  0
   19.8486  -13.3110  -24.0582 C   0  0  0  0  0  0  0  0  0  0  0  0
   19.4622  -12.0853  -24.1624 N   0  0  0  0  0  0  0  0  0  0  0  0
   20.6939  -13.6626  -22.9762 N   0  0  0  0  0  0  0  0  0  0  0  0
   21.1026  -12.7245  -21.9557 C   0  0  0  0  0  0  0  0  0  0  0  0
   22.0421  -13.3789  -20.9787 C   0  0  0  0  0  0  0  0  0  0  0  0
   22.5048  -12.4243  -19.9014 C   0  0  0  0  0  0  0  0  0  0  0  0
   23.5592  -13.2035  -19.1035 C   0  0  2  0  0  0  0  0  0  0  0  0
   23.0469  -14.5433  -18.9703 N   0  0  0  0  0  0  0  0  0  0  0  0
   23.6815  -12.5200  -17.7909 C   0  0  0  0  0  0  0  0  0  0  0  0
   22.8468  -12.7608  -16.8695 O   0  0  0  0  0  0  0  0  0  0  0  0
   19.7570  -11.3668  -23.4732 C   0  0  0  0  0  0  0  0  0  0  0  0
   28.3408  -12.3006  -15.6389 C   0  0  0  0  0  0  0  0  0  0  0  0
   26.8681  -12.2516  -15.8752 C   0  0  2  0  0  0  0  0  0  0  0  0
   26.3803  -10.7942  -16.0320 C   0  0  0  0  0  0  0  0  0  0  0  0
   26.6790  -10.0841  -14.7342 C   0  0  2  0  0  0  0  0  0  0  0  0
   24.9030  -10.8848  -16.3410 N   0  0  0  0  0  0  0  0  0  0  0  0
   24.7371  -11.6123  -17.6120 C   0  0  0  0  0  0  0  0  0  0  0  0
   24.1736   -9.6235  -16.3602 O   0  0  0  0  0  0  0  0  0  0  0  0
   24.7888   -8.6451  -16.9445 C   0  0  0  0  0  0  0  0  0  0  0  0
   21.3008   -8.4164  -18.2178 C   0  0  2  0  0  0  0  0  0  0  0  0
   21.0315   -8.1554  -16.7752 O   0  0  0  0  0  0  0  0  0  0  0  0
   20.1083   -9.0207  -16.2083 C   0  0  2  0  0  0  0  0  0  0  0  0
   22.2978   -8.0651  -15.9338 N   0  0  0  0  0  0  0  0  0  0  0  0
   22.8923   -9.3869  -15.8148 C   0  0  0  0  0  0  0  0  0  0  0  0
   21.9412   -7.5587  -14.5864 O   0  0  0  0  0  0  0  0  0  0  0  0
   21.5840   -6.3766  -14.4510 O   0  0  0  0  0  0  0  0  0  0  0  0
  2  3  2  0
  2  1  1  0
  4  2  1  0
  5  4  1  0
  6  5  1  0
  7  6  1  0
  8  7  1  0
  8 10  1  0
  8  9  1  1
 10 17  1  0
 11 10  2  0
 12 13  1  0
 13 14  1  0
 14 15  1  6
 16 14  1  0
 16 18  1  0
 16 17  1  1
 18 19  2  0
 18 24  1  0
 21 22  1  0
 21 20  1  6
 23 21  1  0
 23 24  1  1
 25 23  1  0
 25 27  1  0
 26 25  2  0
M  END
$$$$
