RIT.pdb
     RDKit          3D

 27 26  0  0  1  0  0  0  0  0999 V2000
   32.0341  -22.8315  -13.7071 N   0  0  0  0  0  0  0  0  0  0  0  0
   32.0115  -21.9469  -12.5682 C   0  0  0  0  0  0  0  0  0  0  0  0
   33.0405  -21.8433  -11.7982 N   0  0  0  0  0  0  0  0  0  0  0  0
   30.8636  -21.1713  -12.2687 N   0  0  0  0  0  0  0  0  0  0  0  0
   30.4143  -20.0737  -13.0944 C   0  0  0  0  0  0  0  0  0  0  0  0
   29.8311  -20.5842  -14.3847 C   0  0  0  0  0  0  0  0  0  0  0  0
   28.3197  -20.6132  -14.3587 C   0  0  0  0  0  0  0  0  0  0  0  0
   27.9568  -21.9827  -13.7687 C   0  0  2  0  0  0  0  0  0  0  0  0
   28.1394  -22.9355  -14.8336 N   0  0  0  0  0  0  0  0  0  0  0  0
   26.5383  -21.8916  -13.3389 C   0  0  0  0  0  0  0  0  0  0  0  0
   25.6363  -22.4913  -13.9951 O   0  0  0  0  0  0  0  0  0  0  0  0
   33.0120  -21.2668  -10.9351 C   0  0  0  0  0  0  0  0  0  0  0  0
   26.5593  -20.3321   -8.4884 C   0  0  0  0  0  0  0  0  0  0  0  0
   25.7887  -21.1892   -9.4365 C   0  0  2  0  0  0  0  0  0  0  0  0
   24.8891  -20.3307  -10.3533 C   0  0  0  0  0  0  0  0  0  0  0  0
   23.5361  -20.2421   -9.6906 C   0  0  2  0  0  0  0  0  0  0  0  0
   24.8596  -21.0435  -11.6864 N   0  0  0  0  0  0  0  0  0  0  0  0
   26.2387  -21.1292  -12.1991 C   0  0  0  0  0  0  0  0  0  0  0  0
   23.9610  -20.4884  -12.6903 O   0  0  0  0  0  0  0  0  0  0  0  0
   24.3058  -19.3282  -13.1508 C   0  0  0  0  0  0  0  0  0  0  0  0
   21.9671  -22.4646  -15.5480 C   0  0  2  0  0  0  0  0  0  0  0  0
   22.1514  -20.9856  -15.5317 O   0  0  0  0  0  0  0  0  0  0  0  0
   21.4060  -20.3138  -16.4884 C   0  0  1  0  0  0  0  0  0  0  0  0
   21.9652  -20.3716  -14.1505 N   0  0  0  0  0  0  0  0  0  0  0  0
   22.7849  -21.0913  -13.1888 C   0  0  0  0  0  0  0  0  0  0  0  0
   20.5372  -20.4832  -13.7664 O   0  0  0  0  0  0  0  0  0  0  0  0
   20.2212  -21.1573  -12.7719 O   0  0  0  0  0  0  0  0  0  0  0  0
  2  3  2  0
  2  1  1  0
  4  2  1  0
  5  4  1  0
  6  5  1  0
  7  6  1  0
  8  7  1  0
  8 10  1  0
  8  9  1  6
 10 17  1  0
 11 10  2  0
 12 13  1  0
 13 14  1  0
 14 15  1  6
 16 14  1  0
 16 18  1  0
 16 17  1  6
 18 19  2  0
 18 24  1  0
 21 22  1  0
 21 20  1  6
 23 21  1  0
 23 24  1  6
 25 23  1  0
 25 27  1  0
 26 25  2  0
M  END
$$$$
