RIT.pdb
     RDKit          3D

 27 26  0  0  1  0  0  0  0  0999 V2000
   23.2776  -21.3746   -9.3747 N   0  0  0  0  0  0  0  0  0  0  0  0
   24.5763  -21.0929   -8.8143 C   0  0  0  0  0  0  0  0  0  0  0  0
   24.7487  -21.0737   -7.5367 N   0  0  0  0  0  0  0  0  0  0  0  0
   25.6913  -20.8329   -9.6499 N   0  0  0  0  0  0  0  0  0  0  0  0
   25.6091  -20.0338  -10.8511 C   0  0  0  0  0  0  0  0  0  0  0  0
   26.9585  -19.9237  -11.5089 C   0  0  0  0  0  0  0  0  0  0  0  0
   26.9948  -20.6026  -12.8593 C   0  0  0  0  0  0  0  0  0  0  0  0
   25.5286  -20.9130  -13.1896 C   0  0  2  0  0  0  0  0  0  0  0  0
   25.4296  -22.3489  -13.2487 N   0  0  0  0  0  0  0  0  0  0  0  0
   25.2519  -20.2803  -14.5043 C   0  0  0  0  0  0  0  0  0  0  0  0
   25.9033  -20.6367  -15.5301 O   0  0  0  0  0  0  0  0  0  0  0  0
   25.6586  -20.7974   -7.1197 C   0  0  0  0  0  0  0  0  0  0  0  0
   20.4447  -17.4648  -14.7411 C   0  0  0  0  0  0  0  0  0  0  0  0
   21.9236  -17.6609  -14.7795 C   0  0  2  0  0  0  0  0  0  0  0  0
   22.3202  -18.6709  -15.8793 C   0  0  0  0  0  0  0  0  0  0  0  0
   21.6659  -19.9856  -15.5313 C   0  0  1  0  0  0  0  0  0  0  0  0
   23.8310  -18.7283  -15.8610 N   0  0  0  0  0  0  0  0  0  0  0  0
   24.2598  -19.2892  -14.5673 C   0  0  0  0  0  0  0  0  0  0  0  0
   24.5235  -17.4782  -16.1454 O   0  0  0  0  0  0  0  0  0  0  0  0
   24.5008  -16.6099  -15.1849 C   0  0  0  0  0  0  0  0  0  0  0  0
   28.0785  -16.4052  -16.5073 C   0  0  2  0  0  0  0  0  0  0  0  0
   27.3138  -16.0164  -17.7263 O   0  0  0  0  0  0  0  0  0  0  0  0
   27.5448  -16.8344  -18.8217 C   0  0  2  0  0  0  0  0  0  0  0  0
   25.8230  -15.8392  -17.4699 N   0  0  0  0  0  0  0  0  0  0  0  0
   25.1977  -17.1458  -17.3413 C   0  0  0  0  0  0  0  0  0  0  0  0
   25.2239  -15.1134  -18.6158 O   0  0  0  0  0  0  0  0  0  0  0  0
   24.3545  -15.6704  -19.3068 O   0  0  0  0  0  0  0  0  0  0  0  0
  2  3  2  0
  2  1  1  0
  4  2  1  0
  5  4  1  0
  6  5  1  0
  7  6  1  0
  8  7  1  0
  8 10  1  0
  8  9  1  6
 10 17  1  0
 11 10  2  0
 12 13  1  0
 13 14  1  0
 14 15  1  6
 16 14  1  0
 16 18  1  0
 16 17  1  1
 18 19  2  0
 18 24  1  0
 21 22  1  0
 21 20  1  6
 23 21  1  0
 23 24  1  6
 25 23  1  0
 25 27  1  0
 26 25  2  0
M  END
$$$$
