RIT.pdb
     RDKit          3D

 27 26  0  0  1  0  0  0  0  0999 V2000
   16.8444  -24.4514  -11.5455 N   0  0  0  0  0  0  0  0  0  0  0  0
   17.1754  -24.7805  -12.9101 C   0  0  0  0  0  0  0  0  0  0  0  0
   16.3580  -25.4635  -13.6364 N   0  0  0  0  0  0  0  0  0  0  0  0
   18.4014  -24.3620  -13.4852 N   0  0  0  0  0  0  0  0  0  0  0  0
   19.3083  -23.4457  -12.8323 C   0  0  0  0  0  0  0  0  0  0  0  0
   18.8411  -22.0250  -13.0024 C   0  0  0  0  0  0  0  0  0  0  0  0
   19.9710  -21.0904  -13.3710 C   0  0  0  0  0  0  0  0  0  0  0  0
   21.0904  -21.4026  -12.3685 C   0  0  2  0  0  0  0  0  0  0  0  0
   20.5447  -21.1261  -11.0643 N   0  0  0  0  0  0  0  0  0  0  0  0
   22.2186  -20.4974  -12.7044 C   0  0  0  0  0  0  0  0  0  0  0  0
   22.0752  -19.2426  -12.6115 O   0  0  0  0  0  0  0  0  0  0  0  0
   16.5916  -25.7196  -14.6152 C   0  0  0  0  0  0  0  0  0  0  0  0
   27.2687  -22.4717  -11.9049 C   0  0  0  0  0  0  0  0  0  0  0  0
   26.1212  -22.0365  -12.7540 C   0  0  2  0  0  0  0  0  0  0  0  0
   25.6927  -20.5929  -12.4088 C   0  0  0  0  0  0  0  0  0  0  0  0
   25.2155  -20.6019  -10.9771 C   0  0  1  0  0  0  0  0  0  0  0  0
   24.6091  -20.2359  -13.4010 N   0  0  0  0  0  0  0  0  0  0  0  0
   23.4286  -21.0732  -13.1223 C   0  0  0  0  0  0  0  0  0  0  0  0
   24.9803  -20.3056  -14.8084 O   0  0  0  0  0  0  0  0  0  0  0  0
   25.0546  -21.5032  -15.2955 C   0  0  0  0  0  0  0  0  0  0  0  0
   23.3830  -19.4180  -18.1431 C   0  0  2  0  0  0  0  0  0  0  0  0
   24.6903  -18.7232  -17.9706 O   0  0  0  0  0  0  0  0  0  0  0  0
   24.5767  -17.3852  -17.6251 C   0  0  2  0  0  0  0  0  0  0  0  0
   25.6437  -19.4586  -17.0381 N   0  0  0  0  0  0  0  0  0  0  0  0
   25.2547  -19.2117  -15.6588 C   0  0  0  0  0  0  0  0  0  0  0  0
   27.0189  -18.9517  -17.2637 O   0  0  0  0  0  0  0  0  0  0  0  0
   27.5751  -18.2761  -16.3819 O   0  0  0  0  0  0  0  0  0  0  0  0
  2  3  2  0
  2  1  1  0
  4  2  1  0
  5  4  1  0
  6  5  1  0
  7  6  1  0
  8  7  1  0
  8 10  1  0
  8  9  1  1
 10 17  1  0
 11 10  2  0
 12 13  1  0
 13 14  1  0
 14 15  1  6
 16 14  1  0
 16 18  1  0
 16 17  1  1
 18 19  2  0
 18 24  1  0
 21 22  1  0
 21 20  1  6
 23 21  1  0
 23 24  1  6
 25 23  1  0
 25 27  1  0
 26 25  2  0
M  END
$$$$
