MAR.pdb
     RDKit          3D

 25 24  0  0  1  0  0  0  0  0999 V2000
    7.2954  -16.0967   15.9395 C   0  0  0  0  0  0  0  0  0  0  0  0
    7.6389  -16.2279   17.7094 S   0  0  0  0  0  0  0  0  0  0  0  0
    7.6060  -14.6021   18.4617 C   0  0  0  0  0  0  0  0  0  0  0  0
    7.7696  -14.6704   19.9779 C   0  0  0  0  0  0  0  0  0  0  0  0
    7.6051  -13.2600   20.5421 C   0  0  2  0  0  0  0  0  0  0  0  0
    8.4328  -12.3168   19.8205 N   0  0  0  0  0  0  0  0  0  0  0  0
    7.9284  -13.1918   21.9701 C   0  0  0  0  0  0  0  0  0  0  0  0
    9.1291  -12.8619   22.2631 O   0  0  0  0  0  0  0  0  0  0  0  0
    6.1306  -13.2780   25.2229 C   0  0  0  0  0  0  0  0  0  0  0  0
    7.4437  -13.4283   24.4433 C   0  0  2  0  0  0  0  0  0  0  0  0
    7.0623  -13.4500   23.0457 N   0  0  0  0  0  0  0  0  0  0  0  0
    8.1075  -14.7098   24.7721 C   0  0  0  0  0  0  0  0  0  0  0  0
    8.5438  -14.9024   25.9120 O   0  0  0  0  0  0  0  0  0  0  0  0
   14.2680  -17.1482   22.4120 N   0  0  0  0  0  0  0  0  0  0  0  0
   14.2720  -18.5201   22.7886 C   0  0  0  0  0  0  0  0  0  0  0  0
   15.3331  -19.0938   23.2443 N   0  0  0  0  0  0  0  0  0  0  0  0
   13.0758  -19.2719   22.6587 N   0  0  0  0  0  0  0  0  0  0  0  0
   11.8768  -18.5856   22.2441 C   0  0  0  0  0  0  0  0  0  0  0  0
   10.8520  -18.4672   23.3658 C   0  0  0  0  0  0  0  0  0  0  0  0
   10.0556  -17.2206   23.0969 C   0  0  0  0  0  0  0  0  0  0  0  0
    8.9590  -16.9739   24.0864 C   0  0  2  0  0  0  0  0  0  0  0  0
    8.2592  -15.7501   23.7845 N   0  0  0  0  0  0  0  0  0  0  0  0
    9.3746  -17.0081   25.4826 C   0  0  0  0  0  0  0  0  0  0  0  0
    8.9485  -17.9386   26.2154 O   0  0  0  0  0  0  0  0  0  0  0  0
   10.2120  -16.0925   26.0895 O   0  0  0  0  0  0  0  0  0  0  0  0
  2  1  1  0
  2  3  1  0
  4  3  1  0
  4  5  1  0
  5  6  1  6
  7  5  1  0
  7  8  2  0
 10  9  1  1
 10 11  1  0
 10 12  1  0
 11  7  1  0
 12 22  1  0
 13 12  2  0
 14 15  1  0
 15 16  2  0
 17 15  1  0
 17 18  1  0
 19 18  1  0
 20 19  1  0
 21 23  1  0
 21 20  1  6
 22 21  1  0
 23 24  2  0
 23 25  1  0
M  END
$$$$
