MAR.pdb
     RDKit          3D

 25 24  0  0  1  0  0  0  0  0999 V2000
    7.4460  -12.1445   21.2824 C   0  0  0  0  0  0  0  0  0  0  0  0
    6.7733  -12.3151   19.6131 S   0  0  0  0  0  0  0  0  0  0  0  0
    7.0418  -13.9816   19.0121 C   0  0  0  0  0  0  0  0  0  0  0  0
    8.0520  -14.7418   19.8675 C   0  0  0  0  0  0  0  0  0  0  0  0
    8.2552  -16.1259   19.2531 C   0  0  2  0  0  0  0  0  0  0  0  0
    7.0517  -16.9221   19.3675 N   0  0  0  0  0  0  0  0  0  0  0  0
    9.3721  -16.8484   19.8688 C   0  0  0  0  0  0  0  0  0  0  0  0
    9.1182  -17.4515   20.9679 O   0  0  0  0  0  0  0  0  0  0  0  0
   12.9420  -17.6131   19.0584 C   0  0  0  0  0  0  0  0  0  0  0  0
   11.7704  -17.6379   20.0490 C   0  0  2  0  0  0  0  0  0  0  0  0
   10.6858  -16.9472   19.3811 N   0  0  0  0  0  0  0  0  0  0  0  0
   12.1108  -16.8993   21.2856 C   0  0  0  0  0  0  0  0  0  0  0  0
   12.2249  -15.6693   21.2564 O   0  0  0  0  0  0  0  0  0  0  0  0
    8.3822  -18.9882   28.1794 N   0  0  0  0  0  0  0  0  0  0  0  0
    7.6869  -18.7728   26.9570 C   0  0  0  0  0  0  0  0  0  0  0  0
    6.4505  -19.1094   26.8132 N   0  0  0  0  0  0  0  0  0  0  0  0
    8.3750  -18.1712   25.8719 N   0  0  0  0  0  0  0  0  0  0  0  0
    9.8147  -18.1031   25.9266 C   0  0  0  0  0  0  0  0  0  0  0  0
   10.4170  -17.4375   24.6951 C   0  0  0  0  0  0  0  0  0  0  0  0
   11.9033  -17.3819   24.9142 C   0  0  0  0  0  0  0  0  0  0  0  0
   12.6734  -16.8711   23.7360 C   0  0  2  0  0  0  0  0  0  0  0  0
   12.3147  -17.5870   22.5371 N   0  0  0  0  0  0  0  0  0  0  0  0
   14.1193  -16.8421   23.9151 C   0  0  0  0  0  0  0  0  0  0  0  0
   14.5975  -16.1379   24.8425 O   0  0  0  0  0  0  0  0  0  0  0  0
   15.0338  -17.5317   23.1432 O   0  0  0  0  0  0  0  0  0  0  0  0
  2  1  1  0
  2  3  1  0
  4  3  1  0
  4  5  1  0
  5  6  1  1
  7  5  1  0
  7  8  2  0
 10  9  1  6
 10 11  1  0
 10 12  1  0
 11  7  1  0
 12 22  1  0
 13 12  2  0
 14 15  1  0
 15 16  2  0
 17 15  1  0
 17 18  1  0
 19 18  1  0
 20 19  1  0
 21 23  1  0
 21 20  1  1
 22 21  1  0
 23 24  2  0
 23 25  1  0
M  END
$$$$
