MAR.pdb
     RDKit          3D

 25 24  0  0  1  0  0  0  0  0999 V2000
    6.7669  -17.3331   17.8901 C   0  0  0  0  0  0  0  0  0  0  0  0
    7.5257  -16.0630   16.8512 S   0  0  0  0  0  0  0  0  0  0  0  0
    7.6646  -14.5277   17.7642 C   0  0  0  0  0  0  0  0  0  0  0  0
    7.2335  -14.6873   19.2198 C   0  0  0  0  0  0  0  0  0  0  0  0
    7.3532  -13.3280   19.9072 C   0  0  2  0  0  0  0  0  0  0  0  0
    8.1743  -12.4266   19.1269 N   0  0  0  0  0  0  0  0  0  0  0  0
    7.9072  -13.4365   21.2599 C   0  0  0  0  0  0  0  0  0  0  0  0
    9.1739  -13.5955   21.3413 O   0  0  0  0  0  0  0  0  0  0  0  0
    6.6166  -13.4198   24.7729 C   0  0  0  0  0  0  0  0  0  0  0  0
    7.7615  -13.6519   23.7779 C   0  0  2  0  0  0  0  0  0  0  0  0
    7.1965  -13.3848   22.4706 N   0  0  0  0  0  0  0  0  0  0  0  0
    8.2163  -15.0598   23.8176 C   0  0  0  0  0  0  0  0  0  0  0  0
    7.5388  -15.9411   23.2780 O   0  0  0  0  0  0  0  0  0  0  0  0
   13.3363  -15.7400   19.1641 N   0  0  0  0  0  0  0  0  0  0  0  0
   14.1306  -15.3042   20.2610 C   0  0  0  0  0  0  0  0  0  0  0  0
   15.2768  -14.7402   20.0848 N   0  0  0  0  0  0  0  0  0  0  0  0
   13.6451  -15.4962   21.5802 N   0  0  0  0  0  0  0  0  0  0  0  0
   12.3703  -16.1483   21.7530 C   0  0  0  0  0  0  0  0  0  0  0  0
   12.0540  -16.4383   23.2153 C   0  0  0  0  0  0  0  0  0  0  0  0
   10.7016  -17.0944   23.2456 C   0  0  0  0  0  0  0  0  0  0  0  0
    9.9086  -16.7971   24.4806 C   0  0  2  0  0  0  0  0  0  0  0  0
    9.4436  -15.4325   24.4775 N   0  0  0  0  0  0  0  0  0  0  0  0
   10.5816  -17.1177   25.7326 C   0  0  0  0  0  0  0  0  0  0  0  0
   10.7455  -16.2016   26.5802 O   0  0  0  0  0  0  0  0  0  0  0  0
   11.0671  -18.3625   26.0827 O   0  0  0  0  0  0  0  0  0  0  0  0
  2  1  1  0
  2  3  1  0
  4  3  1  0
  4  5  1  0
  5  6  1  6
  7  5  1  0
  7  8  2  0
 10  9  1  1
 10 11  1  0
 10 12  1  0
 11  7  1  0
 12 22  1  0
 13 12  2  0
 14 15  1  0
 15 16  2  0
 17 15  1  0
 17 18  1  0
 19 18  1  0
 20 19  1  0
 21 23  1  0
 21 20  1  6
 22 21  1  0
 23 24  2  0
 23 25  1  0
M  END
$$$$
