MAR.pdb
     RDKit          3D

 25 24  0  0  1  0  0  0  0  0999 V2000
    7.0420  -11.7823   20.4593 C   0  0  0  0  0  0  0  0  0  0  0  0
    7.5118  -12.5784   18.9058 S   0  0  0  0  0  0  0  0  0  0  0  0
    8.7844  -13.8034   19.2059 C   0  0  0  0  0  0  0  0  0  0  0  0
    8.4451  -14.7010   20.3931 C   0  0  0  0  0  0  0  0  0  0  0  0
    9.6939  -15.5002   20.7624 C   0  0  2  0  0  0  0  0  0  0  0  0
   10.2595  -16.1410   19.5941 N   0  0  0  0  0  0  0  0  0  0  0  0
    9.4219  -16.5145   21.7850 C   0  0  0  0  0  0  0  0  0  0  0  0
    8.7895  -16.1159   22.8229 O   0  0  0  0  0  0  0  0  0  0  0  0
   10.0804  -20.1649   22.2842 C   0  0  0  0  0  0  0  0  0  0  0  0
    9.5180  -18.8326   22.7972 C   0  0  2  0  0  0  0  0  0  0  0  0
    9.7816  -17.8720   21.7451 N   0  0  0  0  0  0  0  0  0  0  0  0
   10.2267  -18.3987   24.0221 C   0  0  0  0  0  0  0  0  0  0  0  0
   11.3584  -17.9099   23.9381 O   0  0  0  0  0  0  0  0  0  0  0  0
    6.5883  -15.3390   25.8894 N   0  0  0  0  0  0  0  0  0  0  0  0
    7.1804  -14.0945   25.5362 C   0  0  0  0  0  0  0  0  0  0  0  0
    6.6657  -13.3323   24.6325 N   0  0  0  0  0  0  0  0  0  0  0  0
    8.3666  -13.6854   26.1984 N   0  0  0  0  0  0  0  0  0  0  0  0
    9.0421  -14.6379   27.0449 C   0  0  0  0  0  0  0  0  0  0  0  0
    9.6997  -15.7621   26.2536 C   0  0  0  0  0  0  0  0  0  0  0  0
    9.7505  -16.9601   27.1606 C   0  0  0  0  0  0  0  0  0  0  0  0
   10.3404  -18.1805   26.5243 C   0  0  2  0  0  0  0  0  0  0  0  0
    9.6225  -18.5337   25.3250 N   0  0  0  0  0  0  0  0  0  0  0  0
   10.4750  -19.3292   27.4107 C   0  0  0  0  0  0  0  0  0  0  0  0
    9.7737  -20.3499   27.1850 O   0  0  0  0  0  0  0  0  0  0  0  0
   11.3205  -19.4025   28.5005 O   0  0  0  0  0  0  0  0  0  0  0  0
  2  1  1  0
  2  3  1  0
  4  3  1  0
  4  5  1  0
  5  6  1  6
  7  5  1  0
  7  8  2  0
 10  9  1  6
 10 11  1  0
 10 12  1  0
 11  7  1  0
 12 22  1  0
 13 12  2  0
 14 15  1  0
 15 16  2  0
 17 15  1  0
 17 18  1  0
 19 18  1  0
 20 19  1  0
 21 23  1  0
 21 20  1  1
 22 21  1  0
 23 24  2  0
 23 25  1  0
M  END
$$$$
