MAR.pdb
     RDKit          3D

 25 24  0  0  1  0  0  0  0  0999 V2000
    8.7637  -11.4172   19.2057 C   0  0  0  0  0  0  0  0  0  0  0  0
    7.4991  -12.6106   19.7005 S   0  0  0  0  0  0  0  0  0  0  0  0
    8.2296  -14.2364   19.8831 C   0  0  0  0  0  0  0  0  0  0  0  0
    9.7327  -14.1623   20.1390 C   0  0  0  0  0  0  0  0  0  0  0  0
   10.2487  -15.5801   20.3797 C   0  0  2  0  0  0  0  0  0  0  0  0
    9.1537  -16.5257   20.4274 N   0  0  0  0  0  0  0  0  0  0  0  0
   11.0305  -15.6844   21.6152 C   0  0  0  0  0  0  0  0  0  0  0  0
   12.1601  -15.0842   21.6220 O   0  0  0  0  0  0  0  0  0  0  0  0
   10.5925  -17.1455   25.0300 C   0  0  0  0  0  0  0  0  0  0  0  0
   11.4673  -16.4241   23.9962 C   0  0  2  0  0  0  0  0  0  0  0  0
   10.6713  -16.3713   22.7868 N   0  0  0  0  0  0  0  0  0  0  0  0
   12.6991  -17.1964   23.7182 C   0  0  0  0  0  0  0  0  0  0  0  0
   12.6290  -18.2677   23.1066 O   0  0  0  0  0  0  0  0  0  0  0  0
   13.5177  -15.1032   18.3366 N   0  0  0  0  0  0  0  0  0  0  0  0
   14.8024  -14.4934   18.3818 C   0  0  0  0  0  0  0  0  0  0  0  0
   15.1046  -13.4948   17.6239 N   0  0  0  0  0  0  0  0  0  0  0  0
   15.7719  -14.9994   19.2855 N   0  0  0  0  0  0  0  0  0  0  0  0
   15.4646  -16.2046   20.0160 C   0  0  0  0  0  0  0  0  0  0  0  0
   15.6055  -16.0282   21.5231 C   0  0  0  0  0  0  0  0  0  0  0  0
   15.2182  -17.3377   22.1520 C   0  0  0  0  0  0  0  0  0  0  0  0
   15.2096  -17.3147   23.6493 C   0  0  2  0  0  0  0  0  0  0  0  0
   13.9926  -16.7243   24.1479 N   0  0  0  0  0  0  0  0  0  0  0  0
   16.3794  -16.6959   24.2591 C   0  0  0  0  0  0  0  0  0  0  0  0
   16.2202  -15.6523   24.9449 O   0  0  0  0  0  0  0  0  0  0  0  0
   17.6760  -17.1595   24.1513 O   0  0  0  0  0  0  0  0  0  0  0  0
  2  1  1  0
  2  3  1  0
  4  3  1  0
  4  5  1  0
  5  6  1  1
  7  5  1  0
  7  8  2  0
 10  9  1  1
 10 11  1  0
 10 12  1  0
 11  7  1  0
 12 22  1  0
 13 12  2  0
 14 15  1  0
 15 16  2  0
 17 15  1  0
 17 18  1  0
 19 18  1  0
 20 19  1  0
 21 23  1  0
 21 20  1  6
 22 21  1  0
 23 24  2  0
 23 25  1  0
M  END
$$$$
