MAR.pdb
     RDKit          3D

 25 24  0  0  1  0  0  0  0  0999 V2000
    6.3036  -19.6432   23.7833 C   0  0  0  0  0  0  0  0  0  0  0  0
    5.2151  -19.1244   22.4364 S   0  0  0  0  0  0  0  0  0  0  0  0
    5.6912  -17.4974   21.8564 C   0  0  0  0  0  0  0  0  0  0  0  0
    6.6315  -16.7952   22.8327 C   0  0  0  0  0  0  0  0  0  0  0  0
    6.8598  -15.3683   22.3363 C   0  0  2  0  0  0  0  0  0  0  0  0
    7.5738  -15.3690   21.0770 N   0  0  0  0  0  0  0  0  0  0  0  0
    7.5954  -14.5534   23.3075 C   0  0  0  0  0  0  0  0  0  0  0  0
    8.8663  -14.6980   23.3199 O   0  0  0  0  0  0  0  0  0  0  0  0
    6.8173  -11.9717   25.9001 C   0  0  0  0  0  0  0  0  0  0  0  0
    7.7985  -12.9707   25.2726 C   0  0  2  0  0  0  0  0  0  0  0  0
    7.0536  -13.6349   24.2221 N   0  0  0  0  0  0  0  0  0  0  0  0
    8.2239  -13.9842   26.2639 C   0  0  0  0  0  0  0  0  0  0  0  0
    7.4244  -14.8455   26.6456 O   0  0  0  0  0  0  0  0  0  0  0  0
   11.6772  -19.9298   26.3795 N   0  0  0  0  0  0  0  0  0  0  0  0
   11.8871  -19.1871   25.1844 C   0  0  0  0  0  0  0  0  0  0  0  0
   11.2174  -19.4307   24.1097 N   0  0  0  0  0  0  0  0  0  0  0  0
   12.8580  -18.1526   25.1797 N   0  0  0  0  0  0  0  0  0  0  0  0
   12.7524  -17.1093   26.1699 C   0  0  0  0  0  0  0  0  0  0  0  0
   11.3065  -16.7596   26.5007 C   0  0  0  0  0  0  0  0  0  0  0  0
   11.3436  -15.5310   27.3665 C   0  0  0  0  0  0  0  0  0  0  0  0
    9.9908  -15.0041   27.7334 C   0  0  2  0  0  0  0  0  0  0  0  0
    9.5627  -13.9914   26.8008 N   0  0  0  0  0  0  0  0  0  0  0  0
    9.8681  -14.5352   29.1076 C   0  0  0  0  0  0  0  0  0  0  0  0
    9.7357  -13.3004   29.3133 O   0  0  0  0  0  0  0  0  0  0  0  0
    9.8841  -15.3394   30.2305 O   0  0  0  0  0  0  0  0  0  0  0  0
  2  1  1  0
  2  3  1  0
  4  3  1  0
  4  5  1  0
  5  6  1  6
  7  5  1  0
  7  8  2  0
 10  9  1  1
 10 11  1  0
 10 12  1  0
 11  7  1  0
 12 22  1  0
 13 12  2  0
 14 15  1  0
 15 16  2  0
 17 15  1  0
 17 18  1  0
 19 18  1  0
 20 19  1  0
 21 23  1  0
 21 20  1  6
 22 21  1  0
 23 24  2  0
 23 25  1  0
M  END
$$$$
