MAR.pdb
     RDKit          3D

 25 24  0  0  1  0  0  0  0  0999 V2000
    7.2945  -12.2972   21.1943 C   0  0  0  0  0  0  0  0  0  0  0  0
    7.8636  -12.1386   19.4858 S   0  0  0  0  0  0  0  0  0  0  0  0
    8.1809  -13.7602   18.7930 C   0  0  0  0  0  0  0  0  0  0  0  0
    8.8642  -14.6864   19.7957 C   0  0  0  0  0  0  0  0  0  0  0  0
    8.9760  -16.0746   19.1674 C   0  0  2  0  0  0  0  0  0  0  0  0
    7.6653  -16.6135   18.8722 N   0  0  0  0  0  0  0  0  0  0  0  0
    9.7026  -17.0155   20.0248 C   0  0  0  0  0  0  0  0  0  0  0  0
    9.0005  -17.6645   20.8745 O   0  0  0  0  0  0  0  0  0  0  0  0
   13.1039  -18.5187   20.1245 C   0  0  0  0  0  0  0  0  0  0  0  0
   11.7413  -18.3025   20.7961 C   0  0  2  0  0  0  0  0  0  0  0  0
   11.0827  -17.2779   20.0115 N   0  0  0  0  0  0  0  0  0  0  0  0
   11.9094  -17.8036   22.1795 C   0  0  0  0  0  0  0  0  0  0  0  0
   12.0102  -16.5900   22.3883 O   0  0  0  0  0  0  0  0  0  0  0  0
   13.1306  -21.7784   29.5665 N   0  0  0  0  0  0  0  0  0  0  0  0
   12.0223  -20.9907   29.9853 C   0  0  0  0  0  0  0  0  0  0  0  0
   11.3967  -21.2336   31.0863 N   0  0  0  0  0  0  0  0  0  0  0  0
   11.5987  -19.9111   29.1680 N   0  0  0  0  0  0  0  0  0  0  0  0
   12.1220  -19.8204   27.8270 C   0  0  0  0  0  0  0  0  0  0  0  0
   11.5622  -18.6292   27.0589 C   0  0  0  0  0  0  0  0  0  0  0  0
   11.4025  -19.0693   25.6302 C   0  0  0  0  0  0  0  0  0  0  0  0
   12.1523  -18.2257   24.6462 C   0  0  2  0  0  0  0  0  0  0  0  0
   11.9589  -18.7087   23.3016 N   0  0  0  0  0  0  0  0  0  0  0  0
   13.5687  -18.0530   24.9413 C   0  0  0  0  0  0  0  0  0  0  0  0
   13.9308  -17.0303   25.5798 O   0  0  0  0  0  0  0  0  0  0  0  0
   14.5732  -18.9281   24.5766 O   0  0  0  0  0  0  0  0  0  0  0  0
  2  1  1  0
  2  3  1  0
  4  3  1  0
  4  5  1  0
  5  6  1  1
  7  5  1  0
  7  8  2  0
 10  9  1  6
 10 11  1  0
 10 12  1  0
 11  7  1  0
 12 22  1  0
 13 12  2  0
 14 15  1  0
 15 16  2  0
 17 15  1  0
 17 18  1  0
 19 18  1  0
 20 19  1  0
 21 23  1  0
 21 20  1  1
 22 21  1  0
 23 24  2  0
 23 25  1  0
M  END
$$$$
