MAR.pdb
     RDKit          3D

 25 24  0  0  1  0  0  0  0  0999 V2000
    8.5968  -11.2928   19.2578 C   0  0  0  0  0  0  0  0  0  0  0  0
    6.9479  -12.0318   19.3148 S   0  0  0  0  0  0  0  0  0  0  0  0
    7.0354  -13.6691   20.0372 C   0  0  0  0  0  0  0  0  0  0  0  0
    8.4323  -14.2729   19.9172 C   0  0  0  0  0  0  0  0  0  0  0  0
    8.4260  -15.6368   20.6058 C   0  0  2  0  0  0  0  0  0  0  0  0
    7.1062  -16.2298   20.5621 N   0  0  0  0  0  0  0  0  0  0  0  0
    8.8734  -15.5575   21.9994 C   0  0  0  0  0  0  0  0  0  0  0  0
   10.1360  -15.4670   22.1837 O   0  0  0  0  0  0  0  0  0  0  0  0
    7.3339  -15.0413   25.3444 C   0  0  0  0  0  0  0  0  0  0  0  0
    8.5518  -15.4559   24.5082 C   0  0  2  0  0  0  0  0  0  0  0  0
    8.0650  -15.5709   23.1483 N   0  0  0  0  0  0  0  0  0  0  0  0
    9.0627  -16.7760   24.9407 C   0  0  0  0  0  0  0  0  0  0  0  0
    8.4145  -17.7983   24.6929 O   0  0  0  0  0  0  0  0  0  0  0  0
   16.6422  -19.8772   23.3575 N   0  0  0  0  0  0  0  0  0  0  0  0
   16.1987  -20.9579   24.1695 C   0  0  0  0  0  0  0  0  0  0  0  0
   16.8662  -22.0577   24.2563 N   0  0  0  0  0  0  0  0  0  0  0  0
   14.9914  -20.8172   24.9013 N   0  0  0  0  0  0  0  0  0  0  0  0
   14.2027  -19.6266   24.6997 C   0  0  0  0  0  0  0  0  0  0  0  0
   12.9325  -19.6156   25.5417 C   0  0  0  0  0  0  0  0  0  0  0  0
   12.1855  -18.3605   25.1852 C   0  0  0  0  0  0  0  0  0  0  0  0
   10.8943  -18.1902   25.9241 C   0  0  2  0  0  0  0  0  0  0  0  0
   10.3117  -16.8999   25.6516 N   0  0  0  0  0  0  0  0  0  0  0  0
   10.9721  -18.4367   27.3582 C   0  0  0  0  0  0  0  0  0  0  0  0
   10.8010  -17.4698   28.1458 O   0  0  0  0  0  0  0  0  0  0  0  0
   11.2221  -19.6614   27.9458 O   0  0  0  0  0  0  0  0  0  0  0  0
  2  1  1  0
  2  3  1  0
  4  3  1  0
  4  5  1  0
  5  6  1  1
  7  5  1  0
  7  8  2  0
 10  9  1  1
 10 11  1  0
 10 12  1  0
 11  7  1  0
 12 22  1  0
 13 12  2  0
 14 15  1  0
 15 16  2  0
 17 15  1  0
 17 18  1  0
 19 18  1  0
 20 19  1  0
 21 23  1  0
 21 20  1  1
 22 21  1  0
 23 24  2  0
 23 25  1  0
M  END
$$$$
