MAR.pdb
     RDKit          3D

 25 24  0  0  1  0  0  0  0  0999 V2000
   -0.0553  -19.3258   21.4993 C   0  0  0  0  0  0  0  0  0  0  0  0
    0.5528  -20.7855   22.3753 S   0  0  0  0  0  0  0  0  0  0  0  0
    2.3369  -20.8816   22.2400 C   0  0  0  0  0  0  0  0  0  0  0  0
    2.9871  -19.5008   22.2636 C   0  0  0  0  0  0  0  0  0  0  0  0
    4.5016  -19.6822   22.1746 C   0  0  2  0  0  0  0  0  0  0  0  0
    4.8550  -21.0857   22.2071 N   0  0  0  0  0  0  0  0  0  0  0  0
    5.2092  -18.9815   23.2502 C   0  0  0  0  0  0  0  0  0  0  0  0
    5.1025  -17.7068   23.2606 O   0  0  0  0  0  0  0  0  0  0  0  0
    6.9251  -19.7462   26.4396 C   0  0  0  0  0  0  0  0  0  0  0  0
    6.7873  -18.8215   25.2228 C   0  0  2  0  0  0  0  0  0  0  0  0
    5.9888  -19.5600   24.2656 N   0  0  0  0  0  0  0  0  0  0  0  0
    8.1104  -18.5435   24.6203 C   0  0  0  0  0  0  0  0  0  0  0  0
    8.5323  -19.2582   23.7049 O   0  0  0  0  0  0  0  0  0  0  0  0
    6.8821  -13.4277   19.4994 N   0  0  0  0  0  0  0  0  0  0  0  0
    8.1837  -12.9020   19.7310 C   0  0  0  0  0  0  0  0  0  0  0  0
    8.6376  -11.8987   19.0602 N   0  0  0  0  0  0  0  0  0  0  0  0
    8.9988  -13.4992   20.7268 N   0  0  0  0  0  0  0  0  0  0  0  0
    8.8830  -14.9201   20.9457 C   0  0  0  0  0  0  0  0  0  0  0  0
    9.8374  -15.4271   22.0203 C   0  0  0  0  0  0  0  0  0  0  0  0
    8.9969  -16.1219   23.0553 C   0  0  0  0  0  0  0  0  0  0  0  0
    9.7864  -16.7226   24.1770 C   0  0  2  0  0  0  0  0  0  0  0  0
    8.9278  -17.4476   25.0801 N   0  0  0  0  0  0  0  0  0  0  0  0
   10.6337  -15.7839   24.9011 C   0  0  0  0  0  0  0  0  0  0  0  0
   10.2644  -15.3933   26.0393 O   0  0  0  0  0  0  0  0  0  0  0  0
   11.8318  -15.2717   24.4428 O   0  0  0  0  0  0  0  0  0  0  0  0
  2  1  1  0
  2  3  1  0
  4  3  1  0
  4  5  1  0
  5  6  1  1
  7  5  1  0
  7  8  2  0
 10  9  1  1
 10 11  1  0
 10 12  1  0
 11  7  1  0
 12 22  1  0
 13 12  2  0
 14 15  1  0
 15 16  2  0
 17 15  1  0
 17 18  1  0
 19 18  1  0
 20 19  1  0
 21 23  1  0
 21 20  1  6
 22 21  1  0
 23 24  2  0
 23 25  1  0
M  END
$$$$
