MAR.pdb
     RDKit          3D

 25 24  0  0  1  0  0  0  0  0999 V2000
    8.1592  -12.0939   21.5521 C   0  0  0  0  0  0  0  0  0  0  0  0
    6.6927  -12.8014   20.7667 S   0  0  0  0  0  0  0  0  0  0  0  0
    7.1290  -14.3070   19.8989 C   0  0  0  0  0  0  0  0  0  0  0  0
    8.2871  -15.0394   20.5718 C   0  0  0  0  0  0  0  0  0  0  0  0
    8.6591  -16.2439   19.7085 C   0  0  2  0  0  0  0  0  0  0  0  0
    7.5543  -17.1751   19.6200 N   0  0  0  0  0  0  0  0  0  0  0  0
    9.8423  -16.9456   20.2144 C   0  0  0  0  0  0  0  0  0  0  0  0
    9.6363  -18.0898   20.7478 O   0  0  0  0  0  0  0  0  0  0  0  0
   13.4041  -16.7497   19.4054 C   0  0  0  0  0  0  0  0  0  0  0  0
   12.3399  -17.3374   20.3417 C   0  0  2  0  0  0  0  0  0  0  0  0
   11.1725  -16.4954   20.1755 N   0  0  0  0  0  0  0  0  0  0  0  0
   12.7804  -17.2618   21.7527 C   0  0  0  0  0  0  0  0  0  0  0  0
   13.8156  -17.8363   22.1061 O   0  0  0  0  0  0  0  0  0  0  0  0
    7.0894  -19.2822   25.3831 N   0  0  0  0  0  0  0  0  0  0  0  0
    7.7799  -19.3058   26.6268 C   0  0  0  0  0  0  0  0  0  0  0  0
    7.3563  -20.0066   27.6229 N   0  0  0  0  0  0  0  0  0  0  0  0
    8.9645  -18.5382   26.7698 N   0  0  0  0  0  0  0  0  0  0  0  0
    9.9273  -18.5577   25.6961 C   0  0  0  0  0  0  0  0  0  0  0  0
   11.1182  -17.6442   25.9605 C   0  0  0  0  0  0  0  0  0  0  0  0
   12.0536  -17.8010   24.7939 C   0  0  0  0  0  0  0  0  0  0  0  0
   12.4122  -16.5108   24.1238 C   0  0  2  0  0  0  0  0  0  0  0  0
   12.0231  -16.5263   22.7357 N   0  0  0  0  0  0  0  0  0  0  0  0
   13.8053  -16.1100   24.2721 C   0  0  0  0  0  0  0  0  0  0  0  0
   14.6639  -16.6204   23.5059 O   0  0  0  0  0  0  0  0  0  0  0  0
   14.2810  -15.2012   25.1970 O   0  0  0  0  0  0  0  0  0  0  0  0
  2  1  1  0
  2  3  1  0
  4  3  1  0
  4  5  1  0
  5  6  1  1
  7  5  1  0
  7  8  2  0
 10  9  1  6
 10 11  1  0
 10 12  1  0
 11  7  1  0
 12 22  1  0
 13 12  2  0
 14 15  1  0
 15 16  2  0
 17 15  1  0
 17 18  1  0
 19 18  1  0
 20 19  1  0
 21 23  1  0
 21 20  1  6
 22 21  1  0
 23 24  2  0
 23 25  1  0
M  END
$$$$
