MAR.pdb
     RDKit          3D

 25 24  0  0  1  0  0  0  0  0999 V2000
    6.4471  -10.8547   25.7201 C   0  0  0  0  0  0  0  0  0  0  0  0
    5.6781  -12.2625   26.5536 S   0  0  0  0  0  0  0  0  0  0  0  0
    5.8687  -13.7412   25.5599 C   0  0  0  0  0  0  0  0  0  0  0  0
    7.1770  -13.7366   24.7734 C   0  0  0  0  0  0  0  0  0  0  0  0
    7.7670  -15.1453   24.8158 C   0  0  2  0  0  0  0  0  0  0  0  0
    6.8906  -16.0497   25.5296 N   0  0  0  0  0  0  0  0  0  0  0  0
    9.0957  -15.1727   25.4341 C   0  0  0  0  0  0  0  0  0  0  0  0
   10.0053  -14.4883   24.8505 O   0  0  0  0  0  0  0  0  0  0  0  0
    9.9671  -14.0504   28.0396 C   0  0  0  0  0  0  0  0  0  0  0  0
   10.4654  -15.4162   27.5489 C   0  0  2  0  0  0  0  0  0  0  0  0
    9.4734  -15.8686   26.5946 N   0  0  0  0  0  0  0  0  0  0  0  0
   10.5250  -16.3868   28.6648 C   0  0  0  0  0  0  0  0  0  0  0  0
   11.3738  -16.2528   29.5526 O   0  0  0  0  0  0  0  0  0  0  0  0
    8.9205  -21.2488   22.5592 N   0  0  0  0  0  0  0  0  0  0  0  0
    7.9885  -20.8318   23.5499 C   0  0  0  0  0  0  0  0  0  0  0  0
    6.7335  -20.6991   23.2854 N   0  0  0  0  0  0  0  0  0  0  0  0
    8.4562  -20.5570   24.8609 N   0  0  0  0  0  0  0  0  0  0  0  0
    9.8619  -20.7252   25.1363 C   0  0  0  0  0  0  0  0  0  0  0  0
   10.1925  -20.5647   26.6153 C   0  0  0  0  0  0  0  0  0  0  0  0
    9.8169  -19.1592   26.9945 C   0  0  0  0  0  0  0  0  0  0  0  0
   10.0303  -18.8419   28.4423 C   0  0  2  0  0  0  0  0  0  0  0  0
    9.6070  -17.4968   28.7423 N   0  0  0  0  0  0  0  0  0  0  0  0
   11.3815  -19.0861   28.9302 C   0  0  0  0  0  0  0  0  0  0  0  0
   11.5482  -19.9387   29.8412 O   0  0  0  0  0  0  0  0  0  0  0  0
   12.5218  -18.4536   28.4748 O   0  0  0  0  0  0  0  0  0  0  0  0
  2  1  1  0
  2  3  1  0
  4  3  1  0
  4  5  1  0
  5  6  1  1
  7  5  1  0
  7  8  2  0
 10  9  1  1
 10 11  1  0
 10 12  1  0
 11  7  1  0
 12 22  1  0
 13 12  2  0
 14 15  1  0
 15 16  2  0
 17 15  1  0
 17 18  1  0
 19 18  1  0
 20 19  1  0
 21 23  1  0
 21 20  1  6
 22 21  1  0
 23 24  2  0
 23 25  1  0
M  END
$$$$
