ELE.pdb
     RDKit          3D

 27 26  0  0  1  0  0  0  0  0999 V2000
    8.0694  -17.0400   22.4982 N   0  0  0  0  0  0  0  0  0  0  0  0
    9.2686  -16.2238   22.4069 C   0  0  1  0  0  0  0  0  0  0  0  0
    9.0989  -15.2689   21.2743 C   0  0  0  0  0  0  0  0  0  0  0  0
    7.8181  -15.4222   20.5193 C   0  0  0  0  0  0  0  0  0  0  0  0
    8.1363  -15.3130   19.0594 C   0  0  0  0  0  0  0  0  0  0  0  0
    8.4753  -14.2237   18.5327 O   0  0  0  0  0  0  0  0  0  0  0  0
    9.4349  -15.5637   23.7266 C   0  0  0  0  0  0  0  0  0  0  0  0
   10.4863  -14.9078   24.0041 O   0  0  0  0  0  0  0  0  0  0  0  0
    8.0654  -16.4232   18.2362 O   0  0  0  0  0  0  0  0  0  0  0  0
    8.0534  -12.0303   25.8253 C   0  0  0  0  0  0  0  0  0  0  0  0
    7.0287  -13.1621   25.6936 C   0  0  2  0  0  0  0  0  0  0  0  0
    5.7073  -12.5861   26.2174 C   0  0  0  0  0  0  0  0  0  0  0  0
    7.4173  -14.3281   26.5539 C   0  0  0  0  0  0  0  0  0  0  0  0
    8.6300  -14.9972   26.0537 C   0  0  2  0  0  0  0  0  0  0  0  0
    8.4575  -15.6144   24.7511 N   0  0  0  0  0  0  0  0  0  0  0  0
    9.1395  -16.0042   26.9883 C   0  0  0  0  0  0  0  0  0  0  0  0
    9.2396  -15.8765   28.2273 O   0  0  0  0  0  0  0  0  0  0  0  0
    9.5719  -17.2630   26.4708 N   0  0  0  0  0  0  0  0  0  0  0  0
   10.0794  -18.3344   27.3434 C   0  0  1  0  0  0  0  0  0  0  0  0
   10.3775  -19.5122   26.4835 C   0  0  0  0  0  0  0  0  0  0  0  0
   11.6576  -19.4884   25.7356 C   0  0  0  0  0  0  0  0  0  0  0  0
   11.8850  -20.7010   24.9326 C   0  0  0  0  0  0  0  0  0  0  0  0
   11.0661  -21.6230   24.8701 O   0  0  0  0  0  0  0  0  0  0  0  0
   11.2715  -17.8084   28.0291 C   0  0  0  0  0  0  0  0  0  0  0  0
   11.6896  -18.3497   29.0712 O   0  0  0  0  0  0  0  0  0  0  0  0
   13.0678  -20.8469   24.1976 O   0  0  0  0  0  0  0  0  0  0  0  0
   11.9278  -16.7153   27.5184 O   0  0  0  0  0  0  0  0  0  0  0  0
  2  1  1  1
  2  3  1  0
  2  7  1  0
  4  3  1  0
  4  5  1  0
  5  6  2  0
  7  8  2  0
  9  5  1  0
 11 10  1  1
 11 12  1  0
 13 11  1  0
 14 16  1  0
 14 13  1  1
 15  7  1  0
 15 14  1  0
 16 17  2  0
 18 16  1  0
 19 18  1  0
 19 24  1  0
 20 21  1  0
 19 20  1  6
 22 26  1  0
 22 21  1  0
 23 22  2  0
 24 25  2  0
 24 27  1  0
M  END
$$$$
