ELE.pdb
     RDKit          3D

 27 26  0  0  1  0  0  0  0  0999 V2000
    6.2640  -16.6798   22.1544 N   0  0  0  0  0  0  0  0  0  0  0  0
    7.4553  -15.9901   21.6876 C   0  0  1  0  0  0  0  0  0  0  0  0
    7.0445  -14.9922   20.6587 C   0  0  0  0  0  0  0  0  0  0  0  0
    8.1798  -14.2863   19.9902 C   0  0  0  0  0  0  0  0  0  0  0  0
    8.6848  -15.1753   18.8951 C   0  0  0  0  0  0  0  0  0  0  0  0
    9.7871  -14.9703   18.3277 O   0  0  0  0  0  0  0  0  0  0  0  0
    8.0939  -15.3872   22.8849 C   0  0  0  0  0  0  0  0  0  0  0  0
    9.2753  -14.9240   22.8352 O   0  0  0  0  0  0  0  0  0  0  0  0
    7.9427  -16.2633   18.4698 O   0  0  0  0  0  0  0  0  0  0  0  0
    8.1404  -11.8096   25.6267 C   0  0  0  0  0  0  0  0  0  0  0  0
    6.9150  -12.7293   25.6545 C   0  0  2  0  0  0  0  0  0  0  0  0
    5.8981  -12.0353   26.5690 C   0  0  0  0  0  0  0  0  0  0  0  0
    7.2674  -14.0593   26.2524 C   0  0  0  0  0  0  0  0  0  0  0  0
    8.1226  -14.8538   25.3546 C   0  0  2  0  0  0  0  0  0  0  0  0
    7.4497  -15.2854   24.1428 N   0  0  0  0  0  0  0  0  0  0  0  0
    8.6940  -16.0278   26.0196 C   0  0  0  0  0  0  0  0  0  0  0  0
    8.1511  -17.1474   26.1339 O   0  0  0  0  0  0  0  0  0  0  0  0
    9.9924  -15.9202   26.6043 N   0  0  0  0  0  0  0  0  0  0  0  0
   10.6564  -17.0643   27.2500 C   0  0  1  0  0  0  0  0  0  0  0  0
   12.0325  -17.1607   26.6906 C   0  0  0  0  0  0  0  0  0  0  0  0
   12.2236  -16.6891   25.2979 C   0  0  0  0  0  0  0  0  0  0  0  0
   13.6119  -16.8174   24.8256 C   0  0  0  0  0  0  0  0  0  0  0  0
   14.4492  -15.9203   24.9636 O   0  0  0  0  0  0  0  0  0  0  0  0
   10.6433  -16.8125   28.7006 C   0  0  0  0  0  0  0  0  0  0  0  0
   10.1757  -15.7488   29.1517 O   0  0  0  0  0  0  0  0  0  0  0  0
   14.0334  -17.9914   24.1895 O   0  0  0  0  0  0  0  0  0  0  0  0
   11.1486  -17.7547   29.5629 O   0  0  0  0  0  0  0  0  0  0  0  0
  2  1  1  1
  2  3  1  0
  2  7  1  0
  4  3  1  0
  4  5  1  0
  5  6  2  0
  7  8  2  0
  9  5  1  0
 11 10  1  1
 11 12  1  0
 13 11  1  0
 14 16  1  0
 14 13  1  1
 15  7  1  0
 15 14  1  0
 16 17  2  0
 18 16  1  0
 19 18  1  0
 19 24  1  0
 20 21  1  0
 19 20  1  6
 22 26  1  0
 22 21  1  0
 23 22  2  0
 24 25  2  0
 24 27  1  0
M  END
$$$$
