ELE.pdb
     RDKit          3D

 27 26  0  0  1  0  0  0  0  0999 V2000
    7.3150  -16.8413   22.1956 N   0  0  0  0  0  0  0  0  0  0  0  0
    8.4859  -16.0958   21.7643 C   0  0  1  0  0  0  0  0  0  0  0  0
    8.1345  -15.3524   20.5204 C   0  0  0  0  0  0  0  0  0  0  0  0
    7.3003  -16.1247   19.5500 C   0  0  0  0  0  0  0  0  0  0  0  0
    8.2093  -16.6282   18.4708 C   0  0  0  0  0  0  0  0  0  0  0  0
    9.4511  -16.4397   18.5061 O   0  0  0  0  0  0  0  0  0  0  0  0
    8.8718  -15.2177   22.8977 C   0  0  0  0  0  0  0  0  0  0  0  0
    9.8524  -14.4164   22.8025 O   0  0  0  0  0  0  0  0  0  0  0  0
    7.7019  -17.3252   17.3883 O   0  0  0  0  0  0  0  0  0  0  0  0
    7.7539  -11.5237   25.2697 C   0  0  0  0  0  0  0  0  0  0  0  0
    6.7870  -12.7069   25.3848 C   0  0  2  0  0  0  0  0  0  0  0  0
    5.6417  -12.2189   26.2805 C   0  0  0  0  0  0  0  0  0  0  0  0
    7.4556  -13.8712   26.0539 C   0  0  0  0  0  0  0  0  0  0  0  0
    8.5905  -14.3785   25.2644 C   0  0  2  0  0  0  0  0  0  0  0  0
    8.1922  -15.2072   24.1410 N   0  0  0  0  0  0  0  0  0  0  0  0
    9.5523  -15.1232   26.0814 C   0  0  0  0  0  0  0  0  0  0  0  0
   10.0377  -14.7513   27.1712 O   0  0  0  0  0  0  0  0  0  0  0  0
   10.0003  -16.3985   25.6209 N   0  0  0  0  0  0  0  0  0  0  0  0
   10.9615  -17.2117   26.3834 C   0  0  1  0  0  0  0  0  0  0  0  0
   10.2163  -18.3605   26.9670 C   0  0  0  0  0  0  0  0  0  0  0  0
   10.6988  -18.8793   28.2696 C   0  0  0  0  0  0  0  0  0  0  0  0
    9.9164  -20.0229   28.7662 C   0  0  0  0  0  0  0  0  0  0  0  0
    8.9562  -20.4930   28.1484 O   0  0  0  0  0  0  0  0  0  0  0  0
   12.0173  -17.6295   25.4460 C   0  0  0  0  0  0  0  0  0  0  0  0
   13.1068  -18.0578   25.8738 O   0  0  0  0  0  0  0  0  0  0  0  0
   10.2477  -20.6261   29.9857 O   0  0  0  0  0  0  0  0  0  0  0  0
   11.8014  -17.5478   24.0920 O   0  0  0  0  0  0  0  0  0  0  0  0
  2  1  1  1
  2  3  1  0
  2  7  1  0
  4  3  1  0
  4  5  1  0
  5  6  2  0
  7  8  2  0
  9  5  1  0
 11 10  1  1
 11 12  1  0
 13 11  1  0
 14 16  1  0
 14 13  1  1
 15  7  1  0
 15 14  1  0
 16 17  2  0
 18 16  1  0
 19 18  1  0
 19 24  1  0
 20 21  1  0
 19 20  1  6
 22 26  1  0
 22 21  1  0
 23 22  2  0
 24 25  2  0
 24 27  1  0
M  END
$$$$
