ELE.pdb
     RDKit          3D

 27 26  0  0  1  0  0  0  0  0999 V2000
    6.3548  -16.1836   21.7589 N   0  0  0  0  0  0  0  0  0  0  0  0
    7.7512  -16.5824   21.6999 C   0  0  1  0  0  0  0  0  0  0  0  0
    8.3104  -16.1345   20.3922 C   0  0  0  0  0  0  0  0  0  0  0  0
    9.7160  -16.5728   20.1350 C   0  0  0  0  0  0  0  0  0  0  0  0
   10.0652  -16.1770   18.7329 C   0  0  0  0  0  0  0  0  0  0  0  0
    9.2460  -15.5858   17.9857 O   0  0  0  0  0  0  0  0  0  0  0  0
    8.4180  -15.9705   22.8772 C   0  0  0  0  0  0  0  0  0  0  0  0
    9.6785  -16.0286   23.0210 O   0  0  0  0  0  0  0  0  0  0  0  0
   11.3168  -16.4544   18.2117 O   0  0  0  0  0  0  0  0  0  0  0  0
    8.0792  -11.9639   24.7557 C   0  0  0  0  0  0  0  0  0  0  0  0
    6.9643  -12.9432   25.1379 C   0  0  2  0  0  0  0  0  0  0  0  0
    5.9605  -12.1259   25.9606 C   0  0  0  0  0  0  0  0  0  0  0  0
    7.5039  -14.0465   25.9994 C   0  0  0  0  0  0  0  0  0  0  0  0
    8.2776  -15.0242   25.2158 C   0  0  2  0  0  0  0  0  0  0  0  0
    7.7161  -15.2922   23.9042 N   0  0  0  0  0  0  0  0  0  0  0  0
    8.4514  -16.2960   25.9225 C   0  0  0  0  0  0  0  0  0  0  0  0
    7.6437  -17.2494   25.9339 O   0  0  0  0  0  0  0  0  0  0  0  0
    9.6442  -16.5017   26.6803 N   0  0  0  0  0  0  0  0  0  0  0  0
   10.1264  -17.8479   27.0294 C   0  0  1  0  0  0  0  0  0  0  0  0
   10.4417  -18.5568   25.7590 C   0  0  0  0  0  0  0  0  0  0  0  0
   10.9530  -19.9437   25.8753 C   0  0  0  0  0  0  0  0  0  0  0  0
   10.5117  -20.8204   24.7784 C   0  0  0  0  0  0  0  0  0  0  0  0
   11.2701  -21.6131   24.2116 O   0  0  0  0  0  0  0  0  0  0  0  0
   11.3029  -17.6766   27.8979 C   0  0  0  0  0  0  0  0  0  0  0  0
   11.8107  -18.6592   28.4726 O   0  0  0  0  0  0  0  0  0  0  0  0
    9.1842  -20.7791   24.3348 O   0  0  0  0  0  0  0  0  0  0  0  0
   11.8453  -16.4274   28.0764 O   0  0  0  0  0  0  0  0  0  0  0  0
  2  1  1  6
  2  3  1  0
  2  7  1  0
  4  3  1  0
  4  5  1  0
  5  6  2  0
  7  8  2  0
  9  5  1  0
 11 10  1  1
 11 12  1  0
 13 11  1  0
 14 16  1  0
 14 13  1  1
 15  7  1  0
 15 14  1  0
 16 17  2  0
 18 16  1  0
 19 18  1  0
 19 24  1  0
 20 21  1  0
 19 20  1  6
 22 26  1  0
 22 21  1  0
 23 22  2  0
 24 25  2  0
 24 27  1  0
M  END
$$$$
