ELE.pdb
     RDKit          3D

 27 26  0  0  1  0  0  0  0  0999 V2000
    6.5486  -15.3894   21.1577 N   0  0  0  0  0  0  0  0  0  0  0  0
    7.9977  -15.4955   21.1942 C   0  0  1  0  0  0  0  0  0  0  0  0
    8.5599  -14.5731   20.1665 C   0  0  0  0  0  0  0  0  0  0  0  0
    7.6344  -14.2677   19.0332 C   0  0  0  0  0  0  0  0  0  0  0  0
    8.4622  -13.7420   17.9006 C   0  0  0  0  0  0  0  0  0  0  0  0
    9.7127  -13.6477   17.9792 O   0  0  0  0  0  0  0  0  0  0  0  0
    8.4128  -15.1698   22.5822 C   0  0  0  0  0  0  0  0  0  0  0  0
    9.6402  -15.0917   22.8986 O   0  0  0  0  0  0  0  0  0  0  0  0
    7.8666  -13.3392   16.7181 O   0  0  0  0  0  0  0  0  0  0  0  0
    8.0324  -11.8869   25.9220 C   0  0  0  0  0  0  0  0  0  0  0  0
    6.7706  -12.6453   25.4969 C   0  0  2  0  0  0  0  0  0  0  0  0
    5.6249  -12.0298   26.3097 C   0  0  0  0  0  0  0  0  0  0  0  0
    6.8836  -14.0983   25.8528 C   0  0  0  0  0  0  0  0  0  0  0  0
    7.8862  -14.7885   25.0239 C   0  0  2  0  0  0  0  0  0  0  0  0
    7.4939  -14.9273   23.6331 N   0  0  0  0  0  0  0  0  0  0  0  0
    8.2324  -16.1116   25.5499 C   0  0  0  0  0  0  0  0  0  0  0  0
    7.4544  -17.0813   25.6762 O   0  0  0  0  0  0  0  0  0  0  0  0
    9.5764  -16.3530   25.9676 N   0  0  0  0  0  0  0  0  0  0  0  0
   10.0199  -17.6703   26.4521 C   0  0  1  0  0  0  0  0  0  0  0  0
   11.1946  -18.0788   25.6342 C   0  0  0  0  0  0  0  0  0  0  0  0
   11.8893  -19.3256   26.0362 C   0  0  0  0  0  0  0  0  0  0  0  0
   13.0393  -19.6534   25.1778 C   0  0  0  0  0  0  0  0  0  0  0  0
   13.7493  -20.6463   25.3642 O   0  0  0  0  0  0  0  0  0  0  0  0
   10.3398  -17.5226   27.8817 C   0  0  0  0  0  0  0  0  0  0  0  0
   10.5079  -16.3910   28.3764 O   0  0  0  0  0  0  0  0  0  0  0  0
   13.3693  -18.8266   24.0970 O   0  0  0  0  0  0  0  0  0  0  0  0
   10.4536  -18.6374   28.6759 O   0  0  0  0  0  0  0  0  0  0  0  0
  2  1  1  1
  2  3  1  0
  2  7  1  0
  4  3  1  0
  4  5  1  0
  5  6  2  0
  7  8  2  0
  9  5  1  0
 11 10  1  1
 11 12  1  0
 13 11  1  0
 14 16  1  0
 14 13  1  1
 15  7  1  0
 15 14  1  0
 16 17  2  0
 18 16  1  0
 19 18  1  0
 19 24  1  0
 20 21  1  0
 19 20  1  6
 22 26  1  0
 22 21  1  0
 23 22  2  0
 24 25  2  0
 24 27  1  0
M  END
$$$$
