ELE.pdb
     RDKit          3D

 27 26  0  0  1  0  0  0  0  0999 V2000
    7.8102  -17.7849   21.9990 N   0  0  0  0  0  0  0  0  0  0  0  0
    8.8736  -16.9519   21.4626 C   0  0  1  0  0  0  0  0  0  0  0  0
    8.5027  -16.5575   20.0733 C   0  0  0  0  0  0  0  0  0  0  0  0
    8.3554  -17.7006   19.1216 C   0  0  0  0  0  0  0  0  0  0  0  0
    8.0196  -17.1311   17.7772 C   0  0  0  0  0  0  0  0  0  0  0  0
    6.8694  -17.2313   17.2813 O   0  0  0  0  0  0  0  0  0  0  0  0
    9.0229  -15.8030   22.3913 C   0  0  0  0  0  0  0  0  0  0  0  0
    9.9259  -14.9280   22.2127 O   0  0  0  0  0  0  0  0  0  0  0  0
    8.9789  -16.4689   17.0312 O   0  0  0  0  0  0  0  0  0  0  0  0
    5.8470  -12.6456   26.6926 C   0  0  0  0  0  0  0  0  0  0  0  0
    7.1675  -12.9190   25.9649 C   0  0  2  0  0  0  0  0  0  0  0  0
    7.4977  -11.6264   25.2083 C   0  0  0  0  0  0  0  0  0  0  0  0
    7.0007  -14.0280   24.9684 C   0  0  0  0  0  0  0  0  0  0  0  0
    8.2901  -14.4443   24.3917 C   0  0  2  0  0  0  0  0  0  0  0  0
    8.1901  -15.6005   23.5196 N   0  0  0  0  0  0  0  0  0  0  0  0
    9.3010  -14.7142   25.4175 C   0  0  0  0  0  0  0  0  0  0  0  0
    9.6942  -13.9145   26.2935 O   0  0  0  0  0  0  0  0  0  0  0  0
    9.9172  -16.0019   25.4505 N   0  0  0  0  0  0  0  0  0  0  0  0
   10.9958  -16.3286   26.3974 C   0  0  1  0  0  0  0  0  0  0  0  0
   10.3963  -17.1171   27.5085 C   0  0  0  0  0  0  0  0  0  0  0  0
   10.0659  -18.5338   27.2217 C   0  0  0  0  0  0  0  0  0  0  0  0
    9.6847  -19.2967   28.4215 C   0  0  0  0  0  0  0  0  0  0  0  0
    9.7337  -18.8193   29.5591 O   0  0  0  0  0  0  0  0  0  0  0  0
   12.0190  -17.0778   25.6493 C   0  0  0  0  0  0  0  0  0  0  0  0
   13.1039  -17.3726   26.1875 O   0  0  0  0  0  0  0  0  0  0  0  0
    9.2442  -20.6206   28.3033 O   0  0  0  0  0  0  0  0  0  0  0  0
   11.7777  -17.4550   24.3509 O   0  0  0  0  0  0  0  0  0  0  0  0
  2  1  1  1
  2  3  1  0
  2  7  1  0
  4  3  1  0
  4  5  1  0
  5  6  2  0
  7  8  2  0
  9  5  1  0
 11 10  1  6
 11 12  1  0
 13 11  1  0
 14 16  1  0
 14 13  1  1
 15  7  1  0
 15 14  1  0
 16 17  2  0
 18 16  1  0
 19 18  1  0
 19 24  1  0
 20 21  1  0
 19 20  1  1
 22 26  1  0
 22 21  1  0
 23 22  2  0
 24 25  2  0
 24 27  1  0
M  END
$$$$
