HWS.pdb
     RDKit          3D

 31 33  0  0  1  0  0  0  0  0999 V2000
    9.3064  -16.5660   18.4208 N   0  0  0  0  0  0  0  0  0  0  0  0
   10.0872  -17.0798   19.5575 C   0  0  1  0  0  0  0  0  0  0  0  0
   11.5311  -17.1458   19.1955 C   0  0  0  0  0  0  0  0  0  0  0  0
   11.7836  -17.8442   17.9224 C   0  0  0  0  0  0  0  0  0  0  0  0
   11.9983  -19.2353   17.8297 C   0  0  0  0  0  0  0  0  0  0  0  0
   12.1958  -19.5478   16.5429 N   0  0  0  0  0  0  0  0  0  0  0  0
   12.1195  -18.4271   15.7971 C   0  0  0  0  0  0  0  0  0  0  0  0
   11.8716  -17.4251   16.6551 N   0  0  0  0  0  0  0  0  0  0  0  0
    9.8914  -16.1566   20.7139 C   0  0  0  0  0  0  0  0  0  0  0  0
   10.8043  -15.4432   21.1329 O   0  0  0  0  0  0  0  0  0  0  0  0
    8.6251  -16.0820   21.3643 N   0  0  0  0  0  0  0  0  0  0  0  0
    8.5353  -15.6648   22.7733 C   0  0  1  0  0  0  0  0  0  0  0  0
    7.0390  -15.5048   23.0727 C   0  0  0  0  0  0  0  0  0  0  0  0
    6.8672  -15.1275   24.4799 C   0  0  0  0  0  0  0  0  0  0  0  0
    6.4797  -15.9024   25.5519 C   0  0  0  0  0  0  0  0  0  0  0  0
    6.4486  -15.1684   26.6653 N   0  0  0  0  0  0  0  0  0  0  0  0
    6.8138  -13.8956   26.3547 C   0  0  0  0  0  0  0  0  0  0  0  0
    6.9413  -12.7621   27.1361 C   0  0  0  0  0  0  0  0  0  0  0  0
    7.3382  -11.5856   26.5322 C   0  0  0  0  0  0  0  0  0  0  0  0
    7.6034  -11.5379   25.1754 C   0  0  0  0  0  0  0  0  0  0  0  0
    7.4725  -12.6699   24.4145 C   0  0  0  0  0  0  0  0  0  0  0  0
    7.0758  -13.8509   25.0114 C   0  0  0  0  0  0  0  0  0  0  0  0
    9.0310  -16.7352   23.6658 C   0  0  0  0  0  0  0  0  0  0  0  0
    9.0141  -17.9363   23.2957 O   0  0  0  0  0  0  0  0  0  0  0  0
   12.3953  -17.8635   24.0372 O   0  0  0  0  0  0  0  0  0  0  0  0
   11.9571  -16.9310   24.9439 C   0  0  0  0  0  0  0  0  0  0  0  0
   10.6116  -17.2683   25.5483 C   0  0  2  0  0  0  0  0  0  0  0  0
    9.5473  -16.4843   24.9699 N   0  0  0  0  0  0  0  0  0  0  0  0
   10.6563  -16.9502   26.9996 C   0  0  0  0  0  0  0  0  0  0  0  0
   11.5568  -17.5517   27.8659 O   0  0  0  0  0  0  0  0  0  0  0  0
    9.8354  -16.1004   27.4302 O   0  0  0  0  0  0  0  0  0  0  0  0
  2  1  1  6
  2  3  1  0
  3  4  1  0
  4  5  2  0
  6  5  1  0
  7  6  1  0
  8  7  2  0
  8  4  1  0
  9  2  1  0
 10  9  2  0
 11  9  1  0
 12 11  1  0
 12 13  1  1
 14 13  1  0
 14 22  1  0
 15 16  1  0
 15 14  2  0
 16 17  1  0
 17 18  2  0
 17 22  1  0
 18 19  1  0
 19 20  2  0
 21 20  1  0
 22 21  2  0
 23 12  1  0
 23 28  1  0
 24 23  2  0
 26 25  1  0
 27 28  1  0
 27 26  1  6
 29 27  1  0
 29 30  1  0
 31 29  2  0
M  END
$$$$
