HWS.pdb
     RDKit          3D

 31 33  0  0  1  0  0  0  0  0999 V2000
    9.6858  -16.3033   20.6742 N   0  0  0  0  0  0  0  0  0  0  0  0
    9.5913  -17.4572   21.5825 C   0  0  1  0  0  0  0  0  0  0  0  0
   10.5847  -18.4965   21.1911 C   0  0  0  0  0  0  0  0  0  0  0  0
   10.1939  -19.2564   19.9901 C   0  0  0  0  0  0  0  0  0  0  0  0
    8.8553  -19.5625   19.6670 C   0  0  0  0  0  0  0  0  0  0  0  0
    8.8449  -20.2568   18.5223 N   0  0  0  0  0  0  0  0  0  0  0  0
   10.1113  -20.4156   18.0878 C   0  0  0  0  0  0  0  0  0  0  0  0
   10.8941  -19.8042   18.9906 N   0  0  0  0  0  0  0  0  0  0  0  0
    9.8672  -16.9828   22.9705 C   0  0  0  0  0  0  0  0  0  0  0  0
   10.7710  -16.1809   23.2116 O   0  0  0  0  0  0  0  0  0  0  0  0
    9.0778  -17.4557   24.0592 N   0  0  0  0  0  0  0  0  0  0  0  0
    9.3589  -17.0069   25.4329 C   0  0  1  0  0  0  0  0  0  0  0  0
    7.9927  -16.8285   26.1078 C   0  0  0  0  0  0  0  0  0  0  0  0
    7.3351  -15.6385   25.5567 C   0  0  0  0  0  0  0  0  0  0  0  0
    6.3936  -15.5451   24.5544 C   0  0  0  0  0  0  0  0  0  0  0  0
    6.0540  -14.2703   24.3569 N   0  0  0  0  0  0  0  0  0  0  0  0
    6.7615  -13.4951   25.2220 C   0  0  0  0  0  0  0  0  0  0  0  0
    6.7796  -12.1272   25.4226 C   0  0  0  0  0  0  0  0  0  0  0  0
    7.6168  -11.6136   26.3929 C   0  0  0  0  0  0  0  0  0  0  0  0
    8.4214  -12.4461   27.1501 C   0  0  0  0  0  0  0  0  0  0  0  0
    8.3921  -13.7996   26.9393 C   0  0  0  0  0  0  0  0  0  0  0  0
    7.5571  -14.3212   25.9702 C   0  0  0  0  0  0  0  0  0  0  0  0
   10.0680  -18.0613   26.1902 C   0  0  0  0  0  0  0  0  0  0  0  0
    9.5905  -19.2210   26.2731 O   0  0  0  0  0  0  0  0  0  0  0  0
   13.6209  -17.2314   28.2495 O   0  0  0  0  0  0  0  0  0  0  0  0
   13.4589  -18.5224   27.8125 C   0  0  0  0  0  0  0  0  0  0  0  0
   12.0147  -18.8899   27.5503 C   0  0  2  0  0  0  0  0  0  0  0  0
   11.3067  -17.8399   26.8587 N   0  0  0  0  0  0  0  0  0  0  0  0
   11.3375  -19.0924   28.8580 C   0  0  0  0  0  0  0  0  0  0  0  0
   11.7526  -20.0507   29.7705 O   0  0  0  0  0  0  0  0  0  0  0  0
   10.3544  -18.3532   29.1199 O   0  0  0  0  0  0  0  0  0  0  0  0
  2  1  1  6
  2  3  1  0
  3  4  1  0
  4  5  2  0
  6  5  1  0
  7  6  1  0
  8  7  2  0
  8  4  1  0
  9  2  1  0
 10  9  2  0
 11  9  1  0
 12 11  1  0
 12 13  1  1
 14 13  1  0
 14 22  1  0
 15 16  1  0
 15 14  2  0
 16 17  1  0
 17 18  2  0
 17 22  1  0
 18 19  1  0
 19 20  2  0
 21 20  1  0
 22 21  2  0
 23 12  1  0
 23 28  1  0
 24 23  2  0
 26 25  1  0
 27 28  1  0
 27 26  1  1
 29 27  1  0
 29 30  1  0
 31 29  2  0
M  END
$$$$
