HWS.pdb
     RDKit          3D

 31 33  0  0  1  0  0  0  0  0999 V2000
    8.5449  -16.2768   18.8330 N   0  0  0  0  0  0  0  0  0  0  0  0
    9.8704  -15.7693   19.2218 C   0  0  1  0  0  0  0  0  0  0  0  0
   10.1827  -14.5258   18.4626 C   0  0  0  0  0  0  0  0  0  0  0  0
    9.2010  -14.2238   17.4054 C   0  0  0  0  0  0  0  0  0  0  0  0
    7.9480  -13.6270   17.6575 C   0  0  0  0  0  0  0  0  0  0  0  0
    7.3028  -13.4903   16.4924 N   0  0  0  0  0  0  0  0  0  0  0  0
    8.0765  -13.9694   15.4975 C   0  0  0  0  0  0  0  0  0  0  0  0
    9.2064  -14.4009   16.0795 N   0  0  0  0  0  0  0  0  0  0  0  0
    9.8496  -15.4828   20.6865 C   0  0  0  0  0  0  0  0  0  0  0  0
   10.7598  -14.8603   21.2360 O   0  0  0  0  0  0  0  0  0  0  0  0
    8.7595  -15.9306   21.4884 N   0  0  0  0  0  0  0  0  0  0  0  0
    8.7383  -15.6585   22.9351 C   0  0  1  0  0  0  0  0  0  0  0  0
    7.2577  -15.5858   23.3304 C   0  0  0  0  0  0  0  0  0  0  0  0
    7.1546  -15.2040   24.7431 C   0  0  0  0  0  0  0  0  0  0  0  0
    6.8638  -15.9850   25.8410 C   0  0  0  0  0  0  0  0  0  0  0  0
    6.8690  -15.2436   26.9499 N   0  0  0  0  0  0  0  0  0  0  0  0
    7.1627  -13.9596   26.6104 C   0  0  0  0  0  0  0  0  0  0  0  0
    7.2900  -12.8154   27.3760 C   0  0  0  0  0  0  0  0  0  0  0  0
    7.6017  -11.6289   26.7425 C   0  0  0  0  0  0  0  0  0  0  0  0
    7.7835  -11.5818   25.3719 C   0  0  0  0  0  0  0  0  0  0  0  0
    7.6539  -12.7245   24.6270 C   0  0  0  0  0  0  0  0  0  0  0  0
    7.3421  -13.9156   25.2536 C   0  0  0  0  0  0  0  0  0  0  0  0
    9.3195  -16.7923   23.6866 C   0  0  0  0  0  0  0  0  0  0  0  0
    8.9055  -17.9642   23.4989 O   0  0  0  0  0  0  0  0  0  0  0  0
   12.9072  -16.3363   25.5458 O   0  0  0  0  0  0  0  0  0  0  0  0
   12.4788  -17.6294   25.3775 C   0  0  0  0  0  0  0  0  0  0  0  0
   10.9726  -17.7590   25.3173 C   0  0  2  0  0  0  0  0  0  0  0  0
   10.3598  -16.6372   24.6479 N   0  0  0  0  0  0  0  0  0  0  0  0
   10.4480  -17.7841   26.7079 C   0  0  0  0  0  0  0  0  0  0  0  0
   10.8057  -18.7650   27.6206 O   0  0  0  0  0  0  0  0  0  0  0  0
    9.6519  -16.8695   27.0415 O   0  0  0  0  0  0  0  0  0  0  0  0
  2  1  1  6
  2  3  1  0
  3  4  1  0
  4  5  2  0
  6  5  1  0
  7  6  1  0
  8  7  2  0
  8  4  1  0
  9  2  1  0
 10  9  2  0
 11  9  1  0
 12 11  1  0
 12 13  1  1
 14 13  1  0
 14 22  1  0
 15 16  1  0
 15 14  2  0
 16 17  1  0
 17 18  2  0
 17 22  1  0
 18 19  1  0
 19 20  2  0
 21 20  1  0
 22 21  2  0
 23 12  1  0
 23 28  1  0
 24 23  2  0
 26 25  1  0
 27 28  1  0
 27 26  1  1
 29 27  1  0
 29 30  1  0
 31 29  2  0
M  END
$$$$
