HWS.pdb
     RDKit          3D

 31 33  0  0  1  0  0  0  0  0999 V2000
    8.1979  -17.0117   20.5975 N   0  0  0  0  0  0  0  0  0  0  0  0
    9.3801  -16.5277   21.3283 C   0  0  1  0  0  0  0  0  0  0  0  0
   10.1287  -15.5465   20.4934 C   0  0  0  0  0  0  0  0  0  0  0  0
    9.2537  -14.6107   19.7645 C   0  0  0  0  0  0  0  0  0  0  0  0
    7.8451  -14.6766   19.8016 C   0  0  0  0  0  0  0  0  0  0  0  0
    7.3557  -13.6913   19.0386 N   0  0  0  0  0  0  0  0  0  0  0  0
    8.3782  -12.9901   18.5090 C   0  0  0  0  0  0  0  0  0  0  0  0
    9.5010  -13.5677   18.9643 N   0  0  0  0  0  0  0  0  0  0  0  0
    8.9159  -15.8776   22.5891 C   0  0  0  0  0  0  0  0  0  0  0  0
    7.7182  -15.7674   22.8562 O   0  0  0  0  0  0  0  0  0  0  0  0
    9.8643  -15.3649   23.5217 N   0  0  0  0  0  0  0  0  0  0  0  0
    9.5602  -15.3525   24.9621 C   0  0  1  0  0  0  0  0  0  0  0  0
    8.3110  -16.2256   25.1385 C   0  0  0  0  0  0  0  0  0  0  0  0
    7.1588  -15.3648   25.4281 C   0  0  0  0  0  0  0  0  0  0  0  0
    5.8126  -15.6423   25.3259 C   0  0  0  0  0  0  0  0  0  0  0  0
    5.0930  -14.5788   25.6871 N   0  0  0  0  0  0  0  0  0  0  0  0
    5.9454  -13.5776   26.0351 C   0  0  0  0  0  0  0  0  0  0  0  0
    5.7131  -12.2881   26.4765 C   0  0  0  0  0  0  0  0  0  0  0  0
    6.7978  -11.4819   26.7589 C   0  0  0  0  0  0  0  0  0  0  0  0
    8.0903  -11.9504   26.6048 C   0  0  0  0  0  0  0  0  0  0  0  0
    8.3040  -13.2309   26.1664 C   0  0  0  0  0  0  0  0  0  0  0  0
    7.2238  -14.0437   25.8818 C   0  0  0  0  0  0  0  0  0  0  0  0
   10.6429  -16.0071   25.7284 C   0  0  0  0  0  0  0  0  0  0  0  0
   11.2797  -16.9738   25.2387 O   0  0  0  0  0  0  0  0  0  0  0  0
   11.0496  -15.2766   29.7503 O   0  0  0  0  0  0  0  0  0  0  0  0
   12.2291  -15.6751   29.1725 C   0  0  0  0  0  0  0  0  0  0  0  0
   12.0493  -16.2772   27.7961 C   0  0  2  0  0  0  0  0  0  0  0  0
   11.0270  -15.5973   27.0379 N   0  0  0  0  0  0  0  0  0  0  0  0
   11.6152  -17.6900   27.9553 C   0  0  0  0  0  0  0  0  0  0  0  0
   10.3525  -18.1268   27.5840 O   0  0  0  0  0  0  0  0  0  0  0  0
   12.4444  -18.4970   28.4479 O   0  0  0  0  0  0  0  0  0  0  0  0
  2  1  1  6
  2  3  1  0
  3  4  1  0
  4  5  2  0
  6  5  1  0
  7  6  1  0
  8  7  2  0
  8  4  1  0
  9  2  1  0
 10  9  2  0
 11  9  1  0
 12 11  1  0
 12 13  1  6
 14 13  1  0
 14 22  1  0
 15 16  1  0
 15 14  2  0
 16 17  1  0
 17 18  2  0
 17 22  1  0
 18 19  1  0
 19 20  2  0
 21 20  1  0
 22 21  2  0
 23 12  1  0
 23 28  1  0
 24 23  2  0
 26 25  1  0
 27 28  1  0
 27 26  1  1
 29 27  1  0
 29 30  1  0
 31 29  2  0
M  END
$$$$
