HWS.pdb
     RDKit          3D

 31 33  0  0  1  0  0  0  0  0999 V2000
    8.7836  -16.5837   18.9125 N   0  0  0  0  0  0  0  0  0  0  0  0
   10.0523  -15.9560   19.3148 C   0  0  1  0  0  0  0  0  0  0  0  0
   10.2778  -14.7119   18.5263 C   0  0  0  0  0  0  0  0  0  0  0  0
    9.0927  -14.2797   17.7639 C   0  0  0  0  0  0  0  0  0  0  0  0
    8.2188  -13.2615   18.1992 C   0  0  0  0  0  0  0  0  0  0  0  0
    7.2524  -13.1143   17.2843 N   0  0  0  0  0  0  0  0  0  0  0  0
    7.4573  -13.9873   16.2775 C   0  0  0  0  0  0  0  0  0  0  0  0
    8.5681  -14.6699   16.5968 N   0  0  0  0  0  0  0  0  0  0  0  0
    9.9725  -15.6322   20.7696 C   0  0  0  0  0  0  0  0  0  0  0  0
   10.8993  -15.0740   21.3591 O   0  0  0  0  0  0  0  0  0  0  0  0
    8.8046  -15.9674   21.5149 N   0  0  0  0  0  0  0  0  0  0  0  0
    8.7352  -15.6837   22.9579 C   0  0  1  0  0  0  0  0  0  0  0  0
    7.2423  -15.5919   23.2998 C   0  0  0  0  0  0  0  0  0  0  0  0
    7.0933  -15.1623   24.6946 C   0  0  0  0  0  0  0  0  0  0  0  0
    6.7926  -15.9104   25.8125 C   0  0  0  0  0  0  0  0  0  0  0  0
    6.7511  -15.1299   26.8934 N   0  0  0  0  0  0  0  0  0  0  0  0
    7.0228  -13.8520   26.5149 C   0  0  0  0  0  0  0  0  0  0  0  0
    7.1027  -12.6783   27.2412 C   0  0  0  0  0  0  0  0  0  0  0  0
    7.4024  -11.5079   26.5729 C   0  0  0  0  0  0  0  0  0  0  0  0
    7.6187  -11.5055   25.2066 C   0  0  0  0  0  0  0  0  0  0  0  0
    7.5360  -12.6770   24.5008 C   0  0  0  0  0  0  0  0  0  0  0  0
    7.2365  -13.8522   25.1623 C   0  0  0  0  0  0  0  0  0  0  0  0
    9.2767  -16.8177   23.7381 C   0  0  0  0  0  0  0  0  0  0  0  0
    8.9192  -17.9963   23.4870 O   0  0  0  0  0  0  0  0  0  0  0  0
   12.8059  -16.5163   25.9534 O   0  0  0  0  0  0  0  0  0  0  0  0
   12.3111  -17.7138   25.5005 C   0  0  0  0  0  0  0  0  0  0  0  0
   10.7992  -17.7748   25.4965 C   0  0  2  0  0  0  0  0  0  0  0  0
   10.2149  -16.6555   24.7982 N   0  0  0  0  0  0  0  0  0  0  0  0
   10.3237  -17.7148   26.9036 C   0  0  0  0  0  0  0  0  0  0  0  0
   10.6622  -18.6751   27.8451 O   0  0  0  0  0  0  0  0  0  0  0  0
    9.5884  -16.7462   27.2240 O   0  0  0  0  0  0  0  0  0  0  0  0
  2  1  1  6
  2  3  1  0
  3  4  1  0
  4  5  2  0
  6  5  1  0
  7  6  1  0
  8  7  2  0
  8  4  1  0
  9  2  1  0
 10  9  2  0
 11  9  1  0
 12 11  1  0
 12 13  1  1
 14 13  1  0
 14 22  1  0
 15 16  1  0
 15 14  2  0
 16 17  1  0
 17 18  2  0
 17 22  1  0
 18 19  1  0
 19 20  2  0
 21 20  1  0
 22 21  2  0
 23 12  1  0
 23 28  1  0
 24 23  2  0
 26 25  1  0
 27 28  1  0
 27 26  1  1
 29 27  1  0
 29 30  1  0
 31 29  2  0
M  END
$$$$
