YYV.pdb
     RDKit          3D

 32 33  0  0  1  0  0  0  0  0999 V2000
    8.2587  -22.9846   17.9558 O   0  0  0  0  0  0  0  0  0  0  0  0
    8.7111  -22.0252   18.8358 C   0  0  0  0  0  0  0  0  0  0  0  0
    9.9774  -21.4687   18.6458 C   0  0  0  0  0  0  0  0  0  0  0  0
   10.4595  -20.4946   19.5235 C   0  0  0  0  0  0  0  0  0  0  0  0
    9.6799  -20.0850   20.5779 C   0  0  0  0  0  0  0  0  0  0  0  0
   10.1477  -19.0599   21.5291 C   0  0  0  0  0  0  0  0  0  0  0  0
    9.7445  -17.7091   20.9774 C   0  0  2  0  0  0  0  0  0  0  0  0
   10.6410  -17.4025   19.8809 N   0  0  0  0  0  0  0  0  0  0  0  0
    9.7917  -16.6450   22.0220 C   0  0  0  0  0  0  0  0  0  0  0  0
   10.8697  -16.0628   22.3068 O   0  0  0  0  0  0  0  0  0  0  0  0
    8.4392  -20.6528   20.7360 C   0  0  0  0  0  0  0  0  0  0  0  0
    7.9370  -21.6084   19.8954 C   0  0  0  0  0  0  0  0  0  0  0  0
    6.6688  -11.0534   27.8674 O   0  0  0  0  0  0  0  0  0  0  0  0
    6.7708  -11.9714   26.8503 C   0  0  0  0  0  0  0  0  0  0  0  0
    6.3119  -13.2726   27.0336 C   0  0  0  0  0  0  0  0  0  0  0  0
    6.4156  -14.1915   26.0111 C   0  0  0  0  0  0  0  0  0  0  0  0
    6.9773  -13.7862   24.8263 C   0  0  0  0  0  0  0  0  0  0  0  0
    7.0942  -14.7683   23.7173 C   0  0  0  0  0  0  0  0  0  0  0  0
    8.5126  -15.2892   23.7103 C   0  0  2  0  0  0  0  0  0  0  0  0
    8.5813  -16.3106   22.6840 N   0  0  0  0  0  0  0  0  0  0  0  0
    8.8813  -15.9342   24.9926 C   0  0  0  0  0  0  0  0  0  0  0  0
    8.3111  -16.9764   25.4026 O   0  0  0  0  0  0  0  0  0  0  0  0
    7.4363  -12.4981   24.6319 C   0  0  0  0  0  0  0  0  0  0  0  0
    7.3299  -11.5993   25.6457 C   0  0  0  0  0  0  0  0  0  0  0  0
   12.7399  -15.3420   26.8700 C   0  0  0  0  0  0  0  0  0  0  0  0
   11.8032  -16.5044   26.9610 C   0  0  2  0  0  0  0  0  0  0  0  0
   11.9925  -17.5098   25.8600 C   0  0  0  0  0  0  0  0  0  0  0  0
   10.3376  -16.0596   27.0539 C   0  0  2  0  0  0  0  0  0  0  0  0
    9.9142  -15.3978   25.8358 N   0  0  0  0  0  0  0  0  0  0  0  0
   10.1327  -15.2032   28.2461 C   0  0  0  0  0  0  0  0  0  0  0  0
    9.7770  -13.8786   28.0386 O   0  0  0  0  0  0  0  0  0  0  0  0
   10.2599  -15.5983   29.4312 O   0  0  0  0  0  0  0  0  0  0  0  0
  2  1  1  0
  3  2  2  0
  4  3  1  0
  5  4  2  0
  5 11  1  0
  6  5  1  0
  7  8  1  6
  7  9  1  0
  7  6  1  0
  9 20  1  0
 10  9  2  0
 11 12  2  0
 12  2  1  0
 14 13  1  0
 15 14  2  0
 16 15  1  0
 17 16  2  0
 17 23  1  0
 18 17  1  0
 19 18  1  1
 20 19  1  0
 21 29  1  0
 21 19  1  0
 22 21  2  0
 23 24  2  0
 24 14  1  0
 26 25  1  6
 26 27  1  0
 26 28  1  0
 28 29  1  6
 28 30  1  0
 30 31  1  0
 32 30  2  0
M  END
$$$$
