YYV.pdb
     RDKit          3D

 32 33  0  0  1  0  0  0  0  0999 V2000
    8.4066  -13.8264   14.7578 O   0  0  0  0  0  0  0  0  0  0  0  0
    7.9445  -14.2005   16.0012 C   0  0  0  0  0  0  0  0  0  0  0  0
    8.0827  -13.3175   17.0738 C   0  0  0  0  0  0  0  0  0  0  0  0
    7.6226  -13.6725   18.3443 C   0  0  0  0  0  0  0  0  0  0  0  0
    7.0317  -14.8979   18.5346 C   0  0  0  0  0  0  0  0  0  0  0  0
    6.5316  -15.3147   19.8577 C   0  0  0  0  0  0  0  0  0  0  0  0
    7.6805  -15.1975   20.8363 C   0  0  2  0  0  0  0  0  0  0  0  0
    8.7365  -16.0756   20.3739 N   0  0  0  0  0  0  0  0  0  0  0  0
    7.2649  -15.5448   22.2264 C   0  0  0  0  0  0  0  0  0  0  0  0
    6.2240  -15.0540   22.7341 O   0  0  0  0  0  0  0  0  0  0  0  0
    6.9114  -15.7426   17.4581 C   0  0  0  0  0  0  0  0  0  0  0  0
    7.3509  -15.4265   16.2016 C   0  0  0  0  0  0  0  0  0  0  0  0
    5.2382  -21.9590   22.0270 O   0  0  0  0  0  0  0  0  0  0  0  0
    6.0282  -21.0231   22.6498 C   0  0  0  0  0  0  0  0  0  0  0  0
    7.2362  -20.6350   22.0777 C   0  0  0  0  0  0  0  0  0  0  0  0
    8.0268  -19.6958   22.7049 C   0  0  0  0  0  0  0  0  0  0  0  0
    7.5893  -19.1656   23.8928 C   0  0  0  0  0  0  0  0  0  0  0  0
    8.4333  -18.1524   24.5778 C   0  0  0  0  0  0  0  0  0  0  0  0
    7.8114  -16.7962   24.3383 C   0  0  2  0  0  0  0  0  0  0  0  0
    8.0816  -16.4467   22.9576 N   0  0  0  0  0  0  0  0  0  0  0  0
    8.4205  -15.7412   25.1823 C   0  0  0  0  0  0  0  0  0  0  0  0
    9.6426  -15.4561   25.1142 O   0  0  0  0  0  0  0  0  0  0  0  0
    6.3927  -19.5424   24.4707 C   0  0  0  0  0  0  0  0  0  0  0  0
    5.6202  -20.4689   23.8449 C   0  0  0  0  0  0  0  0  0  0  0  0
    6.4682  -12.3229   26.0714 C   0  0  0  0  0  0  0  0  0  0  0  0
    7.1536  -12.8703   27.2827 C   0  0  2  0  0  0  0  0  0  0  0  0
    7.7313  -11.8058   28.1726 C   0  0  0  0  0  0  0  0  0  0  0  0
    8.2128  -13.9204   26.9221 C   0  0  2  0  0  0  0  0  0  0  0  0
    7.6407  -14.9876   26.1253 N   0  0  0  0  0  0  0  0  0  0  0  0
    8.8654  -14.4374   28.1483 C   0  0  0  0  0  0  0  0  0  0  0  0
    9.6709  -13.5679   28.8691 O   0  0  0  0  0  0  0  0  0  0  0  0
    8.7369  -15.6106   28.5772 O   0  0  0  0  0  0  0  0  0  0  0  0
  2  1  1  0
  3  2  2  0
  4  3  1  0
  5  4  2  0
  5 11  1  0
  6  5  1  0
  7  8  1  6
  7  9  1  0
  7  6  1  0
  9 20  1  0
 10  9  2  0
 11 12  2  0
 12  2  1  0
 14 13  1  0
 15 14  2  0
 16 15  1  0
 17 16  2  0
 17 23  1  0
 18 17  1  0
 19 18  1  1
 20 19  1  0
 21 29  1  0
 21 19  1  0
 22 21  2  0
 23 24  2  0
 24 14  1  0
 26 25  1  6
 26 27  1  0
 26 28  1  0
 28 29  1  1
 28 30  1  0
 30 31  1  0
 32 30  2  0
M  END
$$$$
