YYV.pdb
     RDKit          3D

 32 33  0  0  1  0  0  0  0  0999 V2000
    9.4885  -13.4031   15.6636 O   0  0  0  0  0  0  0  0  0  0  0  0
    8.8767  -13.6622   16.8710 C   0  0  0  0  0  0  0  0  0  0  0  0
    9.5848  -14.3460   17.8612 C   0  0  0  0  0  0  0  0  0  0  0  0
    8.9876  -14.6212   19.0938 C   0  0  0  0  0  0  0  0  0  0  0  0
    7.6965  -14.2150   19.3286 C   0  0  0  0  0  0  0  0  0  0  0  0
    7.0262  -14.4836   20.6142 C   0  0  0  0  0  0  0  0  0  0  0  0
    6.8540  -15.9828   20.7334 C   0  0  2  0  0  0  0  0  0  0  0  0
    5.7166  -16.3558   19.9166 N   0  0  0  0  0  0  0  0  0  0  0  0
    6.6598  -16.4097   22.1497 C   0  0  0  0  0  0  0  0  0  0  0  0
    5.5263  -16.3601   22.6927 O   0  0  0  0  0  0  0  0  0  0  0  0
    7.0283  -13.5446   18.3331 C   0  0  0  0  0  0  0  0  0  0  0  0
    7.5831  -13.2591   17.1155 C   0  0  0  0  0  0  0  0  0  0  0  0
    8.8605  -19.2095   30.0497 O   0  0  0  0  0  0  0  0  0  0  0  0
    8.7957  -18.9994   28.6934 C   0  0  0  0  0  0  0  0  0  0  0  0
    7.5729  -19.0687   28.0324 C   0  0  0  0  0  0  0  0  0  0  0  0
    7.5110  -18.8574   26.6715 C   0  0  0  0  0  0  0  0  0  0  0  0
    8.6768  -18.5810   26.0021 C   0  0  0  0  0  0  0  0  0  0  0  0
    8.6220  -18.3515   24.5350 C   0  0  0  0  0  0  0  0  0  0  0  0
    7.7638  -17.1319   24.2908 C   0  0  2  0  0  0  0  0  0  0  0  0
    7.7950  -16.8734   22.8648 N   0  0  0  0  0  0  0  0  0  0  0  0
    8.2975  -15.9246   24.9645 C   0  0  0  0  0  0  0  0  0  0  0  0
    9.4200  -15.4403   24.6735 O   0  0  0  0  0  0  0  0  0  0  0  0
    9.8964  -18.5094   26.6465 C   0  0  0  0  0  0  0  0  0  0  0  0
    9.9474  -18.7192   27.9882 C   0  0  0  0  0  0  0  0  0  0  0  0
    7.5216  -11.6566   27.2074 C   0  0  0  0  0  0  0  0  0  0  0  0
    7.0017  -12.9289   26.6178 C   0  0  2  0  0  0  0  0  0  0  0  0
    5.7127  -13.3900   27.2380 C   0  0  0  0  0  0  0  0  0  0  0  0
    8.0526  -14.0468   26.6377 C   0  0  2  0  0  0  0  0  0  0  0  0
    7.5546  -15.2438   25.9893 N   0  0  0  0  0  0  0  0  0  0  0  0
    8.4939  -14.3156   28.0268 C   0  0  0  0  0  0  0  0  0  0  0  0
    9.2217  -13.3300   28.6773 O   0  0  0  0  0  0  0  0  0  0  0  0
    8.2522  -15.3768   28.6531 O   0  0  0  0  0  0  0  0  0  0  0  0
  2  1  1  0
  3  2  2  0
  4  3  1  0
  5  4  2  0
  5 11  1  0
  6  5  1  0
  7  8  1  6
  7  9  1  0
  7  6  1  0
  9 20  1  0
 10  9  2  0
 11 12  2  0
 12  2  1  0
 14 13  1  0
 15 14  2  0
 16 15  1  0
 17 16  2  0
 17 23  1  0
 18 17  1  0
 19 18  1  6
 20 19  1  0
 21 29  1  0
 21 19  1  0
 22 21  2  0
 23 24  2  0
 24 14  1  0
 26 25  1  1
 26 27  1  0
 26 28  1  0
 28 29  1  1
 28 30  1  0
 30 31  1  0
 32 30  2  0
M  END
$$$$
