YYV.pdb
     RDKit          3D

 32 33  0  0  1  0  0  0  0  0999 V2000
    9.0931  -12.7742   15.9959 O   0  0  0  0  0  0  0  0  0  0  0  0
    8.5525  -13.2011   17.1896 C   0  0  0  0  0  0  0  0  0  0  0  0
    7.1644  -13.2357   17.3356 C   0  0  0  0  0  0  0  0  0  0  0  0
    6.5911  -13.6643   18.5353 C   0  0  0  0  0  0  0  0  0  0  0  0
    7.4013  -14.0530   19.5743 C   0  0  0  0  0  0  0  0  0  0  0  0
    6.8403  -14.5125   20.8583 C   0  0  0  0  0  0  0  0  0  0  0  0
    7.1072  -15.9987   20.9658 C   0  0  2  0  0  0  0  0  0  0  0  0
    6.1693  -16.6730   20.0908 N   0  0  0  0  0  0  0  0  0  0  0  0
    6.9769  -16.4872   22.3695 C   0  0  0  0  0  0  0  0  0  0  0  0
    5.8486  -16.7267   22.8710 O   0  0  0  0  0  0  0  0  0  0  0  0
    8.7627  -14.0069   19.3974 C   0  0  0  0  0  0  0  0  0  0  0  0
    9.3564  -13.5926   18.2365 C   0  0  0  0  0  0  0  0  0  0  0  0
    9.2008  -19.0771   30.2902 O   0  0  0  0  0  0  0  0  0  0  0  0
    9.1789  -18.8265   28.9394 C   0  0  0  0  0  0  0  0  0  0  0  0
    8.0090  -19.0206   28.2107 C   0  0  0  0  0  0  0  0  0  0  0  0
    7.9902  -18.7683   26.8555 C   0  0  0  0  0  0  0  0  0  0  0  0
    9.1449  -18.3267   26.2596 C   0  0  0  0  0  0  0  0  0  0  0  0
    9.1362  -18.0517   24.7993 C   0  0  0  0  0  0  0  0  0  0  0  0
    8.1540  -16.9313   24.5471 C   0  0  2  0  0  0  0  0  0  0  0  0
    8.1669  -16.6728   23.1208 N   0  0  0  0  0  0  0  0  0  0  0  0
    8.5507  -15.6729   25.2218 C   0  0  0  0  0  0  0  0  0  0  0  0
    9.6318  -15.0883   24.9596 O   0  0  0  0  0  0  0  0  0  0  0  0
   10.3120  -18.1303   26.9716 C   0  0  0  0  0  0  0  0  0  0  0  0
   10.3209  -18.3816   28.3070 C   0  0  0  0  0  0  0  0  0  0  0  0
    6.0429  -12.6553   25.9402 C   0  0  0  0  0  0  0  0  0  0  0  0
    6.8340  -12.9650   27.1711 C   0  0  2  0  0  0  0  0  0  0  0  0
    7.1968  -11.7442   27.9690 C   0  0  0  0  0  0  0  0  0  0  0  0
    8.0773  -13.8095   26.8616 C   0  0  2  0  0  0  0  0  0  0  0  0
    7.7152  -15.0550   26.2146 N   0  0  0  0  0  0  0  0  0  0  0  0
    8.8659  -14.0384   28.0954 C   0  0  0  0  0  0  0  0  0  0  0  0
    9.5013  -12.9472   28.6698 O   0  0  0  0  0  0  0  0  0  0  0  0
    8.9965  -15.1551   28.6546 O   0  0  0  0  0  0  0  0  0  0  0  0
  2  1  1  0
  3  2  2  0
  4  3  1  0
  5  4  2  0
  5 11  1  0
  6  5  1  0
  7  8  1  6
  7  9  1  0
  7  6  1  0
  9 20  1  0
 10  9  2  0
 11 12  2  0
 12  2  1  0
 14 13  1  0
 15 14  2  0
 16 15  1  0
 17 16  2  0
 17 23  1  0
 18 17  1  0
 19 18  1  6
 20 19  1  0
 21 29  1  0
 21 19  1  0
 22 21  2  0
 23 24  2  0
 24 14  1  0
 26 25  1  6
 26 27  1  0
 26 28  1  0
 28 29  1  1
 28 30  1  0
 30 31  1  0
 32 30  2  0
M  END
$$$$
