FIC.pdb
     RDKit          3D

 26 26  0  0  1  0  0  0  0  0999 V2000
    6.2787  -17.9795   25.6386 N   0  0  0  0  0  0  0  0  0  0  0  0
    6.6423  -16.6563   25.1888 C   0  0  1  0  0  0  0  0  0  0  0  0
    7.5853  -15.9801   26.1807 C   0  0  0  0  0  0  0  0  0  0  0  0
    7.2636  -14.5617   26.3830 C   0  0  0  0  0  0  0  0  0  0  0  0
    8.1908  -13.7373   26.9574 C   0  0  0  0  0  0  0  0  0  0  0  0
    7.8509  -12.4092   27.1310 C   0  0  0  0  0  0  0  0  0  0  0  0
    6.6167  -11.9379   26.7358 C   0  0  0  0  0  0  0  0  0  0  0  0
    5.7190  -12.7962   26.1655 C   0  0  0  0  0  0  0  0  0  0  0  0
    6.0103  -14.1183   25.9735 C   0  0  0  0  0  0  0  0  0  0  0  0
    7.3570  -16.7549   23.9106 C   0  0  0  0  0  0  0  0  0  0  0  0
    7.6532  -17.9006   23.4498 O   0  0  0  0  0  0  0  0  0  0  0  0
    6.6298  -12.5327   20.5022 C   0  0  0  0  0  0  0  0  0  0  0  0
    6.7703  -13.9631   20.9380 C   0  0  0  0  0  0  0  0  0  0  0  0
    8.1935  -14.3331   21.2425 C   0  0  2  0  0  0  0  0  0  0  0  0
    9.0195  -14.2028   19.9925 C   0  0  0  0  0  0  0  0  0  0  0  0
    8.3498  -15.6918   21.8507 C   0  0  2  0  0  0  0  0  0  0  0  0
    7.7240  -15.6272   23.1811 N   0  0  0  0  0  0  0  0  0  0  0  0
    9.7583  -16.1020   22.0081 C   0  0  0  0  0  0  0  0  0  0  0  0
   10.4659  -16.3066   20.9903 O   0  0  0  0  0  0  0  0  0  0  0  0
   10.4049  -16.2917   23.2526 N   0  0  0  0  0  0  0  0  0  0  0  0
   11.7526  -16.6878   23.3369 C   0  0  1  0  0  0  0  0  0  0  0  0
   12.6978  -15.7616   24.0251 C   0  0  0  0  0  0  0  0  0  0  0  0
   12.0108  -15.3643   25.6705 S   0  0  0  0  0  0  0  0  0  0  0  0
   11.9266  -18.0365   23.9901 C   0  0  0  0  0  0  0  0  0  0  0  0
   13.1997  -18.5933   24.0061 O   0  0  0  0  0  0  0  0  0  0  0  0
   10.9709  -18.6391   24.5002 O   0  0  0  0  0  0  0  0  0  0  0  0
  2  1  1  1
  3  2  1  0
  4  3  1  0
  5  4  2  0
  6  5  1  0
  7  6  2  0
  7  8  1  0
  8  9  2  0
  9  4  1  0
 10  2  1  0
 10 17  1  0
 11 10  2  0
 13 12  1  0
 14 16  1  0
 14 13  1  0
 14 15  1  6
 16 17  1  1
 18 16  1  0
 19 18  2  0
 20 18  1  0
 21 22  1  1
 21 20  1  0
 22 23  1  0
 24 25  1  0
 24 21  1  0
 26 24  2  0
M  END
$$$$
