FIC.pdb
     RDKit          3D

 26 26  0  0  1  0  0  0  0  0999 V2000
    5.5308  -17.8501   24.9614 N   0  0  0  0  0  0  0  0  0  0  0  0
    6.0502  -16.5027   24.9592 C   0  0  1  0  0  0  0  0  0  0  0  0
    6.5076  -16.0891   26.3557 C   0  0  0  0  0  0  0  0  0  0  0  0
    6.7491  -14.6446   26.4621 C   0  0  0  0  0  0  0  0  0  0  0  0
    8.0273  -14.1867   26.6225 C   0  0  0  0  0  0  0  0  0  0  0  0
    8.2141  -12.8209   26.7187 C   0  0  0  0  0  0  0  0  0  0  0  0
    7.1430  -11.9548   26.6542 C   0  0  0  0  0  0  0  0  0  0  0  0
    5.8812  -12.4547   26.4932 C   0  0  0  0  0  0  0  0  0  0  0  0
    5.6473  -13.7981   26.3933 C   0  0  0  0  0  0  0  0  0  0  0  0
    7.2245  -16.4341   24.0813 C   0  0  0  0  0  0  0  0  0  0  0  0
    8.0683  -17.3830   24.0950 O   0  0  0  0  0  0  0  0  0  0  0  0
    6.9961  -12.6069   20.0406 C   0  0  0  0  0  0  0  0  0  0  0  0
    7.1650  -13.9318   20.7275 C   0  0  0  0  0  0  0  0  0  0  0  0
    8.4270  -14.0011   21.5384 C   0  0  2  0  0  0  0  0  0  0  0  0
    9.6088  -13.7563   20.6411 C   0  0  0  0  0  0  0  0  0  0  0  0
    8.5876  -15.2783   22.3021 C   0  0  2  0  0  0  0  0  0  0  0  0
    7.4464  -15.3564   23.2280 N   0  0  0  0  0  0  0  0  0  0  0  0
    9.8377  -15.3377   23.0835 C   0  0  0  0  0  0  0  0  0  0  0  0
   10.0734  -14.4599   23.9509 O   0  0  0  0  0  0  0  0  0  0  0  0
   10.8309  -16.3349   22.9346 N   0  0  0  0  0  0  0  0  0  0  0  0
   12.0249  -16.3112   23.6788 C   0  0  1  0  0  0  0  0  0  0  0  0
   12.0390  -17.0469   24.9763 C   0  0  0  0  0  0  0  0  0  0  0  0
   11.2043  -18.6531   24.7305 S   0  0  0  0  0  0  0  0  0  0  0  0
   13.2136  -16.8087   22.8943 C   0  0  0  0  0  0  0  0  0  0  0  0
   12.9796  -17.3820   21.6502 O   0  0  0  0  0  0  0  0  0  0  0  0
   14.3683  -16.7145   23.3355 O   0  0  0  0  0  0  0  0  0  0  0  0
  2  1  1  1
  3  2  1  0
  4  3  1  0
  5  4  2  0
  6  5  1  0
  7  6  2  0
  7  8  1  0
  8  9  2  0
  9  4  1  0
 10  2  1  0
 10 17  1  0
 11 10  2  0
 13 12  1  0
 14 16  1  0
 14 13  1  0
 14 15  1  6
 16 17  1  1
 18 16  1  0
 19 18  2  0
 20 18  1  0
 21 22  1  1
 21 20  1  0
 22 23  1  0
 24 25  1  0
 24 21  1  0
 26 24  2  0
M  END
$$$$
