FIC.pdb
     RDKit          3D

 26 26  0  0  1  0  0  0  0  0999 V2000
    7.1230  -19.0676   27.2033 N   0  0  0  0  0  0  0  0  0  0  0  0
    7.6657  -17.7514   27.4452 C   0  0  1  0  0  0  0  0  0  0  0  0
    8.9799  -17.8338   28.2177 C   0  0  0  0  0  0  0  0  0  0  0  0
    9.4519  -16.5168   28.6637 C   0  0  0  0  0  0  0  0  0  0  0  0
   10.7932  -16.2993   28.8151 C   0  0  0  0  0  0  0  0  0  0  0  0
   11.1983  -15.0471   29.2365 C   0  0  0  0  0  0  0  0  0  0  0  0
   10.2756  -14.0551   29.4938 C   0  0  0  0  0  0  0  0  0  0  0  0
    8.9438  -14.3149   29.3297 C   0  0  0  0  0  0  0  0  0  0  0  0
    8.4956  -15.5382   28.9148 C   0  0  0  0  0  0  0  0  0  0  0  0
    7.9580  -17.1010   26.1623 C   0  0  0  0  0  0  0  0  0  0  0  0
    8.3206  -17.8101   25.1732 O   0  0  0  0  0  0  0  0  0  0  0  0
    6.4733  -12.1923   26.5250 C   0  0  0  0  0  0  0  0  0  0  0  0
    6.4333  -13.2611   25.4707 C   0  0  0  0  0  0  0  0  0  0  0  0
    7.7975  -13.5927   24.9377 C   0  0  2  0  0  0  0  0  0  0  0  0
    8.0524  -12.7917   23.6906 C   0  0  0  0  0  0  0  0  0  0  0  0
    8.0138  -15.0532   24.6917 C   0  0  2  0  0  0  0  0  0  0  0  0
    7.8504  -15.7233   25.9917 N   0  0  0  0  0  0  0  0  0  0  0  0
    9.3560  -15.3634   24.1631 C   0  0  0  0  0  0  0  0  0  0  0  0
   10.3656  -14.8006   24.6554 O   0  0  0  0  0  0  0  0  0  0  0  0
    9.6136  -16.2737   23.1106 N   0  0  0  0  0  0  0  0  0  0  0  0
   10.8952  -16.4143   22.5470 C   0  0  1  0  0  0  0  0  0  0  0  0
   11.5543  -17.7472   22.6657 C   0  0  0  0  0  0  0  0  0  0  0  0
   11.3003  -18.3596   24.3680 S   0  0  0  0  0  0  0  0  0  0  0  0
   10.9346  -16.0487   21.0838 C   0  0  0  0  0  0  0  0  0  0  0  0
   12.1737  -16.0054   20.4562 O   0  0  0  0  0  0  0  0  0  0  0  0
    9.9002  -15.7927   20.4505 O   0  0  0  0  0  0  0  0  0  0  0  0
  2  1  1  6
  3  2  1  0
  4  3  1  0
  5  4  2  0
  6  5  1  0
  7  6  2  0
  7  8  1  0
  8  9  2  0
  9  4  1  0
 10  2  1  0
 10 17  1  0
 11 10  2  0
 13 12  1  0
 14 16  1  0
 14 13  1  0
 14 15  1  6
 16 17  1  1
 18 16  1  0
 19 18  2  0
 20 18  1  0
 21 22  1  6
 21 20  1  0
 22 23  1  0
 24 25  1  0
 24 21  1  0
 26 24  2  0
M  END
$$$$
