FIC.pdb
     RDKit          3D

 26 26  0  0  1  0  0  0  0  0999 V2000
    6.2712  -16.9953   25.7572 N   0  0  0  0  0  0  0  0  0  0  0  0
    6.7580  -15.8030   25.1041 C   0  0  1  0  0  0  0  0  0  0  0  0
    7.6913  -15.0174   26.0219 C   0  0  0  0  0  0  0  0  0  0  0  0
    7.1129  -13.7363   26.4467 C   0  0  0  0  0  0  0  0  0  0  0  0
    7.5427  -13.1568   27.6080 C   0  0  0  0  0  0  0  0  0  0  0  0
    6.9746  -11.9514   27.9741 C   0  0  0  0  0  0  0  0  0  0  0  0
    6.0074  -11.3588   27.1900 C   0  0  0  0  0  0  0  0  0  0  0  0
    5.6063  -11.9722   26.0364 C   0  0  0  0  0  0  0  0  0  0  0  0
    6.1395  -13.1651   25.6334 C   0  0  0  0  0  0  0  0  0  0  0  0
    7.5347  -16.1795   23.9169 C   0  0  0  0  0  0  0  0  0  0  0  0
    7.8264  -17.4006   23.7255 O   0  0  0  0  0  0  0  0  0  0  0  0
    7.0813  -12.7915   19.7797 C   0  0  0  0  0  0  0  0  0  0  0  0
    7.2076  -14.1037   20.4993 C   0  0  0  0  0  0  0  0  0  0  0  0
    8.6303  -14.4305   20.8514 C   0  0  2  0  0  0  0  0  0  0  0  0
    9.4108  -14.6774   19.5898 C   0  0  0  0  0  0  0  0  0  0  0  0
    8.7713  -15.5769   21.8035 C   0  0  2  0  0  0  0  0  0  0  0  0
    7.9654  -15.2370   22.9870 N   0  0  0  0  0  0  0  0  0  0  0  0
   10.1639  -15.8137   22.2294 C   0  0  0  0  0  0  0  0  0  0  0  0
   10.5581  -15.3819   23.3413 O   0  0  0  0  0  0  0  0  0  0  0  0
   11.1295  -16.5112   21.4652 N   0  0  0  0  0  0  0  0  0  0  0  0
   12.1911  -17.2103   22.0687 C   0  0  1  0  0  0  0  0  0  0  0  0
   11.8402  -18.2637   23.0648 C   0  0  0  0  0  0  0  0  0  0  0  0
   13.3925  -18.9436   23.7469 S   0  0  0  0  0  0  0  0  0  0  0  0
   13.1086  -17.8627   21.0643 C   0  0  0  0  0  0  0  0  0  0  0  0
   14.4760  -17.6561   21.2005 O   0  0  0  0  0  0  0  0  0  0  0  0
   12.6678  -18.5635   20.1417 O   0  0  0  0  0  0  0  0  0  0  0  0
  2  1  1  1
  3  2  1  0
  4  3  1  0
  5  4  2  0
  6  5  1  0
  7  6  2  0
  7  8  1  0
  8  9  2  0
  9  4  1  0
 10  2  1  0
 10 17  1  0
 11 10  2  0
 13 12  1  0
 14 16  1  0
 14 13  1  0
 14 15  1  6
 16 17  1  1
 18 16  1  0
 19 18  2  0
 20 18  1  0
 21 22  1  1
 21 20  1  0
 22 23  1  0
 24 25  1  0
 24 21  1  0
 26 24  2  0
M  END
$$$$
