FIC.pdb
     RDKit          3D

 26 26  0  0  1  0  0  0  0  0999 V2000
    5.4494  -17.6593   24.8298 N   0  0  0  0  0  0  0  0  0  0  0  0
    6.1107  -16.3786   24.7411 C   0  0  1  0  0  0  0  0  0  0  0  0
    6.7383  -15.9919   26.0779 C   0  0  0  0  0  0  0  0  0  0  0  0
    6.8074  -14.5372   26.2654 C   0  0  0  0  0  0  0  0  0  0  0  0
    5.6512  -13.8232   26.4163 C   0  0  0  0  0  0  0  0  0  0  0  0
    5.7573  -12.4564   26.5904 C   0  0  0  0  0  0  0  0  0  0  0  0
    6.9907  -11.8400   26.6102 C   0  0  0  0  0  0  0  0  0  0  0  0
    8.1218  -12.5914   26.4556 C   0  0  0  0  0  0  0  0  0  0  0  0
    8.0666  -13.9463   26.2805 C   0  0  0  0  0  0  0  0  0  0  0  0
    7.1987  -16.4584   23.7592 C   0  0  0  0  0  0  0  0  0  0  0  0
    7.6923  -17.5916   23.4677 O   0  0  0  0  0  0  0  0  0  0  0  0
    6.9809  -12.5104   20.1098 C   0  0  0  0  0  0  0  0  0  0  0  0
    7.1518  -13.8838   20.6931 C   0  0  0  0  0  0  0  0  0  0  0  0
    8.5236  -14.0977   21.2653 C   0  0  2  0  0  0  0  0  0  0  0  0
    9.5431  -13.9963   20.1643 C   0  0  0  0  0  0  0  0  0  0  0  0
    8.6727  -15.3823   22.0190 C   0  0  2  0  0  0  0  0  0  0  0  0
    7.7118  -15.3260   23.1321 N   0  0  0  0  0  0  0  0  0  0  0  0
   10.0267  -15.5815   22.5702 C   0  0  0  0  0  0  0  0  0  0  0  0
   11.0301  -15.4320   21.8291 O   0  0  0  0  0  0  0  0  0  0  0  0
   10.3028  -15.9398   23.9112 N   0  0  0  0  0  0  0  0  0  0  0  0
   11.6193  -16.1010   24.3811 C   0  0  1  0  0  0  0  0  0  0  0  0
   11.8991  -15.6972   25.7896 C   0  0  0  0  0  0  0  0  0  0  0  0
   10.3151  -15.6642   26.6989 S   0  0  0  0  0  0  0  0  0  0  0  0
   12.1237  -17.5155   24.2355 C   0  0  0  0  0  0  0  0  0  0  0  0
   13.4602  -17.7635   24.5240 O   0  0  0  0  0  0  0  0  0  0  0  0
   11.3783  -18.4363   23.8705 O   0  0  0  0  0  0  0  0  0  0  0  0
  2  1  1  1
  3  2  1  0
  4  3  1  0
  5  4  2  0
  6  5  1  0
  7  6  2  0
  7  8  1  0
  8  9  2  0
  9  4  1  0
 10  2  1  0
 10 17  1  0
 11 10  2  0
 13 12  1  0
 14 16  1  0
 14 13  1  0
 14 15  1  6
 16 17  1  1
 18 16  1  0
 19 18  2  0
 20 18  1  0
 21 22  1  1
 21 20  1  0
 22 23  1  0
 24 25  1  0
 24 21  1  0
 26 24  2  0
M  END
$$$$
