FIC.pdb
     RDKit          3D

 26 26  0  0  1  0  0  0  0  0999 V2000
    5.3907  -17.8937   24.9336 N   0  0  0  0  0  0  0  0  0  0  0  0
    6.0073  -16.5888   24.9827 C   0  0  1  0  0  0  0  0  0  0  0  0
    6.5329  -16.2832   26.3830 C   0  0  0  0  0  0  0  0  0  0  0  0
    6.8959  -14.8702   26.5500 C   0  0  0  0  0  0  0  0  0  0  0  0
    8.2125  -14.5252   26.6799 C   0  0  0  0  0  0  0  0  0  0  0  0
    8.5141  -13.1856   26.8350 C   0  0  0  0  0  0  0  0  0  0  0  0
    7.5161  -12.2343   26.8572 C   0  0  0  0  0  0  0  0  0  0  0  0
    6.2125  -12.6224   26.7239 C   0  0  0  0  0  0  0  0  0  0  0  0
    5.8656  -13.9358   26.5681 C   0  0  0  0  0  0  0  0  0  0  0  0
    7.1583  -16.5587   24.0724 C   0  0  0  0  0  0  0  0  0  0  0  0
    7.9123  -17.5770   23.9884 O   0  0  0  0  0  0  0  0  0  0  0  0
    6.9841  -12.7991   20.0093 C   0  0  0  0  0  0  0  0  0  0  0  0
    7.1407  -14.0851   20.7692 C   0  0  0  0  0  0  0  0  0  0  0  0
    8.4175  -14.1335   21.5583 C   0  0  2  0  0  0  0  0  0  0  0  0
    9.5830  -13.9203   20.6319 C   0  0  0  0  0  0  0  0  0  0  0  0
    8.5890  -15.3872   22.3578 C   0  0  2  0  0  0  0  0  0  0  0  0
    7.4536  -15.4437   23.2924 N   0  0  0  0  0  0  0  0  0  0  0  0
    9.8440  -15.4178   23.1330 C   0  0  0  0  0  0  0  0  0  0  0  0
   10.0994  -14.4922   23.9431 O   0  0  0  0  0  0  0  0  0  0  0  0
   10.8209  -16.4375   23.0392 N   0  0  0  0  0  0  0  0  0  0  0  0
   12.0898  -16.3076   23.6333 C   0  0  1  0  0  0  0  0  0  0  0  0
   12.4422  -17.2714   24.7158 C   0  0  0  0  0  0  0  0  0  0  0  0
   10.9203  -17.6657   25.6461 S   0  0  0  0  0  0  0  0  0  0  0  0
   13.2148  -16.3646   22.6296 C   0  0  0  0  0  0  0  0  0  0  0  0
   14.4949  -16.0467   23.0668 O   0  0  0  0  0  0  0  0  0  0  0  0
   13.0155  -16.6840   21.4484 O   0  0  0  0  0  0  0  0  0  0  0  0
  2  1  1  1
  3  2  1  0
  4  3  1  0
  5  4  2  0
  6  5  1  0
  7  6  2  0
  7  8  1  0
  8  9  2  0
  9  4  1  0
 10  2  1  0
 10 17  1  0
 11 10  2  0
 13 12  1  0
 14 16  1  0
 14 13  1  0
 14 15  1  6
 16 17  1  1
 18 16  1  0
 19 18  2  0
 20 18  1  0
 21 22  1  1
 21 20  1  0
 22 23  1  0
 24 25  1  0
 24 21  1  0
 26 24  2  0
M  END
$$$$
