QHR.pdb
     RDKit          3D

 31 31  0  0  1  0  0  0  0  0999 V2000
    7.0739  -23.6849   15.8077 N   0  0  0  0  0  0  0  0  0  0  0  0
    6.5794  -22.3524   15.8212 C   0  0  0  0  0  0  0  0  0  0  0  0
    5.6632  -21.9924   15.0144 O   0  0  0  0  0  0  0  0  0  0  0  0
    7.1360  -21.3762   16.7825 C   0  0  0  0  0  0  0  0  0  0  0  0
    8.3229  -21.9514   17.5263 C   0  0  0  0  0  0  0  0  0  0  0  0
    8.7727  -20.9377   18.5407 C   0  0  2  0  0  0  0  0  0  0  0  0
    8.3032  -19.6038   18.2256 N   0  0  0  0  0  0  0  0  0  0  0  0
   10.2544  -20.9591   18.7282 C   0  0  0  0  0  0  0  0  0  0  0  0
   10.8174  -22.0259   19.1265 O   0  0  0  0  0  0  0  0  0  0  0  0
   11.0975  -19.8437   18.4866 N   0  0  0  0  0  0  0  0  0  0  0  0
   12.5564  -20.0041   18.6249 C   0  0  1  0  0  0  0  0  0  0  0  0
   13.2636  -19.1161   17.6241 C   0  0  0  0  0  0  0  0  0  0  0  0
   14.7058  -19.4316   17.6266 C   0  0  0  0  0  0  0  0  0  0  0  0
   15.2933  -20.4015   18.4277 C   0  0  0  0  0  0  0  0  0  0  0  0
   16.6111  -20.4502   18.2007 N   0  0  0  0  0  0  0  0  0  0  0  0
   16.8835  -19.5310   17.2695 C   0  0  0  0  0  0  0  0  0  0  0  0
   15.7358  -18.9238   16.9298 N   0  0  0  0  0  0  0  0  0  0  0  0
   12.9783  -19.6497   19.9987 C   0  0  0  0  0  0  0  0  0  0  0  0
   12.6278  -18.5885   20.5725 O   0  0  0  0  0  0  0  0  0  0  0  0
   12.7585  -22.2950   28.8416 N   0  0  0  0  0  0  0  0  0  0  0  0
   12.6422  -22.6381   27.4707 C   0  0  0  0  0  0  0  0  0  0  0  0
   11.6046  -23.2542   27.0256 N   0  0  0  0  0  0  0  0  0  0  0  0
   13.6728  -22.3116   26.5255 N   0  0  0  0  0  0  0  0  0  0  0  0
   13.5343  -22.5329   25.1170 C   0  0  0  0  0  0  0  0  0  0  0  0
   13.6539  -21.2830   24.2996 C   0  0  0  0  0  0  0  0  0  0  0  0
   14.3248  -21.4567   22.9705 C   0  0  0  0  0  0  0  0  0  0  0  0
   14.1878  -20.1883   22.1649 C   0  0  2  0  0  0  0  0  0  0  0  0
   13.8264  -20.5013   20.7822 N   0  0  0  0  0  0  0  0  0  0  0  0
   15.4135  -19.3795   22.0947 C   0  0  0  0  0  0  0  0  0  0  0  0
   15.7622  -18.4901   23.1408 O   0  0  0  0  0  0  0  0  0  0  0  0
   16.2347  -19.3916   21.1521 O   0  0  0  0  0  0  0  0  0  0  0  0
  2  4  1  0
  2  1  1  0
  3  2  2  0
  5  4  1  0
  6  5  1  0
  6  7  1  6
  8  6  1  0
  9  8  2  0
 10  8  1  0
 11 12  1  6
 11 10  1  0
 12 13  1  0
 13 17  1  0
 13 14  2  0
 14 15  1  0
 16 15  1  0
 17 16  2  0
 18 11  1  0
 19 18  2  0
 20 21  1  0
 21 22  2  0
 23 21  1  0
 24 23  1  0
 25 24  1  0
 27 26  1  1
 26 25  1  0
 27 28  1  0
 28 18  1  0
 29 27  1  0
 29 30  1  0
 31 29  2  0
M  END
$$$$
