QHR.pdb
     RDKit          3D

 31 31  0  0  1  0  0  0  0  0999 V2000
    9.4331  -13.8173   15.3879 N   0  0  0  0  0  0  0  0  0  0  0  0
    8.0181  -13.7278   15.4884 C   0  0  0  0  0  0  0  0  0  0  0  0
    7.2722  -14.1794   14.5613 O   0  0  0  0  0  0  0  0  0  0  0  0
    7.4085  -13.1034   16.6823 C   0  0  0  0  0  0  0  0  0  0  0  0
    8.3689  -13.1003   17.8530 C   0  0  0  0  0  0  0  0  0  0  0  0
    8.5764  -14.5235   18.2891 C   0  0  2  0  0  0  0  0  0  0  0  0
    7.3542  -15.2986   18.2242 N   0  0  0  0  0  0  0  0  0  0  0  0
    9.1964  -14.6041   19.6456 C   0  0  0  0  0  0  0  0  0  0  0  0
   10.3436  -14.0937   19.8385 O   0  0  0  0  0  0  0  0  0  0  0  0
    8.5783  -15.2262   20.7610 N   0  0  0  0  0  0  0  0  0  0  0  0
    9.3726  -15.4668   21.9794 C   0  0  1  0  0  0  0  0  0  0  0  0
    8.4964  -16.0912   23.0437 C   0  0  0  0  0  0  0  0  0  0  0  0
    9.2990  -16.3238   24.2607 C   0  0  0  0  0  0  0  0  0  0  0  0
   10.3989  -15.5615   24.6303 C   0  0  0  0  0  0  0  0  0  0  0  0
   10.9111  -16.0183   25.7791 N   0  0  0  0  0  0  0  0  0  0  0  0
   10.1626  -17.0595   26.1562 C   0  0  0  0  0  0  0  0  0  0  0  0
    9.1974  -17.2370   25.2406 N   0  0  0  0  0  0  0  0  0  0  0  0
   10.5107  -16.3629   21.6750 C   0  0  0  0  0  0  0  0  0  0  0  0
   10.4513  -17.2827   20.8214 O   0  0  0  0  0  0  0  0  0  0  0  0
   15.9224  -12.9693   16.6420 N   0  0  0  0  0  0  0  0  0  0  0  0
   16.7508  -13.6770   17.5496 C   0  0  0  0  0  0  0  0  0  0  0  0
   18.0275  -13.5210   17.5439 N   0  0  0  0  0  0  0  0  0  0  0  0
   16.2011  -14.5919   18.5102 N   0  0  0  0  0  0  0  0  0  0  0  0
   14.7920  -14.7746   18.6918 C   0  0  0  0  0  0  0  0  0  0  0  0
   14.4496  -15.7870   19.7420 C   0  0  0  0  0  0  0  0  0  0  0  0
   13.1377  -15.5652   20.4323 C   0  0  0  0  0  0  0  0  0  0  0  0
   13.0475  -16.4568   21.6462 C   0  0  2  0  0  0  0  0  0  0  0  0
   11.7769  -16.2442   22.3393 N   0  0  0  0  0  0  0  0  0  0  0  0
   14.1019  -16.2290   22.6451 C   0  0  0  0  0  0  0  0  0  0  0  0
   13.9318  -15.2795   23.6827 O   0  0  0  0  0  0  0  0  0  0  0  0
   15.2032  -16.8196   22.6814 O   0  0  0  0  0  0  0  0  0  0  0  0
  2  4  1  0
  2  1  1  0
  3  2  2  0
  5  4  1  0
  6  5  1  0
  6  7  1  1
  8  6  1  0
  9  8  2  0
 10  8  1  0
 11 12  1  1
 11 10  1  0
 12 13  1  0
 13 17  1  0
 13 14  2  0
 14 15  1  0
 16 15  1  0
 17 16  2  0
 18 11  1  0
 19 18  2  0
 20 21  1  0
 21 22  2  0
 23 21  1  0
 24 23  1  0
 25 24  1  0
 27 26  1  6
 26 25  1  0
 27 28  1  0
 28 18  1  0
 29 27  1  0
 29 30  1  0
 31 29  2  0
M  END
$$$$
