QHR.pdb
     RDKit          3D

 31 31  0  0  1  0  0  0  0  0999 V2000
   12.5655  -15.4837   12.7936 N   0  0  0  0  0  0  0  0  0  0  0  0
   11.4786  -16.3985   12.7462 C   0  0  0  0  0  0  0  0  0  0  0  0
   11.2286  -17.0543   11.6845 O   0  0  0  0  0  0  0  0  0  0  0  0
   10.6310  -16.5886   13.9430 C   0  0  0  0  0  0  0  0  0  0  0  0
   11.1494  -15.7865   15.1180 C   0  0  0  0  0  0  0  0  0  0  0  0
   11.2879  -16.7153   16.2914 C   0  0  2  0  0  0  0  0  0  0  0  0
   10.2563  -17.7324   16.3079 N   0  0  0  0  0  0  0  0  0  0  0  0
   11.3349  -15.9718   17.5860 C   0  0  0  0  0  0  0  0  0  0  0  0
   12.2396  -15.0996   17.7720 O   0  0  0  0  0  0  0  0  0  0  0  0
   10.4172  -16.1768   18.6485 N   0  0  0  0  0  0  0  0  0  0  0  0
   10.6746  -15.5380   19.9520 C   0  0  1  0  0  0  0  0  0  0  0  0
    9.4142  -15.5628   20.7892 C   0  0  0  0  0  0  0  0  0  0  0  0
    8.4481  -14.5886   20.2443 C   0  0  0  0  0  0  0  0  0  0  0  0
    7.1286  -14.8862   19.9313 C   0  0  0  0  0  0  0  0  0  0  0  0
    6.5099  -13.7973   19.4602 N   0  0  0  0  0  0  0  0  0  0  0  0
    7.4050  -12.8047   19.4636 C   0  0  0  0  0  0  0  0  0  0  0  0
    8.5654  -13.2867   19.9352 N   0  0  0  0  0  0  0  0  0  0  0  0
   11.7632  -16.2488   20.6597 C   0  0  0  0  0  0  0  0  0  0  0  0
   11.8884  -17.4987   20.6480 O   0  0  0  0  0  0  0  0  0  0  0  0
   20.8827  -16.1634   24.4103 N   0  0  0  0  0  0  0  0  0  0  0  0
   19.8551  -15.4291   23.7656 C   0  0  0  0  0  0  0  0  0  0  0  0
   20.0570  -14.2290   23.3495 N   0  0  0  0  0  0  0  0  0  0  0  0
   18.5523  -15.9931   23.5494 N   0  0  0  0  0  0  0  0  0  0  0  0
   17.4977  -15.2830   22.8894 C   0  0  0  0  0  0  0  0  0  0  0  0
   16.2304  -16.0726   22.7648 C   0  0  0  0  0  0  0  0  0  0  0  0
   15.0963  -15.3504   22.1021 C   0  0  0  0  0  0  0  0  0  0  0  0
   13.8837  -16.2471   22.0555 C   0  0  2  0  0  0  0  0  0  0  0  0
   12.7641  -15.5544   21.4177 N   0  0  0  0  0  0  0  0  0  0  0  0
   13.3994  -16.6804   23.3743 C   0  0  0  0  0  0  0  0  0  0  0  0
   13.9498  -17.8167   24.0169 O   0  0  0  0  0  0  0  0  0  0  0  0
   12.4969  -16.1197   24.0331 O   0  0  0  0  0  0  0  0  0  0  0  0
  2  4  1  0
  2  1  1  0
  3  2  2  0
  5  4  1  0
  6  5  1  0
  6  7  1  1
  8  6  1  0
  9  8  2  0
 10  8  1  0
 11 12  1  1
 11 10  1  0
 12 13  1  0
 13 17  1  0
 13 14  2  0
 14 15  1  0
 16 15  1  0
 17 16  2  0
 18 11  1  0
 19 18  2  0
 20 21  1  0
 21 22  2  0
 23 21  1  0
 24 23  1  0
 25 24  1  0
 27 26  1  1
 26 25  1  0
 27 28  1  0
 28 18  1  0
 29 27  1  0
 29 30  1  0
 31 29  2  0
M  END
$$$$
