QHR.pdb
     RDKit          3D

 31 31  0  0  1  0  0  0  0  0999 V2000
    8.2211  -13.8887   14.2786 N   0  0  0  0  0  0  0  0  0  0  0  0
    8.8067  -14.9928   13.6015 C   0  0  0  0  0  0  0  0  0  0  0  0
    8.2416  -15.5017   12.5810 O   0  0  0  0  0  0  0  0  0  0  0  0
   10.0849  -15.5543   14.0890 C   0  0  0  0  0  0  0  0  0  0  0  0
   10.6008  -14.7882   15.2890 C   0  0  0  0  0  0  0  0  0  0  0  0
   11.2680  -15.7665   16.2145 C   0  0  2  0  0  0  0  0  0  0  0  0
   10.6485  -17.0753   16.1650 N   0  0  0  0  0  0  0  0  0  0  0  0
   11.3322  -15.2513   17.6150 C   0  0  0  0  0  0  0  0  0  0  0  0
   12.1643  -14.3365   17.9056 O   0  0  0  0  0  0  0  0  0  0  0  0
   10.5084  -15.7238   18.6692 N   0  0  0  0  0  0  0  0  0  0  0  0
   10.7153  -15.1995   20.0313 C   0  0  1  0  0  0  0  0  0  0  0  0
    9.4007  -15.1962   20.7811 C   0  0  0  0  0  0  0  0  0  0  0  0
    8.4687  -14.2571   20.1262 C   0  0  0  0  0  0  0  0  0  0  0  0
    8.8537  -13.2721   19.2267 C   0  0  0  0  0  0  0  0  0  0  0  0
    7.7835  -12.5866   18.8081 N   0  0  0  0  0  0  0  0  0  0  0  0
    6.7173  -13.1108   19.4203 C   0  0  0  0  0  0  0  0  0  0  0  0
    7.1359  -14.1125   20.2095 N   0  0  0  0  0  0  0  0  0  0  0  0
   11.7036  -16.0333   20.7518 C   0  0  0  0  0  0  0  0  0  0  0  0
   11.8333  -17.2675   20.5564 O   0  0  0  0  0  0  0  0  0  0  0  0
   18.4362  -12.8982   19.0317 N   0  0  0  0  0  0  0  0  0  0  0  0
   17.4289  -13.5520   18.2776 C   0  0  0  0  0  0  0  0  0  0  0  0
   17.2916  -13.3289   17.0184 N   0  0  0  0  0  0  0  0  0  0  0  0
   16.5253  -14.4880   18.8853 N   0  0  0  0  0  0  0  0  0  0  0  0
   16.3390  -14.5805   20.3026 C   0  0  0  0  0  0  0  0  0  0  0  0
   15.3323  -15.6134   20.7083 C   0  0  0  0  0  0  0  0  0  0  0  0
   14.9904  -15.6262   22.1677 C   0  0  0  0  0  0  0  0  0  0  0  0
   13.6465  -16.2825   22.3668 C   0  0  2  0  0  0  0  0  0  0  0  0
   12.5940  -15.4866   21.7350 N   0  0  0  0  0  0  0  0  0  0  0  0
   13.2515  -16.4401   23.7742 C   0  0  0  0  0  0  0  0  0  0  0  0
   12.0640  -15.8476   24.2699 O   0  0  0  0  0  0  0  0  0  0  0  0
   13.8901  -17.0812   24.6369 O   0  0  0  0  0  0  0  0  0  0  0  0
  2  4  1  0
  2  1  1  0
  3  2  2  0
  5  4  1  0
  6  5  1  0
  6  7  1  1
  8  6  1  0
  9  8  2  0
 10  8  1  0
 11 12  1  1
 11 10  1  0
 12 13  1  0
 13 17  1  0
 13 14  2  0
 14 15  1  0
 16 15  1  0
 17 16  2  0
 18 11  1  0
 19 18  2  0
 20 21  1  0
 21 22  2  0
 23 21  1  0
 24 23  1  0
 25 24  1  0
 27 26  1  1
 26 25  1  0
 27 28  1  0
 28 18  1  0
 29 27  1  0
 29 30  1  0
 31 29  2  0
M  END
$$$$
