QHR.pdb
     RDKit          3D

 31 31  0  0  1  0  0  0  0  0999 V2000
    8.6467  -14.3017   13.3356 N   0  0  0  0  0  0  0  0  0  0  0  0
    7.6664  -15.3305   13.3076 C   0  0  0  0  0  0  0  0  0  0  0  0
    7.3184  -15.8650   12.2062 O   0  0  0  0  0  0  0  0  0  0  0  0
    7.0458  -15.7830   14.5713 C   0  0  0  0  0  0  0  0  0  0  0  0
    7.4214  -14.8765   15.7247 C   0  0  0  0  0  0  0  0  0  0  0  0
    8.8643  -15.1262   16.0627 C   0  0  2  0  0  0  0  0  0  0  0  0
    9.2046  -16.5331   16.0003 N   0  0  0  0  0  0  0  0  0  0  0  0
    9.2350  -14.5384   17.3848 C   0  0  0  0  0  0  0  0  0  0  0  0
    9.0694  -13.2946   17.5830 O   0  0  0  0  0  0  0  0  0  0  0  0
    9.7723  -15.2908   18.4612 N   0  0  0  0  0  0  0  0  0  0  0  0
    9.4920  -14.8648   19.8444 C   0  0  1  0  0  0  0  0  0  0  0  0
    8.0306  -15.0959   20.1624 C   0  0  0  0  0  0  0  0  0  0  0  0
    7.7540  -14.6416   21.5396 C   0  0  0  0  0  0  0  0  0  0  0  0
    8.1679  -13.4226   22.0596 C   0  0  0  0  0  0  0  0  0  0  0  0
    7.7639  -13.3024   23.3296 N   0  0  0  0  0  0  0  0  0  0  0  0
    7.0983  -14.4198   23.6374 C   0  0  0  0  0  0  0  0  0  0  0  0
    7.0964  -15.2186   22.5589 N   0  0  0  0  0  0  0  0  0  0  0  0
   10.3394  -15.6241   20.7912 C   0  0  0  0  0  0  0  0  0  0  0  0
   10.4758  -16.8719   20.7420 O   0  0  0  0  0  0  0  0  0  0  0  0
    8.5598  -15.1494   28.5811 N   0  0  0  0  0  0  0  0  0  0  0  0
    9.8962  -14.8520   28.2121 C   0  0  0  0  0  0  0  0  0  0  0  0
   10.6562  -14.1506   28.9768 N   0  0  0  0  0  0  0  0  0  0  0  0
   10.4553  -15.3211   26.9755 N   0  0  0  0  0  0  0  0  0  0  0  0
   10.0912  -16.5738   26.3836 C   0  0  0  0  0  0  0  0  0  0  0  0
   10.7901  -16.8495   25.0873 C   0  0  0  0  0  0  0  0  0  0  0  0
   10.3395  -16.0066   23.9325 C   0  0  0  0  0  0  0  0  0  0  0  0
   11.5164  -15.7012   23.0393 C   0  0  2  0  0  0  0  0  0  0  0  0
   11.0739  -14.9832   21.8439 N   0  0  0  0  0  0  0  0  0  0  0  0
   12.2378  -16.8891   22.5598 C   0  0  0  0  0  0  0  0  0  0  0  0
   13.6085  -17.0819   22.8614 O   0  0  0  0  0  0  0  0  0  0  0  0
   11.7419  -17.8069   21.8708 O   0  0  0  0  0  0  0  0  0  0  0  0
  2  4  1  0
  2  1  1  0
  3  2  2  0
  5  4  1  0
  6  5  1  0
  6  7  1  1
  8  6  1  0
  9  8  2  0
 10  8  1  0
 11 12  1  1
 11 10  1  0
 12 13  1  0
 13 17  1  0
 13 14  2  0
 14 15  1  0
 16 15  1  0
 17 16  2  0
 18 11  1  0
 19 18  2  0
 20 21  1  0
 21 22  2  0
 23 21  1  0
 24 23  1  0
 25 24  1  0
 27 26  1  1
 26 25  1  0
 27 28  1  0
 28 18  1  0
 29 27  1  0
 29 30  1  0
 31 29  2  0
M  END
$$$$
