QHR.pdb
     RDKit          3D

 31 31  0  0  1  0  0  0  0  0999 V2000
    6.9216  -12.5874   16.3684 N   0  0  0  0  0  0  0  0  0  0  0  0
    7.5187  -13.8182   15.9823 C   0  0  0  0  0  0  0  0  0  0  0  0
    7.2629  -14.3354   14.8480 O   0  0  0  0  0  0  0  0  0  0  0  0
    8.4457  -14.5028   16.9090 C   0  0  0  0  0  0  0  0  0  0  0  0
    7.7235  -14.9986   18.1440 C   0  0  0  0  0  0  0  0  0  0  0  0
    8.7458  -15.2253   19.2220 C   0  0  2  0  0  0  0  0  0  0  0  0
    9.8235  -16.0872   18.7805 N   0  0  0  0  0  0  0  0  0  0  0  0
    8.1233  -15.7387   20.4790 C   0  0  0  0  0  0  0  0  0  0  0  0
    6.8647  -15.6575   20.6301 O   0  0  0  0  0  0  0  0  0  0  0  0
    8.8578  -16.3251   21.5420 N   0  0  0  0  0  0  0  0  0  0  0  0
    8.3371  -17.5443   22.1866 C   0  0  1  0  0  0  0  0  0  0  0  0
    8.1997  -18.6456   21.1578 C   0  0  0  0  0  0  0  0  0  0  0  0
    6.8003  -18.7046   20.6913 C   0  0  0  0  0  0  0  0  0  0  0  0
    5.7705  -17.9281   21.2053 C   0  0  0  0  0  0  0  0  0  0  0  0
    4.6231  -18.2100   20.5773 N   0  0  0  0  0  0  0  0  0  0  0  0
    4.8939  -19.1526   19.6692 C   0  0  0  0  0  0  0  0  0  0  0  0
    6.2018  -19.4445   19.7433 N   0  0  0  0  0  0  0  0  0  0  0  0
    9.2506  -17.9768   23.2680 C   0  0  0  0  0  0  0  0  0  0  0  0
   10.4588  -18.2607   23.0737 O   0  0  0  0  0  0  0  0  0  0  0  0
    5.2785  -12.0623   26.6025 N   0  0  0  0  0  0  0  0  0  0  0  0
    6.5948  -11.6375   26.2901 C   0  0  0  0  0  0  0  0  0  0  0  0
    6.8656  -10.3935   26.1072 N   0  0  0  0  0  0  0  0  0  0  0  0
    7.6763  -12.5742   26.1673 N   0  0  0  0  0  0  0  0  0  0  0  0
    7.6216  -13.8997   26.7077 C   0  0  0  0  0  0  0  0  0  0  0  0
    8.7918  -14.7524   26.3224 C   0  0  0  0  0  0  0  0  0  0  0  0
    8.5131  -15.7655   25.2534 C   0  0  0  0  0  0  0  0  0  0  0  0
    9.1162  -17.0923   25.6439 C   0  0  2  0  0  0  0  0  0  0  0  0
    8.8179  -18.1039   24.6300 N   0  0  0  0  0  0  0  0  0  0  0  0
    8.6205  -17.6316   26.9187 C   0  0  0  0  0  0  0  0  0  0  0  0
    9.3224  -17.4069   28.1285 O   0  0  0  0  0  0  0  0  0  0  0  0
    7.5804  -18.3104   27.0609 O   0  0  0  0  0  0  0  0  0  0  0  0
  2  4  1  0
  2  1  1  0
  3  2  2  0
  5  4  1  0
  6  5  1  0
  6  7  1  6
  8  6  1  0
  9  8  2  0
 10  8  1  0
 11 12  1  6
 11 10  1  0
 12 13  1  0
 13 17  1  0
 13 14  2  0
 14 15  1  0
 16 15  1  0
 17 16  2  0
 18 11  1  0
 19 18  2  0
 20 21  1  0
 21 22  2  0
 23 21  1  0
 24 23  1  0
 25 24  1  0
 27 26  1  6
 26 25  1  0
 27 28  1  0
 28 18  1  0
 29 27  1  0
 29 30  1  0
 31 29  2  0
M  END
$$$$
