QHR.pdb
     RDKit          3D

 31 31  0  0  1  0  0  0  0  0999 V2000
   10.6056  -16.3022   16.5565 N   0  0  0  0  0  0  0  0  0  0  0  0
    9.2133  -16.0488   16.4232 C   0  0  0  0  0  0  0  0  0  0  0  0
    8.5577  -16.5282   15.4433 O   0  0  0  0  0  0  0  0  0  0  0  0
    8.5216  -15.2199   17.4339 C   0  0  0  0  0  0  0  0  0  0  0  0
    9.4749  -14.7646   18.5187 C   0  0  0  0  0  0  0  0  0  0  0  0
    8.7114  -13.8893   19.4724 C   0  0  2  0  0  0  0  0  0  0  0  0
    9.0418  -12.4879   19.3118 N   0  0  0  0  0  0  0  0  0  0  0  0
    8.8864  -14.3271   20.8897 C   0  0  0  0  0  0  0  0  0  0  0  0
    9.8029  -13.8027   21.5960 O   0  0  0  0  0  0  0  0  0  0  0  0
    8.0805  -15.3117   21.5176 N   0  0  0  0  0  0  0  0  0  0  0  0
    8.3301  -15.6483   22.9310 C   0  0  1  0  0  0  0  0  0  0  0  0
    7.0212  -15.6610   23.6905 C   0  0  0  0  0  0  0  0  0  0  0  0
    6.8346  -14.3592   24.3613 C   0  0  0  0  0  0  0  0  0  0  0  0
    7.7284  -13.3001   24.2771 C   0  0  0  0  0  0  0  0  0  0  0  0
    7.2804  -12.2611   24.9913 N   0  0  0  0  0  0  0  0  0  0  0  0
    6.1159  -12.6303   25.5336 C   0  0  0  0  0  0  0  0  0  0  0  0
    5.8548  -13.8901   25.1514 N   0  0  0  0  0  0  0  0  0  0  0  0
    8.9824  -16.9734   23.0300 C   0  0  0  0  0  0  0  0  0  0  0  0
    8.6641  -17.8330   23.8890 O   0  0  0  0  0  0  0  0  0  0  0  0
   15.5531  -13.5554   19.1733 N   0  0  0  0  0  0  0  0  0  0  0  0
   14.9943  -14.6464   18.4605 C   0  0  0  0  0  0  0  0  0  0  0  0
   15.2073  -14.7960   17.2009 N   0  0  0  0  0  0  0  0  0  0  0  0
   14.1725  -15.6269   19.1126 N   0  0  0  0  0  0  0  0  0  0  0  0
   13.7248  -15.4895   20.4664 C   0  0  0  0  0  0  0  0  0  0  0  0
   12.8991  -16.6447   20.9445 C   0  0  0  0  0  0  0  0  0  0  0  0
   12.2953  -16.4720   22.3055 C   0  0  0  0  0  0  0  0  0  0  0  0
   11.3952  -17.6434   22.6122 C   0  0  2  0  0  0  0  0  0  0  0  0
   10.0357  -17.3759   22.1428 N   0  0  0  0  0  0  0  0  0  0  0  0
   11.2794  -17.9604   24.0431 C   0  0  0  0  0  0  0  0  0  0  0  0
   11.1374  -16.9339   25.0091 O   0  0  0  0  0  0  0  0  0  0  0  0
   11.2933  -19.1109   24.5323 O   0  0  0  0  0  0  0  0  0  0  0  0
  2  4  1  0
  2  1  1  0
  3  2  2  0
  5  4  1  0
  6  5  1  0
  6  7  1  1
  8  6  1  0
  9  8  2  0
 10  8  1  0
 11 12  1  1
 11 10  1  0
 12 13  1  0
 13 17  1  0
 13 14  2  0
 14 15  1  0
 16 15  1  0
 17 16  2  0
 18 11  1  0
 19 18  2  0
 20 21  1  0
 21 22  2  0
 23 21  1  0
 24 23  1  0
 25 24  1  0
 27 26  1  1
 26 25  1  0
 27 28  1  0
 28 18  1  0
 29 27  1  0
 29 30  1  0
 31 29  2  0
M  END
$$$$
