QHR.pdb
     RDKit          3D

 31 31  0  0  1  0  0  0  0  0999 V2000
   10.2496  -14.7318   14.2872 N   0  0  0  0  0  0  0  0  0  0  0  0
   10.1843  -16.1363   14.0784 C   0  0  0  0  0  0  0  0  0  0  0  0
   10.6021  -16.6505   12.9918 O   0  0  0  0  0  0  0  0  0  0  0  0
    9.6252  -17.0067   15.1350 C   0  0  0  0  0  0  0  0  0  0  0  0
    9.1637  -16.1971   16.3285 C   0  0  0  0  0  0  0  0  0  0  0  0
   10.1429  -16.4168   17.4472 C   0  0  2  0  0  0  0  0  0  0  0  0
   10.3607  -17.8240   17.7143 N   0  0  0  0  0  0  0  0  0  0  0  0
    9.7427  -15.6868   18.6873 C   0  0  0  0  0  0  0  0  0  0  0  0
    9.5159  -14.4382   18.6304 O   0  0  0  0  0  0  0  0  0  0  0  0
    9.5944  -16.3058   19.9554 N   0  0  0  0  0  0  0  0  0  0  0  0
    9.1430  -15.4951   21.1010 C   0  0  1  0  0  0  0  0  0  0  0  0
    7.7935  -14.8837   20.7921 C   0  0  0  0  0  0  0  0  0  0  0  0
    7.8906  -14.0906   19.5507 C   0  0  0  0  0  0  0  0  0  0  0  0
    8.3495  -12.7816   19.4922 C   0  0  0  0  0  0  0  0  0  0  0  0
    8.3194  -12.3387   18.2298 N   0  0  0  0  0  0  0  0  0  0  0  0
    7.8502  -13.3368   17.4747 C   0  0  0  0  0  0  0  0  0  0  0  0
    7.5951  -14.3845   18.2737 N   0  0  0  0  0  0  0  0  0  0  0  0
    9.0479  -16.3383   22.3138 C   0  0  0  0  0  0  0  0  0  0  0  0
    8.4122  -17.4213   22.3491 O   0  0  0  0  0  0  0  0  0  0  0  0
   16.0223  -15.9155   20.5014 N   0  0  0  0  0  0  0  0  0  0  0  0
   14.7573  -15.3043   20.3094 C   0  0  0  0  0  0  0  0  0  0  0  0
   14.4926  -14.6482   19.2353 N   0  0  0  0  0  0  0  0  0  0  0  0
   13.7226  -15.3937   21.3011 N   0  0  0  0  0  0  0  0  0  0  0  0
   13.8638  -16.1569   22.5051 C   0  0  0  0  0  0  0  0  0  0  0  0
   12.6941  -16.0333   23.4333 C   0  0  0  0  0  0  0  0  0  0  0  0
   11.7781  -17.2194   23.4601 C   0  0  0  0  0  0  0  0  0  0  0  0
   10.5539  -16.8950   24.2803 C   0  0  2  0  0  0  0  0  0  0  0  0
    9.6815  -15.9761   23.5490 N   0  0  0  0  0  0  0  0  0  0  0  0
   10.8417  -16.2483   25.5689 C   0  0  0  0  0  0  0  0  0  0  0  0
   10.3418  -14.9563   25.8650 O   0  0  0  0  0  0  0  0  0  0  0  0
   11.5231  -16.7460   26.4914 O   0  0  0  0  0  0  0  0  0  0  0  0
  2  4  1  0
  2  1  1  0
  3  2  2  0
  5  4  1  0
  6  5  1  0
  6  7  1  1
  8  6  1  0
  9  8  2  0
 10  8  1  0
 11 12  1  6
 11 10  1  0
 12 13  1  0
 13 17  1  0
 13 14  2  0
 14 15  1  0
 16 15  1  0
 17 16  2  0
 18 11  1  0
 19 18  2  0
 20 21  1  0
 21 22  2  0
 23 21  1  0
 24 23  1  0
 25 24  1  0
 27 26  1  6
 26 25  1  0
 27 28  1  0
 28 18  1  0
 29 27  1  0
 29 30  1  0
 31 29  2  0
M  END
$$$$
