QHR.pdb
     RDKit          3D

 31 31  0  0  1  0  0  0  0  0999 V2000
    8.5590  -13.2922   14.3950 N   0  0  0  0  0  0  0  0  0  0  0  0
    7.5491  -13.0571   15.3672 C   0  0  0  0  0  0  0  0  0  0  0  0
    6.4236  -12.5691   15.0283 O   0  0  0  0  0  0  0  0  0  0  0  0
    7.8105  -13.3832   16.7857 C   0  0  0  0  0  0  0  0  0  0  0  0
    9.2077  -13.9351   16.9754 C   0  0  0  0  0  0  0  0  0  0  0  0
    9.1158  -15.1378   17.8719 C   0  0  2  0  0  0  0  0  0  0  0  0
    7.9818  -15.0641   18.7706 N   0  0  0  0  0  0  0  0  0  0  0  0
   10.3862  -15.3699   18.6223 C   0  0  0  0  0  0  0  0  0  0  0  0
   11.4938  -15.3281   18.0017 O   0  0  0  0  0  0  0  0  0  0  0  0
   10.4436  -15.6402   20.0140 N   0  0  0  0  0  0  0  0  0  0  0  0
   11.7583  -15.7141   20.6768 C   0  0  1  0  0  0  0  0  0  0  0  0
   12.4793  -14.3919   20.5272 C   0  0  0  0  0  0  0  0  0  0  0  0
   13.4855  -14.5046   19.4528 C   0  0  0  0  0  0  0  0  0  0  0  0
   13.6191  -15.6058   18.6180 C   0  0  0  0  0  0  0  0  0  0  0  0
   14.6169  -15.4069   17.7489 N   0  0  0  0  0  0  0  0  0  0  0  0
   15.1283  -14.1995   18.0078 C   0  0  0  0  0  0  0  0  0  0  0  0
   14.4447  -13.6640   19.0312 N   0  0  0  0  0  0  0  0  0  0  0  0
   11.5865  -16.0342   22.1117 C   0  0  0  0  0  0  0  0  0  0  0  0
   10.9810  -15.2821   22.9153 O   0  0  0  0  0  0  0  0  0  0  0  0
    9.4008  -23.8209   22.7782 N   0  0  0  0  0  0  0  0  0  0  0  0
    8.9736  -22.7792   21.9162 C   0  0  0  0  0  0  0  0  0  0  0  0
    8.2428  -23.0262   20.8870 N   0  0  0  0  0  0  0  0  0  0  0  0
    9.3357  -21.4106   22.1564 N   0  0  0  0  0  0  0  0  0  0  0  0
   10.2451  -21.0173   23.1910 C   0  0  0  0  0  0  0  0  0  0  0  0
   10.5405  -19.5484   23.2024 C   0  0  0  0  0  0  0  0  0  0  0  0
   11.6124  -19.1250   24.1608 C   0  0  0  0  0  0  0  0  0  0  0  0
   11.8092  -17.6317   24.0722 C   0  0  2  0  0  0  0  0  0  0  0  0
   12.1039  -17.2390   22.6941 N   0  0  0  0  0  0  0  0  0  0  0  0
   12.9169  -17.1168   24.8904 C   0  0  0  0  0  0  0  0  0  0  0  0
   12.7835  -16.9753   26.2937 O   0  0  0  0  0  0  0  0  0  0  0  0
   14.0357  -16.7677   24.4553 O   0  0  0  0  0  0  0  0  0  0  0  0
  2  4  1  0
  2  1  1  0
  3  2  2  0
  5  4  1  0
  6  5  1  0
  6  7  1  1
  8  6  1  0
  9  8  2  0
 10  8  1  0
 11 12  1  1
 11 10  1  0
 12 13  1  0
 13 17  1  0
 13 14  2  0
 14 15  1  0
 16 15  1  0
 17 16  2  0
 18 11  1  0
 19 18  2  0
 20 21  1  0
 21 22  2  0
 23 21  1  0
 24 23  1  0
 25 24  1  0
 27 26  1  6
 26 25  1  0
 27 28  1  0
 28 18  1  0
 29 27  1  0
 29 30  1  0
 31 29  2  0
M  END
$$$$
