QHR.pdb
     RDKit          3D

 31 31  0  0  1  0  0  0  0  0999 V2000
   18.2429  -15.6671   20.9827 N   0  0  0  0  0  0  0  0  0  0  0  0
   17.4726  -14.4824   21.1365 C   0  0  0  0  0  0  0  0  0  0  0  0
   17.5421  -13.7980   22.2072 O   0  0  0  0  0  0  0  0  0  0  0  0
   16.5824  -14.0424   20.0407 C   0  0  0  0  0  0  0  0  0  0  0  0
   16.6789  -14.9691   18.8470 C   0  0  0  0  0  0  0  0  0  0  0  0
   15.8193  -14.4068   17.7500 C   0  0  2  0  0  0  0  0  0  0  0  0
   16.0756  -12.9992   17.5220 N   0  0  0  0  0  0  0  0  0  0  0  0
   14.3679  -14.6590   17.9970 C   0  0  0  0  0  0  0  0  0  0  0  0
   13.6163  -13.6936   18.3386 O   0  0  0  0  0  0  0  0  0  0  0  0
   13.7552  -15.9328   17.8735 N   0  0  0  0  0  0  0  0  0  0  0  0
   12.3051  -16.0570   18.1079 C   0  0  1  0  0  0  0  0  0  0  0  0
   11.9083  -17.5172   18.0835 C   0  0  0  0  0  0  0  0  0  0  0  0
   10.4358  -17.6218   18.0714 C   0  0  0  0  0  0  0  0  0  0  0  0
    9.5751  -16.5376   17.9644 C   0  0  0  0  0  0  0  0  0  0  0  0
    8.3038  -16.9550   17.9816 N   0  0  0  0  0  0  0  0  0  0  0  0
    8.3292  -18.2863   18.0976 C   0  0  0  0  0  0  0  0  0  0  0  0
    9.6114  -18.6793   18.1510 N   0  0  0  0  0  0  0  0  0  0  0  0
   11.9490  -15.4604   19.4150 C   0  0  0  0  0  0  0  0  0  0  0  0
   11.4592  -14.3098   19.5339 O   0  0  0  0  0  0  0  0  0  0  0  0
    6.7695  -13.7627   18.4906 N   0  0  0  0  0  0  0  0  0  0  0  0
    7.5400  -12.7617   19.1347 C   0  0  0  0  0  0  0  0  0  0  0  0
    7.9942  -11.7505   18.4825 N   0  0  0  0  0  0  0  0  0  0  0  0
    7.8425  -12.8337   20.5366 N   0  0  0  0  0  0  0  0  0  0  0  0
    8.1601  -14.0623   21.2012 C   0  0  0  0  0  0  0  0  0  0  0  0
    9.4940  -14.6249   20.8149 C   0  0  0  0  0  0  0  0  0  0  0  0
    9.8731  -15.8948   21.5153 C   0  0  0  0  0  0  0  0  0  0  0  0
   11.3449  -15.8699   21.8465 C   0  0  2  0  0  0  0  0  0  0  0  0
   12.1391  -16.1605   20.6528 N   0  0  0  0  0  0  0  0  0  0  0  0
   11.7547  -16.8528   22.8602 C   0  0  0  0  0  0  0  0  0  0  0  0
   11.9728  -16.4663   24.2056 O   0  0  0  0  0  0  0  0  0  0  0  0
   11.9437  -18.0709   22.6513 O   0  0  0  0  0  0  0  0  0  0  0  0
  2  4  1  0
  2  1  1  0
  3  2  2  0
  5  4  1  0
  6  5  1  0
  6  7  1  1
  8  6  1  0
  9  8  2  0
 10  8  1  0
 11 12  1  1
 11 10  1  0
 12 13  1  0
 13 17  1  0
 13 14  2  0
 14 15  1  0
 16 15  1  0
 17 16  2  0
 18 11  1  0
 19 18  2  0
 20 21  1  0
 21 22  2  0
 23 21  1  0
 24 23  1  0
 25 24  1  0
 27 26  1  6
 26 25  1  0
 27 28  1  0
 28 18  1  0
 29 27  1  0
 29 30  1  0
 31 29  2  0
M  END
$$$$
