HCY.pdb
     RDKit          3D

 29 30  0  0  1  0  0  0  0  0999 V2000
   25.2507  -16.2171  -21.0959 N   0  0  0  0  0  0  0  0  0  0  0  0
   25.0717  -16.3232  -19.6622 C   0  0  1  0  0  0  0  0  0  0  0  0
   25.5003  -14.9994  -19.0367 C   0  0  0  0  0  0  0  0  0  0  0  0
   26.9732  -14.8589  -19.1837 C   0  0  0  0  0  0  0  0  0  0  0  0
   27.6255  -13.8259  -19.8126 C   0  0  0  0  0  0  0  0  0  0  0  0
   28.9709  -14.0472  -19.7508 N   0  0  0  0  0  0  0  0  0  0  0  0
   29.1473  -15.1988  -19.0943 C   0  0  0  0  0  0  0  0  0  0  0  0
   27.9224  -15.6902  -18.7502 N   0  0  0  0  0  0  0  0  0  0  0  0
   23.6784  -16.6445  -19.3674 C   0  0  0  0  0  0  0  0  0  0  0  0
   22.7573  -16.0689  -20.0137 O   0  0  0  0  0  0  0  0  0  0  0  0
   23.2768  -17.5923  -18.3726 N   0  0  0  0  0  0  0  0  0  0  0  0
   21.8933  -17.8689  -18.1608 C   0  0  1  0  0  0  0  0  0  0  0  0
   21.6367  -19.2851  -18.7342 C   0  0  0  0  0  0  0  0  0  0  0  0
   22.7746  -20.3965  -17.8721 S   0  0  0  0  0  0  0  0  0  0  0  0
   21.4303  -17.8018  -16.7726 C   0  0  0  0  0  0  0  0  0  0  0  0
   22.2715  -17.8358  -15.8083 O   0  0  0  0  0  0  0  0  0  0  0  0
   17.5152  -11.9413  -16.9285 O   0  0  0  0  0  0  0  0  0  0  0  0
   18.1728  -13.0106  -16.3054 C   0  0  0  0  0  0  0  0  0  0  0  0
   19.4697  -13.3488  -16.6220 C   0  0  0  0  0  0  0  0  0  0  0  0
   20.0919  -14.4044  -15.9940 C   0  0  0  0  0  0  0  0  0  0  0  0
   19.4368  -15.1676  -15.0186 C   0  0  0  0  0  0  0  0  0  0  0  0
   20.0926  -16.3134  -14.3599 C   0  0  0  0  0  0  0  0  0  0  0  0
   19.6803  -17.6011  -14.9802 C   0  0  2  0  0  0  0  0  0  0  0  0
   20.0866  -17.6966  -16.3749 N   0  0  0  0  0  0  0  0  0  0  0  0
   18.2337  -17.8339  -14.9047 C   0  0  0  0  0  0  0  0  0  0  0  0
   17.5633  -17.9248  -15.9604 O   0  0  0  0  0  0  0  0  0  0  0  0
   18.1320  -14.8317  -14.6964 C   0  0  0  0  0  0  0  0  0  0  0  0
   17.5435  -13.7706  -15.3450 C   0  0  0  0  0  0  0  0  0  0  0  0
   17.5127  -17.9699  -13.7288 O   0  0  0  0  0  0  0  0  0  0  0  0
  2  3  1  0
  2  1  1  6
  4  3  1  0
  4  8  1  0
  5  4  2  0
  6  5  1  0
  6  7  1  0
  7  8  2  0
  9  2  1  0
 10  9  2  0
 11  9  1  0
 12 11  1  0
 12 13  1  1
 14 13  1  0
 15 24  1  0
 15 12  1  0
 16 15  2  0
 18 17  1  0
 19 18  2  0
 20 19  1  0
 21 20  2  0
 21 27  1  0
 22 21  1  0
 23 22  1  6
 23 24  1  0
 25 23  1  0
 25 29  1  0
 26 25  2  0
 27 28  2  0
 28 18  1  0
M  END
$$$$
