HCY.pdb
     RDKit          3D

 29 30  0  0  1  0  0  0  0  0999 V2000
   26.8025  -25.8024  -17.2860 N   0  0  0  0  0  0  0  0  0  0  0  0
   26.1383  -24.5872  -17.7112 C   0  0  1  0  0  0  0  0  0  0  0  0
   24.9432  -24.9828  -18.5730 C   0  0  0  0  0  0  0  0  0  0  0  0
   25.4421  -25.4378  -19.8977 C   0  0  0  0  0  0  0  0  0  0  0  0
   25.4874  -26.7384  -20.3386 C   0  0  0  0  0  0  0  0  0  0  0  0
   26.0116  -26.7622  -21.5985 N   0  0  0  0  0  0  0  0  0  0  0  0
   26.2860  -25.4964  -21.9311 C   0  0  0  0  0  0  0  0  0  0  0  0
   25.9356  -24.6914  -20.8873 N   0  0  0  0  0  0  0  0  0  0  0  0
   25.7383  -23.8145  -16.5388 C   0  0  0  0  0  0  0  0  0  0  0  0
   25.0902  -24.3800  -15.6129 O   0  0  0  0  0  0  0  0  0  0  0  0
   26.0407  -22.4263  -16.3635 N   0  0  0  0  0  0  0  0  0  0  0  0
   25.6423  -21.7491  -15.1726 C   0  0  1  0  0  0  0  0  0  0  0  0
   26.3152  -20.3543  -15.2156 C   0  0  0  0  0  0  0  0  0  0  0  0
   28.0901  -20.6396  -15.0119 S   0  0  0  0  0  0  0  0  0  0  0  0
   24.1990  -21.6002  -14.9710 C   0  0  0  0  0  0  0  0  0  0  0  0
   23.4645  -21.1077  -15.8965 O   0  0  0  0  0  0  0  0  0  0  0  0
   15.7955  -21.9057  -12.6292 O   0  0  0  0  0  0  0  0  0  0  0  0
   17.1623  -22.1768  -12.7790 C   0  0  0  0  0  0  0  0  0  0  0  0
   18.0028  -22.2900  -11.6940 C   0  0  0  0  0  0  0  0  0  0  0  0
   19.3421  -22.5571  -11.8700 C   0  0  0  0  0  0  0  0  0  0  0  0
   19.8961  -22.7224  -13.1462 C   0  0  0  0  0  0  0  0  0  0  0  0
   21.3348  -22.9862  -13.3396 C   0  0  0  0  0  0  0  0  0  0  0  0
   22.0799  -21.7311  -13.6263 C   0  0  2  0  0  0  0  0  0  0  0  0
   23.5059  -21.9646  -13.8042 N   0  0  0  0  0  0  0  0  0  0  0  0
   21.9061  -20.7130  -12.5843 C   0  0  0  0  0  0  0  0  0  0  0  0
   20.9291  -19.9290  -12.6388 O   0  0  0  0  0  0  0  0  0  0  0  0
   19.0549  -22.6095  -14.2411 C   0  0  0  0  0  0  0  0  0  0  0  0
   17.7225  -22.3420  -14.0259 C   0  0  0  0  0  0  0  0  0  0  0  0
   22.7538  -20.5325  -11.5027 O   0  0  0  0  0  0  0  0  0  0  0  0
  2  3  1  0
  2  1  1  1
  4  3  1  0
  4  8  1  0
  5  4  2  0
  6  5  1  0
  6  7  1  0
  7  8  2  0
  9  2  1  0
 10  9  2  0
 11  9  1  0
 12 11  1  0
 12 13  1  6
 14 13  1  0
 15 24  1  0
 15 12  1  0
 16 15  2  0
 18 17  1  0
 19 18  2  0
 20 19  1  0
 21 20  2  0
 21 27  1  0
 22 21  1  0
 23 22  1  1
 23 24  1  0
 25 23  1  0
 25 29  1  0
 26 25  2  0
 27 28  2  0
 28 18  1  0
M  END
$$$$
