HCY.pdb
     RDKit          3D

 29 30  0  0  1  0  0  0  0  0999 V2000
   24.9845  -12.0057  -18.2826 N   0  0  0  0  0  0  0  0  0  0  0  0
   24.7768  -11.4310  -16.9691 C   0  0  1  0  0  0  0  0  0  0  0  0
   26.1329  -10.9813  -16.4341 C   0  0  0  0  0  0  0  0  0  0  0  0
   26.9858  -12.1821  -16.2305 C   0  0  0  0  0  0  0  0  0  0  0  0
   27.0671  -12.9271  -15.0788 C   0  0  0  0  0  0  0  0  0  0  0  0
   27.9567  -13.9444  -15.2699 N   0  0  0  0  0  0  0  0  0  0  0  0
   28.4179  -13.8299  -16.5198 C   0  0  0  0  0  0  0  0  0  0  0  0
   27.8207  -12.7508  -17.1020 N   0  0  0  0  0  0  0  0  0  0  0  0
   23.8298  -10.3241  -17.0654 C   0  0  0  0  0  0  0  0  0  0  0  0
   23.9657   -9.4677  -17.9850 O   0  0  0  0  0  0  0  0  0  0  0  0
   22.7301  -10.1413  -16.1674 N   0  0  0  0  0  0  0  0  0  0  0  0
   21.8501   -9.0295  -16.3261 C   0  0  1  0  0  0  0  0  0  0  0  0
   20.4202   -9.6149  -16.4394 C   0  0  0  0  0  0  0  0  0  0  0  0
   20.2574  -10.8219  -15.1016 S   0  0  0  0  0  0  0  0  0  0  0  0
   21.8929   -8.0204  -15.2650 C   0  0  0  0  0  0  0  0  0  0  0  0
   22.3911   -8.3061  -14.1210 O   0  0  0  0  0  0  0  0  0  0  0  0
   24.2728   -2.6380  -19.3689 O   0  0  0  0  0  0  0  0  0  0  0  0
   23.9589   -3.2446  -18.1451 C   0  0  0  0  0  0  0  0  0  0  0  0
   23.2337   -2.5892  -17.1751 C   0  0  0  0  0  0  0  0  0  0  0  0
   22.9392   -3.2092  -15.9814 C   0  0  0  0  0  0  0  0  0  0  0  0
   23.3616   -4.5173  -15.7100 C   0  0  0  0  0  0  0  0  0  0  0  0
   23.0675   -5.1765  -14.4233 C   0  0  0  0  0  0  0  0  0  0  0  0
   21.6678   -5.6785  -14.3815 C   0  0  2  0  0  0  0  0  0  0  0  0
   21.4190   -6.7030  -15.3855 N   0  0  0  0  0  0  0  0  0  0  0  0
   20.6737   -4.6133  -14.5538 C   0  0  0  0  0  0  0  0  0  0  0  0
   19.8876   -4.6494  -15.5300 O   0  0  0  0  0  0  0  0  0  0  0  0
   24.0917   -5.1810  -16.6824 C   0  0  0  0  0  0  0  0  0  0  0  0
   24.3664   -4.5292  -17.8626 C   0  0  0  0  0  0  0  0  0  0  0  0
   20.5162   -3.5305  -13.7031 O   0  0  0  0  0  0  0  0  0  0  0  0
  2  3  1  0
  2  1  1  6
  4  3  1  0
  4  8  1  0
  5  4  2  0
  6  5  1  0
  6  7  1  0
  7  8  2  0
  9  2  1  0
 10  9  2  0
 11  9  1  0
 12 11  1  0
 12 13  1  1
 14 13  1  0
 15 24  1  0
 15 12  1  0
 16 15  2  0
 18 17  1  0
 19 18  2  0
 20 19  1  0
 21 20  2  0
 21 27  1  0
 22 21  1  0
 23 22  1  6
 23 24  1  0
 25 23  1  0
 25 29  1  0
 26 25  2  0
 27 28  2  0
 28 18  1  0
M  END
$$$$
