HCY.pdb
     RDKit          3D

 29 30  0  0  1  0  0  0  0  0999 V2000
   13.2205  -27.2695   -2.6611 N   0  0  0  0  0  0  0  0  0  0  0  0
   12.6760  -26.4666   -1.5852 C   0  0  1  0  0  0  0  0  0  0  0  0
   12.1445  -27.4149   -0.5148 C   0  0  0  0  0  0  0  0  0  0  0  0
   10.8984  -28.0504   -1.0190 C   0  0  0  0  0  0  0  0  0  0  0  0
   10.6761  -29.4006   -1.1447 C   0  0  0  0  0  0  0  0  0  0  0  0
    9.4223  -29.5994   -1.6459 N   0  0  0  0  0  0  0  0  0  0  0  0
    8.8783  -28.3913   -1.8273 C   0  0  0  0  0  0  0  0  0  0  0  0
    9.7855  -27.4485   -1.4423 N   0  0  0  0  0  0  0  0  0  0  0  0
   13.7126  -25.5788   -1.0668 C   0  0  0  0  0  0  0  0  0  0  0  0
   14.7783  -26.0728   -0.6005 O   0  0  0  0  0  0  0  0  0  0  0  0
   13.6000  -24.1518   -1.0532 N   0  0  0  0  0  0  0  0  0  0  0  0
   14.6380  -23.3546   -0.4851 C   0  0  1  0  0  0  0  0  0  0  0  0
   14.7772  -22.1057   -1.3912 C   0  0  0  0  0  0  0  0  0  0  0  0
   15.7790  -22.6152   -2.8089 S   0  0  0  0  0  0  0  0  0  0  0  0
   14.4414  -22.9413    0.9065 C   0  0  0  0  0  0  0  0  0  0  0  0
   13.2729  -22.9645    1.4288 O   0  0  0  0  0  0  0  0  0  0  0  0
   14.1953  -21.0299    9.3220 O   0  0  0  0  0  0  0  0  0  0  0  0
   14.5474  -21.5152    8.0553 C   0  0  0  0  0  0  0  0  0  0  0  0
   15.8276  -21.3952    7.5622 C   0  0  0  0  0  0  0  0  0  0  0  0
   16.1462  -21.8812    6.3138 C   0  0  0  0  0  0  0  0  0  0  0  0
   15.1904  -22.5102    5.5052 C   0  0  0  0  0  0  0  0  0  0  0  0
   15.5227  -23.0118    4.1581 C   0  0  0  0  0  0  0  0  0  0  0  0
   15.1992  -22.0049    3.1121 C   0  0  2  0  0  0  0  0  0  0  0  0
   15.4602  -22.5017    1.7687 N   0  0  0  0  0  0  0  0  0  0  0  0
   15.9296  -20.7446    3.2873 C   0  0  0  0  0  0  0  0  0  0  0  0
   15.7734  -20.0771    4.3372 O   0  0  0  0  0  0  0  0  0  0  0  0
   13.9010  -22.6334    5.9965 C   0  0  0  0  0  0  0  0  0  0  0  0
   13.6204  -22.1357    7.2481 C   0  0  0  0  0  0  0  0  0  0  0  0
   16.8115  -20.2042    2.3647 O   0  0  0  0  0  0  0  0  0  0  0  0
  2  3  1  0
  2  1  1  6
  4  3  1  0
  4  8  1  0
  5  4  2  0
  6  5  1  0
  6  7  1  0
  7  8  2  0
  9  2  1  0
 10  9  2  0
 11  9  1  0
 12 11  1  0
 12 13  1  6
 14 13  1  0
 15 24  1  0
 15 12  1  0
 16 15  2  0
 18 17  1  0
 19 18  2  0
 20 19  1  0
 21 20  2  0
 21 27  1  0
 22 21  1  0
 23 22  1  1
 23 24  1  0
 25 23  1  0
 25 29  1  0
 26 25  2  0
 27 28  2  0
 28 18  1  0
M  END
$$$$
