HCY.pdb
     RDKit          3D

 29 30  0  0  1  0  0  0  0  0999 V2000
   20.1508  -13.5475  -17.3028 N   0  0  0  0  0  0  0  0  0  0  0  0
   19.1035  -12.6474  -16.8648 C   0  0  1  0  0  0  0  0  0  0  0  0
   18.6935  -13.0563  -15.4534 C   0  0  0  0  0  0  0  0  0  0  0  0
   17.8844  -14.3011  -15.5351 C   0  0  0  0  0  0  0  0  0  0  0  0
   17.2474  -14.7762  -16.6561 C   0  0  0  0  0  0  0  0  0  0  0  0
   16.6026  -15.9374  -16.3417 N   0  0  0  0  0  0  0  0  0  0  0  0
   16.8373  -16.1761  -15.0471 C   0  0  0  0  0  0  0  0  0  0  0  0
   17.6214  -15.1723  -14.5594 N   0  0  0  0  0  0  0  0  0  0  0  0
   19.5889  -11.2716  -16.9190 C   0  0  0  0  0  0  0  0  0  0  0  0
   20.7495  -11.0046  -16.4961 O   0  0  0  0  0  0  0  0  0  0  0  0
   18.8198  -10.1794  -17.4336 N   0  0  0  0  0  0  0  0  0  0  0  0
   19.3818   -8.8694  -17.4917 C   0  0  1  0  0  0  0  0  0  0  0  0
   18.5889   -8.0999  -18.5778 C   0  0  0  0  0  0  0  0  0  0  0  0
   19.0699   -8.8215  -20.1656 S   0  0  0  0  0  0  0  0  0  0  0  0
   19.3743   -8.1113  -16.2382 C   0  0  0  0  0  0  0  0  0  0  0  0
   18.4330   -8.2791  -15.3870 O   0  0  0  0  0  0  0  0  0  0  0  0
   26.0953   -5.1058  -16.9808 O   0  0  0  0  0  0  0  0  0  0  0  0
   24.9885   -5.4719  -16.2030 C   0  0  0  0  0  0  0  0  0  0  0  0
   24.2615   -4.5429  -15.4924 C   0  0  0  0  0  0  0  0  0  0  0  0
   23.1781   -4.9303  -14.7361 C   0  0  0  0  0  0  0  0  0  0  0  0
   22.7772   -6.2707  -14.6607 C   0  0  0  0  0  0  0  0  0  0  0  0
   21.6307   -6.6925  -13.8334 C   0  0  0  0  0  0  0  0  0  0  0  0
   20.3453   -6.5124  -14.5601 C   0  0  2  0  0  0  0  0  0  0  0  0
   20.3481   -7.1725  -15.8577 N   0  0  0  0  0  0  0  0  0  0  0  0
   19.9959   -5.1017  -14.7614 C   0  0  0  0  0  0  0  0  0  0  0  0
   19.8397   -4.3527  -13.7680 O   0  0  0  0  0  0  0  0  0  0  0  0
   23.5051   -7.2093  -15.3736 C   0  0  0  0  0  0  0  0  0  0  0  0
   24.5814   -6.7846  -16.1181 C   0  0  0  0  0  0  0  0  0  0  0  0
   19.8178   -4.4973  -15.9959 O   0  0  0  0  0  0  0  0  0  0  0  0
  2  3  1  0
  2  1  1  1
  4  3  1  0
  4  8  1  0
  5  4  2  0
  6  5  1  0
  6  7  1  0
  7  8  2  0
  9  2  1  0
 10  9  2  0
 11  9  1  0
 12 11  1  0
 12 13  1  6
 14 13  1  0
 15 24  1  0
 15 12  1  0
 16 15  2  0
 18 17  1  0
 19 18  2  0
 20 19  1  0
 21 20  2  0
 21 27  1  0
 22 21  1  0
 23 22  1  6
 23 24  1  0
 25 23  1  0
 25 29  1  0
 26 25  2  0
 27 28  2  0
 28 18  1  0
M  END
$$$$
