HCY.pdb
     RDKit          3D

 29 30  0  0  1  0  0  0  0  0999 V2000
   20.6568  -12.9492  -17.2402 N   0  0  0  0  0  0  0  0  0  0  0  0
   20.1564  -11.6487  -17.6362 C   0  0  1  0  0  0  0  0  0  0  0  0
   18.7149  -11.5329  -17.1503 C   0  0  0  0  0  0  0  0  0  0  0  0
   17.8761  -12.4917  -17.9171 C   0  0  0  0  0  0  0  0  0  0  0  0
   17.3954  -13.6923  -17.4528 C   0  0  0  0  0  0  0  0  0  0  0  0
   16.6733  -14.2940  -18.4424 N   0  0  0  0  0  0  0  0  0  0  0  0
   16.7073  -13.4784  -19.5015 C   0  0  0  0  0  0  0  0  0  0  0  0
   17.4442  -12.3783  -19.1743 N   0  0  0  0  0  0  0  0  0  0  0  0
   21.0106  -10.6061  -17.0751 C   0  0  0  0  0  0  0  0  0  0  0  0
   21.5333  -10.7761  -15.9370 O   0  0  0  0  0  0  0  0  0  0  0  0
   21.3040   -9.3758  -17.7454 N   0  0  0  0  0  0  0  0  0  0  0  0
   22.0587   -8.3605  -17.0857 C   0  0  1  0  0  0  0  0  0  0  0  0
   22.5524   -7.3934  -18.1908 C   0  0  0  0  0  0  0  0  0  0  0  0
   21.0688   -6.6999  -18.9595 S   0  0  0  0  0  0  0  0  0  0  0  0
   21.3524   -7.6093  -16.0452 C   0  0  0  0  0  0  0  0  0  0  0  0
   20.0983   -7.3769  -16.1543 O   0  0  0  0  0  0  0  0  0  0  0  0
   17.9662   -4.6509   -8.6005 O   0  0  0  0  0  0  0  0  0  0  0  0
   18.7191   -5.2817   -9.6001 C   0  0  0  0  0  0  0  0  0  0  0  0
   18.1514   -5.6942  -10.7850 C   0  0  0  0  0  0  0  0  0  0  0  0
   18.9148   -6.3116  -11.7504 C   0  0  0  0  0  0  0  0  0  0  0  0
   20.2846   -6.5419  -11.5668 C   0  0  0  0  0  0  0  0  0  0  0  0
   21.1009   -7.2234  -12.5895 C   0  0  0  0  0  0  0  0  0  0  0  0
   21.1836   -6.4193  -13.8382 C   0  0  2  0  0  0  0  0  0  0  0  0
   21.9447   -7.0943  -14.8796 N   0  0  0  0  0  0  0  0  0  0  0  0
   21.7713   -5.0920  -13.6248 C   0  0  0  0  0  0  0  0  0  0  0  0
   23.0069   -4.9302  -13.7638 O   0  0  0  0  0  0  0  0  0  0  0  0
   20.8607   -6.1290  -10.3765 C   0  0  0  0  0  0  0  0  0  0  0  0
   20.0661   -5.5156   -9.4356 C   0  0  0  0  0  0  0  0  0  0  0  0
   21.0589   -3.9567  -13.2721 O   0  0  0  0  0  0  0  0  0  0  0  0
  2  3  1  0
  2  1  1  1
  4  3  1  0
  4  8  1  0
  5  4  2  0
  6  5  1  0
  6  7  1  0
  7  8  2  0
  9  2  1  0
 10  9  2  0
 11  9  1  0
 12 11  1  0
 12 13  1  6
 14 13  1  0
 15 24  1  0
 15 12  1  0
 16 15  2  0
 18 17  1  0
 19 18  2  0
 20 19  1  0
 21 20  2  0
 21 27  1  0
 22 21  1  0
 23 22  1  1
 23 24  1  0
 25 23  1  0
 25 29  1  0
 26 25  2  0
 27 28  2  0
 28 18  1  0
M  END
$$$$
