HCY.pdb
     RDKit          3D

 29 30  0  0  1  0  0  0  0  0999 V2000
   22.7730  -14.3181  -18.6843 N   0  0  0  0  0  0  0  0  0  0  0  0
   21.7163  -13.3356  -18.5541 C   0  0  1  0  0  0  0  0  0  0  0  0
   20.5014  -14.0310  -17.9476 C   0  0  0  0  0  0  0  0  0  0  0  0
   19.7432  -14.7003  -19.0376 C   0  0  0  0  0  0  0  0  0  0  0  0
   20.0591  -14.6715  -20.3745 C   0  0  0  0  0  0  0  0  0  0  0  0
   19.1303  -15.3939  -21.0660 N   0  0  0  0  0  0  0  0  0  0  0  0
   18.2541  -15.8618  -20.1706 C   0  0  0  0  0  0  0  0  0  0  0  0
   18.6341  -15.4343  -18.9324 N   0  0  0  0  0  0  0  0  0  0  0  0
   22.1823  -12.2250  -17.7292 C   0  0  0  0  0  0  0  0  0  0  0  0
   23.1117  -12.4175  -16.8945 O   0  0  0  0  0  0  0  0  0  0  0  0
   21.6450  -10.9004  -17.8062 N   0  0  0  0  0  0  0  0  0  0  0  0
   22.1767   -9.8606  -16.9866 C   0  0  1  0  0  0  0  0  0  0  0  0
   23.2829   -9.1673  -17.8208 C   0  0  0  0  0  0  0  0  0  0  0  0
   22.4832   -8.5714  -19.3303 S   0  0  0  0  0  0  0  0  0  0  0  0
   21.2148   -8.8645  -16.5086 C   0  0  0  0  0  0  0  0  0  0  0  0
   20.2747   -8.4543  -17.2745 O   0  0  0  0  0  0  0  0  0  0  0  0
   15.7449  -11.6572  -15.9416 O   0  0  0  0  0  0  0  0  0  0  0  0
   16.6107  -10.6935  -15.4071 C   0  0  0  0  0  0  0  0  0  0  0  0
   16.3905   -9.3450  -15.5790 C   0  0  0  0  0  0  0  0  0  0  0  0
   17.2575   -8.4193  -15.0428 C   0  0  0  0  0  0  0  0  0  0  0  0
   18.3856   -8.8093  -14.3091 C   0  0  0  0  0  0  0  0  0  0  0  0
   19.3290   -7.8209  -13.7524 C   0  0  0  0  0  0  0  0  0  0  0  0
   20.2431   -7.2962  -14.8022 C   0  0  2  0  0  0  0  0  0  0  0  0
   21.2211   -8.2872  -15.2275 N   0  0  0  0  0  0  0  0  0  0  0  0
   20.9631   -6.0892  -14.3812 C   0  0  0  0  0  0  0  0  0  0  0  0
   20.3193   -5.0844  -13.9964 O   0  0  0  0  0  0  0  0  0  0  0  0
   18.6118  -10.1646  -14.1333 C   0  0  0  0  0  0  0  0  0  0  0  0
   17.7236  -11.0597  -14.6838 C   0  0  0  0  0  0  0  0  0  0  0  0
   22.3423   -5.9530  -14.3674 O   0  0  0  0  0  0  0  0  0  0  0  0
  2  3  1  0
  2  1  1  1
  4  3  1  0
  4  8  1  0
  5  4  2  0
  6  5  1  0
  6  7  1  0
  7  8  2  0
  9  2  1  0
 10  9  2  0
 11  9  1  0
 12 11  1  0
 12 13  1  6
 14 13  1  0
 15 24  1  0
 15 12  1  0
 16 15  2  0
 18 17  1  0
 19 18  2  0
 20 19  1  0
 21 20  2  0
 21 27  1  0
 22 21  1  0
 23 22  1  1
 23 24  1  0
 25 23  1  0
 25 29  1  0
 26 25  2  0
 27 28  2  0
 28 18  1  0
M  END
$$$$
