HCY.pdb
     RDKit          3D

 29 30  0  0  1  0  0  0  0  0999 V2000
   21.6584  -17.6211  -17.5012 N   0  0  0  0  0  0  0  0  0  0  0  0
   22.4351  -17.2711  -16.3294 C   0  0  1  0  0  0  0  0  0  0  0  0
   21.4613  -16.9119  -15.2113 C   0  0  0  0  0  0  0  0  0  0  0  0
   20.7347  -15.6723  -15.5935 C   0  0  0  0  0  0  0  0  0  0  0  0
   21.2876  -14.4208  -15.7210 C   0  0  0  0  0  0  0  0  0  0  0  0
   20.3103  -13.5379  -16.0792 N   0  0  0  0  0  0  0  0  0  0  0  0
   19.1714  -14.2327  -16.1714 C   0  0  0  0  0  0  0  0  0  0  0  0
   19.4372  -15.5368  -15.8733 N   0  0  0  0  0  0  0  0  0  0  0  0
   23.3003  -18.3895  -15.9661 C   0  0  0  0  0  0  0  0  0  0  0  0
   22.7830  -19.4961  -15.6420 O   0  0  0  0  0  0  0  0  0  0  0  0
   24.7298  -18.3145  -15.9543 N   0  0  0  0  0  0  0  0  0  0  0  0
   25.5034  -19.4202  -15.4911 C   0  0  1  0  0  0  0  0  0  0  0  0
   26.8340  -19.3870  -16.2840 C   0  0  0  0  0  0  0  0  0  0  0  0
   27.8429  -20.7442  -15.6410 S   0  0  0  0  0  0  0  0  0  0  0  0
   25.7808  -19.4520  -14.0530 C   0  0  0  0  0  0  0  0  0  0  0  0
   26.0861  -18.3765  -13.4297 O   0  0  0  0  0  0  0  0  0  0  0  0
   27.0598  -19.5460   -5.6138 O   0  0  0  0  0  0  0  0  0  0  0  0
   26.6244  -19.5893   -6.9453 C   0  0  0  0  0  0  0  0  0  0  0  0
   26.8349  -18.5403   -7.8122 C   0  0  0  0  0  0  0  0  0  0  0  0
   26.3965  -18.6095   -9.1157 C   0  0  0  0  0  0  0  0  0  0  0  0
   25.7262  -19.7381   -9.6056 C   0  0  0  0  0  0  0  0  0  0  0  0
   25.2351  -19.8066  -10.9952 C   0  0  0  0  0  0  0  0  0  0  0  0
   26.1498  -20.6077  -11.8521 C   0  0  2  0  0  0  0  0  0  0  0  0
   25.7409  -20.6041  -13.2494 N   0  0  0  0  0  0  0  0  0  0  0  0
   26.2708  -22.0017  -11.4110 C   0  0  0  0  0  0  0  0  0  0  0  0
   25.4077  -22.8411  -11.7612 O   0  0  0  0  0  0  0  0  0  0  0  0
   25.5118  -20.7962   -8.7376 C   0  0  0  0  0  0  0  0  0  0  0  0
   25.9643  -20.6907   -7.4425 C   0  0  0  0  0  0  0  0  0  0  0  0
   27.2916  -22.4955  -10.6140 O   0  0  0  0  0  0  0  0  0  0  0  0
  2  3  1  0
  2  1  1  6
  4  3  1  0
  4  8  1  0
  5  4  2  0
  6  5  1  0
  6  7  1  0
  7  8  2  0
  9  2  1  0
 10  9  2  0
 11  9  1  0
 12 11  1  0
 12 13  1  6
 14 13  1  0
 15 24  1  0
 15 12  1  0
 16 15  2  0
 18 17  1  0
 19 18  2  0
 20 19  1  0
 21 20  2  0
 21 27  1  0
 22 21  1  0
 23 22  1  1
 23 24  1  0
 25 23  1  0
 25 29  1  0
 26 25  2  0
 27 28  2  0
 28 18  1  0
M  END
$$$$
