HCY.pdb
     RDKit          3D

 29 30  0  0  1  0  0  0  0  0999 V2000
   28.1012  -21.6118  -16.2927 N   0  0  0  0  0  0  0  0  0  0  0  0
   27.6583  -20.5892  -15.3670 C   0  0  1  0  0  0  0  0  0  0  0  0
   26.9558  -19.5002  -16.1720 C   0  0  0  0  0  0  0  0  0  0  0  0
   27.9670  -18.7984  -17.0061 C   0  0  0  0  0  0  0  0  0  0  0  0
   27.9434  -18.6838  -18.3752 C   0  0  0  0  0  0  0  0  0  0  0  0
   29.0388  -17.9778  -18.7807 N   0  0  0  0  0  0  0  0  0  0  0  0
   29.7286  -17.6611  -17.6797 C   0  0  0  0  0  0  0  0  0  0  0  0
   29.0684  -18.1656  -16.5981 N   0  0  0  0  0  0  0  0  0  0  0  0
   26.7791  -21.1857  -14.3658 C   0  0  0  0  0  0  0  0  0  0  0  0
   25.8930  -22.0107  -14.7286 O   0  0  0  0  0  0  0  0  0  0  0  0
   26.8572  -20.8927  -12.9667 N   0  0  0  0  0  0  0  0  0  0  0  0
   25.7260  -21.1057  -12.1239 C   0  0  1  0  0  0  0  0  0  0  0  0
   26.1226  -20.5875  -10.7187 C   0  0  0  0  0  0  0  0  0  0  0  0
   24.6682  -20.8094   -9.6658 S   0  0  0  0  0  0  0  0  0  0  0  0
   24.4766  -20.4732  -12.5540 C   0  0  0  0  0  0  0  0  0  0  0  0
   24.4611  -19.2399  -12.8967 O   0  0  0  0  0  0  0  0  0  0  0  0
   17.2715  -17.8077  -16.4693 O   0  0  0  0  0  0  0  0  0  0  0  0
   18.4575  -18.3885  -16.0004 C   0  0  0  0  0  0  0  0  0  0  0  0
   19.5705  -17.6317  -15.7089 C   0  0  0  0  0  0  0  0  0  0  0  0
   20.7232  -18.2285  -15.2494 C   0  0  0  0  0  0  0  0  0  0  0  0
   20.8078  -19.6145  -15.0624 C   0  0  0  0  0  0  0  0  0  0  0  0
   22.0483  -20.2597  -14.5919 C   0  0  0  0  0  0  0  0  0  0  0  0
   22.0277  -20.4589  -13.1179 C   0  0  2  0  0  0  0  0  0  0  0  0
   23.2313  -21.1193  -12.6336 N   0  0  0  0  0  0  0  0  0  0  0  0
   20.8646  -21.2282  -12.6618 C   0  0  0  0  0  0  0  0  0  0  0  0
   20.8885  -22.4807  -12.7159 O   0  0  0  0  0  0  0  0  0  0  0  0
   19.6911  -20.3805  -15.3543 C   0  0  0  0  0  0  0  0  0  0  0  0
   18.5574  -19.7488  -15.8113 C   0  0  0  0  0  0  0  0  0  0  0  0
   19.6982  -20.6769  -12.1555 O   0  0  0  0  0  0  0  0  0  0  0  0
  2  3  1  0
  2  1  1  6
  4  3  1  0
  4  8  1  0
  5  4  2  0
  6  5  1  0
  6  7  1  0
  7  8  2  0
  9  2  1  0
 10  9  2  0
 11  9  1  0
 12 11  1  0
 12 13  1  1
 14 13  1  0
 15 24  1  0
 15 12  1  0
 16 15  2  0
 18 17  1  0
 19 18  2  0
 20 19  1  0
 21 20  2  0
 21 27  1  0
 22 21  1  0
 23 22  1  6
 23 24  1  0
 25 23  1  0
 25 29  1  0
 26 25  2  0
 27 28  2  0
 28 18  1  0
M  END
$$$$
