HCY.pdb
     RDKit          3D

 29 30  0  0  1  0  0  0  0  0999 V2000
   29.0867  -25.7232  -19.7111 N   0  0  0  0  0  0  0  0  0  0  0  0
   29.7080  -26.3013  -18.5370 C   0  0  1  0  0  0  0  0  0  0  0  0
   28.6938  -26.2540  -17.3983 C   0  0  0  0  0  0  0  0  0  0  0  0
   28.4067  -24.8312  -17.0760 C   0  0  0  0  0  0  0  0  0  0  0  0
   27.1968  -24.1982  -17.2299 C   0  0  0  0  0  0  0  0  0  0  0  0
   27.3227  -22.8977  -16.8353 N   0  0  0  0  0  0  0  0  0  0  0  0
   28.5903  -22.7295  -16.4439 C   0  0  0  0  0  0  0  0  0  0  0  0
   29.2479  -23.9150  -16.5934 N   0  0  0  0  0  0  0  0  0  0  0  0
   30.1373  -27.6647  -18.8340 C   0  0  0  0  0  0  0  0  0  0  0  0
   29.5634  -28.3103  -19.7566 O   0  0  0  0  0  0  0  0  0  0  0  0
   31.1916  -28.3340  -18.1342 N   0  0  0  0  0  0  0  0  0  0  0  0
   31.6222  -29.6285  -18.5515 C   0  0  1  0  0  0  0  0  0  0  0  0
   32.9772  -29.8882  -17.8466 C   0  0  0  0  0  0  0  0  0  0  0  0
   34.1525  -28.7086  -18.5538 S   0  0  0  0  0  0  0  0  0  0  0  0
   30.6983  -30.7318  -18.2773 C   0  0  0  0  0  0  0  0  0  0  0  0
   29.6558  -30.5387  -17.5600 O   0  0  0  0  0  0  0  0  0  0  0  0
   25.2804  -29.6386  -15.7361 O   0  0  0  0  0  0  0  0  0  0  0  0
   26.0753  -30.4201  -16.5855 C   0  0  0  0  0  0  0  0  0  0  0  0
   26.2002  -31.7808  -16.4144 C   0  0  0  0  0  0  0  0  0  0  0  0
   26.9881  -32.5246  -17.2639 C   0  0  0  0  0  0  0  0  0  0  0  0
   27.6863  -31.9324  -18.3245 C   0  0  0  0  0  0  0  0  0  0  0  0
   28.5494  -32.7227  -19.2229 C   0  0  0  0  0  0  0  0  0  0  0  0
   29.8357  -33.0747  -18.5640 C   0  0  2  0  0  0  0  0  0  0  0  0
   30.8498  -32.0467  -18.7492 N   0  0  0  0  0  0  0  0  0  0  0  0
   30.3849  -34.3530  -19.0298 C   0  0  0  0  0  0  0  0  0  0  0  0
   31.5340  -34.3898  -19.5302 O   0  0  0  0  0  0  0  0  0  0  0  0
   27.5642  -30.5638  -18.5011 C   0  0  0  0  0  0  0  0  0  0  0  0
   26.7679  -29.8538  -17.6323 C   0  0  0  0  0  0  0  0  0  0  0  0
   29.7260  -35.5705  -18.9632 O   0  0  0  0  0  0  0  0  0  0  0  0
  2  3  1  0
  2  1  1  6
  4  3  1  0
  4  8  1  0
  5  4  2  0
  6  5  1  0
  6  7  1  0
  7  8  2  0
  9  2  1  0
 10  9  2  0
 11  9  1  0
 12 11  1  0
 12 13  1  1
 14 13  1  0
 15 24  1  0
 15 12  1  0
 16 15  2  0
 18 17  1  0
 19 18  2  0
 20 19  1  0
 21 20  2  0
 21 27  1  0
 22 21  1  0
 23 22  1  6
 23 24  1  0
 25 23  1  0
 25 29  1  0
 26 25  2  0
 27 28  2  0
 28 18  1  0
M  END
$$$$
