RPV.pdb
     RDKit          3D

 26 26  0  0  1  0  0  0  0  0999 V2000
   24.7084  -28.2754  -16.5771 N   0  0  0  0  0  0  0  0  0  0  0  0
   23.6911  -27.4760  -17.1974 C   0  0  0  0  0  0  0  0  0  0  0  0
   22.5586  -28.0109  -17.4216 N   0  0  0  0  0  0  0  0  0  0  0  0
   23.9325  -26.1185  -17.5533 N   0  0  0  0  0  0  0  0  0  0  0  0
   25.1286  -25.4280  -17.1517 C   0  0  0  0  0  0  0  0  0  0  0  0
   25.0939  -24.8672  -15.7611 C   0  0  0  0  0  0  0  0  0  0  0  0
   26.3153  -24.0214  -15.4953 C   0  0  0  0  0  0  0  0  0  0  0  0
   26.2735  -22.6497  -16.1014 C   0  0  2  0  0  0  0  0  0  0  0  0
   27.5062  -22.4791  -16.8442 N   0  0  0  0  0  0  0  0  0  0  0  0
   26.1555  -21.5867  -15.0665 C   0  0  0  0  0  0  0  0  0  0  0  0
   27.2529  -21.1161  -14.5976 O   0  0  0  0  0  0  0  0  0  0  0  0
   21.7983  -27.4609  -17.8524 N   0  0  0  0  0  0  0  0  0  0  0  0
   24.9157  -21.0892  -14.5938 C   0  0  0  0  0  0  0  0  0  0  0  0
   23.6064  -21.5758  -14.9540 C   0  0  0  0  0  0  0  0  0  0  0  0
   22.6017  -20.6066  -14.3557 C   0  0  0  0  0  0  0  0  0  0  0  0
   23.4644  -19.3558  -14.1529 C   0  0  1  0  0  0  0  0  0  0  0  0
   24.7459  -20.0069  -13.6731 C   0  0  0  0  0  0  0  0  0  0  0  0
   24.4322  -20.5630  -12.3103 O   0  0  0  0  0  0  0  0  0  0  0  0
   23.7820  -21.6313  -12.1834 C   0  0  0  0  0  0  0  0  0  0  0  0
   26.1487  -18.4813   -8.9971 C   0  0  2  0  0  0  0  0  0  0  0  0
   26.6084  -19.8623   -9.4118 C   0  0  0  0  0  0  0  0  0  0  0  0
   27.2488  -20.5495   -8.2491 C   0  0  1  0  0  0  0  0  0  0  0  0
   25.4281  -20.5949   -9.9866 N   0  0  0  0  0  0  0  0  0  0  0  0
   24.8496  -19.9136  -11.1247 C   0  0  0  0  0  0  0  0  0  0  0  0
   24.4002  -20.6792   -8.9312 O   0  0  0  0  0  0  0  0  0  0  0  0
   24.5830  -21.4012   -7.9290 O   0  0  0  0  0  0  0  0  0  0  0  0
  2  3  2  0
  2  1  1  0
  4  2  1  0
  5  4  1  0
  6  7  1  0
  6  5  1  0
  7  8  1  0
  8  9  1  1
 10 12  1  0
 10  8  1  0
 11 10  2  0
 12 16  1  0
 13 14  1  0
 13 12  1  0
 14 15  1  0
 16 15  1  0
 16 17  1  1
 17 18  2  0
 20 19  1  6
 20 21  1  0
 20 22  1  0
 22 23  1  6
 23 17  1  0
 24 22  1  0
 25 24  2  0
 26 24  1  0
M  END
$$$$
