RPV.pdb
     RDKit          3D

 26 26  0  0  1  0  0  0  0  0999 V2000
    8.8739  -22.0019   -0.2484 N   0  0  0  0  0  0  0  0  0  0  0  0
   10.1901  -21.4628   -0.4372 C   0  0  0  0  0  0  0  0  0  0  0  0
   10.4650  -20.9238   -1.5565 N   0  0  0  0  0  0  0  0  0  0  0  0
   11.1684  -21.5223    0.5959 N   0  0  0  0  0  0  0  0  0  0  0  0
   11.2326  -22.6226    1.5201 C   0  0  0  0  0  0  0  0  0  0  0  0
   12.3420  -22.5349    2.5256 C   0  0  0  0  0  0  0  0  0  0  0  0
   13.5795  -23.2343    2.0185 C   0  0  0  0  0  0  0  0  0  0  0  0
   14.5232  -22.3602    1.2465 C   0  0  2  0  0  0  0  0  0  0  0  0
   14.8407  -23.0628    0.0194 N   0  0  0  0  0  0  0  0  0  0  0  0
   15.7718  -22.0808    2.0066 C   0  0  0  0  0  0  0  0  0  0  0  0
   16.7704  -22.8522    1.7761 O   0  0  0  0  0  0  0  0  0  0  0  0
   11.3666  -20.4402   -1.6950 N   0  0  0  0  0  0  0  0  0  0  0  0
   15.8965  -21.0274    2.9463 C   0  0  0  0  0  0  0  0  0  0  0  0
   14.8772  -20.0681    3.2949 C   0  0  0  0  0  0  0  0  0  0  0  0
   15.5410  -19.0306    4.1834 C   0  0  0  0  0  0  0  0  0  0  0  0
   17.0190  -19.2167    3.8220 C   0  0  1  0  0  0  0  0  0  0  0  0
   17.0655  -20.7276    3.7154 C   0  0  0  0  0  0  0  0  0  0  0  0
   16.8775  -21.2386    5.1184 O   0  0  0  0  0  0  0  0  0  0  0  0
   15.7280  -21.3567    5.6135 C   0  0  0  0  0  0  0  0  0  0  0  0
   18.3248  -24.4809    6.4987 C   0  0  2  0  0  0  0  0  0  0  0  0
   18.7691  -23.3773    7.4343 C   0  0  0  0  0  0  0  0  0  0  0  0
   20.2121  -23.0679    7.1977 C   0  0  2  0  0  0  0  0  0  0  0  0
   17.8483  -22.2042    7.2439 N   0  0  0  0  0  0  0  0  0  0  0  0
   17.9748  -21.6034    5.9336 C   0  0  0  0  0  0  0  0  0  0  0  0
   18.2087  -21.1880    8.2513 O   0  0  0  0  0  0  0  0  0  0  0  0
   18.8353  -20.1614    7.9153 O   0  0  0  0  0  0  0  0  0  0  0  0
  2  3  2  0
  2  1  1  0
  4  2  1  0
  5  4  1  0
  6  7  1  0
  6  5  1  0
  7  8  1  0
  8  9  1  6
 10 12  1  0
 10  8  1  0
 11 10  2  0
 12 16  1  0
 13 14  1  0
 13 12  1  0
 14 15  1  0
 16 15  1  0
 16 17  1  1
 17 18  2  0
 20 19  1  1
 20 21  1  0
 20 22  1  0
 22 23  1  1
 23 17  1  0
 24 22  1  0
 25 24  2  0
 26 24  1  0
M  END
$$$$
