RPV.pdb
     RDKit          3D

 26 26  0  0  1  0  0  0  0  0999 V2000
   21.4015  -19.4288  -18.3840 N   0  0  0  0  0  0  0  0  0  0  0  0
   21.1055  -19.1659  -17.0049 C   0  0  0  0  0  0  0  0  0  0  0  0
   20.2726  -19.9240  -16.4129 N   0  0  0  0  0  0  0  0  0  0  0  0
   21.7246  -18.0892  -16.3083 N   0  0  0  0  0  0  0  0  0  0  0  0
   23.1431  -17.8590  -16.3702 C   0  0  0  0  0  0  0  0  0  0  0  0
   23.9653  -18.7641  -15.5019 C   0  0  0  0  0  0  0  0  0  0  0  0
   25.4056  -18.7742  -15.9530 C   0  0  0  0  0  0  0  0  0  0  0  0
   26.0076  -20.1402  -16.1021 C   0  0  2  0  0  0  0  0  0  0  0  0
   25.1143  -20.9046  -16.9495 N   0  0  0  0  0  0  0  0  0  0  0  0
   26.1687  -20.8242  -14.7902 C   0  0  0  0  0  0  0  0  0  0  0  0
   25.2148  -21.6003  -14.4252 O   0  0  0  0  0  0  0  0  0  0  0  0
   20.0384  -19.7664  -15.4197 N   0  0  0  0  0  0  0  0  0  0  0  0
   27.3007  -20.6566  -13.9544 C   0  0  0  0  0  0  0  0  0  0  0  0
   28.4401  -19.8122  -14.2180 C   0  0  0  0  0  0  0  0  0  0  0  0
   29.4681  -20.1196  -13.1431 C   0  0  0  0  0  0  0  0  0  0  0  0
   29.0152  -21.5063  -12.6722 C   0  0  1  0  0  0  0  0  0  0  0  0
   27.5135  -21.3040  -12.6960 C   0  0  0  0  0  0  0  0  0  0  0  0
   27.2179  -20.3327  -11.5851 O   0  0  0  0  0  0  0  0  0  0  0  0
   27.1671  -19.0962  -11.8058 C   0  0  0  0  0  0  0  0  0  0  0  0
   25.0864  -22.0671   -8.5336 C   0  0  2  0  0  0  0  0  0  0  0  0
   24.8591  -20.6586   -9.0385 C   0  0  0  0  0  0  0  0  0  0  0  0
   24.0037  -19.9087   -8.0690 C   0  0  1  0  0  0  0  0  0  0  0  0
   26.2013  -20.0299   -9.2900 N   0  0  0  0  0  0  0  0  0  0  0  0
   26.9881  -20.7641  -10.2575 C   0  0  0  0  0  0  0  0  0  0  0  0
   26.9364  -20.0241   -8.0105 O   0  0  0  0  0  0  0  0  0  0  0  0
   27.6810  -20.9794   -7.7066 O   0  0  0  0  0  0  0  0  0  0  0  0
  2  3  2  0
  2  1  1  0
  4  2  1  0
  5  4  1  0
  6  7  1  0
  6  5  1  0
  7  8  1  0
  8  9  1  6
 10 12  1  0
 10  8  1  0
 11 10  2  0
 12 16  1  0
 13 14  1  0
 13 12  1  0
 14 15  1  0
 16 15  1  0
 16 17  1  1
 17 18  2  0
 20 19  1  6
 20 21  1  0
 20 22  1  0
 22 23  1  6
 23 17  1  0
 24 22  1  0
 25 24  2  0
 26 24  1  0
M  END
$$$$
