RPV.pdb
     RDKit          3D

 26 26  0  0  1  0  0  0  0  0999 V2000
   19.8926  -18.6072  -17.3978 N   0  0  0  0  0  0  0  0  0  0  0  0
   18.9113  -19.5389  -16.9207 C   0  0  0  0  0  0  0  0  0  0  0  0
   18.3900  -20.3447  -17.7561 N   0  0  0  0  0  0  0  0  0  0  0  0
   18.5268  -19.5701  -15.5500 N   0  0  0  0  0  0  0  0  0  0  0  0
   19.1082  -18.6850  -14.5766 C   0  0  0  0  0  0  0  0  0  0  0  0
   20.4856  -19.0673  -14.1228 C   0  0  0  0  0  0  0  0  0  0  0  0
   20.4399  -20.3044  -13.2595 C   0  0  0  0  0  0  0  0  0  0  0  0
   21.7559  -20.6985  -12.6564 C   0  0  2  0  0  0  0  0  0  0  0  0
   22.5398  -21.3046  -13.7140 N   0  0  0  0  0  0  0  0  0  0  0  0
   21.5884  -21.6625  -11.5351 C   0  0  0  0  0  0  0  0  0  0  0  0
   21.5072  -22.9032  -11.8506 O   0  0  0  0  0  0  0  0  0  0  0  0
   17.7298  -21.0717  -17.4372 N   0  0  0  0  0  0  0  0  0  0  0  0
   21.5176  -21.2747  -10.1740 C   0  0  0  0  0  0  0  0  0  0  0  0
   21.4626  -19.9235   -9.6721 C   0  0  0  0  0  0  0  0  0  0  0  0
   21.5991  -20.0137   -8.1622 C   0  0  0  0  0  0  0  0  0  0  0  0
   22.2536  -21.3897   -7.9944 C   0  0  1  0  0  0  0  0  0  0  0  0
   21.4924  -22.1630   -9.0522 C   0  0  0  0  0  0  0  0  0  0  0  0
   20.0817  -22.2700   -8.5392 O   0  0  0  0  0  0  0  0  0  0  0  0
   19.2541  -21.3429   -8.7287 C   0  0  0  0  0  0  0  0  0  0  0  0
   17.8030  -24.7505   -9.7214 C   0  0  2  0  0  0  0  0  0  0  0  0
   17.7742  -24.9645   -8.2234 C   0  0  0  0  0  0  0  0  0  0  0  0
   18.5841  -26.1707   -7.8721 C   0  0  2  0  0  0  0  0  0  0  0  0
   18.2379  -23.6970   -7.5611 N   0  0  0  0  0  0  0  0  0  0  0  0
   19.6302  -23.4063   -7.8273 C   0  0  0  0  0  0  0  0  0  0  0  0
   18.0760  -23.8713   -6.1048 O   0  0  0  0  0  0  0  0  0  0  0  0
   19.0456  -24.2205   -5.3997 O   0  0  0  0  0  0  0  0  0  0  0  0
  2  3  2  0
  2  1  1  0
  4  2  1  0
  5  4  1  0
  6  7  1  0
  6  5  1  0
  7  8  1  0
  8  9  1  6
 10 12  1  0
 10  8  1  0
 11 10  2  0
 12 16  1  0
 13 14  1  0
 13 12  1  0
 14 15  1  0
 16 15  1  0
 16 17  1  1
 17 18  2  0
 20 19  1  6
 20 21  1  0
 20 22  1  0
 22 23  1  1
 23 17  1  0
 24 22  1  0
 25 24  2  0
 26 24  1  0
M  END
$$$$
