RPV.pdb
     RDKit          3D

 26 26  0  0  1  0  0  0  0  0999 V2000
   26.0663  -21.9046  -11.1913 N   0  0  0  0  0  0  0  0  0  0  0  0
   26.2076  -20.8491  -12.1529 C   0  0  0  0  0  0  0  0  0  0  0  0
   25.1584  -20.2398  -12.5365 N   0  0  0  0  0  0  0  0  0  0  0  0
   27.4841  -20.4842  -12.6676 N   0  0  0  0  0  0  0  0  0  0  0  0
   27.6501  -19.3866  -13.5823 C   0  0  0  0  0  0  0  0  0  0  0  0
   27.0931  -19.6224  -14.9548 C   0  0  0  0  0  0  0  0  0  0  0  0
   28.2038  -19.8599  -15.9487 C   0  0  0  0  0  0  0  0  0  0  0  0
   28.0906  -21.1399  -16.7231 C   0  0  2  0  0  0  0  0  0  0  0  0
   29.0766  -21.0798  -17.7835 N   0  0  0  0  0  0  0  0  0  0  0  0
   26.7328  -21.3209  -17.3048 C   0  0  0  0  0  0  0  0  0  0  0  0
   26.4666  -20.6485  -18.3643 O   0  0  0  0  0  0  0  0  0  0  0  0
   24.2319  -20.5204  -12.1776 N   0  0  0  0  0  0  0  0  0  0  0  0
   25.7526  -22.1812  -16.7506 C   0  0  0  0  0  0  0  0  0  0  0  0
   25.8878  -22.9698  -15.5503 C   0  0  0  0  0  0  0  0  0  0  0  0
   24.6654  -23.8683  -15.4793 C   0  0  0  0  0  0  0  0  0  0  0  0
   24.2041  -23.8757  -16.9412 C   0  0  2  0  0  0  0  0  0  0  0  0
   24.4499  -22.4221  -17.2919 C   0  0  0  0  0  0  0  0  0  0  0  0
   23.4354  -21.6381  -16.5038 O   0  0  0  0  0  0  0  0  0  0  0  0
   23.6639  -21.2988  -15.3151 C   0  0  0  0  0  0  0  0  0  0  0  0
   20.4560  -19.8543  -18.7463 C   0  0  2  0  0  0  0  0  0  0  0  0
   20.9671  -19.1713  -17.4962 C   0  0  0  0  0  0  0  0  0  0  0  0
   19.9482  -18.1943  -17.0046 C   0  0  1  0  0  0  0  0  0  0  0  0
   21.3322  -20.2349  -16.4985 N   0  0  0  0  0  0  0  0  0  0  0  0
   22.1925  -21.2540  -17.0599 C   0  0  0  0  0  0  0  0  0  0  0  0
   20.0804  -20.8818  -16.0600 O   0  0  0  0  0  0  0  0  0  0  0  0
   19.6502  -21.8916  -16.6556 O   0  0  0  0  0  0  0  0  0  0  0  0
  2  3  2  0
  2  1  1  0
  4  2  1  0
  5  4  1  0
  6  7  1  0
  6  5  1  0
  7  8  1  0
  8  9  1  6
 10 12  1  0
 10  8  1  0
 11 10  2  0
 12 16  1  0
 13 14  1  0
 13 12  1  0
 14 15  1  0
 16 15  1  0
 16 17  1  1
 17 18  2  0
 20 19  1  6
 20 21  1  0
 20 22  1  0
 22 23  1  6
 23 17  1  0
 24 22  1  0
 25 24  2  0
 26 24  1  0
M  END
$$$$
