RPV.pdb
     RDKit          3D

 26 26  0  0  1  0  0  0  0  0999 V2000
   13.7034  -21.6363   -7.8204 N   0  0  0  0  0  0  0  0  0  0  0  0
   12.6063  -21.3163   -6.9529 C   0  0  0  0  0  0  0  0  0  0  0  0
   11.5434  -20.8494   -7.4737 N   0  0  0  0  0  0  0  0  0  0  0  0
   12.6945  -21.5152   -5.5456 N   0  0  0  0  0  0  0  0  0  0  0  0
   13.8647  -22.0804   -4.9292 C   0  0  0  0  0  0  0  0  0  0  0  0
   13.8691  -23.5778   -4.8437 C   0  0  0  0  0  0  0  0  0  0  0  0
   15.1484  -24.0735   -4.2148 C   0  0  0  0  0  0  0  0  0  0  0  0
   15.6740  -25.3565   -4.7878 C   0  0  2  0  0  0  0  0  0  0  0  0
   14.8375  -25.6844   -5.9250 N   0  0  0  0  0  0  0  0  0  0  0  0
   15.6371  -26.4658   -3.7964 C   0  0  0  0  0  0  0  0  0  0  0  0
   14.5670  -27.1723   -3.7634 O   0  0  0  0  0  0  0  0  0  0  0  0
   10.7503  -20.5669   -6.8760 N   0  0  0  0  0  0  0  0  0  0  0  0
   16.7059  -26.7628   -2.9146 C   0  0  0  0  0  0  0  0  0  0  0  0
   17.9446  -26.0331   -2.7968 C   0  0  0  0  0  0  0  0  0  0  0  0
   18.8411  -26.8423   -1.8759 C   0  0  0  0  0  0  0  0  0  0  0  0
   18.2093  -28.2353   -1.9780 C   0  0  1  0  0  0  0  0  0  0  0  0
   16.7439  -27.8491   -1.9837 C   0  0  0  0  0  0  0  0  0  0  0  0
   16.4577  -27.3252   -0.6022 O   0  0  0  0  0  0  0  0  0  0  0  0
   16.8081  -26.1655   -0.2665 C   0  0  0  0  0  0  0  0  0  0  0  0
   12.9134  -27.4798    0.8516 C   0  0  2  0  0  0  0  0  0  0  0  0
   13.8497  -28.0864    1.8743 C   0  0  0  0  0  0  0  0  0  0  0  0
   13.7267  -29.5758    1.8477 C   0  0  2  0  0  0  0  0  0  0  0  0
   15.2371  -27.5779    1.5975 N   0  0  0  0  0  0  0  0  0  0  0  0
   15.7900  -28.1072    0.3695 C   0  0  0  0  0  0  0  0  0  0  0  0
   16.1002  -28.0109    2.7133 O   0  0  0  0  0  0  0  0  0  0  0  0
   15.9701  -27.5012    3.8458 O   0  0  0  0  0  0  0  0  0  0  0  0
  2  3  2  0
  2  1  1  0
  4  2  1  0
  5  4  1  0
  6  7  1  0
  6  5  1  0
  7  8  1  0
  8  9  1  6
 10 12  1  0
 10  8  1  0
 11 10  2  0
 12 16  1  0
 13 14  1  0
 13 12  1  0
 14 15  1  0
 16 15  1  0
 16 17  1  1
 17 18  2  0
 20 19  1  1
 20 21  1  0
 20 22  1  0
 22 23  1  1
 23 17  1  0
 24 22  1  0
 25 24  2  0
 26 24  1  0
M  END
$$$$
