RPV.pdb
     RDKit          3D

 26 26  0  0  1  0  0  0  0  0999 V2000
   21.1319  -21.5961  -13.6943 N   0  0  0  0  0  0  0  0  0  0  0  0
   21.2548  -21.8891  -12.2952 C   0  0  0  0  0  0  0  0  0  0  0  0
   20.2674  -22.4331  -11.7051 N   0  0  0  0  0  0  0  0  0  0  0  0
   22.4472  -21.5856  -11.5785 N   0  0  0  0  0  0  0  0  0  0  0  0
   23.6780  -21.2658  -12.2505 C   0  0  0  0  0  0  0  0  0  0  0  0
   24.0193  -22.1669  -13.3998 C   0  0  0  0  0  0  0  0  0  0  0  0
   25.2506  -21.6727  -14.1192 C   0  0  0  0  0  0  0  0  0  0  0  0
   26.2341  -20.9430  -13.2525 C   0  0  2  0  0  0  0  0  0  0  0  0
   25.7715  -21.0761  -11.8855 N   0  0  0  0  0  0  0  0  0  0  0  0
   26.3344  -19.5030  -13.6144 C   0  0  0  0  0  0  0  0  0  0  0  0
   25.8168  -18.6657  -12.7919 O   0  0  0  0  0  0  0  0  0  0  0  0
   20.2942  -22.5959  -10.6859 N   0  0  0  0  0  0  0  0  0  0  0  0
   26.9608  -19.0352  -14.7963 C   0  0  0  0  0  0  0  0  0  0  0  0
   27.6239  -19.8441  -15.7897 C   0  0  0  0  0  0  0  0  0  0  0  0
   28.3022  -18.8840  -16.7513 C   0  0  0  0  0  0  0  0  0  0  0  0
   28.3966  -17.6123  -15.9006 C   0  0  1  0  0  0  0  0  0  0  0  0
   27.0484  -17.6682  -15.2108 C   0  0  0  0  0  0  0  0  0  0  0  0
   26.0305  -17.4135  -16.2897 O   0  0  0  0  0  0  0  0  0  0  0  0
   25.5147  -18.3658  -16.9278 C   0  0  0  0  0  0  0  0  0  0  0  0
   24.2834  -14.7054  -14.4965 C   0  0  2  0  0  0  0  0  0  0  0  0
   23.5374  -15.6665  -15.3968 C   0  0  0  0  0  0  0  0  0  0  0  0
   22.0961  -15.2765  -15.4643 C   0  0  1  0  0  0  0  0  0  0  0  0
   24.2316  -15.6924  -16.7301 N   0  0  0  0  0  0  0  0  0  0  0  0
   25.6151  -16.1047  -16.6302 C   0  0  0  0  0  0  0  0  0  0  0  0
   24.1997  -14.3213  -17.2747 O   0  0  0  0  0  0  0  0  0  0  0  0
   25.0469  -13.4786  -16.9117 O   0  0  0  0  0  0  0  0  0  0  0  0
  2  3  2  0
  2  1  1  0
  4  2  1  0
  5  4  1  0
  6  7  1  0
  6  5  1  0
  7  8  1  0
  8  9  1  1
 10 12  1  0
 10  8  1  0
 11 10  2  0
 12 16  1  0
 13 14  1  0
 13 12  1  0
 14 15  1  0
 16 15  1  0
 16 17  1  6
 17 18  2  0
 20 19  1  1
 20 21  1  0
 20 22  1  0
 22 23  1  1
 23 17  1  0
 24 22  1  0
 25 24  2  0
 26 24  1  0
M  END
$$$$
