RPV.pdb
     RDKit          3D

 26 26  0  0  1  0  0  0  0  0999 V2000
   17.3254  -17.6914  -15.1304 N   0  0  0  0  0  0  0  0  0  0  0  0
   18.1055  -18.8596  -15.4227 C   0  0  0  0  0  0  0  0  0  0  0  0
   17.8254  -19.5236  -16.4713 N   0  0  0  0  0  0  0  0  0  0  0  0
   19.1686  -19.2709  -14.5692 N   0  0  0  0  0  0  0  0  0  0  0  0
   19.5007  -18.5531  -13.3679 C   0  0  0  0  0  0  0  0  0  0  0  0
   20.6571  -19.1178  -12.5975 C   0  0  0  0  0  0  0  0  0  0  0  0
   21.6373  -19.7945  -13.5244 C   0  0  0  0  0  0  0  0  0  0  0  0
   22.8185  -20.4190  -12.8421 C   0  0  2  0  0  0  0  0  0  0  0  0
   23.6497  -20.9945  -13.8805 N   0  0  0  0  0  0  0  0  0  0  0  0
   22.4100  -21.4762  -11.8776 C   0  0  0  0  0  0  0  0  0  0  0  0
   22.0945  -22.6164  -12.3734 O   0  0  0  0  0  0  0  0  0  0  0  0
   18.3327  -20.3966  -16.6867 N   0  0  0  0  0  0  0  0  0  0  0  0
   22.3579  -21.2780  -10.4754 C   0  0  0  0  0  0  0  0  0  0  0  0
   22.6410  -20.0492   -9.7749 C   0  0  0  0  0  0  0  0  0  0  0  0
   22.6476  -20.3839   -8.2935 C   0  0  0  0  0  0  0  0  0  0  0  0
   22.8887  -21.8975   -8.3213 C   0  0  1  0  0  0  0  0  0  0  0  0
   22.0169  -22.2712   -9.5031 C   0  0  0  0  0  0  0  0  0  0  0  0
   20.5999  -22.0495   -9.0474 O   0  0  0  0  0  0  0  0  0  0  0  0
   20.0601  -20.9184   -9.1453 C   0  0  0  0  0  0  0  0  0  0  0  0
   16.5792  -24.6525   -9.5495 C   0  0  2  0  0  0  0  0  0  0  0  0
   18.0811  -24.4663   -9.5489 C   0  0  0  0  0  0  0  0  0  0  0  0
   18.5795  -24.3939  -10.9561 C   0  0  1  0  0  0  0  0  0  0  0  0
   18.4016  -23.2545   -8.7188 N   0  0  0  0  0  0  0  0  0  0  0  0
   19.8218  -23.0931   -8.4933 C   0  0  0  0  0  0  0  0  0  0  0  0
   17.7456  -23.4271   -7.4083 O   0  0  0  0  0  0  0  0  0  0  0  0
   16.5474  -23.1102   -7.2562 O   0  0  0  0  0  0  0  0  0  0  0  0
  2  3  2  0
  2  1  1  0
  4  2  1  0
  5  4  1  0
  6  7  1  0
  6  5  1  0
  7  8  1  0
  8  9  1  6
 10 12  1  0
 10  8  1  0
 11 10  2  0
 12 16  1  0
 13 14  1  0
 13 12  1  0
 14 15  1  0
 16 15  1  0
 16 17  1  1
 17 18  2  0
 20 19  1  6
 20 21  1  0
 20 22  1  0
 22 23  1  1
 23 17  1  0
 24 22  1  0
 25 24  2  0
 26 24  1  0
M  END
$$$$
