RPV.pdb
     RDKit          3D

 26 26  0  0  1  0  0  0  0  0999 V2000
   12.3483  -19.6035   -4.3393 N   0  0  0  0  0  0  0  0  0  0  0  0
   12.0366  -20.5699   -5.3530 C   0  0  0  0  0  0  0  0  0  0  0  0
   11.5061  -20.1586   -6.4340 N   0  0  0  0  0  0  0  0  0  0  0  0
   12.3128  -21.9540   -5.1645 N   0  0  0  0  0  0  0  0  0  0  0  0
   13.5184  -22.4089   -4.5253 C   0  0  0  0  0  0  0  0  0  0  0  0
   14.2356  -23.5105   -5.2474 C   0  0  0  0  0  0  0  0  0  0  0  0
   14.3189  -24.7478   -4.3872 C   0  0  0  0  0  0  0  0  0  0  0  0
   15.1606  -25.8522   -4.9553 C   0  0  2  0  0  0  0  0  0  0  0  0
   14.4720  -26.3449   -6.1315 N   0  0  0  0  0  0  0  0  0  0  0  0
   15.3555  -26.9610   -3.9820 C   0  0  0  0  0  0  0  0  0  0  0  0
   14.4456  -27.8647   -3.9496 O   0  0  0  0  0  0  0  0  0  0  0  0
   11.2588  -20.8272   -7.1808 N   0  0  0  0  0  0  0  0  0  0  0  0
   16.4734  -27.0545   -3.1161 C   0  0  0  0  0  0  0  0  0  0  0  0
   17.5803  -26.1322   -3.0471 C   0  0  0  0  0  0  0  0  0  0  0  0
   18.6113  -26.7573   -2.1236 C   0  0  0  0  0  0  0  0  0  0  0  0
   18.2103  -28.2361   -2.1714 C   0  0  1  0  0  0  0  0  0  0  0  0
   16.7020  -28.0902   -2.1554 C   0  0  0  0  0  0  0  0  0  0  0  0
   16.3594  -27.5750   -0.7835 O   0  0  0  0  0  0  0  0  0  0  0  0
   16.5925  -26.3813   -0.4657 C   0  0  0  0  0  0  0  0  0  0  0  0
   12.9651  -28.7987    0.9412 C   0  0  2  0  0  0  0  0  0  0  0  0
   14.0933  -28.8043    1.9500 C   0  0  0  0  0  0  0  0  0  0  0  0
   14.5223  -30.2110    2.2169 C   0  0  2  0  0  0  0  0  0  0  0  0
   15.1883  -27.9143    1.4315 N   0  0  0  0  0  0  0  0  0  0  0  0
   15.7674  -28.4034    0.1989 C   0  0  0  0  0  0  0  0  0  0  0  0
   16.2515  -27.8755    2.4541 O   0  0  0  0  0  0  0  0  0  0  0  0
   17.3118  -28.5133    2.2859 O   0  0  0  0  0  0  0  0  0  0  0  0
  2  3  2  0
  2  1  1  0
  4  2  1  0
  5  4  1  0
  6  7  1  0
  6  5  1  0
  7  8  1  0
  8  9  1  6
 10 12  1  0
 10  8  1  0
 11 10  2  0
 12 16  1  0
 13 14  1  0
 13 12  1  0
 14 15  1  0
 16 15  1  0
 16 17  1  1
 17 18  2  0
 20 19  1  1
 20 21  1  0
 20 22  1  0
 22 23  1  1
 23 17  1  0
 24 22  1  0
 25 24  2  0
 26 24  1  0
M  END
$$$$
