IFQ.pdb
     RDKit          3D

 29 29  0  0  1  0  0  0  0  0999 V2000
   29.7227  -19.1216  -18.1727 C   0  0  0  0  0  0  0  0  0  0  0  0
   28.5931  -18.4497  -18.9142 C   0  0  0  0  0  0  0  0  0  0  0  0
   27.4306  -18.1385  -18.0087 C   0  0  2  0  0  0  0  0  0  0  0  0
   26.9638  -19.3531  -17.2482 C   0  0  0  0  0  0  0  0  0  0  0  0
   26.2996  -17.6373  -18.8995 C   0  0  2  0  0  0  0  0  0  0  0  0
   26.6571  -16.4584  -19.6264 N   0  0  0  0  0  0  0  0  0  0  0  0
   25.0311  -17.4546  -18.1743 C   0  0  0  0  0  0  0  0  0  0  0  0
   24.8559  -16.4102  -17.4975 O   0  0  0  0  0  0  0  0  0  0  0  0
   23.9647  -18.4105  -18.1900 N   0  0  0  0  0  0  0  0  0  0  0  0
   22.6889  -18.0541  -17.5416 C   0  0  1  0  0  0  0  0  0  0  0  0
   21.7482  -17.6829  -18.6354 C   0  0  0  0  0  0  0  0  0  0  0  0
   21.8074  -16.2730  -19.0613 C   0  0  0  0  0  0  0  0  0  0  0  0
   22.5103  -15.9326  -20.1937 C   0  0  0  0  0  0  0  0  0  0  0  0
   22.6267  -14.6379  -20.6657 C   0  0  0  0  0  0  0  0  0  0  0  0
   22.0028  -13.6024  -19.9679 C   0  0  0  0  0  0  0  0  0  0  0  0
   21.2949  -13.9325  -18.8336 C   0  0  0  0  0  0  0  0  0  0  0  0
   21.1991  -15.2313  -18.3894 C   0  0  0  0  0  0  0  0  0  0  0  0
   22.1531  -19.2690  -16.8612 C   0  0  0  0  0  0  0  0  0  0  0  0
   22.3125  -20.3667  -17.4239 O   0  0  0  0  0  0  0  0  0  0  0  0
   21.8000  -20.7321  -11.3171 N   0  0  0  0  0  0  0  0  0  0  0  0
   20.6210  -21.5071  -11.5330 C   0  0  0  0  0  0  0  0  0  0  0  0
   20.2367  -22.4099  -10.8024 O   0  0  0  0  0  0  0  0  0  0  0  0
   19.8292  -21.1443  -12.7707 C   0  0  0  0  0  0  0  0  0  0  0  0
   20.5675  -20.0201  -13.4663 C   0  0  0  0  0  0  0  0  0  0  0  0
   20.8569  -20.2230  -14.9021 C   0  0  2  0  0  0  0  0  0  0  0  0
   21.4926  -19.1962  -15.6417 N   0  0  0  0  0  0  0  0  0  0  0  0
   19.6269  -20.7824  -15.5670 C   0  0  0  0  0  0  0  0  0  0  0  0
   18.7760  -20.0047  -15.9835 O   0  0  0  0  0  0  0  0  0  0  0  0
   19.5448  -22.1640  -15.6572 O   0  0  0  0  0  0  0  0  0  0  0  0
  2  1  1  0
  3  2  1  0
  3  4  1  6
  5  3  1  0
  5  6  1  1
  7  5  1  0
  7  8  2  0
  9  7  1  0
 10  9  1  0
 11 12  1  0
 10 11  1  6
 12 13  2  0
 13 14  1  0
 15 14  2  0
 16 15  1  0
 17 12  1  0
 17 16  2  0
 18 10  1  0
 19 18  2  0
 20 21  1  0
 21 22  2  0
 21 23  1  0
 23 24  1  0
 25 24  1  1
 25 26  1  0
 25 27  1  0
 26 18  1  0
 27 29  1  0
 28 27  2  0
M  END
$$$$
