IFQ.pdb
     RDKit          3D

 29 29  0  0  1  0  0  0  0  0999 V2000
   27.1661  -20.4966   -3.9553 C   0  0  0  0  0  0  0  0  0  0  0  0
   27.6961  -20.1319   -5.3204 C   0  0  0  0  0  0  0  0  0  0  0  0
   26.6282  -20.2110   -6.3794 C   0  0  2  0  0  0  0  0  0  0  0  0
   26.0231  -21.5882   -6.4722 C   0  0  0  0  0  0  0  0  0  0  0  0
   27.2956  -19.8643   -7.7054 C   0  0  2  0  0  0  0  0  0  0  0  0
   27.9638  -18.6002   -7.6676 N   0  0  0  0  0  0  0  0  0  0  0  0
   26.3778  -19.9501   -8.8537 C   0  0  0  0  0  0  0  0  0  0  0  0
   25.6354  -18.9717   -9.1205 O   0  0  0  0  0  0  0  0  0  0  0  0
   26.2738  -21.1003   -9.7007 N   0  0  0  0  0  0  0  0  0  0  0  0
   25.6044  -20.9557  -11.0069 C   0  0  1  0  0  0  0  0  0  0  0  0
   26.5131  -21.5662  -12.0171 C   0  0  0  0  0  0  0  0  0  0  0  0
   27.7280  -20.7878  -12.3188 C   0  0  0  0  0  0  0  0  0  0  0  0
   28.9657  -21.3302  -12.0613 C   0  0  0  0  0  0  0  0  0  0  0  0
   30.1581  -20.6734  -12.3049 C   0  0  0  0  0  0  0  0  0  0  0  0
   30.1263  -19.3856  -12.8426 C   0  0  0  0  0  0  0  0  0  0  0  0
   28.8921  -18.8340  -13.1059 C   0  0  0  0  0  0  0  0  0  0  0  0
   27.7233  -19.5136  -12.8508 C   0  0  0  0  0  0  0  0  0  0  0  0
   24.3423  -21.7508  -10.9776 C   0  0  0  0  0  0  0  0  0  0  0  0
   24.3357  -22.8045  -10.3168 O   0  0  0  0  0  0  0  0  0  0  0  0
   20.1369  -23.3047   -8.2954 N   0  0  0  0  0  0  0  0  0  0  0  0
   19.7499  -21.9505   -8.5269 C   0  0  0  0  0  0  0  0  0  0  0  0
   19.0257  -21.2966   -7.7892 O   0  0  0  0  0  0  0  0  0  0  0  0
   20.3025  -21.3298   -9.7919 C   0  0  0  0  0  0  0  0  0  0  0  0
   21.2782  -22.3198  -10.3923 C   0  0  0  0  0  0  0  0  0  0  0  0
   21.9086  -21.9188  -11.6684 C   0  0  2  0  0  0  0  0  0  0  0  0
   23.2035  -21.3457  -11.6617 N   0  0  0  0  0  0  0  0  0  0  0  0
   20.9030  -21.1457  -12.4802 C   0  0  0  0  0  0  0  0  0  0  0  0
   21.1289  -19.9679  -12.7329 O   0  0  0  0  0  0  0  0  0  0  0  0
   19.7713  -21.8368  -12.8868 O   0  0  0  0  0  0  0  0  0  0  0  0
  2  1  1  0
  3  2  1  0
  3  4  1  6
  5  3  1  0
  5  6  1  1
  7  5  1  0
  7  8  2  0
  9  7  1  0
 10  9  1  0
 11 12  1  0
 10 11  1  6
 12 13  2  0
 13 14  1  0
 15 14  2  0
 16 15  1  0
 17 12  1  0
 17 16  2  0
 18 10  1  0
 19 18  2  0
 20 21  1  0
 21 22  2  0
 21 23  1  0
 23 24  1  0
 25 24  1  1
 25 26  1  0
 25 27  1  0
 26 18  1  0
 27 29  1  0
 28 27  2  0
M  END
$$$$
