IFQ.pdb
     RDKit          3D

 29 29  0  0  1  0  0  0  0  0999 V2000
   20.3391  -22.2022  -17.0817 C   0  0  0  0  0  0  0  0  0  0  0  0
   19.3115  -22.1471  -15.9778 C   0  0  0  0  0  0  0  0  0  0  0  0
   19.8678  -22.6322  -14.6650 C   0  0  2  0  0  0  0  0  0  0  0  0
   20.3707  -24.0504  -14.7522 C   0  0  0  0  0  0  0  0  0  0  0  0
   18.7311  -22.5629  -13.6518 C   0  0  2  0  0  0  0  0  0  0  0  0
   18.0949  -21.2820  -13.6301 N   0  0  0  0  0  0  0  0  0  0  0  0
   19.1365  -22.9818  -12.2995 C   0  0  0  0  0  0  0  0  0  0  0  0
   19.7747  -24.0548  -12.1549 O   0  0  0  0  0  0  0  0  0  0  0  0
   18.8423  -22.2309  -11.1159 N   0  0  0  0  0  0  0  0  0  0  0  0
   19.3257  -22.7408   -9.8192 C   0  0  1  0  0  0  0  0  0  0  0  0
   19.7178  -21.5491   -9.0162 C   0  0  0  0  0  0  0  0  0  0  0  0
   21.1482  -21.1975   -9.0740 C   0  0  0  0  0  0  0  0  0  0  0  0
   21.6398  -20.5221  -10.1669 C   0  0  0  0  0  0  0  0  0  0  0  0
   22.9657  -20.1566  -10.3116 C   0  0  0  0  0  0  0  0  0  0  0  0
   23.8736  -20.4820   -9.3025 C   0  0  0  0  0  0  0  0  0  0  0  0
   23.3913  -21.1567   -8.2030 C   0  0  0  0  0  0  0  0  0  0  0  0
   22.0657  -21.5072   -8.0897 C   0  0  0  0  0  0  0  0  0  0  0  0
   18.1883  -23.4134   -9.1263 C   0  0  0  0  0  0  0  0  0  0  0  0
   17.0374  -23.0177   -9.3825 O   0  0  0  0  0  0  0  0  0  0  0  0
   19.1003  -26.9030   -4.1226 N   0  0  0  0  0  0  0  0  0  0  0  0
   17.6794  -27.0309   -4.0800 C   0  0  0  0  0  0  0  0  0  0  0  0
   17.0592  -27.6323   -3.2139 O   0  0  0  0  0  0  0  0  0  0  0  0
   16.9376  -26.3564   -5.2138 C   0  0  0  0  0  0  0  0  0  0  0  0
   17.9627  -25.6197   -6.0497 C   0  0  0  0  0  0  0  0  0  0  0  0
   17.4718  -25.0404   -7.3186 C   0  0  2  0  0  0  0  0  0  0  0  0
   18.3885  -24.4463   -8.2198 N   0  0  0  0  0  0  0  0  0  0  0  0
   16.2658  -24.1880   -7.0240 C   0  0  0  0  0  0  0  0  0  0  0  0
   16.4367  -23.0431   -6.6213 O   0  0  0  0  0  0  0  0  0  0  0  0
   15.0262  -24.7747   -7.2311 O   0  0  0  0  0  0  0  0  0  0  0  0
  2  1  1  0
  3  2  1  0
  3  4  1  6
  5  3  1  0
  5  6  1  1
  7  5  1  0
  7  8  2  0
  9  7  1  0
 10  9  1  0
 11 12  1  0
 10 11  1  1
 12 13  2  0
 13 14  1  0
 15 14  2  0
 16 15  1  0
 17 12  1  0
 17 16  2  0
 18 10  1  0
 19 18  2  0
 20 21  1  0
 21 22  2  0
 21 23  1  0
 23 24  1  0
 25 24  1  1
 25 26  1  0
 25 27  1  0
 26 18  1  0
 27 29  1  0
 28 27  2  0
M  END
$$$$
