IFQ.pdb
     RDKit          3D

 29 29  0  0  1  0  0  0  0  0999 V2000
   20.7317  -22.7657  -11.0970 C   0  0  0  0  0  0  0  0  0  0  0  0
   20.7287  -21.2617  -10.9727 C   0  0  0  0  0  0  0  0  0  0  0  0
   22.1182  -20.6865  -11.0546 C   0  0  2  0  0  0  0  0  0  0  0  0
   22.9596  -21.3834  -12.0928 C   0  0  0  0  0  0  0  0  0  0  0  0
   22.7547  -20.8742   -9.6822 C   0  0  2  0  0  0  0  0  0  0  0  0
   21.9390  -20.3601   -8.6258 N   0  0  0  0  0  0  0  0  0  0  0  0
   24.1267  -20.3449   -9.6047 C   0  0  0  0  0  0  0  0  0  0  0  0
   24.3121  -19.1050   -9.6938 O   0  0  0  0  0  0  0  0  0  0  0  0
   25.2854  -21.1689   -9.4331 N   0  0  0  0  0  0  0  0  0  0  0  0
   26.6150  -20.5711   -9.6562 C   0  0  1  0  0  0  0  0  0  0  0  0
   27.5023  -21.1023   -8.5841 C   0  0  0  0  0  0  0  0  0  0  0  0
   27.4652  -20.3565   -7.3132 C   0  0  0  0  0  0  0  0  0  0  0  0
   28.4320  -19.4148   -7.0476 C   0  0  0  0  0  0  0  0  0  0  0  0
   28.4819  -18.6723   -5.8820 C   0  0  0  0  0  0  0  0  0  0  0  0
   27.5046  -18.8746   -4.9060 C   0  0  0  0  0  0  0  0  0  0  0  0
   26.5308  -19.8140   -5.1626 C   0  0  0  0  0  0  0  0  0  0  0  0
   26.5098  -20.5375   -6.3328 C   0  0  0  0  0  0  0  0  0  0  0  0
   27.1326  -21.0553  -10.9692 C   0  0  0  0  0  0  0  0  0  0  0  0
   27.5838  -22.2130  -11.0235 O   0  0  0  0  0  0  0  0  0  0  0  0
   25.5170  -24.0622  -14.3437 N   0  0  0  0  0  0  0  0  0  0  0  0
   25.9773  -23.2948  -15.4556 C   0  0  0  0  0  0  0  0  0  0  0  0
   26.5234  -23.7609  -16.4461 O   0  0  0  0  0  0  0  0  0  0  0  0
   25.7496  -21.8025  -15.3470 C   0  0  0  0  0  0  0  0  0  0  0  0
   25.8163  -21.4408  -13.8782 C   0  0  0  0  0  0  0  0  0  0  0  0
   26.9755  -20.6223  -13.4624 C   0  0  2  0  0  0  0  0  0  0  0  0
   27.1224  -20.2534  -12.1030 N   0  0  0  0  0  0  0  0  0  0  0  0
   27.1252  -19.4748  -14.4260 C   0  0  0  0  0  0  0  0  0  0  0  0
   26.9005  -18.3374  -14.0285 O   0  0  0  0  0  0  0  0  0  0  0  0
   27.5106  -19.7970  -15.7188 O   0  0  0  0  0  0  0  0  0  0  0  0
  2  1  1  0
  3  2  1  0
  3  4  1  6
  5  3  1  0
  5  6  1  1
  7  5  1  0
  7  8  2  0
  9  7  1  0
 10  9  1  0
 11 12  1  0
 10 11  1  1
 12 13  2  0
 13 14  1  0
 15 14  2  0
 16 15  1  0
 17 12  1  0
 17 16  2  0
 18 10  1  0
 19 18  2  0
 20 21  1  0
 21 22  2  0
 21 23  1  0
 23 24  1  0
 25 24  1  1
 25 26  1  0
 25 27  1  0
 26 18  1  0
 27 29  1  0
 28 27  2  0
M  END
$$$$
