IFQ.pdb
     RDKit          3D

 29 29  0  0  1  0  0  0  0  0999 V2000
   22.1694  -16.3780  -21.0944 C   0  0  0  0  0  0  0  0  0  0  0  0
   23.3522  -17.2373  -20.7201 C   0  0  0  0  0  0  0  0  0  0  0  0
   22.9961  -18.2631  -19.6766 C   0  0  2  0  0  0  0  0  0  0  0  0
   21.9556  -17.7532  -18.7127 C   0  0  0  0  0  0  0  0  0  0  0  0
   24.2773  -18.5788  -18.9133 C   0  0  2  0  0  0  0  0  0  0  0  0
   25.3092  -19.0877  -19.7631 N   0  0  0  0  0  0  0  0  0  0  0  0
   24.0566  -19.4591  -17.7537 C   0  0  0  0  0  0  0  0  0  0  0  0
   23.8686  -20.6873  -17.9424 O   0  0  0  0  0  0  0  0  0  0  0  0
   24.0403  -18.9955  -16.3987 N   0  0  0  0  0  0  0  0  0  0  0  0
   23.8436  -19.9805  -15.3188 C   0  0  1  0  0  0  0  0  0  0  0  0
   25.0224  -19.8592  -14.4163 C   0  0  0  0  0  0  0  0  0  0  0  0
   26.3151  -20.2284  -15.0208 C   0  0  0  0  0  0  0  0  0  0  0  0
   27.1938  -19.2422  -15.4047 C   0  0  0  0  0  0  0  0  0  0  0  0
   28.4240  -19.4925  -15.9849 C   0  0  0  0  0  0  0  0  0  0  0  0
   28.8157  -20.8146  -16.2023 C   0  0  0  0  0  0  0  0  0  0  0  0
   27.9439  -21.8098  -15.8199 C   0  0  0  0  0  0  0  0  0  0  0  0
   26.7258  -21.5274  -15.2458 C   0  0  0  0  0  0  0  0  0  0  0  0
   22.6266  -19.5937  -14.5471 C   0  0  0  0  0  0  0  0  0  0  0  0
   22.4252  -18.3822  -14.3507 O   0  0  0  0  0  0  0  0  0  0  0  0
   17.8378  -19.0446  -16.6765 N   0  0  0  0  0  0  0  0  0  0  0  0
   17.7342  -18.2311  -15.5083 C   0  0  0  0  0  0  0  0  0  0  0  0
   16.9993  -17.2593  -15.3984 O   0  0  0  0  0  0  0  0  0  0  0  0
   18.6217  -18.6450  -14.3543 C   0  0  0  0  0  0  0  0  0  0  0  0
   19.4791  -19.7971  -14.8340 C   0  0  0  0  0  0  0  0  0  0  0  0
   20.3469  -20.4290  -13.8170 C   0  0  2  0  0  0  0  0  0  0  0  0
   21.7386  -20.5407  -14.0537 N   0  0  0  0  0  0  0  0  0  0  0  0
   19.7003  -21.7105  -13.3613 C   0  0  0  0  0  0  0  0  0  0  0  0
   18.8234  -21.6575  -12.5067 O   0  0  0  0  0  0  0  0  0  0  0  0
   20.1569  -22.8795  -13.9517 O   0  0  0  0  0  0  0  0  0  0  0  0
  2  1  1  0
  3  2  1  0
  3  4  1  1
  5  3  1  0
  5  6  1  6
  7  5  1  0
  7  8  2  0
  9  7  1  0
 10  9  1  0
 11 12  1  0
 10 11  1  1
 12 13  2  0
 13 14  1  0
 15 14  2  0
 16 15  1  0
 17 12  1  0
 17 16  2  0
 18 10  1  0
 19 18  2  0
 20 21  1  0
 21 22  2  0
 21 23  1  0
 23 24  1  0
 25 24  1  6
 25 26  1  0
 25 27  1  0
 26 18  1  0
 27 29  1  0
 28 27  2  0
M  END
$$$$
