IFQ.pdb
     RDKit          3D

 29 29  0  0  1  0  0  0  0  0999 V2000
   26.8926  -20.2253  -20.8668 C   0  0  0  0  0  0  0  0  0  0  0  0
   27.6511  -20.8495  -19.7212 C   0  0  0  0  0  0  0  0  0  0  0  0
   26.7708  -21.0795  -18.5210 C   0  0  2  0  0  0  0  0  0  0  0  0
   26.1556  -19.7997  -18.0159 C   0  0  0  0  0  0  0  0  0  0  0  0
   27.6559  -21.6761  -17.4328 C   0  0  2  0  0  0  0  0  0  0  0  0
   28.2767  -22.8982  -17.8412 N   0  0  0  0  0  0  0  0  0  0  0  0
   26.9602  -21.8339  -16.1445 C   0  0  0  0  0  0  0  0  0  0  0  0
   26.1135  -22.7533  -16.0129 O   0  0  0  0  0  0  0  0  0  0  0  0
   27.1900  -20.9890  -15.0112 N   0  0  0  0  0  0  0  0  0  0  0  0
   26.3813  -21.2032  -13.7966 C   0  0  1  0  0  0  0  0  0  0  0  0
   27.1397  -20.5901  -12.6705 C   0  0  0  0  0  0  0  0  0  0  0  0
   26.4250  -20.5502  -11.3820 C   0  0  0  0  0  0  0  0  0  0  0  0
   26.2969  -21.7003  -10.6383 C   0  0  0  0  0  0  0  0  0  0  0  0
   25.6392  -21.7605   -9.4233 C   0  0  0  0  0  0  0  0  0  0  0  0
   25.0651  -20.5989   -8.9039 C   0  0  0  0  0  0  0  0  0  0  0  0
   25.1891  -19.4414   -9.6397 C   0  0  0  0  0  0  0  0  0  0  0  0
   25.8493  -19.4150  -10.8466 C   0  0  0  0  0  0  0  0  0  0  0  0
   25.0973  -20.4592  -13.9508 C   0  0  0  0  0  0  0  0  0  0  0  0
   25.1531  -19.2825  -14.3496 O   0  0  0  0  0  0  0  0  0  0  0  0
   19.6659  -20.8518  -16.3629 N   0  0  0  0  0  0  0  0  0  0  0  0
   20.1867  -19.5239  -16.4151 C   0  0  0  0  0  0  0  0  0  0  0  0
   19.7748  -18.6421  -17.1561 O   0  0  0  0  0  0  0  0  0  0  0  0
   21.3313  -19.2431  -15.4655 C   0  0  0  0  0  0  0  0  0  0  0  0
   21.6954  -20.5518  -14.7967 C   0  0  0  0  0  0  0  0  0  0  0  0
   22.5838  -20.4548  -13.6186 C   0  0  2  0  0  0  0  0  0  0  0  0
   23.8712  -21.0432  -13.6603 N   0  0  0  0  0  0  0  0  0  0  0  0
   21.7912  -20.8066  -12.3875 C   0  0  0  0  0  0  0  0  0  0  0  0
   22.0843  -21.8224  -11.7674 O   0  0  0  0  0  0  0  0  0  0  0  0
   20.7653  -19.9397  -12.0416 O   0  0  0  0  0  0  0  0  0  0  0  0
  2  1  1  0
  3  2  1  0
  3  4  1  1
  5  3  1  0
  5  6  1  6
  7  5  1  0
  7  8  2  0
  9  7  1  0
 10  9  1  0
 11 12  1  0
 10 11  1  1
 12 13  2  0
 13 14  1  0
 15 14  2  0
 16 15  1  0
 17 12  1  0
 17 16  2  0
 18 10  1  0
 19 18  2  0
 20 21  1  0
 21 22  2  0
 21 23  1  0
 23 24  1  0
 25 24  1  6
 25 26  1  0
 25 27  1  0
 26 18  1  0
 27 29  1  0
 28 27  2  0
M  END
$$$$
