IFQ.pdb
     RDKit          3D

 29 29  0  0  1  0  0  0  0  0999 V2000
   24.8871  -17.6094  -20.9522 C   0  0  0  0  0  0  0  0  0  0  0  0
   25.9848  -18.0525  -20.0162 C   0  0  0  0  0  0  0  0  0  0  0  0
   25.4428  -18.7944  -18.8229 C   0  0  2  0  0  0  0  0  0  0  0  0
   24.4874  -17.9515  -18.0177 C   0  0  0  0  0  0  0  0  0  0  0  0
   26.6391  -19.1673  -17.9548 C   0  0  2  0  0  0  0  0  0  0  0  0
   27.6276  -19.9089  -18.6749 N   0  0  0  0  0  0  0  0  0  0  0  0
   26.2572  -19.8539  -16.7094 C   0  0  0  0  0  0  0  0  0  0  0  0
   25.6911  -20.9741  -16.7749 O   0  0  0  0  0  0  0  0  0  0  0  0
   26.4926  -19.3152  -15.4034 N   0  0  0  0  0  0  0  0  0  0  0  0
   26.0277  -20.0799  -14.2311 C   0  0  1  0  0  0  0  0  0  0  0  0
   26.7633  -19.5381  -13.0545 C   0  0  0  0  0  0  0  0  0  0  0  0
   26.3533  -20.0901  -11.7506 C   0  0  0  0  0  0  0  0  0  0  0  0
   25.5992  -19.3231  -10.8932 C   0  0  0  0  0  0  0  0  0  0  0  0
   25.1745  -19.7532   -9.6493 C   0  0  0  0  0  0  0  0  0  0  0  0
   25.5199  -21.0358   -9.2201 C   0  0  0  0  0  0  0  0  0  0  0  0
   26.2733  -21.8128  -10.0719 C   0  0  0  0  0  0  0  0  0  0  0  0
   26.6813  -21.3547  -11.3035 C   0  0  0  0  0  0  0  0  0  0  0  0
   24.5744  -19.8036  -14.0371 C   0  0  0  0  0  0  0  0  0  0  0  0
   24.1932  -18.6223  -14.1147 O   0  0  0  0  0  0  0  0  0  0  0  0
   19.8637  -22.2797  -16.1363 N   0  0  0  0  0  0  0  0  0  0  0  0
   19.0844  -21.7887  -15.0459 C   0  0  0  0  0  0  0  0  0  0  0  0
   17.8709  -21.6356  -15.0696 O   0  0  0  0  0  0  0  0  0  0  0  0
   19.8676  -21.4467  -13.7968 C   0  0  0  0  0  0  0  0  0  0  0  0
   21.3327  -21.6706  -14.1064 C   0  0  0  0  0  0  0  0  0  0  0  0
   22.2819  -20.7290  -13.4747 C   0  0  2  0  0  0  0  0  0  0  0  0
   23.6630  -20.8182  -13.7746 N   0  0  0  0  0  0  0  0  0  0  0  0
   21.9805  -20.6576  -12.0010 C   0  0  0  0  0  0  0  0  0  0  0  0
   22.7543  -21.1906  -11.2140 O   0  0  0  0  0  0  0  0  0  0  0  0
   20.8245  -19.9836  -11.6364 O   0  0  0  0  0  0  0  0  0  0  0  0
  2  1  1  0
  3  2  1  0
  3  4  1  1
  5  3  1  0
  5  6  1  6
  7  5  1  0
  7  8  2  0
  9  7  1  0
 10  9  1  0
 11 12  1  0
 10 11  1  1
 12 13  2  0
 13 14  1  0
 15 14  2  0
 16 15  1  0
 17 12  1  0
 17 16  2  0
 18 10  1  0
 19 18  2  0
 20 21  1  0
 21 22  2  0
 21 23  1  0
 23 24  1  0
 25 24  1  1
 25 26  1  0
 25 27  1  0
 26 18  1  0
 27 29  1  0
 28 27  2  0
M  END
$$$$
