IFQ.pdb
     RDKit          3D

 29 29  0  0  1  0  0  0  0  0999 V2000
   17.0348  -23.4739  -13.7299 C   0  0  0  0  0  0  0  0  0  0  0  0
   18.0918  -23.1616  -12.6991 C   0  0  0  0  0  0  0  0  0  0  0  0
   19.1456  -22.2295  -13.2367 C   0  0  2  0  0  0  0  0  0  0  0  0
   19.8869  -22.8262  -14.4055 C   0  0  0  0  0  0  0  0  0  0  0  0
   20.1261  -21.9693  -12.0989 C   0  0  2  0  0  0  0  0  0  0  0  0
   19.4914  -21.4054  -10.9479 N   0  0  0  0  0  0  0  0  0  0  0  0
   21.2917  -21.1699  -12.5125 C   0  0  0  0  0  0  0  0  0  0  0  0
   21.1805  -19.9210  -12.5974 O   0  0  0  0  0  0  0  0  0  0  0  0
   22.5677  -21.7363  -12.8322 N   0  0  0  0  0  0  0  0  0  0  0  0
   23.6511  -20.8340  -13.2649 C   0  0  1  0  0  0  0  0  0  0  0  0
   24.9254  -21.4520  -12.8032 C   0  0  0  0  0  0  0  0  0  0  0  0
   26.1521  -20.8236  -13.3260 C   0  0  0  0  0  0  0  0  0  0  0  0
   26.8905  -21.4697  -14.2901 C   0  0  0  0  0  0  0  0  0  0  0  0
   28.0560  -20.9616  -14.8341 C   0  0  0  0  0  0  0  0  0  0  0  0
   28.5276  -19.7238  -14.3935 C   0  0  0  0  0  0  0  0  0  0  0  0
   27.7947  -19.0677  -13.4296 C   0  0  0  0  0  0  0  0  0  0  0  0
   26.6388  -19.6011  -12.9074 C   0  0  0  0  0  0  0  0  0  0  0  0
   23.6655  -20.8001  -14.7565 C   0  0  0  0  0  0  0  0  0  0  0  0
   23.2014  -21.7815  -15.3634 O   0  0  0  0  0  0  0  0  0  0  0  0
   20.3439  -18.5501  -18.3612 N   0  0  0  0  0  0  0  0  0  0  0  0
   20.7454  -17.5000  -17.4818 C   0  0  0  0  0  0  0  0  0  0  0  0
   20.0865  -16.4961  -17.2482 O   0  0  0  0  0  0  0  0  0  0  0  0
   22.0927  -17.6937  -16.8200 C   0  0  0  0  0  0  0  0  0  0  0  0
   22.6551  -19.0091  -17.3160 C   0  0  0  0  0  0  0  0  0  0  0  0
   24.0016  -19.3681  -16.8216 C   0  0  2  0  0  0  0  0  0  0  0  0
   24.1790  -19.7191  -15.4611 N   0  0  0  0  0  0  0  0  0  0  0  0
   24.9869  -18.3449  -17.3216 C   0  0  0  0  0  0  0  0  0  0  0  0
   25.5609  -17.6313  -16.5071 O   0  0  0  0  0  0  0  0  0  0  0  0
   25.1726  -18.2821  -18.6946 O   0  0  0  0  0  0  0  0  0  0  0  0
  2  1  1  0
  3  2  1  0
  3  4  1  6
  5  3  1  0
  5  6  1  1
  7  5  1  0
  7  8  2  0
  9  7  1  0
 10  9  1  0
 11 12  1  0
 10 11  1  6
 12 13  2  0
 13 14  1  0
 15 14  2  0
 16 15  1  0
 17 12  1  0
 17 16  2  0
 18 10  1  0
 19 18  2  0
 20 21  1  0
 21 22  2  0
 21 23  1  0
 23 24  1  0
 25 24  1  1
 25 26  1  0
 25 27  1  0
 26 18  1  0
 27 29  1  0
 28 27  2  0
M  END
$$$$
