IFQ.pdb
     RDKit          3D

 29 29  0  0  1  0  0  0  0  0999 V2000
   26.8116  -22.7492  -19.8054 C   0  0  0  0  0  0  0  0  0  0  0  0
   27.2632  -22.9930  -18.3862 C   0  0  0  0  0  0  0  0  0  0  0  0
   26.1299  -22.8602  -17.4033 C   0  0  2  0  0  0  0  0  0  0  0  0
   25.5768  -21.4588  -17.3622 C   0  0  0  0  0  0  0  0  0  0  0  0
   26.6908  -23.2201  -16.0324 C   0  0  2  0  0  0  0  0  0  0  0  0
   27.2015  -24.5553  -15.9835 N   0  0  0  0  0  0  0  0  0  0  0  0
   25.7401  -22.9706  -14.9358 C   0  0  0  0  0  0  0  0  0  0  0  0
   24.8044  -23.7858  -14.7373 O   0  0  0  0  0  0  0  0  0  0  0  0
   25.8142  -21.8353  -14.0659 N   0  0  0  0  0  0  0  0  0  0  0  0
   24.7676  -21.6628  -13.0412 C   0  0  1  0  0  0  0  0  0  0  0  0
   25.3264  -20.7349  -12.0186 C   0  0  0  0  0  0  0  0  0  0  0  0
   24.4100  -20.3922  -10.9160 C   0  0  0  0  0  0  0  0  0  0  0  0
   24.7137  -20.7816   -9.6321 C   0  0  0  0  0  0  0  0  0  0  0  0
   23.9128  -20.5115   -8.5376 C   0  0  0  0  0  0  0  0  0  0  0  0
   22.7237  -19.8045   -8.7244 C   0  0  0  0  0  0  0  0  0  0  0  0
   22.4111  -19.4083  -10.0058 C   0  0  0  0  0  0  0  0  0  0  0  0
   23.2293  -19.6940  -11.0745 C   0  0  0  0  0  0  0  0  0  0  0  0
   23.5929  -20.9987  -13.6777 C   0  0  0  0  0  0  0  0  0  0  0  0
   23.7998  -19.9708  -14.3466 O   0  0  0  0  0  0  0  0  0  0  0  0
   21.1047  -22.1544  -17.7792 N   0  0  0  0  0  0  0  0  0  0  0  0
   20.4111  -23.1301  -17.0019 C   0  0  0  0  0  0  0  0  0  0  0  0
   20.0750  -24.2341  -17.4076 O   0  0  0  0  0  0  0  0  0  0  0  0
   20.0923  -22.7146  -15.5819 C   0  0  0  0  0  0  0  0  0  0  0  0
   20.6301  -21.3124  -15.3895 C   0  0  0  0  0  0  0  0  0  0  0  0
   21.0813  -20.9710  -14.0233 C   0  0  2  0  0  0  0  0  0  0  0  0
   22.3035  -21.4951  -13.5366 N   0  0  0  0  0  0  0  0  0  0  0  0
   19.9230  -21.1431  -13.0765 C   0  0  0  0  0  0  0  0  0  0  0  0
   18.8765  -20.5496  -13.3106 O   0  0  0  0  0  0  0  0  0  0  0  0
   20.1317  -21.9743  -11.9860 O   0  0  0  0  0  0  0  0  0  0  0  0
  2  1  1  0
  3  2  1  0
  3  4  1  1
  5  3  1  0
  5  6  1  6
  7  5  1  0
  7  8  2  0
  9  7  1  0
 10  9  1  0
 11 12  1  0
 10 11  1  1
 12 13  2  0
 13 14  1  0
 15 14  2  0
 16 15  1  0
 17 12  1  0
 17 16  2  0
 18 10  1  0
 19 18  2  0
 20 21  1  0
 21 22  2  0
 21 23  1  0
 23 24  1  0
 25 24  1  6
 25 26  1  0
 25 27  1  0
 26 18  1  0
 27 29  1  0
 28 27  2  0
M  END
$$$$
