HPR.pdb
     RDKit          3D

 29 30  0  0  1  0  0  0  0  0999 V2000
   20.8020  -16.5733  -17.6832 N   0  0  0  0  0  0  0  0  0  0  0  0
   22.2562  -16.8191  -17.7888 C   0  0  1  0  0  0  0  0  0  0  0  0
   22.9180  -15.6855  -17.0331 C   0  0  0  0  0  0  0  0  0  0  0  0
   22.6837  -14.3877  -17.7196 C   0  0  0  0  0  0  0  0  0  0  0  0
   23.2466  -13.9322  -18.9095 C   0  0  0  0  0  0  0  0  0  0  0  0
   22.7715  -12.7069  -19.1899 N   0  0  0  0  0  0  0  0  0  0  0  0
   21.9349  -12.3899  -18.2145 C   0  0  0  0  0  0  0  0  0  0  0  0
   21.8695  -13.3995  -17.3129 N   0  0  0  0  0  0  0  0  0  0  0  0
   22.5872  -18.1547  -17.2534 C   0  0  0  0  0  0  0  0  0  0  0  0
   22.0250  -18.5270  -16.1787 O   0  0  0  0  0  0  0  0  0  0  0  0
   23.5046  -18.9727  -17.9408 N   0  0  0  0  0  0  0  0  0  0  0  0
   24.1313  -18.6779  -19.2087 C   0  0  0  0  0  0  0  0  0  0  0  0
   24.2868  -20.0428  -19.8825 C   0  0  0  0  0  0  0  0  0  0  0  0
   24.1621  -21.0383  -18.7673 C   0  0  0  0  0  0  0  0  0  0  0  0
   23.9628  -20.2669  -17.4894 C   0  0  1  0  0  0  0  0  0  0  0  0
   25.2075  -20.1743  -16.6835 C   0  0  0  0  0  0  0  0  0  0  0  0
   26.1646  -19.4458  -17.0473 O   0  0  0  0  0  0  0  0  0  0  0  0
   24.6484  -21.2028   -8.3080 N   0  0  0  0  0  0  0  0  0  0  0  0
   25.8089  -20.6499   -8.9166 C   0  0  0  0  0  0  0  0  0  0  0  0
   26.8830  -20.5193   -8.1861 N   0  0  0  0  0  0  0  0  0  0  0  0
   25.8376  -20.2422  -10.2683 N   0  0  0  0  0  0  0  0  0  0  0  0
   24.7225  -20.5350  -11.2078 C   0  0  0  0  0  0  0  0  0  0  0  0
   25.2495  -21.0854  -12.4709 C   0  0  0  0  0  0  0  0  0  0  0  0
   26.1768  -20.3414  -13.2937 C   0  0  0  0  0  0  0  0  0  0  0  0
   26.6306  -20.7224  -14.6485 C   0  0  2  0  0  0  0  0  0  0  0  0
   25.3712  -20.8960  -15.4783 N   0  0  0  0  0  0  0  0  0  0  0  0
   27.3347  -21.9995  -14.8000 C   0  0  0  0  0  0  0  0  0  0  0  0
   26.8016  -23.0428  -15.1909 O   0  0  0  0  0  0  0  0  0  0  0  0
   28.7219  -22.0550  -14.4800 O   0  0  0  0  0  0  0  0  0  0  0  0
  2  1  1  1
  2  3  1  0
  3  4  1  0
  4  8  1  0
  5  4  2  0
  5  6  1  0
  6  7  1  0
  8  7  2  0
  9  2  1  0
  9 10  2  0
 11  9  1  0
 12 11  1  0
 13 12  1  0
 14 15  1  0
 14 13  1  0
 15 11  1  0
 15 16  1  6
 16 17  2  0
 19 18  1  0
 20 19  2  0
 21 19  1  0
 22 21  1  0
 23 22  1  0
 25 24  1  1
 24 23  1  0
 25 26  1  0
 26 16  1  0
 27 25  1  0
 28 27  2  0
 29 27  1  0
M  END
$$$$
