HPR.pdb
     RDKit          3D

 29 30  0  0  1  0  0  0  0  0999 V2000
   28.3805  -23.5129  -16.3431 N   0  0  0  0  0  0  0  0  0  0  0  0
   27.7041  -22.2190  -16.5768 C   0  0  1  0  0  0  0  0  0  0  0  0
   26.9631  -22.3765  -17.8884 C   0  0  0  0  0  0  0  0  0  0  0  0
   27.8741  -22.1401  -19.0393 C   0  0  0  0  0  0  0  0  0  0  0  0
   27.9619  -21.0080  -19.8460 C   0  0  0  0  0  0  0  0  0  0  0  0
   28.9153  -21.1923  -20.7750 N   0  0  0  0  0  0  0  0  0  0  0  0
   29.4192  -22.3990  -20.5699 C   0  0  0  0  0  0  0  0  0  0  0  0
   28.7984  -22.9887  -19.5195 N   0  0  0  0  0  0  0  0  0  0  0  0
   26.8218  -21.8926  -15.4387 C   0  0  0  0  0  0  0  0  0  0  0  0
   26.4117  -22.8429  -14.7051 O   0  0  0  0  0  0  0  0  0  0  0  0
   26.4639  -20.5521  -15.1972 N   0  0  0  0  0  0  0  0  0  0  0  0
   26.8392  -19.4087  -15.9966 C   0  0  0  0  0  0  0  0  0  0  0  0
   26.9802  -18.2682  -14.9864 C   0  0  0  0  0  0  0  0  0  0  0  0
   26.2337  -18.7359  -13.7722 C   0  0  0  0  0  0  0  0  0  0  0  0
   25.6636  -20.0944  -14.0843 C   0  0  1  0  0  0  0  0  0  0  0  0
   24.2165  -20.0389  -14.4162 C   0  0  0  0  0  0  0  0  0  0  0  0
   23.8269  -19.8563  -15.5969 O   0  0  0  0  0  0  0  0  0  0  0  0
   20.2427  -24.0734   -8.7025 N   0  0  0  0  0  0  0  0  0  0  0  0
   19.5621  -24.2450   -9.9396 C   0  0  0  0  0  0  0  0  0  0  0  0
   18.6155  -25.1419  -10.0010 N   0  0  0  0  0  0  0  0  0  0  0  0
   19.8727  -23.4868  -11.0897 N   0  0  0  0  0  0  0  0  0  0  0  0
   19.2253  -22.1786  -11.3747 C   0  0  0  0  0  0  0  0  0  0  0  0
   19.7805  -21.5917  -12.6090 C   0  0  0  0  0  0  0  0  0  0  0  0
   21.1592  -21.1643  -12.6917 C   0  0  0  0  0  0  0  0  0  0  0  0
   21.7763  -20.4452  -13.8269 C   0  0  2  0  0  0  0  0  0  0  0  0
   23.2178  -20.1886  -13.4259 N   0  0  0  0  0  0  0  0  0  0  0  0
   21.2571  -19.1143  -14.1571 C   0  0  0  0  0  0  0  0  0  0  0  0
   21.6830  -18.0633  -13.6680 O   0  0  0  0  0  0  0  0  0  0  0  0
   20.1943  -19.0122  -15.1003 O   0  0  0  0  0  0  0  0  0  0  0  0
  2  1  1  1
  2  3  1  0
  3  4  1  0
  4  8  1  0
  5  4  2  0
  5  6  1  0
  6  7  1  0
  8  7  2  0
  9  2  1  0
  9 10  2  0
 11  9  1  0
 12 11  1  0
 13 12  1  0
 14 15  1  0
 14 13  1  0
 15 11  1  0
 15 16  1  6
 16 17  2  0
 19 18  1  0
 20 19  2  0
 21 19  1  0
 22 21  1  0
 23 22  1  0
 25 24  1  1
 24 23  1  0
 25 26  1  0
 26 16  1  0
 27 25  1  0
 28 27  2  0
 29 27  1  0
M  END
$$$$
