HPR.pdb
     RDKit          3D

 29 30  0  0  1  0  0  0  0  0999 V2000
   26.5563  -29.5198  -18.4588 N   0  0  0  0  0  0  0  0  0  0  0  0
   26.4074  -28.6135  -17.3000 C   0  0  1  0  0  0  0  0  0  0  0  0
   27.5885  -28.9062  -16.3981 C   0  0  0  0  0  0  0  0  0  0  0  0
   27.5260  -30.3001  -15.8847 C   0  0  0  0  0  0  0  0  0  0  0  0
   28.4718  -31.3122  -16.0314 C   0  0  0  0  0  0  0  0  0  0  0  0
   28.0368  -32.4249  -15.4162 N   0  0  0  0  0  0  0  0  0  0  0  0
   26.8553  -32.1351  -14.8947 C   0  0  0  0  0  0  0  0  0  0  0  0
   26.5296  -30.8487  -15.1697 N   0  0  0  0  0  0  0  0  0  0  0  0
   26.3491  -27.2101  -17.7552 C   0  0  0  0  0  0  0  0  0  0  0  0
   26.8067  -26.9325  -18.9055 O   0  0  0  0  0  0  0  0  0  0  0  0
   25.7922  -26.2277  -16.9138 N   0  0  0  0  0  0  0  0  0  0  0  0
   25.0892  -26.4616  -15.6735 C   0  0  0  0  0  0  0  0  0  0  0  0
   24.0363  -25.3528  -15.6181 C   0  0  0  0  0  0  0  0  0  0  0  0
   24.5191  -24.3157  -16.5885 C   0  0  0  0  0  0  0  0  0  0  0  0
   25.8206  -24.8051  -17.1669 C   0  0  1  0  0  0  0  0  0  0  0  0
   26.9993  -24.1461  -16.5475 C   0  0  0  0  0  0  0  0  0  0  0  0
   27.5193  -24.5985  -15.4967 O   0  0  0  0  0  0  0  0  0  0  0  0
   33.6516  -24.8687  -14.2214 N   0  0  0  0  0  0  0  0  0  0  0  0
   33.9502  -25.2832  -15.5488 C   0  0  0  0  0  0  0  0  0  0  0  0
   35.1678  -25.6739  -15.8115 N   0  0  0  0  0  0  0  0  0  0  0  0
   32.9850  -25.2859  -16.5796 N   0  0  0  0  0  0  0  0  0  0  0  0
   31.5834  -24.8427  -16.3537 C   0  0  0  0  0  0  0  0  0  0  0  0
   30.8416  -24.8234  -17.6286 C   0  0  0  0  0  0  0  0  0  0  0  0
   29.5016  -24.2878  -17.7180 C   0  0  0  0  0  0  0  0  0  0  0  0
   29.0870  -22.9227  -17.3294 C   0  0  2  0  0  0  0  0  0  0  0  0
   27.5865  -22.9880  -17.1081 N   0  0  0  0  0  0  0  0  0  0  0  0
   29.2543  -21.8503  -18.3153 C   0  0  0  0  0  0  0  0  0  0  0  0
   30.3295  -21.2933  -18.5578 O   0  0  0  0  0  0  0  0  0  0  0  0
   28.1127  -21.4136  -19.0473 O   0  0  0  0  0  0  0  0  0  0  0  0
  2  1  1  6
  2  3  1  0
  3  4  1  0
  4  8  1  0
  5  4  2  0
  5  6  1  0
  6  7  1  0
  8  7  2  0
  9  2  1  0
  9 10  2  0
 11  9  1  0
 12 11  1  0
 13 12  1  0
 14 15  1  0
 14 13  1  0
 15 11  1  0
 15 16  1  1
 16 17  2  0
 19 18  1  0
 20 19  2  0
 21 19  1  0
 22 21  1  0
 23 22  1  0
 25 24  1  6
 24 23  1  0
 25 26  1  0
 26 16  1  0
 27 25  1  0
 28 27  2  0
 29 27  1  0
M  END
$$$$
