HPR.pdb
     RDKit          3D

 29 30  0  0  1  0  0  0  0  0999 V2000
   12.3302  -24.2590   -4.1710 N   0  0  0  0  0  0  0  0  0  0  0  0
   13.7787  -23.9936   -4.3037 C   0  0  1  0  0  0  0  0  0  0  0  0
   14.0948  -22.9283   -3.2744 C   0  0  0  0  0  0  0  0  0  0  0  0
   13.3094  -21.6935   -3.5367 C   0  0  0  0  0  0  0  0  0  0  0  0
   13.2573  -20.9420   -4.7083 C   0  0  0  0  0  0  0  0  0  0  0  0
   12.4256  -19.9006   -4.5363 N   0  0  0  0  0  0  0  0  0  0  0  0
   11.9623  -19.9830   -3.2992 C   0  0  0  0  0  0  0  0  0  0  0  0
   12.4887  -21.0661   -2.6777 N   0  0  0  0  0  0  0  0  0  0  0  0
   14.5447  -25.2414   -4.1124 C   0  0  0  0  0  0  0  0  0  0  0  0
   14.0103  -26.1773   -3.4430 O   0  0  0  0  0  0  0  0  0  0  0  0
   15.8312  -25.3614   -4.6724 N   0  0  0  0  0  0  0  0  0  0  0  0
   16.5399  -24.3445   -5.4145 C   0  0  0  0  0  0  0  0  0  0  0  0
   17.3571  -25.1260   -6.4455 C   0  0  0  0  0  0  0  0  0  0  0  0
   17.4057  -26.5280   -5.9142 C   0  0  0  0  0  0  0  0  0  0  0  0
   16.6575  -26.5453   -4.6075 C   0  0  1  0  0  0  0  0  0  0  0  0
   17.5676  -26.5336   -3.4333 C   0  0  0  0  0  0  0  0  0  0  0  0
   18.0566  -25.4598   -3.0007 O   0  0  0  0  0  0  0  0  0  0  0  0
   12.0222  -26.3513    2.0527 N   0  0  0  0  0  0  0  0  0  0  0  0
   13.1076  -26.8345    2.8347 C   0  0  0  0  0  0  0  0  0  0  0  0
   12.9116  -27.0154    4.1127 N   0  0  0  0  0  0  0  0  0  0  0  0
   14.3747  -27.1213    2.2816 N   0  0  0  0  0  0  0  0  0  0  0  0
   14.6818  -26.8930    0.8444 C   0  0  0  0  0  0  0  0  0  0  0  0
   16.0344  -27.3880    0.5258 C   0  0  0  0  0  0  0  0  0  0  0  0
   16.5560  -27.3545   -0.8223 C   0  0  0  0  0  0  0  0  0  0  0  0
   17.9155  -27.7641   -1.2352 C   0  0  2  0  0  0  0  0  0  0  0  0
   17.9226  -27.7214   -2.7527 N   0  0  0  0  0  0  0  0  0  0  0  0
   18.3450  -29.1293   -0.9162 C   0  0  0  0  0  0  0  0  0  0  0  0
   17.8715  -30.1443   -1.4367 O   0  0  0  0  0  0  0  0  0  0  0  0
   19.3729  -29.3112    0.0534 O   0  0  0  0  0  0  0  0  0  0  0  0
  2  1  1  1
  2  3  1  0
  3  4  1  0
  4  8  1  0
  5  4  2  0
  5  6  1  0
  6  7  1  0
  8  7  2  0
  9  2  1  0
  9 10  2  0
 11  9  1  0
 12 11  1  0
 13 12  1  0
 14 15  1  0
 14 13  1  0
 15 11  1  0
 15 16  1  1
 16 17  2  0
 19 18  1  0
 20 19  2  0
 21 19  1  0
 22 21  1  0
 23 22  1  0
 25 24  1  6
 24 23  1  0
 25 26  1  0
 26 16  1  0
 27 25  1  0
 28 27  2  0
 29 27  1  0
M  END
$$$$
