HPR.pdb
     RDKit          3D

 29 30  0  0  1  0  0  0  0  0999 V2000
   27.9520  -22.7504  -16.2830 N   0  0  0  0  0  0  0  0  0  0  0  0
   27.8345  -21.3660  -16.7886 C   0  0  1  0  0  0  0  0  0  0  0  0
   27.5193  -21.4955  -18.2645 C   0  0  0  0  0  0  0  0  0  0  0  0
   28.6994  -22.0046  -19.0120 C   0  0  0  0  0  0  0  0  0  0  0  0
   29.7467  -21.2715  -19.5650 C   0  0  0  0  0  0  0  0  0  0  0  0
   30.6167  -22.1083  -20.1557 N   0  0  0  0  0  0  0  0  0  0  0  0
   30.1429  -23.3325  -19.9867 C   0  0  0  0  0  0  0  0  0  0  0  0
   28.9789  -23.2881  -19.2940 N   0  0  0  0  0  0  0  0  0  0  0  0
   26.8023  -20.6323  -16.0293 C   0  0  0  0  0  0  0  0  0  0  0  0
   25.9586  -21.3033  -15.3604 O   0  0  0  0  0  0  0  0  0  0  0  0
   26.7815  -19.2246  -16.0638 N   0  0  0  0  0  0  0  0  0  0  0  0
   27.6453  -18.3748  -16.8505 C   0  0  0  0  0  0  0  0  0  0  0  0
   27.8411  -17.1273  -15.9865 C   0  0  0  0  0  0  0  0  0  0  0  0
   26.7169  -17.1670  -14.9941 C   0  0  0  0  0  0  0  0  0  0  0  0
   25.8889  -18.3887  -15.2936 C   0  0  1  0  0  0  0  0  0  0  0  0
   24.6436  -18.0615  -16.0348 C   0  0  0  0  0  0  0  0  0  0  0  0
   24.6439  -17.9434  -17.2859 O   0  0  0  0  0  0  0  0  0  0  0  0
   23.1240  -22.5829  -13.5145 N   0  0  0  0  0  0  0  0  0  0  0  0
   22.9475  -21.3753  -12.7841 C   0  0  0  0  0  0  0  0  0  0  0  0
   23.7806  -21.1173  -11.8126 N   0  0  0  0  0  0  0  0  0  0  0  0
   21.9135  -20.4574  -13.0710 N   0  0  0  0  0  0  0  0  0  0  0  0
   20.9056  -20.7070  -14.1358 C   0  0  0  0  0  0  0  0  0  0  0  0
   21.3056  -20.0339  -15.3861 C   0  0  0  0  0  0  0  0  0  0  0  0
   21.1411  -18.6088  -15.5660 C   0  0  0  0  0  0  0  0  0  0  0  0
   22.1312  -17.6925  -16.1714 C   0  0  2  0  0  0  0  0  0  0  0  0
   23.4093  -17.8696  -15.3715 N   0  0  0  0  0  0  0  0  0  0  0  0
   21.8640  -16.2526  -16.0998 C   0  0  0  0  0  0  0  0  0  0  0  0
   22.2216  -15.5269  -15.1667 O   0  0  0  0  0  0  0  0  0  0  0  0
   21.1477  -15.6385  -17.1674 O   0  0  0  0  0  0  0  0  0  0  0  0
  2  1  1  1
  2  3  1  0
  3  4  1  0
  4  8  1  0
  5  4  2  0
  5  6  1  0
  6  7  1  0
  8  7  2  0
  9  2  1  0
  9 10  2  0
 11  9  1  0
 12 11  1  0
 13 12  1  0
 14 15  1  0
 14 13  1  0
 15 11  1  0
 15 16  1  6
 16 17  2  0
 19 18  1  0
 20 19  2  0
 21 19  1  0
 22 21  1  0
 23 22  1  0
 25 24  1  1
 24 23  1  0
 25 26  1  0
 26 16  1  0
 27 25  1  0
 28 27  2  0
 29 27  1  0
M  END
$$$$
