HPR.pdb
     RDKit          3D

 29 30  0  0  1  0  0  0  0  0999 V2000
   23.8850  -19.8773  -18.2397 N   0  0  0  0  0  0  0  0  0  0  0  0
   24.4221  -18.9803  -17.1942 C   0  0  1  0  0  0  0  0  0  0  0  0
   23.2451  -18.1515  -16.7230 C   0  0  0  0  0  0  0  0  0  0  0  0
   22.7441  -17.2789  -17.8176 C   0  0  0  0  0  0  0  0  0  0  0  0
   23.4215  -16.2574  -18.4793 C   0  0  0  0  0  0  0  0  0  0  0  0
   22.6164  -15.7135  -19.4076 N   0  0  0  0  0  0  0  0  0  0  0  0
   21.4653  -16.3637  -19.3421 C   0  0  0  0  0  0  0  0  0  0  0  0
   21.5254  -17.3179  -18.3817 N   0  0  0  0  0  0  0  0  0  0  0  0
   25.0518  -19.7717  -16.1183 C   0  0  0  0  0  0  0  0  0  0  0  0
   24.4547  -20.8148  -15.7121 O   0  0  0  0  0  0  0  0  0  0  0  0
   26.2844  -19.3564  -15.5786 N   0  0  0  0  0  0  0  0  0  0  0  0
   27.0637  -18.2162  -16.0027 C   0  0  0  0  0  0  0  0  0  0  0  0
   28.5163  -18.6499  -15.7951 C   0  0  0  0  0  0  0  0  0  0  0  0
   28.4390  -19.8110  -14.8485 C   0  0  0  0  0  0  0  0  0  0  0  0
   26.9878  -20.0231  -14.5066 C   0  0  1  0  0  0  0  0  0  0  0  0
   26.6338  -19.4730  -13.1726 C   0  0  0  0  0  0  0  0  0  0  0  0
   26.2793  -18.2751  -13.0368 O   0  0  0  0  0  0  0  0  0  0  0  0
   19.2607  -22.1843  -13.2266 N   0  0  0  0  0  0  0  0  0  0  0  0
   19.3856  -21.7208  -11.8877 C   0  0  0  0  0  0  0  0  0  0  0  0
   18.2960  -21.5751  -11.1836 N   0  0  0  0  0  0  0  0  0  0  0  0
   20.6339  -21.4162  -11.3020 N   0  0  0  0  0  0  0  0  0  0  0  0
   21.8818  -21.3146  -12.1046 C   0  0  0  0  0  0  0  0  0  0  0  0
   23.0055  -20.8861  -11.2503 C   0  0  0  0  0  0  0  0  0  0  0  0
   24.3280  -20.6655  -11.7914 C   0  0  0  0  0  0  0  0  0  0  0  0
   25.5198  -20.2482  -11.0220 C   0  0  2  0  0  0  0  0  0  0  0  0
   26.6785  -20.2665  -12.0027 N   0  0  0  0  0  0  0  0  0  0  0  0
   25.9665  -21.1166   -9.9283 C   0  0  0  0  0  0  0  0  0  0  0  0
   26.4721  -22.2315  -10.0908 O   0  0  0  0  0  0  0  0  0  0  0  0
   25.8138  -20.6577   -8.5881 O   0  0  0  0  0  0  0  0  0  0  0  0
  2  1  1  6
  2  3  1  0
  3  4  1  0
  4  8  1  0
  5  4  2  0
  5  6  1  0
  6  7  1  0
  8  7  2  0
  9  2  1  0
  9 10  2  0
 11  9  1  0
 12 11  1  0
 13 12  1  0
 14 15  1  0
 14 13  1  0
 15 11  1  0
 15 16  1  1
 16 17  2  0
 19 18  1  0
 20 19  2  0
 21 19  1  0
 22 21  1  0
 23 22  1  0
 25 24  1  6
 24 23  1  0
 25 26  1  0
 26 16  1  0
 27 25  1  0
 28 27  2  0
 29 27  1  0
M  END
$$$$
