HPR.pdb
     RDKit          3D

 29 30  0  0  1  0  0  0  0  0999 V2000
   28.1638  -18.1411  -13.0297 N   0  0  0  0  0  0  0  0  0  0  0  0
   27.5331  -19.2607  -13.7611 C   0  0  1  0  0  0  0  0  0  0  0  0
   27.2547  -20.3240  -12.7190 C   0  0  0  0  0  0  0  0  0  0  0  0
   28.5129  -20.7465  -12.0490 C   0  0  0  0  0  0  0  0  0  0  0  0
   29.0431  -20.2825  -10.8474 C   0  0  0  0  0  0  0  0  0  0  0  0
   30.1962  -20.9226  -10.5895 N   0  0  0  0  0  0  0  0  0  0  0  0
   30.3964  -21.7657  -11.5900 C   0  0  0  0  0  0  0  0  0  0  0  0
   29.3836  -21.6720  -12.4855 N   0  0  0  0  0  0  0  0  0  0  0  0
   26.3204  -18.7926  -14.4616 C   0  0  0  0  0  0  0  0  0  0  0  0
   25.5465  -17.9926  -13.8529 O   0  0  0  0  0  0  0  0  0  0  0  0
   26.0575  -19.2377  -15.7716 N   0  0  0  0  0  0  0  0  0  0  0  0
   26.8857  -20.1235  -16.5569 C   0  0  0  0  0  0  0  0  0  0  0  0
   26.6974  -19.6427  -17.9973 C   0  0  0  0  0  0  0  0  0  0  0  0
   25.4367  -18.8304  -17.9695 C   0  0  0  0  0  0  0  0  0  0  0  0
   24.9063  -18.8621  -16.5604 C   0  0  1  0  0  0  0  0  0  0  0  0
   23.7785  -19.8159  -16.4008 C   0  0  0  0  0  0  0  0  0  0  0  0
   23.9348  -21.0466  -16.6012 O   0  0  0  0  0  0  0  0  0  0  0  0
   22.6311  -20.7855   -8.8366 N   0  0  0  0  0  0  0  0  0  0  0  0
   23.6417  -20.7952   -9.8375 C   0  0  0  0  0  0  0  0  0  0  0  0
   24.8467  -21.1584   -9.4906 N   0  0  0  0  0  0  0  0  0  0  0  0
   23.3880  -20.4292  -11.1775 N   0  0  0  0  0  0  0  0  0  0  0  0
   22.0539  -19.9516  -11.6293 C   0  0  0  0  0  0  0  0  0  0  0  0
   22.0872  -19.6283  -13.0682 C   0  0  0  0  0  0  0  0  0  0  0  0
   21.8573  -20.6376  -14.0776 C   0  0  0  0  0  0  0  0  0  0  0  0
   21.4759  -20.3849  -15.4837 C   0  0  2  0  0  0  0  0  0  0  0  0
   22.4865  -19.3862  -16.0184 N   0  0  0  0  0  0  0  0  0  0  0  0
   20.1794  -19.7487  -15.7371 C   0  0  0  0  0  0  0  0  0  0  0  0
   20.0409  -18.5702  -16.0794 O   0  0  0  0  0  0  0  0  0  0  0  0
   18.9964  -20.5274  -15.5826 O   0  0  0  0  0  0  0  0  0  0  0  0
  2  1  1  1
  2  3  1  0
  3  4  1  0
  4  8  1  0
  5  4  2  0
  5  6  1  0
  6  7  1  0
  8  7  2  0
  9  2  1  0
  9 10  2  0
 11  9  1  0
 12 11  1  0
 13 12  1  0
 14 15  1  0
 14 13  1  0
 15 11  1  0
 15 16  1  6
 16 17  2  0
 19 18  1  0
 20 19  2  0
 21 19  1  0
 22 21  1  0
 23 22  1  0
 25 24  1  1
 24 23  1  0
 25 26  1  0
 26 16  1  0
 27 25  1  0
 28 27  2  0
 29 27  1  0
M  END
$$$$
