HPR.pdb
     RDKit          3D

 29 30  0  0  1  0  0  0  0  0999 V2000
   26.7447  -18.3328   -7.6255 N   0  0  0  0  0  0  0  0  0  0  0  0
   27.0022  -19.6692   -8.2033 C   0  0  1  0  0  0  0  0  0  0  0  0
   26.6870  -20.6586   -7.1006 C   0  0  0  0  0  0  0  0  0  0  0  0
   27.5598  -20.4263   -5.9196 C   0  0  0  0  0  0  0  0  0  0  0  0
   28.4818  -19.4010   -5.7221 C   0  0  0  0  0  0  0  0  0  0  0  0
   29.0646  -19.5476   -4.5202 N   0  0  0  0  0  0  0  0  0  0  0  0
   28.5346  -20.6278   -3.9687 C   0  0  0  0  0  0  0  0  0  0  0  0
   27.6187  -21.1739   -4.8049 N   0  0  0  0  0  0  0  0  0  0  0  0
   26.1868  -19.8643   -9.4187 C   0  0  0  0  0  0  0  0  0  0  0  0
   25.0180  -19.3716   -9.4431 O   0  0  0  0  0  0  0  0  0  0  0  0
   26.7202  -20.5807  -10.5075 N   0  0  0  0  0  0  0  0  0  0  0  0
   27.8261  -21.5092  -10.4617 C   0  0  0  0  0  0  0  0  0  0  0  0
   28.5209  -21.3402  -11.8145 C   0  0  0  0  0  0  0  0  0  0  0  0
   27.5000  -20.6762  -12.6904 C   0  0  0  0  0  0  0  0  0  0  0  0
   26.2503  -20.4897  -11.8711 C   0  0  1  0  0  0  0  0  0  0  0  0
   25.2137  -21.5084  -12.1790 C   0  0  0  0  0  0  0  0  0  0  0  0
   25.1722  -22.6012  -11.5598 O   0  0  0  0  0  0  0  0  0  0  0  0
   19.5583  -23.9168   -7.9541 N   0  0  0  0  0  0  0  0  0  0  0  0
   18.7312  -23.3242   -8.9479 C   0  0  0  0  0  0  0  0  0  0  0  0
   17.4560  -23.6035   -8.9327 N   0  0  0  0  0  0  0  0  0  0  0  0
   19.2373  -22.4545   -9.9386 N   0  0  0  0  0  0  0  0  0  0  0  0
   20.6957  -22.2319  -10.1273 C   0  0  0  0  0  0  0  0  0  0  0  0
   20.9326  -21.3539  -11.2887 C   0  0  0  0  0  0  0  0  0  0  0  0
   22.2584  -21.1535  -11.8296 C   0  0  0  0  0  0  0  0  0  0  0  0
   22.8315  -21.8541  -12.9990 C   0  0  2  0  0  0  0  0  0  0  0  0
   24.2326  -21.2968  -13.1754 N   0  0  0  0  0  0  0  0  0  0  0  0
   22.1971  -21.6397  -14.3033 C   0  0  0  0  0  0  0  0  0  0  0  0
   21.2534  -22.3101  -14.7337 O   0  0  0  0  0  0  0  0  0  0  0  0
   22.6902  -20.5951  -15.1374 O   0  0  0  0  0  0  0  0  0  0  0  0
  2  1  1  1
  2  3  1  0
  3  4  1  0
  4  8  1  0
  5  4  2  0
  5  6  1  0
  6  7  1  0
  8  7  2  0
  9  2  1  0
  9 10  2  0
 11  9  1  0
 12 11  1  0
 13 12  1  0
 14 15  1  0
 14 13  1  0
 15 11  1  0
 15 16  1  6
 16 17  2  0
 19 18  1  0
 20 19  2  0
 21 19  1  0
 22 21  1  0
 23 22  1  0
 25 24  1  1
 24 23  1  0
 25 26  1  0
 26 16  1  0
 27 25  1  0
 28 27  2  0
 29 27  1  0
M  END
$$$$
