NCA.pdb
     RDKit          3D

 20 19  0  0  1  0  0  0  0  0999 V2000
    9.0931  -18.7922   19.7923 N   0  0  0  0  0  0  0  0  0  0  0  0
   10.0444  -18.8331   20.8725 C   0  0  0  0  0  0  0  0  0  0  0  0
   10.7548  -19.8415   20.9497 O   0  0  0  0  0  0  0  0  0  0  0  0
   10.0834  -17.6916   21.7699 C   0  0  0  0  0  0  0  0  0  0  0  0
    9.0939  -16.5889   21.5305 C   0  0  2  0  0  0  0  0  0  0  0  0
    9.5398  -15.9124   20.2743 N   0  0  0  0  0  0  0  0  0  0  0  0
    9.0580  -15.5447   22.5575 C   0  0  0  0  0  0  0  0  0  0  0  0
    9.8829  -14.5697   22.4309 O   0  0  0  0  0  0  0  0  0  0  0  0
    8.2097  -15.4886   23.6742 N   0  0  0  0  0  0  0  0  0  0  0  0
    8.2651  -14.3570   24.6080 C   0  0  1  0  0  0  0  0  0  0  0  0
    6.8432  -13.9901   24.9975 C   0  0  0  0  0  0  0  0  0  0  0  0
    6.1202  -15.2456   26.0616 S   0  0  0  0  0  0  0  0  0  0  0  0
    9.0933  -14.7901   25.7545 C   0  0  0  0  0  0  0  0  0  0  0  0
    9.6056  -15.9553   25.7420 O   0  0  0  0  0  0  0  0  0  0  0  0
   10.5576  -13.4799   28.9919 C   0  0  0  0  0  0  0  0  0  0  0  0
   10.3099  -14.4996   27.9064 C   0  0  2  0  0  0  0  0  0  0  0  0
    9.3813  -14.0038   26.9027 N   0  0  0  0  0  0  0  0  0  0  0  0
    9.7111  -15.6861   28.5545 C   0  0  0  0  0  0  0  0  0  0  0  0
    8.5074  -15.9599   28.3560 O   0  0  0  0  0  0  0  0  0  0  0  0
   10.4689  -16.4967   29.3787 O   0  0  0  0  0  0  0  0  0  0  0  0
  1  2  1  0
  2  3  2  0
  4  2  1  0
  5  7  1  0
  5  4  1  0
  5  6  1  6
  7  8  2  0
  9 10  1  0
  9  7  1  0
 10 13  1  0
 11 12  1  0
 10 11  1  1
 13 17  1  0
 13 14  2  0
 16 15  1  1
 16 18  1  0
 17 16  1  0
 18 19  2  0
 18 20  1  0
M  END
$$$$
