NCA.pdb
     RDKit          3D

 20 19  0  0  1  0  0  0  0  0999 V2000
    6.9405  -19.4687   17.7208 N   0  0  0  0  0  0  0  0  0  0  0  0
    6.3213  -18.5326   18.6229 C   0  0  0  0  0  0  0  0  0  0  0  0
    5.1265  -18.2820   18.4302 O   0  0  0  0  0  0  0  0  0  0  0  0
    7.1523  -17.9697   19.6729 C   0  0  0  0  0  0  0  0  0  0  0  0
    7.3068  -16.4774   19.7079 C   0  0  2  0  0  0  0  0  0  0  0  0
    8.2095  -16.1383   18.5657 N   0  0  0  0  0  0  0  0  0  0  0  0
    7.9579  -15.9423   20.9063 C   0  0  0  0  0  0  0  0  0  0  0  0
    9.2411  -15.9380   20.9236 O   0  0  0  0  0  0  0  0  0  0  0  0
    7.3279  -15.4238   22.0483 N   0  0  0  0  0  0  0  0  0  0  0  0
    8.1143  -14.8891   23.1669 C   0  0  1  0  0  0  0  0  0  0  0  0
    7.2314  -13.9407   23.9602 C   0  0  0  0  0  0  0  0  0  0  0  0
    7.9612  -13.5636   25.5591 S   0  0  0  0  0  0  0  0  0  0  0  0
    8.5814  -16.0511   23.9541 C   0  0  0  0  0  0  0  0  0  0  0  0
    7.7402  -16.9412   24.3011 O   0  0  0  0  0  0  0  0  0  0  0  0
   11.6141  -18.0268   24.6704 C   0  0  0  0  0  0  0  0  0  0  0  0
   10.2636  -17.4947   25.0860 C   0  0  2  0  0  0  0  0  0  0  0  0
    9.9214  -16.2752   24.3708 N   0  0  0  0  0  0  0  0  0  0  0  0
   10.3451  -17.1851   26.5295 C   0  0  0  0  0  0  0  0  0  0  0  0
   10.1083  -16.0243   26.9292 O   0  0  0  0  0  0  0  0  0  0  0  0
   10.6807  -18.1666   27.4430 O   0  0  0  0  0  0  0  0  0  0  0  0
  1  2  1  0
  2  3  2  0
  4  2  1  0
  5  7  1  0
  5  4  1  0
  5  6  1  6
  7  8  2  0
  9 10  1  0
  9  7  1  0
 10 13  1  0
 11 12  1  0
 10 11  1  1
 13 17  1  0
 13 14  2  0
 16 15  1  6
 16 18  1  0
 17 16  1  0
 18 19  2  0
 18 20  1  0
M  END
$$$$
