NCA.pdb
     RDKit          3D

 20 19  0  0  1  0  0  0  0  0999 V2000
    8.7887  -19.3142   20.3082 N   0  0  0  0  0  0  0  0  0  0  0  0
    7.8622  -18.4209   20.9539 C   0  0  0  0  0  0  0  0  0  0  0  0
    6.6826  -18.4854   20.5904 O   0  0  0  0  0  0  0  0  0  0  0  0
    8.3942  -17.5286   21.9692 C   0  0  0  0  0  0  0  0  0  0  0  0
    8.1498  -16.0582   21.7950 C   0  0  2  0  0  0  0  0  0  0  0  0
    9.0820  -15.6198   20.7118 N   0  0  0  0  0  0  0  0  0  0  0  0
    8.4683  -15.2274   22.9590 C   0  0  0  0  0  0  0  0  0  0  0  0
    9.6874  -14.8496   23.0932 O   0  0  0  0  0  0  0  0  0  0  0  0
    7.5782  -14.7900   23.9520 N   0  0  0  0  0  0  0  0  0  0  0  0
    8.0281  -13.9009   25.0303 C   0  0  1  0  0  0  0  0  0  0  0  0
    6.8151  -13.1760   25.5881 C   0  0  0  0  0  0  0  0  0  0  0  0
    7.2431  -12.2391   27.0613 S   0  0  0  0  0  0  0  0  0  0  0  0
    8.7117  -14.7523   26.0282 C   0  0  0  0  0  0  0  0  0  0  0  0
    8.1493  -15.8276   26.4124 O   0  0  0  0  0  0  0  0  0  0  0  0
   12.0655  -15.2088   27.6735 C   0  0  0  0  0  0  0  0  0  0  0  0
   10.5812  -15.4396   27.5208 C   0  0  2  0  0  0  0  0  0  0  0  0
    9.9762  -14.4758   26.6149 N   0  0  0  0  0  0  0  0  0  0  0  0
    9.9761  -15.2699   28.8591 C   0  0  0  0  0  0  0  0  0  0  0  0
   10.2252  -16.0981   29.7620 O   0  0  0  0  0  0  0  0  0  0  0  0
    9.1366  -14.2040   29.1231 O   0  0  0  0  0  0  0  0  0  0  0  0
  1  2  1  0
  2  3  2  0
  4  2  1  0
  5  7  1  0
  5  4  1  0
  5  6  1  6
  7  8  2  0
  9 10  1  0
  9  7  1  0
 10 13  1  0
 11 12  1  0
 10 11  1  1
 13 17  1  0
 13 14  2  0
 16 15  1  1
 16 18  1  0
 17 16  1  0
 18 19  2  0
 18 20  1  0
M  END
$$$$
