NCA.pdb
     RDKit          3D

 20 19  0  0  1  0  0  0  0  0999 V2000
    8.2150  -12.8469   15.9617 N   0  0  0  0  0  0  0  0  0  0  0  0
    7.8789  -13.9901   16.7701 C   0  0  0  0  0  0  0  0  0  0  0  0
    7.4634  -14.9898   16.1739 O   0  0  0  0  0  0  0  0  0  0  0  0
    8.0574  -13.8664   18.2063 C   0  0  0  0  0  0  0  0  0  0  0  0
    8.9265  -14.8839   18.8858 C   0  0  2  0  0  0  0  0  0  0  0  0
    8.1951  -16.1822   18.7682 N   0  0  0  0  0  0  0  0  0  0  0  0
    9.1375  -14.6708   20.3199 C   0  0  0  0  0  0  0  0  0  0  0  0
   10.2254  -14.0880   20.6718 O   0  0  0  0  0  0  0  0  0  0  0  0
    8.2711  -15.0329   21.3630 N   0  0  0  0  0  0  0  0  0  0  0  0
    8.6590  -14.8438   22.7663 C   0  0  1  0  0  0  0  0  0  0  0  0
    7.4358  -14.3840   23.5414 C   0  0  0  0  0  0  0  0  0  0  0  0
    7.7003  -14.5320   25.3132 S   0  0  0  0  0  0  0  0  0  0  0  0
    9.1990  -16.1376   23.2378 C   0  0  0  0  0  0  0  0  0  0  0  0
    8.4829  -17.1840   23.1261 O   0  0  0  0  0  0  0  0  0  0  0  0
   12.3359  -17.9160   24.0740 C   0  0  0  0  0  0  0  0  0  0  0  0
   10.8685  -17.6447   24.3038 C   0  0  2  0  0  0  0  0  0  0  0  0
   10.4813  -16.3289   23.8199 N   0  0  0  0  0  0  0  0  0  0  0  0
   10.6422  -17.6930   25.7642 C   0  0  0  0  0  0  0  0  0  0  0  0
   10.9130  -18.7352   26.3996 O   0  0  0  0  0  0  0  0  0  0  0  0
   10.1337  -16.5969   26.4353 O   0  0  0  0  0  0  0  0  0  0  0  0
  1  2  1  0
  2  3  2  0
  4  2  1  0
  5  7  1  0
  5  4  1  0
  5  6  1  1
  7  8  2  0
  9 10  1  0
  9  7  1  0
 10 13  1  0
 11 12  1  0
 10 11  1  1
 13 17  1  0
 13 14  2  0
 16 15  1  1
 16 18  1  0
 17 16  1  0
 18 19  2  0
 18 20  1  0
M  END
$$$$
