NCA.pdb
     RDKit          3D

 20 19  0  0  1  0  0  0  0  0999 V2000
    7.3402  -17.3867   21.4189 N   0  0  0  0  0  0  0  0  0  0  0  0
    7.3345  -16.4352   20.3382 C   0  0  0  0  0  0  0  0  0  0  0  0
    8.0940  -16.6654   19.3907 O   0  0  0  0  0  0  0  0  0  0  0  0
    6.4414  -15.2959   20.4578 C   0  0  0  0  0  0  0  0  0  0  0  0
    7.0487  -13.9773   20.8382 C   0  0  2  0  0  0  0  0  0  0  0  0
    8.0340  -13.6609   19.7596 N   0  0  0  0  0  0  0  0  0  0  0  0
    7.8098  -13.9753   22.0900 C   0  0  0  0  0  0  0  0  0  0  0  0
    9.0899  -13.9762   21.9975 O   0  0  0  0  0  0  0  0  0  0  0  0
    7.2896  -13.9677   23.3935 N   0  0  0  0  0  0  0  0  0  0  0  0
    8.1795  -13.9562   24.5612 C   0  0  1  0  0  0  0  0  0  0  0  0
    7.5203  -13.1332   25.6550 C   0  0  0  0  0  0  0  0  0  0  0  0
    5.8340  -13.6818   25.9491 S   0  0  0  0  0  0  0  0  0  0  0  0
    8.4007  -15.3680   24.9432 C   0  0  0  0  0  0  0  0  0  0  0  0
    7.4488  -16.2019   24.8063 O   0  0  0  0  0  0  0  0  0  0  0  0
   10.8784  -17.9339   24.9383 C   0  0  0  0  0  0  0  0  0  0  0  0
    9.7321  -17.3260   25.7103 C   0  0  2  0  0  0  0  0  0  0  0  0
    9.6128  -15.8977   25.4626 N   0  0  0  0  0  0  0  0  0  0  0  0
   10.0194  -17.5310   27.1462 C   0  0  0  0  0  0  0  0  0  0  0  0
   10.0447  -16.5492   27.9200 O   0  0  0  0  0  0  0  0  0  0  0  0
   10.2608  -18.7981   27.6429 O   0  0  0  0  0  0  0  0  0  0  0  0
  1  2  1  0
  2  3  2  0
  4  2  1  0
  5  7  1  0
  5  4  1  0
  5  6  1  6
  7  8  2  0
  9 10  1  0
  9  7  1  0
 10 13  1  0
 11 12  1  0
 10 11  1  1
 13 17  1  0
 13 14  2  0
 16 15  1  6
 16 18  1  0
 17 16  1  0
 18 19  2  0
 18 20  1  0
M  END
$$$$
