NCA.pdb
     RDKit          3D

 20 19  0  0  1  0  0  0  0  0999 V2000
   11.4583  -17.1337   14.5719 N   0  0  0  0  0  0  0  0  0  0  0  0
   10.9346  -18.0559   15.5459 C   0  0  0  0  0  0  0  0  0  0  0  0
   11.1114  -19.2589   15.3239 O   0  0  0  0  0  0  0  0  0  0  0  0
   10.2489  -17.4927   16.6959 C   0  0  0  0  0  0  0  0  0  0  0  0
   10.5417  -18.0943   18.0392 C   0  0  2  0  0  0  0  0  0  0  0  0
    9.2761  -18.7663   18.4649 N   0  0  0  0  0  0  0  0  0  0  0  0
   10.8629  -17.1354   19.0993 C   0  0  0  0  0  0  0  0  0  0  0  0
   11.4657  -16.0572   18.7511 O   0  0  0  0  0  0  0  0  0  0  0  0
   10.5777  -17.2636   20.4675 N   0  0  0  0  0  0  0  0  0  0  0  0
   10.9611  -16.2141   21.4199 C   0  0  1  0  0  0  0  0  0  0  0  0
    9.7071  -15.7340   22.1308 C   0  0  0  0  0  0  0  0  0  0  0  0
    8.8940  -17.0867   22.9912 S   0  0  0  0  0  0  0  0  0  0  0  0
   11.9600  -16.8108   22.3331 C   0  0  0  0  0  0  0  0  0  0  0  0
   11.9183  -18.0621   22.5626 O   0  0  0  0  0  0  0  0  0  0  0  0
   15.2076  -16.0040   24.0537 C   0  0  0  0  0  0  0  0  0  0  0  0
   13.9552  -16.8145   23.8212 C   0  0  2  0  0  0  0  0  0  0  0  0
   12.9944  -16.0977   22.9974 N   0  0  0  0  0  0  0  0  0  0  0  0
   13.3461  -17.0609   25.1459 C   0  0  0  0  0  0  0  0  0  0  0  0
   12.2461  -16.5387   25.4296 O   0  0  0  0  0  0  0  0  0  0  0  0
   13.9809  -17.8634   26.0752 O   0  0  0  0  0  0  0  0  0  0  0  0
  1  2  1  0
  2  3  2  0
  4  2  1  0
  5  7  1  0
  5  4  1  0
  5  6  1  1
  7  8  2  0
  9 10  1  0
  9  7  1  0
 10 13  1  0
 11 12  1  0
 10 11  1  1
 13 17  1  0
 13 14  2  0
 16 15  1  1
 16 18  1  0
 17 16  1  0
 18 19  2  0
 18 20  1  0
M  END
$$$$
