NCA.pdb
     RDKit          3D

 20 19  0  0  1  0  0  0  0  0999 V2000
    7.8754  -13.6329   15.1221 N   0  0  0  0  0  0  0  0  0  0  0  0
    8.3059  -14.7633   15.9033 C   0  0  0  0  0  0  0  0  0  0  0  0
    8.3269  -15.8587   15.3314 O   0  0  0  0  0  0  0  0  0  0  0  0
    8.6747  -14.5160   17.2864 C   0  0  0  0  0  0  0  0  0  0  0  0
    9.3071  -15.6450   18.0464 C   0  0  2  0  0  0  0  0  0  0  0  0
    8.2196  -16.6489   18.2565 N   0  0  0  0  0  0  0  0  0  0  0  0
    9.8006  -15.3026   19.3826 C   0  0  0  0  0  0  0  0  0  0  0  0
   10.8887  -14.6253   19.4496 O   0  0  0  0  0  0  0  0  0  0  0  0
    9.2074  -15.6324   20.6111 N   0  0  0  0  0  0  0  0  0  0  0  0
    9.8421  -15.2568   21.8806 C   0  0  1  0  0  0  0  0  0  0  0  0
    8.7740  -15.2395   22.9610 C   0  0  0  0  0  0  0  0  0  0  0  0
    7.9976  -16.8521   23.1280 S   0  0  0  0  0  0  0  0  0  0  0  0
   10.9129  -16.2459   22.1314 C   0  0  0  0  0  0  0  0  0  0  0  0
   10.7809  -17.4282   21.6787 O   0  0  0  0  0  0  0  0  0  0  0  0
   14.5163  -16.4800   22.7691 C   0  0  0  0  0  0  0  0  0  0  0  0
   13.1241  -17.0319   22.9608 C   0  0  2  0  0  0  0  0  0  0  0  0
   12.1124  -15.9928   22.8504 N   0  0  0  0  0  0  0  0  0  0  0  0
   13.0669  -17.5997   24.3249 C   0  0  0  0  0  0  0  0  0  0  0  0
   12.2547  -17.1374   25.1555 O   0  0  0  0  0  0  0  0  0  0  0  0
   13.9030  -18.6373   24.6921 O   0  0  0  0  0  0  0  0  0  0  0  0
  1  2  1  0
  2  3  2  0
  4  2  1  0
  5  7  1  0
  5  4  1  0
  5  6  1  1
  7  8  2  0
  9 10  1  0
  9  7  1  0
 10 13  1  0
 11 12  1  0
 10 11  1  1
 13 17  1  0
 13 14  2  0
 16 15  1  1
 16 18  1  0
 17 16  1  0
 18 19  2  0
 18 20  1  0
M  END
$$$$
