WYF.pdb
     RDKit          3D

 38 41  0  0  1  0  0  0  0  0999 V2000
    8.1414  -17.5255   20.3852 N   0  0  0  0  0  0  0  0  0  0  0  0
    8.6151  -16.5422   21.3878 C   0  0  1  0  0  0  0  0  0  0  0  0
    7.3770  -15.7333   21.7189 C   0  0  0  0  0  0  0  0  0  0  0  0
    7.0268  -14.7980   20.6462 C   0  0  0  0  0  0  0  0  0  0  0  0
    5.9442  -14.9028   19.7637 C   0  0  0  0  0  0  0  0  0  0  0  0
    5.9859  -13.8500   18.9347 N   0  0  0  0  0  0  0  0  0  0  0  0
    7.0360  -13.0520   19.2179 C   0  0  0  0  0  0  0  0  0  0  0  0
    7.5133  -11.8703   18.6699 C   0  0  0  0  0  0  0  0  0  0  0  0
    8.6420  -11.2572   19.1719 C   0  0  0  0  0  0  0  0  0  0  0  0
    9.2884  -11.8478   20.2359 C   0  0  0  0  0  0  0  0  0  0  0  0
    8.8167  -13.0213   20.7826 C   0  0  0  0  0  0  0  0  0  0  0  0
    7.6791  -13.6397   20.2769 C   0  0  0  0  0  0  0  0  0  0  0  0
    9.0654  -17.2752   22.6022 C   0  0  0  0  0  0  0  0  0  0  0  0
    8.2104  -17.8626   23.3587 O   0  0  0  0  0  0  0  0  0  0  0  0
   13.9898  -21.4770   28.6513 O   0  0  0  0  0  0  0  0  0  0  0  0
   13.5268  -20.7978   27.5403 C   0  0  0  0  0  0  0  0  0  0  0  0
   12.4684  -21.2425   26.7721 C   0  0  0  0  0  0  0  0  0  0  0  0
   12.0170  -20.5489   25.6605 C   0  0  0  0  0  0  0  0  0  0  0  0
   12.6242  -19.3698   25.2814 C   0  0  0  0  0  0  0  0  0  0  0  0
   12.2424  -18.5528   24.1311 C   0  0  0  0  0  0  0  0  0  0  0  0
   10.8277  -17.9525   24.2710 C   0  0  2  0  0  0  0  0  0  0  0  0
   10.4122  -17.3936   23.0209 N   0  0  0  0  0  0  0  0  0  0  0  0
   10.8648  -17.0177   25.4043 C   0  0  0  0  0  0  0  0  0  0  0  0
   11.5317  -15.9754   25.4876 O   0  0  0  0  0  0  0  0  0  0  0  0
   13.6897  -18.9322   26.0642 C   0  0  0  0  0  0  0  0  0  0  0  0
   14.1342  -19.6197   27.1626 C   0  0  0  0  0  0  0  0  0  0  0  0
   10.0419  -17.3366   26.5437 N   0  0  0  0  0  0  0  0  0  0  0  0
   10.0856  -16.5086   27.7434 C   0  0  1  0  0  0  0  0  0  0  0  0
    8.6606  -16.0626   28.0102 C   0  0  0  0  0  0  0  0  0  0  0  0
    8.2018  -14.9801   27.1255 C   0  0  0  0  0  0  0  0  0  0  0  0
    7.2643  -15.1823   26.1378 C   0  0  0  0  0  0  0  0  0  0  0  0
    6.8314  -14.1617   25.3164 C   0  0  0  0  0  0  0  0  0  0  0  0
    7.3291  -12.8805   25.4553 C   0  0  0  0  0  0  0  0  0  0  0  0
    8.2653  -12.6727   26.4394 C   0  0  0  0  0  0  0  0  0  0  0  0
    8.7121  -13.6838   27.2737 C   0  0  0  0  0  0  0  0  0  0  0  0
   10.5580  -17.3137   28.8768 C   0  0  0  0  0  0  0  0  0  0  0  0
   10.8831  -16.7141   30.0733 O   0  0  0  0  0  0  0  0  0  0  0  0
   10.6666  -18.5507   28.7569 O   0  0  0  0  0  0  0  0  0  0  0  0
  2  1  1  6
  3  4  1  0
  3  2  1  0
  4  5  2  0
  6  5  1  0
  7  6  1  0
  8  7  2  0
  9  8  1  0
 10  9  2  0
 10 11  1  0
 11 12  2  0
 12  7  1  0
 12  4  1  0
 13  2  1  0
 14 13  2  0
 15 16  1  0
 16 17  2  0
 17 18  1  0
 19 20  1  0
 19 18  2  0
 21 20  1  6
 21 22  1  0
 21 23  1  0
 22 13  1  0
 23 27  1  0
 23 24  2  0
 25 19  1  0
 26 25  2  0
 26 16  1  0
 27 28  1  0
 28 29  1  1
 29 30  1  0
 30 35  1  0
 30 31  2  0
 31 32  1  0
 32 33  2  0
 34 33  1  0
 35 34  2  0
 36 28  1  0
 36 37  1  0
 38 36  2  0
M  END
$$$$
