WYF.pdb
     RDKit          3D

 38 41  0  0  1  0  0  0  0  0999 V2000
    6.1314  -17.8270   23.3916 N   0  0  0  0  0  0  0  0  0  0  0  0
    7.0426  -16.6667   23.5325 C   0  0  1  0  0  0  0  0  0  0  0  0
    7.3294  -16.6064   25.0195 C   0  0  0  0  0  0  0  0  0  0  0  0
    6.6811  -15.4582   25.6595 C   0  0  0  0  0  0  0  0  0  0  0  0
    5.4862  -15.4709   26.3903 C   0  0  0  0  0  0  0  0  0  0  0  0
    5.2398  -14.2175   26.7973 N   0  0  0  0  0  0  0  0  0  0  0  0
    6.2048  -13.3735   26.3775 C   0  0  0  0  0  0  0  0  0  0  0  0
    6.4127  -12.0100   26.5261 C   0  0  0  0  0  0  0  0  0  0  0  0
    7.5150  -11.3930   25.9728 C   0  0  0  0  0  0  0  0  0  0  0  0
    8.4102  -12.1656   25.2653 C   0  0  0  0  0  0  0  0  0  0  0  0
    8.2068  -13.5201   25.1162 C   0  0  0  0  0  0  0  0  0  0  0  0
    7.0958  -14.1425   25.6736 C   0  0  0  0  0  0  0  0  0  0  0  0
    8.3040  -16.9561   22.7977 C   0  0  0  0  0  0  0  0  0  0  0  0
    8.6417  -18.1681   22.5423 O   0  0  0  0  0  0  0  0  0  0  0  0
    6.9964  -13.3260   17.2121 O   0  0  0  0  0  0  0  0  0  0  0  0
    7.9625  -13.7990   18.0799 C   0  0  0  0  0  0  0  0  0  0  0  0
    8.5168  -15.0599   17.9757 C   0  0  0  0  0  0  0  0  0  0  0  0
    9.4847  -15.5186   18.8550 C   0  0  0  0  0  0  0  0  0  0  0  0
    9.9318  -14.7122   19.8811 C   0  0  0  0  0  0  0  0  0  0  0  0
   10.9420  -15.0830   20.8701 C   0  0  0  0  0  0  0  0  0  0  0  0
   10.4943  -16.2564   21.7669 C   0  0  2  0  0  0  0  0  0  0  0  0
    9.2091  -15.9739   22.3294 N   0  0  0  0  0  0  0  0  0  0  0  0
   11.5731  -16.4966   22.7353 C   0  0  0  0  0  0  0  0  0  0  0  0
   12.7926  -16.4104   22.5272 O   0  0  0  0  0  0  0  0  0  0  0  0
    9.3652  -13.4434   19.9751 C   0  0  0  0  0  0  0  0  0  0  0  0
    8.4085  -12.9924   19.1046 C   0  0  0  0  0  0  0  0  0  0  0  0
   11.1828  -16.8718   24.0710 N   0  0  0  0  0  0  0  0  0  0  0  0
   12.1787  -16.9782   25.1310 C   0  0  1  0  0  0  0  0  0  0  0  0
   11.4107  -17.1652   26.4255 C   0  0  0  0  0  0  0  0  0  0  0  0
   10.6276  -15.9859   26.8269 C   0  0  0  0  0  0  0  0  0  0  0  0
   11.1215  -14.7045   26.7291 C   0  0  0  0  0  0  0  0  0  0  0  0
   10.3797  -13.6015   27.0990 C   0  0  0  0  0  0  0  0  0  0  0  0
    9.0956  -13.7426   27.5886 C   0  0  0  0  0  0  0  0  0  0  0  0
    8.5973  -15.0193   27.6887 C   0  0  0  0  0  0  0  0  0  0  0  0
    9.3261  -16.1386   27.3223 C   0  0  0  0  0  0  0  0  0  0  0  0
   13.0197  -18.1586   24.8957 C   0  0  0  0  0  0  0  0  0  0  0  0
   12.6974  -19.0610   23.9064 O   0  0  0  0  0  0  0  0  0  0  0  0
   14.0343  -18.3476   25.5964 O   0  0  0  0  0  0  0  0  0  0  0  0
  2  1  1  1
  3  4  1  0
  3  2  1  0
  4  5  2  0
  6  5  1  0
  7  6  1  0
  8  7  2  0
  9  8  1  0
 10  9  2  0
 10 11  1  0
 11 12  2  0
 12  7  1  0
 12  4  1  0
 13  2  1  0
 14 13  2  0
 15 16  1  0
 16 17  2  0
 17 18  1  0
 19 20  1  0
 19 18  2  0
 21 20  1  1
 21 22  1  0
 21 23  1  0
 22 13  1  0
 23 27  1  0
 23 24  2  0
 25 19  1  0
 26 25  2  0
 26 16  1  0
 27 28  1  0
 28 29  1  1
 29 30  1  0
 30 35  1  0
 30 31  2  0
 31 32  1  0
 32 33  2  0
 34 33  1  0
 35 34  2  0
 36 28  1  0
 36 37  1  0
 38 36  2  0
M  END
$$$$
