WYF.pdb
     RDKit          3D

 38 41  0  0  1  0  0  0  0  0999 V2000
    6.7053  -17.9696   24.4585 N   0  0  0  0  0  0  0  0  0  0  0  0
    7.2774  -16.6475   24.1103 C   0  0  1  0  0  0  0  0  0  0  0  0
    7.5971  -16.0230   25.4537 C   0  0  0  0  0  0  0  0  0  0  0  0
    6.6488  -14.9630   25.8082 C   0  0  0  0  0  0  0  0  0  0  0  0
    5.4836  -15.1028   26.5728 C   0  0  0  0  0  0  0  0  0  0  0  0
    4.8999  -13.8988   26.6566 N   0  0  0  0  0  0  0  0  0  0  0  0
    5.6129  -12.9675   25.9902 C   0  0  0  0  0  0  0  0  0  0  0  0
    5.4434  -11.6075   25.7751 C   0  0  0  0  0  0  0  0  0  0  0  0
    6.3528  -10.8852   25.0315 C   0  0  0  0  0  0  0  0  0  0  0  0
    7.4397  -11.5482   24.5043 C   0  0  0  0  0  0  0  0  0  0  0  0
    7.6112  -12.8988   24.7164 C   0  0  0  0  0  0  0  0  0  0  0  0
    6.6946  -13.6274   25.4658 C   0  0  0  0  0  0  0  0  0  0  0  0
    8.5397  -16.8568   23.3502 C   0  0  0  0  0  0  0  0  0  0  0  0
    9.0096  -18.0405   23.1879 O   0  0  0  0  0  0  0  0  0  0  0  0
    6.5848  -13.6309   17.4129 O   0  0  0  0  0  0  0  0  0  0  0  0
    7.6018  -13.9647   18.2871 C   0  0  0  0  0  0  0  0  0  0  0  0
    8.1887  -15.2147   18.3182 C   0  0  0  0  0  0  0  0  0  0  0  0
    9.2077  -15.5329   19.2019 C   0  0  0  0  0  0  0  0  0  0  0  0
    9.6749  -14.5907   20.0945 C   0  0  0  0  0  0  0  0  0  0  0  0
   10.7383  -14.8066   21.0738 C   0  0  0  0  0  0  0  0  0  0  0  0
   10.4815  -16.0366   21.9696 C   0  0  2  0  0  0  0  0  0  0  0  0
    9.3068  -15.8247   22.7590 N   0  0  0  0  0  0  0  0  0  0  0  0
   11.7174  -16.2878   22.7238 C   0  0  0  0  0  0  0  0  0  0  0  0
   12.8674  -16.3599   22.2652 O   0  0  0  0  0  0  0  0  0  0  0  0
    9.0751  -13.3345   20.0529 C   0  0  0  0  0  0  0  0  0  0  0  0
    8.0679  -13.0225   19.1784 C   0  0  0  0  0  0  0  0  0  0  0  0
   11.5902  -16.4703   24.1478 N   0  0  0  0  0  0  0  0  0  0  0  0
   12.7624  -16.7641   24.9642 C   0  0  1  0  0  0  0  0  0  0  0  0
   12.7829  -15.7310   26.0746 C   0  0  0  0  0  0  0  0  0  0  0  0
   11.6396  -15.8267   26.9958 C   0  0  0  0  0  0  0  0  0  0  0  0
   11.6559  -16.6350   28.1101 C   0  0  0  0  0  0  0  0  0  0  0  0
   10.5841  -16.7145   28.9753 C   0  0  0  0  0  0  0  0  0  0  0  0
    9.4378  -15.9762   28.7534 C   0  0  0  0  0  0  0  0  0  0  0  0
    9.4156  -15.1676   27.6425 C   0  0  0  0  0  0  0  0  0  0  0  0
   10.4811  -15.0741   26.7628 C   0  0  0  0  0  0  0  0  0  0  0  0
   12.6253  -18.1017   25.5539 C   0  0  0  0  0  0  0  0  0  0  0  0
   11.5709  -18.9157   25.2038 O   0  0  0  0  0  0  0  0  0  0  0  0
   13.4692  -18.5059   26.3790 O   0  0  0  0  0  0  0  0  0  0  0  0
  2  1  1  1
  3  4  1  0
  3  2  1  0
  4  5  2  0
  6  5  1  0
  7  6  1  0
  8  7  2  0
  9  8  1  0
 10  9  2  0
 10 11  1  0
 11 12  2  0
 12  7  1  0
 12  4  1  0
 13  2  1  0
 14 13  2  0
 15 16  1  0
 16 17  2  0
 17 18  1  0
 19 20  1  0
 19 18  2  0
 21 20  1  1
 21 22  1  0
 21 23  1  0
 22 13  1  0
 23 27  1  0
 23 24  2  0
 25 19  1  0
 26 25  2  0
 26 16  1  0
 27 28  1  0
 28 29  1  1
 29 30  1  0
 30 35  1  0
 30 31  2  0
 31 32  1  0
 32 33  2  0
 34 33  1  0
 35 34  2  0
 36 28  1  0
 36 37  1  0
 38 36  2  0
M  END
$$$$
