WYF.pdb
     RDKit          3D

 38 41  0  0  1  0  0  0  0  0999 V2000
    6.3556  -17.4755   24.7202 N   0  0  0  0  0  0  0  0  0  0  0  0
    6.8349  -17.0928   23.3710 C   0  0  1  0  0  0  0  0  0  0  0  0
    6.4555  -15.6304   23.2502 C   0  0  0  0  0  0  0  0  0  0  0  0
    6.3965  -14.9669   24.5558 C   0  0  0  0  0  0  0  0  0  0  0  0
    5.9690  -15.5318   25.7640 C   0  0  0  0  0  0  0  0  0  0  0  0
    6.0633  -14.5907   26.7142 N   0  0  0  0  0  0  0  0  0  0  0  0
    6.5298  -13.4324   26.2038 C   0  0  0  0  0  0  0  0  0  0  0  0
    6.8006  -12.1871   26.7519 C   0  0  0  0  0  0  0  0  0  0  0  0
    7.2811  -11.1553   25.9732 C   0  0  0  0  0  0  0  0  0  0  0  0
    7.4876  -11.3905   24.6313 C   0  0  0  0  0  0  0  0  0  0  0  0
    7.2200  -12.6262   24.0839 C   0  0  0  0  0  0  0  0  0  0  0  0
    6.7354  -13.6666   24.8683 C   0  0  0  0  0  0  0  0  0  0  0  0
    8.3170  -17.2231   23.3341 C   0  0  0  0  0  0  0  0  0  0  0  0
    8.9291  -17.9137   24.2267 O   0  0  0  0  0  0  0  0  0  0  0  0
    7.1793  -12.7680   18.7023 O   0  0  0  0  0  0  0  0  0  0  0  0
    8.1711  -13.5220   19.3005 C   0  0  0  0  0  0  0  0  0  0  0  0
    9.2564  -12.9630   19.9466 C   0  0  0  0  0  0  0  0  0  0  0  0
   10.2425  -13.7342   20.5410 C   0  0  0  0  0  0  0  0  0  0  0  0
   10.1669  -15.1110   20.5039 C   0  0  0  0  0  0  0  0  0  0  0  0
   11.1427  -16.0284   21.0892 C   0  0  0  0  0  0  0  0  0  0  0  0
   10.5718  -16.8214   22.2837 C   0  0  2  0  0  0  0  0  0  0  0  0
    9.1556  -16.6310   22.3598 N   0  0  0  0  0  0  0  0  0  0  0  0
   11.3325  -16.4172   23.4742 C   0  0  0  0  0  0  0  0  0  0  0  0
   11.6261  -15.2607   23.8124 O   0  0  0  0  0  0  0  0  0  0  0  0
    9.0677  -15.6621   19.8498 C   0  0  0  0  0  0  0  0  0  0  0  0
    8.0943  -14.8976   19.2629 C   0  0  0  0  0  0  0  0  0  0  0  0
   11.7892  -17.4685   24.3479 N   0  0  0  0  0  0  0  0  0  0  0  0
   12.3881  -17.1503   25.6390 C   0  0  1  0  0  0  0  0  0  0  0  0
   11.3765  -17.5559   26.6940 C   0  0  0  0  0  0  0  0  0  0  0  0
   10.3993  -16.5038   27.0150 C   0  0  0  0  0  0  0  0  0  0  0  0
    9.2624  -16.2997   26.2658 C   0  0  0  0  0  0  0  0  0  0  0  0
    8.3450  -15.3170   26.5764 C   0  0  0  0  0  0  0  0  0  0  0  0
    8.5348  -14.4888   27.6657 C   0  0  0  0  0  0  0  0  0  0  0  0
    9.6680  -14.6876   28.4172 C   0  0  0  0  0  0  0  0  0  0  0  0
   10.6000  -15.6685   28.1218 C   0  0  0  0  0  0  0  0  0  0  0  0
   13.6130  -17.9398   25.8182 C   0  0  0  0  0  0  0  0  0  0  0  0
   14.4963  -17.6400   26.8315 O   0  0  0  0  0  0  0  0  0  0  0  0
   13.8575  -18.8898   25.0475 O   0  0  0  0  0  0  0  0  0  0  0  0
  2  1  1  1
  3  4  1  0
  3  2  1  0
  4  5  2  0
  6  5  1  0
  7  6  1  0
  8  7  2  0
  9  8  1  0
 10  9  2  0
 10 11  1  0
 11 12  2  0
 12  7  1  0
 12  4  1  0
 13  2  1  0
 14 13  2  0
 15 16  1  0
 16 17  2  0
 17 18  1  0
 19 20  1  0
 19 18  2  0
 21 20  1  6
 21 22  1  0
 21 23  1  0
 22 13  1  0
 23 27  1  0
 23 24  2  0
 25 19  1  0
 26 25  2  0
 26 16  1  0
 27 28  1  0
 28 29  1  1
 29 30  1  0
 30 35  1  0
 30 31  2  0
 31 32  1  0
 32 33  2  0
 34 33  1  0
 35 34  2  0
 36 28  1  0
 36 37  1  0
 38 36  2  0
M  END
$$$$
