WYF.pdb
     RDKit          3D

 38 41  0  0  1  0  0  0  0  0999 V2000
    6.3438  -19.0788   22.8952 N   0  0  0  0  0  0  0  0  0  0  0  0
    6.5628  -17.6894   23.3624 C   0  0  1  0  0  0  0  0  0  0  0  0
    6.3407  -17.7685   24.8595 C   0  0  0  0  0  0  0  0  0  0  0  0
    6.4483  -16.4558   25.5025 C   0  0  0  0  0  0  0  0  0  0  0  0
    5.7013  -15.3105   25.1990 C   0  0  0  0  0  0  0  0  0  0  0  0
    6.1116  -14.3250   26.0100 N   0  0  0  0  0  0  0  0  0  0  0  0
    7.0894  -14.7524   26.8351 C   0  0  0  0  0  0  0  0  0  0  0  0
    7.8328  -14.1401   27.8337 C   0  0  0  0  0  0  0  0  0  0  0  0
    8.7961  -14.8363   28.5331 C   0  0  0  0  0  0  0  0  0  0  0  0
    9.0045  -16.1610   28.2164 C   0  0  0  0  0  0  0  0  0  0  0  0
    8.2678  -16.7723   27.2255 C   0  0  0  0  0  0  0  0  0  0  0  0
    7.2968  -16.0709   26.5200 C   0  0  0  0  0  0  0  0  0  0  0  0
    7.9764  -17.3104   23.0923 C   0  0  0  0  0  0  0  0  0  0  0  0
    8.8484  -18.2125   22.8199 O   0  0  0  0  0  0  0  0  0  0  0  0
    7.5496  -14.0137   16.8553 O   0  0  0  0  0  0  0  0  0  0  0  0
    8.0366  -14.0239   18.1487 C   0  0  0  0  0  0  0  0  0  0  0  0
    7.3666  -13.4484   19.2107 C   0  0  0  0  0  0  0  0  0  0  0  0
    7.8696  -13.4673   20.5018 C   0  0  0  0  0  0  0  0  0  0  0  0
    9.0791  -14.0743   20.7692 C   0  0  0  0  0  0  0  0  0  0  0  0
    9.7128  -14.1561   22.0838 C   0  0  0  0  0  0  0  0  0  0  0  0
    9.7666  -15.5985   22.6296 C   0  0  2  0  0  0  0  0  0  0  0  0
    8.4738  -15.9854   23.1058 N   0  0  0  0  0  0  0  0  0  0  0  0
   10.8497  -15.6453   23.6217 C   0  0  0  0  0  0  0  0  0  0  0  0
   12.0484  -15.3941   23.4271 O   0  0  0  0  0  0  0  0  0  0  0  0
    9.7444  -14.6509   19.6901 C   0  0  0  0  0  0  0  0  0  0  0  0
    9.2451  -14.6307   18.4146 C   0  0  0  0  0  0  0  0  0  0  0  0
   10.4908  -16.0209   24.9660 N   0  0  0  0  0  0  0  0  0  0  0  0
   11.5217  -16.2351   25.9751 C   0  0  1  0  0  0  0  0  0  0  0  0
   11.1191  -15.4104   27.1829 C   0  0  0  0  0  0  0  0  0  0  0  0
   10.0987  -14.3909   26.8923 C   0  0  0  0  0  0  0  0  0  0  0  0
   10.3800  -13.2490   26.1766 C   0  0  0  0  0  0  0  0  0  0  0  0
    9.4172  -12.3002   25.8997 C   0  0  0  0  0  0  0  0  0  0  0  0
    8.1165  -12.4619   26.3361 C   0  0  0  0  0  0  0  0  0  0  0  0
    7.8298  -13.5998   27.0512 C   0  0  0  0  0  0  0  0  0  0  0  0
    8.7820  -14.5633   27.3389 C   0  0  0  0  0  0  0  0  0  0  0  0
   11.5522  -17.6543   26.3501 C   0  0  0  0  0  0  0  0  0  0  0  0
   10.6935  -18.5530   25.7570 O   0  0  0  0  0  0  0  0  0  0  0  0
   12.3614  -18.0512   27.2126 O   0  0  0  0  0  0  0  0  0  0  0  0
  2  1  1  6
  3  4  1  0
  3  2  1  0
  4  5  2  0
  6  5  1  0
  7  6  1  0
  8  7  2  0
  9  8  1  0
 10  9  2  0
 10 11  1  0
 11 12  2  0
 12  7  1  0
 12  4  1  0
 13  2  1  0
 14 13  2  0
 15 16  1  0
 16 17  2  0
 17 18  1  0
 19 20  1  0
 19 18  2  0
 21 20  1  1
 21 22  1  0
 21 23  1  0
 22 13  1  0
 23 27  1  0
 23 24  2  0
 25 19  1  0
 26 25  2  0
 26 16  1  0
 27 28  1  0
 28 29  1  1
 29 30  1  0
 30 35  1  0
 30 31  2  0
 31 32  1  0
 32 33  2  0
 34 33  1  0
 35 34  2  0
 36 28  1  0
 36 37  1  0
 38 36  2  0
M  END
$$$$
