WYF.pdb
     RDKit          3D

 38 41  0  0  1  0  0  0  0  0999 V2000
    6.1347  -18.4184   22.8618 N   0  0  0  0  0  0  0  0  0  0  0  0
    6.7942  -17.1481   23.2461 C   0  0  1  0  0  0  0  0  0  0  0  0
    6.8352  -17.2016   24.7601 C   0  0  0  0  0  0  0  0  0  0  0  0
    6.2085  -16.0256   25.3703 C   0  0  0  0  0  0  0  0  0  0  0  0
    5.0679  -16.0111   26.1832 C   0  0  0  0  0  0  0  0  0  0  0  0
    4.8235  -14.7384   26.5262 N   0  0  0  0  0  0  0  0  0  0  0  0
    5.7385  -13.9071   25.9864 C   0  0  0  0  0  0  0  0  0  0  0  0
    5.9269  -12.5334   26.0330 C   0  0  0  0  0  0  0  0  0  0  0  0
    6.9744  -11.9350   25.3649 C   0  0  0  0  0  0  0  0  0  0  0  0
    7.8346  -12.7365   24.6463 C   0  0  0  0  0  0  0  0  0  0  0  0
    7.6506  -14.1011   24.5983 C   0  0  0  0  0  0  0  0  0  0  0  0
    6.5947  -14.7048   25.2714 C   0  0  0  0  0  0  0  0  0  0  0  0
    8.1841  -17.1497   22.7141 C   0  0  0  0  0  0  0  0  0  0  0  0
    8.7840  -18.2587   22.4721 O   0  0  0  0  0  0  0  0  0  0  0  0
    6.9995  -13.2378   17.2621 O   0  0  0  0  0  0  0  0  0  0  0  0
    7.8726  -13.5388   18.2902 C   0  0  0  0  0  0  0  0  0  0  0  0
    7.9336  -12.8130   19.4639 C   0  0  0  0  0  0  0  0  0  0  0  0
    8.8158  -13.1286   20.4850 C   0  0  0  0  0  0  0  0  0  0  0  0
    9.6762  -14.1990   20.3560 C   0  0  0  0  0  0  0  0  0  0  0  0
   10.6505  -14.6274   21.3579 C   0  0  0  0  0  0  0  0  0  0  0  0
   10.3005  -15.9948   21.9816 C   0  0  2  0  0  0  0  0  0  0  0  0
    8.9429  -15.9882   22.4341 N   0  0  0  0  0  0  0  0  0  0  0  0
   11.3121  -16.2724   23.0106 C   0  0  0  0  0  0  0  0  0  0  0  0
   12.5430  -16.1851   22.8867 O   0  0  0  0  0  0  0  0  0  0  0  0
    9.6046  -14.9227   19.1683 C   0  0  0  0  0  0  0  0  0  0  0  0
    8.7317  -14.6086   18.1603 C   0  0  0  0  0  0  0  0  0  0  0  0
   10.8332  -16.6899   24.3043 N   0  0  0  0  0  0  0  0  0  0  0  0
   11.7723  -17.0345   25.3655 C   0  0  1  0  0  0  0  0  0  0  0  0
   11.0023  -16.9386   26.6689 C   0  0  0  0  0  0  0  0  0  0  0  0
   10.6730  -15.5600   27.0639 C   0  0  0  0  0  0  0  0  0  0  0  0
    9.3934  -15.0574   26.9902 C   0  0  0  0  0  0  0  0  0  0  0  0
    9.0887  -13.7664   27.3699 C   0  0  0  0  0  0  0  0  0  0  0  0
   10.0693  -12.9171   27.8449 C   0  0  0  0  0  0  0  0  0  0  0  0
   11.3485  -13.4132   27.9206 C   0  0  0  0  0  0  0  0  0  0  0  0
   11.6740  -14.7057   27.5446 C   0  0  0  0  0  0  0  0  0  0  0  0
   12.2348  -18.4156   25.1804 C   0  0  0  0  0  0  0  0  0  0  0  0
   13.2283  -18.9338   25.9814 O   0  0  0  0  0  0  0  0  0  0  0  0
   11.7255  -19.1269   24.2910 O   0  0  0  0  0  0  0  0  0  0  0  0
  2  1  1  6
  3  4  1  0
  3  2  1  0
  4  5  2  0
  6  5  1  0
  7  6  1  0
  8  7  2  0
  9  8  1  0
 10  9  2  0
 10 11  1  0
 11 12  2  0
 12  7  1  0
 12  4  1  0
 13  2  1  0
 14 13  2  0
 15 16  1  0
 16 17  2  0
 17 18  1  0
 19 20  1  0
 19 18  2  0
 21 20  1  1
 21 22  1  0
 21 23  1  0
 22 13  1  0
 23 27  1  0
 23 24  2  0
 25 19  1  0
 26 25  2  0
 26 16  1  0
 27 28  1  0
 28 29  1  1
 29 30  1  0
 30 35  1  0
 30 31  2  0
 31 32  1  0
 32 33  2  0
 34 33  1  0
 35 34  2  0
 36 28  1  0
 36 37  1  0
 38 36  2  0
M  END
$$$$
