WYF.pdb
     RDKit          3D

 38 41  0  0  1  0  0  0  0  0999 V2000
    9.0099  -17.8447   20.2768 N   0  0  0  0  0  0  0  0  0  0  0  0
    9.6865  -16.7660   21.0352 C   0  0  1  0  0  0  0  0  0  0  0  0
    8.6286  -16.2851   22.0081 C   0  0  0  0  0  0  0  0  0  0  0  0
    7.6266  -15.4362   21.3572 C   0  0  0  0  0  0  0  0  0  0  0  0
    6.2414  -15.6422   21.3347 C   0  0  0  0  0  0  0  0  0  0  0  0
    5.6886  -14.6443   20.6304 N   0  0  0  0  0  0  0  0  0  0  0  0
    6.6299  -13.7872   20.1842 C   0  0  0  0  0  0  0  0  0  0  0  0
    6.5827  -12.6247   19.4285 C   0  0  0  0  0  0  0  0  0  0  0  0
    7.7336  -11.9347   19.1104 C   0  0  0  0  0  0  0  0  0  0  0  0
    8.9379  -12.4284   19.5628 C   0  0  0  0  0  0  0  0  0  0  0  0
    8.9883  -13.5824   20.3138 C   0  0  0  0  0  0  0  0  0  0  0  0
    7.8284  -14.2784   20.6346 C   0  0  0  0  0  0  0  0  0  0  0  0
   10.8239  -17.3543   21.7936 C   0  0  0  0  0  0  0  0  0  0  0  0
   10.8557  -18.6138   22.0404 O   0  0  0  0  0  0  0  0  0  0  0  0
   16.2023  -14.2568   18.4546 O   0  0  0  0  0  0  0  0  0  0  0  0
   15.7075  -14.6737   19.6757 C   0  0  0  0  0  0  0  0  0  0  0  0
   16.1387  -14.1541   20.8807 C   0  0  0  0  0  0  0  0  0  0  0  0
   15.6319  -14.5841   22.0967 C   0  0  0  0  0  0  0  0  0  0  0  0
   14.6618  -15.5638   22.1396 C   0  0  0  0  0  0  0  0  0  0  0  0
   14.0541  -16.1005   23.3557 C   0  0  0  0  0  0  0  0  0  0  0  0
   12.9937  -17.1829   23.0632 C   0  0  2  0  0  0  0  0  0  0  0  0
   11.9281  -16.6214   22.2904 N   0  0  0  0  0  0  0  0  0  0  0  0
   12.6036  -17.7662   24.3544 C   0  0  0  0  0  0  0  0  0  0  0  0
   11.8808  -18.7576   24.5350 O   0  0  0  0  0  0  0  0  0  0  0  0
   14.2354  -16.0792   20.9180 C   0  0  0  0  0  0  0  0  0  0  0  0
   14.7381  -15.6526   19.7173 C   0  0  0  0  0  0  0  0  0  0  0  0
   13.1104  -17.1263   25.5421 N   0  0  0  0  0  0  0  0  0  0  0  0
   12.1948  -16.5630   26.5276 C   0  0  1  0  0  0  0  0  0  0  0  0
   11.4546  -15.4363   25.8324 C   0  0  0  0  0  0  0  0  0  0  0  0
   10.5418  -14.6924   26.7146 C   0  0  0  0  0  0  0  0  0  0  0  0
    9.1759  -14.7055   26.5425 C   0  0  0  0  0  0  0  0  0  0  0  0
    8.3239  -14.0129   27.3779 C   0  0  0  0  0  0  0  0  0  0  0  0
    8.8154  -13.2693   28.4333 C   0  0  0  0  0  0  0  0  0  0  0  0
   10.1781  -13.2522   28.6100 C   0  0  0  0  0  0  0  0  0  0  0  0
   11.0493  -13.9409   27.7826 C   0  0  0  0  0  0  0  0  0  0  0  0
   11.2298  -17.5892   26.9418 C   0  0  0  0  0  0  0  0  0  0  0  0
   11.0268  -17.8601   28.2768 O   0  0  0  0  0  0  0  0  0  0  0  0
   10.5879  -18.2219   26.0793 O   0  0  0  0  0  0  0  0  0  0  0  0
  2  1  1  6
  3  4  1  0
  3  2  1  0
  4  5  2  0
  6  5  1  0
  7  6  1  0
  8  7  2  0
  9  8  1  0
 10  9  2  0
 10 11  1  0
 11 12  2  0
 12  7  1  0
 12  4  1  0
 13  2  1  0
 14 13  2  0
 15 16  1  0
 16 17  2  0
 17 18  1  0
 19 20  1  0
 19 18  2  0
 21 20  1  1
 21 22  1  0
 21 23  1  0
 22 13  1  0
 23 27  1  0
 23 24  2  0
 25 19  1  0
 26 25  2  0
 26 16  1  0
 27 28  1  0
 28 29  1  6
 29 30  1  0
 30 35  1  0
 30 31  2  0
 31 32  1  0
 32 33  2  0
 34 33  1  0
 35 34  2  0
 36 28  1  0
 36 37  1  0
 38 36  2  0
M  END
$$$$
