WYF.pdb
     RDKit          3D

 38 41  0  0  1  0  0  0  0  0999 V2000
    6.1993  -17.8799   23.6841 N   0  0  0  0  0  0  0  0  0  0  0  0
    6.9722  -16.6164   23.7356 C   0  0  1  0  0  0  0  0  0  0  0  0
    7.2138  -16.3964   25.2155 C   0  0  0  0  0  0  0  0  0  0  0  0
    6.4638  -15.2477   25.7314 C   0  0  0  0  0  0  0  0  0  0  0  0
    5.3128  -15.2883   26.5285 C   0  0  0  0  0  0  0  0  0  0  0  0
    4.9387  -14.0247   26.7752 N   0  0  0  0  0  0  0  0  0  0  0  0
    5.7773  -13.1476   26.1862 C   0  0  0  0  0  0  0  0  0  0  0  0
    5.8293  -11.7622   26.1346 C   0  0  0  0  0  0  0  0  0  0  0  0
    6.8250  -11.1122   25.4362 C   0  0  0  0  0  0  0  0  0  0  0  0
    7.7725  -11.8738   24.7874 C   0  0  0  0  0  0  0  0  0  0  0  0
    7.7241  -13.2498   24.8370 C   0  0  0  0  0  0  0  0  0  0  0  0
    6.7204  -13.9056   25.5407 C   0  0  0  0  0  0  0  0  0  0  0  0
    8.2757  -16.8237   23.0480 C   0  0  0  0  0  0  0  0  0  0  0  0
    8.7539  -18.0071   22.9088 O   0  0  0  0  0  0  0  0  0  0  0  0
    6.7294  -13.9741   17.0549 O   0  0  0  0  0  0  0  0  0  0  0  0
    7.6837  -14.1323   18.0420 C   0  0  0  0  0  0  0  0  0  0  0  0
    7.8224  -13.2587   19.1029 C   0  0  0  0  0  0  0  0  0  0  0  0
    8.7854  -13.4321   20.0842 C   0  0  0  0  0  0  0  0  0  0  0  0
    9.6512  -14.5045   20.0286 C   0  0  0  0  0  0  0  0  0  0  0  0
   10.7064  -14.7917   20.9984 C   0  0  0  0  0  0  0  0  0  0  0  0
   10.3641  -15.9857   21.9141 C   0  0  2  0  0  0  0  0  0  0  0  0
    9.0755  -15.7900   22.5049 N   0  0  0  0  0  0  0  0  0  0  0  0
   11.4795  -16.1402   22.8583 C   0  0  0  0  0  0  0  0  0  0  0  0
   12.5673  -15.5454   22.8287 O   0  0  0  0  0  0  0  0  0  0  0  0
    9.5007  -15.3779   18.9543 C   0  0  0  0  0  0  0  0  0  0  0  0
    8.5481  -15.2043   17.9854 C   0  0  0  0  0  0  0  0  0  0  0  0
   11.2995  -17.0793   23.9367 N   0  0  0  0  0  0  0  0  0  0  0  0
   12.4033  -17.3941   24.8362 C   0  0  1  0  0  0  0  0  0  0  0  0
   12.7889  -16.0938   25.5154 C   0  0  0  0  0  0  0  0  0  0  0  0
   11.8644  -15.6857   26.5848 C   0  0  0  0  0  0  0  0  0  0  0  0
   12.1143  -15.9434   27.9139 C   0  0  0  0  0  0  0  0  0  0  0  0
   11.2479  -15.5510   28.9134 C   0  0  0  0  0  0  0  0  0  0  0  0
   10.0804  -14.8755   28.6148 C   0  0  0  0  0  0  0  0  0  0  0  0
    9.8255  -14.6156   27.2897 C   0  0  0  0  0  0  0  0  0  0  0  0
   10.6827  -15.0010   26.2725 C   0  0  0  0  0  0  0  0  0  0  0  0
   11.9488  -18.3514   25.8524 C   0  0  0  0  0  0  0  0  0  0  0  0
   10.6503  -18.8108   25.8494 O   0  0  0  0  0  0  0  0  0  0  0  0
   12.7432  -18.7530   26.7265 O   0  0  0  0  0  0  0  0  0  0  0  0
  2  1  1  1
  3  4  1  0
  3  2  1  0
  4  5  2  0
  6  5  1  0
  7  6  1  0
  8  7  2  0
  9  8  1  0
 10  9  2  0
 10 11  1  0
 11 12  2  0
 12  7  1  0
 12  4  1  0
 13  2  1  0
 14 13  2  0
 15 16  1  0
 16 17  2  0
 17 18  1  0
 19 20  1  0
 19 18  2  0
 21 20  1  6
 21 22  1  0
 21 23  1  0
 22 13  1  0
 23 27  1  0
 23 24  2  0
 25 19  1  0
 26 25  2  0
 26 16  1  0
 27 28  1  0
 28 29  1  1
 29 30  1  0
 30 35  1  0
 30 31  2  0
 31 32  1  0
 32 33  2  0
 34 33  1  0
 35 34  2  0
 36 28  1  0
 36 37  1  0
 38 36  2  0
M  END
$$$$
