WYF.pdb
     RDKit          3D

 38 41  0  0  1  0  0  0  0  0999 V2000
    6.4922  -19.1311   23.0194 N   0  0  0  0  0  0  0  0  0  0  0  0
    6.7643  -17.7079   23.3308 C   0  0  1  0  0  0  0  0  0  0  0  0
    6.5830  -17.6220   24.8331 C   0  0  0  0  0  0  0  0  0  0  0  0
    5.9252  -16.3765   25.2384 C   0  0  0  0  0  0  0  0  0  0  0  0
    4.6268  -16.2417   25.7462 C   0  0  0  0  0  0  0  0  0  0  0  0
    4.4112  -14.9400   25.9837 N   0  0  0  0  0  0  0  0  0  0  0  0
    5.4944  -14.2031   25.6618 C   0  0  0  0  0  0  0  0  0  0  0  0
    5.7772  -12.8460   25.7153 C   0  0  0  0  0  0  0  0  0  0  0  0
    7.0005  -12.3568   25.3081 C   0  0  0  0  0  0  0  0  0  0  0  0
    7.9409  -13.2510   24.8446 C   0  0  0  0  0  0  0  0  0  0  0  0
    7.6633  -14.5995   24.7905 C   0  0  0  0  0  0  0  0  0  0  0  0
    6.4302  -15.0932   25.2008 C   0  0  0  0  0  0  0  0  0  0  0  0
    8.1798  -17.4041   22.9861 C   0  0  0  0  0  0  0  0  0  0  0  0
    9.0424  -18.3507   22.8965 O   0  0  0  0  0  0  0  0  0  0  0  0
    7.5187  -13.6609   16.8226 O   0  0  0  0  0  0  0  0  0  0  0  0
    8.1826  -13.8815   18.0145 C   0  0  0  0  0  0  0  0  0  0  0  0
    9.0598  -14.9313   18.2053 C   0  0  0  0  0  0  0  0  0  0  0  0
    9.7171  -15.1381   19.4076 C   0  0  0  0  0  0  0  0  0  0  0  0
    9.5101  -14.2837   20.4706 C   0  0  0  0  0  0  0  0  0  0  0  0
   10.1400  -14.3991   21.7844 C   0  0  0  0  0  0  0  0  0  0  0  0
   10.0431  -15.8246   22.3676 C   0  0  2  0  0  0  0  0  0  0  0  0
    8.6889  -16.1079   22.7335 N   0  0  0  0  0  0  0  0  0  0  0  0
   11.0275  -15.9148   23.4549 C   0  0  0  0  0  0  0  0  0  0  0  0
   12.2210  -15.5810   23.4077 O   0  0  0  0  0  0  0  0  0  0  0  0
    8.6236  -13.2293   20.2652 C   0  0  0  0  0  0  0  0  0  0  0  0
    7.9750  -13.0270   19.0758 C   0  0  0  0  0  0  0  0  0  0  0  0
   10.5668  -16.4451   24.7133 N   0  0  0  0  0  0  0  0  0  0  0  0
   11.5165  -16.7763   25.7693 C   0  0  1  0  0  0  0  0  0  0  0  0
   10.7482  -16.7084   27.0754 C   0  0  0  0  0  0  0  0  0  0  0  0
   10.4271  -15.3382   27.5049 C   0  0  0  0  0  0  0  0  0  0  0  0
    9.2250  -15.0116   28.0910 C   0  0  0  0  0  0  0  0  0  0  0  0
    8.9325  -13.7266   28.4995 C   0  0  0  0  0  0  0  0  0  0  0  0
    9.8470  -12.7045   28.3337 C   0  0  0  0  0  0  0  0  0  0  0  0
   11.0488  -13.0245   27.7490 C   0  0  0  0  0  0  0  0  0  0  0  0
   11.3609  -14.3080   27.3328 C   0  0  0  0  0  0  0  0  0  0  0  0
   12.0102  -18.1449   25.5721 C   0  0  0  0  0  0  0  0  0  0  0  0
   12.9564  -18.6761   26.4202 O   0  0  0  0  0  0  0  0  0  0  0  0
   11.5705  -18.8335   24.6293 O   0  0  0  0  0  0  0  0  0  0  0  0
  2  1  1  1
  3  4  1  0
  3  2  1  0
  4  5  2  0
  6  5  1  0
  7  6  1  0
  8  7  2  0
  9  8  1  0
 10  9  2  0
 10 11  1  0
 11 12  2  0
 12  7  1  0
 12  4  1  0
 13  2  1  0
 14 13  2  0
 15 16  1  0
 16 17  2  0
 17 18  1  0
 19 20  1  0
 19 18  2  0
 21 20  1  1
 21 22  1  0
 21 23  1  0
 22 13  1  0
 23 27  1  0
 23 24  2  0
 25 19  1  0
 26 25  2  0
 26 16  1  0
 27 28  1  0
 28 29  1  1
 29 30  1  0
 30 35  1  0
 30 31  2  0
 31 32  1  0
 32 33  2  0
 34 33  1  0
 35 34  2  0
 36 28  1  0
 36 37  1  0
 38 36  2  0
M  END
$$$$
