WYF.pdb
     RDKit          3D

 38 41  0  0  1  0  0  0  0  0999 V2000
    7.0439  -20.8131   26.5902 N   0  0  0  0  0  0  0  0  0  0  0  0
    7.5842  -19.4384   26.4691 C   0  0  1  0  0  0  0  0  0  0  0  0
    9.0178  -19.5666   26.9437 C   0  0  0  0  0  0  0  0  0  0  0  0
    9.3064  -18.6765   28.0719 C   0  0  0  0  0  0  0  0  0  0  0  0
    9.1667  -18.9768   29.4328 C   0  0  0  0  0  0  0  0  0  0  0  0
    9.5274  -17.8916   30.1325 N   0  0  0  0  0  0  0  0  0  0  0  0
    9.8989  -16.8876   29.3117 C   0  0  0  0  0  0  0  0  0  0  0  0
   10.3439  -15.5915   29.5279 C   0  0  0  0  0  0  0  0  0  0  0  0
   10.6583  -14.7610   28.4728 C   0  0  0  0  0  0  0  0  0  0  0  0
   10.5202  -15.2503   27.1921 C   0  0  0  0  0  0  0  0  0  0  0  0
   10.0789  -16.5371   26.9739 C   0  0  0  0  0  0  0  0  0  0  0  0
    9.7617  -17.3746   28.0371 C   0  0  0  0  0  0  0  0  0  0  0  0
    7.5726  -19.0437   25.0342 C   0  0  0  0  0  0  0  0  0  0  0  0
    8.2890  -19.6816   24.1809 O   0  0  0  0  0  0  0  0  0  0  0  0
    7.6239  -13.5751   18.1093 O   0  0  0  0  0  0  0  0  0  0  0  0
    7.2584  -14.3285   19.2087 C   0  0  0  0  0  0  0  0  0  0  0  0
    7.2539  -15.7098   19.2079 C   0  0  0  0  0  0  0  0  0  0  0  0
    6.8841  -16.4500   20.3196 C   0  0  0  0  0  0  0  0  0  0  0  0
    6.5019  -15.8154   21.4832 C   0  0  0  0  0  0  0  0  0  0  0  0
    6.0890  -16.4841   22.7156 C   0  0  0  0  0  0  0  0  0  0  0  0
    7.2813  -17.0595   23.5086 C   0  0  2  0  0  0  0  0  0  0  0  0
    6.8078  -17.9818   24.4950 N   0  0  0  0  0  0  0  0  0  0  0  0
    8.0499  -15.9175   24.0230 C   0  0  0  0  0  0  0  0  0  0  0  0
    7.6201  -14.7797   24.2651 O   0  0  0  0  0  0  0  0  0  0  0  0
    6.5110  -14.4228   21.4711 C   0  0  0  0  0  0  0  0  0  0  0  0
    6.8768  -13.6934   20.3709 C   0  0  0  0  0  0  0  0  0  0  0  0
    9.4521  -16.1329   24.2772 N   0  0  0  0  0  0  0  0  0  0  0  0
   10.4327  -15.1100   23.9323 C   0  0  1  0  0  0  0  0  0  0  0  0
   10.2868  -14.0087   24.9651 C   0  0  0  0  0  0  0  0  0  0  0  0
    8.9711  -13.3504   24.9491 C   0  0  0  0  0  0  0  0  0  0  0  0
    8.4133  -12.8447   23.7965 C   0  0  0  0  0  0  0  0  0  0  0  0
    7.1753  -12.2357   23.7857 C   0  0  0  0  0  0  0  0  0  0  0  0
    6.4380  -12.1081   24.9470 C   0  0  0  0  0  0  0  0  0  0  0  0
    6.9897  -12.6109   26.1008 C   0  0  0  0  0  0  0  0  0  0  0  0
    8.2303  -13.2255   26.1317 C   0  0  0  0  0  0  0  0  0  0  0  0
   11.7839  -15.6775   24.0216 C   0  0  0  0  0  0  0  0  0  0  0  0
   12.8861  -14.9112   23.7132 O   0  0  0  0  0  0  0  0  0  0  0  0
   11.9371  -16.8628   24.3791 O   0  0  0  0  0  0  0  0  0  0  0  0
  2  1  1  6
  3  4  1  0
  3  2  1  0
  4  5  2  0
  6  5  1  0
  7  6  1  0
  8  7  2  0
  9  8  1  0
 10  9  2  0
 10 11  1  0
 11 12  2  0
 12  7  1  0
 12  4  1  0
 13  2  1  0
 14 13  2  0
 15 16  1  0
 16 17  2  0
 17 18  1  0
 19 20  1  0
 19 18  2  0
 21 20  1  1
 21 22  1  0
 21 23  1  0
 22 13  1  0
 23 27  1  0
 23 24  2  0
 25 19  1  0
 26 25  2  0
 26 16  1  0
 27 28  1  0
 28 29  1  1
 29 30  1  0
 30 35  1  0
 30 31  2  0
 31 32  1  0
 32 33  2  0
 34 33  1  0
 35 34  2  0
 36 28  1  0
 36 37  1  0
 38 36  2  0
M  END
$$$$
