WYF.pdb
     RDKit          3D

 38 41  0  0  1  0  0  0  0  0999 V2000
    8.2444  -19.1211   24.5385 N   0  0  0  0  0  0  0  0  0  0  0  0
    7.5039  -18.6584   23.3409 C   0  0  1  0  0  0  0  0  0  0  0  0
    6.4171  -17.7660   23.9061 C   0  0  0  0  0  0  0  0  0  0  0  0
    6.3233  -16.4908   23.1897 C   0  0  0  0  0  0  0  0  0  0  0  0
    5.8308  -16.2923   21.8936 C   0  0  0  0  0  0  0  0  0  0  0  0
    5.9257  -14.9847   21.6133 N   0  0  0  0  0  0  0  0  0  0  0  0
    6.4538  -14.3041   22.6514 C   0  0  0  0  0  0  0  0  0  0  0  0
    6.7544  -12.9664   22.8632 C   0  0  0  0  0  0  0  0  0  0  0  0
    7.3060  -12.5400   24.0530 C   0  0  0  0  0  0  0  0  0  0  0  0
    7.5529  -13.4775   25.0322 C   0  0  0  0  0  0  0  0  0  0  0  0
    7.2552  -14.8067   24.8252 C   0  0  0  0  0  0  0  0  0  0  0  0
    6.6994  -15.2371   23.6259 C   0  0  0  0  0  0  0  0  0  0  0  0
    8.4201  -17.8457   22.4954 C   0  0  0  0  0  0  0  0  0  0  0  0
    7.9486  -17.0871   21.5732 O   0  0  0  0  0  0  0  0  0  0  0  0
    8.9077  -13.2948   17.6956 O   0  0  0  0  0  0  0  0  0  0  0  0
    9.1226  -13.8543   18.9409 C   0  0  0  0  0  0  0  0  0  0  0  0
    9.5993  -15.1386   19.1179 C   0  0  0  0  0  0  0  0  0  0  0  0
    9.8088  -15.6844   20.3744 C   0  0  0  0  0  0  0  0  0  0  0  0
    9.5419  -14.9453   21.5081 C   0  0  0  0  0  0  0  0  0  0  0  0
    9.7187  -15.4100   22.8826 C   0  0  0  0  0  0  0  0  0  0  0  0
   10.5990  -16.6742   22.9746 C   0  0  2  0  0  0  0  0  0  0  0  0
    9.8299  -17.8275   22.6193 N   0  0  0  0  0  0  0  0  0  0  0  0
   11.1888  -16.6933   24.3204 C   0  0  0  0  0  0  0  0  0  0  0  0
   12.3418  -16.3597   24.6324 O   0  0  0  0  0  0  0  0  0  0  0  0
    9.0621  -13.6520   21.3160 C   0  0  0  0  0  0  0  0  0  0  0  0
    8.8557  -13.1149   20.0729 C   0  0  0  0  0  0  0  0  0  0  0  0
   10.3459  -17.1451   25.3986 N   0  0  0  0  0  0  0  0  0  0  0  0
   10.8309  -17.1298   26.7739 C   0  0  1  0  0  0  0  0  0  0  0  0
    9.7072  -16.5620   27.6199 C   0  0  0  0  0  0  0  0  0  0  0  0
    9.5228  -15.1105   27.4651 C   0  0  0  0  0  0  0  0  0  0  0  0
    8.3286  -14.5578   27.0601 C   0  0  0  0  0  0  0  0  0  0  0  0
    8.1586  -13.1953   26.9248 C   0  0  0  0  0  0  0  0  0  0  0  0
    9.1943  -12.3215   27.1940 C   0  0  0  0  0  0  0  0  0  0  0  0
   10.3888  -12.8674   27.5985 C   0  0  0  0  0  0  0  0  0  0  0  0
   10.5787  -14.2318   27.7404 C   0  0  0  0  0  0  0  0  0  0  0  0
   11.1136  -18.5035   27.2085 C   0  0  0  0  0  0  0  0  0  0  0  0
   10.8717  -19.5669   26.3674 O   0  0  0  0  0  0  0  0  0  0  0  0
   11.5762  -18.7111   28.3483 O   0  0  0  0  0  0  0  0  0  0  0  0
  2  1  1  1
  3  4  1  0
  3  2  1  0
  4  5  2  0
  6  5  1  0
  7  6  1  0
  8  7  2  0
  9  8  1  0
 10  9  2  0
 10 11  1  0
 11 12  2  0
 12  7  1  0
 12  4  1  0
 13  2  1  0
 14 13  2  0
 15 16  1  0
 16 17  2  0
 17 18  1  0
 19 20  1  0
 19 18  2  0
 21 20  1  1
 21 22  1  0
 21 23  1  0
 22 13  1  0
 23 27  1  0
 23 24  2  0
 25 19  1  0
 26 25  2  0
 26 16  1  0
 27 28  1  0
 28 29  1  1
 29 30  1  0
 30 35  1  0
 30 31  2  0
 31 32  1  0
 32 33  2  0
 34 33  1  0
 35 34  2  0
 36 28  1  0
 36 37  1  0
 38 36  2  0
M  END
$$$$
