WYF.pdb
     RDKit          3D

 38 41  0  0  1  0  0  0  0  0999 V2000
    6.1173  -18.2398   21.4350 N   0  0  0  0  0  0  0  0  0  0  0  0
    7.0016  -17.1341   21.8732 C   0  0  1  0  0  0  0  0  0  0  0  0
    6.3001  -16.5667   23.0910 C   0  0  0  0  0  0  0  0  0  0  0  0
    6.4817  -15.1168   23.2057 C   0  0  0  0  0  0  0  0  0  0  0  0
    6.7258  -14.2178   22.1597 C   0  0  0  0  0  0  0  0  0  0  0  0
    6.8358  -12.9910   22.6891 N   0  0  0  0  0  0  0  0  0  0  0  0
    6.6783  -13.0256   24.0284 C   0  0  0  0  0  0  0  0  0  0  0  0
    6.7020  -12.0545   25.0189 C   0  0  0  0  0  0  0  0  0  0  0  0
    6.5077  -12.3836   26.3439 C   0  0  0  0  0  0  0  0  0  0  0  0
    6.2879  -13.7057   26.6637 C   0  0  0  0  0  0  0  0  0  0  0  0
    6.2633  -14.6726   25.6825 C   0  0  0  0  0  0  0  0  0  0  0  0
    6.4593  -14.3415   24.3466 C   0  0  0  0  0  0  0  0  0  0  0  0
    8.3149  -17.7036   22.2806 C   0  0  0  0  0  0  0  0  0  0  0  0
    8.4179  -18.3843   23.3642 O   0  0  0  0  0  0  0  0  0  0  0  0
    7.6107  -14.0663   16.2033 O   0  0  0  0  0  0  0  0  0  0  0  0
    8.1115  -14.3548   17.4587 C   0  0  0  0  0  0  0  0  0  0  0  0
    9.1955  -15.1858   17.6648 C   0  0  0  0  0  0  0  0  0  0  0  0
    9.6847  -15.4648   18.9310 C   0  0  0  0  0  0  0  0  0  0  0  0
    9.0910  -14.9090   20.0452 C   0  0  0  0  0  0  0  0  0  0  0  0
    9.5120  -15.1293   21.4274 C   0  0  0  0  0  0  0  0  0  0  0  0
   10.3628  -16.4060   21.5939 C   0  0  2  0  0  0  0  0  0  0  0  0
    9.5185  -17.5606   21.5498 N   0  0  0  0  0  0  0  0  0  0  0  0
   11.1523  -16.2423   22.8225 C   0  0  0  0  0  0  0  0  0  0  0  0
   12.0673  -15.4279   23.0161 O   0  0  0  0  0  0  0  0  0  0  0  0
    7.9993  -14.0729   19.8238 C   0  0  0  0  0  0  0  0  0  0  0  0
    7.5175  -13.7988   18.5711 C   0  0  0  0  0  0  0  0  0  0  0  0
   10.8367  -17.1152   23.9250 N   0  0  0  0  0  0  0  0  0  0  0  0
   11.2926  -16.7990   25.2737 C   0  0  1  0  0  0  0  0  0  0  0  0
   10.3693  -15.7151   25.7967 C   0  0  0  0  0  0  0  0  0  0  0  0
   10.5725  -15.3974   27.2190 C   0  0  0  0  0  0  0  0  0  0  0  0
    9.8312  -14.4400   27.8740 C   0  0  0  0  0  0  0  0  0  0  0  0
   10.0203  -14.1520   29.2101 C   0  0  0  0  0  0  0  0  0  0  0  0
   10.9738  -14.8223   29.9517 C   0  0  0  0  0  0  0  0  0  0  0  0
   11.7170  -15.7790   29.3031 C   0  0  0  0  0  0  0  0  0  0  0  0
   11.5418  -16.0824   27.9633 C   0  0  0  0  0  0  0  0  0  0  0  0
   11.1677  -17.9892   26.1243 C   0  0  0  0  0  0  0  0  0  0  0  0
   11.9658  -18.1410   27.2364 O   0  0  0  0  0  0  0  0  0  0  0  0
   10.3328  -18.8713   25.8390 O   0  0  0  0  0  0  0  0  0  0  0  0
  2  1  1  1
  3  4  1  0
  3  2  1  0
  4  5  2  0
  6  5  1  0
  7  6  1  0
  8  7  2  0
  9  8  1  0
 10  9  2  0
 10 11  1  0
 11 12  2  0
 12  7  1  0
 12  4  1  0
 13  2  1  0
 14 13  2  0
 15 16  1  0
 16 17  2  0
 17 18  1  0
 19 20  1  0
 19 18  2  0
 21 20  1  1
 21 22  1  0
 21 23  1  0
 22 13  1  0
 23 27  1  0
 23 24  2  0
 25 19  1  0
 26 25  2  0
 26 16  1  0
 27 28  1  0
 28 29  1  1
 29 30  1  0
 30 35  1  0
 30 31  2  0
 31 32  1  0
 32 33  2  0
 34 33  1  0
 35 34  2  0
 36 28  1  0
 36 37  1  0
 38 36  2  0
M  END
$$$$
