QTR.pdb
     RDKit          3D

 28 27  0  0  1  0  0  0  0  0999 V2000
   13.7662  -13.7308   18.5076 N   0  0  0  0  0  0  0  0  0  0  0  0
   13.0398  -14.8707   19.0284 C   0  0  0  0  0  0  0  0  0  0  0  0
   13.7734  -15.8690   19.2486 O   0  0  0  0  0  0  0  0  0  0  0  0
   11.5895  -14.8018   19.2570 C   0  0  0  0  0  0  0  0  0  0  0  0
   10.8569  -13.7062   18.5898 C   0  0  0  0  0  0  0  0  0  0  0  0
    9.3748  -13.7057   18.6878 C   0  0  2  0  0  0  0  0  0  0  0  0
    8.7294  -12.5468   18.1316 N   0  0  0  0  0  0  0  0  0  0  0  0
    8.8939  -13.8663   20.0922 C   0  0  0  0  0  0  0  0  0  0  0  0
    8.1822  -12.9757   20.6272 O   0  0  0  0  0  0  0  0  0  0  0  0
    6.5062  -14.1578   21.1189 C   0  0  0  0  0  0  0  0  0  0  0  0
    7.0358  -15.3829   21.7971 C   0  0  1  0  0  0  0  0  0  0  0  0
    6.7673  -16.4715   20.9575 O   0  0  0  0  0  0  0  0  0  0  0  0
    8.5090  -15.2897   22.1396 C   0  0  2  0  0  0  0  0  0  0  0  0
    9.1922  -14.9921   20.8967 N   0  0  0  0  0  0  0  0  0  0  0  0
    9.0163  -16.5141   22.7824 C   0  0  0  0  0  0  0  0  0  0  0  0
    9.4790  -17.4836   22.1162 O   0  0  0  0  0  0  0  0  0  0  0  0
    9.9907  -14.8957   31.0424 N   0  0  0  0  0  0  0  0  0  0  0  0
   10.6138  -14.5585   29.8174 C   0  0  0  0  0  0  0  0  0  0  0  0
   10.6967  -13.3264   29.4717 N   0  0  0  0  0  0  0  0  0  0  0  0
   11.1674  -15.5155   28.9273 N   0  0  0  0  0  0  0  0  0  0  0  0
   10.3426  -16.5399   28.3898 C   0  0  0  0  0  0  0  0  0  0  0  0
   10.4087  -16.6529   26.8770 C   0  0  0  0  0  0  0  0  0  0  0  0
    9.5070  -17.7023   26.3421 C   0  0  0  0  0  0  0  0  0  0  0  0
    9.6265  -17.8557   24.8474 C   0  0  2  0  0  0  0  0  0  0  0  0
    9.0157  -16.6791   24.1905 N   0  0  0  0  0  0  0  0  0  0  0  0
    8.8436  -19.0256   24.4133 C   0  0  0  0  0  0  0  0  0  0  0  0
    9.2984  -20.3267   24.3821 O   0  0  0  0  0  0  0  0  0  0  0  0
    7.6541  -18.8543   24.0302 O   0  0  0  0  0  0  0  0  0  0  0  0
  2  3  2  0
  2  1  1  0
  4  2  1  0
  5  4  1  0
  6  5  1  0
  6  7  1  1
  8 14  1  0
  8  6  1  0
  9  8  2  0
 11 10  1  6
 12 11  1  0
 13 11  1  0
 13 14  1  6
 15 13  1  0
 16 15  2  0
 18 17  1  0
 18 19  2  0
 20 18  1  0
 21 20  1  0
 22 21  1  0
 23 22  1  0
 24 23  1  1
 24 25  1  0
 25 15  1  0
 26 24  1  0
 26 27  1  0
 28 26  2  0
M  END
$$$$
