QTR.pdb
     RDKit          3D

 28 27  0  0  1  0  0  0  0  0999 V2000
   11.7448  -18.1221   13.8564 N   0  0  0  0  0  0  0  0  0  0  0  0
   10.5211  -18.5881   13.2371 C   0  0  0  0  0  0  0  0  0  0  0  0
   10.0970  -17.8199   12.3352 O   0  0  0  0  0  0  0  0  0  0  0  0
    9.8891  -19.8443   13.6646 C   0  0  0  0  0  0  0  0  0  0  0  0
    8.9949  -19.7794   14.8387 C   0  0  0  0  0  0  0  0  0  0  0  0
    8.2556  -21.0120   15.2134 C   0  0  2  0  0  0  0  0  0  0  0  0
    7.7861  -21.7995   14.1051 N   0  0  0  0  0  0  0  0  0  0  0  0
    7.0886  -20.7320   16.1016 C   0  0  0  0  0  0  0  0  0  0  0  0
    5.9984  -20.3330   15.6135 O   0  0  0  0  0  0  0  0  0  0  0  0
    5.1596  -22.9619   17.6481 C   0  0  0  0  0  0  0  0  0  0  0  0
    5.5191  -22.0688   18.7945 C   0  0  1  0  0  0  0  0  0  0  0  0
    6.5085  -22.7248   19.5379 O   0  0  0  0  0  0  0  0  0  0  0  0
    5.9674  -20.6875   18.3614 C   0  0  2  0  0  0  0  0  0  0  0  0
    7.1211  -20.8890   17.5079 N   0  0  0  0  0  0  0  0  0  0  0  0
    6.2592  -19.8060   19.5048 C   0  0  0  0  0  0  0  0  0  0  0  0
    7.4393  -19.4866   19.8264 O   0  0  0  0  0  0  0  0  0  0  0  0
   -1.0365  -19.3974   22.5020 N   0  0  0  0  0  0  0  0  0  0  0  0
   -0.0340  -20.3957   22.5344 C   0  0  0  0  0  0  0  0  0  0  0  0
   -0.3335  -21.5991   22.2078 N   0  0  0  0  0  0  0  0  0  0  0  0
    1.3115  -20.1468   22.9110 N   0  0  0  0  0  0  0  0  0  0  0  0
    2.0716  -19.1711   22.2117 C   0  0  0  0  0  0  0  0  0  0  0  0
    3.4786  -18.9843   22.7512 C   0  0  0  0  0  0  0  0  0  0  0  0
    4.2174  -17.9006   22.0583 C   0  0  0  0  0  0  0  0  0  0  0  0
    5.5191  -18.3788   21.4674 C   0  0  2  0  0  0  0  0  0  0  0  0
    5.2314  -19.2615   20.3155 N   0  0  0  0  0  0  0  0  0  0  0  0
    6.2285  -19.2073   22.4574 C   0  0  0  0  0  0  0  0  0  0  0  0
    7.0198  -18.7306   23.4808 O   0  0  0  0  0  0  0  0  0  0  0  0
    6.1245  -20.4624   22.3878 O   0  0  0  0  0  0  0  0  0  0  0  0
  2  3  2  0
  2  1  1  0
  4  2  1  0
  5  4  1  0
  6  5  1  0
  6  7  1  6
  8 14  1  0
  8  6  1  0
  9  8  2  0
 11 10  1  6
 12 11  1  0
 13 11  1  0
 13 14  1  6
 15 13  1  0
 16 15  2  0
 18 17  1  0
 18 19  2  0
 20 18  1  0
 21 20  1  0
 22 21  1  0
 23 22  1  0
 24 23  1  1
 24 25  1  0
 25 15  1  0
 26 24  1  0
 26 27  1  0
 28 26  2  0
M  END
$$$$
