QTR.pdb
     RDKit          3D

 28 27  0  0  1  0  0  0  0  0999 V2000
    7.7419  -13.9859   16.4534 N   0  0  0  0  0  0  0  0  0  0  0  0
    8.5026  -14.6246   15.3990 C   0  0  0  0  0  0  0  0  0  0  0  0
    8.6947  -13.8791   14.4037 O   0  0  0  0  0  0  0  0  0  0  0  0
    8.9762  -16.0087   15.5414 C   0  0  0  0  0  0  0  0  0  0  0  0
    8.7027  -16.6819   16.8275 C   0  0  0  0  0  0  0  0  0  0  0  0
    9.4438  -16.2108   18.0255 C   0  0  2  0  0  0  0  0  0  0  0  0
   10.8737  -16.1648   17.8763 N   0  0  0  0  0  0  0  0  0  0  0  0
    9.1374  -17.0192   19.2428 C   0  0  0  0  0  0  0  0  0  0  0  0
    7.9446  -17.2866   19.5458 O   0  0  0  0  0  0  0  0  0  0  0  0
   10.0951  -20.4662   20.1085 C   0  0  0  0  0  0  0  0  0  0  0  0
   10.5958  -19.5781   21.2047 C   0  0  1  0  0  0  0  0  0  0  0  0
   11.9594  -19.3584   20.9715 O   0  0  0  0  0  0  0  0  0  0  0  0
    9.8301  -18.2753   21.3185 C   0  0  2  0  0  0  0  0  0  0  0  0
   10.1304  -17.5266   20.1146 N   0  0  0  0  0  0  0  0  0  0  0  0
   10.1653  -17.5303   22.5441 C   0  0  0  0  0  0  0  0  0  0  0  0
   11.2031  -16.8143   22.6356 O   0  0  0  0  0  0  0  0  0  0  0  0
    9.0101  -14.0961   21.2871 N   0  0  0  0  0  0  0  0  0  0  0  0
    7.7713  -13.4718   21.5674 C   0  0  0  0  0  0  0  0  0  0  0  0
    7.0214  -13.0977   20.5968 N   0  0  0  0  0  0  0  0  0  0  0  0
    7.2927  -13.2291   22.8813 N   0  0  0  0  0  0  0  0  0  0  0  0
    7.2716  -14.2852   23.8315 C   0  0  0  0  0  0  0  0  0  0  0  0
    8.6446  -14.6732   24.3510 C   0  0  0  0  0  0  0  0  0  0  0  0
    8.6034  -15.8516   25.2510 C   0  0  0  0  0  0  0  0  0  0  0  0
    9.6896  -16.8498   24.9414 C   0  0  2  0  0  0  0  0  0  0  0  0
    9.3421  -17.5718   23.6976 N   0  0  0  0  0  0  0  0  0  0  0  0
    9.7388  -17.8634   26.0091 C   0  0  0  0  0  0  0  0  0  0  0  0
   10.2744  -17.6774   27.2658 O   0  0  0  0  0  0  0  0  0  0  0  0
    9.2605  -19.0087   25.7841 O   0  0  0  0  0  0  0  0  0  0  0  0
  2  3  2  0
  2  1  1  0
  4  2  1  0
  5  4  1  0
  6  5  1  0
  6  7  1  6
  8 14  1  0
  8  6  1  0
  9  8  2  0
 11 10  1  6
 12 11  1  0
 13 11  1  0
 13 14  1  6
 15 13  1  0
 16 15  2  0
 18 17  1  0
 18 19  2  0
 20 18  1  0
 21 20  1  0
 22 21  1  0
 23 22  1  0
 24 23  1  1
 24 25  1  0
 25 15  1  0
 26 24  1  0
 26 27  1  0
 28 26  2  0
M  END
$$$$
