QTR.pdb
     RDKit          3D

 28 27  0  0  1  0  0  0  0  0999 V2000
    6.5807  -18.9483   15.1640 N   0  0  0  0  0  0  0  0  0  0  0  0
    6.7303  -17.9414   14.1335 C   0  0  0  0  0  0  0  0  0  0  0  0
    5.6949  -17.7876   13.4352 O   0  0  0  0  0  0  0  0  0  0  0  0
    7.9927  -17.2059   13.9738 C   0  0  0  0  0  0  0  0  0  0  0  0
    8.5223  -16.5157   15.1677 C   0  0  0  0  0  0  0  0  0  0  0  0
    8.0199  -15.1477   15.4548 C   0  0  2  0  0  0  0  0  0  0  0  0
    8.2836  -14.1755   14.4280 N   0  0  0  0  0  0  0  0  0  0  0  0
    8.5433  -14.6044   16.7433 C   0  0  0  0  0  0  0  0  0  0  0  0
    8.9472  -13.4137   16.8149 O   0  0  0  0  0  0  0  0  0  0  0  0
    6.4074  -14.2184   19.4935 C   0  0  0  0  0  0  0  0  0  0  0  0
    7.8045  -13.6884   19.4026 C   0  0  1  0  0  0  0  0  0  0  0  0
    8.0319  -12.9171   20.5496 O   0  0  0  0  0  0  0  0  0  0  0  0
    8.8491  -14.7744   19.2420 C   0  0  2  0  0  0  0  0  0  0  0  0
    8.6208  -15.3614   17.9368 N   0  0  0  0  0  0  0  0  0  0  0  0
    8.7964  -15.7711   20.3253 C   0  0  0  0  0  0  0  0  0  0  0  0
    8.0949  -16.8196   20.2437 O   0  0  0  0  0  0  0  0  0  0  0  0
   12.2008  -20.5400   18.4938 N   0  0  0  0  0  0  0  0  0  0  0  0
   13.1391  -20.6266   19.5496 C   0  0  0  0  0  0  0  0  0  0  0  0
   13.6384  -21.7674   19.8558 N   0  0  0  0  0  0  0  0  0  0  0  0
   13.5753  -19.5086   20.3074 N   0  0  0  0  0  0  0  0  0  0  0  0
   13.2542  -18.1938   19.8750 C   0  0  0  0  0  0  0  0  0  0  0  0
   11.8101  -17.7984   20.1277 C   0  0  0  0  0  0  0  0  0  0  0  0
   11.6883  -16.5029   20.8400 C   0  0  0  0  0  0  0  0  0  0  0  0
   10.6262  -16.5323   21.9092 C   0  0  2  0  0  0  0  0  0  0  0  0
    9.5310  -15.6138   21.5277 N   0  0  0  0  0  0  0  0  0  0  0  0
   11.1864  -16.0095   23.1672 C   0  0  0  0  0  0  0  0  0  0  0  0
   11.8153  -16.7609   24.1371 O   0  0  0  0  0  0  0  0  0  0  0  0
   11.0966  -14.7744   23.4070 O   0  0  0  0  0  0  0  0  0  0  0  0
  2  3  2  0
  2  1  1  0
  4  2  1  0
  5  4  1  0
  6  5  1  0
  6  7  1  6
  8 14  1  0
  8  6  1  0
  9  8  2  0
 11 10  1  1
 12 11  1  0
 13 11  1  0
 13 14  1  6
 15 13  1  0
 16 15  2  0
 18 17  1  0
 18 19  2  0
 20 18  1  0
 21 20  1  0
 22 21  1  0
 23 22  1  0
 24 23  1  6
 24 25  1  0
 25 15  1  0
 26 24  1  0
 26 27  1  0
 28 26  2  0
M  END
$$$$
