QTR.pdb
     RDKit          3D

 28 27  0  0  1  0  0  0  0  0999 V2000
   11.1139  -16.7861   12.9224 N   0  0  0  0  0  0  0  0  0  0  0  0
    9.7967  -16.1949   12.8045 C   0  0  0  0  0  0  0  0  0  0  0  0
    9.2663  -16.3841   11.6793 O   0  0  0  0  0  0  0  0  0  0  0  0
    9.1949  -15.4613   13.9270 C   0  0  0  0  0  0  0  0  0  0  0  0
    9.9701  -15.4042   15.1833 C   0  0  0  0  0  0  0  0  0  0  0  0
    9.4525  -16.1642   16.3498 C   0  0  2  0  0  0  0  0  0  0  0  0
    8.0492  -16.4754   16.2982 N   0  0  0  0  0  0  0  0  0  0  0  0
    9.7199  -15.4745   17.6467 C   0  0  0  0  0  0  0  0  0  0  0  0
   10.8889  -15.1154   17.9476 O   0  0  0  0  0  0  0  0  0  0  0  0
    7.4274  -12.7700   19.3248 C   0  0  0  0  0  0  0  0  0  0  0  0
    7.7712  -13.8432   20.3103 C   0  0  1  0  0  0  0  0  0  0  0  0
    6.6387  -14.6551   20.4527 O   0  0  0  0  0  0  0  0  0  0  0  0
    8.9927  -14.6496   19.9176 C   0  0  2  0  0  0  0  0  0  0  0  0
    8.7144  -15.1840   18.5995 N   0  0  0  0  0  0  0  0  0  0  0  0
    9.3110  -15.7027   20.8970 C   0  0  0  0  0  0  0  0  0  0  0  0
    9.5149  -16.9025   20.5552 O   0  0  0  0  0  0  0  0  0  0  0  0
   14.0026  -20.0853   24.5217 N   0  0  0  0  0  0  0  0  0  0  0  0
   14.7493  -19.3294   23.5869 C   0  0  0  0  0  0  0  0  0  0  0  0
   15.7088  -19.8903   22.9471 N   0  0  0  0  0  0  0  0  0  0  0  0
   14.4992  -17.9615   23.3029 N   0  0  0  0  0  0  0  0  0  0  0  0
   13.5804  -17.2308   24.1032 C   0  0  0  0  0  0  0  0  0  0  0  0
   12.1241  -17.5497   23.8150 C   0  0  0  0  0  0  0  0  0  0  0  0
   11.4733  -16.5274   22.9596 C   0  0  0  0  0  0  0  0  0  0  0  0
    9.9974  -16.3999   23.2378 C   0  0  2  0  0  0  0  0  0  0  0  0
    9.4079  -15.4331   22.2855 N   0  0  0  0  0  0  0  0  0  0  0  0
    9.8022  -15.8294   24.5818 C   0  0  0  0  0  0  0  0  0  0  0  0
    9.8259  -16.5384   25.7639 O   0  0  0  0  0  0  0  0  0  0  0  0
    9.5914  -14.5907   24.6929 O   0  0  0  0  0  0  0  0  0  0  0  0
  2  3  2  0
  2  1  1  0
  4  2  1  0
  5  4  1  0
  6  5  1  0
  6  7  1  6
  8 14  1  0
  8  6  1  0
  9  8  2  0
 11 10  1  6
 12 11  1  0
 13 11  1  0
 13 14  1  6
 15 13  1  0
 16 15  2  0
 18 17  1  0
 18 19  2  0
 20 18  1  0
 21 20  1  0
 22 21  1  0
 23 22  1  0
 24 23  1  6
 24 25  1  0
 25 15  1  0
 26 24  1  0
 26 27  1  0
 28 26  2  0
M  END
$$$$
