QTR.pdb
     RDKit          3D

 28 27  0  0  1  0  0  0  0  0999 V2000
   17.5709  -16.1831   13.6167 N   0  0  0  0  0  0  0  0  0  0  0  0
   16.3109  -15.8981   12.9613 C   0  0  0  0  0  0  0  0  0  0  0  0
   16.3021  -14.7923   12.3611 O   0  0  0  0  0  0  0  0  0  0  0  0
   15.1931  -16.8502   13.0271 C   0  0  0  0  0  0  0  0  0  0  0  0
   15.4312  -18.1149   13.7524 C   0  0  0  0  0  0  0  0  0  0  0  0
   14.3397  -19.1223   13.7619 C   0  0  2  0  0  0  0  0  0  0  0  0
   13.1704  -18.7585   13.0074 N   0  0  0  0  0  0  0  0  0  0  0  0
   13.8996  -19.4764   15.1439 C   0  0  0  0  0  0  0  0  0  0  0  0
   12.6941  -19.3411   15.4825 O   0  0  0  0  0  0  0  0  0  0  0  0
   14.7776  -21.9731   19.2942 C   0  0  0  0  0  0  0  0  0  0  0  0
   15.0435  -21.5572   17.8809 C   0  0  1  0  0  0  0  0  0  0  0  0
   14.6473  -22.6164   17.0544 O   0  0  0  0  0  0  0  0  0  0  0  0
   14.3580  -20.2612   17.4977 C   0  0  2  0  0  0  0  0  0  0  0  0
   14.7744  -19.9729   16.1399 N   0  0  0  0  0  0  0  0  0  0  0  0
   14.6699  -19.1627   18.4281 C   0  0  0  0  0  0  0  0  0  0  0  0
   15.7591  -18.5233   18.3760 O   0  0  0  0  0  0  0  0  0  0  0  0
   10.2978  -18.5224   22.9364 N   0  0  0  0  0  0  0  0  0  0  0  0
   11.0692  -18.2320   24.0868 C   0  0  0  0  0  0  0  0  0  0  0  0
   11.0987  -19.0738   25.0537 N   0  0  0  0  0  0  0  0  0  0  0  0
   11.8310  -17.0447   24.2434 N   0  0  0  0  0  0  0  0  0  0  0  0
   11.9229  -16.1180   23.1703 C   0  0  0  0  0  0  0  0  0  0  0  0
   13.1174  -16.3460   22.2610 C   0  0  0  0  0  0  0  0  0  0  0  0
   12.9329  -17.5056   21.3545 C   0  0  0  0  0  0  0  0  0  0  0  0
   14.0935  -17.6875   20.4101 C   0  0  2  0  0  0  0  0  0  0  0  0
   13.7647  -18.7557   19.4406 N   0  0  0  0  0  0  0  0  0  0  0  0
   15.2669  -18.1598   21.1651 C   0  0  0  0  0  0  0  0  0  0  0  0
   16.4330  -17.4503   21.3590 O   0  0  0  0  0  0  0  0  0  0  0  0
   15.2330  -19.3070   21.6883 O   0  0  0  0  0  0  0  0  0  0  0  0
  2  3  2  0
  2  1  1  0
  4  2  1  0
  5  4  1  0
  6  5  1  0
  6  7  1  6
  8 14  1  0
  8  6  1  0
  9  8  2  0
 11 10  1  1
 12 11  1  0
 13 11  1  0
 13 14  1  6
 15 13  1  0
 16 15  2  0
 18 17  1  0
 18 19  2  0
 20 18  1  0
 21 20  1  0
 22 21  1  0
 23 22  1  0
 24 23  1  1
 24 25  1  0
 25 15  1  0
 26 24  1  0
 26 27  1  0
 28 26  2  0
M  END
$$$$
