QTR.pdb
     RDKit          3D

 28 27  0  0  1  0  0  0  0  0999 V2000
   11.0922  -18.5164   15.1455 N   0  0  0  0  0  0  0  0  0  0  0  0
   11.4846  -17.1480   14.8777 C   0  0  0  0  0  0  0  0  0  0  0  0
   12.6306  -17.0505   14.3674 O   0  0  0  0  0  0  0  0  0  0  0  0
   10.5849  -16.0290   15.1923 C   0  0  0  0  0  0  0  0  0  0  0  0
    9.2004  -16.3699   15.5784 C   0  0  0  0  0  0  0  0  0  0  0  0
    8.2942  -15.2556   15.9570 C   0  0  2  0  0  0  0  0  0  0  0  0
    8.1043  -14.2550   14.9413 N   0  0  0  0  0  0  0  0  0  0  0  0
    8.7300  -14.5622   17.2054 C   0  0  0  0  0  0  0  0  0  0  0  0
    8.8254  -13.3068   17.2362 O   0  0  0  0  0  0  0  0  0  0  0  0
    7.6941  -12.8179   18.6884 C   0  0  0  0  0  0  0  0  0  0  0  0
    7.9454  -13.7286   19.8497 C   0  0  1  0  0  0  0  0  0  0  0  0
    6.7979  -14.5142   20.0176 O   0  0  0  0  0  0  0  0  0  0  0  0
    9.1882  -14.5803   19.6865 C   0  0  2  0  0  0  0  0  0  0  0  0
    9.0564  -15.2414   18.4036 N   0  0  0  0  0  0  0  0  0  0  0  0
    9.3678  -15.5327   20.7956 C   0  0  0  0  0  0  0  0  0  0  0  0
    9.2056  -16.7777   20.6485 O   0  0  0  0  0  0  0  0  0  0  0  0
   14.8773  -14.3391   20.7239 N   0  0  0  0  0  0  0  0  0  0  0  0
   14.4887  -15.2759   19.7370 C   0  0  0  0  0  0  0  0  0  0  0  0
   14.5662  -14.9536   18.4982 N   0  0  0  0  0  0  0  0  0  0  0  0
   14.0101  -16.5785   20.0346 N   0  0  0  0  0  0  0  0  0  0  0  0
   13.7175  -16.9333   21.3789 C   0  0  0  0  0  0  0  0  0  0  0  0
   12.2334  -16.9600   21.6992 C   0  0  0  0  0  0  0  0  0  0  0  0
   11.8698  -16.0370   22.8020 C   0  0  0  0  0  0  0  0  0  0  0  0
   10.3864  -16.0157   23.0684 C   0  0  2  0  0  0  0  0  0  0  0  0
    9.7342  -15.1091   22.0981 N   0  0  0  0  0  0  0  0  0  0  0  0
   10.1389  -15.4423   24.4025 C   0  0  0  0  0  0  0  0  0  0  0  0
   10.2942  -16.1061   25.6009 O   0  0  0  0  0  0  0  0  0  0  0  0
    9.7490  -14.2458   24.4884 O   0  0  0  0  0  0  0  0  0  0  0  0
  2  3  2  0
  2  1  1  0
  4  2  1  0
  5  4  1  0
  6  5  1  0
  6  7  1  6
  8 14  1  0
  8  6  1  0
  9  8  2  0
 11 10  1  6
 12 11  1  0
 13 11  1  0
 13 14  1  6
 15 13  1  0
 16 15  2  0
 18 17  1  0
 18 19  2  0
 20 18  1  0
 21 20  1  0
 22 21  1  0
 23 22  1  0
 24 23  1  6
 24 25  1  0
 25 15  1  0
 26 24  1  0
 26 27  1  0
 28 26  2  0
M  END
$$$$
