SIR.pdb
     RDKit          3D

 26 25  0  0  1  0  0  0  0  0999 V2000
   23.7073  -15.0086  -15.1339 O   0  0  0  0  0  0  0  0  0  0  0  0
   25.0750  -14.7471  -15.0791 C   0  0  0  0  0  0  0  0  0  0  0  0
   25.7656  -15.6600  -16.0647 C   0  0  2  0  0  0  0  0  0  0  0  0
   25.3019  -15.3379  -17.3907 N   0  0  0  0  0  0  0  0  0  0  0  0
   25.4546  -17.0972  -15.7829 C   0  0  0  0  0  0  0  0  0  0  0  0
   24.5406  -17.6033  -16.4656 O   0  0  0  0  0  0  0  0  0  0  0  0
   28.6250  -22.0960  -15.0186 C   0  0  0  0  0  0  0  0  0  0  0  0
   27.2988  -21.4429  -14.7340 C   0  0  0  0  0  0  0  0  0  0  0  0
   27.3834  -19.9332  -14.9273 C   0  0  2  0  0  0  0  0  0  0  0  0
   28.4591  -19.3876  -13.9856 C   0  0  0  0  0  0  0  0  0  0  0  0
   26.0675  -19.2752  -14.6093 C   0  0  2  0  0  0  0  0  0  0  0  0
   26.1338  -17.8360  -14.8225 N   0  0  0  0  0  0  0  0  0  0  0  0
   25.6826  -19.5045  -13.2017 C   0  0  0  0  0  0  0  0  0  0  0  0
   26.4000  -18.9460  -12.2745 O   0  0  0  0  0  0  0  0  0  0  0  0
   18.3752  -19.8476   -9.9982 N   0  0  0  0  0  0  0  0  0  0  0  0
   19.1245  -20.2143  -11.1477 C   0  0  0  0  0  0  0  0  0  0  0  0
   18.6824  -20.0143  -12.3521 N   0  0  0  0  0  0  0  0  0  0  0  0
   20.3893  -20.8149  -10.9612 N   0  0  0  0  0  0  0  0  0  0  0  0
   21.0133  -20.9155   -9.6458 C   0  0  0  0  0  0  0  0  0  0  0  0
   22.4948  -20.5191   -9.7876 C   0  0  0  0  0  0  0  0  0  0  0  0
   23.0930  -21.0956  -11.0149 C   0  0  0  0  0  0  0  0  0  0  0  0
   24.4548  -20.5182  -11.2798 C   0  0  2  0  0  0  0  0  0  0  0  0
   24.5988  -20.2705  -12.7345 N   0  0  0  0  0  0  0  0  0  0  0  0
   25.5783  -21.3596  -10.8128 C   0  0  0  0  0  0  0  0  0  0  0  0
   26.1643  -21.1573   -9.5458 O   0  0  0  0  0  0  0  0  0  0  0  0
   26.0741  -22.2885  -11.4980 O   0  0  0  0  0  0  0  0  0  0  0  0
  2  1  1  0
  3  2  1  0
  3  4  1  6
  5  3  1  0
  6  5  2  0
  7  8  1  0
  8  9  1  0
  9 10  1  1
  9 11  1  0
 11 12  1  1
 12  5  1  0
 13 11  1  0
 13 14  2  0
 16 15  1  0
 17 16  2  0
 18 16  1  0
 19 18  1  0
 20 21  1  0
 20 19  1  0
 22 21  1  6
 22 23  1  0
 23 13  1  0
 24 22  1  0
 25 24  1  0
 26 24  2  0
M  END
$$$$
