SIR.pdb
     RDKit          3D

 26 25  0  0  1  0  0  0  0  0999 V2000
   29.6501  -18.8317  -12.6904 O   0  0  0  0  0  0  0  0  0  0  0  0
   29.8467  -20.2054  -12.5629 C   0  0  0  0  0  0  0  0  0  0  0  0
   30.5365  -20.4586  -11.2430 C   0  0  2  0  0  0  0  0  0  0  0  0
   31.5233  -21.4918  -11.4321 N   0  0  0  0  0  0  0  0  0  0  0  0
   29.5623  -20.9100  -10.1996 C   0  0  0  0  0  0  0  0  0  0  0  0
   29.3408  -22.1373  -10.1521 O   0  0  0  0  0  0  0  0  0  0  0  0
   29.1552  -20.7149   -5.8461 C   0  0  0  0  0  0  0  0  0  0  0  0
   28.9681  -19.3354   -6.4190 C   0  0  0  0  0  0  0  0  0  0  0  0
   27.7455  -19.2852   -7.3281 C   0  0  2  0  0  0  0  0  0  0  0  0
   26.5030  -19.5593   -6.4781 C   0  0  0  0  0  0  0  0  0  0  0  0
   27.8399  -20.3221   -8.4151 C   0  0  2  0  0  0  0  0  0  0  0  0
   28.9346  -20.0278   -9.3294 N   0  0  0  0  0  0  0  0  0  0  0  0
   26.5946  -20.3793   -9.2075 C   0  0  0  0  0  0  0  0  0  0  0  0
   26.0257  -19.2578   -9.5314 O   0  0  0  0  0  0  0  0  0  0  0  0
   23.7765  -25.7959  -15.6752 N   0  0  0  0  0  0  0  0  0  0  0  0
   22.9144  -24.6670  -15.6744 C   0  0  0  0  0  0  0  0  0  0  0  0
   21.9508  -24.5343  -16.5346 N   0  0  0  0  0  0  0  0  0  0  0  0
   23.1226  -23.6639  -14.7020 N   0  0  0  0  0  0  0  0  0  0  0  0
   24.0966  -23.8174  -13.6262 C   0  0  0  0  0  0  0  0  0  0  0  0
   24.0207  -22.5671  -12.7301 C   0  0  0  0  0  0  0  0  0  0  0  0
   25.0493  -22.6037  -11.6637 C   0  0  0  0  0  0  0  0  0  0  0  0
   24.9296  -21.4160  -10.7509 C   0  0  2  0  0  0  0  0  0  0  0  0
   25.9383  -21.5345   -9.6708 N   0  0  0  0  0  0  0  0  0  0  0  0
   23.5891  -21.2368  -10.1515 C   0  0  0  0  0  0  0  0  0  0  0  0
   22.5663  -20.5533  -10.8417 O   0  0  0  0  0  0  0  0  0  0  0  0
   23.2798  -21.6709   -9.0140 O   0  0  0  0  0  0  0  0  0  0  0  0
  2  1  1  0
  3  2  1  0
  3  4  1  6
  5  3  1  0
  6  5  2  0
  7  8  1  0
  8  9  1  0
  9 10  1  1
  9 11  1  0
 11 12  1  6
 12  5  1  0
 13 11  1  0
 13 14  2  0
 16 15  1  0
 17 16  2  0
 18 16  1  0
 19 18  1  0
 20 21  1  0
 20 19  1  0
 22 21  1  1
 22 23  1  0
 23 13  1  0
 24 22  1  0
 25 24  1  0
 26 24  2  0
M  END
$$$$
