SIR.pdb
     RDKit          3D

 26 25  0  0  1  0  0  0  0  0999 V2000
   16.3714   -9.6507  -17.7020 O   0  0  0  0  0  0  0  0  0  0  0  0
   16.4935   -9.5510  -16.3173 C   0  0  0  0  0  0  0  0  0  0  0  0
   17.7384  -10.2992  -15.9024 C   0  0  2  0  0  0  0  0  0  0  0  0
   17.5108  -11.7095  -16.0933 N   0  0  0  0  0  0  0  0  0  0  0  0
   18.0627  -10.0558  -14.4612 C   0  0  0  0  0  0  0  0  0  0  0  0
   17.5017  -10.8090  -13.6393 O   0  0  0  0  0  0  0  0  0  0  0  0
   23.1808   -9.1458  -13.1419 C   0  0  0  0  0  0  0  0  0  0  0  0
   21.7307   -9.5501  -13.1375 C   0  0  0  0  0  0  0  0  0  0  0  0
   20.8460   -8.3973  -12.6770 C   0  0  2  0  0  0  0  0  0  0  0  0
   21.2503   -8.0215  -11.2498 C   0  0  0  0  0  0  0  0  0  0  0  0
   19.3940   -8.7938  -12.6916 C   0  0  2  0  0  0  0  0  0  0  0  0
   18.9337   -9.0556  -14.0482 N   0  0  0  0  0  0  0  0  0  0  0  0
   18.5437   -7.7267  -12.1257 C   0  0  0  0  0  0  0  0  0  0  0  0
   18.5336   -6.5737  -12.7231 O   0  0  0  0  0  0  0  0  0  0  0  0
   11.5474   -7.7459   -7.0795 N   0  0  0  0  0  0  0  0  0  0  0  0
   12.5373   -6.8705   -6.5587 C   0  0  0  0  0  0  0  0  0  0  0  0
   12.4893   -6.4209   -5.3415 N   0  0  0  0  0  0  0  0  0  0  0  0
   13.6027   -6.4844   -7.4020 N   0  0  0  0  0  0  0  0  0  0  0  0
   13.4806   -6.4875   -8.8562 C   0  0  0  0  0  0  0  0  0  0  0  0
   14.8149   -5.9978   -9.4494 C   0  0  0  0  0  0  0  0  0  0  0  0
   15.6387   -7.1306   -9.9335 C   0  0  0  0  0  0  0  0  0  0  0  0
   16.8998   -6.6449  -10.5907 C   0  0  2  0  0  0  0  0  0  0  0  0
   17.7168   -7.8156  -10.9907 N   0  0  0  0  0  0  0  0  0  0  0  0
   17.7176   -5.7403   -9.7533 C   0  0  0  0  0  0  0  0  0  0  0  0
   17.6196   -4.3390   -9.8819 O   0  0  0  0  0  0  0  0  0  0  0  0
   18.5352   -6.1504   -8.8923 O   0  0  0  0  0  0  0  0  0  0  0  0
  2  1  1  0
  3  2  1  0
  3  4  1  1
  5  3  1  0
  6  5  2  0
  7  8  1  0
  8  9  1  0
  9 10  1  1
  9 11  1  0
 11 12  1  6
 12  5  1  0
 13 11  1  0
 13 14  2  0
 16 15  1  0
 17 16  2  0
 18 16  1  0
 19 18  1  0
 20 21  1  0
 20 19  1  0
 22 21  1  1
 22 23  1  0
 23 13  1  0
 24 22  1  0
 25 24  1  0
 26 24  2  0
M  END
$$$$
