SIR.pdb
     RDKit          3D

 26 25  0  0  1  0  0  0  0  0999 V2000
   19.1504  -14.2917  -13.7215 O   0  0  0  0  0  0  0  0  0  0  0  0
   20.0774  -15.0998  -14.3769 C   0  0  0  0  0  0  0  0  0  0  0  0
   20.7614  -14.2647  -15.4336 C   0  0  2  0  0  0  0  0  0  0  0  0
   19.7813  -13.8756  -16.4160 N   0  0  0  0  0  0  0  0  0  0  0  0
   21.8464  -15.0372  -16.1174 C   0  0  0  0  0  0  0  0  0  0  0  0
   21.5716  -15.4801  -17.2513 O   0  0  0  0  0  0  0  0  0  0  0  0
   26.4290  -13.4586  -14.7680 C   0  0  0  0  0  0  0  0  0  0  0  0
   25.9885  -14.3212  -15.9203 C   0  0  0  0  0  0  0  0  0  0  0  0
   25.4941  -15.6764  -15.4274 C   0  0  2  0  0  0  0  0  0  0  0  0
   26.5462  -16.7296  -15.7812 C   0  0  0  0  0  0  0  0  0  0  0  0
   24.1882  -16.0430  -16.0801 C   0  0  2  0  0  0  0  0  0  0  0  0
   23.0895  -15.2561  -15.5372 N   0  0  0  0  0  0  0  0  0  0  0  0
   23.8678  -17.4694  -15.8685 C   0  0  0  0  0  0  0  0  0  0  0  0
   23.4726  -17.8370  -14.6874 O   0  0  0  0  0  0  0  0  0  0  0  0
   18.4151  -23.2905  -14.3363 N   0  0  0  0  0  0  0  0  0  0  0  0
   19.3074  -22.7690  -13.3620 C   0  0  0  0  0  0  0  0  0  0  0  0
   19.3501  -23.2296  -12.1487 N   0  0  0  0  0  0  0  0  0  0  0  0
   20.1706  -21.7158  -13.7375 N   0  0  0  0  0  0  0  0  0  0  0  0
   20.1627  -21.1491  -15.0823 C   0  0  0  0  0  0  0  0  0  0  0  0
   21.6024  -21.1915  -15.6277 C   0  0  0  0  0  0  0  0  0  0  0  0
   22.1037  -19.8310  -15.9348 C   0  0  0  0  0  0  0  0  0  0  0  0
   23.5181  -19.8734  -16.4407 C   0  0  2  0  0  0  0  0  0  0  0  0
   23.9353  -18.5025  -16.8213 N   0  0  0  0  0  0  0  0  0  0  0  0
   23.7322  -20.7858  -17.5853 C   0  0  0  0  0  0  0  0  0  0  0  0
   23.9079  -20.2875  -18.8931 O   0  0  0  0  0  0  0  0  0  0  0  0
   23.7703  -22.0363  -17.4712 O   0  0  0  0  0  0  0  0  0  0  0  0
  2  1  1  0
  3  2  1  0
  3  4  1  6
  5  3  1  0
  6  5  2  0
  7  8  1  0
  8  9  1  0
  9 10  1  6
  9 11  1  0
 11 12  1  1
 12  5  1  0
 13 11  1  0
 13 14  2  0
 16 15  1  0
 17 16  2  0
 18 16  1  0
 19 18  1  0
 20 21  1  0
 20 19  1  0
 22 21  1  6
 22 23  1  0
 23 13  1  0
 24 22  1  0
 25 24  1  0
 26 24  2  0
M  END
$$$$
