SIR.pdb
     RDKit          3D

 26 25  0  0  1  0  0  0  0  0999 V2000
   18.3762  -25.0841  -10.0945 O   0  0  0  0  0  0  0  0  0  0  0  0
   19.0645  -25.2840   -8.8994 C   0  0  0  0  0  0  0  0  0  0  0  0
   18.8002  -24.0970   -8.0033 C   0  0  2  0  0  0  0  0  0  0  0  0
   17.3875  -24.0387   -7.7241 N   0  0  0  0  0  0  0  0  0  0  0  0
   19.2129  -22.8175   -8.6620 C   0  0  0  0  0  0  0  0  0  0  0  0
   18.3114  -21.9696   -8.8237 O   0  0  0  0  0  0  0  0  0  0  0  0
   24.0306  -21.0031   -7.3138 C   0  0  0  0  0  0  0  0  0  0  0  0
   22.5992  -20.8804   -7.7638 C   0  0  0  0  0  0  0  0  0  0  0  0
   22.4773  -21.1275   -9.2630 C   0  0  2  0  0  0  0  0  0  0  0  0
   23.0187  -19.8995   -9.9982 C   0  0  0  0  0  0  0  0  0  0  0  0
   21.0413  -21.3469   -9.6575 C   0  0  2  0  0  0  0  0  0  0  0  0
   20.5170  -22.5739   -9.0739 N   0  0  0  0  0  0  0  0  0  0  0  0
   20.9007  -21.4501  -11.1243 C   0  0  0  0  0  0  0  0  0  0  0  0
   20.7154  -22.6284  -11.6378 O   0  0  0  0  0  0  0  0  0  0  0  0
   15.6751  -20.4958  -16.8619 N   0  0  0  0  0  0  0  0  0  0  0  0
   15.8587  -21.8990  -16.7392 C   0  0  0  0  0  0  0  0  0  0  0  0
   15.5320  -22.7230  -17.6881 N   0  0  0  0  0  0  0  0  0  0  0  0
   16.4150  -22.4011  -15.5419 N   0  0  0  0  0  0  0  0  0  0  0  0
   16.7728  -21.5291  -14.4279 C   0  0  0  0  0  0  0  0  0  0  0  0
   18.2580  -21.1489  -14.5759 C   0  0  0  0  0  0  0  0  0  0  0  0
   18.9030  -20.9665  -13.2541 C   0  0  0  0  0  0  0  0  0  0  0  0
   20.3504  -20.5905  -13.4018 C   0  0  2  0  0  0  0  0  0  0  0  0
   20.9378  -20.3952  -12.0546 N   0  0  0  0  0  0  0  0  0  0  0  0
   20.5886  -19.3811  -14.2198 C   0  0  0  0  0  0  0  0  0  0  0  0
   21.0927  -19.4763  -15.5338 O   0  0  0  0  0  0  0  0  0  0  0  0
   20.3635  -18.2159  -13.8080 O   0  0  0  0  0  0  0  0  0  0  0  0
  2  1  1  0
  3  2  1  0
  3  4  1  6
  5  3  1  0
  6  5  2  0
  7  8  1  0
  8  9  1  0
  9 10  1  6
  9 11  1  0
 11 12  1  1
 12  5  1  0
 13 11  1  0
 13 14  2  0
 16 15  1  0
 17 16  2  0
 18 16  1  0
 19 18  1  0
 20 21  1  0
 20 19  1  0
 22 21  1  1
 22 23  1  0
 23 13  1  0
 24 22  1  0
 25 24  1  0
 26 24  2  0
M  END
$$$$
