SIR.pdb
     RDKit          3D

 26 25  0  0  1  0  0  0  0  0999 V2000
   27.1315  -18.4162  -15.2150 O   0  0  0  0  0  0  0  0  0  0  0  0
   27.9725  -18.5607  -14.1132 C   0  0  0  0  0  0  0  0  0  0  0  0
   28.2885  -20.0294  -13.9553 C   0  0  2  0  0  0  0  0  0  0  0  0
   28.5734  -20.5796  -15.2566 N   0  0  0  0  0  0  0  0  0  0  0  0
   27.1318  -20.7725  -13.3624 C   0  0  0  0  0  0  0  0  0  0  0  0
   26.7186  -21.7526  -14.0152 O   0  0  0  0  0  0  0  0  0  0  0  0
   26.6605  -20.3808   -8.0299 C   0  0  0  0  0  0  0  0  0  0  0  0
   26.4525  -21.1615   -9.3001 C   0  0  0  0  0  0  0  0  0  0  0  0
   25.2663  -20.6150  -10.0863 C   0  0  2  0  0  0  0  0  0  0  0  0
   23.9848  -21.2081   -9.4970 C   0  0  0  0  0  0  0  0  0  0  0  0
   25.3636  -20.9933  -11.5400 C   0  0  2  0  0  0  0  0  0  0  0  0
   26.5434  -20.4051  -12.1589 N   0  0  0  0  0  0  0  0  0  0  0  0
   24.1809  -20.5279  -12.2928 C   0  0  0  0  0  0  0  0  0  0  0  0
   23.9813  -19.2480  -12.3846 O   0  0  0  0  0  0  0  0  0  0  0  0
   21.5384  -16.0473  -17.3865 N   0  0  0  0  0  0  0  0  0  0  0  0
   20.4474  -16.9104  -17.6735 C   0  0  0  0  0  0  0  0  0  0  0  0
   19.4242  -16.5202  -18.3713 N   0  0  0  0  0  0  0  0  0  0  0  0
   20.4890  -18.2326  -17.1783 N   0  0  0  0  0  0  0  0  0  0  0  0
   21.6328  -18.7447  -16.4306 C   0  0  0  0  0  0  0  0  0  0  0  0
   21.2910  -20.1668  -15.9481 C   0  0  0  0  0  0  0  0  0  0  0  0
   22.4003  -20.7498  -15.1569 C   0  0  0  0  0  0  0  0  0  0  0  0
   22.1140  -20.6789  -13.6834 C   0  0  2  0  0  0  0  0  0  0  0  0
   23.2241  -21.3273  -12.9448 N   0  0  0  0  0  0  0  0  0  0  0  0
   20.8312  -21.2943  -13.2785 C   0  0  0  0  0  0  0  0  0  0  0  0
   19.6816  -20.5073  -13.0577 O   0  0  0  0  0  0  0  0  0  0  0  0
   20.6838  -22.5301  -13.1077 O   0  0  0  0  0  0  0  0  0  0  0  0
  2  1  1  0
  3  2  1  0
  3  4  1  6
  5  3  1  0
  6  5  2  0
  7  8  1  0
  8  9  1  0
  9 10  1  1
  9 11  1  0
 11 12  1  6
 12  5  1  0
 13 11  1  0
 13 14  2  0
 16 15  1  0
 17 16  2  0
 18 16  1  0
 19 18  1  0
 20 21  1  0
 20 19  1  0
 22 21  1  6
 22 23  1  0
 23 13  1  0
 24 22  1  0
 25 24  1  0
 26 24  2  0
M  END
$$$$
