SIR.pdb
     RDKit          3D

 26 25  0  0  1  0  0  0  0  0999 V2000
   23.6494  -25.9602  -17.1228 O   0  0  0  0  0  0  0  0  0  0  0  0
   24.8604  -25.9696  -17.8124 C   0  0  0  0  0  0  0  0  0  0  0  0
   25.9678  -25.7181  -16.8163 C   0  0  2  0  0  0  0  0  0  0  0  0
   26.3650  -26.9797  -16.2438 N   0  0  0  0  0  0  0  0  0  0  0  0
   25.5112  -24.8132  -15.7144 C   0  0  0  0  0  0  0  0  0  0  0  0
   25.6020  -25.2712  -14.5570 O   0  0  0  0  0  0  0  0  0  0  0  0
   27.3348  -20.9278  -16.9687 C   0  0  0  0  0  0  0  0  0  0  0  0
   26.8644  -21.1767  -15.5606 C   0  0  0  0  0  0  0  0  0  0  0  0
   25.3419  -21.1615  -15.4851 C   0  0  2  0  0  0  0  0  0  0  0  0
   24.9192  -20.0442  -14.5288 C   0  0  0  0  0  0  0  0  0  0  0  0
   24.8151  -22.4756  -14.9740 C   0  0  2  0  0  0  0  0  0  0  0  0
   25.0139  -23.5377  -15.9504 N   0  0  0  0  0  0  0  0  0  0  0  0
   23.3687  -22.3947  -14.6852 C   0  0  0  0  0  0  0  0  0  0  0  0
   22.5587  -22.1907  -15.6795 O   0  0  0  0  0  0  0  0  0  0  0  0
   18.3936  -25.3832   -8.3173 N   0  0  0  0  0  0  0  0  0  0  0  0
   18.6715  -25.9860   -9.5731 C   0  0  0  0  0  0  0  0  0  0  0  0
   18.6165  -27.2714   -9.7487 N   0  0  0  0  0  0  0  0  0  0  0  0
   19.0176  -25.1494  -10.6574 N   0  0  0  0  0  0  0  0  0  0  0  0
   18.9091  -23.6962  -10.5806 C   0  0  0  0  0  0  0  0  0  0  0  0
   19.3529  -23.1112  -11.9345 C   0  0  0  0  0  0  0  0  0  0  0  0
   20.8251  -23.1736  -12.0932 C   0  0  0  0  0  0  0  0  0  0  0  0
   21.2696  -22.4563  -13.3365 C   0  0  2  0  0  0  0  0  0  0  0  0
   22.7479  -22.5224  -13.4290 N   0  0  0  0  0  0  0  0  0  0  0  0
   20.8367  -21.0440  -13.4167 C   0  0  0  0  0  0  0  0  0  0  0  0
   19.6563  -20.6799  -14.0976 O   0  0  0  0  0  0  0  0  0  0  0  0
   21.4771  -20.0969  -12.8961 O   0  0  0  0  0  0  0  0  0  0  0  0
  2  1  1  0
  3  2  1  0
  3  4  1  1
  5  3  1  0
  6  5  2  0
  7  8  1  0
  8  9  1  0
  9 10  1  1
  9 11  1  0
 11 12  1  6
 12  5  1  0
 13 11  1  0
 13 14  2  0
 16 15  1  0
 17 16  2  0
 18 16  1  0
 19 18  1  0
 20 21  1  0
 20 19  1  0
 22 21  1  1
 22 23  1  0
 23 13  1  0
 24 22  1  0
 25 24  1  0
 26 24  2  0
M  END
$$$$
