SIR.pdb
     RDKit          3D

 26 25  0  0  1  0  0  0  0  0999 V2000
   26.6089  -22.7615  -18.5353 O   0  0  0  0  0  0  0  0  0  0  0  0
   27.6926  -23.3244  -17.8638 C   0  0  0  0  0  0  0  0  0  0  0  0
   28.5769  -22.2003  -17.3781 C   0  0  2  0  0  0  0  0  0  0  0  0
   29.7734  -22.7702  -16.8116 N   0  0  0  0  0  0  0  0  0  0  0  0
   27.8896  -21.3845  -16.3276 C   0  0  0  0  0  0  0  0  0  0  0  0
   28.0783  -21.7417  -15.1467 O   0  0  0  0  0  0  0  0  0  0  0  0
   28.5661  -16.5656  -16.9258 C   0  0  0  0  0  0  0  0  0  0  0  0
   28.1488  -17.5882  -15.9029 C   0  0  0  0  0  0  0  0  0  0  0  0
   26.6774  -17.9516  -16.0659 C   0  0  2  0  0  0  0  0  0  0  0  0
   25.8545  -17.0487  -15.1444 C   0  0  0  0  0  0  0  0  0  0  0  0
   26.4338  -19.3900  -15.6956 C   0  0  2  0  0  0  0  0  0  0  0  0
   27.0870  -20.2927  -16.6333 N   0  0  0  0  0  0  0  0  0  0  0  0
   24.9905  -19.7048  -15.6987 C   0  0  0  0  0  0  0  0  0  0  0  0
   24.3528  -19.6314  -16.8276 O   0  0  0  0  0  0  0  0  0  0  0  0
   18.2375  -22.6955  -14.3722 N   0  0  0  0  0  0  0  0  0  0  0  0
   19.0165  -23.6792  -13.7066 C   0  0  0  0  0  0  0  0  0  0  0  0
   18.8897  -24.9466  -13.9590 N   0  0  0  0  0  0  0  0  0  0  0  0
   19.9553  -23.2521  -12.7415 N   0  0  0  0  0  0  0  0  0  0  0  0
   20.1489  -21.8420  -12.4192 C   0  0  0  0  0  0  0  0  0  0  0  0
   20.7221  -21.1409  -13.6650 C   0  0  0  0  0  0  0  0  0  0  0  0
   22.1870  -20.9477  -13.5498 C   0  0  0  0  0  0  0  0  0  0  0  0
   22.7441  -20.2683  -14.7689 C   0  0  2  0  0  0  0  0  0  0  0  0
   24.2060  -20.0913  -14.5966 N   0  0  0  0  0  0  0  0  0  0  0  0
   22.1255  -18.9605  -15.0777 C   0  0  0  0  0  0  0  0  0  0  0  0
   21.2034  -18.8208  -16.1359 O   0  0  0  0  0  0  0  0  0  0  0  0
   22.3751  -17.9114  -14.4332 O   0  0  0  0  0  0  0  0  0  0  0  0
  2  1  1  0
  3  2  1  0
  3  4  1  1
  5  3  1  0
  6  5  2  0
  7  8  1  0
  8  9  1  0
  9 10  1  1
  9 11  1  0
 11 12  1  6
 12  5  1  0
 13 11  1  0
 13 14  2  0
 16 15  1  0
 17 16  2  0
 18 16  1  0
 19 18  1  0
 20 21  1  0
 20 19  1  0
 22 21  1  1
 22 23  1  0
 23 13  1  0
 24 22  1  0
 25 24  1  0
 26 24  2  0
M  END
$$$$
