SIR.pdb
     RDKit          3D

 26 25  0  0  1  0  0  0  0  0999 V2000
   20.2423  -23.4993  -10.1061 O   0  0  0  0  0  0  0  0  0  0  0  0
   20.6739  -24.0223   -8.8886 C   0  0  0  0  0  0  0  0  0  0  0  0
   20.6731  -22.9044   -7.8727 C   0  0  2  0  0  0  0  0  0  0  0  0
   19.3102  -22.4985   -7.6387 N   0  0  0  0  0  0  0  0  0  0  0  0
   21.4483  -21.7224   -8.3661 C   0  0  0  0  0  0  0  0  0  0  0  0
   20.7732  -20.7349   -8.7219 O   0  0  0  0  0  0  0  0  0  0  0  0
   26.5543  -18.7849   -7.4995 C   0  0  0  0  0  0  0  0  0  0  0  0
   25.8617  -19.4391   -8.6651 C   0  0  0  0  0  0  0  0  0  0  0  0
   25.0069  -20.6128   -8.2008 C   0  0  2  0  0  0  0  0  0  0  0  0
   25.7650  -21.9077   -8.5007 C   0  0  0  0  0  0  0  0  0  0  0  0
   23.6856  -20.6349   -8.9215 C   0  0  2  0  0  0  0  0  0  0  0  0
   22.8359  -21.7106   -8.4297 N   0  0  0  0  0  0  0  0  0  0  0  0
   23.8727  -20.8366  -10.3728 C   0  0  0  0  0  0  0  0  0  0  0  0
   24.2690  -22.0043  -10.7802 O   0  0  0  0  0  0  0  0  0  0  0  0
   19.7704  -24.4361  -13.6032 N   0  0  0  0  0  0  0  0  0  0  0  0
   19.4001  -23.0985  -13.9055 C   0  0  0  0  0  0  0  0  0  0  0  0
   18.1595  -22.7167  -13.9384 N   0  0  0  0  0  0  0  0  0  0  0  0
   20.4236  -22.1637  -14.1772 N   0  0  0  0  0  0  0  0  0  0  0  0
   21.5718  -22.4931  -15.0156 C   0  0  0  0  0  0  0  0  0  0  0  0
   22.7322  -21.5582  -14.6264 C   0  0  0  0  0  0  0  0  0  0  0  0
   22.6847  -21.2089  -13.1869 C   0  0  0  0  0  0  0  0  0  0  0  0
   23.8200  -20.2996  -12.8095 C   0  0  2  0  0  0  0  0  0  0  0  0
   23.6604  -19.8914  -11.3932 N   0  0  0  0  0  0  0  0  0  0  0  0
   23.9453  -19.0927  -13.6558 C   0  0  0  0  0  0  0  0  0  0  0  0
   23.5266  -17.8285  -13.1909 O   0  0  0  0  0  0  0  0  0  0  0  0
   24.4214  -19.1132  -14.8181 O   0  0  0  0  0  0  0  0  0  0  0  0
  2  1  1  0
  3  2  1  0
  3  4  1  6
  5  3  1  0
  6  5  2  0
  7  8  1  0
  8  9  1  0
  9 10  1  6
  9 11  1  0
 11 12  1  1
 12  5  1  0
 13 11  1  0
 13 14  2  0
 16 15  1  0
 17 16  2  0
 18 16  1  0
 19 18  1  0
 20 21  1  0
 20 19  1  0
 22 21  1  6
 22 23  1  0
 23 13  1  0
 24 22  1  0
 25 24  1  0
 26 24  2  0
M  END
$$$$
