FFP.pdb
     RDKit          3D

 30 32  0  0  1  0  0  0  0  0999 V2000
   27.6876  -23.6399  -17.6193 N   0  0  0  0  0  0  0  0  0  0  0  0
   26.4747  -23.6895  -16.8433 C   0  0  1  0  0  0  0  0  0  0  0  0
   26.1458  -25.0960  -16.3898 C   0  0  0  0  0  0  0  0  0  0  0  0
   25.5240  -25.8102  -17.5351 C   0  0  0  0  0  0  0  0  0  0  0  0
   26.1647  -26.7666  -18.2701 C   0  0  0  0  0  0  0  0  0  0  0  0
   25.5516  -27.4180  -19.3397 C   0  0  0  0  0  0  0  0  0  0  0  0
   24.2612  -27.0811  -19.6581 C   0  0  0  0  0  0  0  0  0  0  0  0
   23.5709  -26.1143  -18.9382 C   0  0  0  0  0  0  0  0  0  0  0  0
   24.2134  -25.5000  -17.8948 C   0  0  0  0  0  0  0  0  0  0  0  0
   26.6289  -22.7652  -15.6913 C   0  0  0  0  0  0  0  0  0  0  0  0
   27.7388  -22.7551  -15.0909 O   0  0  0  0  0  0  0  0  0  0  0  0
   25.6171  -21.8976  -15.2232 N   0  0  0  0  0  0  0  0  0  0  0  0
   25.8551  -20.9114  -14.1552 C   0  0  1  0  0  0  0  0  0  0  0  0
   25.6079  -19.5397  -14.8048 C   0  0  0  0  0  0  0  0  0  0  0  0
   26.7539  -19.1677  -15.6758 C   0  0  0  0  0  0  0  0  0  0  0  0
   26.6657  -19.2811  -17.0421 C   0  0  0  0  0  0  0  0  0  0  0  0
   27.7560  -18.9257  -17.8451 C   0  0  0  0  0  0  0  0  0  0  0  0
   28.9307  -18.4589  -17.2897 C   0  0  0  0  0  0  0  0  0  0  0  0
   29.0156  -18.3471  -15.9296 C   0  0  0  0  0  0  0  0  0  0  0  0
   27.9296  -18.7010  -15.1296 C   0  0  0  0  0  0  0  0  0  0  0  0
   24.8071  -21.0753  -13.1172 C   0  0  0  0  0  0  0  0  0  0  0  0
   23.6499  -21.4462  -13.5295 O   0  0  0  0  0  0  0  0  0  0  0  0
   25.0105  -20.8522  -11.7334 N   0  0  0  0  0  0  0  0  0  0  0  0
   26.2947  -20.6313  -11.0964 C   0  0  0  0  0  0  0  0  0  0  0  0
   26.0290  -21.0861   -9.6398 C   0  0  0  0  0  0  0  0  0  0  0  0
   24.6502  -20.4780   -9.4675 C   0  0  0  0  0  0  0  0  0  0  0  0
   23.9626  -20.8239  -10.7399 C   0  0  1  0  0  0  0  0  0  0  0  0
   22.8792  -19.8764  -11.0955 C   0  0  0  0  0  0  0  0  0  0  0  0
   21.6442  -19.8742  -10.5118 O   0  0  0  0  0  0  0  0  0  0  0  0
   23.1331  -19.0311  -11.9917 O   0  0  0  0  0  0  0  0  0  0  0  0
  2  1  1  1
  2  3  1  0
  2 10  1  0
  3  4  1  0
  4  9  1  0
  4  5  2  0
  5  6  1  0
  6  7  2  0
  8  7  1  0
  9  8  2  0
 10 11  2  0
 12 13  1  0
 12 10  1  0
 13 14  1  6
 14 15  1  0
 15 16  2  0
 16 17  1  0
 18 17  2  0
 19 18  1  0
 20 19  2  0
 20 15  1  0
 21 13  1  0
 21 22  2  0
 23 21  1  0
 24 23  1  0
 25 24  1  0
 26 25  1  0
 26 27  1  0
 27 28  1  6
 27 23  1  0
 28 29  1  0
 30 28  2  0
M  END
$$$$
