FFP.pdb
     RDKit          3D

 30 32  0  0  1  0  0  0  0  0999 V2000
   25.1865  -19.3261  -12.9384 N   0  0  0  0  0  0  0  0  0  0  0  0
   24.9131  -20.2331  -11.8529 C   0  0  1  0  0  0  0  0  0  0  0  0
   24.6866  -21.6495  -12.3374 C   0  0  0  0  0  0  0  0  0  0  0  0
   23.3495  -21.7016  -12.9837 C   0  0  0  0  0  0  0  0  0  0  0  0
   23.1632  -21.8147  -14.3320 C   0  0  0  0  0  0  0  0  0  0  0  0
   21.8935  -21.8609  -14.9065 C   0  0  0  0  0  0  0  0  0  0  0  0
   20.7997  -21.7897  -14.0826 C   0  0  0  0  0  0  0  0  0  0  0  0
   20.9416  -21.6742  -12.7057 C   0  0  0  0  0  0  0  0  0  0  0  0
   22.2090  -21.6325  -12.1851 C   0  0  0  0  0  0  0  0  0  0  0  0
   26.0452  -20.1569  -10.8950 C   0  0  0  0  0  0  0  0  0  0  0  0
   27.2154  -20.1658  -11.3669 O   0  0  0  0  0  0  0  0  0  0  0  0
   25.8995  -20.0753   -9.4922 N   0  0  0  0  0  0  0  0  0  0  0  0
   27.0483  -19.8884   -8.5892 C   0  0  1  0  0  0  0  0  0  0  0  0
   26.4457  -19.7938   -7.1776 C   0  0  0  0  0  0  0  0  0  0  0  0
   27.5116  -19.5133   -6.1799 C   0  0  0  0  0  0  0  0  0  0  0  0
   27.9262  -20.4841   -5.3007 C   0  0  0  0  0  0  0  0  0  0  0  0
   28.9315  -20.2001   -4.3686 C   0  0  0  0  0  0  0  0  0  0  0  0
   29.5222  -18.9535   -4.3118 C   0  0  0  0  0  0  0  0  0  0  0  0
   29.1075  -17.9893   -5.1881 C   0  0  0  0  0  0  0  0  0  0  0  0
   28.1063  -18.2720   -6.1166 C   0  0  0  0  0  0  0  0  0  0  0  0
   27.8715  -21.1231   -8.6085 C   0  0  0  0  0  0  0  0  0  0  0  0
   27.2483  -22.2267   -8.4071 O   0  0  0  0  0  0  0  0  0  0  0  0
   29.2697  -21.1484   -8.8328 N   0  0  0  0  0  0  0  0  0  0  0  0
   30.0947  -19.9943   -9.1345 C   0  0  0  0  0  0  0  0  0  0  0  0
   31.2930  -20.6260   -9.8856 C   0  0  0  0  0  0  0  0  0  0  0  0
   31.4779  -21.8526   -9.0129 C   0  0  0  0  0  0  0  0  0  0  0  0
   30.0875  -22.3387   -8.8074 C   0  0  1  0  0  0  0  0  0  0  0  0
   29.9167  -23.1089   -7.5522 C   0  0  0  0  0  0  0  0  0  0  0  0
   30.4225  -24.3615   -7.3498 O   0  0  0  0  0  0  0  0  0  0  0  0
   29.2629  -22.5572   -6.6300 O   0  0  0  0  0  0  0  0  0  0  0  0
  2  1  1  6
  2  3  1  0
  2 10  1  0
  3  4  1  0
  4  9  1  0
  4  5  2  0
  5  6  1  0
  6  7  2  0
  8  7  1  0
  9  8  2  0
 10 11  2  0
 12 13  1  0
 12 10  1  0
 13 14  1  1
 14 15  1  0
 15 16  2  0
 16 17  1  0
 18 17  2  0
 19 18  1  0
 20 19  2  0
 20 15  1  0
 21 13  1  0
 21 22  2  0
 23 21  1  0
 24 23  1  0
 25 24  1  0
 26 25  1  0
 26 27  1  0
 27 28  1  1
 27 23  1  0
 28 29  1  0
 30 28  2  0
M  END
$$$$
