FFP.pdb
     RDKit          3D

 30 32  0  0  1  0  0  0  0  0999 V2000
   26.8843  -17.3626  -18.4571 N   0  0  0  0  0  0  0  0  0  0  0  0
   25.8530  -17.4135  -17.4523 C   0  0  1  0  0  0  0  0  0  0  0  0
   24.4992  -17.7474  -18.0419 C   0  0  0  0  0  0  0  0  0  0  0  0
   23.7429  -16.4772  -18.1942 C   0  0  0  0  0  0  0  0  0  0  0  0
   24.1512  -15.2843  -17.6694 C   0  0  0  0  0  0  0  0  0  0  0  0
   23.4170  -14.1099  -17.8309 C   0  0  0  0  0  0  0  0  0  0  0  0
   22.2461  -14.1631  -18.5425 C   0  0  0  0  0  0  0  0  0  0  0  0
   21.7922  -15.3543  -19.0942 C   0  0  0  0  0  0  0  0  0  0  0  0
   22.5467  -16.4839  -18.9100 C   0  0  0  0  0  0  0  0  0  0  0  0
   26.2619  -18.4048  -16.4250 C   0  0  0  0  0  0  0  0  0  0  0  0
   26.6656  -19.5318  -16.8242 O   0  0  0  0  0  0  0  0  0  0  0  0
   26.2290  -18.1706  -15.0322 N   0  0  0  0  0  0  0  0  0  0  0  0
   26.3943  -19.2523  -14.0461 C   0  0  1  0  0  0  0  0  0  0  0  0
   26.7531  -18.5492  -12.7264 C   0  0  0  0  0  0  0  0  0  0  0  0
   26.8839  -19.5454  -11.6305 C   0  0  0  0  0  0  0  0  0  0  0  0
   25.9639  -19.5962  -10.6116 C   0  0  0  0  0  0  0  0  0  0  0  0
   26.1047  -20.5417   -9.5888 C   0  0  0  0  0  0  0  0  0  0  0  0
   27.1582  -21.4341   -9.5803 C   0  0  0  0  0  0  0  0  0  0  0  0
   28.0723  -21.3812  -10.5958 C   0  0  0  0  0  0  0  0  0  0  0  0
   27.9322  -20.4394  -11.6146 C   0  0  0  0  0  0  0  0  0  0  0  0
   25.0767  -19.8996  -13.8280 C   0  0  0  0  0  0  0  0  0  0  0  0
   24.0819  -19.1139  -13.6286 O   0  0  0  0  0  0  0  0  0  0  0  0
   24.8637  -21.2999  -13.8298 N   0  0  0  0  0  0  0  0  0  0  0  0
   25.8776  -22.3050  -14.0857 C   0  0  0  0  0  0  0  0  0  0  0  0
   25.0394  -23.5053  -14.5917 C   0  0  0  0  0  0  0  0  0  0  0  0
   23.8874  -23.3982  -13.6110 C   0  0  0  0  0  0  0  0  0  0  0  0
   23.5922  -21.9408  -13.5880 C   0  0  1  0  0  0  0  0  0  0  0  0
   22.9699  -21.4901  -12.3202 C   0  0  0  0  0  0  0  0  0  0  0  0
   21.6583  -21.6947  -11.9980 O   0  0  0  0  0  0  0  0  0  0  0  0
   23.7121  -20.8841  -11.5053 O   0  0  0  0  0  0  0  0  0  0  0  0
  2  1  1  6
  2  3  1  0
  2 10  1  0
  3  4  1  0
  4  9  1  0
  4  5  2  0
  5  6  1  0
  6  7  2  0
  8  7  1  0
  9  8  2  0
 10 11  2  0
 12 13  1  0
 12 10  1  0
 13 14  1  1
 14 15  1  0
 15 16  2  0
 16 17  1  0
 18 17  2  0
 19 18  1  0
 20 19  2  0
 20 15  1  0
 21 13  1  0
 21 22  2  0
 23 21  1  0
 24 23  1  0
 25 24  1  0
 26 25  1  0
 26 27  1  0
 27 28  1  1
 27 23  1  0
 28 29  1  0
 30 28  2  0
M  END
$$$$
