FFP.pdb
     RDKit          3D

 30 32  0  0  1  0  0  0  0  0999 V2000
   28.9039  -19.6741  -14.4425 N   0  0  0  0  0  0  0  0  0  0  0  0
   28.0531  -18.8691  -13.6035 C   0  0  1  0  0  0  0  0  0  0  0  0
   26.7423  -18.5293  -14.2805 C   0  0  0  0  0  0  0  0  0  0  0  0
   26.9812  -17.3712  -15.1805 C   0  0  0  0  0  0  0  0  0  0  0  0
   27.1032  -17.4776  -16.5366 C   0  0  0  0  0  0  0  0  0  0  0  0
   27.3273  -16.3695  -17.3529 C   0  0  0  0  0  0  0  0  0  0  0  0
   27.4273  -15.1343  -16.7660 C   0  0  0  0  0  0  0  0  0  0  0  0
   27.3098  -14.9788  -15.3908 C   0  0  0  0  0  0  0  0  0  0  0  0
   27.0898  -16.0961  -14.6278 C   0  0  0  0  0  0  0  0  0  0  0  0
   27.8374  -19.6027  -12.3305 C   0  0  0  0  0  0  0  0  0  0  0  0
   27.7107  -20.8568  -12.3895 O   0  0  0  0  0  0  0  0  0  0  0  0
   27.7647  -18.9908  -11.0592 N   0  0  0  0  0  0  0  0  0  0  0  0
   27.5675  -19.7645   -9.8213 C   0  0  1  0  0  0  0  0  0  0  0  0
   28.0208  -18.8348   -8.6833 C   0  0  0  0  0  0  0  0  0  0  0  0
   27.8511  -19.5085   -7.3689 C   0  0  0  0  0  0  0  0  0  0  0  0
   28.6683  -20.5497   -7.0007 C   0  0  0  0  0  0  0  0  0  0  0  0
   28.4924  -21.1710   -5.7585 C   0  0  0  0  0  0  0  0  0  0  0  0
   27.5061  -20.7572   -4.8855 C   0  0  0  0  0  0  0  0  0  0  0  0
   26.6943  -19.7207   -5.2547 C   0  0  0  0  0  0  0  0  0  0  0  0
   26.8694  -19.1017   -6.4919 C   0  0  0  0  0  0  0  0  0  0  0  0
   26.1125  -19.9826   -9.6260 C   0  0  0  0  0  0  0  0  0  0  0  0
   25.4088  -18.9396   -9.3737 O   0  0  0  0  0  0  0  0  0  0  0  0
   25.4760  -21.2455   -9.7027 N   0  0  0  0  0  0  0  0  0  0  0  0
   26.1351  -22.5037   -9.9963 C   0  0  0  0  0  0  0  0  0  0  0  0
   24.9810  -23.3597  -10.5747 C   0  0  0  0  0  0  0  0  0  0  0  0
   23.8912  -22.9435   -9.6054 C   0  0  0  0  0  0  0  0  0  0  0  0
   24.0620  -21.4692   -9.5115 C   0  0  1  0  0  0  0  0  0  0  0  0
   23.5738  -20.9043   -8.2307 C   0  0  0  0  0  0  0  0  0  0  0  0
   22.2792  -20.5319   -8.0042 O   0  0  0  0  0  0  0  0  0  0  0  0
   24.4192  -20.7678   -7.3093 O   0  0  0  0  0  0  0  0  0  0  0  0
  2  1  1  6
  2  3  1  0
  2 10  1  0
  3  4  1  0
  4  9  1  0
  4  5  2  0
  5  6  1  0
  6  7  2  0
  8  7  1  0
  9  8  2  0
 10 11  2  0
 12 13  1  0
 12 10  1  0
 13 14  1  1
 14 15  1  0
 15 16  2  0
 16 17  1  0
 18 17  2  0
 19 18  1  0
 20 19  2  0
 20 15  1  0
 21 13  1  0
 21 22  2  0
 23 21  1  0
 24 23  1  0
 25 24  1  0
 26 25  1  0
 26 27  1  0
 27 28  1  1
 27 23  1  0
 28 29  1  0
 30 28  2  0
M  END
$$$$
