FFP.pdb
     RDKit          3D

 30 32  0  0  1  0  0  0  0  0999 V2000
   27.7362  -19.8454  -19.4786 N   0  0  0  0  0  0  0  0  0  0  0  0
   26.6851  -19.2611  -18.6854 C   0  0  1  0  0  0  0  0  0  0  0  0
   25.3499  -19.2904  -19.3985 C   0  0  0  0  0  0  0  0  0  0  0  0
   25.3492  -18.2010  -20.4092 C   0  0  0  0  0  0  0  0  0  0  0  0
   25.5129  -18.4098  -21.7489 C   0  0  0  0  0  0  0  0  0  0  0  0
   25.5071  -17.3641  -22.6712 C   0  0  0  0  0  0  0  0  0  0  0  0
   25.3304  -16.0852  -22.2092 C   0  0  0  0  0  0  0  0  0  0  0  0
   25.1601  -15.8259  -20.8553 C   0  0  0  0  0  0  0  0  0  0  0  0
   25.1728  -16.8848  -19.9850 C   0  0  0  0  0  0  0  0  0  0  0  0
   26.6299  -19.9863  -17.3907 C   0  0  0  0  0  0  0  0  0  0  0  0
   26.6874  -21.2465  -17.4205 O   0  0  0  0  0  0  0  0  0  0  0  0
   26.5176  -19.3601  -16.1293 N   0  0  0  0  0  0  0  0  0  0  0  0
   26.3322  -20.1235  -14.8832 C   0  0  1  0  0  0  0  0  0  0  0  0
   26.7684  -19.1739  -13.7550 C   0  0  0  0  0  0  0  0  0  0  0  0
   26.5721  -19.8217  -12.4313 C   0  0  0  0  0  0  0  0  0  0  0  0
   25.5313  -19.4526  -11.6142 C   0  0  0  0  0  0  0  0  0  0  0  0
   25.3635  -20.0746  -10.3713 C   0  0  0  0  0  0  0  0  0  0  0  0
   26.2292  -21.0613   -9.9431 C   0  0  0  0  0  0  0  0  0  0  0  0
   27.2642  -21.4267  -10.7585 C   0  0  0  0  0  0  0  0  0  0  0  0
   27.4314  -20.8071  -11.9965 C   0  0  0  0  0  0  0  0  0  0  0  0
   24.8809  -20.3642  -14.6869 C   0  0  0  0  0  0  0  0  0  0  0  0
   24.1115  -19.3456  -14.8181 O   0  0  0  0  0  0  0  0  0  0  0  0
   24.3147  -21.6239  -14.3727 N   0  0  0  0  0  0  0  0  0  0  0  0
   25.0528  -22.8622  -14.2138 C   0  0  0  0  0  0  0  0  0  0  0  0
   23.9796  -23.9345  -14.5266 C   0  0  0  0  0  0  0  0  0  0  0  0
   22.8148  -23.3015  -13.7897 C   0  0  0  0  0  0  0  0  0  0  0  0
   22.9049  -21.8680  -14.1750 C   0  0  1  0  0  0  0  0  0  0  0  0
   22.3140  -20.9537  -13.1686 C   0  0  0  0  0  0  0  0  0  0  0  0
   20.9753  -20.8615  -12.9131 O   0  0  0  0  0  0  0  0  0  0  0  0
   23.1112  -20.2270  -12.5215 O   0  0  0  0  0  0  0  0  0  0  0  0
  2  1  1  6
  2  3  1  0
  2 10  1  0
  3  4  1  0
  4  9  1  0
  4  5  2  0
  5  6  1  0
  6  7  2  0
  8  7  1  0
  9  8  2  0
 10 11  2  0
 12 13  1  0
 12 10  1  0
 13 14  1  1
 14 15  1  0
 15 16  2  0
 16 17  1  0
 18 17  2  0
 19 18  1  0
 20 19  2  0
 20 15  1  0
 21 13  1  0
 21 22  2  0
 23 21  1  0
 24 23  1  0
 25 24  1  0
 26 25  1  0
 26 27  1  0
 27 28  1  1
 27 23  1  0
 28 29  1  0
 30 28  2  0
M  END
$$$$
