NQE.pdb
     RDKit          3D

 27 26  0  0  1  0  0  0  0  0999 V2000
    8.2491  -12.4885   17.1689 N   0  0  0  0  0  0  0  0  0  0  0  0
    7.5637  -13.5293   17.8776 C   0  0  0  0  0  0  0  0  0  0  0  0
    6.9797  -14.4122   17.2115 O   0  0  0  0  0  0  0  0  0  0  0  0
    7.5325  -13.5814   19.3395 C   0  0  0  0  0  0  0  0  0  0  0  0
    8.3712  -14.7013   19.8514 C   0  0  2  0  0  0  0  0  0  0  0  0
    7.7277  -15.9714   19.7271 N   0  0  0  0  0  0  0  0  0  0  0  0
    8.8255  -14.4800   21.2588 C   0  0  0  0  0  0  0  0  0  0  0  0
   10.0205  -14.2702   21.5441 O   0  0  0  0  0  0  0  0  0  0  0  0
    6.2535  -11.4345   26.2105 N   0  0  0  0  0  0  0  0  0  0  0  0
    6.3939  -12.7454   26.7071 C   0  0  0  0  0  0  0  0  0  0  0  0
    5.7717  -13.2167   27.6671 O   0  0  0  0  0  0  0  0  0  0  0  0
    7.3874  -13.6240   25.9949 C   0  0  0  0  0  0  0  0  0  0  0  0
    7.1003  -13.6358   24.5138 C   0  0  0  0  0  0  0  0  0  0  0  0
    8.0954  -14.4389   23.7099 C   0  0  2  0  0  0  0  0  0  0  0  0
    7.8750  -14.5080   22.3067 N   0  0  0  0  0  0  0  0  0  0  0  0
    8.5679  -15.6724   24.3484 C   0  0  0  0  0  0  0  0  0  0  0  0
    7.7749  -16.6761   24.5076 O   0  0  0  0  0  0  0  0  0  0  0  0
    9.8826  -15.8634   24.8265 N   0  0  0  0  0  0  0  0  0  0  0  0
   10.3686  -17.1723   25.3421 C   0  0  1  0  0  0  0  0  0  0  0  0
   11.6425  -17.5222   24.7048 C   0  0  0  0  0  0  0  0  0  0  0  0
   12.8055  -16.6340   24.9293 C   0  0  0  0  0  0  0  0  0  0  0  0
   13.6643  -16.3288   23.7880 C   0  0  0  0  0  0  0  0  0  0  0  0
   14.6604  -15.5372   23.8600 O   0  0  0  0  0  0  0  0  0  0  0  0
   10.3205  -17.2083   26.7892 C   0  0  0  0  0  0  0  0  0  0  0  0
    9.9926  -16.1271   27.4036 O   0  0  0  0  0  0  0  0  0  0  0  0
   13.4352  -16.9090   22.5254 O   0  0  0  0  0  0  0  0  0  0  0  0
   10.5751  -18.2717   27.6316 O   0  0  0  0  0  0  0  0  0  0  0  0
  2  3  2  0
  2  1  1  0
  4  5  1  0
  4  2  1  0
  5  7  1  0
  5  6  1  1
  7  8  2  0
 10  9  1  0
 10 12  1  0
 11 10  2  0
 13 12  1  0
 14 13  1  1
 15  7  1  0
 15 14  1  0
 16 14  1  0
 16 17  2  0
 18 16  1  0
 19 18  1  0
 19 24  1  0
 19 20  1  1
 21 22  1  0
 21 20  1  0
 22 23  2  0
 24 27  1  0
 25 24  2  0
 26 22  1  0
M  END
$$$$
