NQE.pdb
     RDKit          3D

 27 26  0  0  1  0  0  0  0  0999 V2000
    9.0147  -15.4311   16.9090 N   0  0  0  0  0  0  0  0  0  0  0  0
    7.9436  -14.5664   17.3096 C   0  0  0  0  0  0  0  0  0  0  0  0
    7.4507  -13.8003   16.4526 O   0  0  0  0  0  0  0  0  0  0  0  0
    7.4221  -14.5600   18.6766 C   0  0  0  0  0  0  0  0  0  0  0  0
    8.1978  -15.4869   19.5478 C   0  0  2  0  0  0  0  0  0  0  0  0
    7.4521  -16.6497   19.9148 N   0  0  0  0  0  0  0  0  0  0  0  0
    8.7427  -14.8087   20.7640 C   0  0  0  0  0  0  0  0  0  0  0  0
    9.8153  -14.1743   20.7445 O   0  0  0  0  0  0  0  0  0  0  0  0
    5.7421  -14.1832   26.2038 N   0  0  0  0  0  0  0  0  0  0  0  0
    6.7468  -13.2176   26.4114 C   0  0  0  0  0  0  0  0  0  0  0  0
    6.9346  -12.5963   27.4648 O   0  0  0  0  0  0  0  0  0  0  0  0
    7.6519  -12.9369   25.2418 C   0  0  0  0  0  0  0  0  0  0  0  0
    7.2074  -13.7331   24.0398 C   0  0  0  0  0  0  0  0  0  0  0  0
    8.3500  -14.3174   23.2434 C   0  0  2  0  0  0  0  0  0  0  0  0
    8.0239  -14.8843   21.9806 N   0  0  0  0  0  0  0  0  0  0  0  0
    9.3599  -15.0351   24.0292 C   0  0  0  0  0  0  0  0  0  0  0  0
   10.4910  -14.4832   24.3078 O   0  0  0  0  0  0  0  0  0  0  0  0
    9.1897  -16.3436   24.5319 N   0  0  0  0  0  0  0  0  0  0  0  0
   10.0732  -16.9237   25.5797 C   0  0  1  0  0  0  0  0  0  0  0  0
   10.1399  -16.0238   26.7360 C   0  0  0  0  0  0  0  0  0  0  0  0
   10.8380  -16.4970   27.9528 C   0  0  0  0  0  0  0  0  0  0  0  0
   10.9373  -15.5803   29.0855 C   0  0  0  0  0  0  0  0  0  0  0  0
   10.3993  -14.4250   29.0937 O   0  0  0  0  0  0  0  0  0  0  0  0
    9.7309  -18.3075   25.8367 C   0  0  0  0  0  0  0  0  0  0  0  0
    8.5058  -18.6614   25.6696 O   0  0  0  0  0  0  0  0  0  0  0  0
   11.6418  -15.9343   30.2524 O   0  0  0  0  0  0  0  0  0  0  0  0
   10.5575  -19.3369   26.2396 O   0  0  0  0  0  0  0  0  0  0  0  0
  2  3  2  0
  2  1  1  0
  4  5  1  0
  4  2  1  0
  5  7  1  0
  5  6  1  1
  7  8  2  0
 10  9  1  0
 10 12  1  0
 11 10  2  0
 13 12  1  0
 14 13  1  1
 15  7  1  0
 15 14  1  0
 16 14  1  0
 16 17  2  0
 18 16  1  0
 19 18  1  0
 19 24  1  0
 19 20  1  1
 21 22  1  0
 21 20  1  0
 22 23  2  0
 24 27  1  0
 25 24  2  0
 26 22  1  0
M  END
$$$$
