NQE.pdb
     RDKit          3D

 27 26  0  0  1  0  0  0  0  0999 V2000
    4.5496  -21.1990   19.7910 N   0  0  0  0  0  0  0  0  0  0  0  0
    4.5073  -20.2842   18.6879 C   0  0  0  0  0  0  0  0  0  0  0  0
    3.6342  -20.4580   17.8094 O   0  0  0  0  0  0  0  0  0  0  0  0
    5.4476  -19.1696   18.5684 C   0  0  0  0  0  0  0  0  0  0  0  0
    6.3402  -19.0946   19.7589 C   0  0  2  0  0  0  0  0  0  0  0  0
    5.6371  -18.7400   20.9516 N   0  0  0  0  0  0  0  0  0  0  0  0
    7.5042  -18.1804   19.5456 C   0  0  0  0  0  0  0  0  0  0  0  0
    8.3880  -18.4192   18.7000 O   0  0  0  0  0  0  0  0  0  0  0  0
    8.9438  -12.4561   18.3737 N   0  0  0  0  0  0  0  0  0  0  0  0
    8.5868  -12.2851   19.7258 C   0  0  0  0  0  0  0  0  0  0  0  0
    8.5261  -11.2001   20.3175 O   0  0  0  0  0  0  0  0  0  0  0  0
    8.2569  -13.5389   20.4907 C   0  0  0  0  0  0  0  0  0  0  0  0
    8.3685  -14.7418   19.5869 C   0  0  0  0  0  0  0  0  0  0  0  0
    8.6496  -16.0299   20.3239 C   0  0  2  0  0  0  0  0  0  0  0  0
    7.6137  -17.0041   20.3245 N   0  0  0  0  0  0  0  0  0  0  0  0
    9.3969  -15.8847   21.5780 C   0  0  0  0  0  0  0  0  0  0  0  0
    8.9003  -15.2236   22.5669 O   0  0  0  0  0  0  0  0  0  0  0  0
   10.6770  -16.4354   21.8056 N   0  0  0  0  0  0  0  0  0  0  0  0
   11.4036  -16.2756   23.0947 C   0  0  1  0  0  0  0  0  0  0  0  0
   11.1884  -17.4530   23.9425 C   0  0  0  0  0  0  0  0  0  0  0  0
   11.8929  -17.5182   25.2430 C   0  0  0  0  0  0  0  0  0  0  0  0
   11.7249  -18.7217   26.0532 C   0  0  0  0  0  0  0  0  0  0  0  0
   12.1513  -19.8673   25.6927 O   0  0  0  0  0  0  0  0  0  0  0  0
   12.7738  -15.8641   22.8685 C   0  0  0  0  0  0  0  0  0  0  0  0
   13.4912  -15.5825   23.8981 O   0  0  0  0  0  0  0  0  0  0  0  0
   11.0751  -18.6770   27.3018 O   0  0  0  0  0  0  0  0  0  0  0  0
   13.4457  -15.7348   21.6698 O   0  0  0  0  0  0  0  0  0  0  0  0
  2  3  2  0
  2  1  1  0
  4  5  1  0
  4  2  1  0
  5  7  1  0
  5  6  1  1
  7  8  2  0
 10  9  1  0
 10 12  1  0
 11 10  2  0
 13 12  1  0
 14 13  1  1
 15  7  1  0
 15 14  1  0
 16 14  1  0
 16 17  2  0
 18 16  1  0
 19 18  1  0
 19 24  1  0
 19 20  1  6
 21 22  1  0
 21 20  1  0
 22 23  2  0
 24 27  1  0
 25 24  2  0
 26 22  1  0
M  END
$$$$
