NQE.pdb
     RDKit          3D

 27 26  0  0  1  0  0  0  0  0999 V2000
   16.3816  -17.6847   13.4492 N   0  0  0  0  0  0  0  0  0  0  0  0
   15.0368  -17.4429   13.8834 C   0  0  0  0  0  0  0  0  0  0  0  0
   14.1007  -17.8183   13.1438 O   0  0  0  0  0  0  0  0  0  0  0  0
   14.7393  -16.7775   15.1520 C   0  0  0  0  0  0  0  0  0  0  0  0
   13.6701  -15.7544   14.9798 C   0  0  2  0  0  0  0  0  0  0  0  0
   13.9543  -14.8344   13.9236 N   0  0  0  0  0  0  0  0  0  0  0  0
   13.3704  -15.0199   16.2475 C   0  0  0  0  0  0  0  0  0  0  0  0
   14.2509  -14.4079   16.8827 O   0  0  0  0  0  0  0  0  0  0  0  0
    7.5631  -13.3692   18.0876 N   0  0  0  0  0  0  0  0  0  0  0  0
    8.2256  -13.1451   19.3106 C   0  0  0  0  0  0  0  0  0  0  0  0
    7.7037  -12.6804   20.3317 O   0  0  0  0  0  0  0  0  0  0  0  0
    9.6858  -13.5085   19.3528 C   0  0  0  0  0  0  0  0  0  0  0  0
   10.1272  -14.0371   18.0104 C   0  0  0  0  0  0  0  0  0  0  0  0
   11.5659  -14.4962   17.9830 C   0  0  2  0  0  0  0  0  0  0  0  0
   12.0473  -15.0143   16.7493 N   0  0  0  0  0  0  0  0  0  0  0  0
   12.0279  -15.1842   19.1937 C   0  0  0  0  0  0  0  0  0  0  0  0
   11.8373  -16.4501   19.3442 O   0  0  0  0  0  0  0  0  0  0  0  0
   12.6975  -14.5462   20.2606 N   0  0  0  0  0  0  0  0  0  0  0  0
   13.4831  -15.2946   21.2793 C   0  0  1  0  0  0  0  0  0  0  0  0
   14.8044  -14.6801   21.4466 C   0  0  0  0  0  0  0  0  0  0  0  0
   15.7333  -15.2740   22.4346 C   0  0  0  0  0  0  0  0  0  0  0  0
   17.0656  -14.6886   22.5598 C   0  0  0  0  0  0  0  0  0  0  0  0
   17.5048  -13.7863   21.7744 O   0  0  0  0  0  0  0  0  0  0  0  0
   12.6993  -15.5154   22.4772 C   0  0  0  0  0  0  0  0  0  0  0  0
   13.2149  -16.2437   23.4033 O   0  0  0  0  0  0  0  0  0  0  0  0
   17.9493  -15.0949   23.5783 O   0  0  0  0  0  0  0  0  0  0  0  0
   11.4420  -15.0346   22.7825 O   0  0  0  0  0  0  0  0  0  0  0  0
  2  3  2  0
  2  1  1  0
  4  5  1  0
  4  2  1  0
  5  7  1  0
  5  6  1  6
  7  8  2  0
 10  9  1  0
 10 12  1  0
 11 10  2  0
 13 12  1  0
 14 13  1  6
 15  7  1  0
 15 14  1  0
 16 14  1  0
 16 17  2  0
 18 16  1  0
 19 18  1  0
 19 24  1  0
 19 20  1  1
 21 22  1  0
 21 20  1  0
 22 23  2  0
 24 27  1  0
 25 24  2  0
 26 22  1  0
M  END
$$$$
