NQE.pdb
     RDKit          3D

 27 26  0  0  1  0  0  0  0  0999 V2000
    6.9579  -13.3604   16.9323 N   0  0  0  0  0  0  0  0  0  0  0  0
    8.2159  -13.9520   17.2829 C   0  0  0  0  0  0  0  0  0  0  0  0
    8.8481  -14.5656   16.3951 O   0  0  0  0  0  0  0  0  0  0  0  0
    8.7682  -13.8558   18.6344 C   0  0  0  0  0  0  0  0  0  0  0  0
    8.9856  -15.2087   19.2194 C   0  0  2  0  0  0  0  0  0  0  0  0
    7.7954  -15.9998   19.2323 N   0  0  0  0  0  0  0  0  0  0  0  0
    9.5915  -15.1517   20.5853 C   0  0  0  0  0  0  0  0  0  0  0  0
   10.7584  -14.7579   20.7767 O   0  0  0  0  0  0  0  0  0  0  0  0
    6.2786  -15.5430   25.9979 N   0  0  0  0  0  0  0  0  0  0  0  0
    6.2401  -16.7290   25.2384 C   0  0  0  0  0  0  0  0  0  0  0  0
    5.4556  -17.6685   25.4191 O   0  0  0  0  0  0  0  0  0  0  0  0
    7.2449  -16.8377   24.1227 C   0  0  0  0  0  0  0  0  0  0  0  0
    8.1276  -15.6144   24.0994 C   0  0  0  0  0  0  0  0  0  0  0  0
    9.2230  -15.6770   23.0614 C   0  0  2  0  0  0  0  0  0  0  0  0
    8.8225  -15.5558   21.7023 N   0  0  0  0  0  0  0  0  0  0  0  0
   10.2903  -16.6462   23.3335 C   0  0  0  0  0  0  0  0  0  0  0  0
   10.1844  -17.8691   22.9397 O   0  0  0  0  0  0  0  0  0  0  0  0
   11.4830  -16.3383   24.0236 N   0  0  0  0  0  0  0  0  0  0  0  0
   12.4839  -17.3731   24.4010 C   0  0  1  0  0  0  0  0  0  0  0  0
   13.8389  -16.8189   24.3104 C   0  0  0  0  0  0  0  0  0  0  0  0
   14.2893  -16.2788   23.0076 C   0  0  0  0  0  0  0  0  0  0  0  0
   15.6203  -15.6813   22.9373 C   0  0  0  0  0  0  0  0  0  0  0  0
   15.8200  -14.4232   22.9732 O   0  0  0  0  0  0  0  0  0  0  0  0
   12.1152  -18.0207   25.6430 C   0  0  0  0  0  0  0  0  0  0  0  0
   11.2099  -17.4598   26.3640 O   0  0  0  0  0  0  0  0  0  0  0  0
   16.7750  -16.4803   22.8298 O   0  0  0  0  0  0  0  0  0  0  0  0
   12.6042  -19.1953   26.1782 O   0  0  0  0  0  0  0  0  0  0  0  0
  2  3  2  0
  2  1  1  0
  4  5  1  0
  4  2  1  0
  5  7  1  0
  5  6  1  1
  7  8  2  0
 10  9  1  0
 10 12  1  0
 11 10  2  0
 13 12  1  0
 14 13  1  1
 15  7  1  0
 15 14  1  0
 16 14  1  0
 16 17  2  0
 18 16  1  0
 19 18  1  0
 19 24  1  0
 19 20  1  1
 21 22  1  0
 21 20  1  0
 22 23  2  0
 24 27  1  0
 25 24  2  0
 26 22  1  0
M  END
$$$$
