NQE.pdb
     RDKit          3D

 27 26  0  0  1  0  0  0  0  0999 V2000
    8.9323  -21.5824   17.1217 N   0  0  0  0  0  0  0  0  0  0  0  0
   10.3008  -21.1890   16.9543 C   0  0  0  0  0  0  0  0  0  0  0  0
   10.9902  -21.7954   16.1050 O   0  0  0  0  0  0  0  0  0  0  0  0
   10.8997  -20.1112   17.7420 C   0  0  0  0  0  0  0  0  0  0  0  0
   10.0778  -18.8712   17.6612 C   0  0  2  0  0  0  0  0  0  0  0  0
   10.1225  -18.2653   16.3675 N   0  0  0  0  0  0  0  0  0  0  0  0
   10.4366  -17.8762   18.7182 C   0  0  0  0  0  0  0  0  0  0  0  0
   11.6107  -17.7127   19.1032 O   0  0  0  0  0  0  0  0  0  0  0  0
    6.5783  -13.1724   20.4187 N   0  0  0  0  0  0  0  0  0  0  0  0
    7.6311  -12.9165   21.3191 C   0  0  0  0  0  0  0  0  0  0  0  0
    7.7036  -11.9401   22.0756 O   0  0  0  0  0  0  0  0  0  0  0  0
    8.7460  -13.9277   21.3440 C   0  0  0  0  0  0  0  0  0  0  0  0
    8.4928  -15.0036   20.3171 C   0  0  0  0  0  0  0  0  0  0  0  0
    9.5290  -16.1024   20.3222 C   0  0  2  0  0  0  0  0  0  0  0  0
    9.4168  -17.0906   19.3057 N   0  0  0  0  0  0  0  0  0  0  0  0
    9.9228  -16.5872   21.6498 C   0  0  0  0  0  0  0  0  0  0  0  0
    9.2987  -17.5701   22.2029 O   0  0  0  0  0  0  0  0  0  0  0  0
   10.9799  -16.0421   22.4107 N   0  0  0  0  0  0  0  0  0  0  0  0
   11.4490  -16.6491   23.6861 C   0  0  1  0  0  0  0  0  0  0  0  0
   12.8470  -16.2808   23.9340 C   0  0  0  0  0  0  0  0  0  0  0  0
   13.8886  -16.8471   23.0474 C   0  0  0  0  0  0  0  0  0  0  0  0
   15.1693  -16.1499   22.9633 C   0  0  0  0  0  0  0  0  0  0  0  0
   15.7293  -15.6016   23.9682 O   0  0  0  0  0  0  0  0  0  0  0  0
   10.5010  -16.4062   24.7539 C   0  0  0  0  0  0  0  0  0  0  0  0
    9.7340  -15.3791   24.6504 O   0  0  0  0  0  0  0  0  0  0  0  0
   15.8682  -16.0502   21.7447 O   0  0  0  0  0  0  0  0  0  0  0  0
   10.2885  -17.1463   25.8995 O   0  0  0  0  0  0  0  0  0  0  0  0
  2  3  2  0
  2  1  1  0
  4  5  1  0
  4  2  1  0
  5  7  1  0
  5  6  1  6
  7  8  2  0
 10  9  1  0
 10 12  1  0
 11 10  2  0
 13 12  1  0
 14 13  1  1
 15  7  1  0
 15 14  1  0
 16 14  1  0
 16 17  2  0
 18 16  1  0
 19 18  1  0
 19 24  1  0
 19 20  1  1
 21 22  1  0
 21 20  1  0
 22 23  2  0
 24 27  1  0
 25 24  2  0
 26 22  1  0
M  END
$$$$
