NQE.pdb
     RDKit          3D

 27 26  0  0  1  0  0  0  0  0999 V2000
    6.2392  -20.5444   17.7055 N   0  0  0  0  0  0  0  0  0  0  0  0
    6.2547  -19.1137   17.6149 C   0  0  0  0  0  0  0  0  0  0  0  0
    5.5392  -18.5690   16.7456 O   0  0  0  0  0  0  0  0  0  0  0  0
    7.0756  -18.2893   18.5023 C   0  0  0  0  0  0  0  0  0  0  0  0
    8.2180  -17.6836   17.7623 C   0  0  2  0  0  0  0  0  0  0  0  0
    9.1694  -18.6573   17.3271 N   0  0  0  0  0  0  0  0  0  0  0  0
    8.8952  -16.6010   18.5405 C   0  0  0  0  0  0  0  0  0  0  0  0
   10.0092  -16.1476   18.2136 O   0  0  0  0  0  0  0  0  0  0  0  0
    7.5774  -12.8660   17.4243 N   0  0  0  0  0  0  0  0  0  0  0  0
    7.7545  -12.6683   18.8079 C   0  0  0  0  0  0  0  0  0  0  0  0
    8.6080  -11.9344   19.3217 O   0  0  0  0  0  0  0  0  0  0  0  0
    6.8172  -13.4218   19.7132 C   0  0  0  0  0  0  0  0  0  0  0  0
    7.5756  -13.9892   20.8876 C   0  0  0  0  0  0  0  0  0  0  0  0
    8.6563  -14.9687   20.4953 C   0  0  2  0  0  0  0  0  0  0  0  0
    8.2582  -16.0684   19.6863 N   0  0  0  0  0  0  0  0  0  0  0  0
    9.6455  -15.2623   21.5382 C   0  0  0  0  0  0  0  0  0  0  0  0
   10.1688  -14.3121   22.2346 O   0  0  0  0  0  0  0  0  0  0  0  0
   10.0950  -16.5614   21.8606 N   0  0  0  0  0  0  0  0  0  0  0  0
   11.0600  -16.8282   22.9618 C   0  0  1  0  0  0  0  0  0  0  0  0
   12.4084  -16.4132   22.5604 C   0  0  0  0  0  0  0  0  0  0  0  0
   13.4989  -16.5166   23.5564 C   0  0  0  0  0  0  0  0  0  0  0  0
   14.8578  -16.2088   23.1183 C   0  0  0  0  0  0  0  0  0  0  0  0
   15.1504  -15.1718   22.4377 O   0  0  0  0  0  0  0  0  0  0  0  0
   10.5592  -16.3211   24.2227 C   0  0  0  0  0  0  0  0  0  0  0  0
    9.9064  -15.2132   24.2046 O   0  0  0  0  0  0  0  0  0  0  0  0
   15.9373  -17.0555   23.4361 O   0  0  0  0  0  0  0  0  0  0  0  0
   10.6771  -16.8771   25.4805 O   0  0  0  0  0  0  0  0  0  0  0  0
  2  3  2  0
  2  1  1  0
  4  5  1  0
  4  2  1  0
  5  7  1  0
  5  6  1  1
  7  8  2  0
 10  9  1  0
 10 12  1  0
 11 10  2  0
 13 12  1  0
 14 13  1  1
 15  7  1  0
 15 14  1  0
 16 14  1  0
 16 17  2  0
 18 16  1  0
 19 18  1  0
 19 24  1  0
 19 20  1  6
 21 22  1  0
 21 20  1  0
 22 23  2  0
 24 27  1  0
 25 24  2  0
 26 22  1  0
M  END
$$$$
