DGS.pdb
     RDKit          3D

 19 18  0  0  1  0  0  0  0  0999 V2000
   15.5344  -11.5804  -15.3400 N   0  0  0  0  0  0  0  0  0  0  0  0
   16.9323  -11.3825  -15.1470 C   0  0  1  0  0  0  0  0  0  0  0  0
   17.6675  -12.6424  -15.4960 C   0  0  0  0  0  0  0  0  0  0  0  0
   17.1106  -13.8311  -14.8000 C   0  0  0  0  0  0  0  0  0  0  0  0
   16.9424  -13.8776  -13.5417 O   0  0  0  0  0  0  0  0  0  0  0  0
   17.4599  -10.1692  -15.8226 C   0  0  0  0  0  0  0  0  0  0  0  0
   16.9312   -9.7877  -16.8971 O   0  0  0  0  0  0  0  0  0  0  0  0
   16.7354  -14.9771  -15.4896 O   0  0  0  0  0  0  0  0  0  0  0  0
   18.5390   -9.4116  -15.3111 N   0  0  0  0  0  0  0  0  0  0  0  0
   19.1004   -8.2386  -15.8787 C   0  0  0  0  0  0  0  0  0  0  0  0
   20.2297   -7.6328  -15.1700 C   0  0  0  0  0  0  0  0  0  0  0  0
   20.6017   -8.1043  -14.0340 O   0  0  0  0  0  0  0  0  0  0  0  0
   24.0040   -4.6253  -14.7811 O   0  0  0  0  0  0  0  0  0  0  0  0
   22.9136   -4.9713  -15.5806 C   0  0  0  0  0  0  0  0  0  0  0  0
   22.1322   -6.0173  -14.8482 C   0  0  2  0  0  0  0  0  0  0  0  0
   21.0104   -6.5297  -15.6048 N   0  0  0  0  0  0  0  0  0  0  0  0
   21.6986   -5.4429  -13.5442 C   0  0  0  0  0  0  0  0  0  0  0  0
   22.4021   -5.6146  -12.3821 O   0  0  0  0  0  0  0  0  0  0  0  0
   20.6332   -4.7739  -13.5396 O   0  0  0  0  0  0  0  0  0  0  0  0
  2  1  1  6
  2  3  1  0
  3  4  1  0
  4  5  2  0
  6  2  1  0
  6  7  2  0
  8  4  1  0
  9  6  1  0
 10 11  1  0
 10  9  1  0
 11 16  1  0
 12 11  2  0
 14 13  1  0
 15 14  1  6
 15 17  1  0
 16 15  1  0
 17 19  2  0
 17 18  1  0
M  END
$$$$
