DGS.pdb
     RDKit          3D

 19 18  0  0  1  0  0  0  0  0999 V2000
   16.5067   -9.8193  -14.5382 N   0  0  0  0  0  0  0  0  0  0  0  0
   17.4811  -10.5938  -13.8443 C   0  0  1  0  0  0  0  0  0  0  0  0
   18.7916  -10.5125  -14.5694 C   0  0  0  0  0  0  0  0  0  0  0  0
   18.8711  -11.4740  -15.6993 C   0  0  0  0  0  0  0  0  0  0  0  0
   18.1442  -12.5131  -15.7732 O   0  0  0  0  0  0  0  0  0  0  0  0
   17.5721  -10.2757  -12.3961 C   0  0  0  0  0  0  0  0  0  0  0  0
   18.2611  -11.0150  -11.6487 O   0  0  0  0  0  0  0  0  0  0  0  0
   19.7547  -11.2940  -16.7560 O   0  0  0  0  0  0  0  0  0  0  0  0
   16.9162   -9.1691  -11.8087 N   0  0  0  0  0  0  0  0  0  0  0  0
   16.9331   -8.7977  -10.4393 C   0  0  0  0  0  0  0  0  0  0  0  0
   16.0178   -7.7306  -10.0293 C   0  0  0  0  0  0  0  0  0  0  0  0
   15.3796   -7.0562  -10.9175 O   0  0  0  0  0  0  0  0  0  0  0  0
   14.0749   -7.2714   -6.4694 O   0  0  0  0  0  0  0  0  0  0  0  0
   14.5874   -6.0570   -6.9280 C   0  0  0  0  0  0  0  0  0  0  0  0
   14.8626   -6.2085   -8.3917 C   0  0  2  0  0  0  0  0  0  0  0  0
   15.7289   -7.3257   -8.6996 N   0  0  0  0  0  0  0  0  0  0  0  0
   15.4250   -4.9234   -8.8925 C   0  0  0  0  0  0  0  0  0  0  0  0
   16.7177   -4.7923   -9.3242 O   0  0  0  0  0  0  0  0  0  0  0  0
   14.6544   -3.9292   -8.9084 O   0  0  0  0  0  0  0  0  0  0  0  0
  2  1  1  6
  2  3  1  0
  3  4  1  0
  4  5  2  0
  6  2  1  0
  6  7  2  0
  8  4  1  0
  9  6  1  0
 10 11  1  0
 10  9  1  0
 11 16  1  0
 12 11  2  0
 14 13  1  0
 15 14  1  1
 15 17  1  0
 16 15  1  0
 17 19  2  0
 17 18  1  0
M  END
$$$$
