DGS.pdb
     RDKit          3D

 19 18  0  0  1  0  0  0  0  0999 V2000
   18.6459  -10.9156  -16.9193 N   0  0  0  0  0  0  0  0  0  0  0  0
   19.6456  -11.6784  -16.2488 C   0  0  1  0  0  0  0  0  0  0  0  0
   20.1484  -12.7555  -17.1635 C   0  0  0  0  0  0  0  0  0  0  0  0
   19.1372  -13.8202  -17.3898 C   0  0  0  0  0  0  0  0  0  0  0  0
   18.1254  -13.9813  -16.6389 O   0  0  0  0  0  0  0  0  0  0  0  0
   20.7202  -10.8496  -15.6445 C   0  0  0  0  0  0  0  0  0  0  0  0
   21.7423  -11.4151  -15.1807 O   0  0  0  0  0  0  0  0  0  0  0  0
   19.2370  -14.7148  -18.4479 O   0  0  0  0  0  0  0  0  0  0  0  0
   20.6514   -9.4392  -15.5651 N   0  0  0  0  0  0  0  0  0  0  0  0
   21.6461   -8.5656  -15.0545 C   0  0  0  0  0  0  0  0  0  0  0  0
   21.3762   -7.1289  -15.1414 C   0  0  0  0  0  0  0  0  0  0  0  0
   20.5438   -6.6841  -16.0133 O   0  0  0  0  0  0  0  0  0  0  0  0
   21.5944   -2.5928  -13.4704 O   0  0  0  0  0  0  0  0  0  0  0  0
   22.2075   -3.8451  -13.4093 C   0  0  0  0  0  0  0  0  0  0  0  0
   21.5399   -4.7231  -14.4215 C   0  0  2  0  0  0  0  0  0  0  0  0
   21.9488   -6.1085  -14.3376 N   0  0  0  0  0  0  0  0  0  0  0  0
   21.8022   -4.1542  -15.7728 C   0  0  0  0  0  0  0  0  0  0  0  0
   20.9086   -3.3526  -16.4314 O   0  0  0  0  0  0  0  0  0  0  0  0
   22.9033   -4.4396  -16.3099 O   0  0  0  0  0  0  0  0  0  0  0  0
  2  1  1  6
  2  3  1  0
  3  4  1  0
  4  5  2  0
  6  2  1  0
  6  7  2  0
  8  4  1  0
  9  6  1  0
 10 11  1  0
 10  9  1  0
 11 16  1  0
 12 11  2  0
 14 13  1  0
 15 14  1  1
 15 17  1  0
 16 15  1  0
 17 19  2  0
 17 18  1  0
M  END
$$$$
