DGS.pdb
     RDKit          3D

 19 18  0  0  1  0  0  0  0  0999 V2000
   20.5560  -11.7126  -18.3846 N   0  0  0  0  0  0  0  0  0  0  0  0
   20.6510  -11.9706  -16.9864 C   0  0  1  0  0  0  0  0  0  0  0  0
   21.2628  -13.3226  -16.7688 C   0  0  0  0  0  0  0  0  0  0  0  0
   20.3411  -14.4255  -17.1448 C   0  0  0  0  0  0  0  0  0  0  0  0
   19.0839  -14.3621  -16.9741 O   0  0  0  0  0  0  0  0  0  0  0  0
   21.3112  -10.8798  -16.2241 C   0  0  0  0  0  0  0  0  0  0  0  0
   21.3664  -10.9549  -14.9707 O   0  0  0  0  0  0  0  0  0  0  0  0
   20.8021  -15.6067  -17.7123 O   0  0  0  0  0  0  0  0  0  0  0  0
   21.8891   -9.7480  -16.8447 N   0  0  0  0  0  0  0  0  0  0  0  0
   22.6256   -8.7132  -16.2122 C   0  0  0  0  0  0  0  0  0  0  0  0
   21.8855   -7.5079  -15.8325 C   0  0  0  0  0  0  0  0  0  0  0  0
   20.7452   -7.2593  -16.3701 O   0  0  0  0  0  0  0  0  0  0  0  0
   19.4208   -4.6807  -13.6142 O   0  0  0  0  0  0  0  0  0  0  0  0
   20.1583   -5.8362  -13.8767 C   0  0  0  0  0  0  0  0  0  0  0  0
   21.4481   -5.4133  -14.5080 C   0  0  2  0  0  0  0  0  0  0  0  0
   22.2906   -6.5254  -14.8913 N   0  0  0  0  0  0  0  0  0  0  0  0
   22.1459   -4.4953  -13.5653 C   0  0  0  0  0  0  0  0  0  0  0  0
   23.1818   -4.8947  -12.7639 O   0  0  0  0  0  0  0  0  0  0  0  0
   21.7442   -3.3039  -13.5242 O   0  0  0  0  0  0  0  0  0  0  0  0
  2  1  1  6
  2  3  1  0
  3  4  1  0
  4  5  2  0
  6  2  1  0
  6  7  2  0
  8  4  1  0
  9  6  1  0
 10 11  1  0
 10  9  1  0
 11 16  1  0
 12 11  2  0
 14 13  1  0
 15 14  1  1
 15 17  1  0
 16 15  1  0
 17 19  2  0
 17 18  1  0
M  END
$$$$
