DGS.pdb
     RDKit          3D

 19 18  0  0  1  0  0  0  0  0999 V2000
   19.1209   -9.4560  -18.3626 N   0  0  0  0  0  0  0  0  0  0  0  0
   18.2779   -9.8997  -17.3028 C   0  0  1  0  0  0  0  0  0  0  0  0
   19.0050  -10.9230  -16.4820 C   0  0  0  0  0  0  0  0  0  0  0  0
   19.1061  -12.2333  -17.1750 C   0  0  0  0  0  0  0  0  0  0  0  0
   18.2996  -12.5949  -18.0874 O   0  0  0  0  0  0  0  0  0  0  0  0
   17.6923   -8.7916  -16.5053 C   0  0  0  0  0  0  0  0  0  0  0  0
   16.8997   -9.0635  -15.5685 O   0  0  0  0  0  0  0  0  0  0  0  0
   20.0993  -13.1536  -16.8647 O   0  0  0  0  0  0  0  0  0  0  0  0
   17.9862   -7.4298  -16.7485 N   0  0  0  0  0  0  0  0  0  0  0  0
   17.5418   -6.3146  -15.9922 C   0  0  0  0  0  0  0  0  0  0  0  0
   18.5656   -5.5384  -15.2893 C   0  0  0  0  0  0  0  0  0  0  0  0
   18.2305   -4.4988  -14.6125 O   0  0  0  0  0  0  0  0  0  0  0  0
   22.5496   -5.3354  -12.7397 O   0  0  0  0  0  0  0  0  0  0  0  0
   21.7750   -6.0895  -13.6225 C   0  0  0  0  0  0  0  0  0  0  0  0
   20.8634   -5.1446  -14.3417 C   0  0  2  0  0  0  0  0  0  0  0  0
   19.9595   -5.8056  -15.2580 N   0  0  0  0  0  0  0  0  0  0  0  0
   21.7033   -4.1291  -15.0358 C   0  0  0  0  0  0  0  0  0  0  0  0
   22.4183   -3.1703  -14.3693 O   0  0  0  0  0  0  0  0  0  0  0  0
   21.7388   -4.1781  -16.2923 O   0  0  0  0  0  0  0  0  0  0  0  0
  2  1  1  6
  2  3  1  0
  3  4  1  0
  4  5  2  0
  6  2  1  0
  6  7  2  0
  8  4  1  0
  9  6  1  0
 10 11  1  0
 10  9  1  0
 11 16  1  0
 12 11  2  0
 14 13  1  0
 15 14  1  6
 15 17  1  0
 16 15  1  0
 17 19  2  0
 17 18  1  0
M  END
$$$$
