DGS.pdb
     RDKit          3D

 19 18  0  0  1  0  0  0  0  0999 V2000
   19.3027  -11.0960  -16.7828 N   0  0  0  0  0  0  0  0  0  0  0  0
   18.4356  -11.0017  -15.6558 C   0  0  1  0  0  0  0  0  0  0  0  0
   18.3214  -12.3459  -15.0003 C   0  0  0  0  0  0  0  0  0  0  0  0
   17.7024  -13.3582  -15.8946 C   0  0  0  0  0  0  0  0  0  0  0  0
   16.7460  -13.0871  -16.6854 O   0  0  0  0  0  0  0  0  0  0  0  0
   18.7924   -9.9032  -14.7215 C   0  0  0  0  0  0  0  0  0  0  0  0
   18.1633   -9.7911  -13.6392 O   0  0  0  0  0  0  0  0  0  0  0  0
   18.1361  -14.6776  -15.9213 O   0  0  0  0  0  0  0  0  0  0  0  0
   19.8174   -8.9667  -14.9906 N   0  0  0  0  0  0  0  0  0  0  0  0
   20.3025   -7.9603  -14.1158 C   0  0  0  0  0  0  0  0  0  0  0  0
   21.4010   -7.1260  -14.6075 C   0  0  0  0  0  0  0  0  0  0  0  0
   22.3783   -7.6630  -15.2458 O   0  0  0  0  0  0  0  0  0  0  0  0
   22.7792   -4.3266  -17.5857 O   0  0  0  0  0  0  0  0  0  0  0  0
   21.9119   -5.0977  -16.8104 C   0  0  0  0  0  0  0  0  0  0  0  0
   22.2965   -4.9036  -15.3767 C   0  0  2  0  0  0  0  0  0  0  0  0
   21.5286   -5.7197  -14.4614 N   0  0  0  0  0  0  0  0  0  0  0  0
   22.1727   -3.4543  -15.0562 C   0  0  0  0  0  0  0  0  0  0  0  0
   23.2037   -2.5659  -15.2068 O   0  0  0  0  0  0  0  0  0  0  0  0
   21.0584   -3.0559  -14.6294 O   0  0  0  0  0  0  0  0  0  0  0  0
  2  1  1  6
  2  3  1  0
  3  4  1  0
  4  5  2  0
  6  2  1  0
  6  7  2  0
  8  4  1  0
  9  6  1  0
 10 11  1  0
 10  9  1  0
 11 16  1  0
 12 11  2  0
 14 13  1  0
 15 14  1  6
 15 17  1  0
 16 15  1  0
 17 19  2  0
 17 18  1  0
M  END
$$$$
