DGS.pdb
     RDKit          3D

 19 18  0  0  1  0  0  0  0  0999 V2000
   17.5876  -11.3839  -14.9180 N   0  0  0  0  0  0  0  0  0  0  0  0
   16.6983  -10.7251  -15.8156 C   0  0  1  0  0  0  0  0  0  0  0  0
   15.3409  -10.6205  -15.1861 C   0  0  0  0  0  0  0  0  0  0  0  0
   14.7811  -11.9498  -14.8295 C   0  0  0  0  0  0  0  0  0  0  0  0
   14.8134  -12.4174  -13.6489 O   0  0  0  0  0  0  0  0  0  0  0  0
   17.2239   -9.4360  -16.3340 C   0  0  0  0  0  0  0  0  0  0  0  0
   16.6422   -8.8815  -17.3003 O   0  0  0  0  0  0  0  0  0  0  0  0
   14.1815  -12.7718  -15.7752 O   0  0  0  0  0  0  0  0  0  0  0  0
   18.3586   -8.7924  -15.7878 N   0  0  0  0  0  0  0  0  0  0  0  0
   18.9432   -7.5772  -16.2294 C   0  0  0  0  0  0  0  0  0  0  0  0
   20.0977   -7.0833  -15.4759 C   0  0  0  0  0  0  0  0  0  0  0  0
   20.3250   -7.5220  -14.2897 O   0  0  0  0  0  0  0  0  0  0  0  0
   24.2374   -4.6178  -15.0049 O   0  0  0  0  0  0  0  0  0  0  0  0
   23.1365   -4.8249  -15.8373 C   0  0  0  0  0  0  0  0  0  0  0  0
   22.1907   -5.7334  -15.1155 C   0  0  2  0  0  0  0  0  0  0  0  0
   21.0522   -6.1290  -15.9159 N   0  0  0  0  0  0  0  0  0  0  0  0
   21.7689   -5.0574  -13.8571 C   0  0  0  0  0  0  0  0  0  0  0  0
   22.4059   -5.2445  -12.6596 O   0  0  0  0  0  0  0  0  0  0  0  0
   20.7788   -4.2844  -13.9270 O   0  0  0  0  0  0  0  0  0  0  0  0
  2  1  1  1
  2  3  1  0
  3  4  1  0
  4  5  2  0
  6  2  1  0
  6  7  2  0
  8  4  1  0
  9  6  1  0
 10 11  1  0
 10  9  1  0
 11 16  1  0
 12 11  2  0
 14 13  1  0
 15 14  1  6
 15 17  1  0
 16 15  1  0
 17 19  2  0
 17 18  1  0
M  END
$$$$
