DGS.pdb
     RDKit          3D

 19 18  0  0  1  0  0  0  0  0999 V2000
   16.5612  -11.0999  -15.7294 N   0  0  0  0  0  0  0  0  0  0  0  0
   17.9820  -11.2100  -15.7299 C   0  0  1  0  0  0  0  0  0  0  0  0
   18.3979  -12.2953  -16.6779 C   0  0  0  0  0  0  0  0  0  0  0  0
   17.9358  -13.6367  -16.2367 C   0  0  0  0  0  0  0  0  0  0  0  0
   18.1697  -14.0998  -15.0772 O   0  0  0  0  0  0  0  0  0  0  0  0
   18.6783   -9.9164  -15.9506 C   0  0  0  0  0  0  0  0  0  0  0  0
   19.9289   -9.8667  -15.8358 O   0  0  0  0  0  0  0  0  0  0  0  0
   17.2118  -14.4761  -17.0739 O   0  0  0  0  0  0  0  0  0  0  0  0
   17.9974   -8.7240  -16.2890 N   0  0  0  0  0  0  0  0  0  0  0  0
   18.5735   -7.4440  -16.4963 C   0  0  0  0  0  0  0  0  0  0  0  0
   19.1784   -6.7917  -15.3330 C   0  0  0  0  0  0  0  0  0  0  0  0
   18.5219   -6.7064  -14.2317 O   0  0  0  0  0  0  0  0  0  0  0  0
   22.9032   -7.0462  -14.1962 O   0  0  0  0  0  0  0  0  0  0  0  0
   21.9053   -6.6367  -13.3105 C   0  0  0  0  0  0  0  0  0  0  0  0
   21.0240   -5.6713  -14.0401 C   0  0  2  0  0  0  0  0  0  0  0  0
   20.4720   -6.2110  -15.2639 N   0  0  0  0  0  0  0  0  0  0  0  0
   21.8065   -4.4292  -14.2917 C   0  0  0  0  0  0  0  0  0  0  0  0
   22.0661   -3.9524  -15.5487 O   0  0  0  0  0  0  0  0  0  0  0  0
   22.2364   -3.8099  -13.2846 O   0  0  0  0  0  0  0  0  0  0  0  0
  2  1  1  6
  2  3  1  0
  3  4  1  0
  4  5  2  0
  6  2  1  0
  6  7  2  0
  8  4  1  0
  9  6  1  0
 10 11  1  0
 10  9  1  0
 11 16  1  0
 12 11  2  0
 14 13  1  0
 15 14  1  6
 15 17  1  0
 16 15  1  0
 17 19  2  0
 17 18  1  0
M  END
$$$$
