DGS.pdb
     RDKit          3D

 19 18  0  0  1  0  0  0  0  0999 V2000
   17.6098  -12.3455  -14.6515 N   0  0  0  0  0  0  0  0  0  0  0  0
   18.1537  -12.6451  -15.9342 C   0  0  1  0  0  0  0  0  0  0  0  0
   17.0373  -12.8346  -16.9177 C   0  0  0  0  0  0  0  0  0  0  0  0
   16.1467  -13.9651  -16.5486 C   0  0  0  0  0  0  0  0  0  0  0  0
   16.5454  -15.1702  -16.5016 O   0  0  0  0  0  0  0  0  0  0  0  0
   19.1928  -11.6812  -16.3792 C   0  0  0  0  0  0  0  0  0  0  0  0
   19.8552  -11.9308  -17.4177 O   0  0  0  0  0  0  0  0  0  0  0  0
   14.8088  -13.7718  -16.2285 O   0  0  0  0  0  0  0  0  0  0  0  0
   19.4770  -10.4817  -15.6860 N   0  0  0  0  0  0  0  0  0  0  0  0
   20.4577   -9.5140  -16.0252 C   0  0  0  0  0  0  0  0  0  0  0  0
   20.4828   -8.2861  -15.2277 C   0  0  0  0  0  0  0  0  0  0  0  0
   19.4702   -7.9717  -14.5018 O   0  0  0  0  0  0  0  0  0  0  0  0
   22.6622   -4.4525  -13.2523 O   0  0  0  0  0  0  0  0  0  0  0  0
   22.7875   -5.4276  -14.2429 C   0  0  0  0  0  0  0  0  0  0  0  0
   21.4888   -6.1690  -14.3118 C   0  0  2  0  0  0  0  0  0  0  0  0
   21.5450   -7.3476  -15.1492 N   0  0  0  0  0  0  0  0  0  0  0  0
   20.4372   -5.2192  -14.7705 C   0  0  0  0  0  0  0  0  0  0  0  0
   19.6698   -4.4823  -13.9086 O   0  0  0  0  0  0  0  0  0  0  0  0
   20.2680   -5.1090  -16.0122 O   0  0  0  0  0  0  0  0  0  0  0  0
  2  1  1  1
  2  3  1  0
  3  4  1  0
  4  5  2  0
  6  2  1  0
  6  7  2  0
  8  4  1  0
  9  6  1  0
 10 11  1  0
 10  9  1  0
 11 16  1  0
 12 11  2  0
 14 13  1  0
 15 14  1  6
 15 17  1  0
 16 15  1  0
 17 19  2  0
 17 18  1  0
M  END
$$$$
