DGS.pdb
     RDKit          3D

 19 18  0  0  1  0  0  0  0  0999 V2000
   18.3541  -10.6658  -18.5955 N   0  0  0  0  0  0  0  0  0  0  0  0
   19.6690  -11.0169  -18.1731 C   0  0  1  0  0  0  0  0  0  0  0  0
   20.2763  -11.9627  -19.1662 C   0  0  0  0  0  0  0  0  0  0  0  0
   19.5211  -13.2385  -19.2641 C   0  0  0  0  0  0  0  0  0  0  0  0
   19.3472  -14.0148  -18.2738 O   0  0  0  0  0  0  0  0  0  0  0  0
   20.5243   -9.8445  -17.8554 C   0  0  0  0  0  0  0  0  0  0  0  0
   21.6691  -10.0343  -17.3727 O   0  0  0  0  0  0  0  0  0  0  0  0
   18.9526  -13.6656  -20.4575 O   0  0  0  0  0  0  0  0  0  0  0  0
   20.1113   -8.5095  -18.0726 N   0  0  0  0  0  0  0  0  0  0  0  0
   20.8822   -7.3358  -17.8688 C   0  0  0  0  0  0  0  0  0  0  0  0
   20.5838   -6.5445  -16.6733 C   0  0  0  0  0  0  0  0  0  0  0  0
   19.4323   -6.6405  -16.1113 O   0  0  0  0  0  0  0  0  0  0  0  0
   22.6166   -6.0264  -13.4907 O   0  0  0  0  0  0  0  0  0  0  0  0
   21.2677   -5.6762  -13.5666 C   0  0  0  0  0  0  0  0  0  0  0  0
   21.0744   -4.9005  -14.8322 C   0  0  2  0  0  0  0  0  0  0  0  0
   21.4557   -5.6350  -16.0191 N   0  0  0  0  0  0  0  0  0  0  0  0
   21.8293   -3.6222  -14.7116 C   0  0  0  0  0  0  0  0  0  0  0  0
   21.5244   -2.6598  -13.7865 O   0  0  0  0  0  0  0  0  0  0  0  0
   22.7860   -3.4452  -15.5090 O   0  0  0  0  0  0  0  0  0  0  0  0
  2  1  1  6
  2  3  1  0
  3  4  1  0
  4  5  2  0
  6  2  1  0
  6  7  2  0
  8  4  1  0
  9  6  1  0
 10 11  1  0
 10  9  1  0
 11 16  1  0
 12 11  2  0
 14 13  1  0
 15 14  1  1
 15 17  1  0
 16 15  1  0
 17 19  2  0
 17 18  1  0
M  END
$$$$
