DRK.pdb
     RDKit          3D

 29 28  0  0  1  0  0  0  0  0999 V2000
   19.5236  -23.0341  -15.2079 N   0  0  0  0  0  0  0  0  0  0  0  0
   19.7366  -22.2755  -16.4587 C   0  0  1  0  0  0  0  0  0  0  0  0
   20.3562  -20.9459  -16.1223 C   0  0  0  0  0  0  0  0  0  0  0  0
   19.5350  -20.1341  -15.2275 C   0  0  0  0  0  0  0  0  0  0  0  0
   20.1226  -19.5971  -14.2350 O   0  0  0  0  0  0  0  0  0  0  0  0
   20.5560  -23.0978  -17.3873 C   0  0  0  0  0  0  0  0  0  0  0  0
   21.0678  -22.7038  -18.4527 O   0  0  0  0  0  0  0  0  0  0  0  0
   18.1972  -19.8920  -15.3436 O   0  0  0  0  0  0  0  0  0  0  0  0
   27.2986  -28.5172  -16.9322 N   0  0  0  0  0  0  0  0  0  0  0  0
   26.9379  -27.2716  -16.3778 C   0  0  0  0  0  0  0  0  0  0  0  0
   27.8582  -26.4466  -16.0182 N   0  0  0  0  0  0  0  0  0  0  0  0
   25.5958  -26.8638  -16.1896 N   0  0  0  0  0  0  0  0  0  0  0  0
   24.4351  -27.6449  -16.4735 C   0  0  0  0  0  0  0  0  0  0  0  0
   23.5026  -27.0095  -17.4652 C   0  0  0  0  0  0  0  0  0  0  0  0
   22.6378  -25.9343  -16.8709 C   0  0  0  0  0  0  0  0  0  0  0  0
   21.6624  -25.3234  -17.8407 C   0  0  2  0  0  0  0  0  0  0  0  0
   20.7919  -24.4639  -17.0487 N   0  0  0  0  0  0  0  0  0  0  0  0
   20.8515  -26.3431  -18.5773 C   0  0  0  0  0  0  0  0  0  0  0  0
   19.9215  -26.9780  -18.0235 O   0  0  0  0  0  0  0  0  0  0  0  0
   27.6299  -25.4807  -15.7152 N   0  0  0  0  0  0  0  0  0  0  0  0
   21.1021  -26.6364  -19.9391 C   0  0  2  0  0  0  0  0  0  0  0  0
   20.2813  -27.5516  -20.7382 C   0  0  0  0  0  0  0  0  0  0  0  0
   20.3535  -27.2987  -22.1902 C   0  0  0  0  0  0  0  0  0  0  0  0
   19.6371  -28.0731  -23.1771 C   0  0  0  0  0  0  0  0  0  0  0  0
   19.6363  -27.9621  -24.6062 C   0  0  0  0  0  0  0  0  0  0  0  0
   18.9039  -28.8001  -25.5467 N   0  0  0  0  0  0  0  0  0  0  0  0
   19.3054  -28.3582  -26.9202 C   0  0  0  0  0  0  0  0  0  0  0  0
   20.4923  -28.9004  -20.2321 O   0  0  0  0  0  0  0  0  0  0  0  0
   19.4446  -29.7763  -20.0251 O   0  0  0  0  0  0  0  0  0  0  0  0
  2  1  1  1
  2  3  1  0
  4  3  1  0
  4  8  1  0
  5  4  2  0
  6  2  1  0
  6  7  2  0
  9 10  1  0
 10 12  1  0
 11 10  2  0
 12 13  1  0
 13 14  1  0
 15 14  1  0
 16 15  1  1
 16 17  1  0
 17  6  1  0
 18 16  1  0
 19 18  2  0
 20 18  1  0
 21 22  1  6
 21 20  1  0
 22 23  1  0
 23 24  1  0
 25 24  1  0
 26 25  1  0
 27 28  1  0
 27 21  1  0
 29 27  2  0
M  END
$$$$
