DRK.pdb
     RDKit          3D

 29 28  0  0  1  0  0  0  0  0999 V2000
   28.2980  -20.4208  -16.0659 N   0  0  0  0  0  0  0  0  0  0  0  0
   27.1682  -21.0395  -16.7911 C   0  0  1  0  0  0  0  0  0  0  0  0
   27.7019  -22.1183  -17.6946 C   0  0  0  0  0  0  0  0  0  0  0  0
   28.6974  -21.6350  -18.6483 C   0  0  0  0  0  0  0  0  0  0  0  0
   28.7663  -20.3763  -18.8210 O   0  0  0  0  0  0  0  0  0  0  0  0
   26.1710  -21.5282  -15.8029 C   0  0  0  0  0  0  0  0  0  0  0  0
   25.3428  -22.4396  -15.9916 O   0  0  0  0  0  0  0  0  0  0  0  0
   29.5638  -22.3954  -19.3784 O   0  0  0  0  0  0  0  0  0  0  0  0
   29.3194  -21.0530   -8.9481 N   0  0  0  0  0  0  0  0  0  0  0  0
   30.0029  -21.4473  -10.1170 C   0  0  0  0  0  0  0  0  0  0  0  0
   31.0933  -22.1241  -10.0167 N   0  0  0  0  0  0  0  0  0  0  0  0
   29.5525  -21.1383  -11.4226 N   0  0  0  0  0  0  0  0  0  0  0  0
   28.3016  -20.5373  -11.7571 C   0  0  0  0  0  0  0  0  0  0  0  0
   27.1556  -21.5073  -11.8076 C   0  0  0  0  0  0  0  0  0  0  0  0
   25.8446  -20.8678  -12.1675 C   0  0  0  0  0  0  0  0  0  0  0  0
   25.2493  -21.3683  -13.4559 C   0  0  2  0  0  0  0  0  0  0  0  0
   26.1414  -20.9140  -14.5150 N   0  0  0  0  0  0  0  0  0  0  0  0
   23.8615  -20.8623  -13.6960 C   0  0  0  0  0  0  0  0  0  0  0  0
   23.6115  -19.6377  -13.8085 O   0  0  0  0  0  0  0  0  0  0  0  0
   31.6326  -22.4075  -10.8568 N   0  0  0  0  0  0  0  0  0  0  0  0
   22.7649  -21.7505  -13.8064 C   0  0  2  0  0  0  0  0  0  0  0  0
   21.3773  -21.3111  -13.9837 C   0  0  0  0  0  0  0  0  0  0  0  0
   20.5902  -22.1797  -14.8801 C   0  0  0  0  0  0  0  0  0  0  0  0
   19.1973  -21.9592  -15.1930 C   0  0  0  0  0  0  0  0  0  0  0  0
   18.3173  -22.7101  -16.0395 C   0  0  0  0  0  0  0  0  0  0  0  0
   16.9396  -22.3795  -16.3793 N   0  0  0  0  0  0  0  0  0  0  0  0
   16.4142  -23.5158  -17.2014 C   0  0  0  0  0  0  0  0  0  0  0  0
   20.8472  -20.9617  -12.6734 O   0  0  0  0  0  0  0  0  0  0  0  0
   19.8817  -19.9873  -12.5110 O   0  0  0  0  0  0  0  0  0  0  0  0
  2  1  1  1
  2  3  1  0
  4  3  1  0
  4  8  1  0
  5  4  2  0
  6  2  1  0
  6  7  2  0
  9 10  1  0
 10 12  1  0
 11 10  2  0
 12 13  1  0
 13 14  1  0
 15 14  1  0
 16 15  1  1
 16 17  1  0
 17  6  1  0
 18 16  1  0
 19 18  2  0
 20 18  1  0
 21 22  1  6
 21 20  1  0
 22 23  1  0
 23 24  1  0
 25 24  1  0
 26 25  1  0
 27 28  1  0
 27 21  1  0
 29 27  2  0
M  END
$$$$
