DRK.pdb
     RDKit          3D

 29 28  0  0  1  0  0  0  0  0999 V2000
   27.7265  -22.1840  -17.1424 N   0  0  0  0  0  0  0  0  0  0  0  0
   27.0264  -21.0348  -16.5303 C   0  0  1  0  0  0  0  0  0  0  0  0
   26.6248  -20.0743  -17.6170 C   0  0  0  0  0  0  0  0  0  0  0  0
   27.7334  -19.2599  -18.1088 C   0  0  0  0  0  0  0  0  0  0  0  0
   28.8722  -19.4548  -17.5759 O   0  0  0  0  0  0  0  0  0  0  0  0
   25.8817  -21.5399  -15.7275 C   0  0  0  0  0  0  0  0  0  0  0  0
   25.0389  -22.3765  -16.1044 O   0  0  0  0  0  0  0  0  0  0  0  0
   27.6751  -18.3061  -19.0828 O   0  0  0  0  0  0  0  0  0  0  0  0
   26.4391  -19.4363   -7.9638 N   0  0  0  0  0  0  0  0  0  0  0  0
   25.5914  -20.5170   -8.2838 C   0  0  0  0  0  0  0  0  0  0  0  0
   24.5547  -20.7473   -7.5563 N   0  0  0  0  0  0  0  0  0  0  0  0
   25.8153  -21.3823   -9.3810 N   0  0  0  0  0  0  0  0  0  0  0  0
   26.8007  -21.2069  -10.3990 C   0  0  0  0  0  0  0  0  0  0  0  0
   26.2311  -20.8350  -11.7384 C   0  0  0  0  0  0  0  0  0  0  0  0
   25.1716  -21.7833  -12.2233 C   0  0  0  0  0  0  0  0  0  0  0  0
   24.5866  -21.4199  -13.5615 C   0  0  2  0  0  0  0  0  0  0  0  0
   25.7131  -21.0365  -14.4028 N   0  0  0  0  0  0  0  0  0  0  0  0
   23.5949  -20.3018  -13.4836 C   0  0  0  0  0  0  0  0  0  0  0  0
   23.9036  -19.1194  -13.7692 O   0  0  0  0  0  0  0  0  0  0  0  0
   23.9172  -21.5405   -7.7596 N   0  0  0  0  0  0  0  0  0  0  0  0
   22.2578  -20.5329  -13.0809 C   0  0  1  0  0  0  0  0  0  0  0  0
   21.1181  -19.7396  -13.5518 C   0  0  0  0  0  0  0  0  0  0  0  0
   21.0997  -19.5375  -15.0134 C   0  0  0  0  0  0  0  0  0  0  0  0
   20.1075  -18.7452  -15.7024 C   0  0  0  0  0  0  0  0  0  0  0  0
   19.9708  -18.4598  -17.1004 C   0  0  0  0  0  0  0  0  0  0  0  0
   18.9029  -17.6990  -17.7360 N   0  0  0  0  0  0  0  0  0  0  0  0
   19.2425  -17.6140  -19.1921 C   0  0  0  0  0  0  0  0  0  0  0  0
   19.9233  -20.2284  -12.8786 O   0  0  0  0  0  0  0  0  0  0  0  0
   19.0450  -19.3770  -12.2370 O   0  0  0  0  0  0  0  0  0  0  0  0
  2  1  1  6
  2  3  1  0
  4  3  1  0
  4  8  1  0
  5  4  2  0
  6  2  1  0
  6  7  2  0
  9 10  1  0
 10 12  1  0
 11 10  2  0
 12 13  1  0
 13 14  1  0
 15 14  1  0
 16 15  1  1
 16 17  1  0
 17  6  1  0
 18 16  1  0
 19 18  2  0
 20 18  1  0
 21 22  1  1
 21 20  1  0
 22 23  1  0
 23 24  1  0
 25 24  1  0
 26 25  1  0
 27 28  1  0
 27 21  1  0
 29 27  2  0
M  END
$$$$
