DRK.pdb
     RDKit          3D

 29 28  0  0  1  0  0  0  0  0999 V2000
   20.4495   -8.0365  -13.0400 N   0  0  0  0  0  0  0  0  0  0  0  0
   19.9727   -6.9409  -12.1696 C   0  0  1  0  0  0  0  0  0  0  0  0
   20.4156   -5.6268  -12.7543 C   0  0  0  0  0  0  0  0  0  0  0  0
   21.8677   -5.4765  -12.8073 C   0  0  0  0  0  0  0  0  0  0  0  0
   22.5270   -5.8923  -11.8017 O   0  0  0  0  0  0  0  0  0  0  0  0
   18.4992   -7.0573  -12.0117 C   0  0  0  0  0  0  0  0  0  0  0  0
   17.6908   -7.3612  -12.9097 O   0  0  0  0  0  0  0  0  0  0  0  0
   22.5946   -4.9324  -13.8259 O   0  0  0  0  0  0  0  0  0  0  0  0
   12.2647   -8.5987   -9.3556 N   0  0  0  0  0  0  0  0  0  0  0  0
   12.2405   -8.5041   -7.9487 C   0  0  0  0  0  0  0  0  0  0  0  0
   11.1434   -8.1910   -7.3524 N   0  0  0  0  0  0  0  0  0  0  0  0
   13.3738   -8.7386   -7.1341 N   0  0  0  0  0  0  0  0  0  0  0  0
   14.7123   -8.3360   -7.4247 C   0  0  0  0  0  0  0  0  0  0  0  0
   14.8840   -7.7396   -8.7928 C   0  0  0  0  0  0  0  0  0  0  0  0
   16.3019   -7.3524   -9.1040 C   0  0  0  0  0  0  0  0  0  0  0  0
   16.4986   -6.8003  -10.4902 C   0  0  2  0  0  0  0  0  0  0  0  0
   17.9369   -6.8037  -10.7247 N   0  0  0  0  0  0  0  0  0  0  0  0
   15.9511   -5.4170  -10.6535 C   0  0  0  0  0  0  0  0  0  0  0  0
   16.4927   -4.4209  -10.1157 O   0  0  0  0  0  0  0  0  0  0  0  0
   11.0863   -8.1400   -6.3175 N   0  0  0  0  0  0  0  0  0  0  0  0
   14.7907   -5.1731  -11.4264 C   0  0  2  0  0  0  0  0  0  0  0  0
   14.2316   -3.8369  -11.6543 C   0  0  0  0  0  0  0  0  0  0  0  0
   13.1042   -3.8202  -12.6061 C   0  0  0  0  0  0  0  0  0  0  0  0
   12.4392   -2.6144  -13.0428 C   0  0  0  0  0  0  0  0  0  0  0  0
   12.0629   -2.2010  -14.3627 C   0  0  0  0  0  0  0  0  0  0  0  0
   11.3372   -0.9906  -14.7251 N   0  0  0  0  0  0  0  0  0  0  0  0
   11.1600   -1.0235  -16.2118 C   0  0  0  0  0  0  0  0  0  0  0  0
   14.0900   -3.1839  -10.3606 O   0  0  0  0  0  0  0  0  0  0  0  0
   14.5880   -1.9179  -10.1218 O   0  0  0  0  0  0  0  0  0  0  0  0
  2  1  1  6
  2  3  1  0
  4  3  1  0
  4  8  1  0
  5  4  2  0
  6  2  1  0
  6  7  2  0
  9 10  1  0
 10 12  1  0
 11 10  2  0
 12 13  1  0
 13 14  1  0
 15 14  1  0
 16 15  1  1
 16 17  1  0
 17  6  1  0
 18 16  1  0
 19 18  2  0
 20 18  1  0
 21 22  1  6
 21 20  1  0
 22 23  1  0
 23 24  1  0
 25 24  1  0
 26 25  1  0
 27 28  1  0
 27 21  1  0
 29 27  2  0
M  END
$$$$
