DRK.pdb
     RDKit          3D

 29 28  0  0  1  0  0  0  0  0999 V2000
   20.5677  -20.3824  -15.0743 N   0  0  0  0  0  0  0  0  0  0  0  0
   20.2501  -18.9447  -15.2069 C   0  0  1  0  0  0  0  0  0  0  0  0
   19.5137  -18.4931  -13.9745 C   0  0  0  0  0  0  0  0  0  0  0  0
   18.1634  -19.0412  -13.8734 C   0  0  0  0  0  0  0  0  0  0  0  0
   17.7535  -19.7471  -14.8494 O   0  0  0  0  0  0  0  0  0  0  0  0
   21.5086  -18.1944  -15.4584 C   0  0  0  0  0  0  0  0  0  0  0  0
   21.5959  -16.9743  -15.6949 O   0  0  0  0  0  0  0  0  0  0  0  0
   17.2906  -18.8730  -12.8381 O   0  0  0  0  0  0  0  0  0  0  0  0
   25.6018  -20.3102  -11.3311 N   0  0  0  0  0  0  0  0  0  0  0  0
   26.4745  -20.8710  -12.2865 C   0  0  0  0  0  0  0  0  0  0  0  0
   26.6691  -22.1434  -12.2986 N   0  0  0  0  0  0  0  0  0  0  0  0
   27.1639  -20.1032  -13.2551 N   0  0  0  0  0  0  0  0  0  0  0  0
   27.1483  -18.6798  -13.3621 C   0  0  0  0  0  0  0  0  0  0  0  0
   26.2849  -18.1637  -14.4780 C   0  0  0  0  0  0  0  0  0  0  0  0
   24.8822  -18.7008  -14.4479 C   0  0  0  0  0  0  0  0  0  0  0  0
   24.0298  -18.2600  -15.6073 C   0  0  2  0  0  0  0  0  0  0  0  0
   22.7400  -18.9152  -15.4309 N   0  0  0  0  0  0  0  0  0  0  0  0
   24.6158  -18.6209  -16.9363 C   0  0  0  0  0  0  0  0  0  0  0  0
   24.2880  -19.6687  -17.5440 O   0  0  0  0  0  0  0  0  0  0  0  0
   27.3256  -22.5834  -12.9711 N   0  0  0  0  0  0  0  0  0  0  0  0
   25.5717  -17.7893  -17.5674 C   0  0  1  0  0  0  0  0  0  0  0  0
   25.6791  -17.6323  -19.0213 C   0  0  0  0  0  0  0  0  0  0  0  0
   24.3797  -17.4445  -19.6951 C   0  0  0  0  0  0  0  0  0  0  0  0
   24.2222  -17.3669  -21.1289 C   0  0  0  0  0  0  0  0  0  0  0  0
   23.0368  -17.1786  -21.9126 C   0  0  0  0  0  0  0  0  0  0  0  0
   22.9495  -17.1299  -23.3662 N   0  0  0  0  0  0  0  0  0  0  0  0
   21.4932  -17.0574  -23.7080 C   0  0  0  0  0  0  0  0  0  0  0  0
   26.7699  -16.7068  -19.2926 O   0  0  0  0  0  0  0  0  0  0  0  0
   27.8373  -17.0504  -20.0991 O   0  0  0  0  0  0  0  0  0  0  0  0
  2  1  1  1
  2  3  1  0
  4  3  1  0
  4  8  1  0
  5  4  2  0
  6  2  1  0
  6  7  2  0
  9 10  1  0
 10 12  1  0
 11 10  2  0
 12 13  1  0
 13 14  1  0
 15 14  1  0
 16 15  1  1
 16 17  1  0
 17  6  1  0
 18 16  1  0
 19 18  2  0
 20 18  1  0
 21 22  1  6
 21 20  1  0
 22 23  1  0
 23 24  1  0
 25 24  1  0
 26 25  1  0
 27 28  1  0
 27 21  1  0
 29 27  2  0
M  END
$$$$
