DRK.pdb
     RDKit          3D

 29 28  0  0  1  0  0  0  0  0999 V2000
   19.7744  -29.0951   -1.7188 N   0  0  0  0  0  0  0  0  0  0  0  0
   18.5892  -28.9795   -2.5949 C   0  0  1  0  0  0  0  0  0  0  0  0
   17.3596  -29.3236   -1.7983 C   0  0  0  0  0  0  0  0  0  0  0  0
   17.0994  -30.7592   -1.7260 C   0  0  0  0  0  0  0  0  0  0  0  0
   17.7028  -31.4973   -2.5687 O   0  0  0  0  0  0  0  0  0  0  0  0
   18.5563  -27.6148   -3.1834 C   0  0  0  0  0  0  0  0  0  0  0  0
   18.9354  -26.5689   -2.6226 O   0  0  0  0  0  0  0  0  0  0  0  0
   16.2716  -31.3946   -0.8468 O   0  0  0  0  0  0  0  0  0  0  0  0
   15.9553  -23.8649   -9.4939 N   0  0  0  0  0  0  0  0  0  0  0  0
   17.2318  -23.4587   -9.9348 C   0  0  0  0  0  0  0  0  0  0  0  0
   17.3581  -22.3514  -10.5790 N   0  0  0  0  0  0  0  0  0  0  0  0
   18.4089  -24.2104   -9.7060 N   0  0  0  0  0  0  0  0  0  0  0  0
   18.5124  -25.3778   -8.8909 C   0  0  0  0  0  0  0  0  0  0  0  0
   18.1600  -25.1455   -7.4491 C   0  0  0  0  0  0  0  0  0  0  0  0
   18.3131  -26.3685   -6.5902 C   0  0  0  0  0  0  0  0  0  0  0  0
   17.9229  -26.1624   -5.1513 C   0  0  2  0  0  0  0  0  0  0  0  0
   18.0499  -27.4645   -4.5092 N   0  0  0  0  0  0  0  0  0  0  0  0
   16.5297  -25.6401   -4.9908 C   0  0  0  0  0  0  0  0  0  0  0  0
   15.5317  -26.2674   -5.4212 O   0  0  0  0  0  0  0  0  0  0  0  0
   18.2896  -21.9992  -10.8710 N   0  0  0  0  0  0  0  0  0  0  0  0
   16.2779  -24.4073   -4.3424 C   0  0  2  0  0  0  0  0  0  0  0  0
   14.9325  -23.8934   -4.0669 C   0  0  0  0  0  0  0  0  0  0  0  0
   14.8477  -23.0834   -2.8364 C   0  0  0  0  0  0  0  0  0  0  0  0
   13.6147  -22.5390   -2.3165 C   0  0  0  0  0  0  0  0  0  0  0  0
   13.3930  -21.6886   -1.1841 C   0  0  0  0  0  0  0  0  0  0  0  0
   12.1088  -21.2088   -0.6904 N   0  0  0  0  0  0  0  0  0  0  0  0
   12.3937  -20.4056    0.5411 C   0  0  0  0  0  0  0  0  0  0  0  0
   14.3897  -23.3688   -5.3119 O   0  0  0  0  0  0  0  0  0  0  0  0
   15.2040  -22.9216   -6.3340 O   0  0  0  0  0  0  0  0  0  0  0  0
  2  1  1  1
  2  3  1  0
  4  3  1  0
  4  8  1  0
  5  4  2  0
  6  2  1  0
  6  7  2  0
  9 10  1  0
 10 12  1  0
 11 10  2  0
 12 13  1  0
 13 14  1  0
 15 14  1  0
 16 15  1  6
 16 17  1  0
 17  6  1  0
 18 16  1  0
 19 18  2  0
 20 18  1  0
 21 22  1  1
 21 20  1  0
 22 23  1  0
 23 24  1  0
 25 24  1  0
 26 25  1  0
 27 28  1  0
 27 21  1  0
 29 27  2  0
M  END
$$$$
