DRK.pdb
     RDKit          3D

 29 28  0  0  1  0  0  0  0  0999 V2000
   14.4399   -5.6768   -6.3664 N   0  0  0  0  0  0  0  0  0  0  0  0
   14.7528   -5.0277   -7.6572 C   0  0  1  0  0  0  0  0  0  0  0  0
   15.0513   -3.5734   -7.4111 C   0  0  0  0  0  0  0  0  0  0  0  0
   13.9223   -2.8377   -6.8472 C   0  0  0  0  0  0  0  0  0  0  0  0
   12.7882   -3.4140   -6.8737 O   0  0  0  0  0  0  0  0  0  0  0  0
   15.8678   -5.7638   -8.3089 C   0  0  0  0  0  0  0  0  0  0  0  0
   16.8716   -6.2262   -7.7337 O   0  0  0  0  0  0  0  0  0  0  0  0
   13.9559   -1.5907   -6.2944 O   0  0  0  0  0  0  0  0  0  0  0  0
   15.1887  -11.8115  -13.6066 N   0  0  0  0  0  0  0  0  0  0  0  0
   16.4045  -12.1655  -12.9859 C   0  0  0  0  0  0  0  0  0  0  0  0
   17.2226  -12.9512  -13.5945 N   0  0  0  0  0  0  0  0  0  0  0  0
   16.7891  -11.6982  -11.7066 N   0  0  0  0  0  0  0  0  0  0  0  0
   16.1312  -10.6789  -10.9542 C   0  0  0  0  0  0  0  0  0  0  0  0
   16.7095   -9.3069  -11.1543 C   0  0  0  0  0  0  0  0  0  0  0  0
   16.0457   -8.2491  -10.3190 C   0  0  0  0  0  0  0  0  0  0  0  0
   16.6960   -6.8950  -10.4108 C   0  0  2  0  0  0  0  0  0  0  0  0
   15.8046   -5.9724   -9.7193 N   0  0  0  0  0  0  0  0  0  0  0  0
   16.9145   -6.4439  -11.8210 C   0  0  0  0  0  0  0  0  0  0  0  0
   15.9593   -6.1462  -12.5784 O   0  0  0  0  0  0  0  0  0  0  0  0
   18.0975  -13.2767  -13.1412 N   0  0  0  0  0  0  0  0  0  0  0  0
   18.2174   -6.3343  -12.3632 C   0  0  1  0  0  0  0  0  0  0  0  0
   18.4889   -6.0244  -13.7704 C   0  0  0  0  0  0  0  0  0  0  0  0
   18.3193   -7.1778  -14.6751 C   0  0  0  0  0  0  0  0  0  0  0  0
   18.4095   -7.0901  -16.1141 C   0  0  0  0  0  0  0  0  0  0  0  0
   18.2718   -8.1157  -17.1060 C   0  0  0  0  0  0  0  0  0  0  0  0
   18.3214   -7.9443  -18.5522 N   0  0  0  0  0  0  0  0  0  0  0  0
   18.1091   -9.2992  -19.1539 C   0  0  0  0  0  0  0  0  0  0  0  0
   17.8359   -4.7617  -14.0852 O   0  0  0  0  0  0  0  0  0  0  0  0
   17.9869   -4.1460  -15.3123 O   0  0  0  0  0  0  0  0  0  0  0  0
  2  1  1  1
  2  3  1  0
  4  3  1  0
  4  8  1  0
  5  4  2  0
  6  2  1  0
  6  7  2  0
  9 10  1  0
 10 12  1  0
 11 10  2  0
 12 13  1  0
 13 14  1  0
 15 14  1  0
 16 15  1  6
 16 17  1  0
 17  6  1  0
 18 16  1  0
 19 18  2  0
 20 18  1  0
 21 22  1  6
 21 20  1  0
 22 23  1  0
 23 24  1  0
 25 24  1  0
 26 25  1  0
 27 28  1  0
 27 21  1  0
 29 27  2  0
M  END
$$$$
