DRK.pdb
     RDKit          3D

 29 28  0  0  1  0  0  0  0  0999 V2000
   16.4451  -19.5109    1.9332 N   0  0  0  0  0  0  0  0  0  0  0  0
   16.0534  -19.2914    3.3416 C   0  0  1  0  0  0  0  0  0  0  0  0
   15.6956  -20.6161    3.9596 C   0  0  0  0  0  0  0  0  0  0  0  0
   14.6618  -21.3386    3.2224 C   0  0  0  0  0  0  0  0  0  0  0  0
   14.2252  -20.7936    2.1589 O   0  0  0  0  0  0  0  0  0  0  0  0
   17.1563  -18.5840    4.0438 C   0  0  0  0  0  0  0  0  0  0  0  0
   18.3748  -18.7636    3.8559 O   0  0  0  0  0  0  0  0  0  0  0  0
   14.1111  -22.5413    3.5575 O   0  0  0  0  0  0  0  0  0  0  0  0
   19.5749  -11.8086    7.7220 N   0  0  0  0  0  0  0  0  0  0  0  0
   19.9911  -11.6598    6.3827 C   0  0  0  0  0  0  0  0  0  0  0  0
   21.1561  -11.1739    6.1304 N   0  0  0  0  0  0  0  0  0  0  0  0
   19.1884  -12.0213    5.2745 N   0  0  0  0  0  0  0  0  0  0  0  0
   18.1019  -12.9470    5.2934 C   0  0  0  0  0  0  0  0  0  0  0  0
   18.5091  -14.3554    5.6208 C   0  0  0  0  0  0  0  0  0  0  0  0
   17.3988  -15.3540    5.4560 C   0  0  0  0  0  0  0  0  0  0  0  0
   17.8160  -16.7815    5.6867 C   0  0  2  0  0  0  0  0  0  0  0  0
   16.8130  -17.6062    5.0250 N   0  0  0  0  0  0  0  0  0  0  0  0
   17.9049  -17.1392    7.1372 C   0  0  0  0  0  0  0  0  0  0  0  0
   16.8815  -17.3344    7.8367 O   0  0  0  0  0  0  0  0  0  0  0  0
   21.5057  -11.0857    5.1573 N   0  0  0  0  0  0  0  0  0  0  0  0
   19.1562  -17.2724    7.7852 C   0  0  2  0  0  0  0  0  0  0  0  0
   19.3046  -17.5611    9.2151 C   0  0  0  0  0  0  0  0  0  0  0  0
   20.1485  -18.7381    9.4980 C   0  0  0  0  0  0  0  0  0  0  0  0
   20.4191  -19.2314   10.8285 C   0  0  0  0  0  0  0  0  0  0  0  0
   21.2168  -20.3457   11.2490 C   0  0  0  0  0  0  0  0  0  0  0  0
   21.4921  -20.7545   12.6202 N   0  0  0  0  0  0  0  0  0  0  0  0
   22.3777  -21.9596   12.5407 C   0  0  0  0  0  0  0  0  0  0  0  0
   19.5705  -16.3044    9.9006 O   0  0  0  0  0  0  0  0  0  0  0  0
   19.5831  -16.2112   11.2786 O   0  0  0  0  0  0  0  0  0  0  0  0
  2  1  1  6
  2  3  1  0
  4  3  1  0
  4  8  1  0
  5  4  2  0
  6  2  1  0
  6  7  2  0
  9 10  1  0
 10 12  1  0
 11 10  2  0
 12 13  1  0
 13 14  1  0
 15 14  1  0
 16 15  1  1
 16 17  1  0
 17  6  1  0
 18 16  1  0
 19 18  2  0
 20 18  1  0
 21 22  1  6
 21 20  1  0
 22 23  1  0
 23 24  1  0
 25 24  1  0
 26 25  1  0
 27 28  1  0
 27 21  1  0
 29 27  2  0
M  END
$$$$
