AWR.pdb
     RDKit          3D

 31 32  0  0  1  0  0  0  0  0999 V2000
    7.1067  -21.0681   23.3253 C   0  0  0  0  0  0  0  0  0  0  0  0
    6.2468  -19.9083   23.7136 C   0  0  2  0  0  0  0  0  0  0  0  0
    5.0078  -19.8151   23.0087 N   0  0  0  0  0  0  0  0  0  0  0  0
    7.0076  -18.6596   23.5283 C   0  0  0  0  0  0  0  0  0  0  0  0
    6.8823  -18.0408   22.4258 O   0  0  0  0  0  0  0  0  0  0  0  0
    7.8515  -18.1562   24.5337 N   0  0  0  0  0  0  0  0  0  0  0  0
    8.5235  -16.8449   24.3396 C   0  0  1  0  0  0  0  0  0  0  0  0
    8.6135  -16.2463   25.7012 C   0  0  0  0  0  0  0  0  0  0  0  0
    7.4929  -15.3359   25.9791 C   0  0  0  0  0  0  0  0  0  0  0  0
    6.1737  -15.7262   26.2602 C   0  0  0  0  0  0  0  0  0  0  0  0
    5.4385  -14.6292   26.4150 N   0  0  0  0  0  0  0  0  0  0  0  0
    6.1760  -13.5269   26.2576 C   0  0  0  0  0  0  0  0  0  0  0  0
    5.8278  -12.1790   26.3501 C   0  0  0  0  0  0  0  0  0  0  0  0
    6.8156  -11.2420   26.1619 C   0  0  0  0  0  0  0  0  0  0  0  0
    8.1077  -11.6599   25.8904 C   0  0  0  0  0  0  0  0  0  0  0  0
    8.4388  -12.9741   25.8010 C   0  0  0  0  0  0  0  0  0  0  0  0
    7.4566  -13.9490   25.9863 C   0  0  0  0  0  0  0  0  0  0  0  0
    9.8328  -17.1547   23.7498 C   0  0  0  0  0  0  0  0  0  0  0  0
   10.3417  -18.2800   24.0874 O   0  0  0  0  0  0  0  0  0  0  0  0
   15.4581  -16.2140   18.1257 N   0  0  0  0  0  0  0  0  0  0  0  0
   15.0211  -14.8944   17.9109 C   0  0  0  0  0  0  0  0  0  0  0  0
   15.8180  -13.9761   17.5048 N   0  0  0  0  0  0  0  0  0  0  0  0
   13.6589  -14.5220   18.1392 N   0  0  0  0  0  0  0  0  0  0  0  0
   12.7205  -15.5226   18.5778 C   0  0  0  0  0  0  0  0  0  0  0  0
   12.8846  -15.9753   19.9650 C   0  0  0  0  0  0  0  0  0  0  0  0
   11.8129  -16.0214   20.9310 C   0  0  0  0  0  0  0  0  0  0  0  0
   11.7877  -16.7922   22.1985 C   0  0  2  0  0  0  0  0  0  0  0  0
   10.5051  -16.3010   22.8757 N   0  0  0  0  0  0  0  0  0  0  0  0
   12.7868  -16.3438   23.2183 C   0  0  0  0  0  0  0  0  0  0  0  0
   14.0858  -16.9007   23.2535 O   0  0  0  0  0  0  0  0  0  0  0  0
   12.5643  -15.4975   24.0632 O   0  0  0  0  0  0  0  0  0  0  0  0
  2  3  1  0
  2  1  1  6
  4  2  1  0
  5  4  2  0
  6  4  1  0
  7  8  1  1
  7  6  1  0
  9  8  1  0
 10  9  2  0
 11 12  1  0
 11 10  1  0
 12 17  2  0
 13 14  2  0
 13 12  1  0
 14 15  1  0
 15 16  2  0
 17  9  1  0
 17 16  1  0
 18  7  1  0
 19 18  2  0
 21 20  1  0
 21 22  2  0
 23 21  1  0
 24 23  1  0
 25 24  1  0
 26 25  1  0
 27 26  1  6
 27 28  1  0
 28 18  1  0
 29 30  1  0
 29 27  1  0
 31 29  2  0
M  END
$$$$
