AWR.pdb
     RDKit          3D

 31 32  0  0  1  0  0  0  0  0999 V2000
    6.9935  -18.5120   21.0515 C   0  0  0  0  0  0  0  0  0  0  0  0
    6.7390  -17.0796   21.3957 C   0  0  2  0  0  0  0  0  0  0  0  0
    6.5829  -16.2096   20.2734 N   0  0  0  0  0  0  0  0  0  0  0  0
    7.8365  -16.5849   22.2462 C   0  0  0  0  0  0  0  0  0  0  0  0
    8.7500  -15.8909   21.7005 O   0  0  0  0  0  0  0  0  0  0  0  0
    7.8840  -16.8655   23.6230 N   0  0  0  0  0  0  0  0  0  0  0  0
    9.0522  -16.4155   24.4240 C   0  0  1  0  0  0  0  0  0  0  0  0
    8.5296  -16.2297   25.8071 C   0  0  0  0  0  0  0  0  0  0  0  0
    7.5861  -15.1055   25.8944 C   0  0  0  0  0  0  0  0  0  0  0  0
    6.1867  -15.2074   25.8387 C   0  0  0  0  0  0  0  0  0  0  0  0
    5.6765  -13.9814   25.9080 N   0  0  0  0  0  0  0  0  0  0  0  0
    6.6401  -13.0619   26.0076 C   0  0  0  0  0  0  0  0  0  0  0  0
    6.5635  -11.6736   26.1236 C   0  0  0  0  0  0  0  0  0  0  0  0
    7.7382  -10.9689   26.2370 C   0  0  0  0  0  0  0  0  0  0  0  0
    8.9439  -11.6500   26.2331 C   0  0  0  0  0  0  0  0  0  0  0  0
    9.0104  -13.0019   26.1190 C   0  0  0  0  0  0  0  0  0  0  0  0
    7.8340  -13.7447   26.0010 C   0  0  0  0  0  0  0  0  0  0  0  0
   10.0456  -17.4922   24.3144 C   0  0  0  0  0  0  0  0  0  0  0  0
    9.6291  -18.5799   23.7825 O   0  0  0  0  0  0  0  0  0  0  0  0
   15.0823  -19.1125   18.6866 N   0  0  0  0  0  0  0  0  0  0  0  0
   13.6866  -19.0792   18.5146 C   0  0  0  0  0  0  0  0  0  0  0  0
   13.0961  -19.8052   17.6385 N   0  0  0  0  0  0  0  0  0  0  0  0
   12.8645  -18.2268   19.3171 N   0  0  0  0  0  0  0  0  0  0  0  0
   13.4770  -17.4193   20.3402 C   0  0  0  0  0  0  0  0  0  0  0  0
   13.4770  -18.0029   21.6877 C   0  0  0  0  0  0  0  0  0  0  0  0
   12.5229  -17.6604   22.7154 C   0  0  0  0  0  0  0  0  0  0  0  0
   12.4480  -18.2239   24.0859 C   0  0  2  0  0  0  0  0  0  0  0  0
   11.3643  -17.3706   24.7512 N   0  0  0  0  0  0  0  0  0  0  0  0
   13.6064  -17.8732   24.9660 C   0  0  0  0  0  0  0  0  0  0  0  0
   13.4684  -16.9171   25.9982 O   0  0  0  0  0  0  0  0  0  0  0  0
   14.7136  -18.3661   24.8627 O   0  0  0  0  0  0  0  0  0  0  0  0
  2  3  1  0
  2  1  1  6
  4  2  1  0
  5  4  2  0
  6  4  1  0
  7  8  1  1
  7  6  1  0
  9  8  1  0
 10  9  2  0
 11 12  1  0
 11 10  1  0
 12 17  2  0
 13 14  2  0
 13 12  1  0
 14 15  1  0
 15 16  2  0
 17  9  1  0
 17 16  1  0
 18  7  1  0
 19 18  2  0
 21 20  1  0
 21 22  2  0
 23 21  1  0
 24 23  1  0
 25 24  1  0
 26 25  1  0
 27 26  1  6
 27 28  1  0
 28 18  1  0
 29 30  1  0
 29 27  1  0
 31 29  2  0
M  END
$$$$
