AWR.pdb
     RDKit          3D

 31 32  0  0  1  0  0  0  0  0999 V2000
    9.0083  -15.3540   17.9640 C   0  0  0  0  0  0  0  0  0  0  0  0
    8.1786  -14.2700   18.5736 C   0  0  2  0  0  0  0  0  0  0  0  0
    8.3800  -12.9711   18.0142 N   0  0  0  0  0  0  0  0  0  0  0  0
    8.4378  -14.2211   20.0237 C   0  0  0  0  0  0  0  0  0  0  0  0
    9.4626  -13.5878   20.4272 O   0  0  0  0  0  0  0  0  0  0  0  0
    7.5843  -14.8526   20.9454 N   0  0  0  0  0  0  0  0  0  0  0  0
    7.8773  -14.7606   22.3995 C   0  0  1  0  0  0  0  0  0  0  0  0
    6.5706  -14.9928   23.0771 C   0  0  0  0  0  0  0  0  0  0  0  0
    6.6606  -14.7978   24.5316 C   0  0  0  0  0  0  0  0  0  0  0  0
    6.6447  -15.8190   25.4952 C   0  0  0  0  0  0  0  0  0  0  0  0
    6.7031  -15.2570   26.6989 N   0  0  0  0  0  0  0  0  0  0  0  0
    6.7582  -13.9257   26.6086 C   0  0  0  0  0  0  0  0  0  0  0  0
    6.8482  -12.9499   27.6018 C   0  0  0  0  0  0  0  0  0  0  0  0
    6.9157  -11.6340   27.2106 C   0  0  0  0  0  0  0  0  0  0  0  0
    6.8929  -11.3227   25.8614 C   0  0  0  0  0  0  0  0  0  0  0  0
    6.8043  -12.2783   24.9003 C   0  0  0  0  0  0  0  0  0  0  0  0
    6.7331  -13.6237   25.2670 C   0  0  0  0  0  0  0  0  0  0  0  0
    8.8703  -15.8088   22.6702 C   0  0  0  0  0  0  0  0  0  0  0  0
    8.6862  -16.9192   22.0598 O   0  0  0  0  0  0  0  0  0  0  0  0
   15.8799  -17.8938   21.3250 N   0  0  0  0  0  0  0  0  0  0  0  0
   16.2808  -17.6444   22.6500 C   0  0  0  0  0  0  0  0  0  0  0  0
   16.8433  -18.5459   23.3671 N   0  0  0  0  0  0  0  0  0  0  0  0
   16.0749  -16.3643   23.2545 N   0  0  0  0  0  0  0  0  0  0  0  0
   14.8149  -15.6926   23.0670 C   0  0  0  0  0  0  0  0  0  0  0  0
   13.6224  -16.4948   23.3683 C   0  0  0  0  0  0  0  0  0  0  0  0
   12.2695  -16.0050   23.2508 C   0  0  0  0  0  0  0  0  0  0  0  0
   11.0245  -16.7321   23.6011 C   0  0  2  0  0  0  0  0  0  0  0  0
    9.9547  -15.6386   23.5304 N   0  0  0  0  0  0  0  0  0  0  0  0
   10.9035  -17.0957   25.0477 C   0  0  0  0  0  0  0  0  0  0  0  0
   11.3474  -18.3528   25.5181 O   0  0  0  0  0  0  0  0  0  0  0  0
   10.4308  -16.3637   25.8964 O   0  0  0  0  0  0  0  0  0  0  0  0
  2  3  1  0
  2  1  1  6
  4  2  1  0
  5  4  2  0
  6  4  1  0
  7  8  1  1
  7  6  1  0
  9  8  1  0
 10  9  2  0
 11 12  1  0
 11 10  1  0
 12 17  2  0
 13 14  2  0
 13 12  1  0
 14 15  1  0
 15 16  2  0
 17  9  1  0
 17 16  1  0
 18  7  1  0
 19 18  2  0
 21 20  1  0
 21 22  2  0
 23 21  1  0
 24 23  1  0
 25 24  1  0
 26 25  1  0
 27 26  1  1
 27 28  1  0
 28 18  1  0
 29 30  1  0
 29 27  1  0
 31 29  2  0
M  END
$$$$
