AWR.pdb
     RDKit          3D

 31 32  0  0  1  0  0  0  0  0999 V2000
    6.9629  -13.2957   20.3675 C   0  0  0  0  0  0  0  0  0  0  0  0
    7.4221  -14.7097   20.5249 C   0  0  2  0  0  0  0  0  0  0  0  0
    6.3776  -15.6625   20.7292 N   0  0  0  0  0  0  0  0  0  0  0  0
    8.3764  -14.7856   21.6457 C   0  0  0  0  0  0  0  0  0  0  0  0
    9.3856  -14.0141   21.6255 O   0  0  0  0  0  0  0  0  0  0  0  0
    8.1881  -15.6813   22.7129 N   0  0  0  0  0  0  0  0  0  0  0  0
    9.0940  -15.6220   23.8896 C   0  0  1  0  0  0  0  0  0  0  0  0
    8.2675  -16.0779   25.0427 C   0  0  0  0  0  0  0  0  0  0  0  0
    7.2415  -15.0912   25.4108 C   0  0  0  0  0  0  0  0  0  0  0  0
    5.8536  -15.2996   25.3640 C   0  0  0  0  0  0  0  0  0  0  0  0
    5.2504  -14.1722   25.7287 N   0  0  0  0  0  0  0  0  0  0  0  0
    6.1406  -13.2197   26.0187 C   0  0  0  0  0  0  0  0  0  0  0  0
    5.9581  -11.9077   26.4570 C   0  0  0  0  0  0  0  0  0  0  0  0
    7.0763  -11.1481   26.7055 C   0  0  0  0  0  0  0  0  0  0  0  0
    8.3315  -11.7016   26.5160 C   0  0  0  0  0  0  0  0  0  0  0  0
    8.5010  -12.9795   26.0882 C   0  0  0  0  0  0  0  0  0  0  0  0
    7.3839  -13.7753   25.8264 C   0  0  0  0  0  0  0  0  0  0  0  0
   10.2091  -16.5257   23.5764 C   0  0  0  0  0  0  0  0  0  0  0  0
    9.8851  -17.7345   23.3061 O   0  0  0  0  0  0  0  0  0  0  0  0
   17.3707  -13.7689   19.7307 N   0  0  0  0  0  0  0  0  0  0  0  0
   16.1350  -14.1723   19.1930 C   0  0  0  0  0  0  0  0  0  0  0  0
   15.6978  -13.7078   18.0811 N   0  0  0  0  0  0  0  0  0  0  0  0
   15.3109  -15.1246   19.8715 N   0  0  0  0  0  0  0  0  0  0  0  0
   15.7584  -15.6752   21.1247 C   0  0  0  0  0  0  0  0  0  0  0  0
   14.8298  -16.6134   21.7680 C   0  0  0  0  0  0  0  0  0  0  0  0
   13.5727  -16.2250   22.3619 C   0  0  0  0  0  0  0  0  0  0  0  0
   12.6096  -17.1066   23.0667 C   0  0  2  0  0  0  0  0  0  0  0  0
   11.5449  -16.1254   23.5656 N   0  0  0  0  0  0  0  0  0  0  0  0
   13.0934  -17.6285   24.3830 C   0  0  0  0  0  0  0  0  0  0  0  0
   12.3784  -17.3649   25.5738 O   0  0  0  0  0  0  0  0  0  0  0  0
   14.1019  -18.2940   24.5224 O   0  0  0  0  0  0  0  0  0  0  0  0
  2  3  1  0
  2  1  1  1
  4  2  1  0
  5  4  2  0
  6  4  1  0
  7  8  1  1
  7  6  1  0
  9  8  1  0
 10  9  2  0
 11 12  1  0
 11 10  1  0
 12 17  2  0
 13 14  2  0
 13 12  1  0
 14 15  1  0
 15 16  2  0
 17  9  1  0
 17 16  1  0
 18  7  1  0
 19 18  2  0
 21 20  1  0
 21 22  2  0
 23 21  1  0
 24 23  1  0
 25 24  1  0
 26 25  1  0
 27 26  1  1
 27 28  1  0
 28 18  1  0
 29 30  1  0
 29 27  1  0
 31 29  2  0
M  END
$$$$
