AWR.pdb
     RDKit          3D

 31 32  0  0  1  0  0  0  0  0999 V2000
    7.8010  -15.8674   19.1484 C   0  0  0  0  0  0  0  0  0  0  0  0
    7.3634  -14.7074   19.9838 C   0  0  2  0  0  0  0  0  0  0  0  0
    7.3581  -13.4481   19.3095 N   0  0  0  0  0  0  0  0  0  0  0  0
    8.2262  -14.6178   21.1756 C   0  0  0  0  0  0  0  0  0  0  0  0
    9.1829  -13.7822   21.1600 O   0  0  0  0  0  0  0  0  0  0  0  0
    8.0085  -15.4278   22.3039 N   0  0  0  0  0  0  0  0  0  0  0  0
    8.9733  -15.3875   23.4337 C   0  0  1  0  0  0  0  0  0  0  0  0
    8.2199  -15.9063   24.6100 C   0  0  0  0  0  0  0  0  0  0  0  0
    7.2643  -14.9187   25.1328 C   0  0  0  0  0  0  0  0  0  0  0  0
    5.8826  -15.1192   25.2830 C   0  0  0  0  0  0  0  0  0  0  0  0
    5.3458  -13.9931   25.7435 N   0  0  0  0  0  0  0  0  0  0  0  0
    6.2751  -13.0491   25.9138 C   0  0  0  0  0  0  0  0  0  0  0  0
    6.1666  -11.7417   26.3890 C   0  0  0  0  0  0  0  0  0  0  0  0
    7.3143  -10.9913   26.4834 C   0  0  0  0  0  0  0  0  0  0  0  0
    8.5254  -11.5491   26.1094 C   0  0  0  0  0  0  0  0  0  0  0  0
    8.6228  -12.8225   25.6470 C   0  0  0  0  0  0  0  0  0  0  0  0
    7.4741  -13.6089   25.5389 C   0  0  0  0  0  0  0  0  0  0  0  0
   10.0921  -16.2496   23.0296 C   0  0  0  0  0  0  0  0  0  0  0  0
    9.7710  -17.3179   22.4011 O   0  0  0  0  0  0  0  0  0  0  0  0
   16.6527  -14.7088   19.4593 N   0  0  0  0  0  0  0  0  0  0  0  0
   15.6640  -14.4046   18.5061 C   0  0  0  0  0  0  0  0  0  0  0  0
   15.9345  -14.3175   17.2560 N   0  0  0  0  0  0  0  0  0  0  0  0
   14.3068  -14.1786   18.8973 N   0  0  0  0  0  0  0  0  0  0  0  0
   13.9581  -14.2382   20.2933 C   0  0  0  0  0  0  0  0  0  0  0  0
   13.9194  -15.5855   20.8760 C   0  0  0  0  0  0  0  0  0  0  0  0
   13.5362  -15.8643   22.2396 C   0  0  0  0  0  0  0  0  0  0  0  0
   12.5203  -16.8438   22.6976 C   0  0  2  0  0  0  0  0  0  0  0  0
   11.4282  -15.9534   23.2975 N   0  0  0  0  0  0  0  0  0  0  0  0
   12.9059  -17.6121   23.9225 C   0  0  0  0  0  0  0  0  0  0  0  0
   12.2106  -17.4308   25.1401 O   0  0  0  0  0  0  0  0  0  0  0  0
   13.8140  -18.4204   23.9614 O   0  0  0  0  0  0  0  0  0  0  0  0
  2  3  1  0
  2  1  1  6
  4  2  1  0
  5  4  2  0
  6  4  1  0
  7  8  1  1
  7  6  1  0
  9  8  1  0
 10  9  2  0
 11 12  1  0
 11 10  1  0
 12 17  2  0
 13 14  2  0
 13 12  1  0
 14 15  1  0
 15 16  2  0
 17  9  1  0
 17 16  1  0
 18  7  1  0
 19 18  2  0
 21 20  1  0
 21 22  2  0
 23 21  1  0
 24 23  1  0
 25 24  1  0
 26 25  1  0
 27 26  1  1
 27 28  1  0
 28 18  1  0
 29 30  1  0
 29 27  1  0
 31 29  2  0
M  END
$$$$
