AWR.pdb
     RDKit          3D

 31 32  0  0  1  0  0  0  0  0999 V2000
    4.5932  -19.8332   23.4307 C   0  0  0  0  0  0  0  0  0  0  0  0
    6.0510  -19.8228   23.0994 C   0  0  2  0  0  0  0  0  0  0  0  0
    6.8838  -20.5216   24.0263 N   0  0  0  0  0  0  0  0  0  0  0  0
    6.5111  -18.4270   22.9880 C   0  0  0  0  0  0  0  0  0  0  0  0
    5.8885  -17.6533   22.1956 O   0  0  0  0  0  0  0  0  0  0  0  0
    7.6060  -17.9517   23.7309 N   0  0  0  0  0  0  0  0  0  0  0  0
    8.0355  -16.5368   23.5819 C   0  0  1  0  0  0  0  0  0  0  0  0
    8.5469  -16.1400   24.9242 C   0  0  0  0  0  0  0  0  0  0  0  0
    7.5486  -15.3828   25.6935 C   0  0  0  0  0  0  0  0  0  0  0  0
    6.4207  -15.9281   26.3277 C   0  0  0  0  0  0  0  0  0  0  0  0
    5.7349  -14.9345   26.8849 N   0  0  0  0  0  0  0  0  0  0  0  0
    6.3274  -13.7573   26.6684 C   0  0  0  0  0  0  0  0  0  0  0  0
    5.9735  -12.4719   27.0798 C   0  0  0  0  0  0  0  0  0  0  0  0
    6.7980  -11.4305   26.7265 C   0  0  0  0  0  0  0  0  0  0  0  0
    7.9385  -11.6866   25.9839 C   0  0  0  0  0  0  0  0  0  0  0  0
    8.2759  -12.9408   25.5863 C   0  0  0  0  0  0  0  0  0  0  0  0
    7.4574  -14.0187   25.9291 C   0  0  0  0  0  0  0  0  0  0  0  0
    9.0719  -16.5453   22.5408 C   0  0  0  0  0  0  0  0  0  0  0  0
    9.7584  -17.6222   22.4494 O   0  0  0  0  0  0  0  0  0  0  0  0
    7.3304  -14.7894   16.0551 N   0  0  0  0  0  0  0  0  0  0  0  0
    8.3399  -13.8338   15.8394 C   0  0  0  0  0  0  0  0  0  0  0  0
    8.8290  -13.6185   14.6742 N   0  0  0  0  0  0  0  0  0  0  0  0
    8.8646  -13.0581   16.9208 N   0  0  0  0  0  0  0  0  0  0  0  0
    8.2375  -13.1408   18.2146 C   0  0  0  0  0  0  0  0  0  0  0  0
    8.5833  -14.3273   19.0077 C   0  0  0  0  0  0  0  0  0  0  0  0
    9.8849  -14.5592   19.5872 C   0  0  0  0  0  0  0  0  0  0  0  0
   10.2687  -15.6597   20.5054 C   0  0  2  0  0  0  0  0  0  0  0  0
    9.3183  -15.4676   21.6907 N   0  0  0  0  0  0  0  0  0  0  0  0
   11.5747  -15.4564   21.2071 C   0  0  0  0  0  0  0  0  0  0  0  0
   12.7911  -15.8454   20.6006 O   0  0  0  0  0  0  0  0  0  0  0  0
   11.6838  -14.9597   22.3120 O   0  0  0  0  0  0  0  0  0  0  0  0
  2  3  1  0
  2  1  1  1
  4  2  1  0
  5  4  2  0
  6  4  1  0
  7  8  1  1
  7  6  1  0
  9  8  1  0
 10  9  2  0
 11 12  1  0
 11 10  1  0
 12 17  2  0
 13 14  2  0
 13 12  1  0
 14 15  1  0
 15 16  2  0
 17  9  1  0
 17 16  1  0
 18  7  1  0
 19 18  2  0
 21 20  1  0
 21 22  2  0
 23 21  1  0
 24 23  1  0
 25 24  1  0
 26 25  1  0
 27 26  1  6
 27 28  1  0
 28 18  1  0
 29 30  1  0
 29 27  1  0
 31 29  2  0
M  END
$$$$
