AWR.pdb
     RDKit          3D

 31 32  0  0  1  0  0  0  0  0999 V2000
    6.8262  -21.0003   23.5876 C   0  0  0  0  0  0  0  0  0  0  0  0
    6.0448  -19.8137   24.0527 C   0  0  2  0  0  0  0  0  0  0  0  0
    4.7134  -19.7318   23.5415 N   0  0  0  0  0  0  0  0  0  0  0  0
    6.7779  -18.5845   23.7006 C   0  0  0  0  0  0  0  0  0  0  0  0
    6.5734  -18.0730   22.5558 O   0  0  0  0  0  0  0  0  0  0  0  0
    7.6809  -17.9845   24.5958 N   0  0  0  0  0  0  0  0  0  0  0  0
    8.3920  -16.7415   24.1983 C   0  0  1  0  0  0  0  0  0  0  0  0
    8.7251  -16.0552   25.4784 C   0  0  0  0  0  0  0  0  0  0  0  0
    7.6001  -15.2553   25.9848 C   0  0  0  0  0  0  0  0  0  0  0  0
    6.4111  -15.7693   26.5270 C   0  0  0  0  0  0  0  0  0  0  0  0
    5.6179  -14.7476   26.8353 N   0  0  0  0  0  0  0  0  0  0  0  0
    6.1950  -13.5806   26.5374 C   0  0  0  0  0  0  0  0  0  0  0  0
    5.7412  -12.2723   26.7074 C   0  0  0  0  0  0  0  0  0  0  0  0
    6.5723  -11.2456   26.3271 C   0  0  0  0  0  0  0  0  0  0  0  0
    7.8168  -11.5384   25.7949 C   0  0  0  0  0  0  0  0  0  0  0  0
    8.2512  -12.8149   25.6318 C   0  0  0  0  0  0  0  0  0  0  0  0
    7.4289  -13.8788   26.0078 C   0  0  0  0  0  0  0  0  0  0  0  0
    9.5747  -17.1849   23.4481 C   0  0  0  0  0  0  0  0  0  0  0  0
   10.1445  -18.2448   23.8855 O   0  0  0  0  0  0  0  0  0  0  0  0
    7.8835  -14.3796   16.4626 N   0  0  0  0  0  0  0  0  0  0  0  0
    8.7085  -13.6200   17.3118 C   0  0  0  0  0  0  0  0  0  0  0  0
    8.3319  -12.4905   17.7868 N   0  0  0  0  0  0  0  0  0  0  0  0
   10.0108  -14.0820   17.6819 N   0  0  0  0  0  0  0  0  0  0  0  0
   10.1762  -15.4452   18.1159 C   0  0  0  0  0  0  0  0  0  0  0  0
   10.5884  -15.6152   19.5150 C   0  0  0  0  0  0  0  0  0  0  0  0
   10.8450  -16.8954   20.1308 C   0  0  0  0  0  0  0  0  0  0  0  0
   11.2263  -17.1451   21.5428 C   0  0  2  0  0  0  0  0  0  0  0  0
   10.0709  -16.5180   22.3284 N   0  0  0  0  0  0  0  0  0  0  0  0
   12.3498  -16.2926   22.0430 C   0  0  0  0  0  0  0  0  0  0  0  0
   12.2383  -15.5916   23.2656 O   0  0  0  0  0  0  0  0  0  0  0  0
   13.4048  -16.1438   21.4562 O   0  0  0  0  0  0  0  0  0  0  0  0
  2  3  1  0
  2  1  1  6
  4  2  1  0
  5  4  2  0
  6  4  1  0
  7  8  1  1
  7  6  1  0
  9  8  1  0
 10  9  2  0
 11 12  1  0
 11 10  1  0
 12 17  2  0
 13 14  2  0
 13 12  1  0
 14 15  1  0
 15 16  2  0
 17  9  1  0
 17 16  1  0
 18  7  1  0
 19 18  2  0
 21 20  1  0
 21 22  2  0
 23 21  1  0
 24 23  1  0
 25 24  1  0
 26 25  1  0
 27 26  1  6
 27 28  1  0
 28 18  1  0
 29 30  1  0
 29 27  1  0
 31 29  2  0
M  END
$$$$
