AWR.pdb
     RDKit          3D

 31 32  0  0  1  0  0  0  0  0999 V2000
   10.2655  -18.3060   19.7820 C   0  0  0  0  0  0  0  0  0  0  0  0
    9.3477  -17.1459   19.5654 C   0  0  2  0  0  0  0  0  0  0  0  0
    9.6412  -16.3531   18.4139 N   0  0  0  0  0  0  0  0  0  0  0  0
    9.3626  -16.2880   20.7639 C   0  0  0  0  0  0  0  0  0  0  0  0
   10.1671  -15.3050   20.7860 O   0  0  0  0  0  0  0  0  0  0  0  0
    8.5167  -16.5385   21.8585 N   0  0  0  0  0  0  0  0  0  0  0  0
    8.4717  -15.5732   22.9876 C   0  0  1  0  0  0  0  0  0  0  0  0
    7.1308  -15.7612   23.6097 C   0  0  0  0  0  0  0  0  0  0  0  0
    6.9956  -15.0116   24.8673 C   0  0  0  0  0  0  0  0  0  0  0  0
    6.9187  -15.5762   26.1506 C   0  0  0  0  0  0  0  0  0  0  0  0
    6.7606  -14.5917   27.0303 N   0  0  0  0  0  0  0  0  0  0  0  0
    6.7271  -13.4024   26.4236 C   0  0  0  0  0  0  0  0  0  0  0  0
    6.5992  -12.1165   26.9500 C   0  0  0  0  0  0  0  0  0  0  0  0
    6.6224  -11.0555   26.0765 C   0  0  0  0  0  0  0  0  0  0  0  0
    6.7704  -11.2932   24.7203 C   0  0  0  0  0  0  0  0  0  0  0  0
    6.8936  -12.5481   24.2153 C   0  0  0  0  0  0  0  0  0  0  0  0
    6.8725  -13.6459   25.0778 C   0  0  0  0  0  0  0  0  0  0  0  0
    9.5838  -15.9465   23.8719 C   0  0  0  0  0  0  0  0  0  0  0  0
    9.7797  -15.1740   24.8741 O   0  0  0  0  0  0  0  0  0  0  0  0
   10.8291  -19.5159   31.5699 N   0  0  0  0  0  0  0  0  0  0  0  0
   10.4227  -19.8083   30.2554 C   0  0  0  0  0  0  0  0  0  0  0  0
    9.3165  -20.4068   30.0073 N   0  0  0  0  0  0  0  0  0  0  0  0
   11.2343  -19.4464   29.1344 N   0  0  0  0  0  0  0  0  0  0  0  0
   10.6059  -19.1960   27.8630 C   0  0  0  0  0  0  0  0  0  0  0  0
   11.5124  -18.7911   26.7811 C   0  0  0  0  0  0  0  0  0  0  0  0
   11.0757  -18.4452   25.4493 C   0  0  0  0  0  0  0  0  0  0  0  0
   11.5641  -17.3197   24.6151 C   0  0  2  0  0  0  0  0  0  0  0  0
   10.3930  -17.0627   23.6624 N   0  0  0  0  0  0  0  0  0  0  0  0
   12.6114  -17.6964   23.6149 C   0  0  0  0  0  0  0  0  0  0  0  0
   13.8585  -17.0310   23.5863 O   0  0  0  0  0  0  0  0  0  0  0  0
   12.4733  -18.5714   22.7813 O   0  0  0  0  0  0  0  0  0  0  0  0
  2  3  1  0
  2  1  1  1
  4  2  1  0
  5  4  2  0
  6  4  1  0
  7  8  1  1
  7  6  1  0
  9  8  1  0
 10  9  2  0
 11 12  1  0
 11 10  1  0
 12 17  2  0
 13 14  2  0
 13 12  1  0
 14 15  1  0
 15 16  2  0
 17  9  1  0
 17 16  1  0
 18  7  1  0
 19 18  2  0
 21 20  1  0
 21 22  2  0
 23 21  1  0
 24 23  1  0
 25 24  1  0
 26 25  1  0
 27 26  1  1
 27 28  1  0
 28 18  1  0
 29 30  1  0
 29 27  1  0
 31 29  2  0
M  END
$$$$
