AWR.pdb
     RDKit          3D

 31 32  0  0  1  0  0  0  0  0999 V2000
    6.6483  -14.1804   20.5276 C   0  0  0  0  0  0  0  0  0  0  0  0
    7.3039  -15.4948   20.8061 C   0  0  2  0  0  0  0  0  0  0  0  0
    6.4124  -16.5424   21.1913 N   0  0  0  0  0  0  0  0  0  0  0  0
    8.3238  -15.3132   21.8546 C   0  0  0  0  0  0  0  0  0  0  0  0
    9.2352  -14.4499   21.6595 O   0  0  0  0  0  0  0  0  0  0  0  0
    8.3012  -16.0669   23.0412 N   0  0  0  0  0  0  0  0  0  0  0  0
    9.2633  -15.7519   24.1293 C   0  0  1  0  0  0  0  0  0  0  0  0
    8.5512  -16.0956   25.3924 C   0  0  0  0  0  0  0  0  0  0  0  0
    7.4872  -15.1306   25.7064 C   0  0  0  0  0  0  0  0  0  0  0  0
    6.1116  -15.4113   25.7326 C   0  0  0  0  0  0  0  0  0  0  0  0
    5.4619  -14.2858   26.0139 N   0  0  0  0  0  0  0  0  0  0  0  0
    6.3095  -13.2670   26.1795 C   0  0  0  0  0  0  0  0  0  0  0  0
    6.0724  -11.9301   26.5007 C   0  0  0  0  0  0  0  0  0  0  0  0
    7.1565  -11.0956   26.6343 C   0  0  0  0  0  0  0  0  0  0  0  0
    8.4321  -11.6015   26.4489 C   0  0  0  0  0  0  0  0  0  0  0  0
    8.6549  -12.9043   26.1356 C   0  0  0  0  0  0  0  0  0  0  0  0
    7.5735  -13.7758   25.9921 C   0  0  0  0  0  0  0  0  0  0  0  0
   10.4395  -16.5942   23.8738 C   0  0  0  0  0  0  0  0  0  0  0  0
   10.1930  -17.8054   23.5397 O   0  0  0  0  0  0  0  0  0  0  0  0
   18.1653  -16.4418   24.2965 N   0  0  0  0  0  0  0  0  0  0  0  0
   18.4919  -16.5815   22.9355 C   0  0  0  0  0  0  0  0  0  0  0  0
   19.6156  -17.0686   22.5566 N   0  0  0  0  0  0  0  0  0  0  0  0
   17.5756  -16.1821   21.9122 N   0  0  0  0  0  0  0  0  0  0  0  0
   16.3114  -15.6033   22.2872 C   0  0  0  0  0  0  0  0  0  0  0  0
   15.3263  -16.5435   22.8368 C   0  0  0  0  0  0  0  0  0  0  0  0
   13.9636  -16.1897   23.1556 C   0  0  0  0  0  0  0  0  0  0  0  0
   12.9014  -17.0959   23.6576 C   0  0  2  0  0  0  0  0  0  0  0  0
   11.7523  -16.1360   23.9792 N   0  0  0  0  0  0  0  0  0  0  0  0
   13.1491  -17.6443   25.0277 C   0  0  0  0  0  0  0  0  0  0  0  0
   13.7990  -18.8874   25.2038 O   0  0  0  0  0  0  0  0  0  0  0  0
   12.8212  -17.0823   26.0555 O   0  0  0  0  0  0  0  0  0  0  0  0
  2  3  1  0
  2  1  1  1
  4  2  1  0
  5  4  2  0
  6  4  1  0
  7  8  1  1
  7  6  1  0
  9  8  1  0
 10  9  2  0
 11 12  1  0
 11 10  1  0
 12 17  2  0
 13 14  2  0
 13 12  1  0
 14 15  1  0
 15 16  2  0
 17  9  1  0
 17 16  1  0
 18  7  1  0
 19 18  2  0
 21 20  1  0
 21 22  2  0
 23 21  1  0
 24 23  1  0
 25 24  1  0
 26 25  1  0
 27 26  1  1
 27 28  1  0
 28 18  1  0
 29 30  1  0
 29 27  1  0
 31 29  2  0
M  END
$$$$
