AWR.pdb
     RDKit          3D

 31 32  0  0  1  0  0  0  0  0999 V2000
    8.0956  -15.9916   19.7450 C   0  0  0  0  0  0  0  0  0  0  0  0
    7.4444  -16.5495   20.9697 C   0  0  2  0  0  0  0  0  0  0  0  0
    6.1516  -16.0157   21.2601 N   0  0  0  0  0  0  0  0  0  0  0  0
    8.3308  -16.3360   22.1278 C   0  0  0  0  0  0  0  0  0  0  0  0
    9.2300  -15.4432   22.0364 O   0  0  0  0  0  0  0  0  0  0  0  0
    8.1966  -17.0913   23.3060 N   0  0  0  0  0  0  0  0  0  0  0  0
    9.0820  -16.8067   24.4653 C   0  0  1  0  0  0  0  0  0  0  0  0
    8.1752  -16.7554   25.6466 C   0  0  0  0  0  0  0  0  0  0  0  0
    7.3384  -15.5465   25.6481 C   0  0  0  0  0  0  0  0  0  0  0  0
    5.9855  -15.4890   25.2765 C   0  0  0  0  0  0  0  0  0  0  0  0
    5.5819  -14.2253   25.3666 N   0  0  0  0  0  0  0  0  0  0  0  0
    6.5734  -13.4292   25.7752 C   0  0  0  0  0  0  0  0  0  0  0  0
    6.5936  -12.0564   26.0234 C   0  0  0  0  0  0  0  0  0  0  0  0
    7.7680  -11.4974   26.4679 C   0  0  0  0  0  0  0  0  0  0  0  0
    8.8786  -12.3036   26.6533 C   0  0  0  0  0  0  0  0  0  0  0  0
    8.8513  -13.6394   26.4087 C   0  0  0  0  0  0  0  0  0  0  0  0
    7.6730  -14.2356   25.9552 C   0  0  0  0  0  0  0  0  0  0  0  0
   10.0414  -17.9183   24.5128 C   0  0  0  0  0  0  0  0  0  0  0  0
    9.7706  -18.9180   23.7600 O   0  0  0  0  0  0  0  0  0  0  0  0
   15.9975  -17.8937   19.5416 N   0  0  0  0  0  0  0  0  0  0  0  0
   16.2747  -19.1405   20.1309 C   0  0  0  0  0  0  0  0  0  0  0  0
   17.1225  -19.9557   19.6207 N   0  0  0  0  0  0  0  0  0  0  0  0
   15.6162  -19.5514   21.3324 N   0  0  0  0  0  0  0  0  0  0  0  0
   14.5843  -18.7156   21.8898 C   0  0  0  0  0  0  0  0  0  0  0  0
   14.0276  -19.1710   23.1700 C   0  0  0  0  0  0  0  0  0  0  0  0
   12.9015  -18.5508   23.8266 C   0  0  0  0  0  0  0  0  0  0  0  0
   12.2511  -18.9897   25.0859 C   0  0  2  0  0  0  0  0  0  0  0  0
   11.1824  -17.9169   25.3145 N   0  0  0  0  0  0  0  0  0  0  0  0
   13.0745  -18.7771   26.3172 C   0  0  0  0  0  0  0  0  0  0  0  0
   13.9447  -19.7861   26.7898 O   0  0  0  0  0  0  0  0  0  0  0  0
   13.0572  -17.7574   26.9802 O   0  0  0  0  0  0  0  0  0  0  0  0
  2  3  1  0
  2  1  1  6
  4  2  1  0
  5  4  2  0
  6  4  1  0
  7  8  1  1
  7  6  1  0
  9  8  1  0
 10  9  2  0
 11 12  1  0
 11 10  1  0
 12 17  2  0
 13 14  2  0
 13 12  1  0
 14 15  1  0
 15 16  2  0
 17  9  1  0
 17 16  1  0
 18  7  1  0
 19 18  2  0
 21 20  1  0
 21 22  2  0
 23 21  1  0
 24 23  1  0
 25 24  1  0
 26 25  1  0
 27 26  1  6
 27 28  1  0
 28 18  1  0
 29 30  1  0
 29 27  1  0
 31 29  2  0
M  END
$$$$
