WFM.pdb
     RDKit          3D

 34 36  0  0  1  0  0  0  0  0999 V2000
   26.8184  -19.4686  -17.5625 N   0  0  0  0  0  0  0  0  0  0  0  0
   26.3836  -19.0543  -16.2217 C   0  0  1  0  0  0  0  0  0  0  0  0
   25.2765  -18.0646  -16.4319 C   0  0  0  0  0  0  0  0  0  0  0  0
   25.7192  -16.7540  -16.9347 C   0  0  0  0  0  0  0  0  0  0  0  0
   25.6376  -16.3499  -18.2717 C   0  0  0  0  0  0  0  0  0  0  0  0
   26.0824  -15.1145  -18.3908 N   0  0  0  0  0  0  0  0  0  0  0  0
   26.4603  -14.6732  -17.1832 C   0  0  0  0  0  0  0  0  0  0  0  0
   26.9991  -13.4501  -16.7877 C   0  0  0  0  0  0  0  0  0  0  0  0
   27.3132  -13.2580  -15.4640 C   0  0  0  0  0  0  0  0  0  0  0  0
   27.0966  -14.2625  -14.5496 C   0  0  0  0  0  0  0  0  0  0  0  0
   26.5621  -15.4711  -14.9511 C   0  0  0  0  0  0  0  0  0  0  0  0
   26.2405  -15.6808  -16.2718 C   0  0  0  0  0  0  0  0  0  0  0  0
   25.9841  -20.2490  -15.4717 C   0  0  0  0  0  0  0  0  0  0  0  0
   25.5307  -21.2406  -16.0962 O   0  0  0  0  0  0  0  0  0  0  0  0
   26.0979  -20.3320  -14.0344 N   0  0  0  0  0  0  0  0  0  0  0  0
   25.5201  -21.4686  -13.3805 C   0  0  1  0  0  0  0  0  0  0  0  0
   26.2905  -21.8353  -12.1207 C   0  0  0  0  0  0  0  0  0  0  0  0
   25.9623  -21.0234  -10.9552 C   0  0  0  0  0  0  0  0  0  0  0  0
   26.3186  -19.6962  -10.9252 C   0  0  0  0  0  0  0  0  0  0  0  0
   25.9877  -18.9583   -9.7863 C   0  0  0  0  0  0  0  0  0  0  0  0
   25.3247  -19.5312   -8.7196 C   0  0  0  0  0  0  0  0  0  0  0  0
   24.9733  -20.8480   -8.7541 C   0  0  0  0  0  0  0  0  0  0  0  0
   25.3057  -21.5686   -9.8851 C   0  0  0  0  0  0  0  0  0  0  0  0
   24.0893  -21.3544  -13.0547 C   0  0  0  0  0  0  0  0  0  0  0  0
   23.5569  -20.3152  -12.6283 O   0  0  0  0  0  0  0  0  0  0  0  0
   19.8233  -24.2719  -16.3314 C   0  0  0  0  0  0  0  0  0  0  0  0
   18.7950  -24.1322  -14.8510 S   0  0  0  0  0  0  0  0  0  0  0  0
   19.7426  -23.8114  -13.3750 C   0  0  0  0  0  0  0  0  0  0  0  0
   21.2032  -23.7246  -13.5475 C   0  0  0  0  0  0  0  0  0  0  0  0
   21.8291  -22.4288  -13.0923 C   0  0  2  0  0  0  0  0  0  0  0  0
   23.2699  -22.5099  -13.2462 N   0  0  0  0  0  0  0  0  0  0  0  0
   21.5108  -22.0698  -11.7230 C   0  0  0  0  0  0  0  0  0  0  0  0
   20.2502  -21.5639  -11.3458 O   0  0  0  0  0  0  0  0  0  0  0  0
   22.3415  -22.1903  -10.7993 O   0  0  0  0  0  0  0  0  0  0  0  0
  2  1  1  6
  2  3  1  0
  3  4  1  0
  4 12  1  0
  4  5  2  0
  5  6  1  0
  7  8  2  0
  7  6  1  0
  9  8  1  0
 10  9  2  0
 11 10  1  0
 11 12  2  0
 12  7  1  0
 13 14  2  0
 13  2  1  0
 15 13  1  0
 16 15  1  0
 16 17  1  1
 18 17  1  0
 18 23  1  0
 19 18  2  0
 20 19  1  0
 20 21  2  0
 21 22  1  0
 22 23  2  0
 24 16  1  0
 25 24  2  0
 27 26  1  0
 27 28  1  0
 29 28  1  0
 30 29  1  1
 30 31  1  0
 31 24  1  0
 32 30  1  0
 32 33  1  0
 34 32  2  0
M  END
$$$$
