WFM.pdb
     RDKit          3D

 34 36  0  0  1  0  0  0  0  0999 V2000
   24.3132  -20.0901  -19.2878 N   0  0  0  0  0  0  0  0  0  0  0  0
   23.2092  -19.5948  -18.4547 C   0  0  1  0  0  0  0  0  0  0  0  0
   21.9510  -19.8863  -19.2170 C   0  0  0  0  0  0  0  0  0  0  0  0
   21.6817  -18.9561  -20.3255 C   0  0  0  0  0  0  0  0  0  0  0  0
   21.7092  -19.3083  -21.6793 C   0  0  0  0  0  0  0  0  0  0  0  0
   21.3922  -18.2627  -22.4173 N   0  0  0  0  0  0  0  0  0  0  0  0
   21.1529  -17.2205  -21.6096 C   0  0  0  0  0  0  0  0  0  0  0  0
   20.7941  -15.9055  -21.9009 C   0  0  0  0  0  0  0  0  0  0  0  0
   20.6172  -15.0191  -20.8663 C   0  0  0  0  0  0  0  0  0  0  0  0
   20.7939  -15.4307  -19.5657 C   0  0  0  0  0  0  0  0  0  0  0  0
   21.1494  -16.7359  -19.2870 C   0  0  0  0  0  0  0  0  0  0  0  0
   21.3296  -17.6375  -20.3099 C   0  0  0  0  0  0  0  0  0  0  0  0
   23.2821  -20.2518  -17.1460 C   0  0  0  0  0  0  0  0  0  0  0  0
   23.6266  -21.4586  -17.0853 O   0  0  0  0  0  0  0  0  0  0  0  0
   22.9767  -19.5588  -15.9163 N   0  0  0  0  0  0  0  0  0  0  0  0
   23.0876  -20.2902  -14.6891 C   0  0  1  0  0  0  0  0  0  0  0  0
   23.7032  -19.4384  -13.5889 C   0  0  0  0  0  0  0  0  0  0  0  0
   23.9515  -20.1512  -12.3416 C   0  0  0  0  0  0  0  0  0  0  0  0
   23.1082  -19.9694  -11.2716 C   0  0  0  0  0  0  0  0  0  0  0  0
   23.3874  -20.6694  -10.0956 C   0  0  0  0  0  0  0  0  0  0  0  0
   24.4712  -21.5189   -9.9986 C   0  0  0  0  0  0  0  0  0  0  0  0
   25.3047  -21.6961  -11.0627 C   0  0  0  0  0  0  0  0  0  0  0  0
   25.0195  -20.9986  -12.2208 C   0  0  0  0  0  0  0  0  0  0  0  0
   21.8388  -20.8904  -14.1925 C   0  0  0  0  0  0  0  0  0  0  0  0
   20.7227  -20.3535  -14.2975 O   0  0  0  0  0  0  0  0  0  0  0  0
   23.6190  -26.0477  -15.9471 C   0  0  0  0  0  0  0  0  0  0  0  0
   23.1979  -24.9985  -14.5363 S   0  0  0  0  0  0  0  0  0  0  0  0
   21.4849  -25.1311  -14.0590 C   0  0  0  0  0  0  0  0  0  0  0  0
   21.0722  -24.3300  -12.8934 C   0  0  0  0  0  0  0  0  0  0  0  0
   20.7194  -22.8933  -13.1925 C   0  0  2  0  0  0  0  0  0  0  0  0
   21.9225  -22.1679  -13.5565 N   0  0  0  0  0  0  0  0  0  0  0  0
   20.0576  -22.2089  -12.0975 C   0  0  0  0  0  0  0  0  0  0  0  0
   18.7807  -22.5826  -11.6317 O   0  0  0  0  0  0  0  0  0  0  0  0
   20.5867  -21.2461  -11.5053 O   0  0  0  0  0  0  0  0  0  0  0  0
  2  1  1  6
  2  3  1  0
  3  4  1  0
  4 12  1  0
  4  5  2  0
  5  6  1  0
  7  8  2  0
  7  6  1  0
  9  8  1  0
 10  9  2  0
 11 10  1  0
 11 12  2  0
 12  7  1  0
 13 14  2  0
 13  2  1  0
 15 13  1  0
 16 15  1  0
 16 17  1  1
 18 17  1  0
 18 23  1  0
 19 18  2  0
 20 19  1  0
 20 21  2  0
 21 22  1  0
 22 23  2  0
 24 16  1  0
 25 24  2  0
 27 26  1  0
 27 28  1  0
 29 28  1  0
 30 29  1  1
 30 31  1  0
 31 24  1  0
 32 30  1  0
 32 33  1  0
 34 32  2  0
M  END
$$$$
