WFM.pdb
     RDKit          3D

 34 36  0  0  1  0  0  0  0  0999 V2000
   25.9758  -22.1133  -12.9385 N   0  0  0  0  0  0  0  0  0  0  0  0
   25.4938  -20.9999  -12.1099 C   0  0  1  0  0  0  0  0  0  0  0  0
   23.9962  -21.0598  -12.1650 C   0  0  0  0  0  0  0  0  0  0  0  0
   23.3878  -20.1648  -13.1628 C   0  0  0  0  0  0  0  0  0  0  0  0
   24.0305  -19.7184  -14.3226 C   0  0  0  0  0  0  0  0  0  0  0  0
   23.2092  -18.9608  -15.0225 N   0  0  0  0  0  0  0  0  0  0  0  0
   22.0381  -18.8812  -14.3759 C   0  0  0  0  0  0  0  0  0  0  0  0
   20.8642  -18.2019  -14.6972 C   0  0  0  0  0  0  0  0  0  0  0  0
   19.7938  -18.2803  -13.8394 C   0  0  0  0  0  0  0  0  0  0  0  0
   19.8875  -19.0195  -12.6832 C   0  0  0  0  0  0  0  0  0  0  0  0
   21.0550  -19.6893  -12.3735 C   0  0  0  0  0  0  0  0  0  0  0  0
   22.1363  -19.6233  -13.2209 C   0  0  0  0  0  0  0  0  0  0  0  0
   26.0496  -21.1483  -10.7614 C   0  0  0  0  0  0  0  0  0  0  0  0
   25.9975  -22.2700  -10.1978 O   0  0  0  0  0  0  0  0  0  0  0  0
   26.6634  -20.0487  -10.0542 N   0  0  0  0  0  0  0  0  0  0  0  0
   27.0829  -20.2717   -8.7023 C   0  0  1  0  0  0  0  0  0  0  0  0
   28.2014  -19.3200   -8.3042 C   0  0  0  0  0  0  0  0  0  0  0  0
   28.6366  -19.4468   -6.9185 C   0  0  0  0  0  0  0  0  0  0  0  0
   28.2878  -18.4833   -6.0023 C   0  0  0  0  0  0  0  0  0  0  0  0
   28.7307  -18.6439   -4.6874 C   0  0  0  0  0  0  0  0  0  0  0  0
   29.4939  -19.7298   -4.3079 C   0  0  0  0  0  0  0  0  0  0  0  0
   29.8372  -20.6828   -5.2202 C   0  0  0  0  0  0  0  0  0  0  0  0
   29.3941  -20.5140   -6.5180 C   0  0  0  0  0  0  0  0  0  0  0  0
   26.0170  -20.2139   -7.6889 C   0  0  0  0  0  0  0  0  0  0  0  0
   25.0436  -19.4434   -7.7508 O   0  0  0  0  0  0  0  0  0  0  0  0
   20.9999  -22.6543   -7.1681 C   0  0  0  0  0  0  0  0  0  0  0  0
   21.3715  -22.8305   -5.4077 S   0  0  0  0  0  0  0  0  0  0  0  0
   22.8417  -21.9491   -4.9166 C   0  0  0  0  0  0  0  0  0  0  0  0
   23.9258  -21.8896   -5.9125 C   0  0  0  0  0  0  0  0  0  0  0  0
   25.1240  -21.0643   -5.5109 C   0  0  2  0  0  0  0  0  0  0  0  0
   26.1124  -21.1021   -6.5729 N   0  0  0  0  0  0  0  0  0  0  0  0
   25.7390  -21.4854   -4.2660 C   0  0  0  0  0  0  0  0  0  0  0  0
   25.3967  -20.9177   -3.0219 O   0  0  0  0  0  0  0  0  0  0  0  0
   26.6100  -22.3785   -4.2294 O   0  0  0  0  0  0  0  0  0  0  0  0
  2  1  1  6
  2  3  1  0
  3  4  1  0
  4 12  1  0
  4  5  2  0
  5  6  1  0
  7  8  2  0
  7  6  1  0
  9  8  1  0
 10  9  2  0
 11 10  1  0
 11 12  2  0
 12  7  1  0
 13 14  2  0
 13  2  1  0
 15 13  1  0
 16 15  1  0
 16 17  1  1
 18 17  1  0
 18 23  1  0
 19 18  2  0
 20 19  1  0
 20 21  2  0
 21 22  1  0
 22 23  2  0
 24 16  1  0
 25 24  2  0
 27 26  1  0
 27 28  1  0
 29 28  1  0
 30 29  1  6
 30 31  1  0
 31 24  1  0
 32 30  1  0
 32 33  1  0
 34 32  2  0
M  END
$$$$
