WFM.pdb
     RDKit          3D

 34 36  0  0  1  0  0  0  0  0999 V2000
   25.3991  -19.8699  -18.2551 N   0  0  0  0  0  0  0  0  0  0  0  0
   25.7000  -19.0212  -17.0944 C   0  0  1  0  0  0  0  0  0  0  0  0
   24.9508  -17.7402  -17.3116 C   0  0  0  0  0  0  0  0  0  0  0  0
   25.5601  -16.8398  -18.3040 C   0  0  0  0  0  0  0  0  0  0  0  0
   24.8658  -16.2388  -19.3596 C   0  0  0  0  0  0  0  0  0  0  0  0
   25.6837  -15.4658  -20.0466 N   0  0  0  0  0  0  0  0  0  0  0  0
   26.9022  -15.5253  -19.4922 C   0  0  0  0  0  0  0  0  0  0  0  0
   28.0970  -14.9027  -19.8490 C   0  0  0  0  0  0  0  0  0  0  0  0
   29.2243  -15.1483  -19.1030 C   0  0  0  0  0  0  0  0  0  0  0  0
   29.1662  -15.9973  -18.0222 C   0  0  0  0  0  0  0  0  0  0  0  0
   27.9775  -16.6095  -17.6762 C   0  0  0  0  0  0  0  0  0  0  0  0
   26.8387  -16.3745  -18.4108 C   0  0  0  0  0  0  0  0  0  0  0  0
   25.3131  -19.7418  -15.8776 C   0  0  0  0  0  0  0  0  0  0  0  0
   24.4433  -20.6456  -15.9518 O   0  0  0  0  0  0  0  0  0  0  0  0
   25.9015  -19.4546  -14.5903 N   0  0  0  0  0  0  0  0  0  0  0  0
   25.3585  -20.1178  -13.4420 C   0  0  1  0  0  0  0  0  0  0  0  0
   26.1928  -19.8471  -12.1986 C   0  0  0  0  0  0  0  0  0  0  0  0
   25.7188  -20.5208  -10.9957 C   0  0  0  0  0  0  0  0  0  0  0  0
   26.0752  -21.8270  -10.7592 C   0  0  0  0  0  0  0  0  0  0  0  0
   25.5943  -22.4333   -9.5964 C   0  0  0  0  0  0  0  0  0  0  0  0
   24.7871  -21.7539   -8.7062 C   0  0  0  0  0  0  0  0  0  0  0  0
   24.4364  -20.4584   -8.9451 C   0  0  0  0  0  0  0  0  0  0  0  0
   24.9174  -19.8685  -10.0982 C   0  0  0  0  0  0  0  0  0  0  0  0
   23.9462  -19.8250  -13.1482 C   0  0  0  0  0  0  0  0  0  0  0  0
   23.4636  -18.6796  -13.1399 O   0  0  0  0  0  0  0  0  0  0  0  0
   19.4780  -23.0835  -16.0056 C   0  0  0  0  0  0  0  0  0  0  0  0
   18.4584  -22.1405  -14.8482 S   0  0  0  0  0  0  0  0  0  0  0  0
   19.4131  -21.3497  -13.5665 C   0  0  0  0  0  0  0  0  0  0  0  0
   20.8774  -21.4578  -13.6878 C   0  0  0  0  0  0  0  0  0  0  0  0
   21.6666  -20.7208  -12.6333 C   0  0  2  0  0  0  0  0  0  0  0  0
   23.0848  -20.9288  -12.8602 N   0  0  0  0  0  0  0  0  0  0  0  0
   21.3354  -21.1046  -11.2738 C   0  0  0  0  0  0  0  0  0  0  0  0
   20.2590  -20.5323  -10.5658 O   0  0  0  0  0  0  0  0  0  0  0  0
   21.9899  -21.9677  -10.6539 O   0  0  0  0  0  0  0  0  0  0  0  0
  2  1  1  6
  2  3  1  0
  3  4  1  0
  4 12  1  0
  4  5  2  0
  5  6  1  0
  7  8  2  0
  7  6  1  0
  9  8  1  0
 10  9  2  0
 11 10  1  0
 11 12  2  0
 12  7  1  0
 13 14  2  0
 13  2  1  0
 15 13  1  0
 16 15  1  0
 16 17  1  1
 18 17  1  0
 18 23  1  0
 19 18  2  0
 20 19  1  0
 20 21  2  0
 21 22  1  0
 22 23  2  0
 24 16  1  0
 25 24  2  0
 27 26  1  0
 27 28  1  0
 29 28  1  0
 30 29  1  6
 30 31  1  0
 31 24  1  0
 32 30  1  0
 32 33  1  0
 34 32  2  0
M  END
$$$$
