WFM.pdb
     RDKit          3D

 34 36  0  0  1  0  0  0  0  0999 V2000
   23.1956  -16.4914  -18.3622 N   0  0  0  0  0  0  0  0  0  0  0  0
   23.0495  -16.7078  -16.9165 C   0  0  1  0  0  0  0  0  0  0  0  0
   21.6591  -17.2323  -16.7138 C   0  0  0  0  0  0  0  0  0  0  0  0
   20.8432  -16.4461  -15.7742 C   0  0  0  0  0  0  0  0  0  0  0  0
   20.3026  -15.1869  -16.0565 C   0  0  0  0  0  0  0  0  0  0  0  0
   19.5970  -14.7647  -15.0259 N   0  0  0  0  0  0  0  0  0  0  0  0
   19.6435  -15.6934  -14.0610 C   0  0  0  0  0  0  0  0  0  0  0  0
   19.0727  -15.7158  -12.7896 C   0  0  0  0  0  0  0  0  0  0  0  0
   19.2895  -16.8058  -11.9818 C   0  0  0  0  0  0  0  0  0  0  0  0
   20.0596  -17.8545  -12.4282 C   0  0  0  0  0  0  0  0  0  0  0  0
   20.6209  -17.8233  -13.6898 C   0  0  0  0  0  0  0  0  0  0  0  0
   20.4137  -16.7409  -14.5127 C   0  0  0  0  0  0  0  0  0  0  0  0
   24.1051  -17.6238  -16.4736 C   0  0  0  0  0  0  0  0  0  0  0  0
   24.3838  -18.6243  -17.1806 O   0  0  0  0  0  0  0  0  0  0  0  0
   24.8451  -17.4153  -15.2509 N   0  0  0  0  0  0  0  0  0  0  0  0
   25.6449  -18.4975  -14.7584 C   0  0  1  0  0  0  0  0  0  0  0  0
   26.3163  -18.1369  -13.4415 C   0  0  0  0  0  0  0  0  0  0  0  0
   27.1260  -19.2036  -12.8653 C   0  0  0  0  0  0  0  0  0  0  0  0
   28.3445  -19.5124  -13.4213 C   0  0  0  0  0  0  0  0  0  0  0  0
   29.0837  -20.5445  -12.8387 C   0  0  0  0  0  0  0  0  0  0  0  0
   28.6171  -21.2390  -11.7407 C   0  0  0  0  0  0  0  0  0  0  0  0
   27.4079  -20.9290  -11.1928 C   0  0  0  0  0  0  0  0  0  0  0  0
   26.6849  -19.9067  -11.7769 C   0  0  0  0  0  0  0  0  0  0  0  0
   24.9476  -19.7850  -14.6076 C   0  0  0  0  0  0  0  0  0  0  0  0
   23.8687  -19.9219  -14.0058 O   0  0  0  0  0  0  0  0  0  0  0  0
   21.7211  -25.8515  -14.3867 C   0  0  0  0  0  0  0  0  0  0  0  0
   22.4684  -24.2100  -14.2628 S   0  0  0  0  0  0  0  0  0  0  0  0
   22.8907  -23.5175  -15.8507 C   0  0  0  0  0  0  0  0  0  0  0  0
   23.6109  -22.2324  -15.8274 C   0  0  0  0  0  0  0  0  0  0  0  0
   24.9218  -22.2428  -15.0794 C   0  0  2  0  0  0  0  0  0  0  0  0
   25.5517  -20.9404  -15.1937 N   0  0  0  0  0  0  0  0  0  0  0  0
   25.8477  -23.2661  -15.5275 C   0  0  0  0  0  0  0  0  0  0  0  0
   25.7801  -24.5996  -15.0751 O   0  0  0  0  0  0  0  0  0  0  0  0
   26.7598  -23.0193  -16.3428 O   0  0  0  0  0  0  0  0  0  0  0  0
  2  1  1  6
  2  3  1  0
  3  4  1  0
  4 12  1  0
  4  5  2  0
  5  6  1  0
  7  8  2  0
  7  6  1  0
  9  8  1  0
 10  9  2  0
 11 10  1  0
 11 12  2  0
 12  7  1  0
 13 14  2  0
 13  2  1  0
 15 13  1  0
 16 15  1  0
 16 17  1  1
 18 17  1  0
 18 23  1  0
 19 18  2  0
 20 19  1  0
 20 21  2  0
 21 22  1  0
 22 23  2  0
 24 16  1  0
 25 24  2  0
 27 26  1  0
 27 28  1  0
 29 28  1  0
 30 29  1  6
 30 31  1  0
 31 24  1  0
 32 30  1  0
 32 33  1  0
 34 32  2  0
M  END
$$$$
