WFM.pdb
     RDKit          3D

 34 36  0  0  1  0  0  0  0  0999 V2000
   25.5359  -20.6567  -12.9342 N   0  0  0  0  0  0  0  0  0  0  0  0
   24.8317  -20.5971  -11.6463 C   0  0  1  0  0  0  0  0  0  0  0  0
   23.6630  -21.5289  -11.7688 C   0  0  0  0  0  0  0  0  0  0  0  0
   22.5602  -21.0161  -12.5979 C   0  0  0  0  0  0  0  0  0  0  0  0
   22.1687  -21.5660  -13.8234 C   0  0  0  0  0  0  0  0  0  0  0  0
   21.1329  -20.9025  -14.2979 N   0  0  0  0  0  0  0  0  0  0  0  0
   20.8137  -19.9266  -13.4369 C   0  0  0  0  0  0  0  0  0  0  0  0
   19.8117  -18.9590  -13.4869 C   0  0  0  0  0  0  0  0  0  0  0  0
   19.7083  -18.0541  -12.4583 C   0  0  0  0  0  0  0  0  0  0  0  0
   20.5843  -18.1087  -11.3991 C   0  0  0  0  0  0  0  0  0  0  0  0
   21.5739  -19.0714  -11.3584 C   0  0  0  0  0  0  0  0  0  0  0  0
   21.6918  -19.9862  -12.3786 C   0  0  0  0  0  0  0  0  0  0  0  0
   25.7747  -20.9563  -10.5827 C   0  0  0  0  0  0  0  0  0  0  0  0
   25.9077  -22.1646  -10.2649 O   0  0  0  0  0  0  0  0  0  0  0  0
   26.5653  -19.9687   -9.8860 N   0  0  0  0  0  0  0  0  0  0  0  0
   27.0513  -20.2990   -8.5791 C   0  0  1  0  0  0  0  0  0  0  0  0
   28.1645  -19.3564   -8.1462 C   0  0  0  0  0  0  0  0  0  0  0  0
   28.7011  -19.6266   -6.8179 C   0  0  0  0  0  0  0  0  0  0  0  0
   29.4561  -20.7548   -6.6028 C   0  0  0  0  0  0  0  0  0  0  0  0
   29.9458  -20.9751   -5.3134 C   0  0  0  0  0  0  0  0  0  0  0  0
   29.6872  -20.0964   -4.2806 C   0  0  0  0  0  0  0  0  0  0  0  0
   28.9379  -18.9786   -4.4989 C   0  0  0  0  0  0  0  0  0  0  0  0
   28.4584  -18.7705   -5.7779 C   0  0  0  0  0  0  0  0  0  0  0  0
   26.0318  -20.3602   -7.5193 C   0  0  0  0  0  0  0  0  0  0  0  0
   25.1433  -19.5051   -7.3628 O   0  0  0  0  0  0  0  0  0  0  0  0
   20.9301  -21.9588   -6.8679 C   0  0  0  0  0  0  0  0  0  0  0  0
   21.5119  -23.2027   -5.6920 S   0  0  0  0  0  0  0  0  0  0  0  0
   23.0171  -22.7252   -4.8638 C   0  0  0  0  0  0  0  0  0  0  0  0
   24.2417  -22.7419   -5.6828 C   0  0  0  0  0  0  0  0  0  0  0  0
   25.1532  -21.5526   -5.5017 C   0  0  2  0  0  0  0  0  0  0  0  0
   26.0703  -21.4736   -6.6237 N   0  0  0  0  0  0  0  0  0  0  0  0
   25.9087  -21.5725   -4.2631 C   0  0  0  0  0  0  0  0  0  0  0  0
   25.4793  -20.8967   -3.1028 O   0  0  0  0  0  0  0  0  0  0  0  0
   26.9865  -22.1929   -4.1576 O   0  0  0  0  0  0  0  0  0  0  0  0
  2  1  1  6
  2  3  1  0
  3  4  1  0
  4 12  1  0
  4  5  2  0
  5  6  1  0
  7  8  2  0
  7  6  1  0
  9  8  1  0
 10  9  2  0
 11 10  1  0
 11 12  2  0
 12  7  1  0
 13 14  2  0
 13  2  1  0
 15 13  1  0
 16 15  1  0
 16 17  1  1
 18 17  1  0
 18 23  1  0
 19 18  2  0
 20 19  1  0
 20 21  2  0
 21 22  1  0
 22 23  2  0
 24 16  1  0
 25 24  2  0
 27 26  1  0
 27 28  1  0
 29 28  1  0
 30 29  1  6
 30 31  1  0
 31 24  1  0
 32 30  1  0
 32 33  1  0
 34 32  2  0
M  END
$$$$
