WFM.pdb
     RDKit          3D

 34 36  0  0  1  0  0  0  0  0999 V2000
   27.6115  -21.6340  -13.9511 N   0  0  0  0  0  0  0  0  0  0  0  0
   26.7010  -20.5825  -13.4783 C   0  0  1  0  0  0  0  0  0  0  0  0
   25.6967  -20.3800  -14.5735 C   0  0  0  0  0  0  0  0  0  0  0  0
   26.1179  -19.4320  -15.6177 C   0  0  0  0  0  0  0  0  0  0  0  0
   26.1756  -19.7319  -16.9830 C   0  0  0  0  0  0  0  0  0  0  0  0
   26.5567  -18.6648  -17.6570 N   0  0  0  0  0  0  0  0  0  0  0  0
   26.7577  -17.6585  -16.7952 C   0  0  0  0  0  0  0  0  0  0  0  0
   27.1700  -16.3444  -17.0089 C   0  0  0  0  0  0  0  0  0  0  0  0
   27.3086  -15.5063  -15.9291 C   0  0  0  0  0  0  0  0  0  0  0  0
   27.0429  -15.9649  -14.6597 C   0  0  0  0  0  0  0  0  0  0  0  0
   26.6347  -17.2689  -14.4580 C   0  0  0  0  0  0  0  0  0  0  0  0
   26.4894  -18.1217  -15.5272 C   0  0  0  0  0  0  0  0  0  0  0  0
   26.1179  -21.0102  -12.2029 C   0  0  0  0  0  0  0  0  0  0  0  0
   25.9270  -22.2350  -11.9972 O   0  0  0  0  0  0  0  0  0  0  0  0
   25.7576  -20.0721  -11.1656 N   0  0  0  0  0  0  0  0  0  0  0  0
   25.0958  -20.5814  -10.0013 C   0  0  1  0  0  0  0  0  0  0  0  0
   25.2427  -19.6336   -8.8201 C   0  0  0  0  0  0  0  0  0  0  0  0
   26.4985  -19.7674   -8.0918 C   0  0  0  0  0  0  0  0  0  0  0  0
   27.0841  -21.0041   -7.9617 C   0  0  0  0  0  0  0  0  0  0  0  0
   28.2844  -21.0853   -7.2520 C   0  0  0  0  0  0  0  0  0  0  0  0
   28.8733  -19.9679   -6.6950 C   0  0  0  0  0  0  0  0  0  0  0  0
   28.2887  -18.7433   -6.8269 C   0  0  0  0  0  0  0  0  0  0  0  0
   27.1017  -18.6745   -7.5305 C   0  0  0  0  0  0  0  0  0  0  0  0
   23.6735  -20.9180  -10.1754 C   0  0  0  0  0  0  0  0  0  0  0  0
   23.0392  -20.7223  -11.2263 O   0  0  0  0  0  0  0  0  0  0  0  0
   17.6737  -24.8079   -6.6203 C   0  0  0  0  0  0  0  0  0  0  0  0
   19.3472  -24.1352   -6.4975 S   0  0  0  0  0  0  0  0  0  0  0  0
   19.8155  -23.1734   -7.9241 C   0  0  0  0  0  0  0  0  0  0  0  0
   21.1824  -22.6235   -7.9158 C   0  0  0  0  0  0  0  0  0  0  0  0
   21.6208  -21.9699   -9.2037 C   0  0  2  0  0  0  0  0  0  0  0  0
   22.9897  -21.5077   -9.0672 N   0  0  0  0  0  0  0  0  0  0  0  0
   20.7787  -20.8639   -9.6196 C   0  0  0  0  0  0  0  0  0  0  0  0
   19.6298  -21.0444  -10.4163 O   0  0  0  0  0  0  0  0  0  0  0  0
   21.0279  -19.6856   -9.2923 O   0  0  0  0  0  0  0  0  0  0  0  0
  2  1  1  6
  2  3  1  0
  3  4  1  0
  4 12  1  0
  4  5  2  0
  5  6  1  0
  7  8  2  0
  7  6  1  0
  9  8  1  0
 10  9  2  0
 11 10  1  0
 11 12  2  0
 12  7  1  0
 13 14  2  0
 13  2  1  0
 15 13  1  0
 16 15  1  0
 16 17  1  1
 18 17  1  0
 18 23  1  0
 19 18  2  0
 20 19  1  0
 20 21  2  0
 21 22  1  0
 22 23  2  0
 24 16  1  0
 25 24  2  0
 27 26  1  0
 27 28  1  0
 29 28  1  0
 30 29  1  1
 30 31  1  0
 31 24  1  0
 32 30  1  0
 32 33  1  0
 34 32  2  0
M  END
$$$$
