WFM.pdb
     RDKit          3D

 34 36  0  0  1  0  0  0  0  0999 V2000
   24.7639  -17.8093  -17.8625 N   0  0  0  0  0  0  0  0  0  0  0  0
   24.4620  -18.1201  -16.4587 C   0  0  1  0  0  0  0  0  0  0  0  0
   22.9750  -18.3005  -16.3841 C   0  0  0  0  0  0  0  0  0  0  0  0
   22.2018  -17.0615  -16.5673 C   0  0  0  0  0  0  0  0  0  0  0  0
   21.5294  -16.7142  -17.7441 C   0  0  0  0  0  0  0  0  0  0  0  0
   20.9061  -15.5645  -17.5773 N   0  0  0  0  0  0  0  0  0  0  0  0
   21.1348  -15.1258  -16.3319 C   0  0  0  0  0  0  0  0  0  0  0  0
   20.7086  -13.9696  -15.6805 C   0  0  0  0  0  0  0  0  0  0  0  0
   21.1028  -13.7534  -14.3822 C   0  0  0  0  0  0  0  0  0  0  0  0
   21.9060  -14.6686  -13.7423 C   0  0  0  0  0  0  0  0  0  0  0  0
   22.3232  -15.8115  -14.3962 C   0  0  0  0  0  0  0  0  0  0  0  0
   21.9375  -16.0451  -15.6955 C   0  0  0  0  0  0  0  0  0  0  0  0
   25.2293  -19.3072  -16.0691 C   0  0  0  0  0  0  0  0  0  0  0  0
   25.4136  -20.2207  -16.9118 O   0  0  0  0  0  0  0  0  0  0  0  0
   25.7895  -19.4646  -14.7473 N   0  0  0  0  0  0  0  0  0  0  0  0
   26.1877  -20.7795  -14.3401 C   0  0  1  0  0  0  0  0  0  0  0  0
   27.2350  -20.7258  -13.2376 C   0  0  0  0  0  0  0  0  0  0  0  0
   26.7189  -20.3251  -11.9343 C   0  0  0  0  0  0  0  0  0  0  0  0
   26.4722  -18.9978  -11.6761 C   0  0  0  0  0  0  0  0  0  0  0  0
   25.9825  -18.6600  -10.4124 C   0  0  0  0  0  0  0  0  0  0  0  0
   25.7497  -19.6180   -9.4461 C   0  0  0  0  0  0  0  0  0  0  0  0
   25.9958  -20.9332   -9.7070 C   0  0  0  0  0  0  0  0  0  0  0  0
   26.4803  -21.2563  -10.9600 C   0  0  0  0  0  0  0  0  0  0  0  0
   25.0950  -21.6736  -13.9240 C   0  0  0  0  0  0  0  0  0  0  0  0
   25.2485  -22.8787  -13.6606 O   0  0  0  0  0  0  0  0  0  0  0  0
   20.7909  -22.7782   -8.5715 C   0  0  0  0  0  0  0  0  0  0  0  0
   20.4566  -21.5677   -9.8719 S   0  0  0  0  0  0  0  0  0  0  0  0
   21.0064  -22.1065  -11.4803 C   0  0  0  0  0  0  0  0  0  0  0  0
   22.1961  -21.4260  -12.0210 C   0  0  0  0  0  0  0  0  0  0  0  0
   22.6687  -21.9264  -13.3643 C   0  0  2  0  0  0  0  0  0  0  0  0
   23.7839  -21.1146  -13.8153 N   0  0  0  0  0  0  0  0  0  0  0  0
   21.6376  -21.9373  -14.3851 C   0  0  0  0  0  0  0  0  0  0  0  0
   20.6556  -22.9461  -14.4593 O   0  0  0  0  0  0  0  0  0  0  0  0
   21.5641  -21.0484  -15.2581 O   0  0  0  0  0  0  0  0  0  0  0  0
  2  1  1  6
  2  3  1  0
  3  4  1  0
  4 12  1  0
  4  5  2  0
  5  6  1  0
  7  8  2  0
  7  6  1  0
  9  8  1  0
 10  9  2  0
 11 10  1  0
 11 12  2  0
 12  7  1  0
 13 14  2  0
 13  2  1  0
 15 13  1  0
 16 15  1  0
 16 17  1  1
 18 17  1  0
 18 23  1  0
 19 18  2  0
 20 19  1  0
 20 21  2  0
 21 22  1  0
 22 23  2  0
 24 16  1  0
 25 24  2  0
 27 26  1  0
 27 28  1  0
 29 28  1  0
 30 29  1  1
 30 31  1  0
 31 24  1  0
 32 30  1  0
 32 33  1  0
 34 32  2  0
M  END
$$$$
