WFM.pdb
     RDKit          3D

 34 36  0  0  1  0  0  0  0  0999 V2000
   26.5291  -21.9735  -13.2779 N   0  0  0  0  0  0  0  0  0  0  0  0
   26.6170  -20.7033  -12.5450 C   0  0  1  0  0  0  0  0  0  0  0  0
   25.4428  -19.8842  -12.9920 C   0  0  0  0  0  0  0  0  0  0  0  0
   25.5432  -19.3786  -14.3708 C   0  0  0  0  0  0  0  0  0  0  0  0
   24.8600  -19.9207  -15.4648 C   0  0  0  0  0  0  0  0  0  0  0  0
   25.1349  -19.2244  -16.5501 N   0  0  0  0  0  0  0  0  0  0  0  0
   25.9779  -18.2344  -16.2262 C   0  0  0  0  0  0  0  0  0  0  0  0
   26.5636  -17.2428  -17.0114 C   0  0  0  0  0  0  0  0  0  0  0  0
   27.4148  -16.3412  -16.4195 C   0  0  0  0  0  0  0  0  0  0  0  0
   27.6800  -16.4230  -15.0723 C   0  0  0  0  0  0  0  0  0  0  0  0
   27.0947  -17.4091  -14.3024 C   0  0  0  0  0  0  0  0  0  0  0  0
   26.2392  -18.3195  -14.8775 C   0  0  0  0  0  0  0  0  0  0  0  0
   26.6315  -20.9945  -11.1082 C   0  0  0  0  0  0  0  0  0  0  0  0
   25.9279  -21.9378  -10.6677 O   0  0  0  0  0  0  0  0  0  0  0  0
   27.4328  -20.2374  -10.1752 N   0  0  0  0  0  0  0  0  0  0  0  0
   27.2522  -20.4909   -8.7765 C   0  0  1  0  0  0  0  0  0  0  0  0
   28.2933  -19.7608   -7.9410 C   0  0  0  0  0  0  0  0  0  0  0  0
   28.1408  -19.9333   -6.5014 C   0  0  0  0  0  0  0  0  0  0  0  0
   28.7321  -21.0047   -5.8756 C   0  0  0  0  0  0  0  0  0  0  0  0
   28.5554  -21.1321   -4.4959 C   0  0  0  0  0  0  0  0  0  0  0  0
   27.8138  -20.2190   -3.7734 C   0  0  0  0  0  0  0  0  0  0  0  0
   27.2293  -19.1580   -4.3987 C   0  0  0  0  0  0  0  0  0  0  0  0
   27.4102  -19.0416   -5.7635 C   0  0  0  0  0  0  0  0  0  0  0  0
   25.9122  -20.1932   -8.2450 C   0  0  0  0  0  0  0  0  0  0  0  0
   25.2912  -19.1427   -8.4813 O   0  0  0  0  0  0  0  0  0  0  0  0
   21.3493  -20.1292  -10.9160 C   0  0  0  0  0  0  0  0  0  0  0  0
   20.5659  -20.9610   -9.5150 S   0  0  0  0  0  0  0  0  0  0  0  0
   21.5923  -20.9814   -8.0570 C   0  0  0  0  0  0  0  0  0  0  0  0
   23.0436  -21.0897   -8.2865 C   0  0  0  0  0  0  0  0  0  0  0  0
   23.8960  -21.0593   -7.0413 C   0  0  2  0  0  0  0  0  0  0  0  0
   25.2942  -21.1768   -7.4120 N   0  0  0  0  0  0  0  0  0  0  0  0
   23.5658  -22.0909   -6.0759 C   0  0  0  0  0  0  0  0  0  0  0  0
   24.4901  -23.0769   -5.6747 O   0  0  0  0  0  0  0  0  0  0  0  0
   22.4384  -22.1614   -5.5452 O   0  0  0  0  0  0  0  0  0  0  0  0
  2  1  1  6
  2  3  1  0
  3  4  1  0
  4 12  1  0
  4  5  2  0
  5  6  1  0
  7  8  2  0
  7  6  1  0
  9  8  1  0
 10  9  2  0
 11 10  1  0
 11 12  2  0
 12  7  1  0
 13 14  2  0
 13  2  1  0
 15 13  1  0
 16 15  1  0
 16 17  1  1
 18 17  1  0
 18 23  1  0
 19 18  2  0
 20 19  1  0
 20 21  2  0
 21 22  1  0
 22 23  2  0
 24 16  1  0
 25 24  2  0
 27 26  1  0
 27 28  1  0
 29 28  1  0
 30 29  1  6
 30 31  1  0
 31 24  1  0
 32 30  1  0
 32 33  1  0
 34 32  2  0
M  END
$$$$
