WFM.pdb
     RDKit          3D

 34 36  0  0  1  0  0  0  0  0999 V2000
   15.1970  -16.6364    4.9372 N   0  0  0  0  0  0  0  0  0  0  0  0
   16.5405  -16.2445    5.3840 C   0  0  1  0  0  0  0  0  0  0  0  0
   16.3497  -15.0583    6.2817 C   0  0  0  0  0  0  0  0  0  0  0  0
   17.0854  -13.8540    5.8632 C   0  0  0  0  0  0  0  0  0  0  0  0
   16.5484  -12.8330    5.0716 C   0  0  0  0  0  0  0  0  0  0  0  0
   17.4462  -11.8823    4.9028 N   0  0  0  0  0  0  0  0  0  0  0  0
   18.5671  -12.2266    5.5515 C   0  0  0  0  0  0  0  0  0  0  0  0
   19.7901  -11.5686    5.6696 C   0  0  0  0  0  0  0  0  0  0  0  0
   20.7953  -12.1578    6.3978 C   0  0  0  0  0  0  0  0  0  0  0  0
   20.5899  -13.3785    6.9976 C   0  0  0  0  0  0  0  0  0  0  0  0
   19.3743  -14.0228    6.8749 C   0  0  0  0  0  0  0  0  0  0  0  0
   18.3562  -13.4476    6.1508 C   0  0  0  0  0  0  0  0  0  0  0  0
   17.1679  -17.3962    6.0393 C   0  0  0  0  0  0  0  0  0  0  0  0
   16.4563  -18.1743    6.7226 O   0  0  0  0  0  0  0  0  0  0  0  0
   18.5802  -17.6752    5.9237 N   0  0  0  0  0  0  0  0  0  0  0  0
   19.1145  -18.7600    6.6925 C   0  0  1  0  0  0  0  0  0  0  0  0
   20.4248  -19.2639    6.1056 C   0  0  0  0  0  0  0  0  0  0  0  0
   20.9079  -20.5093    6.6895 C   0  0  0  0  0  0  0  0  0  0  0  0
   21.8531  -20.4745    7.6868 C   0  0  0  0  0  0  0  0  0  0  0  0
   22.2898  -21.6922    8.2134 C   0  0  0  0  0  0  0  0  0  0  0  0
   21.7962  -22.8976    7.7561 C   0  0  0  0  0  0  0  0  0  0  0  0
   20.8587  -22.9270    6.7668 C   0  0  0  0  0  0  0  0  0  0  0  0
   20.4339  -21.7168    6.2529 C   0  0  0  0  0  0  0  0  0  0  0  0
   19.3011  -18.4900    8.1274 C   0  0  0  0  0  0  0  0  0  0  0  0
   19.7761  -17.4330    8.5771 O   0  0  0  0  0  0  0  0  0  0  0  0
   16.1860  -18.4695   15.1101 C   0  0  0  0  0  0  0  0  0  0  0  0
   16.0872  -18.8473   13.3449 S   0  0  0  0  0  0  0  0  0  0  0  0
   17.6887  -18.9786   12.5720 C   0  0  0  0  0  0  0  0  0  0  0  0
   17.6911  -19.1487   11.1086 C   0  0  0  0  0  0  0  0  0  0  0  0
   19.0549  -19.3047   10.4811 C   0  0  2  0  0  0  0  0  0  0  0  0
   18.9068  -19.5067    9.0516 N   0  0  0  0  0  0  0  0  0  0  0  0
   19.8408  -20.3881   11.0413 C   0  0  0  0  0  0  0  0  0  0  0  0
   19.5477  -21.7443   10.7920 O   0  0  0  0  0  0  0  0  0  0  0  0
   20.8250  -20.1763   11.7790 O   0  0  0  0  0  0  0  0  0  0  0  0
  2  1  1  1
  2  3  1  0
  3  4  1  0
  4 12  1  0
  4  5  2  0
  5  6  1  0
  7  8  2  0
  7  6  1  0
  9  8  1  0
 10  9  2  0
 11 10  1  0
 11 12  2  0
 12  7  1  0
 13 14  2  0
 13  2  1  0
 15 13  1  0
 16 15  1  0
 16 17  1  6
 18 17  1  0
 18 23  1  0
 19 18  2  0
 20 19  1  0
 20 21  2  0
 21 22  1  0
 22 23  2  0
 24 16  1  0
 25 24  2  0
 27 26  1  0
 27 28  1  0
 29 28  1  0
 30 29  1  1
 30 31  1  0
 31 24  1  0
 32 30  1  0
 32 33  1  0
 34 32  2  0
M  END
$$$$
