WFM.pdb
     RDKit          3D

 34 36  0  0  1  0  0  0  0  0999 V2000
   25.1149  -19.1984  -14.1751 N   0  0  0  0  0  0  0  0  0  0  0  0
   24.8857  -20.5754  -14.6330 C   0  0  1  0  0  0  0  0  0  0  0  0
   24.6931  -20.4921  -16.1180 C   0  0  0  0  0  0  0  0  0  0  0  0
   23.4777  -19.7738  -16.5347 C   0  0  0  0  0  0  0  0  0  0  0  0
   23.2834  -18.3958  -16.3900 C   0  0  0  0  0  0  0  0  0  0  0  0
   22.1112  -18.0572  -16.8895 N   0  0  0  0  0  0  0  0  0  0  0  0
   21.5101  -19.1567  -17.3644 C   0  0  0  0  0  0  0  0  0  0  0  0
   20.2685  -19.3247  -17.9752 C   0  0  0  0  0  0  0  0  0  0  0  0
   19.8834  -20.5847  -18.3648 C   0  0  0  0  0  0  0  0  0  0  0  0
   20.7160  -21.6587  -18.1514 C   0  0  0  0  0  0  0  0  0  0  0  0
   21.9445  -21.4822  -17.5455 C   0  0  0  0  0  0  0  0  0  0  0  0
   22.3472  -20.2280  -17.1499 C   0  0  0  0  0  0  0  0  0  0  0  0
   26.0273  -21.3988  -14.2227 C   0  0  0  0  0  0  0  0  0  0  0  0
   27.0973  -21.3317  -14.8779 O   0  0  0  0  0  0  0  0  0  0  0  0
   25.9700  -22.2851  -13.0839 N   0  0  0  0  0  0  0  0  0  0  0  0
   26.7656  -21.9569  -11.9382 C   0  0  1  0  0  0  0  0  0  0  0  0
   27.6322  -20.7332  -12.1963 C   0  0  0  0  0  0  0  0  0  0  0  0
   28.6290  -20.4715  -11.1652 C   0  0  0  0  0  0  0  0  0  0  0  0
   29.7005  -21.3202  -11.0201 C   0  0  0  0  0  0  0  0  0  0  0  0
   30.6280  -21.0328  -10.0161 C   0  0  0  0  0  0  0  0  0  0  0  0
   30.4849  -19.9358   -9.1904 C   0  0  0  0  0  0  0  0  0  0  0  0
   29.4205  -19.0969   -9.3383 C   0  0  0  0  0  0  0  0  0  0  0  0
   28.5089  -19.3906  -10.3342 C   0  0  0  0  0  0  0  0  0  0  0  0
   26.0220  -21.7650  -10.6825 C   0  0  0  0  0  0  0  0  0  0  0  0
   24.7904  -21.6071  -10.6242 O   0  0  0  0  0  0  0  0  0  0  0  0
   29.2982  -19.9572   -5.2155 C   0  0  0  0  0  0  0  0  0  0  0  0
   27.6917  -20.4400   -4.5415 S   0  0  0  0  0  0  0  0  0  0  0  0
   26.5292  -20.9311   -5.8013 C   0  0  0  0  0  0  0  0  0  0  0  0
   27.0869  -21.1581   -7.1460 C   0  0  0  0  0  0  0  0  0  0  0  0
   26.0940  -21.6193   -8.1850 C   0  0  2  0  0  0  0  0  0  0  0  0
   26.7669  -21.7652   -9.4625 N   0  0  0  0  0  0  0  0  0  0  0  0
   24.9519  -20.7380   -8.3406 C   0  0  0  0  0  0  0  0  0  0  0  0
   23.7114  -20.9886   -7.7194 O   0  0  0  0  0  0  0  0  0  0  0  0
   25.0065  -19.7040   -9.0373 O   0  0  0  0  0  0  0  0  0  0  0  0
  2  1  1  6
  2  3  1  0
  3  4  1  0
  4 12  1  0
  4  5  2  0
  5  6  1  0
  7  8  2  0
  7  6  1  0
  9  8  1  0
 10  9  2  0
 11 10  1  0
 11 12  2  0
 12  7  1  0
 13 14  2  0
 13  2  1  0
 15 13  1  0
 16 15  1  0
 16 17  1  6
 18 17  1  0
 18 23  1  0
 19 18  2  0
 20 19  1  0
 20 21  2  0
 21 22  1  0
 22 23  2  0
 24 16  1  0
 25 24  2  0
 27 26  1  0
 27 28  1  0
 29 28  1  0
 30 29  1  1
 30 31  1  0
 31 24  1  0
 32 30  1  0
 32 33  1  0
 34 32  2  0
M  END
$$$$
