HAP.pdb
     RDKit          3D

 23 24  0  0  1  0  0  0  0  0999 V2000
   29.1327  -20.2691  -19.0983 N   0  0  0  0  0  0  0  0  0  0  0  0
   27.8055  -19.9645  -18.6724 C   0  0  1  0  0  0  0  0  0  0  0  0
   26.7949  -20.9344  -19.2501 C   0  0  0  0  0  0  0  0  0  0  0  0
   26.2975  -20.4720  -20.5617 C   0  0  0  0  0  0  0  0  0  0  0  0
   25.0191  -19.9893  -20.7968 C   0  0  0  0  0  0  0  0  0  0  0  0
   24.9565  -19.6764  -22.0939 N   0  0  0  0  0  0  0  0  0  0  0  0
   26.1303  -19.9377  -22.6862 C   0  0  0  0  0  0  0  0  0  0  0  0
   26.9432  -20.4250  -21.7352 N   0  0  0  0  0  0  0  0  0  0  0  0
   27.6395  -19.9466  -17.1925 C   0  0  0  0  0  0  0  0  0  0  0  0
   28.1116  -20.9054  -16.5425 O   0  0  0  0  0  0  0  0  0  0  0  0
   26.3625  -17.5256  -14.5992 C   0  0  0  0  0  0  0  0  0  0  0  0
   26.8825  -18.8820  -15.0297 C   0  0  2  0  0  0  0  0  0  0  0  0
   26.9875  -18.9203  -16.4933 N   0  0  0  0  0  0  0  0  0  0  0  0
   25.9703  -19.9187  -14.5372 C   0  0  0  0  0  0  0  0  0  0  0  0
   25.0359  -20.3856  -15.2823 O   0  0  0  0  0  0  0  0  0  0  0  0
   26.1078  -20.4249  -13.2251 N   0  0  0  0  0  0  0  0  0  0  0  0
   27.0911  -19.9133  -12.2485 C   0  0  0  0  0  0  0  0  0  0  0  0
   26.4505  -20.3288  -10.9457 C   0  0  0  0  0  0  0  0  0  0  0  0
   26.0997  -21.7810  -11.3062 C   0  0  0  0  0  0  0  0  0  0  0  0
   25.3487  -21.4961  -12.6182 C   0  0  1  0  0  0  0  0  0  0  0  0
   24.0009  -20.9265  -12.2456 C   0  0  0  0  0  0  0  0  0  0  0  0
   23.0168  -21.6293  -11.9628 O   0  0  0  0  0  0  0  0  0  0  0  0
   23.8488  -19.5408  -12.2162 O   0  0  0  0  0  0  0  0  0  0  0  0
  2  1  1  1
  2  9  1  0
  2  3  1  0
  3  4  1  0
  4  8  1  0
  4  5  2  0
  5  6  1  0
  7  6  1  0
  8  7  2  0
  9 13  1  0
 10  9  2  0
 12 11  1  6
 12 14  1  0
 13 12  1  0
 14 16  1  0
 15 14  2  0
 16 20  1  0
 16 17  1  0
 17 18  1  0
 19 18  1  0
 20 19  1  0
 20 21  1  1
 21 23  1  0
 22 21  2  0
M  END
$$$$
