HAP.pdb
     RDKit          3D

 23 24  0  0  1  0  0  0  0  0999 V2000
   17.9463  -12.9112  -16.7479 N   0  0  0  0  0  0  0  0  0  0  0  0
   17.8326  -11.5532  -17.1705 C   0  0  1  0  0  0  0  0  0  0  0  0
   16.4979  -10.9536  -16.7771 C   0  0  0  0  0  0  0  0  0  0  0  0
   15.3857  -11.5977  -17.5048 C   0  0  0  0  0  0  0  0  0  0  0  0
   14.6748  -11.0118  -18.5411 C   0  0  0  0  0  0  0  0  0  0  0  0
   13.7595  -11.9019  -18.9337 N   0  0  0  0  0  0  0  0  0  0  0  0
   13.8587  -13.0175  -18.1971 C   0  0  0  0  0  0  0  0  0  0  0  0
   14.8597  -12.8172  -17.3250 N   0  0  0  0  0  0  0  0  0  0  0  0
   18.9115  -10.6698  -16.6476 C   0  0  0  0  0  0  0  0  0  0  0  0
   19.0855  -10.6343  -15.4094 O   0  0  0  0  0  0  0  0  0  0  0  0
   21.7221   -8.6091  -18.0666 C   0  0  0  0  0  0  0  0  0  0  0  0
   20.7980   -9.0139  -16.9362 C   0  0  2  0  0  0  0  0  0  0  0  0
   19.7372   -9.8814  -17.4624 N   0  0  0  0  0  0  0  0  0  0  0  0
   20.2384   -7.8051  -16.3241 C   0  0  0  0  0  0  0  0  0  0  0  0
   19.1166   -7.3228  -16.7183 O   0  0  0  0  0  0  0  0  0  0  0  0
   20.9297   -7.1480  -15.2815 N   0  0  0  0  0  0  0  0  0  0  0  0
   22.2260   -7.6069  -14.7415 C   0  0  0  0  0  0  0  0  0  0  0  0
   22.7636   -6.3267  -14.1480 C   0  0  0  0  0  0  0  0  0  0  0  0
   21.5038   -5.8651  -13.3984 C   0  0  0  0  0  0  0  0  0  0  0  0
   20.5150   -5.9570  -14.5733 C   0  0  1  0  0  0  0  0  0  0  0  0
   20.7922   -4.7835  -15.4820 C   0  0  0  0  0  0  0  0  0  0  0  0
   20.3037   -3.6549  -15.3085 O   0  0  0  0  0  0  0  0  0  0  0  0
   21.6395   -4.9720  -16.5731 O   0  0  0  0  0  0  0  0  0  0  0  0
  2  1  1  1
  2  9  1  0
  2  3  1  0
  3  4  1  0
  4  8  1  0
  4  5  2  0
  5  6  1  0
  7  6  1  0
  8  7  2  0
  9 13  1  0
 10  9  2  0
 12 11  1  6
 12 14  1  0
 13 12  1  0
 14 16  1  0
 15 14  2  0
 16 20  1  0
 16 17  1  0
 17 18  1  0
 19 18  1  0
 20 19  1  0
 20 21  1  6
 21 23  1  0
 22 21  2  0
M  END
$$$$
