HAP.pdb
     RDKit          3D

 23 24  0  0  1  0  0  0  0  0999 V2000
   16.2857  -19.3007    2.5106 N   0  0  0  0  0  0  0  0  0  0  0  0
   16.6432  -19.7749    3.8078 C   0  0  1  0  0  0  0  0  0  0  0  0
   17.3229  -21.1275    3.7426 C   0  0  0  0  0  0  0  0  0  0  0  0
   16.3624  -22.1935    3.3926 C   0  0  0  0  0  0  0  0  0  0  0  0
   16.2794  -22.8062    2.1515 C   0  0  0  0  0  0  0  0  0  0  0  0
   15.2973  -23.7082    2.2307 N   0  0  0  0  0  0  0  0  0  0  0  0
   14.7587  -23.6938    3.4581 C   0  0  0  0  0  0  0  0  0  0  0  0
   15.4213  -22.7605    4.1601 N   0  0  0  0  0  0  0  0  0  0  0  0
   17.5284  -18.8456    4.5633 C   0  0  0  0  0  0  0  0  0  0  0  0
   18.4698  -18.3048    3.9421 O   0  0  0  0  0  0  0  0  0  0  0  0
   17.4344  -16.9491    7.7592 C   0  0  0  0  0  0  0  0  0  0  0  0
   18.2306  -17.6121    6.6538 C   0  0  2  0  0  0  0  0  0  0  0  0
   17.3646  -18.5459    5.9237 N   0  0  0  0  0  0  0  0  0  0  0  0
   19.3780  -18.3067    7.2456 C   0  0  0  0  0  0  0  0  0  0  0  0
   19.3629  -19.5776    7.4213 O   0  0  0  0  0  0  0  0  0  0  0  0
   20.5278  -17.5825    7.6332 N   0  0  0  0  0  0  0  0  0  0  0  0
   20.6773  -16.1241    7.4512 C   0  0  0  0  0  0  0  0  0  0  0  0
   21.7157  -15.8049    8.5000 C   0  0  0  0  0  0  0  0  0  0  0  0
   22.7145  -16.9327    8.1961 C   0  0  0  0  0  0  0  0  0  0  0  0
   21.7253  -18.1095    8.2499 C   0  0  1  0  0  0  0  0  0  0  0  0
   21.4023  -18.3542    9.7043 C   0  0  0  0  0  0  0  0  0  0  0  0
   20.4412  -17.8277   10.2887 O   0  0  0  0  0  0  0  0  0  0  0  0
   22.2226  -19.2149   10.4328 O   0  0  0  0  0  0  0  0  0  0  0  0
  2  1  1  6
  2  9  1  0
  2  3  1  0
  3  4  1  0
  4  8  1  0
  4  5  2  0
  5  6  1  0
  7  6  1  0
  8  7  2  0
  9 13  1  0
 10  9  2  0
 12 11  1  1
 12 14  1  0
 13 12  1  0
 14 16  1  0
 15 14  2  0
 16 20  1  0
 16 17  1  0
 17 18  1  0
 19 18  1  0
 20 19  1  0
 20 21  1  1
 21 23  1  0
 22 21  2  0
M  END
$$$$
