HAP.pdb
     RDKit          3D

 23 24  0  0  1  0  0  0  0  0999 V2000
   27.0352  -21.8212  -10.8602 N   0  0  0  0  0  0  0  0  0  0  0  0
   25.8144  -21.0841  -10.8182 C   0  0  1  0  0  0  0  0  0  0  0  0
   26.0347  -19.6612  -10.3466 C   0  0  0  0  0  0  0  0  0  0  0  0
   26.3534  -19.6176   -8.9051 C   0  0  0  0  0  0  0  0  0  0  0  0
   26.3944  -20.7244   -8.0710 C   0  0  0  0  0  0  0  0  0  0  0  0
   26.7153  -20.2790   -6.8532 N   0  0  0  0  0  0  0  0  0  0  0  0
   26.8782  -18.9487   -6.8792 C   0  0  0  0  0  0  0  0  0  0  0  0
   26.6533  -18.5564   -8.1435 N   0  0  0  0  0  0  0  0  0  0  0  0
   25.0973  -21.0360  -12.1226 C   0  0  0  0  0  0  0  0  0  0  0  0
   25.7599  -20.7354  -13.1400 O   0  0  0  0  0  0  0  0  0  0  0  0
   21.6257  -21.8145  -13.3852 C   0  0  0  0  0  0  0  0  0  0  0  0
   23.0453  -21.3182  -13.5696 C   0  0  2  0  0  0  0  0  0  0  0  0
   23.7293  -21.3078  -12.2709 N   0  0  0  0  0  0  0  0  0  0  0  0
   23.0068  -19.9762  -14.1584 C   0  0  0  0  0  0  0  0  0  0  0  0
   22.8425  -18.9365  -13.4245 O   0  0  0  0  0  0  0  0  0  0  0  0
   23.1525  -19.8048  -15.5534 N   0  0  0  0  0  0  0  0  0  0  0  0
   23.2996  -20.9249  -16.5054 C   0  0  0  0  0  0  0  0  0  0  0  0
   22.8316  -20.2800  -17.7880 C   0  0  0  0  0  0  0  0  0  0  0  0
   23.6255  -18.9673  -17.6972 C   0  0  0  0  0  0  0  0  0  0  0  0
   23.1888  -18.5553  -16.2809 C   0  0  1  0  0  0  0  0  0  0  0  0
   21.7658  -18.0600  -16.3797 C   0  0  0  0  0  0  0  0  0  0  0  0
   21.4688  -16.8817  -16.6363 O   0  0  0  0  0  0  0  0  0  0  0  0
   20.7287  -18.9688  -16.1730 O   0  0  0  0  0  0  0  0  0  0  0  0
  2  1  1  6
  2  9  1  0
  2  3  1  0
  3  4  1  0
  4  8  1  0
  4  5  2  0
  5  6  1  0
  7  6  1  0
  8  7  2  0
  9 13  1  0
 10  9  2  0
 12 11  1  1
 12 14  1  0
 13 12  1  0
 14 16  1  0
 15 14  2  0
 16 20  1  0
 16 17  1  0
 17 18  1  0
 19 18  1  0
 20 19  1  0
 20 21  1  6
 21 23  1  0
 22 21  2  0
M  END
$$$$
