HAP.pdb
     RDKit          3D

 23 24  0  0  1  0  0  0  0  0999 V2000
   18.7493  -12.4715  -16.6368 N   0  0  0  0  0  0  0  0  0  0  0  0
   18.1646  -11.2566  -16.1703 C   0  0  1  0  0  0  0  0  0  0  0  0
   17.5306  -11.4277  -14.8048 C   0  0  0  0  0  0  0  0  0  0  0  0
   16.3831  -12.3559  -14.8593 C   0  0  0  0  0  0  0  0  0  0  0  0
   16.4180  -13.6805  -14.4511 C   0  0  0  0  0  0  0  0  0  0  0  0
   15.1962  -14.1805  -14.6559 N   0  0  0  0  0  0  0  0  0  0  0  0
   14.3952  -13.2376  -15.1719 C   0  0  0  0  0  0  0  0  0  0  0  0
   15.1358  -12.1241  -15.2913 N   0  0  0  0  0  0  0  0  0  0  0  0
   19.1224  -10.1185  -16.0991 C   0  0  0  0  0  0  0  0  0  0  0  0
   20.1009  -10.2289  -15.3278 O   0  0  0  0  0  0  0  0  0  0  0  0
   19.7211   -6.8804  -17.9178 C   0  0  0  0  0  0  0  0  0  0  0  0
   19.9107   -7.8023  -16.7305 C   0  0  2  0  0  0  0  0  0  0  0  0
   18.9877   -8.9381  -16.8446 N   0  0  0  0  0  0  0  0  0  0  0  0
   19.6693   -7.0458  -15.4982 C   0  0  0  0  0  0  0  0  0  0  0  0
   18.5097   -7.0287  -14.9491 O   0  0  0  0  0  0  0  0  0  0  0  0
   20.7178   -6.3195  -14.8901 N   0  0  0  0  0  0  0  0  0  0  0  0
   22.0929   -6.2616  -15.4270 C   0  0  0  0  0  0  0  0  0  0  0  0
   22.5922   -4.9769  -14.8101 C   0  0  0  0  0  0  0  0  0  0  0  0
   22.1183   -5.2068  -13.3664 C   0  0  0  0  0  0  0  0  0  0  0  0
   20.6477   -5.5340  -13.6777 C   0  0  1  0  0  0  0  0  0  0  0  0
   19.9673   -4.2336  -14.0324 C   0  0  0  0  0  0  0  0  0  0  0  0
   19.7968   -3.8483  -15.2007 O   0  0  0  0  0  0  0  0  0  0  0  0
   19.5050   -3.4205  -12.9984 O   0  0  0  0  0  0  0  0  0  0  0  0
  2  1  1  1
  2  9  1  0
  2  3  1  0
  3  4  1  0
  4  8  1  0
  4  5  2  0
  5  6  1  0
  7  6  1  0
  8  7  2  0
  9 13  1  0
 10  9  2  0
 12 11  1  6
 12 14  1  0
 13 12  1  0
 14 16  1  0
 15 14  2  0
 16 20  1  0
 16 17  1  0
 17 18  1  0
 19 18  1  0
 20 19  1  0
 20 21  1  6
 21 23  1  0
 22 21  2  0
M  END
$$$$
