HAP.pdb
     RDKit          3D

 23 24  0  0  1  0  0  0  0  0999 V2000
   17.6770  -11.3216  -17.9811 N   0  0  0  0  0  0  0  0  0  0  0  0
   18.7014  -10.4583  -18.4719 C   0  0  1  0  0  0  0  0  0  0  0  0
   18.1503   -9.4229  -19.4310 C   0  0  0  0  0  0  0  0  0  0  0  0
   17.5818  -10.0585  -20.6369 C   0  0  0  0  0  0  0  0  0  0  0  0
   18.3238  -10.5016  -21.7212 C   0  0  0  0  0  0  0  0  0  0  0  0
   17.4570  -11.0113  -22.6005 N   0  0  0  0  0  0  0  0  0  0  0  0
   16.2079  -10.9113  -22.1243 C   0  0  0  0  0  0  0  0  0  0  0  0
   16.2992  -10.3252  -20.9197 N   0  0  0  0  0  0  0  0  0  0  0  0
   19.4508   -9.7466  -17.3996 C   0  0  0  0  0  0  0  0  0  0  0  0
   18.7884   -9.1066  -16.5533 O   0  0  0  0  0  0  0  0  0  0  0  0
   23.0342   -9.5020  -16.2465 C   0  0  0  0  0  0  0  0  0  0  0  0
   21.5748   -9.0985  -16.1940 C   0  0  2  0  0  0  0  0  0  0  0  0
   20.8490   -9.7552  -17.2880 N   0  0  0  0  0  0  0  0  0  0  0  0
   21.4813   -7.6391  -16.2978 C   0  0  0  0  0  0  0  0  0  0  0  0
   21.3486   -7.0644  -17.4373 O   0  0  0  0  0  0  0  0  0  0  0  0
   21.5348   -6.8365  -15.1361 N   0  0  0  0  0  0  0  0  0  0  0  0
   21.6739   -7.3811  -13.7699 C   0  0  0  0  0  0  0  0  0  0  0  0
   22.2544   -6.1930  -13.0408 C   0  0  0  0  0  0  0  0  0  0  0  0
   21.3034   -5.1052  -13.5644 C   0  0  0  0  0  0  0  0  0  0  0  0
   21.4616   -5.3937  -15.0671 C   0  0  1  0  0  0  0  0  0  0  0  0
   22.8122   -4.8623  -15.4832 C   0  0  0  0  0  0  0  0  0  0  0  0
   23.8577   -5.5297  -15.4208 O   0  0  0  0  0  0  0  0  0  0  0  0
   22.8947   -3.5556  -15.9628 O   0  0  0  0  0  0  0  0  0  0  0  0
  2  1  1  1
  2  9  1  0
  2  3  1  0
  3  4  1  0
  4  8  1  0
  4  5  2  0
  5  6  1  0
  7  6  1  0
  8  7  2  0
  9 13  1  0
 10  9  2  0
 12 11  1  6
 12 14  1  0
 13 12  1  0
 14 16  1  0
 15 14  2  0
 16 20  1  0
 16 17  1  0
 17 18  1  0
 19 18  1  0
 20 19  1  0
 20 21  1  1
 21 23  1  0
 22 21  2  0
M  END
$$$$
