HAP.pdb
     RDKit          3D

 23 24  0  0  1  0  0  0  0  0999 V2000
   25.8589  -23.0780  -17.6473 N   0  0  0  0  0  0  0  0  0  0  0  0
   24.6141  -22.7076  -17.0566 C   0  0  1  0  0  0  0  0  0  0  0  0
   23.6838  -23.8955  -16.9183 C   0  0  0  0  0  0  0  0  0  0  0  0
   23.2281  -24.3759  -18.2385 C   0  0  0  0  0  0  0  0  0  0  0  0
   23.5921  -25.5867  -18.8077 C   0  0  0  0  0  0  0  0  0  0  0  0
   22.9807  -25.6558  -19.9934 N   0  0  0  0  0  0  0  0  0  0  0  0
   22.2509  -24.5503  -20.1985 C   0  0  0  0  0  0  0  0  0  0  0  0
   22.4117  -23.7743  -19.1147 N   0  0  0  0  0  0  0  0  0  0  0  0
   24.7517  -22.0665  -15.7195 C   0  0  0  0  0  0  0  0  0  0  0  0
   25.4836  -22.6305  -14.8763 O   0  0  0  0  0  0  0  0  0  0  0  0
   23.5721  -18.8904  -14.0521 C   0  0  0  0  0  0  0  0  0  0  0  0
   24.2894  -20.2249  -14.0523 C   0  0  2  0  0  0  0  0  0  0  0  0
   24.1099  -20.8732  -15.3571 N   0  0  0  0  0  0  0  0  0  0  0  0
   23.7501  -21.0544  -12.9705 C   0  0  0  0  0  0  0  0  0  0  0  0
   22.8190  -21.9087  -13.1935 O   0  0  0  0  0  0  0  0  0  0  0  0
   24.2520  -20.9266  -11.6558 N   0  0  0  0  0  0  0  0  0  0  0  0
   25.4088  -20.0797  -11.2992 C   0  0  0  0  0  0  0  0  0  0  0  0
   25.1509  -19.8380   -9.8312 C   0  0  0  0  0  0  0  0  0  0  0  0
   24.8303  -21.2796   -9.4059 C   0  0  0  0  0  0  0  0  0  0  0  0
   23.7532  -21.5759  -10.4635 C   0  0  1  0  0  0  0  0  0  0  0  0
   22.5044  -20.8364  -10.0471 C   0  0  0  0  0  0  0  0  0  0  0  0
   22.2144  -19.7004  -10.4570 O   0  0  0  0  0  0  0  0  0  0  0  0
   21.6289  -21.4568   -9.1567 O   0  0  0  0  0  0  0  0  0  0  0  0
  2  1  1  1
  2  9  1  0
  2  3  1  0
  3  4  1  0
  4  8  1  0
  4  5  2  0
  5  6  1  0
  7  6  1  0
  8  7  2  0
  9 13  1  0
 10  9  2  0
 12 11  1  6
 12 14  1  0
 13 12  1  0
 14 16  1  0
 15 14  2  0
 16 20  1  0
 16 17  1  0
 17 18  1  0
 19 18  1  0
 20 19  1  0
 20 21  1  1
 21 23  1  0
 22 21  2  0
M  END
$$$$
