HAP.pdb
     RDKit          3D

 23 24  0  0  1  0  0  0  0  0999 V2000
   21.2848  -15.6359  -16.8542 N   0  0  0  0  0  0  0  0  0  0  0  0
   20.3080  -14.7244  -16.3537 C   0  0  1  0  0  0  0  0  0  0  0  0
   19.8324  -15.1166  -14.9696 C   0  0  0  0  0  0  0  0  0  0  0  0
   19.2247  -16.4627  -14.9732 C   0  0  0  0  0  0  0  0  0  0  0  0
   18.1569  -16.8457  -15.7705 C   0  0  0  0  0  0  0  0  0  0  0  0
   17.9019  -18.1258  -15.4865 N   0  0  0  0  0  0  0  0  0  0  0  0
   18.7549  -18.5671  -14.5513 C   0  0  0  0  0  0  0  0  0  0  0  0
   19.5603  -17.5371  -14.2457 N   0  0  0  0  0  0  0  0  0  0  0  0
   20.7766  -13.3118  -16.3015 C   0  0  0  0  0  0  0  0  0  0  0  0
   21.6973  -13.0334  -15.5018 O   0  0  0  0  0  0  0  0  0  0  0  0
   20.3707  -10.2167  -18.3728 C   0  0  0  0  0  0  0  0  0  0  0  0
   20.7577  -10.9086  -17.0816 C   0  0  2  0  0  0  0  0  0  0  0  0
   20.2455  -12.2842  -17.0947 N   0  0  0  0  0  0  0  0  0  0  0  0
   20.2091  -10.1502  -15.9533 C   0  0  0  0  0  0  0  0  0  0  0  0
   19.0640  -10.4432  -15.4540 O   0  0  0  0  0  0  0  0  0  0  0  0
   20.9386   -9.0778  -15.3926 N   0  0  0  0  0  0  0  0  0  0  0  0
   22.1978   -8.5567  -15.9632 C   0  0  0  0  0  0  0  0  0  0  0  0
   22.2158   -7.1566  -15.3980 C   0  0  0  0  0  0  0  0  0  0  0  0
   21.8704   -7.4858  -13.9371 C   0  0  0  0  0  0  0  0  0  0  0  0
   20.6080   -8.3236  -14.2035 C   0  0  1  0  0  0  0  0  0  0  0  0
   19.5068   -7.3625  -14.5818 C   0  0  0  0  0  0  0  0  0  0  0  0
   19.2146   -7.0865  -15.7569 O   0  0  0  0  0  0  0  0  0  0  0  0
   18.7777   -6.7509  -13.5627 O   0  0  0  0  0  0  0  0  0  0  0  0
  2  1  1  1
  2  9  1  0
  2  3  1  0
  3  4  1  0
  4  8  1  0
  4  5  2  0
  5  6  1  0
  7  6  1  0
  8  7  2  0
  9 13  1  0
 10  9  2  0
 12 11  1  6
 12 14  1  0
 13 12  1  0
 14 16  1  0
 15 14  2  0
 16 20  1  0
 16 17  1  0
 17 18  1  0
 19 18  1  0
 20 19  1  0
 20 21  1  6
 21 23  1  0
 22 21  2  0
M  END
$$$$
