HAP.pdb
     RDKit          3D

 23 24  0  0  1  0  0  0  0  0999 V2000
   14.3507  -24.3794    2.9285 N   0  0  0  0  0  0  0  0  0  0  0  0
   15.4909  -23.5319    3.0594 C   0  0  1  0  0  0  0  0  0  0  0  0
   15.1866  -22.1120    2.6270 C   0  0  0  0  0  0  0  0  0  0  0  0
   14.8170  -22.0544    1.1982 C   0  0  0  0  0  0  0  0  0  0  0  0
   15.7050  -22.2126    0.1452 C   0  0  0  0  0  0  0  0  0  0  0  0
   14.9950  -22.0948   -0.9802 N   0  0  0  0  0  0  0  0  0  0  0  0
   13.7060  -21.8708   -0.6883 C   0  0  0  0  0  0  0  0  0  0  0  0
   13.6111  -21.8485    0.6508 N   0  0  0  0  0  0  0  0  0  0  0  0
   16.0507  -23.4881    4.4388 C   0  0  0  0  0  0  0  0  0  0  0  0
   15.3114  -23.0626    5.3535 O   0  0  0  0  0  0  0  0  0  0  0  0
   19.2321  -24.5687    6.1572 C   0  0  0  0  0  0  0  0  0  0  0  0
   17.8837  -23.8783    6.1336 C   0  0  2  0  0  0  0  0  0  0  0  0
   17.3526  -23.8954    4.7652 N   0  0  0  0  0  0  0  0  0  0  0  0
   18.0443  -22.5054    6.6219 C   0  0  0  0  0  0  0  0  0  0  0  0
   18.3120  -21.5438    5.8157 O   0  0  0  0  0  0  0  0  0  0  0  0
   17.9041  -22.2168    7.9981 N   0  0  0  0  0  0  0  0  0  0  0  0
   17.5374  -23.2254    9.0133 C   0  0  0  0  0  0  0  0  0  0  0  0
   18.0888  -22.5899   10.2672 C   0  0  0  0  0  0  0  0  0  0  0  0
   17.5479  -21.1652   10.0689 C   0  0  0  0  0  0  0  0  0  0  0  0
   18.0804  -20.9348    8.6442 C   0  0  1  0  0  0  0  0  0  0  0  0
   19.5672  -20.6976    8.7570 C   0  0  0  0  0  0  0  0  0  0  0  0
   20.4133  -21.6000    8.6465 O   0  0  0  0  0  0  0  0  0  0  0  0
   20.0180  -19.4002    8.9975 O   0  0  0  0  0  0  0  0  0  0  0  0
  2  1  1  1
  2  9  1  0
  2  3  1  0
  3  4  1  0
  4  8  1  0
  4  5  2  0
  5  6  1  0
  7  6  1  0
  8  7  2  0
  9 13  1  0
 10  9  2  0
 12 11  1  6
 12 14  1  0
 13 12  1  0
 14 16  1  0
 15 14  2  0
 16 20  1  0
 16 17  1  0
 17 18  1  0
 19 18  1  0
 20 19  1  0
 20 21  1  1
 21 23  1  0
 22 21  2  0
M  END
$$$$
