NAW.pdb
     RDKit          3D

 28 29  0  0  1  0  0  0  0  0999 V2000
   30.9844  -25.7006  -17.8201 N   0  0  0  0  0  0  0  0  0  0  0  0
   30.2615  -24.4943  -17.9393 C   0  0  0  0  0  0  0  0  0  0  0  0
   29.7541  -24.1964  -19.0422 O   0  0  0  0  0  0  0  0  0  0  0  0
   30.0956  -23.5848  -16.7903 C   0  0  0  0  0  0  0  0  0  0  0  0
   29.3956  -22.2899  -17.1718 C   0  0  2  0  0  0  0  0  0  0  0  0
   30.3083  -21.3699  -17.8140 N   0  0  0  0  0  0  0  0  0  0  0  0
   28.9192  -21.6984  -15.8797 C   0  0  0  0  0  0  0  0  0  0  0  0
   29.1752  -22.2952  -14.8117 O   0  0  0  0  0  0  0  0  0  0  0  0
   27.2694  -18.4646  -14.9720 C   0  0  0  0  0  0  0  0  0  0  0  0
   27.7412  -19.8570  -14.6114 C   0  0  2  0  0  0  0  0  0  0  0  0
   28.1912  -20.4918  -15.8233 N   0  0  0  0  0  0  0  0  0  0  0  0
   26.6581  -20.6352  -13.9463 C   0  0  0  0  0  0  0  0  0  0  0  0
   25.8776  -21.2834  -14.6868 O   0  0  0  0  0  0  0  0  0  0  0  0
   26.4781  -20.6740  -12.5601 N   0  0  0  0  0  0  0  0  0  0  0  0
   25.5209  -21.4919  -11.8662 C   0  0  1  0  0  0  0  0  0  0  0  0
   26.1114  -22.1098  -10.6141 C   0  0  0  0  0  0  0  0  0  0  0  0
   26.2858  -21.0894   -9.5488 C   0  0  0  0  0  0  0  0  0  0  0  0
   25.3272  -20.1440   -9.2088 C   0  0  0  0  0  0  0  0  0  0  0  0
   25.8152  -19.3815   -8.2082 N   0  0  0  0  0  0  0  0  0  0  0  0
   27.0541  -19.7830   -7.8734 C   0  0  0  0  0  0  0  0  0  0  0  0
   27.9890  -19.3674   -6.9416 C   0  0  0  0  0  0  0  0  0  0  0  0
   29.2094  -19.9759   -6.8115 C   0  0  0  0  0  0  0  0  0  0  0  0
   29.4821  -21.0320   -7.6510 C   0  0  0  0  0  0  0  0  0  0  0  0
   28.5710  -21.4773   -8.5972 C   0  0  0  0  0  0  0  0  0  0  0  0
   27.3537  -20.8562   -8.7136 C   0  0  0  0  0  0  0  0  0  0  0  0
   24.2880  -20.7561  -11.5147 C   0  0  0  0  0  0  0  0  0  0  0  0
   24.2151  -19.5155  -11.5003 O   0  0  0  0  0  0  0  0  0  0  0  0
   23.1580  -21.4896  -11.1851 O   0  0  0  0  0  0  0  0  0  0  0  0
  2  3  2  0
  2  1  1  0
  4  2  1  0
  5  6  1  1
  5  4  1  0
  5  7  1  0
  7  8  2  0
  7 11  1  0
 10  9  1  6
 11 10  1  0
 12 10  1  0
 12 14  1  0
 13 12  2  0
 15 14  1  0
 15 26  1  0
 15 16  1  1
 17 16  1  0
 17 18  2  0
 19 18  1  0
 20 25  2  0
 20 19  1  0
 21 20  1  0
 22 23  1  0
 22 21  2  0
 23 24  2  0
 24 25  1  0
 25 17  1  0
 26 28  1  0
 27 26  2  0
M  END
$$$$
