NAW.pdb
     RDKit          3D

 28 29  0  0  1  0  0  0  0  0999 V2000
   32.0848  -25.5043  -16.1383 N   0  0  0  0  0  0  0  0  0  0  0  0
   31.6701  -24.3849  -16.8913 C   0  0  0  0  0  0  0  0  0  0  0  0
   31.7992  -24.4071  -18.1344 O   0  0  0  0  0  0  0  0  0  0  0  0
   31.0900  -23.1962  -16.2389 C   0  0  0  0  0  0  0  0  0  0  0  0
   29.6877  -22.8865  -16.7389 C   0  0  2  0  0  0  0  0  0  0  0  0
   29.7253  -22.1145  -17.9613 N   0  0  0  0  0  0  0  0  0  0  0  0
   29.0487  -22.0723  -15.6549 C   0  0  0  0  0  0  0  0  0  0  0  0
   28.9807  -22.5493  -14.5016 O   0  0  0  0  0  0  0  0  0  0  0  0
   27.5373  -18.6413  -15.5407 C   0  0  0  0  0  0  0  0  0  0  0  0
   27.8821  -19.9644  -14.8911 C   0  0  2  0  0  0  0  0  0  0  0  0
   28.5197  -20.7857  -15.8877 N   0  0  0  0  0  0  0  0  0  0  0  0
   26.6673  -20.6183  -14.3274 C   0  0  0  0  0  0  0  0  0  0  0  0
   25.8757  -21.1587  -15.1392 O   0  0  0  0  0  0  0  0  0  0  0  0
   26.3777  -20.6556  -12.9599 N   0  0  0  0  0  0  0  0  0  0  0  0
   25.3096  -21.4030  -12.3538 C   0  0  1  0  0  0  0  0  0  0  0  0
   25.7755  -22.1511  -11.1203 C   0  0  0  0  0  0  0  0  0  0  0  0
   26.2314  -21.2082  -10.0669 C   0  0  0  0  0  0  0  0  0  0  0  0
   25.4191  -20.2541   -9.4685 C   0  0  0  0  0  0  0  0  0  0  0  0
   26.1535  -19.5750   -8.5628 N   0  0  0  0  0  0  0  0  0  0  0  0
   27.4151  -20.0399   -8.5380 C   0  0  0  0  0  0  0  0  0  0  0  0
   28.5528  -19.7178   -7.8188 C   0  0  0  0  0  0  0  0  0  0  0  0
   29.7407  -20.3753   -8.0003 C   0  0  0  0  0  0  0  0  0  0  0  0
   29.7687  -21.3838   -8.9365 C   0  0  0  0  0  0  0  0  0  0  0  0
   28.6497  -21.7354   -9.6767 C   0  0  0  0  0  0  0  0  0  0  0  0
   27.4683  -21.0664   -9.4818 C   0  0  0  0  0  0  0  0  0  0  0  0
   24.1472  -20.5591  -12.0050 C   0  0  0  0  0  0  0  0  0  0  0  0
   23.0283  -21.0220  -11.7247 O   0  0  0  0  0  0  0  0  0  0  0  0
   24.3168  -19.1827  -11.9905 O   0  0  0  0  0  0  0  0  0  0  0  0
  2  3  2  0
  2  1  1  0
  4  2  1  0
  5  6  1  6
  5  4  1  0
  5  7  1  0
  7  8  2  0
  7 11  1  0
 10  9  1  6
 11 10  1  0
 12 10  1  0
 12 14  1  0
 13 12  2  0
 15 14  1  0
 15 26  1  0
 15 16  1  1
 17 16  1  0
 17 18  2  0
 19 18  1  0
 20 25  2  0
 20 19  1  0
 21 20  1  0
 22 23  1  0
 22 21  2  0
 23 24  2  0
 24 25  1  0
 25 17  1  0
 26 28  1  0
 27 26  2  0
M  END
$$$$
