NAW.pdb
     RDKit          3D

 28 29  0  0  1  0  0  0  0  0999 V2000
   19.9149  -22.5803  -11.6543 N   0  0  0  0  0  0  0  0  0  0  0  0
   19.3123  -22.0850  -12.8305 C   0  0  0  0  0  0  0  0  0  0  0  0
   18.0827  -22.2388  -12.9945 O   0  0  0  0  0  0  0  0  0  0  0  0
   20.1053  -21.3927  -13.8635 C   0  0  0  0  0  0  0  0  0  0  0  0
   21.5877  -21.3531  -13.5270 C   0  0  2  0  0  0  0  0  0  0  0  0
   21.8393  -20.5338  -12.3620 N   0  0  0  0  0  0  0  0  0  0  0  0
   22.2514  -20.7376  -14.7216 C   0  0  0  0  0  0  0  0  0  0  0  0
   22.2895  -21.3836  -15.7909 O   0  0  0  0  0  0  0  0  0  0  0  0
   23.2205  -17.3377  -15.7113 C   0  0  0  0  0  0  0  0  0  0  0  0
   23.5058  -18.8222  -15.7916 C   0  0  2  0  0  0  0  0  0  0  0  0
   22.8362  -19.4547  -14.6844 N   0  0  0  0  0  0  0  0  0  0  0  0
   24.9721  -19.0883  -15.7788 C   0  0  0  0  0  0  0  0  0  0  0  0
   25.6395  -18.6796  -16.7612 O   0  0  0  0  0  0  0  0  0  0  0  0
   25.6233  -19.7600  -14.7395 N   0  0  0  0  0  0  0  0  0  0  0  0
   27.0333  -20.0335  -14.6780 C   0  0  1  0  0  0  0  0  0  0  0  0
   27.5964  -19.7777  -13.2938 C   0  0  0  0  0  0  0  0  0  0  0  0
   26.8462  -20.5422  -12.2647 C   0  0  0  0  0  0  0  0  0  0  0  0
   26.4246  -21.8559  -12.4213 C   0  0  0  0  0  0  0  0  0  0  0  0
   25.7761  -22.2330  -11.2996 N   0  0  0  0  0  0  0  0  0  0  0  0
   25.7518  -21.2249  -10.4100 C   0  0  0  0  0  0  0  0  0  0  0  0
   25.2350  -21.0689   -9.1357 C   0  0  0  0  0  0  0  0  0  0  0  0
   25.3591  -19.8974   -8.4368 C   0  0  0  0  0  0  0  0  0  0  0  0
   26.0253  -18.8617   -9.0517 C   0  0  0  0  0  0  0  0  0  0  0  0
   26.5568  -18.9797  -10.3274 C   0  0  0  0  0  0  0  0  0  0  0  0
   26.4232  -20.1603  -11.0126 C   0  0  0  0  0  0  0  0  0  0  0  0
   27.3674  -21.4116  -15.0956 C   0  0  0  0  0  0  0  0  0  0  0  0
   28.5336  -21.8171  -15.2377 O   0  0  0  0  0  0  0  0  0  0  0  0
   26.3254  -22.2935  -15.3403 O   0  0  0  0  0  0  0  0  0  0  0  0
  2  3  2  0
  2  1  1  0
  4  2  1  0
  5  6  1  1
  5  4  1  0
  5  7  1  0
  7  8  2  0
  7 11  1  0
 10  9  1  1
 11 10  1  0
 12 10  1  0
 12 14  1  0
 13 12  2  0
 15 14  1  0
 15 26  1  0
 15 16  1  1
 17 16  1  0
 17 18  2  0
 19 18  1  0
 20 25  2  0
 20 19  1  0
 21 20  1  0
 22 23  1  0
 22 21  2  0
 23 24  2  0
 24 25  1  0
 25 17  1  0
 26 28  1  0
 27 26  2  0
M  END
$$$$
