NAW.pdb
     RDKit          3D

 28 29  0  0  1  0  0  0  0  0999 V2000
   25.4109  -16.6947  -18.2119 N   0  0  0  0  0  0  0  0  0  0  0  0
   25.8896  -18.0223  -18.1998 C   0  0  0  0  0  0  0  0  0  0  0  0
   27.1154  -18.2275  -18.3337 O   0  0  0  0  0  0  0  0  0  0  0  0
   24.9724  -19.1651  -18.0325 C   0  0  0  0  0  0  0  0  0  0  0  0
   25.2494  -20.2816  -19.0270 C   0  0  2  0  0  0  0  0  0  0  0  0
   25.1033  -19.8186  -20.3894 N   0  0  0  0  0  0  0  0  0  0  0  0
   24.2183  -21.3320  -18.7446 C   0  0  0  0  0  0  0  0  0  0  0  0
   23.0412  -21.1385  -19.1177 O   0  0  0  0  0  0  0  0  0  0  0  0
   24.3266  -24.8523  -17.5586 C   0  0  0  0  0  0  0  0  0  0  0  0
   23.5699  -23.5518  -17.7253 C   0  0  2  0  0  0  0  0  0  0  0  0
   24.5267  -22.5328  -18.0721 N   0  0  0  0  0  0  0  0  0  0  0  0
   22.8160  -23.2070  -16.4869 C   0  0  0  0  0  0  0  0  0  0  0  0
   21.8938  -23.9857  -16.1391 O   0  0  0  0  0  0  0  0  0  0  0  0
   23.0871  -22.0759  -15.7106 N   0  0  0  0  0  0  0  0  0  0  0  0
   22.3955  -21.7062  -14.5057 C   0  0  1  0  0  0  0  0  0  0  0  0
   23.3543  -21.2491  -13.4241 C   0  0  0  0  0  0  0  0  0  0  0  0
   24.2105  -20.1359  -13.9081 C   0  0  0  0  0  0  0  0  0  0  0  0
   23.8016  -18.8108  -13.9799 C   0  0  0  0  0  0  0  0  0  0  0  0
   24.8236  -18.0739  -14.4626 N   0  0  0  0  0  0  0  0  0  0  0  0
   25.8890  -18.8554  -14.7123 C   0  0  0  0  0  0  0  0  0  0  0  0
   27.1641  -18.6291  -15.2003 C   0  0  0  0  0  0  0  0  0  0  0  0
   28.0751  -19.6400  -15.3569 C   0  0  0  0  0  0  0  0  0  0  0  0
   27.6764  -20.9103  -15.0078 C   0  0  0  0  0  0  0  0  0  0  0  0
   26.4074  -21.1767  -14.5155 C   0  0  0  0  0  0  0  0  0  0  0  0
   25.5079  -20.1522  -14.3652 C   0  0  0  0  0  0  0  0  0  0  0  0
   21.3752  -20.6603  -14.7298 C   0  0  0  0  0  0  0  0  0  0  0  0
   21.2666  -20.0312  -15.7962 O   0  0  0  0  0  0  0  0  0  0  0  0
   20.4969  -20.3689  -13.6968 O   0  0  0  0  0  0  0  0  0  0  0  0
  2  3  2  0
  2  1  1  0
  4  2  1  0
  5  6  1  6
  5  4  1  0
  5  7  1  0
  7  8  2  0
  7 11  1  0
 10  9  1  1
 11 10  1  0
 12 10  1  0
 12 14  1  0
 13 12  2  0
 15 14  1  0
 15 26  1  0
 15 16  1  1
 17 16  1  0
 17 18  2  0
 19 18  1  0
 20 25  2  0
 20 19  1  0
 21 20  1  0
 22 23  1  0
 22 21  2  0
 23 24  2  0
 24 25  1  0
 25 17  1  0
 26 28  1  0
 27 26  2  0
M  END
$$$$
