NAW.pdb
     RDKit          3D

 28 29  0  0  1  0  0  0  0  0999 V2000
   28.9921  -21.2191  -21.4744 N   0  0  0  0  0  0  0  0  0  0  0  0
   29.1368  -21.0379  -20.0822 C   0  0  0  0  0  0  0  0  0  0  0  0
   29.8746  -21.8174  -19.4414 O   0  0  0  0  0  0  0  0  0  0  0  0
   28.4358  -19.9499  -19.3752 C   0  0  0  0  0  0  0  0  0  0  0  0
   27.6388  -19.0636  -20.3195 C   0  0  2  0  0  0  0  0  0  0  0  0
   28.4991  -18.1339  -21.0175 N   0  0  0  0  0  0  0  0  0  0  0  0
   26.6884  -18.3027  -19.4453 C   0  0  0  0  0  0  0  0  0  0  0  0
   26.4472  -17.1061  -19.7138 O   0  0  0  0  0  0  0  0  0  0  0  0
   23.7746  -18.4133  -18.8371 C   0  0  0  0  0  0  0  0  0  0  0  0
   24.8226  -18.4240  -17.7449 C   0  0  2  0  0  0  0  0  0  0  0  0
   26.0551  -18.8870  -18.3287 N   0  0  0  0  0  0  0  0  0  0  0  0
   24.3959  -19.2773  -16.6000 C   0  0  0  0  0  0  0  0  0  0  0  0
   24.2129  -20.4986  -16.8295 O   0  0  0  0  0  0  0  0  0  0  0  0
   24.1952  -18.7855  -15.3064 N   0  0  0  0  0  0  0  0  0  0  0  0
   24.0630  -19.5875  -14.1206 C   0  0  1  0  0  0  0  0  0  0  0  0
   24.3487  -18.7872  -12.8652 C   0  0  0  0  0  0  0  0  0  0  0  0
   24.3132  -19.6560  -11.6609 C   0  0  0  0  0  0  0  0  0  0  0  0
   25.4130  -20.3382  -11.1577 C   0  0  0  0  0  0  0  0  0  0  0  0
   25.0248  -21.0270  -10.0642 N   0  0  0  0  0  0  0  0  0  0  0  0
   23.7165  -20.8288   -9.8245 C   0  0  0  0  0  0  0  0  0  0  0  0
   22.8285  -21.2776   -8.8626 C   0  0  0  0  0  0  0  0  0  0  0  0
   21.5104  -20.9046   -8.8563 C   0  0  0  0  0  0  0  0  0  0  0  0
   21.0889  -20.0549   -9.8536 C   0  0  0  0  0  0  0  0  0  0  0  0
   21.9487  -19.5839  -10.8347 C   0  0  0  0  0  0  0  0  0  0  0  0
   23.2655  -19.9677  -10.8256 C   0  0  0  0  0  0  0  0  0  0  0  0
   22.7331  -20.2223  -14.0048 C   0  0  0  0  0  0  0  0  0  0  0  0
   22.5685  -21.3977  -13.6360 O   0  0  0  0  0  0  0  0  0  0  0  0
   21.6154  -19.4659  -14.3242 O   0  0  0  0  0  0  0  0  0  0  0  0
  2  3  2  0
  2  1  1  0
  4  2  1  0
  5  6  1  1
  5  4  1  0
  5  7  1  0
  7  8  2  0
  7 11  1  0
 10  9  1  6
 11 10  1  0
 12 10  1  0
 12 14  1  0
 13 12  2  0
 15 14  1  0
 15 26  1  0
 15 16  1  1
 17 16  1  0
 17 18  2  0
 19 18  1  0
 20 25  2  0
 20 19  1  0
 21 20  1  0
 22 23  1  0
 22 21  2  0
 23 24  2  0
 24 25  1  0
 25 17  1  0
 26 28  1  0
 27 26  2  0
M  END
$$$$
