NAW.pdb
     RDKit          3D

 28 29  0  0  1  0  0  0  0  0999 V2000
   31.4321  -24.4210  -16.2648 N   0  0  0  0  0  0  0  0  0  0  0  0
   30.1119  -23.9221  -16.2799 C   0  0  0  0  0  0  0  0  0  0  0  0
   29.2647  -24.4672  -17.0198 O   0  0  0  0  0  0  0  0  0  0  0  0
   29.7180  -22.7744  -15.4415 C   0  0  0  0  0  0  0  0  0  0  0  0
   28.5879  -21.9658  -16.0592 C   0  0  2  0  0  0  0  0  0  0  0  0
   29.0700  -21.1273  -17.1345 N   0  0  0  0  0  0  0  0  0  0  0  0
   28.0634  -21.1030  -14.9516 C   0  0  0  0  0  0  0  0  0  0  0  0
   28.8684  -20.4092  -14.2937 O   0  0  0  0  0  0  0  0  0  0  0  0
   24.7232  -19.9317  -13.8713 C   0  0  0  0  0  0  0  0  0  0  0  0
   26.1432  -20.3126  -13.5109 C   0  0  2  0  0  0  0  0  0  0  0  0
   26.6931  -21.0446  -14.6227 N   0  0  0  0  0  0  0  0  0  0  0  0
   26.1825  -21.1061  -12.2501 C   0  0  0  0  0  0  0  0  0  0  0  0
   26.3234  -22.3497  -12.3571 O   0  0  0  0  0  0  0  0  0  0  0  0
   26.0721  -20.5359  -10.9781 N   0  0  0  0  0  0  0  0  0  0  0  0
   26.0807  -21.2600   -9.7361 C   0  0  1  0  0  0  0  0  0  0  0  0
   27.4795  -21.3792   -9.1639 C   0  0  0  0  0  0  0  0  0  0  0  0
   27.7175  -20.3481   -8.1215 C   0  0  0  0  0  0  0  0  0  0  0  0
   27.1229  -19.0933   -8.1146 C   0  0  0  0  0  0  0  0  0  0  0  0
   27.5616  -18.4186   -7.0315 N   0  0  0  0  0  0  0  0  0  0  0  0
   28.4199  -19.1741   -6.3237 C   0  0  0  0  0  0  0  0  0  0  0  0
   29.1458  -18.9852   -5.1607 C   0  0  0  0  0  0  0  0  0  0  0  0
   29.9675  -19.9540   -4.6484 C   0  0  0  0  0  0  0  0  0  0  0  0
   30.0506  -21.1423   -5.3382 C   0  0  0  0  0  0  0  0  0  0  0  0
   29.3389  -21.3689   -6.5068 C   0  0  0  0  0  0  0  0  0  0  0  0
   28.5207  -20.3875   -7.0054 C   0  0  0  0  0  0  0  0  0  0  0  0
   25.1854  -20.6655   -8.7212 C   0  0  0  0  0  0  0  0  0  0  0  0
   24.7286  -19.5127   -8.8064 O   0  0  0  0  0  0  0  0  0  0  0  0
   24.8398  -21.4349   -7.6203 O   0  0  0  0  0  0  0  0  0  0  0  0
  2  3  2  0
  2  1  1  0
  4  2  1  0
  5  6  1  6
  5  4  1  0
  5  7  1  0
  7  8  2  0
  7 11  1  0
 10  9  1  6
 11 10  1  0
 12 10  1  0
 12 14  1  0
 13 12  2  0
 15 14  1  0
 15 26  1  0
 15 16  1  1
 17 16  1  0
 17 18  2  0
 19 18  1  0
 20 25  2  0
 20 19  1  0
 21 20  1  0
 22 23  1  0
 22 21  2  0
 23 24  2  0
 24 25  1  0
 25 17  1  0
 26 28  1  0
 27 26  2  0
M  END
$$$$
