NAW.pdb
     RDKit          3D

 28 29  0  0  1  0  0  0  0  0999 V2000
   30.8571  -25.9114  -16.6687 N   0  0  0  0  0  0  0  0  0  0  0  0
   31.5401  -24.7597  -16.2225 C   0  0  0  0  0  0  0  0  0  0  0  0
   32.6755  -24.8850  -15.7149 O   0  0  0  0  0  0  0  0  0  0  0  0
   30.9394  -23.4183  -16.3448 C   0  0  0  0  0  0  0  0  0  0  0  0
   29.5664  -23.4550  -16.9973 C   0  0  2  0  0  0  0  0  0  0  0  0
   29.6595  -23.2551  -18.4267 N   0  0  0  0  0  0  0  0  0  0  0  0
   28.8032  -22.3200  -16.3843 C   0  0  0  0  0  0  0  0  0  0  0  0
   29.3297  -21.1869  -16.3504 O   0  0  0  0  0  0  0  0  0  0  0  0
   25.4774  -21.2501  -16.0122 C   0  0  0  0  0  0  0  0  0  0  0  0
   26.7462  -21.4400  -15.2089 C   0  0  2  0  0  0  0  0  0  0  0  0
   27.5110  -22.4827  -15.8430 N   0  0  0  0  0  0  0  0  0  0  0  0
   26.4380  -21.7641  -13.7873 C   0  0  0  0  0  0  0  0  0  0  0  0
   26.2585  -22.9733  -13.4988 O   0  0  0  0  0  0  0  0  0  0  0  0
   26.3426  -20.7979  -12.7809 N   0  0  0  0  0  0  0  0  0  0  0  0
   26.1116  -21.0655  -11.3874 C   0  0  1  0  0  0  0  0  0  0  0  0
   27.3651  -20.8611  -10.5596 C   0  0  0  0  0  0  0  0  0  0  0  0
   27.0252  -20.4830   -9.1640 C   0  0  0  0  0  0  0  0  0  0  0  0
   25.7461  -20.1567   -8.7331 C   0  0  0  0  0  0  0  0  0  0  0  0
   25.8001  -19.8655   -7.4166 N   0  0  0  0  0  0  0  0  0  0  0  0
   27.0594  -19.9856   -6.9605 C   0  0  0  0  0  0  0  0  0  0  0  0
   27.6645  -19.8127   -5.7280 C   0  0  0  0  0  0  0  0  0  0  0  0
   29.0071  -20.0099   -5.5407 C   0  0  0  0  0  0  0  0  0  0  0  0
   29.7489  -20.3922   -6.6353 C   0  0  0  0  0  0  0  0  0  0  0  0
   29.1785  -20.5755   -7.8862 C   0  0  0  0  0  0  0  0  0  0  0  0
   27.8325  -20.3736   -8.0555 C   0  0  0  0  0  0  0  0  0  0  0  0
   25.0139  -20.2520  -10.8231 C   0  0  0  0  0  0  0  0  0  0  0  0
   24.6537  -19.1646  -11.3055 O   0  0  0  0  0  0  0  0  0  0  0  0
   24.3553  -20.7285   -9.6995 O   0  0  0  0  0  0  0  0  0  0  0  0
  2  3  2  0
  2  1  1  0
  4  2  1  0
  5  6  1  6
  5  4  1  0
  5  7  1  0
  7  8  2  0
  7 11  1  0
 10  9  1  6
 11 10  1  0
 12 10  1  0
 12 14  1  0
 13 12  2  0
 15 14  1  0
 15 26  1  0
 15 16  1  1
 17 16  1  0
 17 18  2  0
 19 18  1  0
 20 25  2  0
 20 19  1  0
 21 20  1  0
 22 23  1  0
 22 21  2  0
 23 24  2  0
 24 25  1  0
 25 17  1  0
 26 28  1  0
 27 26  2  0
M  END
$$$$
