NAW.pdb
     RDKit          3D

 28 29  0  0  1  0  0  0  0  0999 V2000
   19.8461  -20.8886  -12.6664 N   0  0  0  0  0  0  0  0  0  0  0  0
   19.6181  -20.4729  -13.9957 C   0  0  0  0  0  0  0  0  0  0  0  0
   18.4644  -20.5571  -14.4694 O   0  0  0  0  0  0  0  0  0  0  0  0
   20.7127  -19.9434  -14.8304 C   0  0  0  0  0  0  0  0  0  0  0  0
   22.0381  -19.8951  -14.0864 C   0  0  2  0  0  0  0  0  0  0  0  0
   21.9932  -18.9457  -12.9963 N   0  0  0  0  0  0  0  0  0  0  0  0
   23.0473  -19.4441  -15.0986 C   0  0  0  0  0  0  0  0  0  0  0  0
   23.2953  -20.1838  -16.0751 O   0  0  0  0  0  0  0  0  0  0  0  0
   24.8904  -16.2514  -15.6848 C   0  0  0  0  0  0  0  0  0  0  0  0
   24.7197  -17.7369  -15.9205 C   0  0  2  0  0  0  0  0  0  0  0  0
   23.7293  -18.2143  -14.9902 N   0  0  0  0  0  0  0  0  0  0  0  0
   26.0159  -18.4567  -15.7692 C   0  0  0  0  0  0  0  0  0  0  0  0
   26.8504  -18.3408  -16.7008 O   0  0  0  0  0  0  0  0  0  0  0  0
   26.3360  -19.2397  -14.6558 N   0  0  0  0  0  0  0  0  0  0  0  0
   27.5869  -19.9158  -14.4437 C   0  0  1  0  0  0  0  0  0  0  0  0
   27.9684  -19.9467  -12.9768 C   0  0  0  0  0  0  0  0  0  0  0  0
   26.9146  -20.6102  -12.1670 C   0  0  0  0  0  0  0  0  0  0  0  0
   26.2035  -21.7300  -12.5778 C   0  0  0  0  0  0  0  0  0  0  0  0
   25.3314  -22.0633  -11.6036 N   0  0  0  0  0  0  0  0  0  0  0  0
   25.4363  -21.2118  -10.5681 C   0  0  0  0  0  0  0  0  0  0  0  0
   24.8024  -21.0919   -9.3438 C   0  0  0  0  0  0  0  0  0  0  0  0
   25.1171  -20.0992   -8.4538 C   0  0  0  0  0  0  0  0  0  0  0  0
   26.1005  -19.2090   -8.8212 C   0  0  0  0  0  0  0  0  0  0  0  0
   26.7581  -19.2965  -10.0391 C   0  0  0  0  0  0  0  0  0  0  0  0
   26.4302  -20.2969  -10.9181 C   0  0  0  0  0  0  0  0  0  0  0  0
   27.5906  -21.2933  -14.9799 C   0  0  0  0  0  0  0  0  0  0  0  0
   26.5656  -21.8727  -15.3781 O   0  0  0  0  0  0  0  0  0  0  0  0
   28.7995  -21.9702  -15.0404 O   0  0  0  0  0  0  0  0  0  0  0  0
  2  3  2  0
  2  1  1  0
  4  2  1  0
  5  6  1  1
  5  4  1  0
  5  7  1  0
  7  8  2  0
  7 11  1  0
 10  9  1  1
 11 10  1  0
 12 10  1  0
 12 14  1  0
 13 12  2  0
 15 14  1  0
 15 26  1  0
 15 16  1  1
 17 16  1  0
 17 18  2  0
 19 18  1  0
 20 25  2  0
 20 19  1  0
 21 20  1  0
 22 23  1  0
 22 21  2  0
 23 24  2  0
 24 25  1  0
 25 17  1  0
 26 28  1  0
 27 26  2  0
M  END
$$$$
