NAW.pdb
     RDKit          3D

 28 29  0  0  1  0  0  0  0  0999 V2000
   28.4626  -23.7529  -19.9738 N   0  0  0  0  0  0  0  0  0  0  0  0
   28.9631  -24.3905  -18.8184 C   0  0  0  0  0  0  0  0  0  0  0  0
   29.2754  -25.5993  -18.8784 O   0  0  0  0  0  0  0  0  0  0  0  0
   29.1230  -23.6576  -17.5486 C   0  0  0  0  0  0  0  0  0  0  0  0
   28.7132  -22.1979  -17.6658 C   0  0  2  0  0  0  0  0  0  0  0  0
   29.7621  -21.4056  -18.2692 N   0  0  0  0  0  0  0  0  0  0  0  0
   28.4849  -21.7336  -16.2592 C   0  0  0  0  0  0  0  0  0  0  0  0
   28.5441  -22.5683  -15.3307 O   0  0  0  0  0  0  0  0  0  0  0  0
   27.8245  -18.3803  -14.7148 C   0  0  0  0  0  0  0  0  0  0  0  0
   27.9957  -19.8808  -14.6114 C   0  0  2  0  0  0  0  0  0  0  0  0
   28.2047  -20.3880  -15.9431 N   0  0  0  0  0  0  0  0  0  0  0  0
   26.8151  -20.5118  -13.9562 C   0  0  0  0  0  0  0  0  0  0  0  0
   25.8416  -20.8121  -14.6910 O   0  0  0  0  0  0  0  0  0  0  0  0
   26.7471  -20.7789  -12.5853 N   0  0  0  0  0  0  0  0  0  0  0  0
   25.7185  -21.5443  -11.9350 C   0  0  1  0  0  0  0  0  0  0  0  0
   26.2174  -22.1832  -10.6539 C   0  0  0  0  0  0  0  0  0  0  0  0
   26.3953  -21.1658   -9.5864 C   0  0  0  0  0  0  0  0  0  0  0  0
   25.3978  -20.2991   -9.1598 C   0  0  0  0  0  0  0  0  0  0  0  0
   25.9019  -19.5145   -8.1845 N   0  0  0  0  0  0  0  0  0  0  0  0
   27.1887  -19.8262   -7.9493 C   0  0  0  0  0  0  0  0  0  0  0  0
   28.1576  -19.3532   -7.0818 C   0  0  0  0  0  0  0  0  0  0  0  0
   29.4258  -19.8702   -7.0530 C   0  0  0  0  0  0  0  0  0  0  0  0
   29.7120  -20.8925   -7.9291 C   0  0  0  0  0  0  0  0  0  0  0  0
   28.7679  -21.3931   -8.8132 C   0  0  0  0  0  0  0  0  0  0  0  0
   27.5028  -20.8635   -8.8283 C   0  0  0  0  0  0  0  0  0  0  0  0
   24.5084  -20.7464  -11.6455 C   0  0  0  0  0  0  0  0  0  0  0  0
   24.5109  -19.5055  -11.5737 O   0  0  0  0  0  0  0  0  0  0  0  0
   23.3122  -21.4187  -11.4444 O   0  0  0  0  0  0  0  0  0  0  0  0
  2  3  2  0
  2  1  1  0
  4  2  1  0
  5  6  1  1
  5  4  1  0
  5  7  1  0
  7  8  2  0
  7 11  1  0
 10  9  1  6
 11 10  1  0
 12 10  1  0
 12 14  1  0
 13 12  2  0
 15 14  1  0
 15 26  1  0
 15 16  1  1
 17 16  1  0
 17 18  2  0
 19 18  1  0
 20 25  2  0
 20 19  1  0
 21 20  1  0
 22 23  1  0
 22 21  2  0
 23 24  2  0
 24 25  1  0
 25 17  1  0
 26 28  1  0
 27 26  2  0
M  END
$$$$
