NAW.pdb
     RDKit          3D

 28 29  0  0  1  0  0  0  0  0999 V2000
   17.4140  -19.9967  -13.3556 N   0  0  0  0  0  0  0  0  0  0  0  0
   17.8844  -19.8820  -12.0299 C   0  0  0  0  0  0  0  0  0  0  0  0
   17.0662  -19.6567  -11.1121 O   0  0  0  0  0  0  0  0  0  0  0  0
   19.3175  -20.0230  -11.7115 C   0  0  0  0  0  0  0  0  0  0  0  0
   20.1775  -20.1629  -12.9577 C   0  0  2  0  0  0  0  0  0  0  0  0
   19.6194  -21.1331  -13.8738 N   0  0  0  0  0  0  0  0  0  0  0  0
   21.5098  -20.6467  -12.4706 C   0  0  0  0  0  0  0  0  0  0  0  0
   22.0724  -20.0308  -11.5399 O   0  0  0  0  0  0  0  0  0  0  0  0
   23.6519  -23.6184  -13.2058 C   0  0  0  0  0  0  0  0  0  0  0  0
   23.4884  -22.2029  -12.6950 C   0  0  2  0  0  0  0  0  0  0  0  0
   22.1540  -21.7726  -13.0242 N   0  0  0  0  0  0  0  0  0  0  0  0
   24.5219  -21.2999  -13.2760 C   0  0  0  0  0  0  0  0  0  0  0  0
   24.1583  -20.5266  -14.1966 O   0  0  0  0  0  0  0  0  0  0  0  0
   25.8528  -21.2772  -12.8475 N   0  0  0  0  0  0  0  0  0  0  0  0
   26.8699  -20.3846  -13.3328 C   0  0  1  0  0  0  0  0  0  0  0  0
   27.3846  -19.4699  -12.2389 C   0  0  0  0  0  0  0  0  0  0  0  0
   28.0866  -20.2449  -11.1840 C   0  0  0  0  0  0  0  0  0  0  0  0
   29.1525  -21.1021  -11.4238 C   0  0  0  0  0  0  0  0  0  0  0  0
   29.5431  -21.6373  -10.2483 N   0  0  0  0  0  0  0  0  0  0  0  0
   28.7811  -21.1702   -9.2435 C   0  0  0  0  0  0  0  0  0  0  0  0
   28.7460  -21.3789   -7.8759 C   0  0  0  0  0  0  0  0  0  0  0  0
   27.8365  -20.7523   -7.0657 C   0  0  0  0  0  0  0  0  0  0  0  0
   26.9427  -19.8936   -7.6642 C   0  0  0  0  0  0  0  0  0  0  0  0
   26.9465  -19.6588   -9.0311 C   0  0  0  0  0  0  0  0  0  0  0  0
   27.8644  -20.2949   -9.8273 C   0  0  0  0  0  0  0  0  0  0  0  0
   28.0079  -21.0966  -13.9517 C   0  0  0  0  0  0  0  0  0  0  0  0
   28.9002  -20.5229  -14.5994 O   0  0  0  0  0  0  0  0  0  0  0  0
   28.0808  -22.4732  -13.8002 O   0  0  0  0  0  0  0  0  0  0  0  0
  2  3  2  0
  2  1  1  0
  4  2  1  0
  5  6  1  6
  5  4  1  0
  5  7  1  0
  7  8  2  0
  7 11  1  0
 10  9  1  6
 11 10  1  0
 12 10  1  0
 12 14  1  0
 13 12  2  0
 15 14  1  0
 15 26  1  0
 15 16  1  1
 17 16  1  0
 17 18  2  0
 19 18  1  0
 20 25  2  0
 20 19  1  0
 21 20  1  0
 22 23  1  0
 22 21  2  0
 23 24  2  0
 24 25  1  0
 25 17  1  0
 26 28  1  0
 27 26  2  0
M  END
$$$$
