IMA.pdb
     RDKit          3D

 22 21  0  0  1  0  0  0  0  0999 V2000
   16.5939  -10.9813  -20.4767 C   0  0  0  0  0  0  0  0  0  0  0  0
   17.8847  -11.5492  -19.9836 C   0  0  0  0  0  0  0  0  0  0  0  0
   18.5217  -10.7814  -18.8549 C   0  0  2  0  0  0  0  0  0  0  0  0
   18.9210   -9.4389  -19.4267 C   0  0  0  0  0  0  0  0  0  0  0  0
   19.8140  -11.4903  -18.4338 C   0  0  2  0  0  0  0  0  0  0  0  0
   19.3350  -12.7933  -17.9325 N   0  0  0  0  0  0  0  0  0  0  0  0
   20.4929  -10.8228  -17.3111 C   0  0  0  0  0  0  0  0  0  0  0  0
   19.8699  -10.7175  -16.2056 O   0  0  0  0  0  0  0  0  0  0  0  0
   26.6189  -10.5291  -14.4886 C   0  0  0  0  0  0  0  0  0  0  0  0
   25.8987  -11.5815  -15.7942 S   0  0  0  0  0  0  0  0  0  0  0  0
   24.0979  -11.3394  -15.7657 C   0  0  0  0  0  0  0  0  0  0  0  0
   23.8324   -9.9288  -16.1634 C   0  0  0  0  0  0  0  0  0  0  0  0
   22.3476   -9.5613  -16.1833 C   0  0  2  0  0  0  0  0  0  0  0  0
   21.8049  -10.2765  -17.3426 N   0  0  0  0  0  0  0  0  0  0  0  0
   22.1134   -8.1249  -16.1981 C   0  0  0  0  0  0  0  0  0  0  0  0
   22.4463   -7.4665  -17.2426 O   0  0  0  0  0  0  0  0  0  0  0  0
   19.8698   -5.6287  -15.0685 C   0  0  0  0  0  0  0  0  0  0  0  0
   21.3626   -5.9082  -15.2620 C   0  0  2  0  0  0  0  0  0  0  0  0
   21.5420   -7.3426  -15.1630 N   0  0  0  0  0  0  0  0  0  0  0  0
   22.0964   -5.1764  -14.2172 C   0  0  0  0  0  0  0  0  0  0  0  0
   22.4524   -5.7294  -13.1478 O   0  0  0  0  0  0  0  0  0  0  0  0
   22.4227   -3.8401  -14.3786 O   0  0  0  0  0  0  0  0  0  0  0  0
  1  2  1  0
  3  5  1  0
  3  4  1  6
  3  2  1  0
  5  7  1  0
  5  6  1  1
  7 14  1  0
  7  8  2  0
  9 10  1  0
 10 11  1  0
 11 12  1  0
 13 15  1  0
 13 12  1  6
 14 13  1  0
 15 16  2  0
 18 17  1  1
 18 19  1  0
 19 15  1  0
 20 18  1  0
 21 20  2  0
 22 20  1  0
M  END
$$$$
