IMA.pdb
     RDKit          3D

 22 21  0  0  1  0  0  0  0  0999 V2000
   29.6532  -17.5826  -16.6561 C   0  0  0  0  0  0  0  0  0  0  0  0
   28.3284  -18.0493  -16.1474 C   0  0  0  0  0  0  0  0  0  0  0  0
   28.3623  -19.3630  -15.4110 C   0  0  2  0  0  0  0  0  0  0  0  0
   28.8418  -20.3959  -16.4070 C   0  0  0  0  0  0  0  0  0  0  0  0
   26.9333  -19.7525  -15.0160 C   0  0  2  0  0  0  0  0  0  0  0  0
   26.3276  -18.4632  -14.6299 N   0  0  0  0  0  0  0  0  0  0  0  0
   26.8848  -20.6211  -13.8285 C   0  0  0  0  0  0  0  0  0  0  0  0
   26.9673  -21.8804  -13.9981 O   0  0  0  0  0  0  0  0  0  0  0  0
   27.6992  -20.1149   -7.6467 C   0  0  0  0  0  0  0  0  0  0  0  0
   25.8771  -20.1061   -7.5423 S   0  0  0  0  0  0  0  0  0  0  0  0
   25.2324  -20.7497   -9.1147 C   0  0  0  0  0  0  0  0  0  0  0  0
   26.1347  -20.2662  -10.1966 C   0  0  0  0  0  0  0  0  0  0  0  0
   25.7648  -20.7846  -11.5874 C   0  0  2  0  0  0  0  0  0  0  0  0
   26.7555  -20.1797  -12.4834 N   0  0  0  0  0  0  0  0  0  0  0  0
   24.3812  -20.5149  -11.9497 C   0  0  0  0  0  0  0  0  0  0  0  0
   24.0834  -19.3490  -12.3825 O   0  0  0  0  0  0  0  0  0  0  0  0
   21.7756  -21.7893  -13.6998 C   0  0  0  0  0  0  0  0  0  0  0  0
   21.9595  -21.0873  -12.3518 C   0  0  2  0  0  0  0  0  0  0  0  0
   23.2893  -21.4165  -11.8799 N   0  0  0  0  0  0  0  0  0  0  0  0
   20.9057  -21.5705  -11.4454 C   0  0  0  0  0  0  0  0  0  0  0  0
   21.1714  -22.2551  -10.4270 O   0  0  0  0  0  0  0  0  0  0  0  0
   19.5721  -21.2845  -11.6863 O   0  0  0  0  0  0  0  0  0  0  0  0
  1  2  1  0
  3  5  1  0
  3  4  1  6
  3  2  1  0
  5  7  1  0
  5  6  1  1
  7 14  1  0
  7  8  2  0
  9 10  1  0
 10 11  1  0
 11 12  1  0
 13 15  1  0
 13 12  1  1
 14 13  1  0
 15 16  2  0
 18 17  1  6
 18 19  1  0
 19 15  1  0
 20 18  1  0
 21 20  2  0
 22 20  1  0
M  END
$$$$
