IMA.pdb
     RDKit          3D

 22 21  0  0  1  0  0  0  0  0999 V2000
   27.2750  -16.1430  -17.0818 C   0  0  0  0  0  0  0  0  0  0  0  0
   27.8582  -17.3182  -16.3673 C   0  0  0  0  0  0  0  0  0  0  0  0
   26.8989  -18.0462  -15.4621 C   0  0  2  0  0  0  0  0  0  0  0  0
   26.5644  -17.0885  -14.3398 C   0  0  0  0  0  0  0  0  0  0  0  0
   27.6179  -19.2430  -14.8294 C   0  0  2  0  0  0  0  0  0  0  0  0
   27.9655  -20.0808  -15.9937 N   0  0  0  0  0  0  0  0  0  0  0  0
   26.7373  -20.0497  -13.9688 C   0  0  0  0  0  0  0  0  0  0  0  0
   26.0259  -20.9548  -14.5129 O   0  0  0  0  0  0  0  0  0  0  0  0
   26.2769  -19.1394   -7.6577 C   0  0  0  0  0  0  0  0  0  0  0  0
   25.7426  -20.8838   -7.7110 S   0  0  0  0  0  0  0  0  0  0  0  0
   25.1197  -21.2179   -9.3852 C   0  0  0  0  0  0  0  0  0  0  0  0
   26.0284  -20.5291  -10.3435 C   0  0  0  0  0  0  0  0  0  0  0  0
   25.6604  -20.7502  -11.8117 C   0  0  2  0  0  0  0  0  0  0  0  0
   26.6049  -19.9146  -12.5599 N   0  0  0  0  0  0  0  0  0  0  0  0
   24.2593  -20.4794  -12.0978 C   0  0  0  0  0  0  0  0  0  0  0  0
   23.3714  -21.1742  -11.4943 O   0  0  0  0  0  0  0  0  0  0  0  0
   22.1979  -18.3523  -14.4131 C   0  0  0  0  0  0  0  0  0  0  0  0
   22.3278  -19.3534  -13.2622 C   0  0  2  0  0  0  0  0  0  0  0  0
   23.7430  -19.5076  -12.9916 N   0  0  0  0  0  0  0  0  0  0  0  0
   21.6964  -20.6127  -13.6879 C   0  0  0  0  0  0  0  0  0  0  0  0
   22.3406  -21.5045  -14.2929 O   0  0  0  0  0  0  0  0  0  0  0  0
   20.3576  -20.8602  -13.4336 O   0  0  0  0  0  0  0  0  0  0  0  0
  1  2  1  0
  3  5  1  0
  3  4  1  1
  3  2  1  0
  5  7  1  0
  5  6  1  6
  7 14  1  0
  7  8  2  0
  9 10  1  0
 10 11  1  0
 11 12  1  0
 13 15  1  0
 13 12  1  1
 14 13  1  0
 15 16  2  0
 18 17  1  6
 18 19  1  0
 19 15  1  0
 20 18  1  0
 21 20  2  0
 22 20  1  0
M  END
$$$$
