IMA.pdb
     RDKit          3D

 22 21  0  0  1  0  0  0  0  0999 V2000
   17.4119  -12.6971  -19.1837 C   0  0  0  0  0  0  0  0  0  0  0  0
   18.8949  -12.7480  -19.0111 C   0  0  0  0  0  0  0  0  0  0  0  0
   19.4405  -11.8158  -17.9611 C   0  0  2  0  0  0  0  0  0  0  0  0
   19.2236  -10.4130  -18.4845 C   0  0  0  0  0  0  0  0  0  0  0  0
   20.9552  -12.0214  -17.8472 C   0  0  2  0  0  0  0  0  0  0  0  0
   21.0701  -13.4027  -17.3400 N   0  0  0  0  0  0  0  0  0  0  0  0
   21.5778  -11.1433  -16.8431 C   0  0  0  0  0  0  0  0  0  0  0  0
   21.2814  -11.3225  -15.6178 O   0  0  0  0  0  0  0  0  0  0  0  0
   27.4133  -12.2603  -14.9740 C   0  0  0  0  0  0  0  0  0  0  0  0
   26.7959  -10.7322  -15.7580 S   0  0  0  0  0  0  0  0  0  0  0  0
   25.0070  -10.6405  -15.4521 C   0  0  0  0  0  0  0  0  0  0  0  0
   24.5117   -9.3851  -16.0825 C   0  0  0  0  0  0  0  0  0  0  0  0
   22.9906   -9.2301  -16.0388 C   0  0  2  0  0  0  0  0  0  0  0  0
   22.4993  -10.0957  -17.1155 N   0  0  0  0  0  0  0  0  0  0  0  0
   22.5533   -7.8450  -16.1326 C   0  0  0  0  0  0  0  0  0  0  0  0
   22.6930   -7.2389  -17.2499 O   0  0  0  0  0  0  0  0  0  0  0  0
   20.4682   -5.3474  -14.3677 C   0  0  0  0  0  0  0  0  0  0  0  0
   21.6808   -5.6503  -15.2518 C   0  0  2  0  0  0  0  0  0  0  0  0
   21.9720   -7.0619  -15.1036 N   0  0  0  0  0  0  0  0  0  0  0  0
   22.7913   -4.7968  -14.8001 C   0  0  0  0  0  0  0  0  0  0  0  0
   23.6736   -5.2200  -14.0136 O   0  0  0  0  0  0  0  0  0  0  0  0
   22.9028   -3.4852  -15.2308 O   0  0  0  0  0  0  0  0  0  0  0  0
  1  2  1  0
  3  5  1  0
  3  4  1  6
  3  2  1  0
  5  7  1  0
  5  6  1  1
  7 14  1  0
  7  8  2  0
  9 10  1  0
 10 11  1  0
 11 12  1  0
 13 15  1  0
 13 12  1  6
 14 13  1  0
 15 16  2  0
 18 17  1  1
 18 19  1  0
 19 15  1  0
 20 18  1  0
 21 20  2  0
 22 20  1  0
M  END
$$$$
