IMA.pdb
     RDKit          3D

 22 21  0  0  1  0  0  0  0  0999 V2000
   19.4891  -14.2375  -21.6212 C   0  0  0  0  0  0  0  0  0  0  0  0
   20.7994  -14.2093  -20.9043 C   0  0  0  0  0  0  0  0  0  0  0  0
   20.8263  -13.3426  -19.6725 C   0  0  2  0  0  0  0  0  0  0  0  0
   20.5379  -11.9326  -20.1388 C   0  0  0  0  0  0  0  0  0  0  0  0
   22.2453  -13.3404  -19.0928 C   0  0  2  0  0  0  0  0  0  0  0  0
   22.4148  -14.7257  -18.6125 N   0  0  0  0  0  0  0  0  0  0  0  0
   22.3829  -12.4608  -17.9204 C   0  0  0  0  0  0  0  0  0  0  0  0
   21.7827  -12.7885  -16.8463 O   0  0  0  0  0  0  0  0  0  0  0  0
   27.7636  -12.6068  -14.8018 C   0  0  0  0  0  0  0  0  0  0  0  0
   26.9808  -11.0977  -15.4656 S   0  0  0  0  0  0  0  0  0  0  0  0
   25.2287  -11.4735  -15.7675 C   0  0  0  0  0  0  0  0  0  0  0  0
   24.5940  -10.2363  -16.3015 C   0  0  0  0  0  0  0  0  0  0  0  0
   23.1208  -10.4094  -16.6753 C   0  0  2  0  0  0  0  0  0  0  0  0
   23.1396  -11.2584  -17.8706 N   0  0  0  0  0  0  0  0  0  0  0  0
   22.4211   -9.1447  -16.8459 C   0  0  0  0  0  0  0  0  0  0  0  0
   22.7427   -8.4018  -17.8358 O   0  0  0  0  0  0  0  0  0  0  0  0
   19.3251   -7.4116  -16.0968 C   0  0  0  0  0  0  0  0  0  0  0  0
   20.8483   -7.2879  -16.1882 C   0  0  2  0  0  0  0  0  0  0  0  0
   21.3929   -8.6203  -16.0225 N   0  0  0  0  0  0  0  0  0  0  0  0
   21.2890   -6.3648  -15.1302 C   0  0  0  0  0  0  0  0  0  0  0  0
   20.9200   -5.1650  -15.1029 O   0  0  0  0  0  0  0  0  0  0  0  0
   22.1336   -6.7912  -14.1188 O   0  0  0  0  0  0  0  0  0  0  0  0
  1  2  1  0
  3  5  1  0
  3  4  1  6
  3  2  1  0
  5  7  1  0
  5  6  1  1
  7 14  1  0
  7  8  2  0
  9 10  1  0
 10 11  1  0
 11 12  1  0
 13 15  1  0
 13 12  1  6
 14 13  1  0
 15 16  2  0
 18 17  1  1
 18 19  1  0
 19 15  1  0
 20 18  1  0
 21 20  2  0
 22 20  1  0
M  END
$$$$
