IMA.pdb
     RDKit          3D

 22 21  0  0  1  0  0  0  0  0999 V2000
   18.9784  -12.4558  -17.2884 C   0  0  0  0  0  0  0  0  0  0  0  0
   18.4628  -12.4492  -15.8863 C   0  0  0  0  0  0  0  0  0  0  0  0
   17.8193  -11.1567  -15.4566 C   0  0  2  0  0  0  0  0  0  0  0  0
   18.8984  -10.0992  -15.5328 C   0  0  0  0  0  0  0  0  0  0  0  0
   17.4057  -11.2684  -13.9848 C   0  0  2  0  0  0  0  0  0  0  0  0
   16.4364  -12.3815  -13.9911 N   0  0  0  0  0  0  0  0  0  0  0  0
   16.6878  -10.0781  -13.5005 C   0  0  0  0  0  0  0  0  0  0  0  0
   15.6100   -9.7421  -14.0894 O   0  0  0  0  0  0  0  0  0  0  0  0
   14.6276   -5.8195   -7.3519 C   0  0  0  0  0  0  0  0  0  0  0  0
   15.4341   -7.2679   -8.1151 S   0  0  0  0  0  0  0  0  0  0  0  0
   15.5094   -6.9756   -9.9071 C   0  0  0  0  0  0  0  0  0  0  0  0
   16.1489   -8.1699  -10.5261 C   0  0  0  0  0  0  0  0  0  0  0  0
   16.3079   -8.0686  -12.0441 C   0  0  2  0  0  0  0  0  0  0  0  0
   17.0886   -9.2533  -12.4143 N   0  0  0  0  0  0  0  0  0  0  0  0
   16.8883   -6.8058  -12.4759 C   0  0  0  0  0  0  0  0  0  0  0  0
   18.0889   -6.5385  -12.1261 O   0  0  0  0  0  0  0  0  0  0  0  0
   16.1636   -4.0435  -14.8849 C   0  0  0  0  0  0  0  0  0  0  0  0
   16.9422   -4.5963  -13.6881 C   0  0  2  0  0  0  0  0  0  0  0  0
   16.2651   -5.8048  -13.2631 N   0  0  0  0  0  0  0  0  0  0  0  0
   16.9541   -3.5611  -12.6423 C   0  0  0  0  0  0  0  0  0  0  0  0
   17.5998   -2.4927  -12.7760 O   0  0  0  0  0  0  0  0  0  0  0  0
   16.2471   -3.7309  -11.4635 O   0  0  0  0  0  0  0  0  0  0  0  0
  1  2  1  0
  3  5  1  0
  3  4  1  1
  3  2  1  0
  5  7  1  0
  5  6  1  6
  7 14  1  0
  7  8  2  0
  9 10  1  0
 10 11  1  0
 11 12  1  0
 13 15  1  0
 13 12  1  1
 14 13  1  0
 15 16  2  0
 18 17  1  6
 18 19  1  0
 19 15  1  0
 20 18  1  0
 21 20  2  0
 22 20  1  0
M  END
$$$$
