IMA.pdb
     RDKit          3D

 22 21  0  0  1  0  0  0  0  0999 V2000
   16.9389  -14.2336  -19.8977 C   0  0  0  0  0  0  0  0  0  0  0  0
   18.2494  -14.5123  -19.2370 C   0  0  0  0  0  0  0  0  0  0  0  0
   18.7573  -13.4053  -18.3504 C   0  0  2  0  0  0  0  0  0  0  0  0
   19.0388  -12.2289  -19.2590 C   0  0  0  0  0  0  0  0  0  0  0  0
   20.0976  -13.8287  -17.7388 C   0  0  2  0  0  0  0  0  0  0  0  0
   19.7355  -14.9942  -16.9087 N   0  0  0  0  0  0  0  0  0  0  0  0
   20.6582  -12.8142  -16.8314 C   0  0  0  0  0  0  0  0  0  0  0  0
   20.0112  -12.5277  -15.7728 O   0  0  0  0  0  0  0  0  0  0  0  0
   26.8454  -10.3346  -16.7270 C   0  0  0  0  0  0  0  0  0  0  0  0
   26.2462  -10.6490  -15.0320 S   0  0  0  0  0  0  0  0  0  0  0  0
   24.4611  -10.3093  -15.0072 C   0  0  0  0  0  0  0  0  0  0  0  0
   23.8120  -11.2729  -15.9393 C   0  0  0  0  0  0  0  0  0  0  0  0
   22.3029  -11.0701  -16.0855 C   0  0  2  0  0  0  0  0  0  0  0  0
   21.8789  -12.1121  -17.0260 N   0  0  0  0  0  0  0  0  0  0  0  0
   21.9429   -9.7172  -16.4833 C   0  0  0  0  0  0  0  0  0  0  0  0
   22.3810   -9.2763  -17.6009 O   0  0  0  0  0  0  0  0  0  0  0  0
   19.4593   -7.2685  -16.5177 C   0  0  0  0  0  0  0  0  0  0  0  0
   20.9423   -7.4247  -16.1711 C   0  0  2  0  0  0  0  0  0  0  0  0
   21.1393   -8.8002  -15.7600 N   0  0  0  0  0  0  0  0  0  0  0  0
   21.2570   -6.4670  -15.0990 C   0  0  0  0  0  0  0  0  0  0  0  0
   21.4815   -6.8415  -13.9219 O   0  0  0  0  0  0  0  0  0  0  0  0
   21.3171   -5.1069  -15.3536 O   0  0  0  0  0  0  0  0  0  0  0  0
  1  2  1  0
  3  5  1  0
  3  4  1  6
  3  2  1  0
  5  7  1  0
  5  6  1  1
  7 14  1  0
  7  8  2  0
  9 10  1  0
 10 11  1  0
 11 12  1  0
 13 15  1  0
 13 12  1  6
 14 13  1  0
 15 16  2  0
 18 17  1  1
 18 19  1  0
 19 15  1  0
 20 18  1  0
 21 20  2  0
 22 20  1  0
M  END
$$$$
