MWG.pdb
     RDKit          3D

 27 28  0  0  1  0  0  0  0  0999 V2000
   20.1650  -18.7057  -19.5630 C   0  0  0  0  0  0  0  0  0  0  0  0
   21.4725  -17.7317  -20.3548 S   0  0  0  0  0  0  0  0  0  0  0  0
   22.8196  -18.8178  -20.9097 C   0  0  0  0  0  0  0  0  0  0  0  0
   23.0797  -19.8163  -19.8164 C   0  0  0  0  0  0  0  0  0  0  0  0
   24.1905  -19.3473  -18.8791 C   0  0  2  0  0  0  0  0  0  0  0  0
   25.4693  -19.3835  -19.5766 N   0  0  0  0  0  0  0  0  0  0  0  0
   24.2186  -20.1356  -17.6358 C   0  0  0  0  0  0  0  0  0  0  0  0
   24.7575  -21.2810  -17.7043 O   0  0  0  0  0  0  0  0  0  0  0  0
   23.7068  -19.7310  -16.4002 N   0  0  0  0  0  0  0  0  0  0  0  0
   23.7604  -20.5742  -15.1829 C   0  0  1  0  0  0  0  0  0  0  0  0
   24.3447  -19.6892  -14.1030 C   0  0  0  0  0  0  0  0  0  0  0  0
   24.8986  -20.3726  -12.9505 C   0  0  0  0  0  0  0  0  0  0  0  0
   26.0300  -21.1588  -12.9047 C   0  0  0  0  0  0  0  0  0  0  0  0
   26.1811  -21.6125  -11.6506 N   0  0  0  0  0  0  0  0  0  0  0  0
   25.1897  -21.1587  -10.8495 C   0  0  0  0  0  0  0  0  0  0  0  0
   24.9195  -21.3511   -9.5016 C   0  0  0  0  0  0  0  0  0  0  0  0
   23.7955  -20.7271   -8.9866 C   0  0  0  0  0  0  0  0  0  0  0  0
   22.9831  -19.9500   -9.7805 C   0  0  0  0  0  0  0  0  0  0  0  0
   23.2826  -19.7813  -11.1151 C   0  0  0  0  0  0  0  0  0  0  0  0
   24.3883  -20.3851  -11.6572 C   0  0  0  0  0  0  0  0  0  0  0  0
   22.3968  -21.0262  -14.8520 C   0  0  0  0  0  0  0  0  0  0  0  0
   21.4394  -20.2275  -14.9852 O   0  0  0  0  0  0  0  0  0  0  0  0
   22.1486  -22.3403  -14.3901 N   0  0  0  0  0  0  0  0  0  0  0  0
   20.7684  -22.8144  -14.2222 C   0  0  0  0  0  0  0  0  0  0  0  0
   20.1859  -22.2906  -12.9604 C   0  0  0  0  0  0  0  0  0  0  0  0
   19.2040  -21.3217  -12.9055 O   0  0  0  0  0  0  0  0  0  0  0  0
   20.6081  -22.7534  -11.8711 O   0  0  0  0  0  0  0  0  0  0  0  0
  2  1  1  0
  3  2  1  0
  4  3  1  0
  4  5  1  0
  5  6  1  6
  7  8  2  0
  7  5  1  0
  9  7  1  0
 10  9  1  0
 11 12  1  0
 10 11  1  1
 12 13  2  0
 12 20  1  0
 13 14  1  0
 14 15  1  0
 15 16  2  0
 16 17  1  0
 18 17  2  0
 19 18  1  0
 20 19  2  0
 20 15  1  0
 21 22  2  0
 21 10  1  0
 23 21  1  0
 24 23  1  0
 24 25  1  0
 25 26  1  0
 27 25  2  0
M  END
$$$$
