MWG.pdb
     RDKit          3D

 27 28  0  0  1  0  0  0  0  0999 V2000
   26.8600  -17.8965  -14.6774 C   0  0  0  0  0  0  0  0  0  0  0  0
   28.3943  -18.5555  -13.9728 S   0  0  0  0  0  0  0  0  0  0  0  0
   28.2174  -20.3303  -13.6252 C   0  0  0  0  0  0  0  0  0  0  0  0
   28.0030  -20.4858  -12.1454 C   0  0  0  0  0  0  0  0  0  0  0  0
   26.6645  -21.1541  -11.8382 C   0  0  2  0  0  0  0  0  0  0  0  0
   25.5911  -20.4364  -12.5135 N   0  0  0  0  0  0  0  0  0  0  0  0
   26.4312  -21.2575  -10.3882 C   0  0  0  0  0  0  0  0  0  0  0  0
   27.3169  -21.8650   -9.7147 O   0  0  0  0  0  0  0  0  0  0  0  0
   25.3275  -20.7474   -9.6998 N   0  0  0  0  0  0  0  0  0  0  0  0
   24.9575  -21.1715   -8.3291 C   0  0  1  0  0  0  0  0  0  0  0  0
   25.1210  -19.9390   -7.4661 C   0  0  0  0  0  0  0  0  0  0  0  0
   26.4846  -19.5509   -7.1624 C   0  0  0  0  0  0  0  0  0  0  0  0
   27.3566  -18.8494   -7.9672 C   0  0  0  0  0  0  0  0  0  0  0  0
   28.5215  -18.7143   -7.3144 N   0  0  0  0  0  0  0  0  0  0  0  0
   28.4642  -19.3012   -6.0966 C   0  0  0  0  0  0  0  0  0  0  0  0
   29.3979  -19.4238   -5.0768 C   0  0  0  0  0  0  0  0  0  0  0  0
   29.0027  -20.1024   -3.9359 C   0  0  0  0  0  0  0  0  0  0  0  0
   27.7373  -20.6314   -3.8217 C   0  0  0  0  0  0  0  0  0  0  0  0
   26.8364  -20.4901   -4.8550 C   0  0  0  0  0  0  0  0  0  0  0  0
   27.1951  -19.8238   -5.9988 C   0  0  0  0  0  0  0  0  0  0  0  0
   23.5673  -21.6621   -8.3375 C   0  0  0  0  0  0  0  0  0  0  0  0
   22.8020  -21.3131   -9.2674 O   0  0  0  0  0  0  0  0  0  0  0  0
   23.0826  -22.5180   -7.3205 N   0  0  0  0  0  0  0  0  0  0  0  0
   21.8054  -23.2223   -7.4962 C   0  0  0  0  0  0  0  0  0  0  0  0
   20.6654  -22.3224   -7.1856 C   0  0  0  0  0  0  0  0  0  0  0  0
   20.7907  -20.9673   -6.9537 O   0  0  0  0  0  0  0  0  0  0  0  0
   19.5123  -22.8183   -7.1286 O   0  0  0  0  0  0  0  0  0  0  0  0
  2  1  1  0
  3  2  1  0
  4  3  1  0
  4  5  1  0
  5  6  1  6
  7  8  2  0
  7  5  1  0
  9  7  1  0
 10  9  1  0
 11 12  1  0
 10 11  1  1
 12 13  2  0
 12 20  1  0
 13 14  1  0
 14 15  1  0
 15 16  2  0
 16 17  1  0
 18 17  2  0
 19 18  1  0
 20 19  2  0
 20 15  1  0
 21 22  2  0
 21 10  1  0
 23 21  1  0
 24 23  1  0
 24 25  1  0
 25 26  1  0
 27 25  2  0
M  END
$$$$
