MWG.pdb
     RDKit          3D

 27 28  0  0  1  0  0  0  0  0999 V2000
   27.3921  -18.0502   -4.8684 C   0  0  0  0  0  0  0  0  0  0  0  0
   28.2085  -19.6551   -4.6622 S   0  0  0  0  0  0  0  0  0  0  0  0
   28.4191  -20.4672   -6.2742 C   0  0  0  0  0  0  0  0  0  0  0  0
   27.1369  -20.2984   -7.0405 C   0  0  0  0  0  0  0  0  0  0  0  0
   27.1909  -21.0099   -8.3909 C   0  0  2  0  0  0  0  0  0  0  0  0
   28.5703  -21.0766   -8.8557 N   0  0  0  0  0  0  0  0  0  0  0  0
   26.3074  -20.3666   -9.3776 C   0  0  0  0  0  0  0  0  0  0  0  0
   26.5459  -19.1499   -9.6418 O   0  0  0  0  0  0  0  0  0  0  0  0
   25.2401  -20.9784  -10.0399 N   0  0  0  0  0  0  0  0  0  0  0  0
   24.5040  -20.3410  -11.1569 C   0  0  1  0  0  0  0  0  0  0  0  0
   24.9261  -21.0926  -12.4009 C   0  0  0  0  0  0  0  0  0  0  0  0
   26.2638  -20.8173  -12.8878 C   0  0  0  0  0  0  0  0  0  0  0  0
   27.4217  -21.5055  -12.5949 C   0  0  0  0  0  0  0  0  0  0  0  0
   28.4406  -20.9156  -13.2392 N   0  0  0  0  0  0  0  0  0  0  0  0
   28.0086  -19.8528  -13.9565 C   0  0  0  0  0  0  0  0  0  0  0  0
   28.6735  -18.9459  -14.7703 C   0  0  0  0  0  0  0  0  0  0  0  0
   27.9115  -17.9557  -15.3680 C   0  0  0  0  0  0  0  0  0  0  0  0
   26.5531  -17.8773  -15.1615 C   0  0  0  0  0  0  0  0  0  0  0  0
   25.9266  -18.7955  -14.3468 C   0  0  0  0  0  0  0  0  0  0  0  0
   26.6514  -19.7889  -13.7395 C   0  0  0  0  0  0  0  0  0  0  0  0
   23.0561  -20.4555  -10.9043 C   0  0  0  0  0  0  0  0  0  0  0  0
   22.6211  -21.4554  -10.2853 O   0  0  0  0  0  0  0  0  0  0  0  0
   22.1512  -19.4606  -11.3442 N   0  0  0  0  0  0  0  0  0  0  0  0
   21.7522  -19.3996  -12.7567 C   0  0  0  0  0  0  0  0  0  0  0  0
   20.5999  -20.3008  -13.0135 C   0  0  0  0  0  0  0  0  0  0  0  0
   20.6852  -21.6785  -13.0345 O   0  0  0  0  0  0  0  0  0  0  0  0
   19.4743  -19.7843  -13.2259 O   0  0  0  0  0  0  0  0  0  0  0  0
  2  1  1  0
  3  2  1  0
  4  3  1  0
  4  5  1  0
  5  6  1  6
  7  8  2  0
  7  5  1  0
  9  7  1  0
 10  9  1  0
 11 12  1  0
 10 11  1  6
 12 13  2  0
 12 20  1  0
 13 14  1  0
 14 15  1  0
 15 16  2  0
 16 17  1  0
 18 17  2  0
 19 18  1  0
 20 19  2  0
 20 15  1  0
 21 22  2  0
 21 10  1  0
 23 21  1  0
 24 23  1  0
 24 25  1  0
 25 26  1  0
 27 25  2  0
M  END
$$$$
