MWG.pdb
     RDKit          3D

 27 28  0  0  1  0  0  0  0  0999 V2000
   27.8797  -25.2241  -16.9589 C   0  0  0  0  0  0  0  0  0  0  0  0
   28.1494  -23.7665  -18.0018 S   0  0  0  0  0  0  0  0  0  0  0  0
   28.4653  -22.3035  -16.9714 C   0  0  0  0  0  0  0  0  0  0  0  0
   27.8545  -22.5565  -15.6213 C   0  0  0  0  0  0  0  0  0  0  0  0
   26.6996  -21.5981  -15.3380 C   0  0  2  0  0  0  0  0  0  0  0  0
   27.1275  -20.2272  -15.5846 N   0  0  0  0  0  0  0  0  0  0  0  0
   26.1721  -21.7739  -13.9746 C   0  0  0  0  0  0  0  0  0  0  0  0
   25.8974  -22.9605  -13.6231 O   0  0  0  0  0  0  0  0  0  0  0  0
   25.9518  -20.7534  -13.0460 N   0  0  0  0  0  0  0  0  0  0  0  0
   25.3079  -20.9770  -11.7303 C   0  0  1  0  0  0  0  0  0  0  0  0
   25.9627  -19.9914  -10.7866 C   0  0  0  0  0  0  0  0  0  0  0  0
   27.1898  -20.4347  -10.1542 C   0  0  0  0  0  0  0  0  0  0  0  0
   28.2210  -21.1459  -10.7295 C   0  0  0  0  0  0  0  0  0  0  0  0
   29.1591  -21.3647   -9.7948 N   0  0  0  0  0  0  0  0  0  0  0  0
   28.7949  -20.8250   -8.6087 C   0  0  0  0  0  0  0  0  0  0  0  0
   29.4201  -20.7904   -7.3698 C   0  0  0  0  0  0  0  0  0  0  0  0
   28.7550  -20.1398   -6.3439 C   0  0  0  0  0  0  0  0  0  0  0  0
   27.5265  -19.5538   -6.5476 C   0  0  0  0  0  0  0  0  0  0  0  0
   26.9358  -19.6079   -7.7916 C   0  0  0  0  0  0  0  0  0  0  0  0
   27.5672  -20.2442   -8.8296 C   0  0  0  0  0  0  0  0  0  0  0  0
   23.8583  -20.7417  -11.8595 C   0  0  0  0  0  0  0  0  0  0  0  0
   23.4561  -19.7572  -12.5236 O   0  0  0  0  0  0  0  0  0  0  0  0
   22.9156  -21.6042  -11.2518 N   0  0  0  0  0  0  0  0  0  0  0  0
   21.4857  -21.2683  -11.2768 C   0  0  0  0  0  0  0  0  0  0  0  0
   20.9076  -21.5437  -12.6169 C   0  0  0  0  0  0  0  0  0  0  0  0
   19.8117  -20.8845  -13.1368 O   0  0  0  0  0  0  0  0  0  0  0  0
   21.4441  -22.4305  -13.3273 O   0  0  0  0  0  0  0  0  0  0  0  0
  2  1  1  0
  3  2  1  0
  4  3  1  0
  4  5  1  0
  5  6  1  1
  7  8  2  0
  7  5  1  0
  9  7  1  0
 10  9  1  0
 11 12  1  0
 10 11  1  1
 12 13  2  0
 12 20  1  0
 13 14  1  0
 14 15  1  0
 15 16  2  0
 16 17  1  0
 18 17  2  0
 19 18  1  0
 20 19  2  0
 20 15  1  0
 21 22  2  0
 21 10  1  0
 23 21  1  0
 24 23  1  0
 24 25  1  0
 25 26  1  0
 27 25  2  0
M  END
$$$$
