MWG.pdb
     RDKit          3D

 27 28  0  0  1  0  0  0  0  0999 V2000
   25.5897  -21.7920  -19.7638 C   0  0  0  0  0  0  0  0  0  0  0  0
   26.8222  -20.5600  -19.2656 S   0  0  0  0  0  0  0  0  0  0  0  0
   27.8525  -21.2086  -17.9166 C   0  0  0  0  0  0  0  0  0  0  0  0
   26.9465  -21.5089  -16.7551 C   0  0  0  0  0  0  0  0  0  0  0  0
   27.7193  -22.0972  -15.5765 C   0  0  2  0  0  0  0  0  0  0  0  0
   28.2640  -23.3971  -15.9464 N   0  0  0  0  0  0  0  0  0  0  0  0
   26.8847  -22.1738  -14.3659 C   0  0  0  0  0  0  0  0  0  0  0  0
   26.3542  -23.2975  -14.1148 O   0  0  0  0  0  0  0  0  0  0  0  0
   26.6315  -21.1232  -13.4803 N   0  0  0  0  0  0  0  0  0  0  0  0
   25.6978  -21.2329  -12.3349 C   0  0  1  0  0  0  0  0  0  0  0  0
   26.1990  -20.2406  -11.3078 C   0  0  0  0  0  0  0  0  0  0  0  0
   27.3523  -20.6544  -10.5328 C   0  0  0  0  0  0  0  0  0  0  0  0
   28.4899  -21.2833  -10.9914 C   0  0  0  0  0  0  0  0  0  0  0  0
   29.3040  -21.5030   -9.9472 N   0  0  0  0  0  0  0  0  0  0  0  0
   28.7533  -21.0434   -8.7999 C   0  0  0  0  0  0  0  0  0  0  0  0
   29.2025  -21.0413   -7.4865 C   0  0  0  0  0  0  0  0  0  0  0  0
   28.3696  -20.4779   -6.5341 C   0  0  0  0  0  0  0  0  0  0  0  0
   27.1491  -19.9437   -6.8789 C   0  0  0  0  0  0  0  0  0  0  0  0
   26.7357  -19.9632   -8.1935 C   0  0  0  0  0  0  0  0  0  0  0  0
   27.5361  -20.5135   -9.1618 C   0  0  0  0  0  0  0  0  0  0  0  0
   24.3342  -20.9135  -12.7954 C   0  0  0  0  0  0  0  0  0  0  0  0
   24.1651  -19.9544  -13.5851 O   0  0  0  0  0  0  0  0  0  0  0  0
   23.2167  -21.6675  -12.3657 N   0  0  0  0  0  0  0  0  0  0  0  0
   21.8791  -21.3703  -12.8955 C   0  0  0  0  0  0  0  0  0  0  0  0
   21.1728  -20.4024  -12.0180 C   0  0  0  0  0  0  0  0  0  0  0  0
   19.8181  -20.1448  -12.0836 O   0  0  0  0  0  0  0  0  0  0  0  0
   21.8434  -19.7751  -11.1603 O   0  0  0  0  0  0  0  0  0  0  0  0
  2  1  1  0
  3  2  1  0
  4  3  1  0
  4  5  1  0
  5  6  1  6
  7  8  2  0
  7  5  1  0
  9  7  1  0
 10  9  1  0
 11 12  1  0
 10 11  1  1
 12 13  2  0
 12 20  1  0
 13 14  1  0
 14 15  1  0
 15 16  2  0
 16 17  1  0
 18 17  2  0
 19 18  1  0
 20 19  2  0
 20 15  1  0
 21 22  2  0
 21 10  1  0
 23 21  1  0
 24 23  1  0
 24 25  1  0
 25 26  1  0
 27 25  2  0
M  END
$$$$
