MWG.pdb
     RDKit          3D

 27 28  0  0  1  0  0  0  0  0999 V2000
   24.4654  -19.7614  -17.9066 C   0  0  0  0  0  0  0  0  0  0  0  0
   26.0823  -19.0217  -18.2580 S   0  0  0  0  0  0  0  0  0  0  0  0
   27.3744  -19.8312  -17.2693 C   0  0  0  0  0  0  0  0  0  0  0  0
   26.6919  -20.6334  -16.1967 C   0  0  0  0  0  0  0  0  0  0  0  0
   27.4635  -20.5827  -14.8796 C   0  0  2  0  0  0  0  0  0  0  0  0
   28.7497  -21.2488  -15.0383 N   0  0  0  0  0  0  0  0  0  0  0  0
   26.6804  -21.1534  -13.7710 C   0  0  0  0  0  0  0  0  0  0  0  0
   26.3804  -22.3816  -13.8641 O   0  0  0  0  0  0  0  0  0  0  0  0
   26.2455  -20.4623  -12.6373 N   0  0  0  0  0  0  0  0  0  0  0  0
   25.3822  -21.0690  -11.5971 C   0  0  1  0  0  0  0  0  0  0  0  0
   25.6844  -20.3066  -10.3251 C   0  0  0  0  0  0  0  0  0  0  0  0
   26.9534  -20.6051   -9.6903 C   0  0  0  0  0  0  0  0  0  0  0  0
   28.0081  -21.3190  -10.2175 C   0  0  0  0  0  0  0  0  0  0  0  0
   28.9839  -21.3761   -9.2978 N   0  0  0  0  0  0  0  0  0  0  0  0
   28.6225  -20.7248   -8.1682 C   0  0  0  0  0  0  0  0  0  0  0  0
   29.2798  -20.5131   -6.9641 C   0  0  0  0  0  0  0  0  0  0  0  0
   28.6070  -19.7870   -5.9955 C   0  0  0  0  0  0  0  0  0  0  0  0
   27.3405  -19.2978   -6.2207 C   0  0  0  0  0  0  0  0  0  0  0  0
   26.7186  -19.5275   -7.4289 C   0  0  0  0  0  0  0  0  0  0  0  0
   27.3566  -20.2427   -8.4099 C   0  0  0  0  0  0  0  0  0  0  0  0
   23.9719  -20.9317  -12.0041 C   0  0  0  0  0  0  0  0  0  0  0  0
   23.5107  -19.7884  -12.2326 O   0  0  0  0  0  0  0  0  0  0  0  0
   23.1324  -22.0621  -12.1430 N   0  0  0  0  0  0  0  0  0  0  0  0
   21.7899  -21.9168  -12.7215 C   0  0  0  0  0  0  0  0  0  0  0  0
   20.7998  -21.5812  -11.6665 C   0  0  0  0  0  0  0  0  0  0  0  0
   21.1213  -21.3857  -10.3383 O   0  0  0  0  0  0  0  0  0  0  0  0
   19.5927  -21.4665  -11.9960 O   0  0  0  0  0  0  0  0  0  0  0  0
  2  1  1  0
  3  2  1  0
  4  3  1  0
  4  5  1  0
  5  6  1  6
  7  8  2  0
  7  5  1  0
  9  7  1  0
 10  9  1  0
 11 12  1  0
 10 11  1  1
 12 13  2  0
 12 20  1  0
 13 14  1  0
 14 15  1  0
 15 16  2  0
 16 17  1  0
 18 17  2  0
 19 18  1  0
 20 19  2  0
 20 15  1  0
 21 22  2  0
 21 10  1  0
 23 21  1  0
 24 23  1  0
 24 25  1  0
 25 26  1  0
 27 25  2  0
M  END
$$$$
