MWG.pdb
     RDKit          3D

 27 28  0  0  1  0  0  0  0  0999 V2000
   24.9645  -16.4464  -15.9115 C   0  0  0  0  0  0  0  0  0  0  0  0
   26.6058  -15.6907  -15.7686 S   0  0  0  0  0  0  0  0  0  0  0  0
   27.6809  -16.7119  -14.7182 C   0  0  0  0  0  0  0  0  0  0  0  0
   26.9399  -17.9821  -14.4061 C   0  0  0  0  0  0  0  0  0  0  0  0
   27.7603  -18.9057  -13.5082 C   0  0  2  0  0  0  0  0  0  0  0  0
   29.0489  -19.1786  -14.1314 N   0  0  0  0  0  0  0  0  0  0  0  0
   27.0283  -20.1434  -13.1916 C   0  0  0  0  0  0  0  0  0  0  0  0
   27.2852  -21.1530  -13.9141 O   0  0  0  0  0  0  0  0  0  0  0  0
   26.0849  -20.2966  -12.1724 N   0  0  0  0  0  0  0  0  0  0  0  0
   25.2308  -21.4991  -12.0297 C   0  0  1  0  0  0  0  0  0  0  0  0
   25.2425  -21.8308  -10.5531 C   0  0  0  0  0  0  0  0  0  0  0  0
   26.1777  -21.0790   -9.7391 C   0  0  0  0  0  0  0  0  0  0  0  0
   25.9034  -20.0018   -8.9240 C   0  0  0  0  0  0  0  0  0  0  0  0
   27.0510  -19.5919   -8.3616 N   0  0  0  0  0  0  0  0  0  0  0  0
   28.0898  -20.3566   -8.7703 C   0  0  0  0  0  0  0  0  0  0  0  0
   29.4449  -20.3237   -8.4712 C   0  0  0  0  0  0  0  0  0  0  0  0
   30.2494  -21.2741   -9.0776 C   0  0  0  0  0  0  0  0  0  0  0  0
   29.7242  -22.2098   -9.9395 C   0  0  0  0  0  0  0  0  0  0  0  0
   28.3735  -22.2121  -10.2129 C   0  0  0  0  0  0  0  0  0  0  0  0
   27.5483  -21.2850   -9.6294 C   0  0  0  0  0  0  0  0  0  0  0  0
   23.8753  -21.1852  -12.5169 C   0  0  0  0  0  0  0  0  0  0  0  0
   23.5831  -19.9960  -12.7862 O   0  0  0  0  0  0  0  0  0  0  0  0
   22.9016  -22.1975  -12.6875 N   0  0  0  0  0  0  0  0  0  0  0  0
   22.9908  -23.1220  -13.8257 C   0  0  0  0  0  0  0  0  0  0  0  0
   22.7061  -22.4121  -15.0989 C   0  0  0  0  0  0  0  0  0  0  0  0
   21.7041  -22.7720  -15.9776 O   0  0  0  0  0  0  0  0  0  0  0  0
   23.4175  -21.4216  -15.4017 O   0  0  0  0  0  0  0  0  0  0  0  0
  2  1  1  0
  3  2  1  0
  4  3  1  0
  4  5  1  0
  5  6  1  6
  7  8  2  0
  7  5  1  0
  9  7  1  0
 10  9  1  0
 11 12  1  0
 10 11  1  1
 12 13  2  0
 12 20  1  0
 13 14  1  0
 14 15  1  0
 15 16  2  0
 16 17  1  0
 18 17  2  0
 19 18  1  0
 20 19  2  0
 20 15  1  0
 21 22  2  0
 21 10  1  0
 23 21  1  0
 24 23  1  0
 24 25  1  0
 25 26  1  0
 27 25  2  0
M  END
$$$$
