MWG.pdb
     RDKit          3D

 27 28  0  0  1  0  0  0  0  0999 V2000
   19.7477  -19.8258  -10.4603 C   0  0  0  0  0  0  0  0  0  0  0  0
   19.4231  -21.3590  -11.3709 S   0  0  0  0  0  0  0  0  0  0  0  0
   20.6243  -21.5576  -12.7199 C   0  0  0  0  0  0  0  0  0  0  0  0
   21.8136  -20.6948  -12.4019 C   0  0  0  0  0  0  0  0  0  0  0  0
   22.8688  -20.7632  -13.5039 C   0  0  2  0  0  0  0  0  0  0  0  0
   22.8652  -22.0904  -14.1053 N   0  0  0  0  0  0  0  0  0  0  0  0
   24.2014  -20.3896  -13.0014 C   0  0  0  0  0  0  0  0  0  0  0  0
   24.3127  -19.2301  -12.5012 O   0  0  0  0  0  0  0  0  0  0  0  0
   25.3410  -21.1976  -13.0291 N   0  0  0  0  0  0  0  0  0  0  0  0
   26.6944  -20.7060  -12.6794 C   0  0  1  0  0  0  0  0  0  0  0  0
   27.1154  -21.5077  -11.4667 C   0  0  0  0  0  0  0  0  0  0  0  0
   26.7341  -20.9616  -10.1788 C   0  0  0  0  0  0  0  0  0  0  0  0
   25.4747  -20.5796   -9.7688 C   0  0  0  0  0  0  0  0  0  0  0  0
   25.5602  -20.1140   -8.5129 N   0  0  0  0  0  0  0  0  0  0  0  0
   26.8349  -20.1692   -8.0625 C   0  0  0  0  0  0  0  0  0  0  0  0
   27.4118  -19.8085   -6.8525 C   0  0  0  0  0  0  0  0  0  0  0  0
   28.7769  -20.0014   -6.7204 C   0  0  0  0  0  0  0  0  0  0  0  0
   29.5264  -20.5285   -7.7473 C   0  0  0  0  0  0  0  0  0  0  0  0
   28.9194  -20.8753   -8.9349 C   0  0  0  0  0  0  0  0  0  0  0  0
   27.5694  -20.6974   -9.0991 C   0  0  0  0  0  0  0  0  0  0  0  0
   27.5946  -20.9220  -13.8267 C   0  0  0  0  0  0  0  0  0  0  0  0
   27.5639  -22.0214  -14.4287 O   0  0  0  0  0  0  0  0  0  0  0  0
   28.4883  -19.9147  -14.2610 N   0  0  0  0  0  0  0  0  0  0  0  0
   28.0698  -18.9502  -15.2870 C   0  0  0  0  0  0  0  0  0  0  0  0
   28.0770  -19.5813  -16.6315 C   0  0  0  0  0  0  0  0  0  0  0  0
   29.0959  -19.4312  -17.5508 O   0  0  0  0  0  0  0  0  0  0  0  0
   27.0982  -20.2976  -16.9595 O   0  0  0  0  0  0  0  0  0  0  0  0
  2  1  1  0
  3  2  1  0
  4  3  1  0
  4  5  1  0
  5  6  1  1
  7  8  2  0
  7  5  1  0
  9  7  1  0
 10  9  1  0
 11 12  1  0
 10 11  1  1
 12 13  2  0
 12 20  1  0
 13 14  1  0
 14 15  1  0
 15 16  2  0
 16 17  1  0
 18 17  2  0
 19 18  1  0
 20 19  2  0
 20 15  1  0
 21 22  2  0
 21 10  1  0
 23 21  1  0
 24 23  1  0
 24 25  1  0
 25 26  1  0
 27 25  2  0
M  END
$$$$
