TLA.pdb
     RDKit          3D

 21 20  0  0  1  0  0  0  0  0999 V2000
    6.9412  -16.7090   19.0856 C   0  0  0  0  0  0  0  0  0  0  0  0
    7.3544  -16.5525   20.5263 C   0  0  1  0  0  0  0  0  0  0  0  0
    8.0209  -17.7007   20.9523 O   0  0  0  0  0  0  0  0  0  0  0  0
    8.3321  -15.4039   20.6475 C   0  0  2  0  0  0  0  0  0  0  0  0
    9.5140  -15.5831   19.8607 N   0  0  0  0  0  0  0  0  0  0  0  0
    8.6572  -15.1322   22.0854 C   0  0  0  0  0  0  0  0  0  0  0  0
    9.7599  -15.4814   22.5750 O   0  0  0  0  0  0  0  0  0  0  0  0
    8.2993  -12.2241   26.8022 C   0  0  0  0  0  0  0  0  0  0  0  0
    7.0850  -13.0658   26.4068 C   0  0  1  0  0  0  0  0  0  0  0  0
    5.8700  -12.1953   26.7753 C   0  0  0  0  0  0  0  0  0  0  0  0
    7.0190  -13.3003   24.9513 C   0  0  0  0  0  0  0  0  0  0  0  0
    7.9684  -14.2897   24.3751 C   0  0  2  0  0  0  0  0  0  0  0  0
    7.7459  -14.4752   22.9535 N   0  0  0  0  0  0  0  0  0  0  0  0
    8.0808  -15.5679   25.0718 C   0  0  0  0  0  0  0  0  0  0  0  0
    7.1234  -16.3474   25.3077 O   0  0  0  0  0  0  0  0  0  0  0  0
   10.5088  -18.1538   25.3055 C   0  0  0  0  0  0  0  0  0  0  0  0
    9.5592  -17.3109   26.1242 C   0  0  2  0  0  0  0  0  0  0  0  0
    9.3568  -16.0015   25.5363 N   0  0  0  0  0  0  0  0  0  0  0  0
    9.9645  -17.2061   27.5329 C   0  0  0  0  0  0  0  0  0  0  0  0
    9.9787  -18.2651   28.4001 O   0  0  0  0  0  0  0  0  0  0  0  0
   10.3189  -16.0816   27.9705 O   0  0  0  0  0  0  0  0  0  0  0  0
  2  1  1  6
  2  3  1  0
  4  6  1  0
  4  2  1  0
  4  5  1  6
  6  7  2  0
  9  8  1  6
  9 11  1  0
 10  9  1  0
 12 11  1  1
 13  6  1  0
 13 12  1  0
 14 18  1  0
 14 12  1  0
 15 14  2  0
 17 16  1  6
 17 18  1  0
 19 17  1  0
 19 20  1  0
 21 19  2  0
M  END
$$$$
