TLA.pdb
     RDKit          3D

 21 20  0  0  1  0  0  0  0  0999 V2000
    6.4856  -16.5206   19.1630 C   0  0  0  0  0  0  0  0  0  0  0  0
    7.0294  -16.3284   20.5550 C   0  0  1  0  0  0  0  0  0  0  0  0
    7.8460  -17.4063   20.8946 O   0  0  0  0  0  0  0  0  0  0  0  0
    7.8971  -15.0890   20.5896 C   0  0  2  0  0  0  0  0  0  0  0  0
    8.9873  -15.1371   19.6637 N   0  0  0  0  0  0  0  0  0  0  0  0
    8.3651  -14.8068   21.9855 C   0  0  0  0  0  0  0  0  0  0  0  0
    9.5287  -15.1087   22.3497 O   0  0  0  0  0  0  0  0  0  0  0  0
    8.3872  -12.0960   26.8305 C   0  0  0  0  0  0  0  0  0  0  0  0
    7.1496  -12.9338   26.5053 C   0  0  1  0  0  0  0  0  0  0  0  0
    5.9642  -12.0918   27.0111 C   0  0  0  0  0  0  0  0  0  0  0  0
    6.9616  -13.1101   25.0522 C   0  0  0  0  0  0  0  0  0  0  0  0
    7.8630  -14.0681   24.3581 C   0  0  2  0  0  0  0  0  0  0  0  0
    7.5266  -14.1921   22.9523 N   0  0  0  0  0  0  0  0  0  0  0  0
    8.0336  -15.3751   24.9862 C   0  0  0  0  0  0  0  0  0  0  0  0
    7.1237  -16.2301   25.1308 O   0  0  0  0  0  0  0  0  0  0  0  0
   10.4586  -17.8937   25.1672 C   0  0  0  0  0  0  0  0  0  0  0  0
    9.5688  -17.0571   26.0564 C   0  0  2  0  0  0  0  0  0  0  0  0
    9.3148  -15.7484   25.4872 N   0  0  0  0  0  0  0  0  0  0  0  0
   10.0787  -16.9511   27.4306 C   0  0  0  0  0  0  0  0  0  0  0  0
   10.2913  -18.0289   28.2472 O   0  0  0  0  0  0  0  0  0  0  0  0
   10.3355  -15.8073   27.8859 O   0  0  0  0  0  0  0  0  0  0  0  0
  2  1  1  6
  2  3  1  0
  4  6  1  0
  4  2  1  0
  4  5  1  6
  6  7  2  0
  9  8  1  6
  9 11  1  0
 10  9  1  0
 12 11  1  1
 13  6  1  0
 13 12  1  0
 14 18  1  0
 14 12  1  0
 15 14  2  0
 17 16  1  6
 17 18  1  0
 19 17  1  0
 19 20  1  0
 21 19  2  0
M  END
$$$$
