TLA.pdb
     RDKit          3D

 21 20  0  0  1  0  0  0  0  0999 V2000
    8.3125  -16.7395   19.7556 C   0  0  0  0  0  0  0  0  0  0  0  0
    8.3465  -16.5951   21.2551 C   0  0  1  0  0  0  0  0  0  0  0  0
    8.9819  -17.7000   21.8204 O   0  0  0  0  0  0  0  0  0  0  0  0
    9.1657  -15.3776   21.6249 C   0  0  2  0  0  0  0  0  0  0  0  0
   10.4824  -15.3916   21.0643 N   0  0  0  0  0  0  0  0  0  0  0  0
    9.1964  -15.1893   23.1118 C   0  0  0  0  0  0  0  0  0  0  0  0
   10.2669  -15.3159   23.7565 O   0  0  0  0  0  0  0  0  0  0  0  0
    7.7847  -11.4524   25.4816 C   0  0  0  0  0  0  0  0  0  0  0  0
    7.0410  -12.4695   26.3487 C   0  0  1  0  0  0  0  0  0  0  0  0
    5.6516  -11.8468   26.5761 C   0  0  0  0  0  0  0  0  0  0  0  0
    6.8276  -13.7502   25.6471 C   0  0  0  0  0  0  0  0  0  0  0  0
    8.0355  -14.5303   25.2670 C   0  0  2  0  0  0  0  0  0  0  0  0
    8.0315  -14.8628   23.8548 N   0  0  0  0  0  0  0  0  0  0  0  0
    8.3459  -15.6947   26.0914 C   0  0  0  0  0  0  0  0  0  0  0  0
    8.4589  -15.6827   27.3432 O   0  0  0  0  0  0  0  0  0  0  0  0
    8.4475  -19.4111   25.4883 C   0  0  0  0  0  0  0  0  0  0  0  0
    8.8484  -18.1564   26.2282 C   0  0  2  0  0  0  0  0  0  0  0  0
    8.5435  -16.9609   25.4673 N   0  0  0  0  0  0  0  0  0  0  0  0
   10.2551  -18.1737   26.6533 C   0  0  0  0  0  0  0  0  0  0  0  0
   10.7706  -19.0835   27.5366 O   0  0  0  0  0  0  0  0  0  0  0  0
   11.0325  -17.3051   26.1812 O   0  0  0  0  0  0  0  0  0  0  0  0
  2  1  1  6
  2  3  1  0
  4  6  1  0
  4  2  1  0
  4  5  1  1
  6  7  2  0
  9  8  1  6
  9 11  1  0
 10  9  1  0
 12 11  1  1
 13  6  1  0
 13 12  1  0
 14 18  1  0
 14 12  1  0
 15 14  2  0
 17 16  1  6
 17 18  1  0
 19 17  1  0
 19 20  1  0
 21 19  2  0
M  END
$$$$
