TLA.pdb
     RDKit          3D

 21 20  0  0  1  0  0  0  0  0999 V2000
    6.7045  -17.3785   22.4574 C   0  0  0  0  0  0  0  0  0  0  0  0
    7.6834  -16.7579   21.4946 C   0  0  1  0  0  0  0  0  0  0  0  0
    7.3243  -17.0782   20.1860 O   0  0  0  0  0  0  0  0  0  0  0  0
    7.6194  -15.2506   21.6137 C   0  0  2  0  0  0  0  0  0  0  0  0
    8.1494  -14.5711   20.4711 N   0  0  0  0  0  0  0  0  0  0  0  0
    8.2673  -14.7900   22.8847 C   0  0  0  0  0  0  0  0  0  0  0  0
    9.4482  -14.3621   22.8891 O   0  0  0  0  0  0  0  0  0  0  0  0
    5.6635  -11.8597   26.7332 C   0  0  0  0  0  0  0  0  0  0  0  0
    6.7324  -12.4362   25.8033 C   0  0  1  0  0  0  0  0  0  0  0  0
    7.9015  -11.4382   25.8865 C   0  0  0  0  0  0  0  0  0  0  0  0
    7.2432  -13.7363   26.2794 C   0  0  0  0  0  0  0  0  0  0  0  0
    8.1975  -14.4597   25.3972 C   0  0  2  0  0  0  0  0  0  0  0  0
    7.5864  -14.8147   24.1302 N   0  0  0  0  0  0  0  0  0  0  0  0
    8.9020  -15.5931   25.9893 C   0  0  0  0  0  0  0  0  0  0  0  0
    9.4717  -15.5829   27.1097 O   0  0  0  0  0  0  0  0  0  0  0  0
    8.9791  -19.2678   25.4772 C   0  0  0  0  0  0  0  0  0  0  0  0
    9.6937  -17.9728   25.7849 C   0  0  2  0  0  0  0  0  0  0  0  0
    8.9723  -16.8241   25.2739 N   0  0  0  0  0  0  0  0  0  0  0  0
   11.0900  -17.9727   25.3263 C   0  0  0  0  0  0  0  0  0  0  0  0
   12.0421  -18.8395   25.7908 O   0  0  0  0  0  0  0  0  0  0  0  0
   11.4336  -17.1302   24.4581 O   0  0  0  0  0  0  0  0  0  0  0  0
  2  1  1  1
  2  3  1  0
  4  6  1  0
  4  2  1  0
  4  5  1  6
  6  7  2  0
  9  8  1  1
  9 11  1  0
 10  9  1  0
 12 11  1  1
 13  6  1  0
 13 12  1  0
 14 18  1  0
 14 12  1  0
 15 14  2  0
 17 16  1  6
 17 18  1  0
 19 17  1  0
 19 20  1  0
 21 19  2  0
M  END
$$$$
