TLA.pdb
     RDKit          3D

 21 20  0  0  1  0  0  0  0  0999 V2000
    6.3756  -17.2029   22.0962 C   0  0  0  0  0  0  0  0  0  0  0  0
    7.2602  -16.5568   21.0615 C   0  0  1  0  0  0  0  0  0  0  0  0
    6.6763  -16.6775   19.8011 O   0  0  0  0  0  0  0  0  0  0  0  0
    7.3779  -15.0766   21.3537 C   0  0  2  0  0  0  0  0  0  0  0  0
    7.9405  -14.3302   20.2699 N   0  0  0  0  0  0  0  0  0  0  0  0
    8.1226  -14.8452   22.6340 C   0  0  0  0  0  0  0  0  0  0  0  0
    9.3781  -14.8135   22.6539 O   0  0  0  0  0  0  0  0  0  0  0  0
    5.7060  -12.0409   26.7323 C   0  0  0  0  0  0  0  0  0  0  0  0
    6.6871  -12.5973   25.6993 C   0  0  1  0  0  0  0  0  0  0  0  0
    7.7925  -11.5308   25.5967 C   0  0  0  0  0  0  0  0  0  0  0  0
    7.3332  -13.8423   26.1579 C   0  0  0  0  0  0  0  0  0  0  0  0
    8.1222  -14.6107   25.1583 C   0  0  2  0  0  0  0  0  0  0  0  0
    7.4536  -14.6530   23.8714 N   0  0  0  0  0  0  0  0  0  0  0  0
    8.5815  -15.9346   25.5681 C   0  0  0  0  0  0  0  0  0  0  0  0
    7.8323  -16.9124   25.8183 O   0  0  0  0  0  0  0  0  0  0  0  0
   11.8135  -17.7663   25.3525 C   0  0  0  0  0  0  0  0  0  0  0  0
   10.5036  -17.4850   26.0507 C   0  0  2  0  0  0  0  0  0  0  0  0
    9.9791  -16.1782   25.7070 N   0  0  0  0  0  0  0  0  0  0  0  0
   10.5886  -17.6592   27.5075 C   0  0  0  0  0  0  0  0  0  0  0  0
   10.2702  -16.6800   28.4095 O   0  0  0  0  0  0  0  0  0  0  0  0
   10.9752  -18.7692   27.9548 O   0  0  0  0  0  0  0  0  0  0  0  0
  2  1  1  1
  2  3  1  0
  4  6  1  0
  4  2  1  0
  4  5  1  6
  6  7  2  0
  9  8  1  1
  9 11  1  0
 10  9  1  0
 12 11  1  1
 13  6  1  0
 13 12  1  0
 14 18  1  0
 14 12  1  0
 15 14  2  0
 17 16  1  6
 17 18  1  0
 19 17  1  0
 19 20  1  0
 21 19  2  0
M  END
$$$$
