TLA.pdb
     RDKit          3D

 21 20  0  0  1  0  0  0  0  0999 V2000
    7.3667  -19.4169   15.0821 C   0  0  0  0  0  0  0  0  0  0  0  0
    7.9754  -18.8076   16.3185 C   0  0  1  0  0  0  0  0  0  0  0  0
    8.8523  -19.7168   16.9088 O   0  0  0  0  0  0  0  0  0  0  0  0
    8.7923  -17.5940   15.9314 C   0  0  2  0  0  0  0  0  0  0  0  0
    9.8617  -17.8973   15.0300 N   0  0  0  0  0  0  0  0  0  0  0  0
    9.2808  -16.8713   17.1506 C   0  0  0  0  0  0  0  0  0  0  0  0
   10.4866  -16.9319   17.4971 O   0  0  0  0  0  0  0  0  0  0  0  0
    7.5183  -11.8844   20.3260 C   0  0  0  0  0  0  0  0  0  0  0  0
    8.3897  -13.1414   20.3356 C   0  0  1  0  0  0  0  0  0  0  0  0
    8.1039  -13.8041   21.6954 C   0  0  0  0  0  0  0  0  0  0  0  0
    7.9871  -14.1070   19.2947 C   0  0  0  0  0  0  0  0  0  0  0  0
    8.8593  -15.2942   19.0902 C   0  0  2  0  0  0  0  0  0  0  0  0
    8.4153  -16.0929   17.9633 N   0  0  0  0  0  0  0  0  0  0  0  0
    9.1204  -16.1216   20.2644 C   0  0  0  0  0  0  0  0  0  0  0  0
    8.2624  -16.8225   20.8581 O   0  0  0  0  0  0  0  0  0  0  0  0
   12.1517  -17.6378   21.7606 C   0  0  0  0  0  0  0  0  0  0  0  0
   10.7803  -17.0258   21.9253 C   0  0  2  0  0  0  0  0  0  0  0  0
   10.4364  -16.1654   20.8107 N   0  0  0  0  0  0  0  0  0  0  0  0
   10.6218  -16.3261   23.2079 C   0  0  0  0  0  0  0  0  0  0  0  0
   10.6772  -16.9494   24.4253 O   0  0  0  0  0  0  0  0  0  0  0  0
   10.4239  -15.0842   23.1904 O   0  0  0  0  0  0  0  0  0  0  0  0
  2  1  1  6
  2  3  1  0
  4  6  1  0
  4  2  1  0
  4  5  1  6
  6  7  2  0
  9  8  1  6
  9 11  1  0
 10  9  1  0
 12 11  1  1
 13  6  1  0
 13 12  1  0
 14 18  1  0
 14 12  1  0
 15 14  2  0
 17 16  1  6
 17 18  1  0
 19 17  1  0
 19 20  1  0
 21 19  2  0
M  END
$$$$
