TLA.pdb
     RDKit          3D

 21 20  0  0  1  0  0  0  0  0999 V2000
    6.4874  -17.1813   21.7858 C   0  0  0  0  0  0  0  0  0  0  0  0
    7.4320  -16.4318   20.8822 C   0  0  1  0  0  0  0  0  0  0  0  0
    6.9385  -16.4349   19.5782 O   0  0  0  0  0  0  0  0  0  0  0  0
    7.5081  -14.9858   21.3221 C   0  0  2  0  0  0  0  0  0  0  0  0
    8.0769  -14.1236   20.3315 N   0  0  0  0  0  0  0  0  0  0  0  0
    8.2185  -14.8670   22.6369 C   0  0  0  0  0  0  0  0  0  0  0  0
    9.4725  -14.9031   22.6986 O   0  0  0  0  0  0  0  0  0  0  0  0
    5.9961  -11.9693   26.8354 C   0  0  0  0  0  0  0  0  0  0  0  0
    7.0208  -12.5521   25.8608 C   0  0  1  0  0  0  0  0  0  0  0  0
    8.3029  -11.7371   26.1089 C   0  0  0  0  0  0  0  0  0  0  0  0
    7.3417  -13.9601   26.1649 C   0  0  0  0  0  0  0  0  0  0  0  0
    8.1518  -14.7072   25.1661 C   0  0  2  0  0  0  0  0  0  0  0  0
    7.5173  -14.7098   23.8613 N   0  0  0  0  0  0  0  0  0  0  0  0
    8.5909  -16.0451   25.5518 C   0  0  0  0  0  0  0  0  0  0  0  0
    7.8318  -17.0325   25.7211 O   0  0  0  0  0  0  0  0  0  0  0  0
   11.7710  -17.9511   25.5417 C   0  0  0  0  0  0  0  0  0  0  0  0
   10.4732  -17.5763   26.2180 C   0  0  2  0  0  0  0  0  0  0  0  0
    9.9789  -16.2921   25.7625 N   0  0  0  0  0  0  0  0  0  0  0  0
   10.5633  -17.6236   27.6841 C   0  0  0  0  0  0  0  0  0  0  0  0
   10.9371  -18.7373   28.3867 O   0  0  0  0  0  0  0  0  0  0  0  0
   10.2820  -16.5841   28.3337 O   0  0  0  0  0  0  0  0  0  0  0  0
  2  1  1  1
  2  3  1  0
  4  6  1  0
  4  2  1  0
  4  5  1  6
  6  7  2  0
  9  8  1  1
  9 11  1  0
 10  9  1  0
 12 11  1  1
 13  6  1  0
 13 12  1  0
 14 18  1  0
 14 12  1  0
 15 14  2  0
 17 16  1  6
 17 18  1  0
 19 17  1  0
 19 20  1  0
 21 19  2  0
M  END
$$$$
