WLC.pdb
     RDKit          3D

 29 30  0  0  1  0  0  0  0  0999 V2000
   26.2828  -20.1956  -11.5951 N   0  0  0  0  0  0  0  0  0  0  0  0
   25.5406  -20.2710  -10.3384 C   0  0  1  0  0  0  0  0  0  0  0  0
   24.3307  -21.1251  -10.4647 C   0  0  0  0  0  0  0  0  0  0  0  0
   23.2140  -20.5062  -11.1956 C   0  0  0  0  0  0  0  0  0  0  0  0
   23.1791  -20.3869  -12.5880 C   0  0  0  0  0  0  0  0  0  0  0  0
   22.0204  -19.8253  -12.9424 N   0  0  0  0  0  0  0  0  0  0  0  0
   21.2675  -19.5568  -11.8546 C   0  0  0  0  0  0  0  0  0  0  0  0
   20.0253  -18.9822  -11.7079 C   0  0  0  0  0  0  0  0  0  0  0  0
   19.4833  -18.8094  -10.4630 C   0  0  0  0  0  0  0  0  0  0  0  0
   20.2362  -19.2337   -9.3909 C   0  0  0  0  0  0  0  0  0  0  0  0
   21.4798  -19.8114   -9.5062 C   0  0  0  0  0  0  0  0  0  0  0  0
   22.0266  -19.9871  -10.7677 C   0  0  0  0  0  0  0  0  0  0  0  0
   26.4911  -20.6134   -9.2715 C   0  0  0  0  0  0  0  0  0  0  0  0
   27.1795  -21.6767   -9.3334 O   0  0  0  0  0  0  0  0  0  0  0  0
   29.5538  -20.3510   -4.8223 C   0  0  0  0  0  0  0  0  0  0  0  0
   29.4917  -19.1369   -5.7430 C   0  0  2  0  0  0  0  0  0  0  0  0
   29.8881  -17.9409   -4.8822 C   0  0  0  0  0  0  0  0  0  0  0  0
   28.1423  -18.9732   -6.3489 C   0  0  0  0  0  0  0  0  0  0  0  0
   27.5828  -20.1869   -7.0161 C   0  0  2  0  0  0  0  0  0  0  0  0
   26.7101  -19.8150   -8.1292 N   0  0  0  0  0  0  0  0  0  0  0  0
   26.7455  -20.9375   -6.0689 C   0  0  0  0  0  0  0  0  0  0  0  0
   25.7047  -20.4255   -5.6115 O   0  0  0  0  0  0  0  0  0  0  0  0
   27.0758  -22.2463   -5.6428 N   0  0  0  0  0  0  0  0  0  0  0  0
   26.3341  -22.8887   -4.5450 C   0  0  1  0  0  0  0  0  0  0  0  0
   26.6058  -24.3753   -4.6559 C   0  0  0  0  0  0  0  0  0  0  0  0
   25.8527  -25.3323   -3.3416 S   0  0  0  0  0  0  0  0  0  0  0  0
   26.8086  -22.3915   -3.2550 C   0  0  0  0  0  0  0  0  0  0  0  0
   28.0286  -22.3736   -2.9957 O   0  0  0  0  0  0  0  0  0  0  0  0
   25.9100  -21.9351   -2.3072 O   0  0  0  0  0  0  0  0  0  0  0  0
  2  1  1  6
  3  4  1  0
  3  2  1  0
  4 12  1  0
  4  5  2  0
  5  6  1  0
  7  6  1  0
  7  8  2  0
  9  8  1  0
 10  9  2  0
 11 12  2  0
 11 10  1  0
 12  7  1  0
 13  2  1  0
 13 20  1  0
 14 13  2  0
 16 15  1  1
 16 17  1  0
 19 18  1  1
 18 16  1  0
 19 20  1  0
 21 19  1  0
 22 21  2  0
 23 21  1  0
 24 27  1  0
 24 23  1  0
 24 25  1  1
 26 25  1  0
 27 29  1  0
 28 27  2  0
M  END
$$$$
