WLC.pdb
     RDKit          3D

 29 30  0  0  1  0  0  0  0  0999 V2000
   26.4749  -20.5169  -12.0056 N   0  0  0  0  0  0  0  0  0  0  0  0
   25.6581  -20.3177  -10.8102 C   0  0  1  0  0  0  0  0  0  0  0  0
   24.3095  -20.9249  -10.9582 C   0  0  0  0  0  0  0  0  0  0  0  0
   23.4675  -20.3087  -11.9953 C   0  0  0  0  0  0  0  0  0  0  0  0
   23.6921  -20.4730  -13.3653 C   0  0  0  0  0  0  0  0  0  0  0  0
   22.7349  -19.8290  -14.0380 N   0  0  0  0  0  0  0  0  0  0  0  0
   21.8715  -19.2340  -13.1879 C   0  0  0  0  0  0  0  0  0  0  0  0
   20.7510  -18.4623  -13.3967 C   0  0  0  0  0  0  0  0  0  0  0  0
   20.0473  -17.9593  -12.3360 C   0  0  0  0  0  0  0  0  0  0  0  0
   20.5153  -18.2629  -11.0770 C   0  0  0  0  0  0  0  0  0  0  0  0
   21.6314  -19.0314  -10.8371 C   0  0  0  0  0  0  0  0  0  0  0  0
   22.3420  -19.5414  -11.9124 C   0  0  0  0  0  0  0  0  0  0  0  0
   26.4524  -20.7315   -9.6453 C   0  0  0  0  0  0  0  0  0  0  0  0
   26.9613  -21.8916   -9.5870 O   0  0  0  0  0  0  0  0  0  0  0  0
   29.1199  -18.1253   -4.6453 C   0  0  0  0  0  0  0  0  0  0  0  0
   28.7943  -19.4067   -5.4051 C   0  0  2  0  0  0  0  0  0  0  0  0
   30.1302  -20.1103   -5.6262 C   0  0  0  0  0  0  0  0  0  0  0  0
   28.0869  -19.1247   -6.6837 C   0  0  0  0  0  0  0  0  0  0  0  0
   27.4722  -20.3087   -7.3559 C   0  0  2  0  0  0  0  0  0  0  0  0
   26.7070  -19.9010   -8.5337 N   0  0  0  0  0  0  0  0  0  0  0  0
   26.5159  -20.9589   -6.4480 C   0  0  0  0  0  0  0  0  0  0  0  0
   26.9072  -21.4388   -5.3658 O   0  0  0  0  0  0  0  0  0  0  0  0
   25.1383  -21.0674   -6.7547 N   0  0  0  0  0  0  0  0  0  0  0  0
   24.2095  -21.7233   -5.8193 C   0  0  1  0  0  0  0  0  0  0  0  0
   23.4774  -20.6134   -5.0926 C   0  0  0  0  0  0  0  0  0  0  0  0
   22.2078  -21.2133   -3.9797 S   0  0  0  0  0  0  0  0  0  0  0  0
   23.2544  -22.5520   -6.5524 C   0  0  0  0  0  0  0  0  0  0  0  0
   22.8074  -22.1749   -7.6542 O   0  0  0  0  0  0  0  0  0  0  0  0
   22.8356  -23.7639   -6.0327 O   0  0  0  0  0  0  0  0  0  0  0  0
  2  1  1  6
  3  4  1  0
  3  2  1  0
  4 12  1  0
  4  5  2  0
  5  6  1  0
  7  6  1  0
  7  8  2  0
  9  8  1  0
 10  9  2  0
 11 12  2  0
 11 10  1  0
 12  7  1  0
 13  2  1  0
 13 20  1  0
 14 13  2  0
 16 15  1  6
 16 17  1  0
 19 18  1  1
 18 16  1  0
 19 20  1  0
 21 19  1  0
 22 21  2  0
 23 21  1  0
 24 27  1  0
 24 23  1  0
 24 25  1  6
 26 25  1  0
 27 29  1  0
 28 27  2  0
M  END
$$$$
