WLC.pdb
     RDKit          3D

 29 30  0  0  1  0  0  0  0  0999 V2000
   25.5717  -19.8590  -18.3799 N   0  0  0  0  0  0  0  0  0  0  0  0
   25.1777  -19.5208  -17.0138 C   0  0  1  0  0  0  0  0  0  0  0  0
   23.6997  -19.4825  -16.8612 C   0  0  0  0  0  0  0  0  0  0  0  0
   23.0378  -18.3676  -17.5565 C   0  0  0  0  0  0  0  0  0  0  0  0
   22.6543  -18.4190  -18.8998 C   0  0  0  0  0  0  0  0  0  0  0  0
   22.0433  -17.2743  -19.2163 N   0  0  0  0  0  0  0  0  0  0  0  0
   21.9956  -16.4478  -18.1502 C   0  0  0  0  0  0  0  0  0  0  0  0
   21.4869  -15.1795  -17.9846 C   0  0  0  0  0  0  0  0  0  0  0  0
   21.5829  -14.5457  -16.7753 C   0  0  0  0  0  0  0  0  0  0  0  0
   22.2042  -15.2349  -15.7578 C   0  0  0  0  0  0  0  0  0  0  0  0
   22.7217  -16.5028  -15.8930 C   0  0  0  0  0  0  0  0  0  0  0  0
   22.6222  -17.1439  -17.1180 C   0  0  0  0  0  0  0  0  0  0  0  0
   25.9208  -20.3976  -16.0984 C   0  0  0  0  0  0  0  0  0  0  0  0
   26.2076  -21.5874  -16.4305 O   0  0  0  0  0  0  0  0  0  0  0  0
   30.1996  -19.9012  -11.7350 C   0  0  0  0  0  0  0  0  0  0  0  0
   29.1032  -20.7879  -12.3157 C   0  0  2  0  0  0  0  0  0  0  0  0
   29.8175  -22.0003  -12.9061 C   0  0  0  0  0  0  0  0  0  0  0  0
   28.2884  -20.0645  -13.3293 C   0  0  0  0  0  0  0  0  0  0  0  0
   27.1592  -20.8411  -13.9235 C   0  0  2  0  0  0  0  0  0  0  0  0
   26.3627  -20.0021  -14.8183 N   0  0  0  0  0  0  0  0  0  0  0  0
   26.2480  -21.2915  -12.8612 C   0  0  0  0  0  0  0  0  0  0  0  0
   26.5379  -22.2867  -12.1682 O   0  0  0  0  0  0  0  0  0  0  0  0
   25.0276  -20.6305  -12.5834 N   0  0  0  0  0  0  0  0  0  0  0  0
   23.9506  -21.3176  -11.8513 C   0  0  1  0  0  0  0  0  0  0  0  0
   23.9420  -20.7338  -10.4530 C   0  0  0  0  0  0  0  0  0  0  0  0
   25.4950  -19.9647   -9.9977 S   0  0  0  0  0  0  0  0  0  0  0  0
   22.6633  -21.0743  -12.4995 C   0  0  0  0  0  0  0  0  0  0  0  0
   22.5904  -20.3315  -13.4989 O   0  0  0  0  0  0  0  0  0  0  0  0
   21.5112  -21.6652  -12.0118 O   0  0  0  0  0  0  0  0  0  0  0  0
  2  1  1  6
  3  4  1  0
  3  2  1  0
  4 12  1  0
  4  5  2  0
  5  6  1  0
  7  6  1  0
  7  8  2  0
  9  8  1  0
 10  9  2  0
 11 12  2  0
 11 10  1  0
 12  7  1  0
 13  2  1  0
 13 20  1  0
 14 13  2  0
 16 15  1  6
 16 17  1  0
 19 18  1  1
 18 16  1  0
 19 20  1  0
 21 19  1  0
 22 21  2  0
 23 21  1  0
 24 27  1  0
 24 23  1  0
 24 25  1  1
 26 25  1  0
 27 29  1  0
 28 27  2  0
M  END
$$$$
