WLC.pdb
     RDKit          3D

 29 30  0  0  1  0  0  0  0  0999 V2000
   20.8989  -13.4858  -16.8711 N   0  0  0  0  0  0  0  0  0  0  0  0
   21.2372  -12.3305  -17.6998 C   0  0  1  0  0  0  0  0  0  0  0  0
   20.1227  -11.9627  -18.6118 C   0  0  0  0  0  0  0  0  0  0  0  0
   19.6784  -13.0421  -19.5074 C   0  0  0  0  0  0  0  0  0  0  0  0
   18.4088  -13.6232  -19.4395 C   0  0  0  0  0  0  0  0  0  0  0  0
   18.3011  -14.5351  -20.4093 N   0  0  0  0  0  0  0  0  0  0  0  0
   19.4396  -14.6006  -21.1316 C   0  0  0  0  0  0  0  0  0  0  0  0
   19.8107  -15.3777  -22.2054 C   0  0  0  0  0  0  0  0  0  0  0  0
   21.0580  -15.2524  -22.7546 C   0  0  0  0  0  0  0  0  0  0  0  0
   21.9007  -14.3253  -22.1829 C   0  0  0  0  0  0  0  0  0  0  0  0
   21.5580  -13.5345  -21.1101 C   0  0  0  0  0  0  0  0  0  0  0  0
   20.2938  -13.6615  -20.5561 C   0  0  0  0  0  0  0  0  0  0  0  0
   21.7529  -11.2756  -16.8165 C   0  0  0  0  0  0  0  0  0  0  0  0
   21.1373  -10.9627  -15.7528 O   0  0  0  0  0  0  0  0  0  0  0  0
   25.6880  -10.5872  -14.4593 C   0  0  0  0  0  0  0  0  0  0  0  0
   25.7314  -10.3972  -15.9717 C   0  0  2  0  0  0  0  0  0  0  0  0
   27.2027  -10.1985  -16.3243 C   0  0  0  0  0  0  0  0  0  0  0  0
   24.8872   -9.2518  -16.4077 C   0  0  0  0  0  0  0  0  0  0  0  0
   23.4138   -9.4379  -16.2469 C   0  0  2  0  0  0  0  0  0  0  0  0
   22.9354  -10.5489  -17.0690 N   0  0  0  0  0  0  0  0  0  0  0  0
   22.7036   -8.2402  -16.7190 C   0  0  0  0  0  0  0  0  0  0  0  0
   22.5569   -8.0404  -17.9410 O   0  0  0  0  0  0  0  0  0  0  0  0
   22.1665   -7.2810  -15.8275 N   0  0  0  0  0  0  0  0  0  0  0  0
   21.4322   -6.1105  -16.3362 C   0  0  1  0  0  0  0  0  0  0  0  0
   20.1038   -6.6275  -16.8501 C   0  0  0  0  0  0  0  0  0  0  0  0
   18.9135   -5.3268  -17.1685 S   0  0  0  0  0  0  0  0  0  0  0  0
   21.2080   -5.1472  -15.2600 C   0  0  0  0  0  0  0  0  0  0  0  0
   21.2904   -5.5030  -14.0673 O   0  0  0  0  0  0  0  0  0  0  0  0
   20.9018   -3.8299  -15.5521 O   0  0  0  0  0  0  0  0  0  0  0  0
  2  1  1  1
  3  4  1  0
  3  2  1  0
  4 12  1  0
  4  5  2  0
  5  6  1  0
  7  6  1  0
  7  8  2  0
  9  8  1  0
 10  9  2  0
 11 12  2  0
 11 10  1  0
 12  7  1  0
 13  2  1  0
 13 20  1  0
 14 13  2  0
 16 15  1  1
 16 17  1  0
 19 18  1  6
 18 16  1  0
 19 20  1  0
 21 19  1  0
 22 21  2  0
 23 21  1  0
 24 27  1  0
 24 23  1  0
 24 25  1  1
 26 25  1  0
 27 29  1  0
 28 27  2  0
M  END
$$$$
