WLC.pdb
     RDKit          3D

 29 30  0  0  1  0  0  0  0  0999 V2000
   24.5660  -19.1867   -9.6321 N   0  0  0  0  0  0  0  0  0  0  0  0
   25.8285  -19.9187   -9.7114 C   0  0  1  0  0  0  0  0  0  0  0  0
   25.8273  -21.1144   -8.8285 C   0  0  0  0  0  0  0  0  0  0  0  0
   25.7668  -20.8167   -7.3890 C   0  0  0  0  0  0  0  0  0  0  0  0
   24.6765  -21.1508   -6.5804 C   0  0  0  0  0  0  0  0  0  0  0  0
   24.9468  -20.7889   -5.3236 N   0  0  0  0  0  0  0  0  0  0  0  0
   26.1698  -20.2235   -5.2419 C   0  0  0  0  0  0  0  0  0  0  0  0
   26.8754  -19.6930   -4.1858 C   0  0  0  0  0  0  0  0  0  0  0  0
   28.1197  -19.1577   -4.3815 C   0  0  0  0  0  0  0  0  0  0  0  0
   28.6127  -19.1797   -5.6671 C   0  0  0  0  0  0  0  0  0  0  0  0
   27.9314  -19.7030   -6.7422 C   0  0  0  0  0  0  0  0  0  0  0  0
   26.6720  -20.2463   -6.5419 C   0  0  0  0  0  0  0  0  0  0  0  0
   26.1361  -20.1375  -11.1314 C   0  0  0  0  0  0  0  0  0  0  0  0
   25.5321  -19.4824  -12.0338 O   0  0  0  0  0  0  0  0  0  0  0  0
   30.2623  -19.7181  -11.9471 C   0  0  0  0  0  0  0  0  0  0  0  0
   29.9285  -21.2021  -11.8385 C   0  0  2  0  0  0  0  0  0  0  0  0
   31.2686  -21.9319  -11.8465 C   0  0  0  0  0  0  0  0  0  0  0  0
   29.0365  -21.6486  -12.9429 C   0  0  0  0  0  0  0  0  0  0  0  0
   27.6634  -21.0604  -12.9413 C   0  0  2  0  0  0  0  0  0  0  0  0
   27.0966  -21.0619  -11.5931 N   0  0  0  0  0  0  0  0  0  0  0  0
   26.7661  -21.8823  -13.7666 C   0  0  0  0  0  0  0  0  0  0  0  0
   27.0210  -22.0696  -14.9726 O   0  0  0  0  0  0  0  0  0  0  0  0
   25.5980  -22.4847  -13.2408 N   0  0  0  0  0  0  0  0  0  0  0  0
   24.6407  -23.1676  -14.1270 C   0  0  1  0  0  0  0  0  0  0  0  0
   23.8692  -24.1396  -13.2575 C   0  0  0  0  0  0  0  0  0  0  0  0
   22.5275  -24.9524  -14.1233 S   0  0  0  0  0  0  0  0  0  0  0  0
   23.7236  -22.1983  -14.7236 C   0  0  0  0  0  0  0  0  0  0  0  0
   23.2971  -21.2372  -14.0525 O   0  0  0  0  0  0  0  0  0  0  0  0
   23.3182  -22.3359  -16.0393 O   0  0  0  0  0  0  0  0  0  0  0  0
  2  1  1  6
  3  4  1  0
  3  2  1  0
  4 12  1  0
  4  5  2  0
  5  6  1  0
  7  6  1  0
  7  8  2  0
  9  8  1  0
 10  9  2  0
 11 12  2  0
 11 10  1  0
 12  7  1  0
 13  2  1  0
 13 20  1  0
 14 13  2  0
 16 15  1  6
 16 17  1  0
 19 18  1  1
 18 16  1  0
 19 20  1  0
 21 19  1  0
 22 21  2  0
 23 21  1  0
 24 27  1  0
 24 23  1  0
 24 25  1  1
 26 25  1  0
 27 29  1  0
 28 27  2  0
M  END
$$$$
