PFN.pdb
     RDKit          3D

 27 28  0  0  1  0  0  0  0  0999 V2000
    7.1585  -15.3136   19.5199 N   0  0  0  0  0  0  0  0  0  0  0  0
    6.8122  -14.8363   18.1707 C   0  0  0  0  0  0  0  0  0  0  0  0
    7.4003  -13.4696   18.0374 C   0  0  0  0  0  0  0  0  0  0  0  0
    7.8520  -13.1499   19.4480 C   0  0  0  0  0  0  0  0  0  0  0  0
    8.2958  -14.5456   19.9124 C   0  0  1  0  0  0  0  0  0  0  0  0
    8.5776  -14.4767   21.3402 C   0  0  0  0  0  0  0  0  0  0  0  0
    9.7040  -14.0218   21.6876 O   0  0  0  0  0  0  0  0  0  0  0  0
    7.6785  -14.8831   22.3561 N   0  0  0  0  0  0  0  0  0  0  0  0
    7.9955  -14.6424   23.7511 C   0  0  1  0  0  0  0  0  0  0  0  0
    6.7839  -14.1493   24.5130 C   0  0  0  0  0  0  0  0  0  0  0  0
    7.0853  -13.8143   25.9098 C   0  0  0  0  0  0  0  0  0  0  0  0
    7.0653  -14.7595   26.9095 C   0  0  0  0  0  0  0  0  0  0  0  0
    7.3541  -14.4289   28.2331 C   0  0  0  0  0  0  0  0  0  0  0  0
    7.6632  -13.1340   28.5357 C   0  0  0  0  0  0  0  0  0  0  0  0
    7.6939  -12.1594   27.5646 C   0  0  0  0  0  0  0  0  0  0  0  0
    7.4019  -12.5205   26.2581 C   0  0  0  0  0  0  0  0  0  0  0  0
    8.6329  -15.8050   24.4021 C   0  0  0  0  0  0  0  0  0  0  0  0
    8.0230  -16.9022   24.3325 O   0  0  0  0  0  0  0  0  0  0  0  0
   11.2407  -17.7975   23.1437 N   0  0  0  0  0  0  0  0  0  0  0  0
   12.2960  -17.4080   24.0293 C   0  0  0  0  0  0  0  0  0  0  0  0
   13.4779  -17.4721   23.6212 O   0  0  0  0  0  0  0  0  0  0  0  0
   11.9803  -16.9446   25.3875 C   0  0  0  0  0  0  0  0  0  0  0  0
   10.5135  -16.9762   25.6411 C   0  0  2  0  0  0  0  0  0  0  0  0
    9.8666  -15.7717   25.0901 N   0  0  0  0  0  0  0  0  0  0  0  0
   10.2223  -16.9117   27.1002 C   0  0  0  0  0  0  0  0  0  0  0  0
   10.1168  -15.7312   27.7855 O   0  0  0  0  0  0  0  0  0  0  0  0
   10.0524  -17.9670   27.8054 O   0  0  0  0  0  0  0  0  0  0  0  0
  1  5  1  0
  1  2  1  0
  2  3  1  0
  4  3  1  0
  5  4  1  0
  6  8  1  0
  5  6  1  1
  7  6  2  0
  9  8  1  0
 10 11  1  0
  9 10  1  1
 11 12  2  0
 11 16  1  0
 12 13  1  0
 13 14  2  0
 15 14  1  0
 16 15  2  0
 17 18  2  0
 17  9  1  0
 20 19  1  0
 20 22  1  0
 21 20  2  0
 23 22  1  1
 23 24  1  0
 24 17  1  0
 25 23  1  0
 26 25  1  0
 27 25  2  0
M  END
$$$$
