PFN.pdb
     RDKit          3D

 27 28  0  0  1  0  0  0  0  0999 V2000
    7.5555  -15.3263   19.1633 N   0  0  0  0  0  0  0  0  0  0  0  0
    7.2796  -14.8906   17.7842 C   0  0  0  0  0  0  0  0  0  0  0  0
    7.8055  -13.4977   17.6632 C   0  0  0  0  0  0  0  0  0  0  0  0
    8.1416  -13.1311   19.0946 C   0  0  0  0  0  0  0  0  0  0  0  0
    8.6225  -14.4937   19.6167 C   0  0  1  0  0  0  0  0  0  0  0  0
    8.8009  -14.3860   21.0586 C   0  0  0  0  0  0  0  0  0  0  0  0
    9.8859  -13.8883   21.4731 O   0  0  0  0  0  0  0  0  0  0  0  0
    7.8453  -14.7993   22.0186 N   0  0  0  0  0  0  0  0  0  0  0  0
    8.0315  -14.4764   23.4206 C   0  0  1  0  0  0  0  0  0  0  0  0
    6.7416  -13.9952   24.0500 C   0  0  0  0  0  0  0  0  0  0  0  0
    6.9283  -13.4786   25.4110 C   0  0  0  0  0  0  0  0  0  0  0  0
    7.2788  -12.1707   25.6553 C   0  0  0  0  0  0  0  0  0  0  0  0
    7.4528  -11.6914   26.9533 C   0  0  0  0  0  0  0  0  0  0  0  0
    7.2691  -12.5472   28.0010 C   0  0  0  0  0  0  0  0  0  0  0  0
    6.9183  -13.8624   27.7984 C   0  0  0  0  0  0  0  0  0  0  0  0
    6.7529  -14.3079   26.4958 C   0  0  0  0  0  0  0  0  0  0  0  0
    8.6517  -15.5782   24.1842 C   0  0  0  0  0  0  0  0  0  0  0  0
    8.0855  -16.6994   24.1285 O   0  0  0  0  0  0  0  0  0  0  0  0
   13.1914  -15.2915   23.5059 N   0  0  0  0  0  0  0  0  0  0  0  0
   12.4339  -16.4031   23.9963 C   0  0  0  0  0  0  0  0  0  0  0  0
   12.1452  -17.3298   23.2056 O   0  0  0  0  0  0  0  0  0  0  0  0
   12.0115  -16.4393   25.4033 C   0  0  0  0  0  0  0  0  0  0  0  0
   10.5389  -16.6259   25.5198 C   0  0  2  0  0  0  0  0  0  0  0  0
    9.8239  -15.4626   24.9645 N   0  0  0  0  0  0  0  0  0  0  0  0
   10.1171  -16.6659   26.9476 C   0  0  0  0  0  0  0  0  0  0  0  0
    9.2571  -15.7517   27.4943 O   0  0  0  0  0  0  0  0  0  0  0  0
   10.5388  -17.5663   27.7547 O   0  0  0  0  0  0  0  0  0  0  0  0
  1  5  1  0
  1  2  1  0
  2  3  1  0
  4  3  1  0
  5  4  1  0
  6  8  1  0
  5  6  1  1
  7  6  2  0
  9  8  1  0
 10 11  1  0
  9 10  1  1
 11 12  2  0
 11 16  1  0
 12 13  1  0
 13 14  2  0
 15 14  1  0
 16 15  2  0
 17 18  2  0
 17  9  1  0
 20 19  1  0
 20 22  1  0
 21 20  2  0
 23 22  1  1
 23 24  1  0
 24 17  1  0
 25 23  1  0
 26 25  1  0
 27 25  2  0
M  END
$$$$
