PFN.pdb
     RDKit          3D

 27 28  0  0  1  0  0  0  0  0999 V2000
    7.1891  -15.3239   20.1495 N   0  0  0  0  0  0  0  0  0  0  0  0
    6.6171  -14.8032   18.8967 C   0  0  0  0  0  0  0  0  0  0  0  0
    7.2097  -13.4479   18.6878 C   0  0  0  0  0  0  0  0  0  0  0  0
    7.9188  -13.1763   19.9991 C   0  0  0  0  0  0  0  0  0  0  0  0
    8.4000  -14.5939   20.3447 C   0  0  1  0  0  0  0  0  0  0  0  0
    8.9382  -14.5694   21.6983 C   0  0  0  0  0  0  0  0  0  0  0  0
   10.0977  -14.0917   21.8528 O   0  0  0  0  0  0  0  0  0  0  0  0
    8.2519  -15.0421   22.8435 N   0  0  0  0  0  0  0  0  0  0  0  0
    8.8587  -14.9306   24.1564 C   0  0  1  0  0  0  0  0  0  0  0  0
    7.8323  -14.5645   25.2071 C   0  0  0  0  0  0  0  0  0  0  0  0
    8.4297  -14.3015   26.5217 C   0  0  0  0  0  0  0  0  0  0  0  0
    8.6882  -15.3090   27.4225 C   0  0  0  0  0  0  0  0  0  0  0  0
    9.2568  -15.0465   28.6685 C   0  0  0  0  0  0  0  0  0  0  0  0
    9.5612  -13.7561   28.9944 C   0  0  0  0  0  0  0  0  0  0  0  0
    9.3182  -12.7206   28.1213 C   0  0  0  0  0  0  0  0  0  0  0  0
    8.7520  -13.0148   26.8902 C   0  0  0  0  0  0  0  0  0  0  0  0
    9.6409  -16.1269   24.5288 C   0  0  0  0  0  0  0  0  0  0  0  0
    9.0559  -17.2370   24.4515 O   0  0  0  0  0  0  0  0  0  0  0  0
   12.5436  -17.2223   22.6007 N   0  0  0  0  0  0  0  0  0  0  0  0
   13.4693  -16.8091   23.6117 C   0  0  0  0  0  0  0  0  0  0  0  0
   14.4977  -16.1842   23.2662 O   0  0  0  0  0  0  0  0  0  0  0  0
   13.2021  -17.1208   25.0226 C   0  0  0  0  0  0  0  0  0  0  0  0
   11.7484  -17.3375   25.2613 C   0  0  2  0  0  0  0  0  0  0  0  0
   10.9860  -16.1120   24.9613 N   0  0  0  0  0  0  0  0  0  0  0  0
   11.4762  -17.5927   26.7030 C   0  0  0  0  0  0  0  0  0  0  0  0
   11.7546  -16.6799   27.6848 O   0  0  0  0  0  0  0  0  0  0  0  0
   10.9615  -18.6916   27.1122 O   0  0  0  0  0  0  0  0  0  0  0  0
  1  5  1  0
  1  2  1  0
  2  3  1  0
  4  3  1  0
  5  4  1  0
  6  8  1  0
  5  6  1  1
  7  6  2  0
  9  8  1  0
 10 11  1  0
  9 10  1  1
 11 12  2  0
 11 16  1  0
 12 13  1  0
 13 14  2  0
 15 14  1  0
 16 15  2  0
 17 18  2  0
 17  9  1  0
 20 19  1  0
 20 22  1  0
 21 20  2  0
 23 22  1  1
 23 24  1  0
 24 17  1  0
 25 23  1  0
 26 25  1  0
 27 25  2  0
M  END
$$$$
