PFN.pdb
     RDKit          3D

 27 28  0  0  1  0  0  0  0  0999 V2000
    7.7524  -15.3439   19.1719 N   0  0  0  0  0  0  0  0  0  0  0  0
    7.5804  -14.8728   17.7876 C   0  0  0  0  0  0  0  0  0  0  0  0
    8.0721  -13.4627   17.7524 C   0  0  0  0  0  0  0  0  0  0  0  0
    8.2753  -13.1321   19.2172 C   0  0  0  0  0  0  0  0  0  0  0  0
    8.7517  -14.4967   19.7384 C   0  0  1  0  0  0  0  0  0  0  0  0
    8.8048  -14.4296   21.1929 C   0  0  0  0  0  0  0  0  0  0  0  0
    9.8661  -13.9844   21.7144 O   0  0  0  0  0  0  0  0  0  0  0  0
    7.7529  -14.8276   22.0535 N   0  0  0  0  0  0  0  0  0  0  0  0
    7.9247  -14.7684   23.4928 C   0  0  1  0  0  0  0  0  0  0  0  0
    6.6153  -14.4689   24.1909 C   0  0  0  0  0  0  0  0  0  0  0  0
    6.7667  -13.5328   25.3111 C   0  0  0  0  0  0  0  0  0  0  0  0
    8.0011  -13.1579   25.7895 C   0  0  0  0  0  0  0  0  0  0  0  0
    8.1319  -12.2670   26.8544 C   0  0  0  0  0  0  0  0  0  0  0  0
    7.0030  -11.7593   27.4303 C   0  0  0  0  0  0  0  0  0  0  0  0
    5.7503  -12.1093   26.9809 C   0  0  0  0  0  0  0  0  0  0  0  0
    5.6542  -12.9974   25.9203 C   0  0  0  0  0  0  0  0  0  0  0  0
    8.5907  -15.9681   24.0395 C   0  0  0  0  0  0  0  0  0  0  0  0
    8.0450  -17.0772   23.8098 O   0  0  0  0  0  0  0  0  0  0  0  0
   14.2498  -17.6700   25.0429 N   0  0  0  0  0  0  0  0  0  0  0  0
   12.9791  -17.8704   24.4146 C   0  0  0  0  0  0  0  0  0  0  0  0
   12.6993  -19.0081   23.9730 O   0  0  0  0  0  0  0  0  0  0  0  0
   12.0336  -16.7516   24.2985 C   0  0  0  0  0  0  0  0  0  0  0  0
   10.7032  -17.1087   24.8639 C   0  0  2  0  0  0  0  0  0  0  0  0
    9.7850  -15.9576   24.7944 N   0  0  0  0  0  0  0  0  0  0  0  0
   10.8043  -17.4073   26.3194 C   0  0  0  0  0  0  0  0  0  0  0  0
   10.6281  -16.4553   27.2875 O   0  0  0  0  0  0  0  0  0  0  0  0
   11.0650  -18.5833   26.7543 O   0  0  0  0  0  0  0  0  0  0  0  0
  1  5  1  0
  1  2  1  0
  2  3  1  0
  4  3  1  0
  5  4  1  0
  6  8  1  0
  5  6  1  1
  7  6  2  0
  9  8  1  0
 10 11  1  0
  9 10  1  1
 11 12  2  0
 11 16  1  0
 12 13  1  0
 13 14  2  0
 15 14  1  0
 16 15  2  0
 17 18  2  0
 17  9  1  0
 20 19  1  0
 20 22  1  0
 21 20  2  0
 23 22  1  1
 23 24  1  0
 24 17  1  0
 25 23  1  0
 26 25  1  0
 27 25  2  0
M  END
$$$$
