PFN.pdb
     RDKit          3D

 27 28  0  0  1  0  0  0  0  0999 V2000
    7.6703  -15.0952   18.8437 N   0  0  0  0  0  0  0  0  0  0  0  0
    7.4651  -14.6164   17.4666 C   0  0  0  0  0  0  0  0  0  0  0  0
    7.9989  -13.2221   17.4155 C   0  0  0  0  0  0  0  0  0  0  0  0
    8.2630  -12.9009   18.8726 C   0  0  0  0  0  0  0  0  0  0  0  0
    8.7144  -14.2806   19.3759 C   0  0  1  0  0  0  0  0  0  0  0  0
    8.8200  -14.2179   20.8277 C   0  0  0  0  0  0  0  0  0  0  0  0
    9.9461  -13.9160   21.3147 O   0  0  0  0  0  0  0  0  0  0  0  0
    7.7513  -14.4714   21.7217 N   0  0  0  0  0  0  0  0  0  0  0  0
    7.9341  -14.2887   23.1491 C   0  0  1  0  0  0  0  0  0  0  0  0
    6.6964  -13.6990   23.7909 C   0  0  0  0  0  0  0  0  0  0  0  0
    6.8712  -13.4239   25.2219 C   0  0  0  0  0  0  0  0  0  0  0  0
    6.5182  -14.3352   26.1905 C   0  0  0  0  0  0  0  0  0  0  0  0
    6.6897  -14.0622   27.5473 C   0  0  0  0  0  0  0  0  0  0  0  0
    7.2214  -12.8596   27.9147 C   0  0  0  0  0  0  0  0  0  0  0  0
    7.5871  -11.9217   26.9765 C   0  0  0  0  0  0  0  0  0  0  0  0
    7.4038  -12.2236   25.6356 C   0  0  0  0  0  0  0  0  0  0  0  0
    8.3877  -15.5184   23.8300 C   0  0  0  0  0  0  0  0  0  0  0  0
    7.7317  -16.5677   23.6080 O   0  0  0  0  0  0  0  0  0  0  0  0
   12.5730  -19.0492   24.3648 N   0  0  0  0  0  0  0  0  0  0  0  0
   12.3715  -17.9262   25.2297 C   0  0  0  0  0  0  0  0  0  0  0  0
   12.8264  -17.9755   26.3951 O   0  0  0  0  0  0  0  0  0  0  0  0
   11.6424  -16.7469   24.7429 C   0  0  0  0  0  0  0  0  0  0  0  0
   10.1836  -16.8633   25.0172 C   0  0  2  0  0  0  0  0  0  0  0  0
    9.4951  -15.5981   24.7040 N   0  0  0  0  0  0  0  0  0  0  0  0
    9.9282  -17.0677   26.4701 C   0  0  0  0  0  0  0  0  0  0  0  0
    9.7776  -18.3076   27.0310 O   0  0  0  0  0  0  0  0  0  0  0  0
    9.8332  -16.0862   27.2870 O   0  0  0  0  0  0  0  0  0  0  0  0
  1  5  1  0
  1  2  1  0
  2  3  1  0
  4  3  1  0
  5  4  1  0
  6  8  1  0
  5  6  1  1
  7  6  2  0
  9  8  1  0
 10 11  1  0
  9 10  1  1
 11 12  2  0
 11 16  1  0
 12 13  1  0
 13 14  2  0
 15 14  1  0
 16 15  2  0
 17 18  2  0
 17  9  1  0
 20 19  1  0
 20 22  1  0
 21 20  2  0
 23 22  1  1
 23 24  1  0
 24 17  1  0
 25 23  1  0
 26 25  1  0
 27 25  2  0
M  END
$$$$
