PFN.pdb
     RDKit          3D

 27 28  0  0  1  0  0  0  0  0999 V2000
    7.5457  -14.8236   20.0489 N   0  0  0  0  0  0  0  0  0  0  0  0
    7.3462  -13.9902   18.8516 C   0  0  0  0  0  0  0  0  0  0  0  0
    8.0431  -12.6949   19.1121 C   0  0  0  0  0  0  0  0  0  0  0  0
    8.4016  -12.7862   20.5816 C   0  0  0  0  0  0  0  0  0  0  0  0
    8.7014  -14.2889   20.6936 C   0  0  1  0  0  0  0  0  0  0  0  0
    8.8711  -14.6103   22.1045 C   0  0  0  0  0  0  0  0  0  0  0  0
   10.0078  -14.3998   22.6146 O   0  0  0  0  0  0  0  0  0  0  0  0
    7.8532  -15.1391   22.9351 N   0  0  0  0  0  0  0  0  0  0  0  0
    8.1185  -15.4051   24.3363 C   0  0  1  0  0  0  0  0  0  0  0  0
    6.9001  -15.1244   25.1896 C   0  0  0  0  0  0  0  0  0  0  0  0
    6.8370  -13.7339   25.6548 C   0  0  0  0  0  0  0  0  0  0  0  0
    7.9686  -13.0108   25.9547 C   0  0  0  0  0  0  0  0  0  0  0  0
    7.8956  -11.6897   26.3955 C   0  0  0  0  0  0  0  0  0  0  0  0
    6.6681  -11.1075   26.5299 C   0  0  0  0  0  0  0  0  0  0  0  0
    5.5129  -11.7969   26.2401 C   0  0  0  0  0  0  0  0  0  0  0  0
    5.6194  -13.1089   25.8041 C   0  0  0  0  0  0  0  0  0  0  0  0
    8.6669  -16.7569   24.5683 C   0  0  0  0  0  0  0  0  0  0  0  0
    8.4974  -17.6049   23.6557 O   0  0  0  0  0  0  0  0  0  0  0  0
   13.7536  -18.5398   24.1623 N   0  0  0  0  0  0  0  0  0  0  0  0
   12.3283  -18.4427   24.0679 C   0  0  0  0  0  0  0  0  0  0  0  0
   11.7187  -19.2465   23.3264 O   0  0  0  0  0  0  0  0  0  0  0  0
   11.6109  -17.4137   24.8331 C   0  0  0  0  0  0  0  0  0  0  0  0
   10.5589  -18.0184   25.6960 C   0  0  2  0  0  0  0  0  0  0  0  0
    9.3611  -17.1600   25.7311 N   0  0  0  0  0  0  0  0  0  0  0  0
   11.0042  -18.0816   27.1158 C   0  0  0  0  0  0  0  0  0  0  0  0
   10.9730  -16.9990   27.9533 O   0  0  0  0  0  0  0  0  0  0  0  0
   11.4467  -19.1626   27.6406 O   0  0  0  0  0  0  0  0  0  0  0  0
  1  5  1  0
  1  2  1  0
  2  3  1  0
  4  3  1  0
  5  4  1  0
  6  8  1  0
  5  6  1  1
  7  6  2  0
  9  8  1  0
 10 11  1  0
  9 10  1  1
 11 12  2  0
 11 16  1  0
 12 13  1  0
 13 14  2  0
 15 14  1  0
 16 15  2  0
 17 18  2  0
 17  9  1  0
 20 19  1  0
 20 22  1  0
 21 20  2  0
 23 22  1  6
 23 24  1  0
 24 17  1  0
 25 23  1  0
 26 25  1  0
 27 25  2  0
M  END
$$$$
