PFN.pdb
     RDKit          3D

 27 28  0  0  1  0  0  0  0  0999 V2000
    7.2579  -14.9078   20.1124 N   0  0  0  0  0  0  0  0  0  0  0  0
    6.8861  -14.1582   18.9010 C   0  0  0  0  0  0  0  0  0  0  0  0
    7.6185  -12.8577   18.9620 C   0  0  0  0  0  0  0  0  0  0  0  0
    8.1905  -12.8502   20.3652 C   0  0  0  0  0  0  0  0  0  0  0  0
    8.4983  -14.3453   20.5395 C   0  0  1  0  0  0  0  0  0  0  0  0
    8.8741  -14.5687   21.9293 C   0  0  0  0  0  0  0  0  0  0  0  0
   10.0598  -14.2862   22.2620 O   0  0  0  0  0  0  0  0  0  0  0  0
    8.0039  -15.0779   22.9239 N   0  0  0  0  0  0  0  0  0  0  0  0
    8.4866  -15.2966   24.2743 C   0  0  1  0  0  0  0  0  0  0  0  0
    7.3675  -15.1688   25.2857 C   0  0  0  0  0  0  0  0  0  0  0  0
    7.1781  -13.7917   25.7567 C   0  0  0  0  0  0  0  0  0  0  0  0
    8.1944  -13.0728   26.3430 C   0  0  0  0  0  0  0  0  0  0  0  0
    8.0021  -11.7646   26.7861 C   0  0  0  0  0  0  0  0  0  0  0  0
    6.7731  -11.1908   26.6305 C   0  0  0  0  0  0  0  0  0  0  0  0
    5.7312  -11.8764   26.0490 C   0  0  0  0  0  0  0  0  0  0  0  0
    5.9547  -13.1756   25.6190 C   0  0  0  0  0  0  0  0  0  0  0  0
    9.2307  -16.5644   24.4178 C   0  0  0  0  0  0  0  0  0  0  0  0
    8.6701  -17.6056   23.9909 O   0  0  0  0  0  0  0  0  0  0  0  0
   14.6263  -18.9164   25.5278 N   0  0  0  0  0  0  0  0  0  0  0  0
   13.5386  -18.8538   24.5989 C   0  0  0  0  0  0  0  0  0  0  0  0
   13.3207  -19.8412   23.8606 O   0  0  0  0  0  0  0  0  0  0  0  0
   12.7044  -17.6463   24.5264 C   0  0  0  0  0  0  0  0  0  0  0  0
   11.3036  -17.9325   24.9421 C   0  0  2  0  0  0  0  0  0  0  0  0
   10.5145  -16.6885   24.9948 N   0  0  0  0  0  0  0  0  0  0  0  0
   11.2563  -18.4540   26.3362 C   0  0  0  0  0  0  0  0  0  0  0  0
   11.7778  -19.6684   26.6936 O   0  0  0  0  0  0  0  0  0  0  0  0
   10.7194  -17.7906   27.2910 O   0  0  0  0  0  0  0  0  0  0  0  0
  1  5  1  0
  1  2  1  0
  2  3  1  0
  4  3  1  0
  5  4  1  0
  6  8  1  0
  5  6  1  1
  7  6  2  0
  9  8  1  0
 10 11  1  0
  9 10  1  1
 11 12  2  0
 11 16  1  0
 12 13  1  0
 13 14  2  0
 15 14  1  0
 16 15  2  0
 17 18  2  0
 17  9  1  0
 20 19  1  0
 20 22  1  0
 21 20  2  0
 23 22  1  1
 23 24  1  0
 24 17  1  0
 25 23  1  0
 26 25  1  0
 27 25  2  0
M  END
$$$$
