PFN.pdb
     RDKit          3D

 27 28  0  0  1  0  0  0  0  0999 V2000
    7.1870  -14.9901   19.8104 N   0  0  0  0  0  0  0  0  0  0  0  0
    6.8042  -14.2866   18.5749 C   0  0  0  0  0  0  0  0  0  0  0  0
    7.4532  -12.9423   18.6305 C   0  0  0  0  0  0  0  0  0  0  0  0
    7.9836  -12.8744   20.0483 C   0  0  0  0  0  0  0  0  0  0  0  0
    8.3778  -14.3442   20.2600 C   0  0  1  0  0  0  0  0  0  0  0  0
    8.7270  -14.5192   21.6635 C   0  0  0  0  0  0  0  0  0  0  0  0
    9.8788  -14.1464   22.0254 O   0  0  0  0  0  0  0  0  0  0  0  0
    7.8666  -15.0755   22.6413 N   0  0  0  0  0  0  0  0  0  0  0  0
    8.3155  -15.2180   24.0133 C   0  0  1  0  0  0  0  0  0  0  0  0
    7.1568  -15.1272   24.9832 C   0  0  0  0  0  0  0  0  0  0  0  0
    7.0319  -13.8019   25.6011 C   0  0  0  0  0  0  0  0  0  0  0  0
    5.8918  -13.4079   26.2632 C   0  0  0  0  0  0  0  0  0  0  0  0
    5.7854  -12.1459   26.8468 C   0  0  0  0  0  0  0  0  0  0  0  0
    6.8425  -11.2867   26.7545 C   0  0  0  0  0  0  0  0  0  0  0  0
    7.9999  -11.6430   26.1010 C   0  0  0  0  0  0  0  0  0  0  0  0
    8.0741  -12.9050   25.5313 C   0  0  0  0  0  0  0  0  0  0  0  0
    9.1314  -16.4308   24.2256 C   0  0  0  0  0  0  0  0  0  0  0  0
    8.6299  -17.5254   23.8635 O   0  0  0  0  0  0  0  0  0  0  0  0
   14.7396  -18.4669   25.3927 N   0  0  0  0  0  0  0  0  0  0  0  0
   13.5234  -18.5360   24.6405 C   0  0  0  0  0  0  0  0  0  0  0  0
   13.2133  -19.6204   24.0969 O   0  0  0  0  0  0  0  0  0  0  0  0
   12.6676  -17.3477   24.5188 C   0  0  0  0  0  0  0  0  0  0  0  0
   11.2554  -17.6614   24.8716 C   0  0  2  0  0  0  0  0  0  0  0  0
   10.4220  -16.4477   24.8006 N   0  0  0  0  0  0  0  0  0  0  0  0
   11.1441  -18.0980   26.2911 C   0  0  0  0  0  0  0  0  0  0  0  0
   11.5038  -19.3494   26.7141 O   0  0  0  0  0  0  0  0  0  0  0  0
   10.7007  -17.3208   27.2072 O   0  0  0  0  0  0  0  0  0  0  0  0
  1  5  1  0
  1  2  1  0
  2  3  1  0
  4  3  1  0
  5  4  1  0
  6  8  1  0
  5  6  1  1
  7  6  2  0
  9  8  1  0
 10 11  1  0
  9 10  1  1
 11 12  2  0
 11 16  1  0
 12 13  1  0
 13 14  2  0
 15 14  1  0
 16 15  2  0
 17 18  2  0
 17  9  1  0
 20 19  1  0
 20 22  1  0
 21 20  2  0
 23 22  1  1
 23 24  1  0
 24 17  1  0
 25 23  1  0
 26 25  1  0
 27 25  2  0
M  END
$$$$
