NDI.pdb
     RDKit          3D

 25 24  0  0  1  0  0  0  0  0999 V2000
   16.0929  -12.7074  -15.4687 N   0  0  0  0  0  0  0  0  0  0  0  0
   17.0607  -11.8150  -15.9707 C   0  0  0  0  0  0  0  0  0  0  0  0
   17.9236  -12.2706  -16.7928 O   0  0  0  0  0  0  0  0  0  0  0  0
   17.1514  -10.3926  -15.6170 C   0  0  0  0  0  0  0  0  0  0  0  0
   16.0079  -10.0155  -14.6872 C   0  0  2  0  0  0  0  0  0  0  0  0
   14.7924   -9.9333  -15.4400 N   0  0  0  0  0  0  0  0  0  0  0  0
   16.3219   -8.7572  -13.9683 C   0  0  0  0  0  0  0  0  0  0  0  0
   16.0253   -7.6793  -14.5734 O   0  0  0  0  0  0  0  0  0  0  0  0
   16.9155   -8.7204  -12.6857 N   0  0  0  0  0  0  0  0  0  0  0  0
   17.3288   -7.4693  -12.1419 C   0  0  1  0  0  0  0  0  0  0  0  0
   17.3430   -7.4463  -10.6181 C   0  0  0  0  0  0  0  0  0  0  0  0
   17.6665   -6.0929  -10.1534 C   0  0  0  0  0  0  0  0  0  0  0  0
   17.6171   -5.0688  -10.8593 O   0  0  0  0  0  0  0  0  0  0  0  0
   18.6717   -7.0482  -12.6738 C   0  0  0  0  0  0  0  0  0  0  0  0
   19.1587   -5.9697  -12.2459 O   0  0  0  0  0  0  0  0  0  0  0  0
   18.0576   -5.9464   -8.8239 O   0  0  0  0  0  0  0  0  0  0  0  0
   22.8333  -10.4953  -13.5439 C   0  0  0  0  0  0  0  0  0  0  0  0
   21.9873   -9.3191  -13.1058 C   0  0  0  0  0  0  0  0  0  0  0  0
   21.6337   -8.5212  -14.3127 C   0  0  2  0  0  0  0  0  0  0  0  0
   22.9375   -7.9001  -14.8299 C   0  0  0  0  0  0  0  0  0  0  0  0
   20.6750   -7.3991  -14.0630 C   0  0  2  0  0  0  0  0  0  0  0  0
   19.3779   -7.8306  -13.6266 N   0  0  0  0  0  0  0  0  0  0  0  0
   20.5249   -6.6242  -15.3105 C   0  0  0  0  0  0  0  0  0  0  0  0
   19.7107   -6.9790  -16.1922 O   0  0  0  0  0  0  0  0  0  0  0  0
   21.2875   -5.4938  -15.5146 O   0  0  0  0  0  0  0  0  0  0  0  0
  1  2  1  0
  2  4  1  0
  3  2  2  0
  4  5  1  0
  5  7  1  0
  5  6  1  6
  7  8  2  0
  9  7  1  0
  9 10  1  0
 10 14  1  0
 10 11  1  1
 12 11  1  0
 13 12  2  0
 14 15  2  0
 16 12  1  0
 18 17  1  0
 19 18  1  0
 19 21  1  0
 19 20  1  1
 21 23  1  0
 22 14  1  0
 21 22  1  6
 23 25  1  0
 24 23  2  0
M  END
$$$$
