NDI.pdb
     RDKit          3D

 25 24  0  0  1  0  0  0  0  0999 V2000
   30.4939  -22.0523  -19.2057 N   0  0  0  0  0  0  0  0  0  0  0  0
   30.1374  -22.2346  -17.8549 C   0  0  0  0  0  0  0  0  0  0  0  0
   30.6206  -23.2435  -17.2408 O   0  0  0  0  0  0  0  0  0  0  0  0
   29.2471  -21.3465  -17.0966 C   0  0  0  0  0  0  0  0  0  0  0  0
   28.2414  -22.1711  -16.3074 C   0  0  2  0  0  0  0  0  0  0  0  0
   27.3847  -22.8710  -17.2168 N   0  0  0  0  0  0  0  0  0  0  0  0
   27.4912  -21.3056  -15.3658 C   0  0  0  0  0  0  0  0  0  0  0  0
   28.1934  -20.5921  -14.5824 O   0  0  0  0  0  0  0  0  0  0  0  0
   26.0793  -21.2514  -15.3142 N   0  0  0  0  0  0  0  0  0  0  0  0
   25.4463  -20.4047  -14.3580 C   0  0  1  0  0  0  0  0  0  0  0  0
   24.1033  -19.8586  -14.8278 C   0  0  0  0  0  0  0  0  0  0  0  0
   24.3025  -19.0393  -16.0284 C   0  0  0  0  0  0  0  0  0  0  0  0
   25.0851  -18.0746  -16.1081 O   0  0  0  0  0  0  0  0  0  0  0  0
   25.2845  -21.0907  -13.0287 C   0  0  0  0  0  0  0  0  0  0  0  0
   24.8227  -22.2612  -13.0266 O   0  0  0  0  0  0  0  0  0  0  0  0
   23.5598  -19.3677  -17.1608 O   0  0  0  0  0  0  0  0  0  0  0  0
   27.7279  -19.6257   -8.1223 C   0  0  0  0  0  0  0  0  0  0  0  0
   27.2424  -20.5069   -9.2533 C   0  0  0  0  0  0  0  0  0  0  0  0
   25.7636  -20.3629   -9.3574 C   0  0  2  0  0  0  0  0  0  0  0  0
   25.1637  -21.0623   -8.1309 C   0  0  0  0  0  0  0  0  0  0  0  0
   25.1567  -20.9951  -10.5710 C   0  0  2  0  0  0  0  0  0  0  0  0
   25.6367  -20.4520  -11.8094 N   0  0  0  0  0  0  0  0  0  0  0  0
   23.6923  -20.8189  -10.5088 C   0  0  0  0  0  0  0  0  0  0  0  0
   23.1509  -19.7842  -10.9590 O   0  0  0  0  0  0  0  0  0  0  0  0
   22.9039  -21.8019   -9.9494 O   0  0  0  0  0  0  0  0  0  0  0  0
  1  2  1  0
  2  4  1  0
  3  2  2  0
  4  5  1  0
  5  7  1  0
  5  6  1  6
  7  8  2  0
  9  7  1  0
  9 10  1  0
 10 14  1  0
 10 11  1  6
 12 11  1  0
 13 12  2  0
 14 15  2  0
 16 12  1  0
 18 17  1  0
 19 18  1  0
 19 21  1  0
 19 20  1  1
 21 23  1  0
 22 14  1  0
 21 22  1  6
 23 25  1  0
 24 23  2  0
M  END
$$$$
