NDI.pdb
     RDKit          3D

 25 24  0  0  1  0  0  0  0  0999 V2000
   29.2198  -22.7528  -18.2637 N   0  0  0  0  0  0  0  0  0  0  0  0
   29.1826  -22.6236  -16.8612 C   0  0  0  0  0  0  0  0  0  0  0  0
   29.8481  -23.4619  -16.1664 O   0  0  0  0  0  0  0  0  0  0  0  0
   28.4315  -21.5916  -16.1350 C   0  0  0  0  0  0  0  0  0  0  0  0
   27.6828  -20.7060  -17.1195 C   0  0  2  0  0  0  0  0  0  0  0  0
   28.5751  -19.7125  -17.6368 N   0  0  0  0  0  0  0  0  0  0  0  0
   26.4837  -20.1181  -16.4750 C   0  0  0  0  0  0  0  0  0  0  0  0
   26.4962  -18.8569  -16.3170 O   0  0  0  0  0  0  0  0  0  0  0  0
   25.3742  -20.8840  -16.0490 N   0  0  0  0  0  0  0  0  0  0  0  0
   24.2661  -20.2291  -15.4365 C   0  0  1  0  0  0  0  0  0  0  0  0
   23.0462  -20.1261  -16.3443 C   0  0  0  0  0  0  0  0  0  0  0  0
   21.9389  -19.5094  -15.6055 C   0  0  0  0  0  0  0  0  0  0  0  0
   21.9874  -18.3954  -15.0521 O   0  0  0  0  0  0  0  0  0  0  0  0
   23.8840  -20.8818  -14.1359 C   0  0  0  0  0  0  0  0  0  0  0  0
   23.6072  -22.1091  -14.1561 O   0  0  0  0  0  0  0  0  0  0  0  0
   20.7468  -20.2257  -15.5186 O   0  0  0  0  0  0  0  0  0  0  0  0
   26.3855  -20.0923   -9.3662 C   0  0  0  0  0  0  0  0  0  0  0  0
   25.7201  -20.6768  -10.5937 C   0  0  0  0  0  0  0  0  0  0  0  0
   24.2592  -20.3988  -10.5116 C   0  0  2  0  0  0  0  0  0  0  0  0
   23.7265  -21.1845   -9.3065 C   0  0  0  0  0  0  0  0  0  0  0  0
   23.4710  -20.8316  -11.7083 C   0  0  2  0  0  0  0  0  0  0  0  0
   23.8331  -20.1510  -12.9185 N   0  0  0  0  0  0  0  0  0  0  0  0
   22.0393  -20.5942  -11.4378 C   0  0  0  0  0  0  0  0  0  0  0  0
   21.5083  -19.4946  -11.7120 O   0  0  0  0  0  0  0  0  0  0  0  0
   21.2704  -21.5913  -10.8761 O   0  0  0  0  0  0  0  0  0  0  0  0
  1  2  1  0
  2  4  1  0
  3  2  2  0
  4  5  1  0
  5  7  1  0
  5  6  1  1
  7  8  2  0
  9  7  1  0
  9 10  1  0
 10 14  1  0
 10 11  1  6
 12 11  1  0
 13 12  2  0
 14 15  2  0
 16 12  1  0
 18 17  1  0
 19 18  1  0
 19 21  1  0
 19 20  1  1
 21 23  1  0
 22 14  1  0
 21 22  1  6
 23 25  1  0
 24 23  2  0
M  END
$$$$
