NDI.pdb
     RDKit          3D

 25 24  0  0  1  0  0  0  0  0999 V2000
   14.4110  -12.4695  -10.1077 N   0  0  0  0  0  0  0  0  0  0  0  0
   15.4429  -12.1023  -10.9939 C   0  0  0  0  0  0  0  0  0  0  0  0
   16.0999  -13.0354  -11.5648 O   0  0  0  0  0  0  0  0  0  0  0  0
   15.8212  -10.7194  -11.3116 C   0  0  0  0  0  0  0  0  0  0  0  0
   14.9070   -9.7500  -10.5775 C   0  0  2  0  0  0  0  0  0  0  0  0
   13.5846   -9.8430  -11.1194 N   0  0  0  0  0  0  0  0  0  0  0  0
   15.4564   -8.3743  -10.6422 C   0  0  0  0  0  0  0  0  0  0  0  0
   15.3987   -7.8025  -11.7760 O   0  0  0  0  0  0  0  0  0  0  0  0
   16.0184   -7.7071   -9.5295 N   0  0  0  0  0  0  0  0  0  0  0  0
   16.5017   -6.3750   -9.6837 C   0  0  1  0  0  0  0  0  0  0  0  0
   16.1582   -5.4664   -8.5093 C   0  0  0  0  0  0  0  0  0  0  0  0
   14.7255   -5.1520   -8.5383 C   0  0  0  0  0  0  0  0  0  0  0  0
   14.0088   -5.1973   -9.5551 O   0  0  0  0  0  0  0  0  0  0  0  0
   17.9845   -6.3473   -9.9371 C   0  0  0  0  0  0  0  0  0  0  0  0
   18.7485   -6.5942   -8.9683 O   0  0  0  0  0  0  0  0  0  0  0  0
   14.1260   -4.7753   -7.3381 O   0  0  0  0  0  0  0  0  0  0  0  0
   22.1159   -9.0442  -12.6458 C   0  0  0  0  0  0  0  0  0  0  0  0
   21.8162   -7.6100  -12.2656 C   0  0  0  0  0  0  0  0  0  0  0  0
   20.3655   -7.5039  -11.9452 C   0  0  2  0  0  0  0  0  0  0  0  0
   19.6040   -7.7576  -13.2524 C   0  0  0  0  0  0  0  0  0  0  0  0
   19.9338   -6.1658  -11.4315 C   0  0  2  0  0  0  0  0  0  0  0  0
   18.5190   -6.0542  -11.2205 N   0  0  0  0  0  0  0  0  0  0  0  0
   20.3543   -5.1339  -12.3999 C   0  0  0  0  0  0  0  0  0  0  0  0
   21.5606   -4.8248  -12.5249 O   0  0  0  0  0  0  0  0  0  0  0  0
   19.4124   -4.4977  -13.1803 O   0  0  0  0  0  0  0  0  0  0  0  0
  1  2  1  0
  2  4  1  0
  3  2  2  0
  4  5  1  0
  5  7  1  0
  5  6  1  6
  7  8  2  0
  9  7  1  0
  9 10  1  0
 10 14  1  0
 10 11  1  1
 12 11  1  0
 13 12  2  0
 14 15  2  0
 16 12  1  0
 18 17  1  0
 19 18  1  0
 19 21  1  0
 19 20  1  6
 21 23  1  0
 22 14  1  0
 21 22  1  6
 23 25  1  0
 24 23  2  0
M  END
$$$$
