NDI.pdb
     RDKit          3D

 25 24  0  0  1  0  0  0  0  0999 V2000
   28.0742  -21.2575  -18.9849 N   0  0  0  0  0  0  0  0  0  0  0  0
   28.1523  -20.2041  -18.0525 C   0  0  0  0  0  0  0  0  0  0  0  0
   29.1065  -19.3661  -18.1768 O   0  0  0  0  0  0  0  0  0  0  0  0
   27.2134  -19.9971  -16.9425 C   0  0  0  0  0  0  0  0  0  0  0  0
   27.7132  -20.7176  -15.6993 C   0  0  2  0  0  0  0  0  0  0  0  0
   27.6551  -22.1321  -15.9157 N   0  0  0  0  0  0  0  0  0  0  0  0
   26.9398  -20.2886  -14.5092 C   0  0  0  0  0  0  0  0  0  0  0  0
   27.3589  -19.2447  -13.9171 O   0  0  0  0  0  0  0  0  0  0  0  0
   25.7994  -20.9751  -14.0327 N   0  0  0  0  0  0  0  0  0  0  0  0
   25.0828  -20.4510  -12.9174 C   0  0  1  0  0  0  0  0  0  0  0  0
   23.5696  -20.5011  -13.0921 C   0  0  0  0  0  0  0  0  0  0  0  0
   23.1617  -19.5151  -14.0990 C   0  0  0  0  0  0  0  0  0  0  0  0
   23.6903  -18.3990  -14.2551 O   0  0  0  0  0  0  0  0  0  0  0  0
   25.4739  -21.1333  -11.6348 C   0  0  0  0  0  0  0  0  0  0  0  0
   25.4593  -22.3913  -11.6130 O   0  0  0  0  0  0  0  0  0  0  0  0
   22.1048  -19.8559  -14.9407 O   0  0  0  0  0  0  0  0  0  0  0  0
   27.9481  -18.7050   -7.0026 C   0  0  0  0  0  0  0  0  0  0  0  0
   26.8784  -19.0760   -8.0073 C   0  0  0  0  0  0  0  0  0  0  0  0
   27.0112  -20.5265   -8.3186 C   0  0  2  0  0  0  0  0  0  0  0  0
   28.3536  -20.7031   -9.0397 C   0  0  0  0  0  0  0  0  0  0  0  0
   25.9476  -21.0739   -9.2185 C   0  0  2  0  0  0  0  0  0  0  0  0
   25.8494  -20.3963  -10.4795 N   0  0  0  0  0  0  0  0  0  0  0  0
   24.6491  -20.9770   -8.5229 C   0  0  0  0  0  0  0  0  0  0  0  0
   24.4468  -21.5941   -7.4531 O   0  0  0  0  0  0  0  0  0  0  0  0
   23.6412  -20.1989   -9.0518 O   0  0  0  0  0  0  0  0  0  0  0  0
  1  2  1  0
  2  4  1  0
  3  2  2  0
  4  5  1  0
  5  7  1  0
  5  6  1  6
  7  8  2  0
  9  7  1  0
  9 10  1  0
 10 14  1  0
 10 11  1  6
 12 11  1  0
 13 12  2  0
 14 15  2  0
 16 12  1  0
 18 17  1  0
 19 18  1  0
 19 21  1  0
 19 20  1  6
 21 23  1  0
 22 14  1  0
 21 22  1  6
 23 25  1  0
 24 23  2  0
M  END
$$$$
