NDI.pdb
     RDKit          3D

 25 24  0  0  1  0  0  0  0  0999 V2000
   15.7605  -14.0131  -15.2206 N   0  0  0  0  0  0  0  0  0  0  0  0
   17.1518  -13.7943  -15.1832 C   0  0  0  0  0  0  0  0  0  0  0  0
   17.8738  -14.6456  -14.5650 O   0  0  0  0  0  0  0  0  0  0  0  0
   17.8371  -12.6542  -15.8054 C   0  0  0  0  0  0  0  0  0  0  0  0
   16.8173  -11.7153  -16.4321 C   0  0  2  0  0  0  0  0  0  0  0  0
   16.3316  -12.2887  -17.6512 N   0  0  0  0  0  0  0  0  0  0  0  0
   17.4082  -10.3696  -16.6283 C   0  0  0  0  0  0  0  0  0  0  0  0
   17.9225  -10.1463  -17.7692 O   0  0  0  0  0  0  0  0  0  0  0  0
   17.4171   -9.3697  -15.6288 N   0  0  0  0  0  0  0  0  0  0  0  0
   17.9521   -8.0835  -15.9309 C   0  0  1  0  0  0  0  0  0  0  0  0
   16.8860   -7.0057  -16.0879 C   0  0  0  0  0  0  0  0  0  0  0  0
   17.5306   -5.7207  -16.3805 C   0  0  0  0  0  0  0  0  0  0  0  0
   18.4505   -5.5585  -17.2033 O   0  0  0  0  0  0  0  0  0  0  0  0
   18.9716   -7.6520  -14.9121 C   0  0  0  0  0  0  0  0  0  0  0  0
   18.6668   -7.7620  -13.6962 O   0  0  0  0  0  0  0  0  0  0  0  0
   17.0775   -4.6015  -15.6847 O   0  0  0  0  0  0  0  0  0  0  0  0
   23.2498  -10.2980  -14.8946 C   0  0  0  0  0  0  0  0  0  0  0  0
   22.0383   -9.4712  -14.5206 C   0  0  0  0  0  0  0  0  0  0  0  0
   22.4152   -8.0317  -14.5867 C   0  0  2  0  0  0  0  0  0  0  0  0
   23.4749   -7.8017  -13.5016 C   0  0  0  0  0  0  0  0  0  0  0  0
   21.2927   -7.0776  -14.3215 C   0  0  2  0  0  0  0  0  0  0  0  0
   20.2393   -7.1364  -15.2940 N   0  0  0  0  0  0  0  0  0  0  0  0
   21.8394   -5.7066  -14.2931 C   0  0  0  0  0  0  0  0  0  0  0  0
   21.6612   -4.9248  -15.2541 O   0  0  0  0  0  0  0  0  0  0  0  0
   22.5566   -5.2740  -13.1979 O   0  0  0  0  0  0  0  0  0  0  0  0
  1  2  1  0
  2  4  1  0
  3  2  2  0
  4  5  1  0
  5  7  1  0
  5  6  1  6
  7  8  2  0
  9  7  1  0
  9 10  1  0
 10 14  1  0
 10 11  1  1
 12 11  1  0
 13 12  2  0
 14 15  2  0
 16 12  1  0
 18 17  1  0
 19 18  1  0
 19 21  1  0
 19 20  1  1
 21 23  1  0
 22 14  1  0
 21 22  1  6
 23 25  1  0
 24 23  2  0
M  END
$$$$
