NDI.pdb
     RDKit          3D

 25 24  0  0  1  0  0  0  0  0999 V2000
   14.7613  -15.3639  -16.0570 N   0  0  0  0  0  0  0  0  0  0  0  0
   15.6299  -14.9107  -15.0445 C   0  0  0  0  0  0  0  0  0  0  0  0
   15.4706  -15.3777  -13.8678 O   0  0  0  0  0  0  0  0  0  0  0  0
   16.7105  -13.9362  -15.2426 C   0  0  0  0  0  0  0  0  0  0  0  0
   16.6329  -13.3540  -16.6459 C   0  0  2  0  0  0  0  0  0  0  0  0
   17.1197  -14.3179  -17.5866 N   0  0  0  0  0  0  0  0  0  0  0  0
   17.3685  -12.0682  -16.7118 C   0  0  0  0  0  0  0  0  0  0  0  0
   18.5683  -12.1317  -17.1270 O   0  0  0  0  0  0  0  0  0  0  0  0
   16.8014  -10.8267  -16.3429 N   0  0  0  0  0  0  0  0  0  0  0  0
   17.5284   -9.6254  -16.5876 C   0  0  1  0  0  0  0  0  0  0  0  0
   16.6373   -8.3983  -16.7386 C   0  0  0  0  0  0  0  0  0  0  0  0
   17.4619   -7.2362  -17.0880 C   0  0  0  0  0  0  0  0  0  0  0  0
   17.7495   -6.3093  -16.3085 O   0  0  0  0  0  0  0  0  0  0  0  0
   18.5668   -9.3780  -15.5273 C   0  0  0  0  0  0  0  0  0  0  0  0
   18.2692   -9.6644  -14.3387 O   0  0  0  0  0  0  0  0  0  0  0  0
   17.9580   -7.1682  -18.3883 O   0  0  0  0  0  0  0  0  0  0  0  0
   23.9918  -10.7144  -14.0570 C   0  0  0  0  0  0  0  0  0  0  0  0
   22.9713   -9.6178  -13.8395 C   0  0  0  0  0  0  0  0  0  0  0  0
   21.9439   -9.7145  -14.9136 C   0  0  2  0  0  0  0  0  0  0  0  0
   22.6647   -9.4451  -16.2407 C   0  0  0  0  0  0  0  0  0  0  0  0
   20.8281   -8.7227  -14.8041 C   0  0  2  0  0  0  0  0  0  0  0  0
   19.8437   -8.8401  -15.8414 N   0  0  0  0  0  0  0  0  0  0  0  0
   21.4032   -7.3636  -14.8442 C   0  0  0  0  0  0  0  0  0  0  0  0
   21.3478   -6.6740  -15.8870 O   0  0  0  0  0  0  0  0  0  0  0  0
   22.0108   -6.8400  -13.7227 O   0  0  0  0  0  0  0  0  0  0  0  0
  1  2  1  0
  2  4  1  0
  3  2  2  0
  4  5  1  0
  5  7  1  0
  5  6  1  6
  7  8  2  0
  9  7  1  0
  9 10  1  0
 10 14  1  0
 10 11  1  1
 12 11  1  0
 13 12  2  0
 14 15  2  0
 16 12  1  0
 18 17  1  0
 19 18  1  0
 19 21  1  0
 19 20  1  6
 21 23  1  0
 22 14  1  0
 21 22  1  6
 23 25  1  0
 24 23  2  0
M  END
$$$$
