NDI.pdb
     RDKit          3D

 25 24  0  0  1  0  0  0  0  0999 V2000
   28.9552  -21.6258  -16.9659 N   0  0  0  0  0  0  0  0  0  0  0  0
   28.4740  -20.3044  -17.0516 C   0  0  0  0  0  0  0  0  0  0  0  0
   28.4856  -19.7377  -18.1948 O   0  0  0  0  0  0  0  0  0  0  0  0
   27.9573  -19.5263  -15.9185 C   0  0  0  0  0  0  0  0  0  0  0  0
   27.9622  -20.3791  -14.6587 C   0  0  2  0  0  0  0  0  0  0  0  0
   27.5409  -21.7085  -14.9846 N   0  0  0  0  0  0  0  0  0  0  0  0
   27.1215  -19.7535  -13.6097 C   0  0  0  0  0  0  0  0  0  0  0  0
   26.5454  -18.6666  -13.9299 O   0  0  0  0  0  0  0  0  0  0  0  0
   26.9479  -20.3048  -12.3193 N   0  0  0  0  0  0  0  0  0  0  0  0
   25.6812  -20.1925  -11.6754 C   0  0  1  0  0  0  0  0  0  0  0  0
   24.5277  -20.7377  -12.5090 C   0  0  0  0  0  0  0  0  0  0  0  0
   23.2655  -20.5298  -11.7907 C   0  0  0  0  0  0  0  0  0  0  0  0
   23.1468  -19.8765  -10.7378 O   0  0  0  0  0  0  0  0  0  0  0  0
   25.6870  -20.8442  -10.3193 C   0  0  0  0  0  0  0  0  0  0  0  0
   25.7360  -22.1007  -10.2741 O   0  0  0  0  0  0  0  0  0  0  0  0
   22.1172  -21.1073  -12.3290 O   0  0  0  0  0  0  0  0  0  0  0  0
   28.2002  -18.3917   -6.0521 C   0  0  0  0  0  0  0  0  0  0  0  0
   27.7647  -19.3256   -7.1608 C   0  0  0  0  0  0  0  0  0  0  0  0
   26.4315  -19.8859   -6.8045 C   0  0  2  0  0  0  0  0  0  0  0  0
   26.6385  -20.7663   -5.5655 C   0  0  0  0  0  0  0  0  0  0  0  0
   25.8102  -20.7446   -7.8615 C   0  0  2  0  0  0  0  0  0  0  0  0
   25.6395  -20.0807   -9.1220 N   0  0  0  0  0  0  0  0  0  0  0  0
   24.4911  -21.2002   -7.3801 C   0  0  0  0  0  0  0  0  0  0  0  0
   23.4504  -20.5654   -7.6636 O   0  0  0  0  0  0  0  0  0  0  0  0
   24.3956  -22.3384   -6.6078 O   0  0  0  0  0  0  0  0  0  0  0  0
  1  2  1  0
  2  4  1  0
  3  2  2  0
  4  5  1  0
  5  7  1  0
  5  6  1  6
  7  8  2  0
  9  7  1  0
  9 10  1  0
 10 14  1  0
 10 11  1  6
 12 11  1  0
 13 12  2  0
 14 15  2  0
 16 12  1  0
 18 17  1  0
 19 18  1  0
 19 21  1  0
 19 20  1  1
 21 23  1  0
 22 14  1  0
 21 22  1  6
 23 25  1  0
 24 23  2  0
M  END
$$$$
