NDI.pdb
     RDKit          3D

 25 24  0  0  1  0  0  0  0  0999 V2000
   29.4218  -17.6255  -17.9404 N   0  0  0  0  0  0  0  0  0  0  0  0
   28.1593  -17.1112  -17.5845 C   0  0  0  0  0  0  0  0  0  0  0  0
   27.9090  -15.8928  -17.8690 O   0  0  0  0  0  0  0  0  0  0  0  0
   27.1043  -17.8759  -16.9071 C   0  0  0  0  0  0  0  0  0  0  0  0
   27.5616  -19.3105  -16.6902 C   0  0  2  0  0  0  0  0  0  0  0  0
   27.6157  -19.9866  -17.9516 N   0  0  0  0  0  0  0  0  0  0  0  0
   26.6775  -19.9912  -15.7137 C   0  0  0  0  0  0  0  0  0  0  0  0
   25.7614  -20.7229  -16.2049 O   0  0  0  0  0  0  0  0  0  0  0  0
   26.8156  -19.8575  -14.3130 N   0  0  0  0  0  0  0  0  0  0  0  0
   25.9062  -20.5387  -13.4523 C   0  0  1  0  0  0  0  0  0  0  0  0
   26.4432  -20.7387  -12.0401 C   0  0  0  0  0  0  0  0  0  0  0  0
   25.5053  -21.5669  -11.2741 C   0  0  0  0  0  0  0  0  0  0  0  0
   24.5324  -22.1726  -11.7599 O   0  0  0  0  0  0  0  0  0  0  0  0
   24.5690  -19.8510  -13.4001 C   0  0  0  0  0  0  0  0  0  0  0  0
   24.5269  -18.6890  -12.9189 O   0  0  0  0  0  0  0  0  0  0  0  0
   25.7223  -21.6819   -9.9024 O   0  0  0  0  0  0  0  0  0  0  0  0
   20.2713  -17.7990  -16.5238 C   0  0  0  0  0  0  0  0  0  0  0  0
   20.4683  -18.4213  -15.1581 C   0  0  0  0  0  0  0  0  0  0  0  0
   21.7630  -19.1576  -15.1614 C   0  0  2  0  0  0  0  0  0  0  0  0
   21.6114  -20.3146  -16.1572 C   0  0  0  0  0  0  0  0  0  0  0  0
   22.1482  -19.7530  -13.8432 C   0  0  2  0  0  0  0  0  0  0  0  0
   23.3857  -20.4787  -13.8738 N   0  0  0  0  0  0  0  0  0  0  0  0
   21.0717  -20.6645  -13.4078 C   0  0  0  0  0  0  0  0  0  0  0  0
   19.9943  -20.2155  -12.9562 O   0  0  0  0  0  0  0  0  0  0  0  0
   21.2474  -22.0292  -13.4965 O   0  0  0  0  0  0  0  0  0  0  0  0
  1  2  1  0
  2  4  1  0
  3  2  2  0
  4  5  1  0
  5  7  1  0
  5  6  1  6
  7  8  2  0
  9  7  1  0
  9 10  1  0
 10 14  1  0
 10 11  1  1
 12 11  1  0
 13 12  2  0
 14 15  2  0
 16 12  1  0
 18 17  1  0
 19 18  1  0
 19 21  1  0
 19 20  1  6
 21 23  1  0
 22 14  1  0
 21 22  1  6
 23 25  1  0
 24 23  2  0
M  END
$$$$
