CVF.pdb
     RDKit          3D

 25 25  0  0  1  0  0  0  0  0999 V2000
    6.5048  -19.5284   20.3595 N   0  0  0  0  0  0  0  0  0  0  0  0
    6.3542  -18.6853   21.5059 C   0  0  1  0  0  0  0  0  0  0  0  0
    6.4240  -19.4084   22.8275 C   0  0  0  0  0  0  0  0  0  0  0  0
    5.9025  -18.2346   24.1259 S   0  0  0  0  0  0  0  0  0  0  0  0
    7.2902  -17.5448   21.4572 C   0  0  0  0  0  0  0  0  0  0  0  0
    8.5000  -17.7628   21.1655 O   0  0  0  0  0  0  0  0  0  0  0  0
    8.4713  -12.7943   21.3241 C   0  0  0  0  0  0  0  0  0  0  0  0
    7.3148  -13.8059   21.2895 C   0  0  1  0  0  0  0  0  0  0  0  0
    6.7320  -13.7562   19.9191 C   0  0  0  0  0  0  0  0  0  0  0  0
    7.8821  -15.1200   21.6966 C   0  0  2  0  0  0  0  0  0  0  0  0
    6.9297  -16.2095   21.7154 N   0  0  0  0  0  0  0  0  0  0  0  0
    8.6942  -15.0727   22.9358 C   0  0  0  0  0  0  0  0  0  0  0  0
    9.7396  -14.3553   22.9344 O   0  0  0  0  0  0  0  0  0  0  0  0
    8.3923  -15.7642   24.1138 N   0  0  0  0  0  0  0  0  0  0  0  0
    9.1869  -15.6502   25.3471 C   0  0  1  0  0  0  0  0  0  0  0  0
    8.2818  -15.3375   26.5077 C   0  0  0  0  0  0  0  0  0  0  0  0
    7.6251  -14.0209   26.4266 C   0  0  0  0  0  0  0  0  0  0  0  0
    6.2876  -13.8690   26.0988 C   0  0  0  0  0  0  0  0  0  0  0  0
    5.7197  -12.6290   26.0445 C   0  0  0  0  0  0  0  0  0  0  0  0
    6.4670  -11.4918   26.3161 C   0  0  0  0  0  0  0  0  0  0  0  0
    7.8024  -11.6273   26.6447 C   0  0  0  0  0  0  0  0  0  0  0  0
    8.3574  -12.8885   26.6944 C   0  0  0  0  0  0  0  0  0  0  0  0
   10.0046  -16.8462   25.5628 C   0  0  0  0  0  0  0  0  0  0  0  0
    9.8857  -17.8996   24.8494 O   0  0  0  0  0  0  0  0  0  0  0  0
   10.9609  -16.9122   26.5549 O   0  0  0  0  0  0  0  0  0  0  0  0
  2  5  1  0
  2  1  1  6
  3  2  1  0
  4  3  1  0
  5  6  2  0
  8  7  1  6
  8  9  1  0
  8 10  1  0
 10 12  1  0
 10 11  1  1
 11  5  1  0
 12 13  2  0
 12 14  1  0
 14 15  1  0
 15 16  1  1
 15 23  1  0
 17 22  2  0
 17 16  1  0
 18 17  1  0
 19 20  1  0
 19 18  2  0
 20 21  2  0
 21 22  1  0
 23 25  1  0
 24 23  2  0
M  END
$$$$
