CVF.pdb
     RDKit          3D

 25 25  0  0  1  0  0  0  0  0999 V2000
   12.3629  -16.4210   18.2648 N   0  0  0  0  0  0  0  0  0  0  0  0
   11.0226  -16.7016   18.6801 C   0  0  1  0  0  0  0  0  0  0  0  0
   10.7673  -18.1448   19.0359 C   0  0  0  0  0  0  0  0  0  0  0  0
   11.7611  -18.5307   20.5189 S   0  0  0  0  0  0  0  0  0  0  0  0
   10.5953  -15.7892   19.7591 C   0  0  0  0  0  0  0  0  0  0  0  0
   11.4791  -15.1960   20.4397 O   0  0  0  0  0  0  0  0  0  0  0  0
    7.4447  -13.2092   19.7718 C   0  0  0  0  0  0  0  0  0  0  0  0
    7.4846  -14.0819   21.0363 C   0  0  1  0  0  0  0  0  0  0  0  0
    6.4142  -15.1084   20.8924 C   0  0  0  0  0  0  0  0  0  0  0  0
    8.8702  -14.6130   21.1475 C   0  0  2  0  0  0  0  0  0  0  0  0
    9.2538  -15.5258   20.0920 N   0  0  0  0  0  0  0  0  0  0  0  0
    9.2111  -15.1428   22.4892 C   0  0  0  0  0  0  0  0  0  0  0  0
    9.3874  -16.3929   22.6075 O   0  0  0  0  0  0  0  0  0  0  0  0
    9.3540  -14.3630   23.6418 N   0  0  0  0  0  0  0  0  0  0  0  0
    9.6549  -14.9244   24.9684 C   0  0  1  0  0  0  0  0  0  0  0  0
    9.2806  -13.9330   26.0365 C   0  0  0  0  0  0  0  0  0  0  0  0
    9.6521  -14.3441   27.4019 C   0  0  0  0  0  0  0  0  0  0  0  0
    9.1809  -15.5070   27.9893 C   0  0  0  0  0  0  0  0  0  0  0  0
    9.5595  -15.8519   29.2545 C   0  0  0  0  0  0  0  0  0  0  0  0
   10.4247  -15.0474   29.9823 C   0  0  0  0  0  0  0  0  0  0  0  0
   10.9033  -13.8843   29.4098 C   0  0  0  0  0  0  0  0  0  0  0  0
   10.5090  -13.5535   28.1306 C   0  0  0  0  0  0  0  0  0  0  0  0
    9.0164  -16.2303   25.1481 C   0  0  0  0  0  0  0  0  0  0  0  0
    7.7758  -16.4283   24.9147 O   0  0  0  0  0  0  0  0  0  0  0  0
    9.7173  -17.3363   25.5827 O   0  0  0  0  0  0  0  0  0  0  0  0
  2  5  1  0
  2  1  1  1
  3  2  1  0
  4  3  1  0
  5  6  2  0
  8  7  1  6
  8  9  1  0
  8 10  1  0
 10 12  1  0
 10 11  1  6
 11  5  1  0
 12 13  2  0
 12 14  1  0
 14 15  1  0
 15 16  1  1
 15 23  1  0
 17 22  2  0
 17 16  1  0
 18 17  1  0
 19 20  1  0
 19 18  2  0
 20 21  2  0
 21 22  1  0
 23 25  1  0
 24 23  2  0
M  END
$$$$
