CVF.pdb
     RDKit          3D

 25 25  0  0  1  0  0  0  0  0999 V2000
    6.1261  -19.7737   21.8616 N   0  0  0  0  0  0  0  0  0  0  0  0
    5.8761  -18.4293   22.2832 C   0  0  1  0  0  0  0  0  0  0  0  0
    5.2626  -18.3082   23.6556 C   0  0  0  0  0  0  0  0  0  0  0  0
    6.3988  -19.1098   24.8398 S   0  0  0  0  0  0  0  0  0  0  0  0
    7.0857  -17.5937   22.1500 C   0  0  0  0  0  0  0  0  0  0  0  0
    8.2187  -18.1494   22.2111 O   0  0  0  0  0  0  0  0  0  0  0  0
    6.6070  -13.9647   20.8425 C   0  0  0  0  0  0  0  0  0  0  0  0
    8.0986  -14.0864   21.1924 C   0  0  1  0  0  0  0  0  0  0  0  0
    8.4499  -12.9014   22.0248 C   0  0  0  0  0  0  0  0  0  0  0  0
    8.2780  -15.4081   21.8521 C   0  0  2  0  0  0  0  0  0  0  0  0
    7.0713  -16.2001   21.9561 N   0  0  0  0  0  0  0  0  0  0  0  0
    9.0150  -15.3500   23.1369 C   0  0  0  0  0  0  0  0  0  0  0  0
   10.1345  -14.7549   23.1537 O   0  0  0  0  0  0  0  0  0  0  0  0
    8.5658  -15.9056   24.3396 N   0  0  0  0  0  0  0  0  0  0  0  0
    9.2572  -15.7222   25.6256 C   0  0  1  0  0  0  0  0  0  0  0  0
    8.2460  -15.5354   26.7240 C   0  0  0  0  0  0  0  0  0  0  0  0
    7.4554  -14.2967   26.6158 C   0  0  0  0  0  0  0  0  0  0  0  0
    7.9873  -13.0430   26.8702 C   0  0  0  0  0  0  0  0  0  0  0  0
    7.2185  -11.9217   26.7483 C   0  0  0  0  0  0  0  0  0  0  0  0
    5.8872  -12.0099   26.3670 C   0  0  0  0  0  0  0  0  0  0  0  0
    5.3425  -13.2536   26.1096 C   0  0  0  0  0  0  0  0  0  0  0  0
    6.1357  -14.3742   26.2382 C   0  0  0  0  0  0  0  0  0  0  0  0
   10.1914  -16.8199   25.8860 C   0  0  0  0  0  0  0  0  0  0  0  0
   10.2434  -17.8677   25.1565 O   0  0  0  0  0  0  0  0  0  0  0  0
   11.0802  -16.7925   26.9408 O   0  0  0  0  0  0  0  0  0  0  0  0
  2  5  1  0
  2  1  1  1
  3  2  1  0
  4  3  1  0
  5  6  2  0
  8  7  1  1
  8  9  1  0
  8 10  1  0
 10 12  1  0
 10 11  1  1
 11  5  1  0
 12 13  2  0
 12 14  1  0
 14 15  1  0
 15 16  1  1
 15 23  1  0
 17 22  2  0
 17 16  1  0
 18 17  1  0
 19 20  1  0
 19 18  2  0
 20 21  2  0
 21 22  1  0
 23 25  1  0
 24 23  2  0
M  END
$$$$
