CVF.pdb
     RDKit          3D

 25 25  0  0  1  0  0  0  0  0999 V2000
    7.1011  -19.9441   20.2344 N   0  0  0  0  0  0  0  0  0  0  0  0
    6.6548  -18.8912   21.0945 C   0  0  1  0  0  0  0  0  0  0  0  0
    6.3934  -19.3149   22.5181 C   0  0  0  0  0  0  0  0  0  0  0  0
    7.3939  -20.8084   22.8409 S   0  0  0  0  0  0  0  0  0  0  0  0
    7.5602  -17.7271   21.0286 C   0  0  0  0  0  0  0  0  0  0  0  0
    8.7891  -17.9239   20.8114 O   0  0  0  0  0  0  0  0  0  0  0  0
    6.3199  -13.6996   21.7484 C   0  0  0  0  0  0  0  0  0  0  0  0
    7.4690  -13.9779   20.7664 C   0  0  1  0  0  0  0  0  0  0  0  0
    8.3828  -12.8021   20.8192 C   0  0  0  0  0  0  0  0  0  0  0  0
    8.0729  -15.2767   21.1697 C   0  0  2  0  0  0  0  0  0  0  0  0
    7.1499  -16.3911   21.1919 N   0  0  0  0  0  0  0  0  0  0  0  0
    8.8891  -15.2088   22.4052 C   0  0  0  0  0  0  0  0  0  0  0  0
    9.8958  -14.4379   22.4109 O   0  0  0  0  0  0  0  0  0  0  0  0
    8.6309  -15.9354   23.5724 N   0  0  0  0  0  0  0  0  0  0  0  0
    9.4638  -15.8485   24.7824 C   0  0  1  0  0  0  0  0  0  0  0  0
    9.6593  -14.4057   25.1621 C   0  0  0  0  0  0  0  0  0  0  0  0
    8.4681  -13.7664   25.7482 C   0  0  0  0  0  0  0  0  0  0  0  0
    8.5466  -12.7891   26.7270 C   0  0  0  0  0  0  0  0  0  0  0  0
    7.4154  -12.2184   27.2346 C   0  0  0  0  0  0  0  0  0  0  0  0
    6.1607  -12.6025   26.7832 C   0  0  0  0  0  0  0  0  0  0  0  0
    6.0663  -13.5760   25.8070 C   0  0  0  0  0  0  0  0  0  0  0  0
    7.2208  -14.1402   25.3069 C   0  0  0  0  0  0  0  0  0  0  0  0
    8.9059  -16.6574   25.8687 C   0  0  0  0  0  0  0  0  0  0  0  0
    7.7875  -17.2673   25.7688 O   0  0  0  0  0  0  0  0  0  0  0  0
    9.5558  -16.8138   27.0755 O   0  0  0  0  0  0  0  0  0  0  0  0
  2  5  1  0
  2  1  1  6
  3  2  1  0
  4  3  1  0
  5  6  2  0
  8  7  1  1
  8  9  1  0
  8 10  1  0
 10 12  1  0
 10 11  1  1
 11  5  1  0
 12 13  2  0
 12 14  1  0
 14 15  1  0
 15 16  1  1
 15 23  1  0
 17 22  2  0
 17 16  1  0
 18 17  1  0
 19 20  1  0
 19 18  2  0
 20 21  2  0
 21 22  1  0
 23 25  1  0
 24 23  2  0
M  END
$$$$
