CVF.pdb
     RDKit          3D

 25 25  0  0  1  0  0  0  0  0999 V2000
    6.6080  -19.8736   21.0171 N   0  0  0  0  0  0  0  0  0  0  0  0
    6.0684  -18.6357   21.4905 C   0  0  1  0  0  0  0  0  0  0  0  0
    5.2701  -18.7482   22.7651 C   0  0  0  0  0  0  0  0  0  0  0  0
    6.3875  -19.3873   24.0606 S   0  0  0  0  0  0  0  0  0  0  0  0
    7.1154  -17.6000   21.5915 C   0  0  0  0  0  0  0  0  0  0  0  0
    8.3264  -17.9595   21.6138 O   0  0  0  0  0  0  0  0  0  0  0  0
    8.7436  -12.9731   21.3174 C   0  0  0  0  0  0  0  0  0  0  0  0
    7.5054  -13.8768   21.2065 C   0  0  1  0  0  0  0  0  0  0  0  0
    7.0433  -13.8125   19.7914 C   0  0  0  0  0  0  0  0  0  0  0  0
    7.9140  -15.2250   21.6859 C   0  0  2  0  0  0  0  0  0  0  0  0
    6.8615  -16.2180   21.6657 N   0  0  0  0  0  0  0  0  0  0  0  0
    8.6415  -15.2150   22.9774 C   0  0  0  0  0  0  0  0  0  0  0  0
    9.7375  -14.5803   23.0374 O   0  0  0  0  0  0  0  0  0  0  0  0
    8.2074  -15.8571   24.1420 N   0  0  0  0  0  0  0  0  0  0  0  0
    8.8606  -15.6920   25.4503 C   0  0  1  0  0  0  0  0  0  0  0  0
    7.8223  -15.4290   26.5071 C   0  0  0  0  0  0  0  0  0  0  0  0
    7.2567  -14.0687   26.4758 C   0  0  0  0  0  0  0  0  0  0  0  0
    8.0234  -12.9330   26.6801 C   0  0  0  0  0  0  0  0  0  0  0  0
    7.4572  -11.6919   26.6330 C   0  0  0  0  0  0  0  0  0  0  0  0
    6.1017  -11.5375   26.3797 C   0  0  0  0  0  0  0  0  0  0  0  0
    5.3239  -12.6610   26.1737 C   0  0  0  0  0  0  0  0  0  0  0  0
    5.9147  -13.9058   26.2251 C   0  0  0  0  0  0  0  0  0  0  0  0
    9.7194  -16.8369   25.7618 C   0  0  0  0  0  0  0  0  0  0  0  0
    9.7201  -17.9073   25.0639 O   0  0  0  0  0  0  0  0  0  0  0  0
   10.5875  -16.8329   26.8340 O   0  0  0  0  0  0  0  0  0  0  0  0
  2  5  1  0
  2  1  1  1
  3  2  1  0
  4  3  1  0
  5  6  2  0
  8  7  1  6
  8  9  1  0
  8 10  1  0
 10 12  1  0
 10 11  1  1
 11  5  1  0
 12 13  2  0
 12 14  1  0
 14 15  1  0
 15 16  1  1
 15 23  1  0
 17 22  2  0
 17 16  1  0
 18 17  1  0
 19 20  1  0
 19 18  2  0
 20 21  2  0
 21 22  1  0
 23 25  1  0
 24 23  2  0
M  END
$$$$
