CVF.pdb
     RDKit          3D

 25 25  0  0  1  0  0  0  0  0999 V2000
    6.3457  -15.3780   19.6547 N   0  0  0  0  0  0  0  0  0  0  0  0
    7.3743  -14.7044   20.3868 C   0  0  1  0  0  0  0  0  0  0  0  0
    7.0320  -13.2922   20.7906 C   0  0  0  0  0  0  0  0  0  0  0  0
    8.5489  -12.5283   21.4624 S   0  0  0  0  0  0  0  0  0  0  0  0
    7.8236  -15.5086   21.5402 C   0  0  0  0  0  0  0  0  0  0  0  0
    6.9711  -16.1924   22.1741 O   0  0  0  0  0  0  0  0  0  0  0  0
   10.9983  -18.4751   23.5307 C   0  0  0  0  0  0  0  0  0  0  0  0
   10.7039  -17.4479   22.4259 C   0  0  1  0  0  0  0  0  0  0  0  0
   10.3813  -18.2159   21.1904 C   0  0  0  0  0  0  0  0  0  0  0  0
    9.6165  -16.5693   22.9359 C   0  0  2  0  0  0  0  0  0  0  0  0
    9.1539  -15.5723   21.9944 N   0  0  0  0  0  0  0  0  0  0  0  0
    9.8834  -15.9873   24.2728 C   0  0  0  0  0  0  0  0  0  0  0  0
   10.7720  -15.0873   24.3627 O   0  0  0  0  0  0  0  0  0  0  0  0
    9.2247  -16.3583   25.4498 N   0  0  0  0  0  0  0  0  0  0  0  0
    9.5646  -15.8155   26.7747 C   0  0  1  0  0  0  0  0  0  0  0  0
    8.3138  -15.3495   27.4691 C   0  0  0  0  0  0  0  0  0  0  0  0
    7.6772  -14.1749   26.8474 C   0  0  0  0  0  0  0  0  0  0  0  0
    6.5375  -14.2660   26.0651 C   0  0  0  0  0  0  0  0  0  0  0  0
    5.9774  -13.1487   25.5165 C   0  0  0  0  0  0  0  0  0  0  0  0
    6.5350  -11.8958   25.7288 C   0  0  0  0  0  0  0  0  0  0  0  0
    7.6718  -11.7890   26.5071 C   0  0  0  0  0  0  0  0  0  0  0  0
    8.2224  -12.9295   27.0525 C   0  0  0  0  0  0  0  0  0  0  0  0
   10.3320  -16.7829   27.5625 C   0  0  0  0  0  0  0  0  0  0  0  0
   10.8798  -16.4833   28.6774 O   0  0  0  0  0  0  0  0  0  0  0  0
   10.5132  -18.0867   27.1495 O   0  0  0  0  0  0  0  0  0  0  0  0
  2  5  1  0
  2  1  1  1
  3  2  1  0
  4  3  1  0
  5  6  2  0
  8  7  1  1
  8  9  1  0
  8 10  1  0
 10 12  1  0
 10 11  1  6
 11  5  1  0
 12 13  2  0
 12 14  1  0
 14 15  1  0
 15 16  1  1
 15 23  1  0
 17 22  2  0
 17 16  1  0
 18 17  1  0
 19 20  1  0
 19 18  2  0
 20 21  2  0
 21 22  1  0
 23 25  1  0
 24 23  2  0
M  END
$$$$
