CVF.pdb
     RDKit          3D

 25 25  0  0  1  0  0  0  0  0999 V2000
   11.3220  -17.0330   18.1027 N   0  0  0  0  0  0  0  0  0  0  0  0
   10.4350  -17.6630   19.0321 C   0  0  1  0  0  0  0  0  0  0  0  0
   10.8384  -19.0597   19.4332 C   0  0  0  0  0  0  0  0  0  0  0  0
    9.5342  -19.7164   20.5303 S   0  0  0  0  0  0  0  0  0  0  0  0
   10.1959  -16.8044   20.2089 C   0  0  0  0  0  0  0  0  0  0  0  0
   11.1894  -16.3772   20.8621 O   0  0  0  0  0  0  0  0  0  0  0  0
    7.3874  -14.1794   23.2772 C   0  0  0  0  0  0  0  0  0  0  0  0
    7.4343  -14.8933   21.9170 C   0  0  1  0  0  0  0  0  0  0  0  0
    7.2605  -13.8483   20.8691 C   0  0  0  0  0  0  0  0  0  0  0  0
    8.7203  -15.6406   21.8689 C   0  0  2  0  0  0  0  0  0  0  0  0
    8.9220  -16.4190   20.6656 N   0  0  0  0  0  0  0  0  0  0  0  0
    9.0121  -16.4256   23.0919 C   0  0  0  0  0  0  0  0  0  0  0  0
    8.4207  -17.5373   23.2399 O   0  0  0  0  0  0  0  0  0  0  0  0
    9.8961  -16.0298   24.1013 N   0  0  0  0  0  0  0  0  0  0  0  0
   10.2489  -16.8802   25.2493 C   0  0  1  0  0  0  0  0  0  0  0  0
   11.2467  -16.1679   26.1216 C   0  0  0  0  0  0  0  0  0  0  0  0
   10.6478  -15.2221   27.0797 C   0  0  0  0  0  0  0  0  0  0  0  0
    9.9885  -14.0699   26.6834 C   0  0  0  0  0  0  0  0  0  0  0  0
    9.4412  -13.2271   27.6072 C   0  0  0  0  0  0  0  0  0  0  0  0
    9.5317  -13.5034   28.9640 C   0  0  0  0  0  0  0  0  0  0  0  0
   10.1862  -14.6491   29.3748 C   0  0  0  0  0  0  0  0  0  0  0  0
   10.7321  -15.4877   28.4261 C   0  0  0  0  0  0  0  0  0  0  0  0
    9.0529  -17.3095   25.9778 C   0  0  0  0  0  0  0  0  0  0  0  0
    7.9060  -16.7772   25.7934 O   0  0  0  0  0  0  0  0  0  0  0  0
    9.0880  -18.3218   26.9144 O   0  0  0  0  0  0  0  0  0  0  0  0
  2  5  1  0
  2  1  1  6
  3  2  1  0
  4  3  1  0
  5  6  2  0
  8  7  1  1
  8  9  1  0
  8 10  1  0
 10 12  1  0
 10 11  1  6
 11  5  1  0
 12 13  2  0
 12 14  1  0
 14 15  1  0
 15 16  1  1
 15 23  1  0
 17 22  2  0
 17 16  1  0
 18 17  1  0
 19 20  1  0
 19 18  2  0
 20 21  2  0
 21 22  1  0
 23 25  1  0
 24 23  2  0
M  END
$$$$
