CVF.pdb
     RDKit          3D

 25 25  0  0  1  0  0  0  0  0999 V2000
    6.8850  -19.4115   20.3994 N   0  0  0  0  0  0  0  0  0  0  0  0
    6.4147  -18.4624   21.3614 C   0  0  1  0  0  0  0  0  0  0  0  0
    6.0907  -19.0493   22.7123 C   0  0  0  0  0  0  0  0  0  0  0  0
    4.4784  -19.8960   22.5729 S   0  0  0  0  0  0  0  0  0  0  0  0
    7.3340  -17.3127   21.4717 C   0  0  0  0  0  0  0  0  0  0  0  0
    8.5740  -17.5329   21.5723 O   0  0  0  0  0  0  0  0  0  0  0  0
    8.5732  -12.5956   21.1412 C   0  0  0  0  0  0  0  0  0  0  0  0
    7.4262  -13.6018   20.9568 C   0  0  1  0  0  0  0  0  0  0  0  0
    7.1656  -13.7035   19.4933 C   0  0  0  0  0  0  0  0  0  0  0  0
    7.8517  -14.8638   21.6206 C   0  0  2  0  0  0  0  0  0  0  0  0
    6.9258  -15.9662   21.4727 N   0  0  0  0  0  0  0  0  0  0  0  0
    8.2891  -14.6924   23.0265 C   0  0  0  0  0  0  0  0  0  0  0  0
    7.8137  -13.7168   23.6822 O   0  0  0  0  0  0  0  0  0  0  0  0
    9.1922  -15.5310   23.6884 N   0  0  0  0  0  0  0  0  0  0  0  0
    9.5466  -15.3805   25.1087 C   0  0  1  0  0  0  0  0  0  0  0  0
    8.3031  -15.4503   25.9529 C   0  0  0  0  0  0  0  0  0  0  0  0
    7.6654  -14.1454   26.2016 C   0  0  0  0  0  0  0  0  0  0  0  0
    6.2942  -13.9571   26.1409 C   0  0  0  0  0  0  0  0  0  0  0  0
    5.7472  -12.7312   26.3878 C   0  0  0  0  0  0  0  0  0  0  0  0
    6.5501  -11.6448   26.7053 C   0  0  0  0  0  0  0  0  0  0  0  0
    7.9197  -11.8171   26.7698 C   0  0  0  0  0  0  0  0  0  0  0  0
    8.4528  -13.0634   26.5173 C   0  0  0  0  0  0  0  0  0  0  0  0
   10.5657  -16.3546   25.5064 C   0  0  0  0  0  0  0  0  0  0  0  0
   11.0771  -16.3773   26.6772 O   0  0  0  0  0  0  0  0  0  0  0  0
   11.0409  -17.3155   24.6380 O   0  0  0  0  0  0  0  0  0  0  0  0
  2  5  1  0
  2  1  1  6
  3  2  1  0
  4  3  1  0
  5  6  2  0
  8  7  1  6
  8  9  1  0
  8 10  1  0
 10 12  1  0
 10 11  1  1
 11  5  1  0
 12 13  2  0
 12 14  1  0
 14 15  1  0
 15 16  1  1
 15 23  1  0
 17 22  2  0
 17 16  1  0
 18 17  1  0
 19 20  1  0
 19 18  2  0
 20 21  2  0
 21 22  1  0
 23 25  1  0
 24 23  2  0
M  END
$$$$
