SYW.pdb
     RDKit          3D

 33 35  0  0  1  0  0  0  0  0999 V2000
    6.5592  -19.7989   24.5046 O   0  0  0  0  0  0  0  0  0  0  0  0
    6.9282  -20.7179   23.5361 C   0  0  0  0  0  0  0  0  0  0  0  0
    6.5254  -20.1801   22.1825 C   0  0  2  0  0  0  0  0  0  0  0  0
    7.1287  -21.1066   21.2096 N   0  0  0  0  0  0  0  0  0  0  0  0
    7.1578  -18.8656   21.9868 C   0  0  0  0  0  0  0  0  0  0  0  0
    8.3757  -18.8261   21.6825 O   0  0  0  0  0  0  0  0  0  0  0  0
    9.0808  -11.7457   17.8693 O   0  0  0  0  0  0  0  0  0  0  0  0
    8.3854  -12.6361   18.7078 C   0  0  0  0  0  0  0  0  0  0  0  0
    8.2161  -13.9595   18.3758 C   0  0  0  0  0  0  0  0  0  0  0  0
    7.5325  -14.8164   19.2083 C   0  0  0  0  0  0  0  0  0  0  0  0
    6.9909  -14.3825   20.4071 C   0  0  0  0  0  0  0  0  0  0  0  0
    6.2814  -15.3728   21.2211 C   0  0  0  0  0  0  0  0  0  0  0  0
    7.1742  -16.4090   21.8663 C   0  0  2  0  0  0  0  0  0  0  0  0
    6.4934  -17.6218   22.1138 N   0  0  0  0  0  0  0  0  0  0  0  0
    7.8803  -15.9319   23.0486 C   0  0  0  0  0  0  0  0  0  0  0  0
    7.4520  -15.0184   23.8146 O   0  0  0  0  0  0  0  0  0  0  0  0
    7.1498  -13.0634   20.7562 C   0  0  0  0  0  0  0  0  0  0  0  0
    7.8347  -12.2324   19.9086 C   0  0  0  0  0  0  0  0  0  0  0  0
    9.1332  -16.4884   23.4180 N   0  0  0  0  0  0  0  0  0  0  0  0
    9.9505  -15.9125   24.4897 C   0  0  1  0  0  0  0  0  0  0  0  0
    9.1610  -16.1437   25.7459 C   0  0  0  0  0  0  0  0  0  0  0  0
    7.9747  -15.3022   25.9401 C   0  0  0  0  0  0  0  0  0  0  0  0
    6.6490  -15.7369   26.0292 C   0  0  0  0  0  0  0  0  0  0  0  0
    5.8135  -14.7098   26.1756 N   0  0  0  0  0  0  0  0  0  0  0  0
    6.5398  -13.5815   26.1893 C   0  0  0  0  0  0  0  0  0  0  0  0
    6.1780  -12.2616   26.3283 C   0  0  0  0  0  0  0  0  0  0  0  0
    7.1146  -11.2535   26.3306 C   0  0  0  0  0  0  0  0  0  0  0  0
    8.4472  -11.5817   26.1898 C   0  0  0  0  0  0  0  0  0  0  0  0
    8.7847  -12.8994   26.0524 C   0  0  0  0  0  0  0  0  0  0  0  0
    7.8684  -13.9272   26.0460 C   0  0  0  0  0  0  0  0  0  0  0  0
   11.2994  -16.4234   24.5136 C   0  0  0  0  0  0  0  0  0  0  0  0
   11.7111  -17.4033   23.6255 O   0  0  0  0  0  0  0  0  0  0  0  0
   12.1689  -16.0169   25.3358 O   0  0  0  0  0  0  0  0  0  0  0  0
  2  1  1  0
  3  4  1  6
  3  2  1  0
  5  3  1  0
  6  5  2  0
  8  7  1  0
  8 18  2  0
  9  8  1  0
 10  9  2  0
 10 11  1  0
 11 17  2  0
 12 11  1  0
 13 12  1  1
 13 14  1  0
 14  5  1  0
 15 19  1  0
 15 13  1  0
 16 15  2  0
 17 18  1  0
 20 21  1  1
 20 31  1  0
 20 19  1  0
 22 23  2  0
 22 21  1  0
 24 23  1  0
 25 30  2  0
 25 24  1  0
 26 25  1  0
 27 28  1  0
 27 26  2  0
 28 29  2  0
 29 30  1  0
 30 22  1  0
 31 32  1  0
 33 31  2  0
M  END
$$$$
