SYW.pdb
     RDKit          3D

 33 35  0  0  1  0  0  0  0  0999 V2000
    8.6738  -14.5001   20.5598 O   0  0  0  0  0  0  0  0  0  0  0  0
    7.3481  -14.7679   20.2606 C   0  0  0  0  0  0  0  0  0  0  0  0
    7.1390  -16.2642   20.2938 C   0  0  2  0  0  0  0  0  0  0  0  0
    5.7338  -16.4612   19.8991 N   0  0  0  0  0  0  0  0  0  0  0  0
    7.2741  -16.7316   21.6828 C   0  0  0  0  0  0  0  0  0  0  0  0
    6.2872  -16.6193   22.4513 O   0  0  0  0  0  0  0  0  0  0  0  0
    7.9631  -21.3657   28.8846 O   0  0  0  0  0  0  0  0  0  0  0  0
    8.1625  -20.8387   27.5954 C   0  0  0  0  0  0  0  0  0  0  0  0
    7.1140  -20.6181   26.7339 C   0  0  0  0  0  0  0  0  0  0  0  0
    7.3277  -20.1021   25.4760 C   0  0  0  0  0  0  0  0  0  0  0  0
    8.6005  -19.7859   25.0299 C   0  0  0  0  0  0  0  0  0  0  0  0
    8.7216  -19.2428   23.6745 C   0  0  0  0  0  0  0  0  0  0  0  0
    8.4723  -17.7547   23.5715 C   0  0  2  0  0  0  0  0  0  0  0  0
    8.4449  -17.3088   22.2313 N   0  0  0  0  0  0  0  0  0  0  0  0
    9.3614  -16.9448   24.3948 C   0  0  0  0  0  0  0  0  0  0  0  0
   10.5082  -16.5497   24.0299 O   0  0  0  0  0  0  0  0  0  0  0  0
    9.6611  -19.9993   25.8765 C   0  0  0  0  0  0  0  0  0  0  0  0
    9.4195  -20.5141   27.1234 C   0  0  0  0  0  0  0  0  0  0  0  0
    8.9725  -16.5403   25.6991 N   0  0  0  0  0  0  0  0  0  0  0  0
    9.8634  -15.7649   26.5670 C   0  0  1  0  0  0  0  0  0  0  0  0
    8.9474  -15.0026   27.4805 C   0  0  0  0  0  0  0  0  0  0  0  0
    7.7993  -14.3376   26.8537 C   0  0  0  0  0  0  0  0  0  0  0  0
    6.5918  -14.9345   26.4792 C   0  0  0  0  0  0  0  0  0  0  0  0
    5.7739  -14.0512   25.9089 N   0  0  0  0  0  0  0  0  0  0  0  0
    6.3960  -12.8625   25.8860 C   0  0  0  0  0  0  0  0  0  0  0  0
    5.9964  -11.6289   25.4267 C   0  0  0  0  0  0  0  0  0  0  0  0
    6.8109  -10.5242   25.5252 C   0  0  0  0  0  0  0  0  0  0  0  0
    8.0574  -10.6644   26.0998 C   0  0  0  0  0  0  0  0  0  0  0  0
    8.4348  -11.8993   26.5490 C   0  0  0  0  0  0  0  0  0  0  0  0
    7.6403  -13.0207   26.4623 C   0  0  0  0  0  0  0  0  0  0  0  0
   10.8549  -16.5741   27.2329 C   0  0  0  0  0  0  0  0  0  0  0  0
   11.9488  -15.9986   27.8578 O   0  0  0  0  0  0  0  0  0  0  0  0
   10.7871  -17.8353   27.2801 O   0  0  0  0  0  0  0  0  0  0  0  0
  2  1  1  0
  3  4  1  1
  3  2  1  0
  5  3  1  0
  6  5  2  0
  8  7  1  0
  8 18  2  0
  9  8  1  0
 10  9  2  0
 10 11  1  0
 11 17  2  0
 12 11  1  0
 13 12  1  6
 13 14  1  0
 14  5  1  0
 15 19  1  0
 15 13  1  0
 16 15  2  0
 17 18  1  0
 20 21  1  1
 20 31  1  0
 20 19  1  0
 22 23  2  0
 22 21  1  0
 24 23  1  0
 25 30  2  0
 25 24  1  0
 26 25  1  0
 27 28  1  0
 27 26  2  0
 28 29  2  0
 29 30  1  0
 30 22  1  0
 31 32  1  0
 33 31  2  0
M  END
$$$$
