SYW.pdb
     RDKit          3D

 33 35  0  0  1  0  0  0  0  0999 V2000
    6.3060  -16.4214   21.3700 O   0  0  0  0  0  0  0  0  0  0  0  0
    7.1226  -15.5023   20.7320 C   0  0  0  0  0  0  0  0  0  0  0  0
    8.3145  -16.2329   20.1581 C   0  0  2  0  0  0  0  0  0  0  0  0
    7.7410  -17.3361   19.3687 N   0  0  0  0  0  0  0  0  0  0  0  0
    9.0790  -16.8348   21.2623 C   0  0  0  0  0  0  0  0  0  0  0  0
    8.8101  -18.0127   21.6048 O   0  0  0  0  0  0  0  0  0  0  0  0
   13.4068  -20.1205   17.9816 O   0  0  0  0  0  0  0  0  0  0  0  0
   13.1350  -19.3546   19.1301 C   0  0  0  0  0  0  0  0  0  0  0  0
   13.1799  -17.9807   19.1106 C   0  0  0  0  0  0  0  0  0  0  0  0
   12.9113  -17.2474   20.2441 C   0  0  0  0  0  0  0  0  0  0  0  0
   12.5868  -17.8606   21.4430 C   0  0  0  0  0  0  0  0  0  0  0  0
   12.3190  -16.9911   22.5914 C   0  0  0  0  0  0  0  0  0  0  0  0
   10.8573  -16.8741   22.9611 C   0  0  2  0  0  0  0  0  0  0  0  0
   10.1112  -16.1836   21.9801 N   0  0  0  0  0  0  0  0  0  0  0  0
   10.6230  -16.3399   24.2968 C   0  0  0  0  0  0  0  0  0  0  0  0
   10.9252  -15.1639   24.6574 O   0  0  0  0  0  0  0  0  0  0  0  0
   12.5369  -19.2329   21.4822 C   0  0  0  0  0  0  0  0  0  0  0  0
   12.8088  -19.9381   20.3390 C   0  0  0  0  0  0  0  0  0  0  0  0
   10.0196  -17.1410   25.3018 N   0  0  0  0  0  0  0  0  0  0  0  0
    9.8734  -16.6711   26.6824 C   0  0  1  0  0  0  0  0  0  0  0  0
    8.4132  -16.8311   26.9935 C   0  0  0  0  0  0  0  0  0  0  0  0
    7.5002  -15.8623   26.3760 C   0  0  0  0  0  0  0  0  0  0  0  0
    6.4053  -16.1528   25.5567 C   0  0  0  0  0  0  0  0  0  0  0  0
    5.8063  -15.0385   25.1395 N   0  0  0  0  0  0  0  0  0  0  0  0
    6.4678  -13.9918   25.6569 C   0  0  0  0  0  0  0  0  0  0  0  0
    6.2597  -12.6360   25.5541 C   0  0  0  0  0  0  0  0  0  0  0  0
    7.0712  -11.7309   26.1990 C   0  0  0  0  0  0  0  0  0  0  0  0
    8.1171  -12.2018   26.9656 C   0  0  0  0  0  0  0  0  0  0  0  0
    8.3064  -13.5530   27.0536 C   0  0  0  0  0  0  0  0  0  0  0  0
    7.5103  -14.4799   26.4186 C   0  0  0  0  0  0  0  0  0  0  0  0
   10.7694  -17.3259   27.6041 C   0  0  0  0  0  0  0  0  0  0  0  0
   11.6030  -18.3510   27.1883 O   0  0  0  0  0  0  0  0  0  0  0  0
   10.8417  -17.0110   28.8260 O   0  0  0  0  0  0  0  0  0  0  0  0
  2  1  1  0
  3  4  1  6
  3  2  1  0
  5  3  1  0
  6  5  2  0
  8  7  1  0
  8 18  2  0
  9  8  1  0
 10  9  2  0
 10 11  1  0
 11 17  2  0
 12 11  1  0
 13 12  1  6
 13 14  1  0
 14  5  1  0
 15 19  1  0
 15 13  1  0
 16 15  2  0
 17 18  1  0
 20 21  1  1
 20 31  1  0
 20 19  1  0
 22 23  2  0
 22 21  1  0
 24 23  1  0
 25 30  2  0
 25 24  1  0
 26 25  1  0
 27 28  1  0
 27 26  2  0
 28 29  2  0
 29 30  1  0
 30 22  1  0
 31 32  1  0
 33 31  2  0
M  END
$$$$
