SYW.pdb
     RDKit          3D

 33 35  0  0  1  0  0  0  0  0999 V2000
   10.7874  -19.5160   21.5482 O   0  0  0  0  0  0  0  0  0  0  0  0
   11.2993  -19.1445   20.3159 C   0  0  0  0  0  0  0  0  0  0  0  0
   10.3241  -18.1986   19.6539 C   0  0  2  0  0  0  0  0  0  0  0  0
   10.9905  -17.7727   18.4115 N   0  0  0  0  0  0  0  0  0  0  0  0
   10.1714  -17.0049   20.5012 C   0  0  0  0  0  0  0  0  0  0  0  0
   11.0943  -16.1531   20.5080 O   0  0  0  0  0  0  0  0  0  0  0  0
    7.4985  -12.9523   16.5802 O   0  0  0  0  0  0  0  0  0  0  0  0
    7.6128  -13.3709   17.9186 C   0  0  0  0  0  0  0  0  0  0  0  0
    6.9915  -14.5089   18.3760 C   0  0  0  0  0  0  0  0  0  0  0  0
    7.1141  -14.9033   19.6890 C   0  0  0  0  0  0  0  0  0  0  0  0
    7.8639  -14.1739   20.5970 C   0  0  0  0  0  0  0  0  0  0  0  0
    7.9309  -14.6778   21.9711 C   0  0  0  0  0  0  0  0  0  0  0  0
    9.0605  -15.6501   22.2274 C   0  0  2  0  0  0  0  0  0  0  0  0
    9.0494  -16.7335   21.3210 N   0  0  0  0  0  0  0  0  0  0  0  0
    9.1548  -16.1004   23.6104 C   0  0  0  0  0  0  0  0  0  0  0  0
    8.5588  -17.1189   24.0707 O   0  0  0  0  0  0  0  0  0  0  0  0
    8.4922  -13.0337   20.1586 C   0  0  0  0  0  0  0  0  0  0  0  0
    8.3532  -12.6643   18.8462 C   0  0  0  0  0  0  0  0  0  0  0  0
    9.9512  -15.3937   24.5497 N   0  0  0  0  0  0  0  0  0  0  0  0
   10.0757  -15.8306   25.9432 C   0  0  1  0  0  0  0  0  0  0  0  0
    8.7186  -16.3614   26.3054 C   0  0  0  0  0  0  0  0  0  0  0  0
    7.6204  -15.3887   26.3388 C   0  0  0  0  0  0  0  0  0  0  0  0
    6.2917  -15.6177   25.9696 C   0  0  0  0  0  0  0  0  0  0  0  0
    5.5596  -14.5116   26.0926 N   0  0  0  0  0  0  0  0  0  0  0  0
    6.3594  -13.5309   26.5389 C   0  0  0  0  0  0  0  0  0  0  0  0
    6.1088  -12.2135   26.8454 C   0  0  0  0  0  0  0  0  0  0  0  0
    7.0993  -11.3809   27.3136 C   0  0  0  0  0  0  0  0  0  0  0  0
    8.3726  -11.8864   27.4772 C   0  0  0  0  0  0  0  0  0  0  0  0
    8.5999  -13.1982   27.1660 C   0  0  0  0  0  0  0  0  0  0  0  0
    7.6278  -14.0524   26.6955 C   0  0  0  0  0  0  0  0  0  0  0  0
   11.1675  -16.7492   26.1560 C   0  0  0  0  0  0  0  0  0  0  0  0
   11.4641  -17.2303   27.4205 O   0  0  0  0  0  0  0  0  0  0  0  0
   11.9081  -17.1585   25.2173 O   0  0  0  0  0  0  0  0  0  0  0  0
  2  1  1  0
  3  4  1  6
  3  2  1  0
  5  3  1  0
  6  5  2  0
  8  7  1  0
  8 18  2  0
  9  8  1  0
 10  9  2  0
 10 11  1  0
 11 17  2  0
 12 11  1  0
 13 12  1  1
 13 14  1  0
 14  5  1  0
 15 19  1  0
 15 13  1  0
 16 15  2  0
 17 18  1  0
 20 21  1  6
 20 31  1  0
 20 19  1  0
 22 23  2  0
 22 21  1  0
 24 23  1  0
 25 30  2  0
 25 24  1  0
 26 25  1  0
 27 28  1  0
 27 26  2  0
 28 29  2  0
 29 30  1  0
 30 22  1  0
 31 32  1  0
 33 31  2  0
M  END
$$$$
