SYW.pdb
     RDKit          3D

 33 35  0  0  1  0  0  0  0  0999 V2000
   10.1063  -19.5074   22.1751 O   0  0  0  0  0  0  0  0  0  0  0  0
    9.0313  -19.6767   21.3181 C   0  0  0  0  0  0  0  0  0  0  0  0
    9.0374  -18.5521   20.3088 C   0  0  2  0  0  0  0  0  0  0  0  0
   10.0236  -18.9575   19.2928 N   0  0  0  0  0  0  0  0  0  0  0  0
    9.5510  -17.3349   20.9575 C   0  0  0  0  0  0  0  0  0  0  0  0
   10.7431  -17.0009   20.7461 O   0  0  0  0  0  0  0  0  0  0  0  0
    7.3142  -13.0761   16.5607 O   0  0  0  0  0  0  0  0  0  0  0  0
    7.5742  -13.3394   17.9182 C   0  0  0  0  0  0  0  0  0  0  0  0
    8.6053  -12.7258   18.5894 C   0  0  0  0  0  0  0  0  0  0  0  0
    8.8453  -12.9957   19.9176 C   0  0  0  0  0  0  0  0  0  0  0  0
    8.0622  -13.8911   20.6273 C   0  0  0  0  0  0  0  0  0  0  0  0
    8.4003  -14.1093   22.0361 C   0  0  0  0  0  0  0  0  0  0  0  0
    9.3315  -15.2750   22.2835 C   0  0  2  0  0  0  0  0  0  0  0  0
    8.7974  -16.4952   21.8129 N   0  0  0  0  0  0  0  0  0  0  0  0
    9.7973  -15.3817   23.6604 C   0  0  0  0  0  0  0  0  0  0  0  0
   10.5391  -14.5275   24.2303 O   0  0  0  0  0  0  0  0  0  0  0  0
    7.0270  -14.5143   19.9737 C   0  0  0  0  0  0  0  0  0  0  0  0
    6.8107  -14.2270   18.6512 C   0  0  0  0  0  0  0  0  0  0  0  0
    9.4289  -16.4914   24.4659 N   0  0  0  0  0  0  0  0  0  0  0  0
    9.8346  -16.5972   25.8703 C   0  0  1  0  0  0  0  0  0  0  0  0
    8.5487  -16.7073   26.6378 C   0  0  0  0  0  0  0  0  0  0  0  0
    7.5388  -15.6748   26.3786 C   0  0  0  0  0  0  0  0  0  0  0  0
    6.2396  -15.8790   25.9044 C   0  0  0  0  0  0  0  0  0  0  0  0
    5.5948  -14.7234   25.7520 N   0  0  0  0  0  0  0  0  0  0  0  0
    6.4252  -13.7329   26.1126 C   0  0  0  0  0  0  0  0  0  0  0  0
    6.2569  -12.3684   26.1586 C   0  0  0  0  0  0  0  0  0  0  0  0
    7.2617  -11.5320   26.5878 C   0  0  0  0  0  0  0  0  0  0  0  0
    8.4647  -12.0820   26.9799 C   0  0  0  0  0  0  0  0  0  0  0  0
    8.6108  -13.4402   26.9257 C   0  0  0  0  0  0  0  0  0  0  0  0
    7.6227  -14.2996   26.5001 C   0  0  0  0  0  0  0  0  0  0  0  0
   10.7818  -17.6585   26.1104 C   0  0  0  0  0  0  0  0  0  0  0  0
   11.2152  -18.4794   25.0824 O   0  0  0  0  0  0  0  0  0  0  0  0
   11.2602  -17.9006   27.2549 O   0  0  0  0  0  0  0  0  0  0  0  0
  2  1  1  0
  3  4  1  6
  3  2  1  0
  5  3  1  0
  6  5  2  0
  8  7  1  0
  8 18  2  0
  9  8  1  0
 10  9  2  0
 10 11  1  0
 11 17  2  0
 12 11  1  0
 13 12  1  1
 13 14  1  0
 14  5  1  0
 15 19  1  0
 15 13  1  0
 16 15  2  0
 17 18  1  0
 20 21  1  1
 20 31  1  0
 20 19  1  0
 22 23  2  0
 22 21  1  0
 24 23  1  0
 25 30  2  0
 25 24  1  0
 26 25  1  0
 27 28  1  0
 27 26  2  0
 28 29  2  0
 29 30  1  0
 30 22  1  0
 31 32  1  0
 33 31  2  0
M  END
$$$$
