SYW.pdb
     RDKit          3D

 33 35  0  0  1  0  0  0  0  0999 V2000
   11.7064  -19.6346   20.2121 O   0  0  0  0  0  0  0  0  0  0  0  0
   10.3705  -19.6721   19.8481 C   0  0  0  0  0  0  0  0  0  0  0  0
    9.9445  -18.2828   19.4332 C   0  0  2  0  0  0  0  0  0  0  0  0
   11.0159  -17.8062   18.5420 N   0  0  0  0  0  0  0  0  0  0  0  0
    9.9420  -17.4128   20.6203 C   0  0  0  0  0  0  0  0  0  0  0  0
   11.0063  -16.8245   20.9341 O   0  0  0  0  0  0  0  0  0  0  0  0
    7.7139  -12.3674   17.5592 O   0  0  0  0  0  0  0  0  0  0  0  0
    7.7456  -13.0768   18.7738 C   0  0  0  0  0  0  0  0  0  0  0  0
    8.3871  -12.5812   19.8843 C   0  0  0  0  0  0  0  0  0  0  0  0
    8.4082  -13.2892   21.0645 C   0  0  0  0  0  0  0  0  0  0  0  0
    7.7877  -14.5222   21.1803 C   0  0  0  0  0  0  0  0  0  0  0  0
    7.8684  -15.1955   22.4790 C   0  0  0  0  0  0  0  0  0  0  0  0
    8.9013  -16.2980   22.5499 C   0  0  2  0  0  0  0  0  0  0  0  0
    8.8183  -17.1800   21.4496 N   0  0  0  0  0  0  0  0  0  0  0  0
    8.9200  -17.0140   23.8192 C   0  0  0  0  0  0  0  0  0  0  0  0
    7.8904  -17.4848   24.3874 O   0  0  0  0  0  0  0  0  0  0  0  0
    7.1415  -15.0339   20.0813 C   0  0  0  0  0  0  0  0  0  0  0  0
    7.1361  -14.3078   18.9190 C   0  0  0  0  0  0  0  0  0  0  0  0
   10.1409  -17.2302   24.5111 N   0  0  0  0  0  0  0  0  0  0  0  0
   10.4237  -16.5924   25.8001 C   0  0  1  0  0  0  0  0  0  0  0  0
   10.1934  -15.1272   25.5661 C   0  0  0  0  0  0  0  0  0  0  0  0
    9.4802  -14.3979   26.6209 C   0  0  0  0  0  0  0  0  0  0  0  0
    9.7199  -14.4739   27.9961 C   0  0  0  0  0  0  0  0  0  0  0  0
    8.8722  -13.7040   28.6766 N   0  0  0  0  0  0  0  0  0  0  0  0
    8.0580  -13.1023   27.7959 C   0  0  0  0  0  0  0  0  0  0  0  0
    7.0278  -12.2067   27.9656 C   0  0  0  0  0  0  0  0  0  0  0  0
    6.3300  -11.6987   26.8939 C   0  0  0  0  0  0  0  0  0  0  0  0
    6.6774  -12.1019   25.6210 C   0  0  0  0  0  0  0  0  0  0  0  0
    7.7038  -12.9931   25.4750 C   0  0  0  0  0  0  0  0  0  0  0  0
    8.4177  -13.5171   26.5295 C   0  0  0  0  0  0  0  0  0  0  0  0
    9.6738  -17.1615   26.8931 C   0  0  0  0  0  0  0  0  0  0  0  0
   10.2415  -17.3212   28.1464 O   0  0  0  0  0  0  0  0  0  0  0  0
    8.4759  -17.5459   26.7720 O   0  0  0  0  0  0  0  0  0  0  0  0
  2  1  1  0
  3  4  1  6
  3  2  1  0
  5  3  1  0
  6  5  2  0
  8  7  1  0
  8 18  2  0
  9  8  1  0
 10  9  2  0
 10 11  1  0
 11 17  2  0
 12 11  1  0
 13 12  1  1
 13 14  1  0
 14  5  1  0
 15 19  1  0
 15 13  1  0
 16 15  2  0
 17 18  1  0
 20 21  1  6
 20 31  1  0
 20 19  1  0
 22 23  2  0
 22 21  1  0
 24 23  1  0
 25 30  2  0
 25 24  1  0
 26 25  1  0
 27 28  1  0
 27 26  2  0
 28 29  2  0
 29 30  1  0
 30 22  1  0
 31 32  1  0
 33 31  2  0
M  END
$$$$
