SYW.pdb
     RDKit          3D

 33 35  0  0  1  0  0  0  0  0999 V2000
   10.8837  -19.7252   20.4904 O   0  0  0  0  0  0  0  0  0  0  0  0
   11.1406  -18.4908   19.9168 C   0  0  0  0  0  0  0  0  0  0  0  0
    9.8534  -17.9507   19.3379 C   0  0  2  0  0  0  0  0  0  0  0  0
   10.1417  -17.7274   17.9110 N   0  0  0  0  0  0  0  0  0  0  0  0
    9.5767  -16.6366   19.9404 C   0  0  0  0  0  0  0  0  0  0  0  0
    9.3941  -15.6549   19.1787 O   0  0  0  0  0  0  0  0  0  0  0  0
    3.9037  -19.0678   22.2532 O   0  0  0  0  0  0  0  0  0  0  0  0
    4.8199  -18.0292   22.0052 C   0  0  0  0  0  0  0  0  0  0  0  0
    5.3411  -17.2660   23.0231 C   0  0  0  0  0  0  0  0  0  0  0  0
    6.2363  -16.2536   22.7620 C   0  0  0  0  0  0  0  0  0  0  0  0
    6.6457  -15.9645   21.4706 C   0  0  0  0  0  0  0  0  0  0  0  0
    7.6011  -14.8672   21.2986 C   0  0  0  0  0  0  0  0  0  0  0  0
    8.9911  -15.1596   21.8179 C   0  0  2  0  0  0  0  0  0  0  0  0
    9.4965  -16.3858   21.3316 N   0  0  0  0  0  0  0  0  0  0  0  0
    9.1184  -15.0562   23.2661 C   0  0  0  0  0  0  0  0  0  0  0  0
    8.9935  -13.9771   23.9176 O   0  0  0  0  0  0  0  0  0  0  0  0
    6.1359  -16.7164   20.4400 C   0  0  0  0  0  0  0  0  0  0  0  0
    5.2463  -17.7181   20.7287 C   0  0  0  0  0  0  0  0  0  0  0  0
    9.3992  -16.2046   24.0524 N   0  0  0  0  0  0  0  0  0  0  0  0
   10.1414  -16.1171   25.3133 C   0  0  1  0  0  0  0  0  0  0  0  0
    9.1102  -16.3241   26.3849 C   0  0  0  0  0  0  0  0  0  0  0  0
    7.8837  -15.5255   26.2791 C   0  0  0  0  0  0  0  0  0  0  0  0
    6.6153  -15.9886   25.9167 C   0  0  0  0  0  0  0  0  0  0  0  0
    5.7287  -14.9949   25.8901 N   0  0  0  0  0  0  0  0  0  0  0  0
    6.3635  -13.8617   26.2273 C   0  0  0  0  0  0  0  0  0  0  0  0
    5.9162  -12.5683   26.3654 C   0  0  0  0  0  0  0  0  0  0  0  0
    6.7601  -11.5501   26.7459 C   0  0  0  0  0  0  0  0  0  0  0  0
    8.0860  -11.8409   26.9932 C   0  0  0  0  0  0  0  0  0  0  0  0
    8.5096  -13.1328   26.8492 C   0  0  0  0  0  0  0  0  0  0  0  0
    7.6870  -14.1698   26.4694 C   0  0  0  0  0  0  0  0  0  0  0  0
   11.2710  -17.0124   25.3718 C   0  0  0  0  0  0  0  0  0  0  0  0
   11.5163  -17.9251   24.3592 O   0  0  0  0  0  0  0  0  0  0  0  0
   12.0871  -17.0197   26.3368 O   0  0  0  0  0  0  0  0  0  0  0  0
  2  1  1  0
  3  4  1  6
  3  2  1  0
  5  3  1  0
  6  5  2  0
  8  7  1  0
  8 18  2  0
  9  8  1  0
 10  9  2  0
 10 11  1  0
 11 17  2  0
 12 11  1  0
 13 12  1  1
 13 14  1  0
 14  5  1  0
 15 19  1  0
 15 13  1  0
 16 15  2  0
 17 18  1  0
 20 21  1  1
 20 31  1  0
 20 19  1  0
 22 23  2  0
 22 21  1  0
 24 23  1  0
 25 30  2  0
 25 24  1  0
 26 25  1  0
 27 28  1  0
 27 26  2  0
 28 29  2  0
 29 30  1  0
 30 22  1  0
 31 32  1  0
 33 31  2  0
M  END
$$$$
