SYW.pdb
     RDKit          3D

 33 35  0  0  1  0  0  0  0  0999 V2000
    9.0104  -19.5956   22.2677 O   0  0  0  0  0  0  0  0  0  0  0  0
    9.7029  -19.7132   21.0738 C   0  0  0  0  0  0  0  0  0  0  0  0
    9.5209  -18.4384   20.2830 C   0  0  2  0  0  0  0  0  0  0  0  0
   10.3233  -18.6294   19.0628 N   0  0  0  0  0  0  0  0  0  0  0  0
   10.1225  -17.3244   21.0336 C   0  0  0  0  0  0  0  0  0  0  0  0
   11.3694  -17.1799   20.9944 O   0  0  0  0  0  0  0  0  0  0  0  0
    6.2272  -13.9335   17.3817 O   0  0  0  0  0  0  0  0  0  0  0  0
    7.1010  -13.9575   18.4842 C   0  0  0  0  0  0  0  0  0  0  0  0
    7.7470  -12.8248   18.9200 C   0  0  0  0  0  0  0  0  0  0  0  0
    8.5988  -12.8669   20.0004 C   0  0  0  0  0  0  0  0  0  0  0  0
    8.8379  -14.0453   20.6882 C   0  0  0  0  0  0  0  0  0  0  0  0
    9.7616  -13.9846   21.8238 C   0  0  0  0  0  0  0  0  0  0  0  0
   10.0585  -15.3231   22.4620 C   0  0  2  0  0  0  0  0  0  0  0  0
    9.3974  -16.3860   21.8072 N   0  0  0  0  0  0  0  0  0  0  0  0
    9.8428  -15.3554   23.9030 C   0  0  0  0  0  0  0  0  0  0  0  0
    9.8935  -14.3370   24.6545 O   0  0  0  0  0  0  0  0  0  0  0  0
    8.2014  -15.1877   20.2677 C   0  0  0  0  0  0  0  0  0  0  0  0
    7.3587  -15.1171   19.1892 C   0  0  0  0  0  0  0  0  0  0  0  0
    9.5524  -16.5776   24.5648 N   0  0  0  0  0  0  0  0  0  0  0  0
   10.0828  -16.8817   25.8969 C   0  0  1  0  0  0  0  0  0  0  0  0
    9.5694  -15.7804   26.7790 C   0  0  0  0  0  0  0  0  0  0  0  0
    8.2247  -15.2738   26.4818 C   0  0  0  0  0  0  0  0  0  0  0  0
    7.1320  -16.0214   26.0327 C   0  0  0  0  0  0  0  0  0  0  0  0
    6.0674  -15.2463   25.8322 N   0  0  0  0  0  0  0  0  0  0  0  0
    6.4084  -13.9844   26.1353 C   0  0  0  0  0  0  0  0  0  0  0  0
    5.6887  -12.8122   26.1175 C   0  0  0  0  0  0  0  0  0  0  0  0
    6.2516  -11.6145   26.4945 C   0  0  0  0  0  0  0  0  0  0  0  0
    7.5705  -11.5961   26.8991 C   0  0  0  0  0  0  0  0  0  0  0  0
    8.2676  -12.7722   26.9086 C   0  0  0  0  0  0  0  0  0  0  0  0
    7.7293  -13.9837   26.5360 C   0  0  0  0  0  0  0  0  0  0  0  0
    9.7692  -18.2174   26.3427 C   0  0  0  0  0  0  0  0  0  0  0  0
   10.2809  -18.7164   27.5291 O   0  0  0  0  0  0  0  0  0  0  0  0
    9.0252  -18.9995   25.6853 O   0  0  0  0  0  0  0  0  0  0  0  0
  2  1  1  0
  3  4  1  6
  3  2  1  0
  5  3  1  0
  6  5  2  0
  8  7  1  0
  8 18  2  0
  9  8  1  0
 10  9  2  0
 10 11  1  0
 11 17  2  0
 12 11  1  0
 13 12  1  6
 13 14  1  0
 14  5  1  0
 15 19  1  0
 15 13  1  0
 16 15  2  0
 17 18  1  0
 20 21  1  1
 20 31  1  0
 20 19  1  0
 22 23  2  0
 22 21  1  0
 24 23  1  0
 25 30  2  0
 25 24  1  0
 26 25  1  0
 27 28  1  0
 27 26  2  0
 28 29  2  0
 29 30  1  0
 30 22  1  0
 31 32  1  0
 33 31  2  0
M  END
$$$$
