SYW.pdb
     RDKit          3D

 33 35  0  0  1  0  0  0  0  0999 V2000
    8.1469  -16.6815   20.3098 O   0  0  0  0  0  0  0  0  0  0  0  0
    8.5782  -17.1277   19.0714 C   0  0  0  0  0  0  0  0  0  0  0  0
    9.7734  -16.3038   18.6514 C   0  0  2  0  0  0  0  0  0  0  0  0
   10.2563  -16.9373   17.4127 N   0  0  0  0  0  0  0  0  0  0  0  0
   10.8323  -16.4539   19.6625 C   0  0  0  0  0  0  0  0  0  0  0  0
   11.4837  -17.5272   19.6928 O   0  0  0  0  0  0  0  0  0  0  0  0
   15.8485  -14.9105   16.2575 O   0  0  0  0  0  0  0  0  0  0  0  0
   15.2271  -14.8536   17.5186 C   0  0  0  0  0  0  0  0  0  0  0  0
   15.6176  -15.6686   18.5547 C   0  0  0  0  0  0  0  0  0  0  0  0
   14.9982  -15.5996   19.7819 C   0  0  0  0  0  0  0  0  0  0  0  0
   13.9626  -14.7112   20.0212 C   0  0  0  0  0  0  0  0  0  0  0  0
   13.3694  -14.7160   21.3608 C   0  0  0  0  0  0  0  0  0  0  0  0
   12.2309  -15.6956   21.5382 C   0  0  2  0  0  0  0  0  0  0  0  0
   11.1830  -15.4698   20.6181 N   0  0  0  0  0  0  0  0  0  0  0  0
   11.7395  -15.7942   22.9068 C   0  0  0  0  0  0  0  0  0  0  0  0
   12.2141  -15.1419   23.8834 O   0  0  0  0  0  0  0  0  0  0  0  0
   13.5584  -13.8884   18.9980 C   0  0  0  0  0  0  0  0  0  0  0  0
   14.1926  -13.9784   17.7864 C   0  0  0  0  0  0  0  0  0  0  0  0
   10.6609  -16.6596   23.2286 N   0  0  0  0  0  0  0  0  0  0  0  0
   10.1316  -16.7633   24.5915 C   0  0  1  0  0  0  0  0  0  0  0  0
    9.8429  -15.3486   25.0037 C   0  0  0  0  0  0  0  0  0  0  0  0
    8.4728  -15.0588   25.4418 C   0  0  0  0  0  0  0  0  0  0  0  0
    7.3967  -15.9510   25.4607 C   0  0  0  0  0  0  0  0  0  0  0  0
    6.2843  -15.3557   25.8882 N   0  0  0  0  0  0  0  0  0  0  0  0
    6.5769  -14.0752   26.1629 C   0  0  0  0  0  0  0  0  0  0  0  0
    5.8050  -13.0423   26.6419 C   0  0  0  0  0  0  0  0  0  0  0  0
    6.3334  -11.7921   26.8686 C   0  0  0  0  0  0  0  0  0  0  0  0
    7.6707  -11.5764   26.6069 C   0  0  0  0  0  0  0  0  0  0  0  0
    8.4195  -12.6165   26.1308 C   0  0  0  0  0  0  0  0  0  0  0  0
    7.9162  -13.8763   25.8946 C   0  0  0  0  0  0  0  0  0  0  0  0
    9.0156  -17.6709   24.7007 C   0  0  0  0  0  0  0  0  0  0  0  0
    8.6549  -18.2210   25.9197 O   0  0  0  0  0  0  0  0  0  0  0  0
    8.3159  -18.0154   23.7062 O   0  0  0  0  0  0  0  0  0  0  0  0
  2  1  1  0
  3  4  1  6
  3  2  1  0
  5  3  1  0
  6  5  2  0
  8  7  1  0
  8 18  2  0
  9  8  1  0
 10  9  2  0
 10 11  1  0
 11 17  2  0
 12 11  1  0
 13 12  1  1
 13 14  1  0
 14  5  1  0
 15 19  1  0
 15 13  1  0
 16 15  2  0
 17 18  1  0
 20 21  1  6
 20 31  1  0
 20 19  1  0
 22 23  2  0
 22 21  1  0
 24 23  1  0
 25 30  2  0
 25 24  1  0
 26 25  1  0
 27 28  1  0
 27 26  2  0
 28 29  2  0
 29 30  1  0
 30 22  1  0
 31 32  1  0
 33 31  2  0
M  END
$$$$
