SYW.pdb
     RDKit          3D

 33 35  0  0  1  0  0  0  0  0999 V2000
    7.4356  -21.3161   24.5108 O   0  0  0  0  0  0  0  0  0  0  0  0
    8.3882  -21.0855   23.5320 C   0  0  0  0  0  0  0  0  0  0  0  0
    7.6919  -20.5733   22.2924 C   0  0  2  0  0  0  0  0  0  0  0  0
    8.1344  -21.4683   21.2097 N   0  0  0  0  0  0  0  0  0  0  0  0
    8.2007  -19.2271   21.9843 C   0  0  0  0  0  0  0  0  0  0  0  0
    9.2632  -19.1253   21.3225 O   0  0  0  0  0  0  0  0  0  0  0  0
    8.6844  -11.4165   18.3986 O   0  0  0  0  0  0  0  0  0  0  0  0
    8.2600  -12.5016   19.1873 C   0  0  0  0  0  0  0  0  0  0  0  0
    7.9580  -13.7235   18.6341 C   0  0  0  0  0  0  0  0  0  0  0  0
    7.5439  -14.7740   19.4211 C   0  0  0  0  0  0  0  0  0  0  0  0
    7.4156  -14.6433   20.7941 C   0  0  0  0  0  0  0  0  0  0  0  0
    6.9672  -15.8207   21.5420 C   0  0  0  0  0  0  0  0  0  0  0  0
    8.0752  -16.7712   21.9370 C   0  0  2  0  0  0  0  0  0  0  0  0
    7.5783  -18.0179   22.3781 N   0  0  0  0  0  0  0  0  0  0  0  0
    9.0356  -16.2066   22.8768 C   0  0  0  0  0  0  0  0  0  0  0  0
    9.6631  -15.1223   22.6898 O   0  0  0  0  0  0  0  0  0  0  0  0
    7.7129  -13.4298   21.3654 C   0  0  0  0  0  0  0  0  0  0  0  0
    8.1228  -12.4010   20.5581 C   0  0  0  0  0  0  0  0  0  0  0  0
    9.3284  -16.8682   24.0985 N   0  0  0  0  0  0  0  0  0  0  0  0
   10.3470  -16.3670   25.0256 C   0  0  1  0  0  0  0  0  0  0  0  0
    9.8510  -15.0156   25.4524 C   0  0  0  0  0  0  0  0  0  0  0  0
    8.4577  -14.9408   25.9066 C   0  0  0  0  0  0  0  0  0  0  0  0
    7.5920  -16.0169   26.1234 C   0  0  0  0  0  0  0  0  0  0  0  0
    6.3867  -15.5969   26.5047 N   0  0  0  0  0  0  0  0  0  0  0  0
    6.4098  -14.2561   26.5541 C   0  0  0  0  0  0  0  0  0  0  0  0
    5.4468  -13.3361   26.8984 C   0  0  0  0  0  0  0  0  0  0  0  0
    5.7060  -11.9847   26.8935 C   0  0  0  0  0  0  0  0  0  0  0  0
    6.9645  -11.5489   26.5334 C   0  0  0  0  0  0  0  0  0  0  0  0
    7.9063  -12.4800   26.1942 C   0  0  0  0  0  0  0  0  0  0  0  0
    7.6736  -13.8372   26.1900 C   0  0  0  0  0  0  0  0  0  0  0  0
   10.6335  -17.2810   26.1043 C   0  0  0  0  0  0  0  0  0  0  0  0
    9.9372  -18.4706   26.2407 O   0  0  0  0  0  0  0  0  0  0  0  0
   11.5187  -17.0515   26.9767 O   0  0  0  0  0  0  0  0  0  0  0  0
  2  1  1  0
  3  4  1  6
  3  2  1  0
  5  3  1  0
  6  5  2  0
  8  7  1  0
  8 18  2  0
  9  8  1  0
 10  9  2  0
 10 11  1  0
 11 17  2  0
 12 11  1  0
 13 12  1  1
 13 14  1  0
 14  5  1  0
 15 19  1  0
 15 13  1  0
 16 15  2  0
 17 18  1  0
 20 21  1  1
 20 31  1  0
 20 19  1  0
 22 23  2  0
 22 21  1  0
 24 23  1  0
 25 30  2  0
 25 24  1  0
 26 25  1  0
 27 28  1  0
 27 26  2  0
 28 29  2  0
 29 30  1  0
 30 22  1  0
 31 32  1  0
 33 31  2  0
M  END
$$$$
