SYW.pdb
     RDKit          3D

 33 35  0  0  1  0  0  0  0  0999 V2000
    8.7068  -14.3885   20.3282 O   0  0  0  0  0  0  0  0  0  0  0  0
    8.4389  -15.4881   19.5296 C   0  0  0  0  0  0  0  0  0  0  0  0
    7.0919  -16.0510   19.9200 C   0  0  2  0  0  0  0  0  0  0  0  0
    6.1386  -14.9523   19.6892 N   0  0  0  0  0  0  0  0  0  0  0  0
    7.0956  -16.3322   21.3647 C   0  0  0  0  0  0  0  0  0  0  0  0
    6.5115  -15.5285   22.1329 O   0  0  0  0  0  0  0  0  0  0  0  0
    7.6359  -20.2621   29.2938 O   0  0  0  0  0  0  0  0  0  0  0  0
    7.7360  -19.9594   27.9234 C   0  0  0  0  0  0  0  0  0  0  0  0
    8.9523  -19.8770   27.2878 C   0  0  0  0  0  0  0  0  0  0  0  0
    9.0314  -19.5794   25.9463 C   0  0  0  0  0  0  0  0  0  0  0  0
    7.8953  -19.3524   25.1870 C   0  0  0  0  0  0  0  0  0  0  0  0
    8.0867  -19.0424   23.7679 C   0  0  0  0  0  0  0  0  0  0  0  0
    7.6459  -17.6529   23.3653 C   0  0  2  0  0  0  0  0  0  0  0  0
    7.7127  -17.4545   21.9682 N   0  0  0  0  0  0  0  0  0  0  0  0
    8.3111  -16.5827   24.0978 C   0  0  0  0  0  0  0  0  0  0  0  0
    7.8243  -15.4259   24.2684 O   0  0  0  0  0  0  0  0  0  0  0  0
    6.6706  -19.4304   25.8045 C   0  0  0  0  0  0  0  0  0  0  0  0
    6.6211  -19.7284   27.1412 C   0  0  0  0  0  0  0  0  0  0  0  0
    9.5887  -16.7899   24.6815 N   0  0  0  0  0  0  0  0  0  0  0  0
   10.2766  -15.7362   25.4331 C   0  0  1  0  0  0  0  0  0  0  0  0
    9.4142  -15.4937   26.6380 C   0  0  0  0  0  0  0  0  0  0  0  0
    8.1178  -14.8492   26.3987 C   0  0  0  0  0  0  0  0  0  0  0  0
    6.9265  -15.4822   26.0318 C   0  0  0  0  0  0  0  0  0  0  0  0
    5.9428  -14.5995   25.8657 N   0  0  0  0  0  0  0  0  0  0  0  0
    6.4358  -13.3760   26.1119 C   0  0  0  0  0  0  0  0  0  0  0  0
    5.8479  -12.1324   26.0978 C   0  0  0  0  0  0  0  0  0  0  0  0
    6.5583  -10.9954   26.4078 C   0  0  0  0  0  0  0  0  0  0  0  0
    7.8922  -11.1129   26.7399 C   0  0  0  0  0  0  0  0  0  0  0  0
    8.4567  -12.3581   26.7472 C   0  0  0  0  0  0  0  0  0  0  0  0
    7.7695  -13.5113   26.4407 C   0  0  0  0  0  0  0  0  0  0  0  0
   11.6547  -16.0506   25.7218 C   0  0  0  0  0  0  0  0  0  0  0  0
   12.2154  -17.2523   25.3219 O   0  0  0  0  0  0  0  0  0  0  0  0
   12.4173  -15.2628   26.3504 O   0  0  0  0  0  0  0  0  0  0  0  0
  2  1  1  0
  3  4  1  1
  3  2  1  0
  5  3  1  0
  6  5  2  0
  8  7  1  0
  8 18  2  0
  9  8  1  0
 10  9  2  0
 10 11  1  0
 11 17  2  0
 12 11  1  0
 13 12  1  6
 13 14  1  0
 14  5  1  0
 15 19  1  0
 15 13  1  0
 16 15  2  0
 17 18  1  0
 20 21  1  1
 20 31  1  0
 20 19  1  0
 22 23  2  0
 22 21  1  0
 24 23  1  0
 25 30  2  0
 25 24  1  0
 26 25  1  0
 27 28  1  0
 27 26  2  0
 28 29  2  0
 29 30  1  0
 30 22  1  0
 31 32  1  0
 33 31  2  0
M  END
$$$$
