CMD.pdb
     RDKit          3D

 23 22  0  0  1  0  0  0  0  0999 V2000
   19.6574  -13.4360  -16.8956 N   0  0  0  0  0  0  0  0  0  0  0  0
   19.5315  -12.0161  -17.1908 C   0  0  1  0  0  0  0  0  0  0  0  0
   18.1202  -11.5436  -17.2704 C   0  0  0  0  0  0  0  0  0  0  0  0
   17.2566  -12.3565  -18.6197 S   0  0  0  0  0  0  0  0  0  0  0  0
   20.3599  -11.2920  -16.1841 C   0  0  0  0  0  0  0  0  0  0  0  0
   20.0856  -11.4455  -14.9517 O   0  0  0  0  0  0  0  0  0  0  0  0
   26.5832  -11.4257  -14.7054 C   0  0  0  0  0  0  0  0  0  0  0  0
   26.2685   -9.7162  -15.1770 S   0  0  0  0  0  0  0  0  0  0  0  0
   24.5573   -9.2457  -14.8569 C   0  0  0  0  0  0  0  0  0  0  0  0
   23.6547   -9.9681  -15.8405 C   0  0  0  0  0  0  0  0  0  0  0  0
   22.2009   -9.6942  -15.5282 C   0  0  2  0  0  0  0  0  0  0  0  0
   21.4282  -10.4460  -16.5184 N   0  0  0  0  0  0  0  0  0  0  0  0
   21.9480   -8.2474  -15.6906 C   0  0  0  0  0  0  0  0  0  0  0  0
   22.0615   -7.7510  -16.8464 O   0  0  0  0  0  0  0  0  0  0  0  0
   21.5841   -7.3797  -14.6396 N   0  0  0  0  0  0  0  0  0  0  0  0
   21.4321   -5.9761  -14.8993 C   0  0  1  0  0  0  0  0  0  0  0  0
   19.9596   -5.5651  -14.9224 C   0  0  0  0  0  0  0  0  0  0  0  0
   19.9230   -4.1093  -15.1898 C   0  0  0  0  0  0  0  0  0  0  0  0
   19.6345   -3.3402  -14.2208 O   0  0  0  0  0  0  0  0  0  0  0  0
   22.1732   -5.1461  -13.9165 C   0  0  0  0  0  0  0  0  0  0  0  0
   22.8040   -5.7449  -12.8179 O   0  0  0  0  0  0  0  0  0  0  0  0
   20.1794   -3.5291  -16.4176 O   0  0  0  0  0  0  0  0  0  0  0  0
   22.2596   -3.9035  -14.0314 O   0  0  0  0  0  0  0  0  0  0  0  0
  2  1  1  1
  3  2  1  0
  3  4  1  0
  5  2  1  0
  5 12  1  0
  6  5  2  0
  7  8  1  0
  8  9  1  0
  9 10  1  0
 11 12  1  0
 11 13  1  0
 11 10  1  6
 13 14  2  0
 15 13  1  0
 15 16  1  0
 16 20  1  0
 16 17  1  1
 18 22  1  0
 18 17  1  0
 19 18  2  0
 20 23  2  0
 20 21  1  0
M  END
$$$$
