CMD.pdb
     RDKit          3D

 23 22  0  0  1  0  0  0  0  0999 V2000
   13.2215  -13.7857  -11.5980 N   0  0  0  0  0  0  0  0  0  0  0  0
   13.1450  -12.3340  -11.6741 C   0  0  1  0  0  0  0  0  0  0  0  0
   12.3619  -11.7164  -10.5665 C   0  0  0  0  0  0  0  0  0  0  0  0
   10.6880  -12.3679  -10.5362 S   0  0  0  0  0  0  0  0  0  0  0  0
   14.5460  -11.8341  -11.7814 C   0  0  0  0  0  0  0  0  0  0  0  0
   15.4628  -12.4673  -11.1681 O   0  0  0  0  0  0  0  0  0  0  0  0
   20.3453   -9.8363  -16.2603 C   0  0  0  0  0  0  0  0  0  0  0  0
   18.6927  -10.4560  -15.9014 S   0  0  0  0  0  0  0  0  0  0  0  0
   18.1632  -10.0038  -14.2379 C   0  0  0  0  0  0  0  0  0  0  0  0
   16.7348  -10.4734  -14.0300 C   0  0  0  0  0  0  0  0  0  0  0  0
   16.2887  -10.2068  -12.6100 C   0  0  2  0  0  0  0  0  0  0  0  0
   14.9134  -10.7000  -12.5211 N   0  0  0  0  0  0  0  0  0  0  0  0
   16.3129   -8.7482  -12.3741 C   0  0  0  0  0  0  0  0  0  0  0  0
   15.4443   -8.0385  -12.9546 O   0  0  0  0  0  0  0  0  0  0  0  0
   17.2414   -8.0918  -11.5392 N   0  0  0  0  0  0  0  0  0  0  0  0
   17.2033   -6.6615  -11.4234 C   0  0  1  0  0  0  0  0  0  0  0  0
   17.5491   -6.2032  -10.0063 C   0  0  0  0  0  0  0  0  0  0  0  0
   16.2916   -6.2326   -9.2254 C   0  0  0  0  0  0  0  0  0  0  0  0
   15.2174   -6.4978   -9.8496 O   0  0  0  0  0  0  0  0  0  0  0  0
   18.1033   -6.0011  -12.4020 C   0  0  0  0  0  0  0  0  0  0  0  0
   17.9754   -4.6314  -12.6685 O   0  0  0  0  0  0  0  0  0  0  0  0
   16.2039   -5.9914   -7.8674 O   0  0  0  0  0  0  0  0  0  0  0  0
   18.9931   -6.6325  -13.0139 O   0  0  0  0  0  0  0  0  0  0  0  0
  2  1  1  1
  3  2  1  0
  3  4  1  0
  5  2  1  0
  5 12  1  0
  6  5  2  0
  7  8  1  0
  8  9  1  0
  9 10  1  0
 11 12  1  0
 11 13  1  0
 11 10  1  6
 13 14  2  0
 15 13  1  0
 15 16  1  0
 16 20  1  0
 16 17  1  1
 18 22  1  0
 18 17  1  0
 19 18  2  0
 20 23  2  0
 20 21  1  0
M  END
$$$$
