CMD.pdb
     RDKit          3D

 23 22  0  0  1  0  0  0  0  0999 V2000
   21.3710  -15.2376  -19.7157 N   0  0  0  0  0  0  0  0  0  0  0  0
   20.6005  -14.0098  -19.5806 C   0  0  1  0  0  0  0  0  0  0  0  0
   19.1293  -14.2082  -19.7127 C   0  0  0  0  0  0  0  0  0  0  0  0
   18.7071  -14.7129  -21.3843 S   0  0  0  0  0  0  0  0  0  0  0  0
   21.0167  -13.3798  -18.2945 C   0  0  0  0  0  0  0  0  0  0  0  0
   21.4134  -14.1352  -17.3513 O   0  0  0  0  0  0  0  0  0  0  0  0
   26.5707  -10.7739  -14.6531 C   0  0  0  0  0  0  0  0  0  0  0  0
   25.5932  -11.5018  -15.9793 S   0  0  0  0  0  0  0  0  0  0  0  0
   23.8559  -11.0347  -15.8539 C   0  0  0  0  0  0  0  0  0  0  0  0
   23.1050  -11.6032  -17.0443 C   0  0  0  0  0  0  0  0  0  0  0  0
   21.6190  -11.3645  -16.8990 C   0  0  2  0  0  0  0  0  0  0  0  0
   20.9944  -11.9963  -18.0622 N   0  0  0  0  0  0  0  0  0  0  0  0
   21.3703   -9.9081  -16.9276 C   0  0  0  0  0  0  0  0  0  0  0  0
   21.7134   -9.2675  -17.9606 O   0  0  0  0  0  0  0  0  0  0  0  0
   20.7707   -9.1818  -15.8774 N   0  0  0  0  0  0  0  0  0  0  0  0
   20.4824   -7.7868  -16.0544 C   0  0  1  0  0  0  0  0  0  0  0  0
   18.9879   -7.4989  -15.9082 C   0  0  0  0  0  0  0  0  0  0  0  0
   18.8084   -6.0428  -16.1073 C   0  0  0  0  0  0  0  0  0  0  0  0
   18.6856   -5.6227  -17.2998 O   0  0  0  0  0  0  0  0  0  0  0  0
   21.2552   -6.9364  -15.1145 C   0  0  0  0  0  0  0  0  0  0  0  0
   22.0808   -7.5224  -14.1458 O   0  0  0  0  0  0  0  0  0  0  0  0
   18.7660   -5.1096  -15.0888 O   0  0  0  0  0  0  0  0  0  0  0  0
   21.1983   -5.6873  -15.1525 O   0  0  0  0  0  0  0  0  0  0  0  0
  2  1  1  1
  3  2  1  0
  3  4  1  0
  5  2  1  0
  5 12  1  0
  6  5  2  0
  7  8  1  0
  8  9  1  0
  9 10  1  0
 11 12  1  0
 11 13  1  0
 11 10  1  6
 13 14  2  0
 15 13  1  0
 15 16  1  0
 16 20  1  0
 16 17  1  1
 18 22  1  0
 18 17  1  0
 19 18  2  0
 20 23  2  0
 20 21  1  0
M  END
$$$$
