CMD.pdb
     RDKit          3D

 23 22  0  0  1  0  0  0  0  0999 V2000
   31.8062  -10.6643  -21.5350 N   0  0  0  0  0  0  0  0  0  0  0  0
   30.5225  -10.0095  -21.7408 C   0  0  1  0  0  0  0  0  0  0  0  0
   29.6374  -10.7170  -22.7090 C   0  0  0  0  0  0  0  0  0  0  0  0
   29.0269  -12.2517  -22.0024 S   0  0  0  0  0  0  0  0  0  0  0  0
   29.9168   -9.8158  -20.3918 C   0  0  0  0  0  0  0  0  0  0  0  0
   28.9348   -9.0154  -20.2788 O   0  0  0  0  0  0  0  0  0  0  0  0
   26.1593  -13.6628  -16.9274 C   0  0  0  0  0  0  0  0  0  0  0  0
   27.4486  -12.4773  -16.5074 S   0  0  0  0  0  0  0  0  0  0  0  0
   28.8471  -12.5916  -17.6402 C   0  0  0  0  0  0  0  0  0  0  0  0
   29.9190  -11.6106  -17.2013 C   0  0  0  0  0  0  0  0  0  0  0  0
   29.7557  -10.2890  -17.9175 C   0  0  2  0  0  0  0  0  0  0  0  0
   30.3700  -10.4663  -19.2343 N   0  0  0  0  0  0  0  0  0  0  0  0
   30.4852   -9.2496  -17.1616 C   0  0  0  0  0  0  0  0  0  0  0  0
   29.8887   -8.6846  -16.2024 O   0  0  0  0  0  0  0  0  0  0  0  0
   31.8085   -8.8459  -17.4370 N   0  0  0  0  0  0  0  0  0  0  0  0
   32.4152   -7.8156  -16.6426 C   0  0  1  0  0  0  0  0  0  0  0  0
   33.7615   -8.2644  -16.0735 C   0  0  0  0  0  0  0  0  0  0  0  0
   34.2553   -7.1628  -15.2163 C   0  0  0  0  0  0  0  0  0  0  0  0
   33.3904   -6.4428  -14.6270 O   0  0  0  0  0  0  0  0  0  0  0  0
   32.5846   -6.5534  -17.4056 C   0  0  0  0  0  0  0  0  0  0  0  0
   32.6689   -5.3266  -16.7339 O   0  0  0  0  0  0  0  0  0  0  0  0
   35.5889   -6.8624  -15.0131 O   0  0  0  0  0  0  0  0  0  0  0  0
   32.6567   -6.5395  -18.6544 O   0  0  0  0  0  0  0  0  0  0  0  0
  2  1  1  1
  3  2  1  0
  3  4  1  0
  5  2  1  0
  5 12  1  0
  6  5  2  0
  7  8  1  0
  8  9  1  0
  9 10  1  0
 11 12  1  0
 11 13  1  0
 11 10  1  1
 13 14  2  0
 15 13  1  0
 15 16  1  0
 16 20  1  0
 16 17  1  6
 18 22  1  0
 18 17  1  0
 19 18  2  0
 20 23  2  0
 20 21  1  0
M  END
$$$$
