CMD.pdb
     RDKit          3D

 23 22  0  0  1  0  0  0  0  0999 V2000
   19.3089  -12.6827  -16.9294 N   0  0  0  0  0  0  0  0  0  0  0  0
   19.6514  -11.3726  -17.4638 C   0  0  1  0  0  0  0  0  0  0  0  0
   18.4664  -10.5215  -17.7686 C   0  0  0  0  0  0  0  0  0  0  0  0
   17.4508  -11.2837  -19.0393 S   0  0  0  0  0  0  0  0  0  0  0  0
   20.6140  -10.7554  -16.5065 C   0  0  0  0  0  0  0  0  0  0  0  0
   20.3606  -10.8283  -15.2622 O   0  0  0  0  0  0  0  0  0  0  0  0
   26.6472  -11.6762  -16.0481 C   0  0  0  0  0  0  0  0  0  0  0  0
   26.7364   -9.8934  -15.8085 S   0  0  0  0  0  0  0  0  0  0  0  0
   25.1146   -9.1923  -15.4475 C   0  0  0  0  0  0  0  0  0  0  0  0
   24.0878   -9.8234  -16.3703 C   0  0  0  0  0  0  0  0  0  0  0  0
   22.6881   -9.4242  -15.9605 C   0  0  2  0  0  0  0  0  0  0  0  0
   21.7874  -10.0944  -16.8998 N   0  0  0  0  0  0  0  0  0  0  0  0
   22.5556   -7.9590  -16.0999 C   0  0  0  0  0  0  0  0  0  0  0  0
   22.4411   -7.4814  -17.2635 O   0  0  0  0  0  0  0  0  0  0  0  0
   22.5452   -7.0539  -15.0181 N   0  0  0  0  0  0  0  0  0  0  0  0
   22.1823   -5.6835  -15.2437 C   0  0  1  0  0  0  0  0  0  0  0  0
   20.7821   -5.5650  -15.8463 C   0  0  0  0  0  0  0  0  0  0  0  0
   20.5456   -4.1266  -16.1063 C   0  0  0  0  0  0  0  0  0  0  0  0
   21.4386   -3.4900  -16.7475 O   0  0  0  0  0  0  0  0  0  0  0  0
   22.2681   -4.8746  -14.0017 C   0  0  0  0  0  0  0  0  0  0  0  0
   22.5784   -5.4857  -12.7796 O   0  0  0  0  0  0  0  0  0  0  0  0
   19.4240   -3.4287  -15.7005 O   0  0  0  0  0  0  0  0  0  0  0  0
   22.0697   -3.6395  -14.0013 O   0  0  0  0  0  0  0  0  0  0  0  0
  2  1  1  1
  3  2  1  0
  3  4  1  0
  5  2  1  0
  5 12  1  0
  6  5  2  0
  7  8  1  0
  8  9  1  0
  9 10  1  0
 11 12  1  0
 11 13  1  0
 11 10  1  6
 13 14  2  0
 15 13  1  0
 15 16  1  0
 16 20  1  0
 16 17  1  1
 18 22  1  0
 18 17  1  0
 19 18  2  0
 20 23  2  0
 20 21  1  0
M  END
$$$$
