CMD.pdb
     RDKit          3D

 23 22  0  0  1  0  0  0  0  0999 V2000
   31.2776   -8.6704  -17.5874 N   0  0  0  0  0  0  0  0  0  0  0  0
   30.6887   -8.8141  -18.9109 C   0  0  1  0  0  0  0  0  0  0  0  0
   31.5946   -9.4599  -19.9028 C   0  0  0  0  0  0  0  0  0  0  0  0
   33.1679   -8.5959  -19.9781 S   0  0  0  0  0  0  0  0  0  0  0  0
   29.3860   -9.5170  -18.7285 C   0  0  0  0  0  0  0  0  0  0  0  0
   28.5965   -9.5953  -19.7225 O   0  0  0  0  0  0  0  0  0  0  0  0
   25.7740  -15.1672  -14.6480 C   0  0  0  0  0  0  0  0  0  0  0  0
   27.1574  -14.0387  -14.8855 S   0  0  0  0  0  0  0  0  0  0  0  0
   26.7683  -12.7605  -16.0967 C   0  0  0  0  0  0  0  0  0  0  0  0
   27.9984  -11.8990  -16.3173 C   0  0  0  0  0  0  0  0  0  0  0  0
   27.7266  -10.8419  -17.3636 C   0  0  2  0  0  0  0  0  0  0  0  0
   28.9776  -10.0979  -17.5185 N   0  0  0  0  0  0  0  0  0  0  0  0
   26.6685   -9.9412  -16.8604 C   0  0  0  0  0  0  0  0  0  0  0  0
   27.0179   -8.9408  -16.1733 O   0  0  0  0  0  0  0  0  0  0  0  0
   25.2898  -10.1213  -17.0984 N   0  0  0  0  0  0  0  0  0  0  0  0
   24.3624   -9.1004  -16.7007 C   0  0  1  0  0  0  0  0  0  0  0  0
   24.7559   -7.7339  -17.2626 C   0  0  0  0  0  0  0  0  0  0  0  0
   23.7569   -6.7604  -16.7661 C   0  0  0  0  0  0  0  0  0  0  0  0
   23.3176   -6.9189  -15.5847 O   0  0  0  0  0  0  0  0  0  0  0  0
   22.9705   -9.4289  -17.0989 C   0  0  0  0  0  0  0  0  0  0  0  0
   21.8919   -8.7250  -16.5470 O   0  0  0  0  0  0  0  0  0  0  0  0
   23.2688   -5.6935  -17.4964 O   0  0  0  0  0  0  0  0  0  0  0  0
   22.7145  -10.3307  -17.9272 O   0  0  0  0  0  0  0  0  0  0  0  0
  2  1  1  1
  3  2  1  0
  3  4  1  0
  5  2  1  0
  5 12  1  0
  6  5  2  0
  7  8  1  0
  8  9  1  0
  9 10  1  0
 11 12  1  0
 11 13  1  0
 11 10  1  1
 13 14  2  0
 15 13  1  0
 15 16  1  0
 16 20  1  0
 16 17  1  6
 18 22  1  0
 18 17  1  0
 19 18  2  0
 20 23  2  0
 20 21  1  0
M  END
$$$$
