CMD.pdb
     RDKit          3D

 23 22  0  0  1  0  0  0  0  0999 V2000
   20.2794  -19.7522  -13.4962 N   0  0  0  0  0  0  0  0  0  0  0  0
   21.0802  -20.9634  -13.3936 C   0  0  1  0  0  0  0  0  0  0  0  0
   20.9752  -21.8537  -14.5843 C   0  0  0  0  0  0  0  0  0  0  0  0
   19.3697  -22.6584  -14.6323 S   0  0  0  0  0  0  0  0  0  0  0  0
   22.4725  -20.5334  -13.0760 C   0  0  0  0  0  0  0  0  0  0  0  0
   22.9213  -19.4799  -13.6295 O   0  0  0  0  0  0  0  0  0  0  0  0
   27.7309  -19.6751   -7.9220 C   0  0  0  0  0  0  0  0  0  0  0  0
   26.2030  -20.3589   -8.5868 S   0  0  0  0  0  0  0  0  0  0  0  0
   26.4684  -21.1320  -10.1943 C   0  0  0  0  0  0  0  0  0  0  0  0
   25.1385  -21.6356  -10.7252 C   0  0  0  0  0  0  0  0  0  0  0  0
   24.6969  -20.8161  -11.9167 C   0  0  2  0  0  0  0  0  0  0  0  0
   23.3209  -21.2270  -12.1999 N   0  0  0  0  0  0  0  0  0  0  0  0
   25.5645  -21.1490  -13.0658 C   0  0  0  0  0  0  0  0  0  0  0  0
   25.5386  -22.3326  -13.5058 O   0  0  0  0  0  0  0  0  0  0  0  0
   26.4207  -20.2312  -13.7094 N   0  0  0  0  0  0  0  0  0  0  0  0
   27.1688  -20.6474  -14.8616 C   0  0  1  0  0  0  0  0  0  0  0  0
   27.7237  -19.4501  -15.6339 C   0  0  0  0  0  0  0  0  0  0  0  0
   26.5602  -18.6639  -16.1034 C   0  0  0  0  0  0  0  0  0  0  0  0
   26.6306  -17.3986  -16.0146 O   0  0  0  0  0  0  0  0  0  0  0  0
   28.2728  -21.5727  -14.5023 C   0  0  0  0  0  0  0  0  0  0  0  0
   28.8825  -22.3624  -15.4862 O   0  0  0  0  0  0  0  0  0  0  0  0
   25.4043  -19.2088  -16.6297 O   0  0  0  0  0  0  0  0  0  0  0  0
   28.6914  -21.6792  -13.3283 O   0  0  0  0  0  0  0  0  0  0  0  0
  2  1  1  6
  3  2  1  0
  3  4  1  0
  5  2  1  0
  5 12  1  0
  6  5  2  0
  7  8  1  0
  8  9  1  0
  9 10  1  0
 11 12  1  0
 11 13  1  0
 11 10  1  1
 13 14  2  0
 15 13  1  0
 15 16  1  0
 16 20  1  0
 16 17  1  1
 18 22  1  0
 18 17  1  0
 19 18  2  0
 20 23  2  0
 20 21  1  0
M  END
$$$$
