FDA.pdb
     RDKit          3D

 25 25  0  0  1  0  0  0  0  0999 V2000
   15.1466  -10.1508  -15.7092 N   0  0  0  0  0  0  0  0  0  0  0  0
   15.4101  -10.1667  -14.2744 C   0  0  1  0  0  0  0  0  0  0  0  0
   16.8446   -9.6196  -14.1352 C   0  0  0  0  0  0  0  0  0  0  0  0
   17.7120  -10.4483  -14.9929 C   0  0  0  0  0  0  0  0  0  0  0  0
   18.3401   -9.9698  -16.1344 C   0  0  0  0  0  0  0  0  0  0  0  0
   19.1335  -10.7665  -16.9211 C   0  0  0  0  0  0  0  0  0  0  0  0
   19.3280  -12.0909  -16.5851 C   0  0  0  0  0  0  0  0  0  0  0  0
   18.7174  -12.5836  -15.4645 C   0  0  0  0  0  0  0  0  0  0  0  0
   17.9120  -11.7876  -14.6595 C   0  0  0  0  0  0  0  0  0  0  0  0
   14.5370   -9.1340  -13.6351 C   0  0  0  0  0  0  0  0  0  0  0  0
   14.0495   -8.1705  -14.3036 O   0  0  0  0  0  0  0  0  0  0  0  0
   14.2446   -9.2258  -12.2628 N   0  0  0  0  0  0  0  0  0  0  0  0
   13.2973   -8.3737  -11.5476 C   0  0  1  0  0  0  0  0  0  0  0  0
   12.4105   -9.3861  -10.7769 C   0  0  0  0  0  0  0  0  0  0  0  0
   11.3596   -9.9494  -11.6475 C   0  0  0  0  0  0  0  0  0  0  0  0
   11.0125   -9.3072  -12.6791 O   0  0  0  0  0  0  0  0  0  0  0  0
   14.0840   -7.5705  -10.5781 C   0  0  0  0  0  0  0  0  0  0  0  0
   15.2389   -7.9341  -10.1703 O   0  0  0  0  0  0  0  0  0  0  0  0
   10.7845  -11.1556  -11.3174 O   0  0  0  0  0  0  0  0  0  0  0  0
   14.7808   -6.3526   -7.8453 C   0  0  0  0  0  0  0  0  0  0  0  0
   14.3110   -5.5500   -9.0449 C   0  0  2  0  0  0  0  0  0  0  0  0
   13.6169   -6.3287  -10.0238 N   0  0  0  0  0  0  0  0  0  0  0  0
   15.4217   -4.8267   -9.6873 C   0  0  0  0  0  0  0  0  0  0  0  0
   15.6906   -5.0320  -10.8894 O   0  0  0  0  0  0  0  0  0  0  0  0
   16.1651   -3.9247   -8.9690 O   0  0  0  0  0  0  0  0  0  0  0  0
  2  1  1  6
  2 10  1  0
  3  2  1  0
  4  9  2  0
  4  3  1  0
  5  4  1  0
  6  7  1  0
  6  5  2  0
  7  8  2  0
  8  9  1  0
 10 12  1  0
 11 10  2  0
 12 13  1  0
 13 17  1  0
 13 14  1  1
 15 19  1  0
 15 14  1  0
 16 15  2  0
 17 22  1  0
 17 18  2  0
 21 20  1  1
 22 21  1  0
 23 21  1  0
 23 25  1  0
 24 23  2  0
M  END
$$$$
