FDA.pdb
     RDKit          3D

 25 25  0  0  1  0  0  0  0  0999 V2000
   23.5413  -10.5086  -17.3220 N   0  0  0  0  0  0  0  0  0  0  0  0
   22.9736   -9.4813  -16.4555 C   0  0  1  0  0  0  0  0  0  0  0  0
   24.0297   -8.3584  -16.4382 C   0  0  0  0  0  0  0  0  0  0  0  0
   25.3229   -8.9819  -16.1012 C   0  0  0  0  0  0  0  0  0  0  0  0
   26.3948   -9.0419  -16.9810 C   0  0  0  0  0  0  0  0  0  0  0  0
   27.5841   -9.6385  -16.6450 C   0  0  0  0  0  0  0  0  0  0  0  0
   27.7424  -10.2039  -15.3960 C   0  0  0  0  0  0  0  0  0  0  0  0
   26.6982  -10.1568  -14.5135 C   0  0  0  0  0  0  0  0  0  0  0  0
   25.4892   -9.5557  -14.8411 C   0  0  0  0  0  0  0  0  0  0  0  0
   21.7909   -8.8911  -17.1559 C   0  0  0  0  0  0  0  0  0  0  0  0
   21.2658   -9.4572  -18.1642 O   0  0  0  0  0  0  0  0  0  0  0  0
   21.2423   -7.6822  -16.6926 N   0  0  0  0  0  0  0  0  0  0  0  0
   19.9827   -7.1015  -17.1520 C   0  0  1  0  0  0  0  0  0  0  0  0
   18.9147   -8.1030  -16.6405 C   0  0  0  0  0  0  0  0  0  0  0  0
   17.5638   -7.7292  -17.1040 C   0  0  0  0  0  0  0  0  0  0  0  0
   16.5967   -7.8097  -16.2944 O   0  0  0  0  0  0  0  0  0  0  0  0
   19.8205   -5.8056  -16.4463 C   0  0  0  0  0  0  0  0  0  0  0  0
   19.7469   -5.7274  -15.1731 O   0  0  0  0  0  0  0  0  0  0  0  0
   17.3891   -7.3034  -18.4012 O   0  0  0  0  0  0  0  0  0  0  0  0
   19.5604   -2.1012  -17.4561 C   0  0  0  0  0  0  0  0  0  0  0  0
   19.5057   -3.2792  -16.5004 C   0  0  2  0  0  0  0  0  0  0  0  0
   19.7346   -4.5433  -17.1295 N   0  0  0  0  0  0  0  0  0  0  0  0
   18.2349   -3.3213  -15.7570 C   0  0  0  0  0  0  0  0  0  0  0  0
   17.2775   -3.9953  -16.1911 O   0  0  0  0  0  0  0  0  0  0  0  0
   18.0971   -2.6211  -14.5852 O   0  0  0  0  0  0  0  0  0  0  0  0
  2  1  1  6
  2 10  1  0
  3  2  1  0
  4  9  2  0
  4  3  1  0
  5  4  1  0
  6  7  1  0
  6  5  2  0
  7  8  2  0
  8  9  1  0
 10 12  1  0
 11 10  2  0
 12 13  1  0
 13 17  1  0
 13 14  1  1
 15 19  1  0
 15 14  1  0
 16 15  2  0
 17 22  1  0
 17 18  2  0
 21 20  1  6
 22 21  1  0
 23 21  1  0
 23 25  1  0
 24 23  2  0
M  END
$$$$
