FDA.pdb
     RDKit          3D

 25 25  0  0  1  0  0  0  0  0999 V2000
   27.3449  -32.3080  -21.5329 N   0  0  0  0  0  0  0  0  0  0  0  0
   27.1599  -31.4941  -20.3363 C   0  0  1  0  0  0  0  0  0  0  0  0
   25.6311  -31.3701  -20.1815 C   0  0  0  0  0  0  0  0  0  0  0  0
   25.1729  -30.3738  -21.1674 C   0  0  0  0  0  0  0  0  0  0  0  0
   25.6690  -29.0792  -21.2330 C   0  0  0  0  0  0  0  0  0  0  0  0
   25.2164  -28.1683  -22.1542 C   0  0  0  0  0  0  0  0  0  0  0  0
   24.2357  -28.5296  -23.0555 C   0  0  0  0  0  0  0  0  0  0  0  0
   23.7318  -29.8005  -23.0079 C   0  0  0  0  0  0  0  0  0  0  0  0
   24.1816  -30.7322  -22.0806 C   0  0  0  0  0  0  0  0  0  0  0  0
   27.6052  -32.3010  -19.1582 C   0  0  0  0  0  0  0  0  0  0  0  0
   27.3077  -33.5304  -19.0446 O   0  0  0  0  0  0  0  0  0  0  0  0
   28.3717  -31.6911  -18.1494 N   0  0  0  0  0  0  0  0  0  0  0  0
   28.8734  -32.3645  -16.9536 C   0  0  1  0  0  0  0  0  0  0  0  0
   30.1035  -31.5117  -16.5475 C   0  0  0  0  0  0  0  0  0  0  0  0
   31.3437  -32.0384  -17.1509 C   0  0  0  0  0  0  0  0  0  0  0  0
   31.2785  -33.0702  -17.8776 O   0  0  0  0  0  0  0  0  0  0  0  0
   27.8223  -32.2392  -15.9129 C   0  0  0  0  0  0  0  0  0  0  0  0
   27.2748  -31.1204  -15.6282 O   0  0  0  0  0  0  0  0  0  0  0  0
   32.5372  -31.3967  -16.9094 O   0  0  0  0  0  0  0  0  0  0  0  0
   24.9087  -33.2782  -14.7007 C   0  0  0  0  0  0  0  0  0  0  0  0
   26.3204  -33.2862  -14.1429 C   0  0  2  0  0  0  0  0  0  0  0  0
   27.3368  -33.3552  -15.1471 N   0  0  0  0  0  0  0  0  0  0  0  0
   26.5164  -34.3721  -13.1674 C   0  0  0  0  0  0  0  0  0  0  0  0
   27.2531  -35.3406  -13.4481 O   0  0  0  0  0  0  0  0  0  0  0  0
   25.8916  -34.3249  -11.9469 O   0  0  0  0  0  0  0  0  0  0  0  0
  2  1  1  6
  2 10  1  0
  3  2  1  0
  4  9  2  0
  4  3  1  0
  5  4  1  0
  6  7  1  0
  6  5  2  0
  7  8  2  0
  8  9  1  0
 10 12  1  0
 11 10  2  0
 12 13  1  0
 13 17  1  0
 13 14  1  1
 15 19  1  0
 15 14  1  0
 16 15  2  0
 17 22  1  0
 17 18  2  0
 21 20  1  6
 22 21  1  0
 23 21  1  0
 23 25  1  0
 24 23  2  0
M  END
$$$$
