FDA.pdb
     RDKit          3D

 25 25  0  0  1  0  0  0  0  0999 V2000
   24.9668  -10.4518  -18.1511 N   0  0  0  0  0  0  0  0  0  0  0  0
   23.9978  -10.4482  -17.0605 C   0  0  1  0  0  0  0  0  0  0  0  0
   24.8416  -10.2242  -15.7899 C   0  0  0  0  0  0  0  0  0  0  0  0
   25.5158  -11.4997  -15.4843 C   0  0  0  0  0  0  0  0  0  0  0  0
   24.8371  -12.6568  -15.1282 C   0  0  0  0  0  0  0  0  0  0  0  0
   25.4907  -13.8281  -14.8380 C   0  0  0  0  0  0  0  0  0  0  0  0
   26.8686  -13.8805  -14.8960 C   0  0  0  0  0  0  0  0  0  0  0  0
   27.5576  -12.7510  -15.2440 C   0  0  0  0  0  0  0  0  0  0  0  0
   26.9079  -11.5592  -15.5404 C   0  0  0  0  0  0  0  0  0  0  0  0
   23.1610   -9.2154  -17.1931 C   0  0  0  0  0  0  0  0  0  0  0  0
   23.5933   -8.1802  -17.7883 O   0  0  0  0  0  0  0  0  0  0  0  0
   21.8646   -9.1952  -16.6490 N   0  0  0  0  0  0  0  0  0  0  0  0
   20.9480   -8.0587  -16.7062 C   0  0  1  0  0  0  0  0  0  0  0  0
   19.5531   -8.7088  -16.5135 C   0  0  0  0  0  0  0  0  0  0  0  0
   18.4773   -7.7003  -16.5847 C   0  0  0  0  0  0  0  0  0  0  0  0
   17.3643   -7.9560  -16.0434 O   0  0  0  0  0  0  0  0  0  0  0  0
   21.2547   -7.1959  -15.5378 C   0  0  0  0  0  0  0  0  0  0  0  0
   21.3793   -7.6669  -14.3567 O   0  0  0  0  0  0  0  0  0  0  0  0
   18.7097   -6.5102  -17.2359 O   0  0  0  0  0  0  0  0  0  0  0  0
   23.1861   -4.2548  -14.7801 C   0  0  0  0  0  0  0  0  0  0  0  0
   21.8370   -4.9161  -14.5639 C   0  0  2  0  0  0  0  0  0  0  0  0
   21.4362   -5.7729  -15.6370 N   0  0  0  0  0  0  0  0  0  0  0  0
   20.7787   -3.9258  -14.3020 C   0  0  0  0  0  0  0  0  0  0  0  0
   20.8612   -3.1679  -13.3129 O   0  0  0  0  0  0  0  0  0  0  0  0
   19.6985   -3.8311  -15.1425 O   0  0  0  0  0  0  0  0  0  0  0  0
  2  1  1  6
  2 10  1  0
  3  2  1  0
  4  9  2  0
  4  3  1  0
  5  4  1  0
  6  7  1  0
  6  5  2  0
  7  8  2  0
  8  9  1  0
 10 12  1  0
 11 10  2  0
 12 13  1  0
 13 17  1  0
 13 14  1  1
 15 19  1  0
 15 14  1  0
 16 15  2  0
 17 22  1  0
 17 18  2  0
 21 20  1  6
 22 21  1  0
 23 21  1  0
 23 25  1  0
 24 23  2  0
M  END
$$$$
