FDA.pdb
     RDKit          3D

 25 25  0  0  1  0  0  0  0  0999 V2000
   25.0290   -9.9052  -17.9694 N   0  0  0  0  0  0  0  0  0  0  0  0
   23.6658  -10.2931  -17.6232 C   0  0  1  0  0  0  0  0  0  0  0  0
   23.8291  -11.5480  -16.7428 C   0  0  0  0  0  0  0  0  0  0  0  0
   24.1742  -12.6670  -17.6391 C   0  0  0  0  0  0  0  0  0  0  0  0
   23.2428  -13.3333  -18.4234 C   0  0  0  0  0  0  0  0  0  0  0  0
   23.5897  -14.3795  -19.2409 C   0  0  0  0  0  0  0  0  0  0  0  0
   24.9027  -14.8002  -19.3014 C   0  0  0  0  0  0  0  0  0  0  0  0
   25.8371  -14.1581  -18.5357 C   0  0  0  0  0  0  0  0  0  0  0  0
   25.4990  -13.0976  -17.7043 C   0  0  0  0  0  0  0  0  0  0  0  0
   23.1084   -9.2479  -16.7099 C   0  0  0  0  0  0  0  0  0  0  0  0
   23.8151   -8.2726  -16.3072 O   0  0  0  0  0  0  0  0  0  0  0  0
   21.7717   -9.3406  -16.2835 N   0  0  0  0  0  0  0  0  0  0  0  0
   21.0822   -8.3487  -15.4613 C   0  0  1  0  0  0  0  0  0  0  0  0
   21.2555   -7.0317  -16.2619 C   0  0  0  0  0  0  0  0  0  0  0  0
   20.5548   -5.9098  -15.6063 C   0  0  0  0  0  0  0  0  0  0  0  0
   19.8042   -5.1687  -16.3023 O   0  0  0  0  0  0  0  0  0  0  0  0
   19.6468   -8.7266  -15.4398 C   0  0  0  0  0  0  0  0  0  0  0  0
   18.9600   -8.8562  -16.5093 O   0  0  0  0  0  0  0  0  0  0  0  0
   20.7341   -5.6975  -14.2582 O   0  0  0  0  0  0  0  0  0  0  0  0
   17.0728   -9.7144  -12.7586 C   0  0  0  0  0  0  0  0  0  0  0  0
   17.5351   -9.3369  -14.1542 C   0  0  2  0  0  0  0  0  0  0  0  0
   18.9175   -8.9766  -14.2260 N   0  0  0  0  0  0  0  0  0  0  0  0
   16.7137   -8.2578  -14.7288 C   0  0  0  0  0  0  0  0  0  0  0  0
   15.6594   -8.5309  -15.3399 O   0  0  0  0  0  0  0  0  0  0  0  0
   17.1022   -6.9488  -14.5953 O   0  0  0  0  0  0  0  0  0  0  0  0
  2  1  1  1
  2 10  1  0
  3  2  1  0
  4  9  2  0
  4  3  1  0
  5  4  1  0
  6  7  1  0
  6  5  2  0
  7  8  2  0
  8  9  1  0
 10 12  1  0
 11 10  2  0
 12 13  1  0
 13 17  1  0
 13 14  1  6
 15 19  1  0
 15 14  1  0
 16 15  2  0
 17 22  1  0
 17 18  2  0
 21 20  1  1
 22 21  1  0
 23 21  1  0
 23 25  1  0
 24 23  2  0
M  END
$$$$
