FDA.pdb
     RDKit          3D

 25 25  0  0  1  0  0  0  0  0999 V2000
   17.3789  -10.0115  -14.6045 N   0  0  0  0  0  0  0  0  0  0  0  0
   17.7376   -8.9569  -15.5466 C   0  0  1  0  0  0  0  0  0  0  0  0
   16.4201   -8.6162  -16.2709 C   0  0  0  0  0  0  0  0  0  0  0  0
   16.1163   -9.7414  -17.1744 C   0  0  0  0  0  0  0  0  0  0  0  0
   17.0067  -10.2200  -18.1255 C   0  0  0  0  0  0  0  0  0  0  0  0
   16.6936  -11.2622  -18.9616 C   0  0  0  0  0  0  0  0  0  0  0  0
   15.4579  -11.8702  -18.8713 C   0  0  0  0  0  0  0  0  0  0  0  0
   14.5645  -11.4137  -17.9413 C   0  0  0  0  0  0  0  0  0  0  0  0
   14.8692  -10.3598  -17.0889 C   0  0  0  0  0  0  0  0  0  0  0  0
   18.0752   -7.7314  -14.7580 C   0  0  0  0  0  0  0  0  0  0  0  0
   17.6220   -7.5505  -13.5855 O   0  0  0  0  0  0  0  0  0  0  0  0
   18.9134   -6.7530  -15.3213 N   0  0  0  0  0  0  0  0  0  0  0  0
   19.3514   -5.5333  -14.6464 C   0  0  1  0  0  0  0  0  0  0  0  0
   20.8857   -5.5256  -14.8726 C   0  0  0  0  0  0  0  0  0  0  0  0
   21.5743   -6.4052  -13.9074 C   0  0  0  0  0  0  0  0  0  0  0  0
   21.1484   -6.4586  -12.7187 O   0  0  0  0  0  0  0  0  0  0  0  0
   18.7406   -4.3927  -15.3741 C   0  0  0  0  0  0  0  0  0  0  0  0
   18.8106   -4.2788  -16.6447 O   0  0  0  0  0  0  0  0  0  0  0  0
   22.6594   -7.1436  -14.3220 O   0  0  0  0  0  0  0  0  0  0  0  0
   16.1403   -1.7386  -14.6399 C   0  0  0  0  0  0  0  0  0  0  0  0
   17.3642   -2.2502  -15.3779 C   0  0  2  0  0  0  0  0  0  0  0  0
   18.0259   -3.3323  -14.7165 N   0  0  0  0  0  0  0  0  0  0  0  0
   18.3305   -1.1718  -15.6470 C   0  0  0  0  0  0  0  0  0  0  0  0
   18.0040   -0.2027  -16.3638 O   0  0  0  0  0  0  0  0  0  0  0  0
   19.5927   -1.2264  -15.1119 O   0  0  0  0  0  0  0  0  0  0  0  0
  2  1  1  1
  2 10  1  0
  3  2  1  0
  4  9  2  0
  4  3  1  0
  5  4  1  0
  6  7  1  0
  6  5  2  0
  7  8  2  0
  8  9  1  0
 10 12  1  0
 11 10  2  0
 12 13  1  0
 13 17  1  0
 13 14  1  6
 15 19  1  0
 15 14  1  0
 16 15  2  0
 17 22  1  0
 17 18  2  0
 21 20  1  1
 22 21  1  0
 23 21  1  0
 23 25  1  0
 24 23  2  0
M  END
$$$$
