FDA.pdb
     RDKit          3D

 25 25  0  0  1  0  0  0  0  0999 V2000
   21.0276  -11.9801  -16.7898 N   0  0  0  0  0  0  0  0  0  0  0  0
   20.0085  -11.0520  -17.2680 C   0  0  1  0  0  0  0  0  0  0  0  0
   18.8093  -11.9468  -17.6391 C   0  0  0  0  0  0  0  0  0  0  0  0
   19.0556  -12.4635  -18.9981 C   0  0  0  0  0  0  0  0  0  0  0  0
   18.8287  -11.7232  -20.1501 C   0  0  0  0  0  0  0  0  0  0  0  0
   19.0561  -12.2331  -21.4037 C   0  0  0  0  0  0  0  0  0  0  0  0
   19.5262  -13.5226  -21.5479 C   0  0  0  0  0  0  0  0  0  0  0  0
   19.7557  -14.2704  -20.4256 C   0  0  0  0  0  0  0  0  0  0  0  0
   19.5299  -13.7660  -19.1509 C   0  0  0  0  0  0  0  0  0  0  0  0
   19.5414  -10.2410  -16.1011 C   0  0  0  0  0  0  0  0  0  0  0  0
   19.4688  -10.7370  -14.9342 O   0  0  0  0  0  0  0  0  0  0  0  0
   19.1728   -8.8977  -16.2929 N   0  0  0  0  0  0  0  0  0  0  0  0
   18.7929   -7.9714  -15.2286 C   0  0  1  0  0  0  0  0  0  0  0  0
   19.8104   -6.8106  -15.3789 C   0  0  0  0  0  0  0  0  0  0  0  0
   21.0821   -7.1208  -14.6962 C   0  0  0  0  0  0  0  0  0  0  0  0
   21.0486   -7.7426  -13.5965 O   0  0  0  0  0  0  0  0  0  0  0  0
   17.4308   -7.4770  -15.5508 C   0  0  0  0  0  0  0  0  0  0  0  0
   17.1070   -7.0867  -16.7235 O   0  0  0  0  0  0  0  0  0  0  0  0
   22.2697   -6.7274  -15.2701 O   0  0  0  0  0  0  0  0  0  0  0  0
   14.0679   -7.1930  -13.7162 C   0  0  0  0  0  0  0  0  0  0  0  0
   15.0511   -6.9156  -14.8389 C   0  0  2  0  0  0  0  0  0  0  0  0
   16.3728   -7.3978  -14.5803 N   0  0  0  0  0  0  0  0  0  0  0  0
   15.1060   -5.4828  -15.1756 C   0  0  0  0  0  0  0  0  0  0  0  0
   15.9922   -4.7564  -14.6791 O   0  0  0  0  0  0  0  0  0  0  0  0
   14.1851   -4.9399  -16.0354 O   0  0  0  0  0  0  0  0  0  0  0  0
  2  1  1  1
  2 10  1  0
  3  2  1  0
  4  9  2  0
  4  3  1  0
  5  4  1  0
  6  7  1  0
  6  5  2  0
  7  8  2  0
  8  9  1  0
 10 12  1  0
 11 10  2  0
 12 13  1  0
 13 17  1  0
 13 14  1  6
 15 19  1  0
 15 14  1  0
 16 15  2  0
 17 22  1  0
 17 18  2  0
 21 20  1  1
 22 21  1  0
 23 21  1  0
 23 25  1  0
 24 23  2  0
M  END
$$$$
