FDA.pdb
     RDKit          3D

 25 25  0  0  1  0  0  0  0  0999 V2000
   28.1308  -21.3611  -10.2442 N   0  0  0  0  0  0  0  0  0  0  0  0
   26.6958  -21.1309  -10.1164 C   0  0  1  0  0  0  0  0  0  0  0  0
   26.5809  -19.7472   -9.4465 C   0  0  0  0  0  0  0  0  0  0  0  0
   27.2921  -19.8271   -8.1572 C   0  0  0  0  0  0  0  0  0  0  0  0
   28.1230  -18.8233   -7.6792 C   0  0  0  0  0  0  0  0  0  0  0  0
   28.7820  -18.9286   -6.4800 C   0  0  0  0  0  0  0  0  0  0  0  0
   28.6280  -20.0612   -5.7066 C   0  0  0  0  0  0  0  0  0  0  0  0
   27.8143  -21.0634   -6.1593 C   0  0  0  0  0  0  0  0  0  0  0  0
   27.1414  -20.9692   -7.3712 C   0  0  0  0  0  0  0  0  0  0  0  0
   26.1360  -20.9445  -11.4910 C   0  0  0  0  0  0  0  0  0  0  0  0
   26.8864  -20.9140  -12.5151 O   0  0  0  0  0  0  0  0  0  0  0  0
   24.7478  -20.7995  -11.6608 N   0  0  0  0  0  0  0  0  0  0  0  0
   24.0378  -20.9435  -12.9298 C   0  0  1  0  0  0  0  0  0  0  0  0
   24.3134  -22.4154  -13.3335 C   0  0  0  0  0  0  0  0  0  0  0  0
   25.3010  -22.4951  -14.4280 C   0  0  0  0  0  0  0  0  0  0  0  0
   25.2416  -21.6507  -15.3664 O   0  0  0  0  0  0  0  0  0  0  0  0
   22.5919  -20.7753  -12.6385 C   0  0  0  0  0  0  0  0  0  0  0  0
   21.9948  -21.4552  -11.7365 O   0  0  0  0  0  0  0  0  0  0  0  0
   26.2595  -23.4825  -14.4016 O   0  0  0  0  0  0  0  0  0  0  0  0
   19.7279  -18.5669  -13.9542 C   0  0  0  0  0  0  0  0  0  0  0  0
   20.3430  -19.6922  -13.1421 C   0  0  2  0  0  0  0  0  0  0  0  0
   21.7518  -19.8422  -13.3392 N   0  0  0  0  0  0  0  0  0  0  0  0
   19.6702  -20.9781  -13.3931 C   0  0  0  0  0  0  0  0  0  0  0  0
   20.1216  -21.7637  -14.2526 O   0  0  0  0  0  0  0  0  0  0  0  0
   18.5459  -21.3189  -12.6846 O   0  0  0  0  0  0  0  0  0  0  0  0
  2  1  1  6
  2 10  1  0
  3  2  1  0
  4  9  2  0
  4  3  1  0
  5  4  1  0
  6  7  1  0
  6  5  2  0
  7  8  2  0
  8  9  1  0
 10 12  1  0
 11 10  2  0
 12 13  1  0
 13 17  1  0
 13 14  1  1
 15 19  1  0
 15 14  1  0
 16 15  2  0
 17 22  1  0
 17 18  2  0
 21 20  1  6
 22 21  1  0
 23 21  1  0
 23 25  1  0
 24 23  2  0
M  END
$$$$
