SLI.pdb
     RDKit          3D

 23 22  0  0  1  0  0  0  0  0999 V2000
   26.8718  -18.2346  -15.4720 O   0  0  0  0  0  0  0  0  0  0  0  0
   27.9923  -18.6268  -14.7832 C   0  0  0  0  0  0  0  0  0  0  0  0
   28.1441  -20.1220  -14.6742 C   0  0  2  0  0  0  0  0  0  0  0  0
   28.5465  -20.6846  -15.9494 N   0  0  0  0  0  0  0  0  0  0  0  0
   26.9596  -20.8058  -14.1708 C   0  0  0  0  0  0  0  0  0  0  0  0
   26.2727  -21.5305  -14.9347 O   0  0  0  0  0  0  0  0  0  0  0  0
   26.4821  -21.0572   -8.5419 C   0  0  0  0  0  0  0  0  0  0  0  0
   26.1725  -20.6021   -9.9246 C   0  0  2  0  0  0  0  0  0  0  0  0
   25.2971  -19.3413   -9.7897 C   0  0  0  0  0  0  0  0  0  0  0  0
   25.4287  -21.5295  -10.7958 C   0  0  0  0  0  0  0  0  0  0  0  0
   25.3843  -21.2778  -12.2510 C   0  0  2  0  0  0  0  0  0  0  0  0
   26.5752  -20.6553  -12.8095 N   0  0  0  0  0  0  0  0  0  0  0  0
   24.1585  -20.6128  -12.7276 C   0  0  0  0  0  0  0  0  0  0  0  0
   24.0581  -19.3752  -12.7063 O   0  0  0  0  0  0  0  0  0  0  0  0
   22.4736  -21.4685  -17.4119 C   0  0  0  0  0  0  0  0  0  0  0  0
   22.6997  -20.9371  -16.0162 C   0  0  0  0  0  0  0  0  0  0  0  0
   21.6163  -21.3090  -15.0671 C   0  0  2  0  0  0  0  0  0  0  0  0
   20.2366  -20.9727  -15.5847 C   0  0  0  0  0  0  0  0  0  0  0  0
   21.8187  -20.8368  -13.6487 C   0  0  2  0  0  0  0  0  0  0  0  0
   23.0927  -21.3963  -13.2117 N   0  0  0  0  0  0  0  0  0  0  0  0
   20.7338  -21.1532  -12.7244 C   0  0  0  0  0  0  0  0  0  0  0  0
   19.7975  -20.2009  -12.3659 O   0  0  0  0  0  0  0  0  0  0  0  0
   20.5887  -22.2934  -12.2058 O   0  0  0  0  0  0  0  0  0  0  0  0
  2  1  1  0
  3  2  1  0
  3  4  1  6
  5  6  2  0
  5  3  1  0
  8  7  1  1
  8 10  1  0
  9  8  1  0
 11 10  1  1
 11 12  1  0
 12  5  1  0
 13 11  1  0
 13 20  1  0
 14 13  2  0
 16 15  1  0
 17 19  1  0
 17 16  1  0
 17 18  1  6
 19 20  1  1
 19 21  1  0
 21 23  2  0
 21 22  1  0
M  END
$$$$
