SLI.pdb
     RDKit          3D

 23 22  0  0  1  0  0  0  0  0999 V2000
   22.1214  -18.3192  -15.0045 O   0  0  0  0  0  0  0  0  0  0  0  0
   23.0999  -17.5707  -15.6096 C   0  0  0  0  0  0  0  0  0  0  0  0
   23.9389  -18.3490  -16.5899 C   0  0  2  0  0  0  0  0  0  0  0  0
   23.1193  -18.8367  -17.6829 N   0  0  0  0  0  0  0  0  0  0  0  0
   24.6897  -19.4457  -15.9919 C   0  0  0  0  0  0  0  0  0  0  0  0
   24.3297  -20.6360  -16.1769 O   0  0  0  0  0  0  0  0  0  0  0  0
   29.8589  -20.2843  -12.4357 C   0  0  0  0  0  0  0  0  0  0  0  0
   28.7020  -20.7645  -13.2395 C   0  0  2  0  0  0  0  0  0  0  0  0
   29.2864  -21.4601  -14.4840 C   0  0  0  0  0  0  0  0  0  0  0  0
   27.7539  -19.7529  -13.7394 C   0  0  0  0  0  0  0  0  0  0  0  0
   26.5102  -20.1923  -14.4050 C   0  0  2  0  0  0  0  0  0  0  0  0
   25.8356  -19.1728  -15.1945 N   0  0  0  0  0  0  0  0  0  0  0  0
   25.5621  -20.9103  -13.5347 C   0  0  0  0  0  0  0  0  0  0  0  0
   25.3471  -22.1231  -13.6938 O   0  0  0  0  0  0  0  0  0  0  0  0
   26.4496  -20.5739   -8.6200 C   0  0  0  0  0  0  0  0  0  0  0  0
   25.8528  -21.0988   -9.9044 C   0  0  0  0  0  0  0  0  0  0  0  0
   24.5064  -20.5370  -10.1952 C   0  0  2  0  0  0  0  0  0  0  0  0
   23.4928  -20.8445   -9.1170 C   0  0  0  0  0  0  0  0  0  0  0  0
   23.9731  -20.8356  -11.5743 C   0  0  2  0  0  0  0  0  0  0  0  0
   24.8960  -20.2066  -12.5123 N   0  0  0  0  0  0  0  0  0  0  0  0
   22.5901  -20.4317  -11.8100 C   0  0  0  0  0  0  0  0  0  0  0  0
   21.5346  -21.1364  -11.2612 O   0  0  0  0  0  0  0  0  0  0  0  0
   22.2806  -19.4343  -12.5167 O   0  0  0  0  0  0  0  0  0  0  0  0
  2  1  1  0
  3  2  1  0
  3  4  1  6
  5  6  2  0
  5  3  1  0
  8  7  1  6
  8 10  1  0
  9  8  1  0
 11 10  1  1
 11 12  1  0
 12  5  1  0
 13 11  1  0
 13 20  1  0
 14 13  2  0
 16 15  1  0
 17 19  1  0
 17 16  1  0
 17 18  1  1
 19 20  1  6
 19 21  1  0
 21 23  2  0
 21 22  1  0
M  END
$$$$
