SLI.pdb
     RDKit          3D

 23 22  0  0  1  0  0  0  0  0999 V2000
   28.3927  -19.4088  -17.0526 O   0  0  0  0  0  0  0  0  0  0  0  0
   27.4041  -19.8889  -16.2304 C   0  0  0  0  0  0  0  0  0  0  0  0
   27.8094  -21.1082  -15.4434 C   0  0  2  0  0  0  0  0  0  0  0  0
   28.0157  -22.2378  -16.3299 N   0  0  0  0  0  0  0  0  0  0  0  0
   26.8816  -21.4645  -14.3774 C   0  0  0  0  0  0  0  0  0  0  0  0
   25.9282  -22.2523  -14.6031 O   0  0  0  0  0  0  0  0  0  0  0  0
   25.7928  -19.6993   -8.3979 C   0  0  0  0  0  0  0  0  0  0  0  0
   25.4056  -20.4090   -9.6475 C   0  0  2  0  0  0  0  0  0  0  0  0
   25.0658  -21.8574   -9.2464 C   0  0  0  0  0  0  0  0  0  0  0  0
   26.4148  -20.5031  -10.7174 C   0  0  0  0  0  0  0  0  0  0  0  0
   26.0000  -20.9344  -12.0683 C   0  0  2  0  0  0  0  0  0  0  0  0
   27.0518  -20.9206  -13.0741 N   0  0  0  0  0  0  0  0  0  0  0  0
   24.7695  -20.2982  -12.5712 C   0  0  0  0  0  0  0  0  0  0  0  0
   24.7894  -19.1377  -13.0131 O   0  0  0  0  0  0  0  0  0  0  0  0
   21.2170  -20.0694  -16.7093 C   0  0  0  0  0  0  0  0  0  0  0  0
   21.1752  -19.9045  -15.2085 C   0  0  0  0  0  0  0  0  0  0  0  0
   22.3349  -20.5317  -14.5195 C   0  0  2  0  0  0  0  0  0  0  0  0
   22.6412  -21.9224  -15.0261 C   0  0  0  0  0  0  0  0  0  0  0  0
   22.2902  -20.4758  -13.0127 C   0  0  2  0  0  0  0  0  0  0  0  0
   23.5606  -21.0207  -12.5476 N   0  0  0  0  0  0  0  0  0  0  0  0
   21.1475  -21.1437  -12.3967 C   0  0  0  0  0  0  0  0  0  0  0  0
   19.9770  -20.4585  -12.1273 O   0  0  0  0  0  0  0  0  0  0  0  0
   21.1594  -22.3636  -12.0779 O   0  0  0  0  0  0  0  0  0  0  0  0
  2  1  1  0
  3  2  1  0
  3  4  1  6
  5  6  2  0
  5  3  1  0
  8  7  1  1
  8 10  1  0
  9  8  1  0
 11 10  1  1
 11 12  1  0
 12  5  1  0
 13 11  1  0
 13 20  1  0
 14 13  2  0
 16 15  1  0
 17 19  1  0
 17 16  1  0
 17 18  1  1
 19 20  1  1
 19 21  1  0
 21 23  2  0
 21 22  1  0
M  END
$$$$
