SLI.pdb
     RDKit          3D

 23 22  0  0  1  0  0  0  0  0999 V2000
   26.5170  -18.7264  -15.1577 O   0  0  0  0  0  0  0  0  0  0  0  0
   27.5416  -18.9618  -14.2754 C   0  0  0  0  0  0  0  0  0  0  0  0
   27.7814  -20.4240  -14.0014 C   0  0  2  0  0  0  0  0  0  0  0  0
   28.1343  -21.1176  -15.2257 N   0  0  0  0  0  0  0  0  0  0  0  0
   26.6693  -21.0964  -13.3417 C   0  0  0  0  0  0  0  0  0  0  0  0
   26.0752  -22.0473  -13.9105 O   0  0  0  0  0  0  0  0  0  0  0  0
   26.8892  -21.0746   -7.9178 C   0  0  0  0  0  0  0  0  0  0  0  0
   26.2747  -20.5686   -9.1753 C   0  0  2  0  0  0  0  0  0  0  0  0
   25.4694  -19.3101   -8.7989 C   0  0  0  0  0  0  0  0  0  0  0  0
   25.3389  -21.4609   -9.8825 C   0  0  0  0  0  0  0  0  0  0  0  0
   25.1418  -21.2972  -11.3376 C   0  0  2  0  0  0  0  0  0  0  0  0
   26.2508  -20.6783  -12.0480 N   0  0  0  0  0  0  0  0  0  0  0  0
   23.8542  -20.6936  -11.7243 C   0  0  0  0  0  0  0  0  0  0  0  0
   23.0662  -20.2714  -10.8622 O   0  0  0  0  0  0  0  0  0  0  0  0
   23.6795  -18.2644  -16.5977 C   0  0  0  0  0  0  0  0  0  0  0  0
   23.4391  -18.6334  -15.1528 C   0  0  0  0  0  0  0  0  0  0  0  0
   22.4126  -19.6969  -14.9847 C   0  0  2  0  0  0  0  0  0  0  0  0
   21.1037  -19.3669  -15.6646 C   0  0  0  0  0  0  0  0  0  0  0  0
   22.2097  -20.1714  -13.5672 C   0  0  2  0  0  0  0  0  0  0  0  0
   23.5201  -20.5974  -13.0893 N   0  0  0  0  0  0  0  0  0  0  0  0
   21.1980  -21.2098  -13.3952 C   0  0  0  0  0  0  0  0  0  0  0  0
   19.9469  -20.9137  -12.8862 O   0  0  0  0  0  0  0  0  0  0  0  0
   21.4011  -22.4179  -13.6939 O   0  0  0  0  0  0  0  0  0  0  0  0
  2  1  1  0
  3  2  1  0
  3  4  1  6
  5  6  2  0
  5  3  1  0
  8  7  1  1
  8 10  1  0
  9  8  1  0
 11 10  1  1
 11 12  1  0
 12  5  1  0
 13 11  1  0
 13 20  1  0
 14 13  2  0
 16 15  1  0
 17 19  1  0
 17 16  1  0
 17 18  1  1
 19 20  1  6
 19 21  1  0
 21 23  2  0
 21 22  1  0
M  END
$$$$
