SLI.pdb
     RDKit          3D

 23 22  0  0  1  0  0  0  0  0999 V2000
   35.0134  -12.9416  -18.5602 O   0  0  0  0  0  0  0  0  0  0  0  0
   34.0136  -12.0112  -18.6971 C   0  0  0  0  0  0  0  0  0  0  0  0
   32.6727  -12.6083  -19.0376 C   0  0  2  0  0  0  0  0  0  0  0  0
   32.7398  -13.3160  -20.3022 N   0  0  0  0  0  0  0  0  0  0  0  0
   31.5790  -11.6452  -19.0543 C   0  0  0  0  0  0  0  0  0  0  0  0
   31.2274  -11.1031  -20.1328 O   0  0  0  0  0  0  0  0  0  0  0  0
   27.2268   -8.6490  -17.3312 C   0  0  0  0  0  0  0  0  0  0  0  0
   27.3957  -10.1149  -17.1375 C   0  0  2  0  0  0  0  0  0  0  0  0
   26.5213  -10.5052  -15.9303 C   0  0  0  0  0  0  0  0  0  0  0  0
   28.7518  -10.6107  -16.8421 C   0  0  0  0  0  0  0  0  0  0  0  0
   29.8535  -10.3086  -17.7791 C   0  0  2  0  0  0  0  0  0  0  0  0
   30.9033  -11.3141  -17.8471 N   0  0  0  0  0  0  0  0  0  0  0  0
   30.4176   -8.9527  -17.6556 C   0  0  0  0  0  0  0  0  0  0  0  0
   30.9126   -8.5659  -16.5843 O   0  0  0  0  0  0  0  0  0  0  0  0
   34.1688   -7.4926  -20.7053 C   0  0  0  0  0  0  0  0  0  0  0  0
   33.1465   -7.5680  -19.5959 C   0  0  0  0  0  0  0  0  0  0  0  0
   31.9798   -6.6714  -19.8149 C   0  0  2  0  0  0  0  0  0  0  0  0
   32.3798   -5.2500  -20.1377 C   0  0  0  0  0  0  0  0  0  0  0  0
   30.9178   -6.7310  -18.7452 C   0  0  2  0  0  0  0  0  0  0  0  0
   30.3918   -8.0911  -18.7696 N   0  0  0  0  0  0  0  0  0  0  0  0
   29.8604   -5.7309  -18.8588 C   0  0  0  0  0  0  0  0  0  0  0  0
   28.6630   -6.0226  -19.4859 O   0  0  0  0  0  0  0  0  0  0  0  0
   29.9738   -4.5615  -18.4010 O   0  0  0  0  0  0  0  0  0  0  0  0
  2  1  1  0
  3  2  1  0
  3  4  1  6
  5  6  2  0
  5  3  1  0
  8  7  1  1
  8 10  1  0
  9  8  1  0
 11 10  1  1
 11 12  1  0
 12  5  1  0
 13 11  1  0
 13 20  1  0
 14 13  2  0
 16 15  1  0
 17 19  1  0
 17 16  1  0
 17 18  1  1
 19 20  1  6
 19 21  1  0
 21 23  2  0
 21 22  1  0
M  END
$$$$
