SLI.pdb
     RDKit          3D

 23 22  0  0  1  0  0  0  0  0999 V2000
   20.4990  -11.1190  -20.7302 O   0  0  0  0  0  0  0  0  0  0  0  0
   19.8309  -12.1864  -20.1841 C   0  0  0  0  0  0  0  0  0  0  0  0
   20.6527  -12.9754  -19.1979 C   0  0  2  0  0  0  0  0  0  0  0  0
   19.8853  -14.0909  -18.6771 N   0  0  0  0  0  0  0  0  0  0  0  0
   21.1953  -12.1800  -18.1039 C   0  0  0  0  0  0  0  0  0  0  0  0
   20.4552  -11.8196  -17.1536 O   0  0  0  0  0  0  0  0  0  0  0  0
   26.7311  -10.5890  -15.6101 C   0  0  0  0  0  0  0  0  0  0  0  0
   25.2640  -10.3967  -15.7702 C   0  0  2  0  0  0  0  0  0  0  0  0
   24.6203  -10.7581  -14.4177 C   0  0  0  0  0  0  0  0  0  0  0  0
   24.5772  -11.2148  -16.7856 C   0  0  0  0  0  0  0  0  0  0  0  0
   23.1563  -10.9480  -17.0907 C   0  0  2  0  0  0  0  0  0  0  0  0
   22.5682  -11.8075  -18.1072 N   0  0  0  0  0  0  0  0  0  0  0  0
   22.8301   -9.5314  -17.3328 C   0  0  0  0  0  0  0  0  0  0  0  0
   23.3276   -8.9201  -18.2926 O   0  0  0  0  0  0  0  0  0  0  0  0
   19.1549   -5.9402  -18.9475 C   0  0  0  0  0  0  0  0  0  0  0  0
   19.5350   -6.1990  -17.5087 C   0  0  0  0  0  0  0  0  0  0  0  0
   20.1795   -7.5240  -17.3043 C   0  0  2  0  0  0  0  0  0  0  0  0
   19.2601   -8.5344  -16.6575 C   0  0  0  0  0  0  0  0  0  0  0  0
   21.5317   -7.4813  -16.6369 C   0  0  2  0  0  0  0  0  0  0  0  0
   21.9429   -8.8695  -16.4617 N   0  0  0  0  0  0  0  0  0  0  0  0
   21.5873   -6.7299  -15.3864 C   0  0  0  0  0  0  0  0  0  0  0  0
   21.7030   -7.3740  -14.1682 O   0  0  0  0  0  0  0  0  0  0  0  0
   21.5330   -5.4709  -15.3427 O   0  0  0  0  0  0  0  0  0  0  0  0
  2  1  1  0
  3  2  1  0
  3  4  1  1
  5  6  2  0
  5  3  1  0
  8  7  1  1
  8 10  1  0
  9  8  1  0
 11 10  1  6
 11 12  1  0
 12  5  1  0
 13 11  1  0
 13 20  1  0
 14 13  2  0
 16 15  1  0
 17 19  1  0
 17 16  1  0
 17 18  1  1
 19 20  1  1
 19 21  1  0
 21 23  2  0
 21 22  1  0
M  END
$$$$
