SLI.pdb
     RDKit          3D

 23 22  0  0  1  0  0  0  0  0999 V2000
   20.3197  -11.6856  -20.5070 O   0  0  0  0  0  0  0  0  0  0  0  0
   20.0190  -10.7258  -19.5731 C   0  0  0  0  0  0  0  0  0  0  0  0
   19.7560  -11.2806  -18.1970 C   0  0  2  0  0  0  0  0  0  0  0  0
   18.6101  -12.1699  -18.2199 N   0  0  0  0  0  0  0  0  0  0  0  0
   19.5865  -10.2634  -17.1672 C   0  0  0  0  0  0  0  0  0  0  0  0
   18.4385   -9.8438  -16.8727 O   0  0  0  0  0  0  0  0  0  0  0  0
   20.6668   -9.6460  -12.3324 C   0  0  0  0  0  0  0  0  0  0  0  0
   21.7013   -9.7625  -13.3960 C   0  0  2  0  0  0  0  0  0  0  0  0
   23.0698   -9.6704  -12.6939 C   0  0  0  0  0  0  0  0  0  0  0  0
   21.7098   -8.7351  -14.4526 C   0  0  0  0  0  0  0  0  0  0  0  0
   20.6257   -8.7196  -15.4565 C   0  0  2  0  0  0  0  0  0  0  0  0
   20.7224   -9.7399  -16.4896 N   0  0  0  0  0  0  0  0  0  0  0  0
   20.3372   -7.3958  -16.0363 C   0  0  0  0  0  0  0  0  0  0  0  0
   21.1143   -6.8779  -16.8548 O   0  0  0  0  0  0  0  0  0  0  0  0
   16.2115   -6.9239  -18.5970 C   0  0  0  0  0  0  0  0  0  0  0  0
   17.4830   -6.2032  -18.2155 C   0  0  0  0  0  0  0  0  0  0  0  0
   17.4345   -5.6173  -16.8490 C   0  0  2  0  0  0  0  0  0  0  0  0
   16.5734   -4.3778  -16.7681 C   0  0  0  0  0  0  0  0  0  0  0  0
   18.7772   -5.4170  -16.1912 C   0  0  2  0  0  0  0  0  0  0  0  0
   19.1644   -6.7161  -15.6532 N   0  0  0  0  0  0  0  0  0  0  0  0
   18.8259   -4.3664  -15.1786 C   0  0  0  0  0  0  0  0  0  0  0  0
   19.3290   -3.1121  -15.4714 O   0  0  0  0  0  0  0  0  0  0  0  0
   18.4204   -4.5370  -13.9969 O   0  0  0  0  0  0  0  0  0  0  0  0
  2  1  1  0
  3  2  1  0
  3  4  1  6
  5  6  2  0
  5  3  1  0
  8  7  1  1
  8 10  1  0
  9  8  1  0
 11 10  1  6
 11 12  1  0
 12  5  1  0
 13 11  1  0
 13 20  1  0
 14 13  2  0
 16 15  1  0
 17 19  1  0
 17 16  1  0
 17 18  1  6
 19 20  1  1
 19 21  1  0
 21 23  2  0
 21 22  1  0
M  END
$$$$
