SLI.pdb
     RDKit          3D

 23 22  0  0  1  0  0  0  0  0999 V2000
   20.8980   -7.9722  -20.6367 O   0  0  0  0  0  0  0  0  0  0  0  0
   21.6079   -9.1446  -20.7100 C   0  0  0  0  0  0  0  0  0  0  0  0
   21.1961  -10.1676  -19.6832 C   0  0  2  0  0  0  0  0  0  0  0  0
   19.8071  -10.5420  -19.8700 N   0  0  0  0  0  0  0  0  0  0  0  0
   21.4278   -9.7545  -18.3049 C   0  0  0  0  0  0  0  0  0  0  0  0
   20.4695   -9.3675  -17.5889 O   0  0  0  0  0  0  0  0  0  0  0  0
   23.4070  -12.2832  -15.0062 C   0  0  0  0  0  0  0  0  0  0  0  0
   24.3643  -11.4973  -15.8314 C   0  0  2  0  0  0  0  0  0  0  0  0
   25.7744  -11.8202  -15.3007 C   0  0  0  0  0  0  0  0  0  0  0  0
   24.2398  -10.0290  -15.8049 C   0  0  0  0  0  0  0  0  0  0  0  0
   23.0441   -9.3928  -16.3952 C   0  0  2  0  0  0  0  0  0  0  0  0
   22.7426   -9.7879  -17.7630 N   0  0  0  0  0  0  0  0  0  0  0  0
   22.9772   -7.9295  -16.2331 C   0  0  0  0  0  0  0  0  0  0  0  0
   23.5966   -7.1763  -17.0021 O   0  0  0  0  0  0  0  0  0  0  0  0
   19.1799   -3.6519  -15.9979 C   0  0  0  0  0  0  0  0  0  0  0  0
   20.5010   -4.0532  -15.3852 C   0  0  0  0  0  0  0  0  0  0  0  0
   20.7827   -5.5088  -15.5063 C   0  0  2  0  0  0  0  0  0  0  0  0
   19.6351   -6.3734  -15.0370 C   0  0  0  0  0  0  0  0  0  0  0  0
   22.1014   -5.9554  -14.9257 C   0  0  2  0  0  0  0  0  0  0  0  0
   22.1994   -7.3860  -15.1921 N   0  0  0  0  0  0  0  0  0  0  0  0
   22.2989   -5.6449  -13.5129 C   0  0  0  0  0  0  0  0  0  0  0  0
   22.7062   -4.3877  -13.1060 O   0  0  0  0  0  0  0  0  0  0  0  0
   22.1143   -6.4898  -12.5953 O   0  0  0  0  0  0  0  0  0  0  0  0
  2  1  1  0
  3  2  1  0
  3  4  1  1
  5  6  2  0
  5  3  1  0
  8  7  1  1
  8 10  1  0
  9  8  1  0
 11 10  1  6
 11 12  1  0
 12  5  1  0
 13 11  1  0
 13 20  1  0
 14 13  2  0
 16 15  1  0
 17 19  1  0
 17 16  1  0
 17 18  1  1
 19 20  1  1
 19 21  1  0
 21 23  2  0
 21 22  1  0
M  END
$$$$
