SLI.pdb
     RDKit          3D

 23 22  0  0  1  0  0  0  0  0999 V2000
   48.3291  -12.5328  -12.6926 O   0  0  0  0  0  0  0  0  0  0  0  0
   46.9858  -12.5356  -12.4115 C   0  0  0  0  0  0  0  0  0  0  0  0
   46.3340  -13.8836  -12.5811 C   0  0  2  0  0  0  0  0  0  0  0  0
   46.2389  -14.2268  -13.9874 N   0  0  0  0  0  0  0  0  0  0  0  0
   45.0288  -13.9985  -11.9429 C   0  0  0  0  0  0  0  0  0  0  0  0
   43.9884  -13.6560  -12.5601 O   0  0  0  0  0  0  0  0  0  0  0  0
   42.6719  -17.5438  -10.8104 C   0  0  0  0  0  0  0  0  0  0  0  0
   43.6653  -17.1019   -9.7941 C   0  0  2  0  0  0  0  0  0  0  0  0
   43.6568  -18.1629   -8.6767 C   0  0  0  0  0  0  0  0  0  0  0  0
   43.4324  -15.8052   -9.1335 C   0  0  0  0  0  0  0  0  0  0  0  0
   43.6688  -14.5560   -9.8863 C   0  0  2  0  0  0  0  0  0  0  0  0
   44.9269  -14.5000  -10.6156 N   0  0  0  0  0  0  0  0  0  0  0  0
   43.4377  -13.3182   -9.1207 C   0  0  0  0  0  0  0  0  0  0  0  0
   42.3691  -13.1364   -8.5146 O   0  0  0  0  0  0  0  0  0  0  0  0
   46.8013  -11.9985   -5.5611 C   0  0  0  0  0  0  0  0  0  0  0  0
   45.5293  -12.0316   -6.3751 C   0  0  0  0  0  0  0  0  0  0  0  0
   45.4830  -10.9829   -7.4291 C   0  0  2  0  0  0  0  0  0  0  0  0
   45.6691   -9.5866   -6.8814 C   0  0  0  0  0  0  0  0  0  0  0  0
   44.3045  -11.0702   -8.3666 C   0  0  2  0  0  0  0  0  0  0  0  0
   44.4450  -12.3344   -9.0801 N   0  0  0  0  0  0  0  0  0  0  0  0
   44.1460   -9.9402   -9.2773 C   0  0  0  0  0  0  0  0  0  0  0  0
   43.2731   -8.9066   -8.9911 O   0  0  0  0  0  0  0  0  0  0  0  0
   44.7833   -9.8411  -10.3608 O   0  0  0  0  0  0  0  0  0  0  0  0
  2  1  1  0
  3  2  1  0
  3  4  1  6
  5  6  2  0
  5  3  1  0
  8  7  1  6
  8 10  1  0
  9  8  1  0
 11 10  1  1
 11 12  1  0
 12  5  1  0
 13 11  1  0
 13 20  1  0
 14 13  2  0
 16 15  1  0
 17 19  1  0
 17 16  1  0
 17 18  1  1
 19 20  1  6
 19 21  1  0
 21 23  2  0
 21 22  1  0
M  END
$$$$
