STH.pdb
     RDKit          3D

 24 24  0  0  1  0  0  0  0  0999 V2000
   22.6896   -0.2337  -17.8530 O   0  0  0  0  0  0  0  0  0  0  0  0
   21.9435   -1.3720  -17.6293 C   0  0  0  0  0  0  0  0  0  0  0  0
   20.6039   -1.0374  -17.0012 C   0  0  2  0  0  0  0  0  0  0  0  0
   20.6015    0.2718  -16.4246 N   0  0  0  0  0  0  0  0  0  0  0  0
   20.3600   -2.0730  -15.9389 C   0  0  0  0  0  0  0  0  0  0  0  0
   19.9049   -1.7508  -14.8238 O   0  0  0  0  0  0  0  0  0  0  0  0
   18.1559   -3.2559  -14.8238 C   0  0  0  0  0  0  0  0  0  0  0  0
   18.6594   -4.6021  -15.3067 C   0  0  1  0  0  0  0  0  0  0  0  0
   18.1215   -4.8020  -16.5768 O   0  0  0  0  0  0  0  0  0  0  0  0
   20.1742   -4.5273  -15.3486 C   0  0  2  0  0  0  0  0  0  0  0  0
   20.6410   -3.4468  -16.1757 N   0  0  0  0  0  0  0  0  0  0  0  0
   20.6515   -5.8456  -15.8424 C   0  0  0  0  0  0  0  0  0  0  0  0
   20.7638   -6.0605  -17.0593 O   0  0  0  0  0  0  0  0  0  0  0  0
   20.9696   -6.8366  -14.8745 N   0  0  0  0  0  0  0  0  0  0  0  0
   21.4389   -8.1308  -15.2706 C   0  0  1  0  0  0  0  0  0  0  0  0
   22.5657   -8.5776  -14.3728 C   0  0  0  0  0  0  0  0  0  0  0  0
   23.1470   -9.8800  -14.7617 C   0  0  0  0  0  0  0  0  0  0  0  0
   22.7814  -10.6371  -15.8583 C   0  0  0  0  0  0  0  0  0  0  0  0
   23.5313  -11.7364  -15.8656 N   0  0  0  0  0  0  0  0  0  0  0  0
   24.3570  -11.6977  -14.8109 C   0  0  0  0  0  0  0  0  0  0  0  0
   24.1171  -10.5708  -14.1490 N   0  0  0  0  0  0  0  0  0  0  0  0
   20.3423   -9.1129  -15.3307 C   0  0  0  0  0  0  0  0  0  0  0  0
   19.4299   -9.0379  -14.4509 O   0  0  0  0  0  0  0  0  0  0  0  0
   20.2889  -10.0975  -16.3103 O   0  0  0  0  0  0  0  0  0  0  0  0
  2  1  1  0
  2  3  1  0
  3  5  1  0
  3  4  1  1
  5  6  2  0
  8  7  1  6
  8 10  1  0
  9  8  1  0
 10 11  1  6
 10 12  1  0
 11  5  1  0
 12 13  2  0
 12 14  1  0
 14 15  1  0
 15 22  1  0
 16 17  1  0
 15 16  1  1
 17 18  2  0
 19 18  1  0
 20 19  1  0
 21 20  2  0
 21 17  1  0
 22 23  2  0
 22 24  1  0
M  END
$$$$
