STH.pdb
     RDKit          3D

 24 24  0  0  1  0  0  0  0  0999 V2000
   30.7659  -27.9913  -19.3511 O   0  0  0  0  0  0  0  0  0  0  0  0
   31.6830  -28.2607  -18.3567 C   0  0  0  0  0  0  0  0  0  0  0  0
   32.5336  -29.4675  -18.7048 C   0  0  2  0  0  0  0  0  0  0  0  0
   33.0541  -29.3829  -20.0346 N   0  0  0  0  0  0  0  0  0  0  0  0
   31.6421  -30.6707  -18.5717 C   0  0  0  0  0  0  0  0  0  0  0  0
   31.2262  -31.2736  -19.5806 O   0  0  0  0  0  0  0  0  0  0  0  0
   32.3944  -33.7017  -16.6644 C   0  0  0  0  0  0  0  0  0  0  0  0
   31.0522  -33.2854  -16.0951 C   0  0  1  0  0  0  0  0  0  0  0  0
   31.3061  -32.6758  -14.8678 O   0  0  0  0  0  0  0  0  0  0  0  0
   30.4268  -32.3156  -17.0802 C   0  0  2  0  0  0  0  0  0  0  0  0
   31.2486  -31.1543  -17.2934 N   0  0  0  0  0  0  0  0  0  0  0  0
   29.0930  -31.9542  -16.5326 C   0  0  0  0  0  0  0  0  0  0  0  0
   28.8341  -30.7802  -16.2255 O   0  0  0  0  0  0  0  0  0  0  0  0
   28.1393  -32.9965  -16.3777 N   0  0  0  0  0  0  0  0  0  0  0  0
   26.8355  -32.7305  -15.8472 C   0  0  1  0  0  0  0  0  0  0  0  0
   26.1575  -31.6428  -16.6424 C   0  0  0  0  0  0  0  0  0  0  0  0
   24.7666  -31.3813  -16.2152 C   0  0  0  0  0  0  0  0  0  0  0  0
   24.1185  -31.9785  -15.1509 C   0  0  0  0  0  0  0  0  0  0  0  0
   22.8854  -31.4816  -15.0911 N   0  0  0  0  0  0  0  0  0  0  0  0
   22.7345  -30.5917  -16.0815 C   0  0  0  0  0  0  0  0  0  0  0  0
   23.8780  -30.5379  -16.7562 N   0  0  0  0  0  0  0  0  0  0  0  0
   26.0224  -33.9561  -15.7604 C   0  0  0  0  0  0  0  0  0  0  0  0
   24.8346  -33.8503  -15.3246 O   0  0  0  0  0  0  0  0  0  0  0  0
   26.5200  -35.1977  -16.1382 O   0  0  0  0  0  0  0  0  0  0  0  0
  2  1  1  0
  2  3  1  0
  3  5  1  0
  3  4  1  6
  5  6  2  0
  8  7  1  6
  8 10  1  0
  9  8  1  0
 10 11  1  1
 10 12  1  0
 11  5  1  0
 12 13  2  0
 12 14  1  0
 14 15  1  0
 15 22  1  0
 16 17  1  0
 15 16  1  6
 17 18  2  0
 19 18  1  0
 20 19  1  0
 21 20  2  0
 21 17  1  0
 22 23  2  0
 22 24  1  0
M  END
$$$$
