STH.pdb
     RDKit          3D

 24 24  0  0  1  0  0  0  0  0999 V2000
   24.8094  -20.8533   -8.4071 O   0  0  0  0  0  0  0  0  0  0  0  0
   25.6385  -20.2933   -9.3566 C   0  0  0  0  0  0  0  0  0  0  0  0
   25.9331  -21.2731  -10.4767 C   0  0  2  0  0  0  0  0  0  0  0  0
   27.3345  -21.5343  -10.5970 N   0  0  0  0  0  0  0  0  0  0  0  0
   25.4114  -20.6468  -11.7399 C   0  0  0  0  0  0  0  0  0  0  0  0
   25.9992  -19.6810  -12.2653 O   0  0  0  0  0  0  0  0  0  0  0  0
   24.7437  -22.1793  -14.9743 C   0  0  0  0  0  0  0  0  0  0  0  0
   23.3977  -21.5694  -14.6348 C   0  0  1  0  0  0  0  0  0  0  0  0
   22.5803  -22.6117  -14.2016 O   0  0  0  0  0  0  0  0  0  0  0  0
   23.6301  -20.5498  -13.5356 C   0  0  2  0  0  0  0  0  0  0  0  0
   24.2346  -21.1375  -12.3700 N   0  0  0  0  0  0  0  0  0  0  0  0
   22.3063  -19.9486  -13.2264 C   0  0  0  0  0  0  0  0  0  0  0  0
   21.7400  -20.1898  -12.1490 O   0  0  0  0  0  0  0  0  0  0  0  0
   21.7242  -19.0971  -14.2042 N   0  0  0  0  0  0  0  0  0  0  0  0
   20.4820  -18.4286  -13.9547 C   0  0  1  0  0  0  0  0  0  0  0  0
   20.6076  -16.9568  -14.2606 C   0  0  0  0  0  0  0  0  0  0  0  0
   19.3539  -16.2026  -14.0490 C   0  0  0  0  0  0  0  0  0  0  0  0
   18.1767  -16.7125  -13.5357 C   0  0  0  0  0  0  0  0  0  0  0  0
   17.2839  -15.7263  -13.5010 N   0  0  0  0  0  0  0  0  0  0  0  0
   17.8585  -14.6124  -13.9751 C   0  0  0  0  0  0  0  0  0  0  0  0
   19.1108  -14.9105  -14.3041 N   0  0  0  0  0  0  0  0  0  0  0  0
   19.3672  -19.0622  -14.6801 C   0  0  0  0  0  0  0  0  0  0  0  0
   19.6092  -19.5585  -15.8234 O   0  0  0  0  0  0  0  0  0  0  0  0
   18.0846  -19.1258  -14.1483 O   0  0  0  0  0  0  0  0  0  0  0  0
  2  1  1  0
  2  3  1  0
  3  5  1  0
  3  4  1  6
  5  6  2  0
  8  7  1  1
  8 10  1  0
  9  8  1  0
 10 11  1  1
 10 12  1  0
 11  5  1  0
 12 13  2  0
 12 14  1  0
 14 15  1  0
 15 22  1  0
 16 17  1  0
 15 16  1  6
 17 18  2  0
 19 18  1  0
 20 19  1  0
 21 20  2  0
 21 17  1  0
 22 23  2  0
 22 24  1  0
M  END
$$$$
