STH.pdb
     RDKit          3D

 24 24  0  0  1  0  0  0  0  0999 V2000
   27.7987  -25.0672  -16.7858 O   0  0  0  0  0  0  0  0  0  0  0  0
   27.0173  -24.0534  -17.2997 C   0  0  0  0  0  0  0  0  0  0  0  0
   26.8940  -22.9026  -16.3191 C   0  0  2  0  0  0  0  0  0  0  0  0
   26.6613  -23.3656  -14.9856 N   0  0  0  0  0  0  0  0  0  0  0  0
   25.7365  -22.0651  -16.7872 C   0  0  0  0  0  0  0  0  0  0  0  0
   25.7478  -21.5304  -17.9135 O   0  0  0  0  0  0  0  0  0  0  0  0
   22.0516  -22.8755  -16.8003 C   0  0  0  0  0  0  0  0  0  0  0  0
   22.1582  -21.6085  -15.9743 C   0  0  1  0  0  0  0  0  0  0  0  0
   22.0659  -21.9899  -14.6369 O   0  0  0  0  0  0  0  0  0  0  0  0
   23.5050  -20.9819  -16.2833 C   0  0  2  0  0  0  0  0  0  0  0  0
   24.5982  -21.8594  -15.9600 N   0  0  0  0  0  0  0  0  0  0  0  0
   23.5703  -19.7126  -15.5125 C   0  0  0  0  0  0  0  0  0  0  0  0
   24.4452  -19.5432  -14.6490 O   0  0  0  0  0  0  0  0  0  0  0  0
   22.6012  -18.7143  -15.8026 N   0  0  0  0  0  0  0  0  0  0  0  0
   22.8487  -17.3360  -15.5009 C   0  0  1  0  0  0  0  0  0  0  0  0
   24.1876  -16.9110  -16.0503 C   0  0  0  0  0  0  0  0  0  0  0  0
   24.5006  -15.4876  -15.8024 C   0  0  0  0  0  0  0  0  0  0  0  0
   23.7085  -14.5907  -15.1114 C   0  0  0  0  0  0  0  0  0  0  0  0
   24.3317  -13.4150  -15.1038 N   0  0  0  0  0  0  0  0  0  0  0  0
   25.4896  -13.5405  -15.7665 C   0  0  0  0  0  0  0  0  0  0  0  0
   25.5830  -14.7980  -16.1854 N   0  0  0  0  0  0  0  0  0  0  0  0
   21.7491  -16.4713  -15.9631 C   0  0  0  0  0  0  0  0  0  0  0  0
   21.8460  -15.2234  -15.7499 O   0  0  0  0  0  0  0  0  0  0  0  0
   20.6330  -16.9843  -16.6137 O   0  0  0  0  0  0  0  0  0  0  0  0
  2  1  1  0
  2  3  1  0
  3  5  1  0
  3  4  1  1
  5  6  2  0
  8  7  1  6
  8 10  1  0
  9  8  1  0
 10 11  1  1
 10 12  1  0
 11  5  1  0
 12 13  2  0
 12 14  1  0
 14 15  1  0
 15 22  1  0
 16 17  1  0
 15 16  1  6
 17 18  2  0
 19 18  1  0
 20 19  1  0
 21 20  2  0
 21 17  1  0
 22 23  2  0
 22 24  1  0
M  END
$$$$
