NCP.pdb
     RDKit          3D

 22 22  0  0  1  0  0  0  0  0999 V2000
   11.8401  -17.1342   18.4657 N   0  0  0  0  0  0  0  0  0  0  0  0
   11.5213  -17.0003   19.8384 C   0  0  0  0  0  0  0  0  0  0  0  0
   12.2389  -17.5655   20.6909 O   0  0  0  0  0  0  0  0  0  0  0  0
   10.3556  -16.2008   20.2295 C   0  0  0  0  0  0  0  0  0  0  0  0
    9.2752  -17.0695   20.8297 C   0  0  2  0  0  0  0  0  0  0  0  0
    8.6288  -17.8706   19.8315 N   0  0  0  0  0  0  0  0  0  0  0  0
    8.2924  -16.2377   21.5653 C   0  0  0  0  0  0  0  0  0  0  0  0
    7.2642  -15.7924   21.0170 O   0  0  0  0  0  0  0  0  0  0  0  0
    8.5234  -15.9415   22.9175 N   0  0  0  0  0  0  0  0  0  0  0  0
    7.5633  -15.2038   23.7522 C   0  0  1  0  0  0  0  0  0  0  0  0
    6.3959  -16.1805   23.9492 C   0  0  0  0  0  0  0  0  0  0  0  0
    6.9463  -17.5720   25.0003 S   0  0  0  0  0  0  0  0  0  0  0  0
    8.2227  -14.9060   25.0461 C   0  0  0  0  0  0  0  0  0  0  0  0
    9.2397  -15.5847   25.4265 O   0  0  0  0  0  0  0  0  0  0  0  0
    7.7760  -13.8807   25.9102 N   0  0  0  0  0  0  0  0  0  0  0  0
    6.5477  -13.1033   25.7078 C   0  0  0  0  0  0  0  0  0  0  0  0
    6.9247  -11.7540   26.3437 C   0  0  0  0  0  0  0  0  0  0  0  0
    7.5695  -12.2426   27.6193 C   0  0  0  0  0  0  0  0  0  0  0  0
    8.4108  -13.3975   27.1219 C   0  0  1  0  0  0  0  0  0  0  0  0
    8.4564  -14.4762   28.1351 C   0  0  0  0  0  0  0  0  0  0  0  0
    7.7019  -15.4585   28.0742 O   0  0  0  0  0  0  0  0  0  0  0  0
    9.3696  -14.3799   29.1781 O   0  0  0  0  0  0  0  0  0  0  0  0
  2  1  1  0
  3  2  2  0
  4  2  1  0
  4  5  1  0
  5  6  1  6
  7  5  1  0
  7  9  1  0
  8  7  2  0
 10 11  1  1
 10  9  1  0
 10 13  1  0
 12 11  1  0
 13 15  1  0
 14 13  2  0
 15 19  1  0
 15 16  1  0
 16 17  1  0
 18 17  1  0
 19 18  1  0
 19 20  1  1
 20 22  1  0
 21 20  2  0
M  END
$$$$
