NCP.pdb
     RDKit          3D

 22 22  0  0  1  0  0  0  0  0999 V2000
    7.3495  -13.3087   17.9840 N   0  0  0  0  0  0  0  0  0  0  0  0
    8.0906  -14.0818   18.9097 C   0  0  0  0  0  0  0  0  0  0  0  0
    8.5776  -15.1728   18.5439 O   0  0  0  0  0  0  0  0  0  0  0  0
    8.2705  -13.5849   20.2778 C   0  0  0  0  0  0  0  0  0  0  0  0
    8.4570  -14.7246   21.2517 C   0  0  2  0  0  0  0  0  0  0  0  0
    7.3643  -15.6511   21.1931 N   0  0  0  0  0  0  0  0  0  0  0  0
    8.6418  -14.2036   22.6277 C   0  0  0  0  0  0  0  0  0  0  0  0
    9.6097  -13.4784   22.9335 O   0  0  0  0  0  0  0  0  0  0  0  0
    7.7023  -14.5346   23.6162 N   0  0  0  0  0  0  0  0  0  0  0  0
    7.7915  -14.0499   25.0017 C   0  0  1  0  0  0  0  0  0  0  0  0
    6.3517  -14.1242   25.5282 C   0  0  0  0  0  0  0  0  0  0  0  0
    6.3043  -13.4886   27.2422 S   0  0  0  0  0  0  0  0  0  0  0  0
    8.6728  -14.9774   25.7506 C   0  0  0  0  0  0  0  0  0  0  0  0
    8.8361  -16.1822   25.3489 O   0  0  0  0  0  0  0  0  0  0  0  0
    9.3651  -14.5919   26.9209 N   0  0  0  0  0  0  0  0  0  0  0  0
    9.2366  -13.2794   27.5650 C   0  0  0  0  0  0  0  0  0  0  0  0
   10.6317  -13.1006   28.1886 C   0  0  0  0  0  0  0  0  0  0  0  0
   10.8185  -14.4704   28.7970 C   0  0  0  0  0  0  0  0  0  0  0  0
   10.3106  -15.3739   27.6948 C   0  0  1  0  0  0  0  0  0  0  0  0
    9.6364  -16.5601   28.2700 C   0  0  0  0  0  0  0  0  0  0  0  0
    8.4101  -16.7201   28.1778 O   0  0  0  0  0  0  0  0  0  0  0  0
   10.4022  -17.5145   28.9286 O   0  0  0  0  0  0  0  0  0  0  0  0
  2  1  1  0
  3  2  2  0
  4  2  1  0
  4  5  1  0
  5  6  1  1
  7  5  1  0
  7  9  1  0
  8  7  2  0
 10 11  1  1
 10  9  1  0
 10 13  1  0
 12 11  1  0
 13 15  1  0
 14 13  2  0
 15 19  1  0
 15 16  1  0
 16 17  1  0
 18 17  1  0
 19 18  1  0
 19 20  1  1
 20 22  1  0
 21 20  2  0
M  END
$$$$
