NCP.pdb
     RDKit          3D

 22 22  0  0  1  0  0  0  0  0999 V2000
    8.2286  -12.9581   17.3959 N   0  0  0  0  0  0  0  0  0  0  0  0
    8.7942  -13.4308   18.6044 C   0  0  0  0  0  0  0  0  0  0  0  0
   10.0009  -13.7540   18.6297 O   0  0  0  0  0  0  0  0  0  0  0  0
    7.9510  -13.5305   19.8002 C   0  0  0  0  0  0  0  0  0  0  0  0
    7.8028  -14.9668   20.2447 C   0  0  2  0  0  0  0  0  0  0  0  0
    7.1502  -15.7621   19.2459 N   0  0  0  0  0  0  0  0  0  0  0  0
    7.0806  -15.0357   21.5379 C   0  0  0  0  0  0  0  0  0  0  0  0
    5.8971  -14.6583   21.6530 O   0  0  0  0  0  0  0  0  0  0  0  0
    7.7454  -15.5397   22.6665 N   0  0  0  0  0  0  0  0  0  0  0  0
    7.1190  -15.6256   23.9942 C   0  0  1  0  0  0  0  0  0  0  0  0
    7.0118  -17.1314   24.2716 C   0  0  0  0  0  0  0  0  0  0  0  0
    6.5303  -17.3889   26.0168 S   0  0  0  0  0  0  0  0  0  0  0  0
    8.0291  -14.9761   24.9676 C   0  0  0  0  0  0  0  0  0  0  0  0
    9.2811  -15.2445   24.9631 O   0  0  0  0  0  0  0  0  0  0  0  0
    7.5757  -14.0465   25.9309 N   0  0  0  0  0  0  0  0  0  0  0  0
    6.1744  -13.6438   26.0982 C   0  0  0  0  0  0  0  0  0  0  0  0
    6.3240  -12.1994   26.6066 C   0  0  0  0  0  0  0  0  0  0  0  0
    7.4094  -12.4011   27.6374 C   0  0  0  0  0  0  0  0  0  0  0  0
    8.3641  -13.3222   26.9099 C   0  0  1  0  0  0  0  0  0  0  0  0
    8.9895  -14.2709   27.8592 C   0  0  0  0  0  0  0  0  0  0  0  0
    9.8488  -13.9041   28.6747 O   0  0  0  0  0  0  0  0  0  0  0  0
    8.5999  -15.6045   27.8307 O   0  0  0  0  0  0  0  0  0  0  0  0
  2  1  1  0
  3  2  2  0
  4  2  1  0
  4  5  1  0
  5  6  1  6
  7  5  1  0
  7  9  1  0
  8  7  2  0
 10 11  1  1
 10  9  1  0
 10 13  1  0
 12 11  1  0
 13 15  1  0
 14 13  2  0
 15 19  1  0
 15 16  1  0
 16 17  1  0
 18 17  1  0
 19 18  1  0
 19 20  1  1
 20 22  1  0
 21 20  2  0
M  END
$$$$
