NCP.pdb
     RDKit          3D

 22 22  0  0  1  0  0  0  0  0999 V2000
   10.2790  -16.2024   17.4450 N   0  0  0  0  0  0  0  0  0  0  0  0
    9.7753  -17.1299   18.3884 C   0  0  0  0  0  0  0  0  0  0  0  0
   10.1804  -18.3115   18.3607 O   0  0  0  0  0  0  0  0  0  0  0  0
    8.7889  -16.6830   19.3775 C   0  0  0  0  0  0  0  0  0  0  0  0
    9.3609  -16.7248   20.7751 C   0  0  2  0  0  0  0  0  0  0  0  0
    9.6101  -18.0708   21.2019 N   0  0  0  0  0  0  0  0  0  0  0  0
    8.4623  -16.0221   21.7226 C   0  0  0  0  0  0  0  0  0  0  0  0
    8.0223  -14.8784   21.4888 O   0  0  0  0  0  0  0  0  0  0  0  0
    8.0949  -16.6600   22.9174 N   0  0  0  0  0  0  0  0  0  0  0  0
    7.2861  -16.0083   23.9584 C   0  0  1  0  0  0  0  0  0  0  0  0
    6.5455  -17.1622   24.6482 C   0  0  0  0  0  0  0  0  0  0  0  0
    5.7867  -16.5506   26.1954 S   0  0  0  0  0  0  0  0  0  0  0  0
    8.2143  -15.3415   24.9026 C   0  0  0  0  0  0  0  0  0  0  0  0
    9.3986  -15.7962   25.0769 O   0  0  0  0  0  0  0  0  0  0  0  0
    7.8521  -14.1942   25.6442 N   0  0  0  0  0  0  0  0  0  0  0  0
    6.5441  -13.5336   25.5621 C   0  0  0  0  0  0  0  0  0  0  0  0
    6.9151  -12.0702   25.8588 C   0  0  0  0  0  0  0  0  0  0  0  0
    7.8317  -12.2726   27.0421 C   0  0  0  0  0  0  0  0  0  0  0  0
    8.6612  -13.4567   26.5960 C   0  0  1  0  0  0  0  0  0  0  0  0
    8.9941  -14.3183   27.7532 C   0  0  0  0  0  0  0  0  0  0  0  0
    8.4224  -15.4023   27.9433 O   0  0  0  0  0  0  0  0  0  0  0  0
    9.9725  -13.8964   28.6454 O   0  0  0  0  0  0  0  0  0  0  0  0
  2  1  1  0
  3  2  2  0
  4  2  1  0
  4  5  1  0
  5  6  1  1
  7  5  1  0
  7  9  1  0
  8  7  2  0
 10 11  1  1
 10  9  1  0
 10 13  1  0
 12 11  1  0
 13 15  1  0
 14 13  2  0
 15 19  1  0
 15 16  1  0
 16 17  1  0
 18 17  1  0
 19 18  1  0
 19 20  1  1
 20 22  1  0
 21 20  2  0
M  END
$$$$
