NCP.pdb
     RDKit          3D

 22 22  0  0  1  0  0  0  0  0999 V2000
    7.9471  -14.5330   16.8532 N   0  0  0  0  0  0  0  0  0  0  0  0
    8.4438  -13.6323   17.8259 C   0  0  0  0  0  0  0  0  0  0  0  0
    9.4953  -12.9992   17.5927 O   0  0  0  0  0  0  0  0  0  0  0  0
    7.7125  -13.4623   19.0858 C   0  0  0  0  0  0  0  0  0  0  0  0
    8.5283  -13.9508   20.2598 C   0  0  2  0  0  0  0  0  0  0  0  0
    9.0697  -15.2563   20.0176 N   0  0  0  0  0  0  0  0  0  0  0  0
    7.7136  -13.9323   21.4986 C   0  0  0  0  0  0  0  0  0  0  0  0
    7.1513  -12.8945   21.9024 O   0  0  0  0  0  0  0  0  0  0  0  0
    7.5696  -15.1150   22.2402 N   0  0  0  0  0  0  0  0  0  0  0  0
    6.8866  -15.1675   23.5415 C   0  0  1  0  0  0  0  0  0  0  0  0
    6.4228  -16.6246   23.6734 C   0  0  0  0  0  0  0  0  0  0  0  0
    5.9005  -16.9359   25.3980 S   0  0  0  0  0  0  0  0  0  0  0  0
    7.8815  -14.8364   24.5894 C   0  0  0  0  0  0  0  0  0  0  0  0
    9.0761  -15.2918   24.5158 O   0  0  0  0  0  0  0  0  0  0  0  0
    7.5739  -14.0189   25.7005 N   0  0  0  0  0  0  0  0  0  0  0  0
    6.2328  -13.5075   26.0067 C   0  0  0  0  0  0  0  0  0  0  0  0
    6.5591  -12.1764   26.7057 C   0  0  0  0  0  0  0  0  0  0  0  0
    7.6613  -12.6356   27.6308 C   0  0  0  0  0  0  0  0  0  0  0  0
    8.4783  -13.5297   26.7239 C   0  0  1  0  0  0  0  0  0  0  0  0
    9.0397  -14.6659   27.4895 C   0  0  0  0  0  0  0  0  0  0  0  0
    8.5583  -15.8060   27.4092 O   0  0  0  0  0  0  0  0  0  0  0  0
   10.1335  -14.4431   28.3172 O   0  0  0  0  0  0  0  0  0  0  0  0
  2  1  1  0
  3  2  2  0
  4  2  1  0
  4  5  1  0
  5  6  1  6
  7  5  1  0
  7  9  1  0
  8  7  2  0
 10 11  1  1
 10  9  1  0
 10 13  1  0
 12 11  1  0
 13 15  1  0
 14 13  2  0
 15 19  1  0
 15 16  1  0
 16 17  1  0
 18 17  1  0
 19 18  1  0
 19 20  1  1
 20 22  1  0
 21 20  2  0
M  END
$$$$
