NCP.pdb
     RDKit          3D

 22 22  0  0  1  0  0  0  0  0999 V2000
    9.7345  -17.3686   18.3962 N   0  0  0  0  0  0  0  0  0  0  0  0
    9.0805  -16.5509   19.3489 C   0  0  0  0  0  0  0  0  0  0  0  0
    7.8350  -16.4558   19.3208 O   0  0  0  0  0  0  0  0  0  0  0  0
    9.8795  -15.8337   20.3478 C   0  0  0  0  0  0  0  0  0  0  0  0
    9.7961  -16.5064   21.6980 C   0  0  2  0  0  0  0  0  0  0  0  0
    8.7691  -17.5066   21.7251 N   0  0  0  0  0  0  0  0  0  0  0  0
    9.5880  -15.4986   22.7656 C   0  0  0  0  0  0  0  0  0  0  0  0
   10.4020  -14.5751   22.9682 O   0  0  0  0  0  0  0  0  0  0  0  0
    8.4432  -15.5839   23.5729 N   0  0  0  0  0  0  0  0  0  0  0  0
    8.2615  -14.7845   24.7937 C   0  0  1  0  0  0  0  0  0  0  0  0
    6.7554  -14.8579   25.0802 C   0  0  0  0  0  0  0  0  0  0  0  0
    6.4088  -14.0561   26.6867 S   0  0  0  0  0  0  0  0  0  0  0  0
    9.0346  -15.4332   25.8796 C   0  0  0  0  0  0  0  0  0  0  0  0
    9.3425  -16.6738   25.8039 O   0  0  0  0  0  0  0  0  0  0  0  0
    9.4645  -14.7346   27.0305 N   0  0  0  0  0  0  0  0  0  0  0  0
    9.0941  -13.3499   27.3456 C   0  0  0  0  0  0  0  0  0  0  0  0
   10.3303  -12.8660   28.1233 C   0  0  0  0  0  0  0  0  0  0  0  0
   10.5388  -14.0507   29.0368 C   0  0  0  0  0  0  0  0  0  0  0  0
   10.3282  -15.2142   28.0929 C   0  0  1  0  0  0  0  0  0  0  0  0
    9.6818  -16.3424   28.8011 C   0  0  0  0  0  0  0  0  0  0  0  0
    8.4907  -16.6321   28.6132 O   0  0  0  0  0  0  0  0  0  0  0  0
   10.4338  -17.0918   29.6979 O   0  0  0  0  0  0  0  0  0  0  0  0
  2  1  1  0
  3  2  2  0
  4  2  1  0
  4  5  1  0
  5  6  1  6
  7  5  1  0
  7  9  1  0
  8  7  2  0
 10 11  1  1
 10  9  1  0
 10 13  1  0
 12 11  1  0
 13 15  1  0
 14 13  2  0
 15 19  1  0
 15 16  1  0
 16 17  1  0
 18 17  1  0
 19 18  1  0
 19 20  1  1
 20 22  1  0
 21 20  2  0
M  END
$$$$
