NCP.pdb
     RDKit          3D

 22 22  0  0  1  0  0  0  0  0999 V2000
    5.6883  -22.1750   23.8243 N   0  0  0  0  0  0  0  0  0  0  0  0
    4.6406  -21.2381   23.6557 C   0  0  0  0  0  0  0  0  0  0  0  0
    3.4850  -21.6491   23.4181 O   0  0  0  0  0  0  0  0  0  0  0  0
    4.9352  -19.8055   23.7639 C   0  0  0  0  0  0  0  0  0  0  0  0
    6.3960  -19.5708   24.0695 C   0  0  2  0  0  0  0  0  0  0  0  0
    6.7506  -20.0756   25.3639 N   0  0  0  0  0  0  0  0  0  0  0  0
    6.7239  -18.1295   23.9505 C   0  0  0  0  0  0  0  0  0  0  0  0
    6.1290  -17.2607   24.6194 O   0  0  0  0  0  0  0  0  0  0  0  0
    7.7321  -17.7288   23.0603 N   0  0  0  0  0  0  0  0  0  0  0  0
    8.1737  -16.3327   22.9247 C   0  0  1  0  0  0  0  0  0  0  0  0
    9.6281  -16.3405   23.4150 C   0  0  0  0  0  0  0  0  0  0  0  0
   10.3482  -14.6749   23.1887 S   0  0  0  0  0  0  0  0  0  0  0  0
    8.1060  -15.9734   21.4880 C   0  0  0  0  0  0  0  0  0  0  0  0
    8.1578  -16.8839   20.5892 O   0  0  0  0  0  0  0  0  0  0  0  0
    7.9830  -14.6379   21.0421 N   0  0  0  0  0  0  0  0  0  0  0  0
    7.9111  -13.4714   21.9298 C   0  0  0  0  0  0  0  0  0  0  0  0
    7.0427  -12.5055   21.1050 C   0  0  0  0  0  0  0  0  0  0  0  0
    7.6977  -12.6620   19.7530 C   0  0  0  0  0  0  0  0  0  0  0  0
    7.8998  -14.1594   19.6750 C   0  0  1  0  0  0  0  0  0  0  0  0
    9.1524  -14.4738   18.9509 C   0  0  0  0  0  0  0  0  0  0  0  0
    9.2168  -14.4312   17.7131 O   0  0  0  0  0  0  0  0  0  0  0  0
   10.2809  -14.8247   19.6820 O   0  0  0  0  0  0  0  0  0  0  0  0
  2  1  1  0
  3  2  2  0
  4  2  1  0
  4  5  1  0
  5  6  1  1
  7  5  1  0
  7  9  1  0
  8  7  2  0
 10 11  1  6
 10  9  1  0
 10 13  1  0
 12 11  1  0
 13 15  1  0
 14 13  2  0
 15 19  1  0
 15 16  1  0
 16 17  1  0
 18 17  1  0
 19 18  1  0
 19 20  1  6
 20 22  1  0
 21 20  2  0
M  END
$$$$
