NCP.pdb
     RDKit          3D

 22 22  0  0  1  0  0  0  0  0999 V2000
    8.8910  -16.8717   19.3941 N   0  0  0  0  0  0  0  0  0  0  0  0
    8.5303  -17.6124   20.5453 C   0  0  0  0  0  0  0  0  0  0  0  0
    8.5487  -18.8608   20.4998 O   0  0  0  0  0  0  0  0  0  0  0  0
    8.1431  -16.8976   21.7660 C   0  0  0  0  0  0  0  0  0  0  0  0
    8.1349  -15.4033   21.5434 C   0  0  2  0  0  0  0  0  0  0  0  0
    8.9973  -15.0276   20.4612 N   0  0  0  0  0  0  0  0  0  0  0  0
    8.5041  -14.6928   22.7915 C   0  0  0  0  0  0  0  0  0  0  0  0
    9.6750  -14.3290   23.0213 O   0  0  0  0  0  0  0  0  0  0  0  0
    7.5093  -14.4208   23.7434 N   0  0  0  0  0  0  0  0  0  0  0  0
    7.7994  -13.8393   25.0626 C   0  0  1  0  0  0  0  0  0  0  0  0
    6.4225  -13.4669   25.6294 C   0  0  0  0  0  0  0  0  0  0  0  0
    6.6251  -12.8264   27.3301 S   0  0  0  0  0  0  0  0  0  0  0  0
    8.4409  -14.8891   25.8896 C   0  0  0  0  0  0  0  0  0  0  0  0
    8.1900  -16.1264   25.6752 O   0  0  0  0  0  0  0  0  0  0  0  0
    9.3437  -14.5894   26.9348 N   0  0  0  0  0  0  0  0  0  0  0  0
    9.6012  -13.2375   27.4448 C   0  0  0  0  0  0  0  0  0  0  0  0
   11.0668  -13.3501   27.8995 C   0  0  0  0  0  0  0  0  0  0  0  0
   11.0086  -14.6717   28.6285 C   0  0  0  0  0  0  0  0  0  0  0  0
   10.1735  -15.5115   27.6870 C   0  0  1  0  0  0  0  0  0  0  0  0
    9.3222  -16.4512   28.4516 C   0  0  0  0  0  0  0  0  0  0  0  0
    9.7939  -17.4596   28.9979 O   0  0  0  0  0  0  0  0  0  0  0  0
    7.9610  -16.1914   28.5562 O   0  0  0  0  0  0  0  0  0  0  0  0
  2  1  1  0
  3  2  2  0
  4  2  1  0
  4  5  1  0
  5  6  1  6
  7  5  1  0
  7  9  1  0
  8  7  2  0
 10 11  1  1
 10  9  1  0
 10 13  1  0
 12 11  1  0
 13 15  1  0
 14 13  2  0
 15 19  1  0
 15 16  1  0
 16 17  1  0
 18 17  1  0
 19 18  1  0
 19 20  1  1
 20 22  1  0
 21 20  2  0
M  END
$$$$
