NCP.pdb
     RDKit          3D

 22 22  0  0  1  0  0  0  0  0999 V2000
   11.9910  -17.9300   20.3181 N   0  0  0  0  0  0  0  0  0  0  0  0
   12.0128  -16.5171   20.2334 C   0  0  0  0  0  0  0  0  0  0  0  0
   13.0323  -15.9466   19.7905 O   0  0  0  0  0  0  0  0  0  0  0  0
   10.8378  -15.7542   20.6675 C   0  0  0  0  0  0  0  0  0  0  0  0
    9.7735  -16.6661   21.2313 C   0  0  2  0  0  0  0  0  0  0  0  0
    9.1438  -17.4398   20.2014 N   0  0  0  0  0  0  0  0  0  0  0  0
    8.7741  -15.8827   21.9970 C   0  0  0  0  0  0  0  0  0  0  0  0
    8.3034  -14.8118   21.5634 O   0  0  0  0  0  0  0  0  0  0  0  0
    8.3439  -16.3573   23.2457 N   0  0  0  0  0  0  0  0  0  0  0  0
    7.3756  -15.6380   24.0867 C   0  0  1  0  0  0  0  0  0  0  0  0
    6.5402  -16.7454   24.7436 C   0  0  0  0  0  0  0  0  0  0  0  0
    7.6123  -17.7332   25.8475 S   0  0  0  0  0  0  0  0  0  0  0  0
    8.1372  -14.8795   25.1076 C   0  0  0  0  0  0  0  0  0  0  0  0
    9.3722  -15.1415   25.3218 O   0  0  0  0  0  0  0  0  0  0  0  0
    7.5563  -13.8496   25.8816 N   0  0  0  0  0  0  0  0  0  0  0  0
    6.1654  -13.3996   25.7515 C   0  0  0  0  0  0  0  0  0  0  0  0
    6.2800  -11.9162   26.1435 C   0  0  0  0  0  0  0  0  0  0  0  0
    7.1528  -12.0414   27.3699 C   0  0  0  0  0  0  0  0  0  0  0  0
    8.1844  -13.0515   26.9176 C   0  0  1  0  0  0  0  0  0  0  0  0
    8.5892  -13.9170   28.0487 C   0  0  0  0  0  0  0  0  0  0  0  0
    8.1330  -15.0617   28.1880 O   0  0  0  0  0  0  0  0  0  0  0  0
    9.5035  -13.4288   28.9744 O   0  0  0  0  0  0  0  0  0  0  0  0
  2  1  1  0
  3  2  2  0
  4  2  1  0
  4  5  1  0
  5  6  1  6
  7  5  1  0
  7  9  1  0
  8  7  2  0
 10 11  1  1
 10  9  1  0
 10 13  1  0
 12 11  1  0
 13 15  1  0
 14 13  2  0
 15 19  1  0
 15 16  1  0
 16 17  1  0
 18 17  1  0
 19 18  1  0
 19 20  1  1
 20 22  1  0
 21 20  2  0
M  END
$$$$
