NCP.pdb
     RDKit          3D

 22 22  0  0  1  0  0  0  0  0999 V2000
    8.5204  -12.3834   17.9945 N   0  0  0  0  0  0  0  0  0  0  0  0
    8.2693  -13.6843   18.4928 C   0  0  0  0  0  0  0  0  0  0  0  0
    8.5714  -14.6755   17.7946 O   0  0  0  0  0  0  0  0  0  0  0  0
    7.6601  -13.8398   19.8178 C   0  0  0  0  0  0  0  0  0  0  0  0
    8.6120  -14.5106   20.7802 C   0  0  2  0  0  0  0  0  0  0  0  0
    8.9165  -15.8507   20.3712 N   0  0  0  0  0  0  0  0  0  0  0  0
    8.0594  -14.4849   22.1560 C   0  0  0  0  0  0  0  0  0  0  0  0
    7.6337  -13.4339   22.6760 O   0  0  0  0  0  0  0  0  0  0  0  0
    8.0129  -15.6761   22.8966 N   0  0  0  0  0  0  0  0  0  0  0  0
    7.5125  -15.7426   24.2778 C   0  0  1  0  0  0  0  0  0  0  0  0
    7.0978  -17.2083   24.4660 C   0  0  0  0  0  0  0  0  0  0  0  0
    5.5032  -17.4961   23.6186 S   0  0  0  0  0  0  0  0  0  0  0  0
    8.6332  -15.3937   25.1833 C   0  0  0  0  0  0  0  0  0  0  0  0
    9.8011  -15.8805   24.9863 O   0  0  0  0  0  0  0  0  0  0  0  0
    8.4782  -14.5249   26.2872 N   0  0  0  0  0  0  0  0  0  0  0  0
    7.2723  -13.7322   26.5545 C   0  0  0  0  0  0  0  0  0  0  0  0
    7.8600  -12.5018   27.2671 C   0  0  0  0  0  0  0  0  0  0  0  0
    8.8073  -13.1870   28.2234 C   0  0  0  0  0  0  0  0  0  0  0  0
    9.4364  -14.2409   27.3387 C   0  0  1  0  0  0  0  0  0  0  0  0
    9.7133  -15.4695   28.1173 C   0  0  0  0  0  0  0  0  0  0  0  0
    8.9734  -16.4625   28.0513 O   0  0  0  0  0  0  0  0  0  0  0  0
   10.8319  -15.5048   28.9412 O   0  0  0  0  0  0  0  0  0  0  0  0
  2  1  1  0
  3  2  2  0
  4  2  1  0
  4  5  1  0
  5  6  1  6
  7  5  1  0
  7  9  1  0
  8  7  2  0
 10 11  1  1
 10  9  1  0
 10 13  1  0
 12 11  1  0
 13 15  1  0
 14 13  2  0
 15 19  1  0
 15 16  1  0
 16 17  1  0
 18 17  1  0
 19 18  1  0
 19 20  1  1
 20 22  1  0
 21 20  2  0
M  END
$$$$
