PDL.pdb
     RDKit          3D

 24 24  0  0  1  0  0  0  0  0999 V2000
   22.9921  -12.8775  -15.5595 N   0  0  0  0  0  0  0  0  0  0  0  0
   23.5521  -14.1827  -15.9033 C   0  0  0  0  0  0  0  0  0  0  0  0
   23.0141  -14.5372  -17.2474 C   0  0  0  0  0  0  0  0  0  0  0  0
   22.1917  -13.3253  -17.6364 C   0  0  0  0  0  0  0  0  0  0  0  0
   22.9010  -12.2326  -16.8606 C   0  0  1  0  0  0  0  0  0  0  0  0
   22.1722  -10.9622  -16.8083 C   0  0  0  0  0  0  0  0  0  0  0  0
   22.1513  -10.1182  -17.7441 O   0  0  0  0  0  0  0  0  0  0  0  0
   21.4318  -10.6428  -15.6325 N   0  0  0  0  0  0  0  0  0  0  0  0
   20.5760   -9.4319  -15.6034 C   0  0  1  0  0  0  0  0  0  0  0  0
   19.4007   -9.6953  -14.6946 C   0  0  0  0  0  0  0  0  0  0  0  0
   18.3689  -10.5383  -15.2926 C   0  0  0  0  0  0  0  0  0  0  0  0
   17.9920  -10.3758  -16.4687 O   0  0  0  0  0  0  0  0  0  0  0  0
   21.4054   -8.2901  -15.2168 C   0  0  0  0  0  0  0  0  0  0  0  0
   22.1860   -8.2569  -14.2358 O   0  0  0  0  0  0  0  0  0  0  0  0
   17.7468  -11.5771  -14.5692 O   0  0  0  0  0  0  0  0  0  0  0  0
   25.1383   -4.6840  -15.8938 C   0  0  0  0  0  0  0  0  0  0  0  0
   23.8982   -4.2829  -16.6264 C   0  0  1  0  0  0  0  0  0  0  0  0
   24.2162   -3.6418  -17.9854 C   0  0  0  0  0  0  0  0  0  0  0  0
   22.9682   -5.4279  -16.9263 C   0  0  0  0  0  0  0  0  0  0  0  0
   22.2208   -5.9713  -15.7561 C   0  0  2  0  0  0  0  0  0  0  0  0
   21.3484   -7.0803  -16.0104 N   0  0  0  0  0  0  0  0  0  0  0  0
   21.5845   -4.8908  -14.9511 C   0  0  0  0  0  0  0  0  0  0  0  0
   22.2595   -3.9631  -14.4701 O   0  0  0  0  0  0  0  0  0  0  0  0
   20.1918   -4.9567  -14.7523 O   0  0  0  0  0  0  0  0  0  0  0  0
  1  2  1  0
  2  3  1  0
  4  3  1  0
  5  4  1  0
  5  1  1  0
  5  6  1  1
  6  7  2  0
  8  6  1  0
  9  8  1  0
  9 13  1  0
  9 10  1  1
 11 10  1  0
 11 12  2  0
 13 14  2  0
 15 11  1  0
 17 18  1  6
 17 16  1  0
 19 17  1  0
 20 19  1  6
 21 13  1  0
 21 20  1  0
 22 24  1  0
 22 20  1  0
 23 22  2  0
M  END
$$$$
