PDL.pdb
     RDKit          3D

 24 24  0  0  1  0  0  0  0  0999 V2000
   28.1624  -21.6456  -14.6387 N   0  0  0  0  0  0  0  0  0  0  0  0
   28.7141  -22.1306  -15.9019 C   0  0  0  0  0  0  0  0  0  0  0  0
   28.0497  -21.3514  -16.9850 C   0  0  0  0  0  0  0  0  0  0  0  0
   27.1640  -20.3769  -16.2351 C   0  0  0  0  0  0  0  0  0  0  0  0
   27.9236  -20.2401  -14.9300 C   0  0  1  0  0  0  0  0  0  0  0  0
   27.1749  -19.5651  -13.8663 C   0  0  0  0  0  0  0  0  0  0  0  0
   26.6431  -18.4287  -13.9855 O   0  0  0  0  0  0  0  0  0  0  0  0
   27.0259  -20.2203  -12.6088 N   0  0  0  0  0  0  0  0  0  0  0  0
   25.7033  -20.2419  -11.9381 C   0  0  1  0  0  0  0  0  0  0  0  0
   24.6887  -20.8195  -12.8938 C   0  0  0  0  0  0  0  0  0  0  0  0
   23.4143  -20.1062  -12.9047 C   0  0  0  0  0  0  0  0  0  0  0  0
   23.3614  -18.8623  -12.9457 O   0  0  0  0  0  0  0  0  0  0  0  0
   25.8384  -20.9685  -10.6752 C   0  0  0  0  0  0  0  0  0  0  0  0
   25.9202  -22.2144  -10.5579 O   0  0  0  0  0  0  0  0  0  0  0  0
   22.1805  -20.7887  -12.8681 O   0  0  0  0  0  0  0  0  0  0  0  0
   28.2101  -18.4725   -6.2968 C   0  0  0  0  0  0  0  0  0  0  0  0
   27.7991  -19.4935   -7.3088 C   0  0  1  0  0  0  0  0  0  0  0  0
   28.8099  -20.6460   -7.4047 C   0  0  0  0  0  0  0  0  0  0  0  0
   26.4719  -20.1417   -7.0189 C   0  0  0  0  0  0  0  0  0  0  0  0
   25.8518  -20.8733   -8.1606 C   0  0  2  0  0  0  0  0  0  0  0  0
   25.8869  -20.2203   -9.4365 N   0  0  0  0  0  0  0  0  0  0  0  0
   24.5088  -21.4161   -7.8108 C   0  0  0  0  0  0  0  0  0  0  0  0
   23.5034  -21.1325   -8.4862 O   0  0  0  0  0  0  0  0  0  0  0  0
   24.4168  -22.2609   -6.6877 O   0  0  0  0  0  0  0  0  0  0  0  0
  1  2  1  0
  2  3  1  0
  4  3  1  0
  5  4  1  0
  5  1  1  0
  5  6  1  1
  6  7  2  0
  8  6  1  0
  9  8  1  0
  9 13  1  0
  9 10  1  6
 11 10  1  0
 11 12  2  0
 13 14  2  0
 15 11  1  0
 17 18  1  1
 17 16  1  0
 19 17  1  0
 20 19  1  1
 21 13  1  0
 21 20  1  0
 22 24  1  0
 22 20  1  0
 23 22  2  0
M  END
$$$$
