PDL.pdb
     RDKit          3D

 24 24  0  0  1  0  0  0  0  0999 V2000
   16.2950  -12.3140  -16.3279 N   0  0  0  0  0  0  0  0  0  0  0  0
   15.6727  -13.6359  -16.3501 C   0  0  0  0  0  0  0  0  0  0  0  0
   16.1249  -14.2995  -17.6059 C   0  0  0  0  0  0  0  0  0  0  0  0
   17.0754  -13.2928  -18.2220 C   0  0  0  0  0  0  0  0  0  0  0  0
   17.5680  -12.5652  -16.9863 C   0  0  1  0  0  0  0  0  0  0  0  0
   18.3073  -11.3319  -17.2693 C   0  0  0  0  0  0  0  0  0  0  0  0
   19.5014  -11.2979  -17.6710 O   0  0  0  0  0  0  0  0  0  0  0  0
   17.6506  -10.0798  -17.0861 N   0  0  0  0  0  0  0  0  0  0  0  0
   18.3561   -8.8187  -17.4198 C   0  0  1  0  0  0  0  0  0  0  0  0
   17.3589   -7.8506  -18.0070 C   0  0  0  0  0  0  0  0  0  0  0  0
   17.1276   -8.0356  -19.4372 C   0  0  0  0  0  0  0  0  0  0  0  0
   18.0503   -8.3468  -20.2141 O   0  0  0  0  0  0  0  0  0  0  0  0
   19.0394   -8.3404  -16.2176 C   0  0  0  0  0  0  0  0  0  0  0  0
   18.5398   -8.2895  -15.0684 O   0  0  0  0  0  0  0  0  0  0  0  0
   15.8496   -7.8703  -20.0105 O   0  0  0  0  0  0  0  0  0  0  0  0
   23.6481  -10.4001  -14.7728 C   0  0  0  0  0  0  0  0  0  0  0  0
   22.3405   -9.6778  -14.7096 C   0  0  1  0  0  0  0  0  0  0  0  0
   21.6618   -9.8379  -13.3411 C   0  0  0  0  0  0  0  0  0  0  0  0
   22.4504   -8.1938  -14.9363 C   0  0  0  0  0  0  0  0  0  0  0  0
   21.1608   -7.4829  -15.1702 C   0  0  2  0  0  0  0  0  0  0  0  0
   20.4084   -7.8810  -16.3239 N   0  0  0  0  0  0  0  0  0  0  0  0
   21.3076   -6.0057  -15.0407 C   0  0  0  0  0  0  0  0  0  0  0  0
   21.0538   -5.2470  -15.9934 O   0  0  0  0  0  0  0  0  0  0  0  0
   21.7450   -5.4977  -13.8021 O   0  0  0  0  0  0  0  0  0  0  0  0
  1  2  1  0
  2  3  1  0
  4  3  1  0
  5  4  1  0
  5  1  1  0
  5  6  1  6
  6  7  2  0
  8  6  1  0
  9  8  1  0
  9 13  1  0
  9 10  1  1
 11 10  1  0
 11 12  2  0
 13 14  2  0
 15 11  1  0
 17 18  1  1
 17 16  1  0
 19 17  1  0
 20 19  1  6
 21 13  1  0
 21 20  1  0
 22 24  1  0
 22 20  1  0
 23 22  2  0
M  END
$$$$
