PDL.pdb
     RDKit          3D

 24 24  0  0  1  0  0  0  0  0999 V2000
   19.7671  -10.6647  -16.9834 N   0  0  0  0  0  0  0  0  0  0  0  0
   20.2854  -11.6539  -17.9257 C   0  0  0  0  0  0  0  0  0  0  0  0
   19.3577  -11.6592  -19.0923 C   0  0  0  0  0  0  0  0  0  0  0  0
   18.3541  -10.5741  -18.7582 C   0  0  0  0  0  0  0  0  0  0  0  0
   19.1893   -9.6692  -17.8735 C   0  0  1  0  0  0  0  0  0  0  0  0
   18.4172   -8.6524  -17.1538 C   0  0  0  0  0  0  0  0  0  0  0  0
   17.9461   -7.6119  -17.6865 O   0  0  0  0  0  0  0  0  0  0  0  0
   18.1711   -8.8346  -15.7614 N   0  0  0  0  0  0  0  0  0  0  0  0
   17.3693   -7.8349  -15.0149 C   0  0  1  0  0  0  0  0  0  0  0  0
   16.3157   -8.5624  -14.2167 C   0  0  0  0  0  0  0  0  0  0  0  0
   15.0286   -7.8737  -14.1711 C   0  0  0  0  0  0  0  0  0  0  0  0
   14.6082   -7.2085  -15.1368 O   0  0  0  0  0  0  0  0  0  0  0  0
   18.2817   -7.0128  -14.2195 C   0  0  0  0  0  0  0  0  0  0  0  0
   17.9380   -6.1878  -13.3396 O   0  0  0  0  0  0  0  0  0  0  0  0
   14.1980   -7.9259  -13.0323 O   0  0  0  0  0  0  0  0  0  0  0  0
   21.4393   -8.4243  -10.2611 C   0  0  0  0  0  0  0  0  0  0  0  0
   22.0397   -8.3031  -11.6250 C   0  0  1  0  0  0  0  0  0  0  0  0
   23.0618   -9.4153  -11.9032 C   0  0  0  0  0  0  0  0  0  0  0  0
   21.0363   -8.3859  -12.7441 C   0  0  0  0  0  0  0  0  0  0  0  0
   20.6425   -7.0821  -13.3509 C   0  0  2  0  0  0  0  0  0  0  0  0
   19.7079   -7.1358  -14.4369 N   0  0  0  0  0  0  0  0  0  0  0  0
   21.8240   -6.2179  -13.6295 C   0  0  0  0  0  0  0  0  0  0  0  0
   22.3200   -6.1523  -14.7685 O   0  0  0  0  0  0  0  0  0  0  0  0
   22.3608   -5.4782  -12.5580 O   0  0  0  0  0  0  0  0  0  0  0  0
  1  2  1  0
  2  3  1  0
  4  3  1  0
  5  4  1  0
  5  1  1  0
  5  6  1  1
  6  7  2  0
  8  6  1  0
  9  8  1  0
  9 13  1  0
  9 10  1  1
 11 10  1  0
 11 12  2  0
 13 14  2  0
 15 11  1  0
 17 18  1  6
 17 16  1  0
 19 17  1  0
 20 19  1  6
 21 13  1  0
 21 20  1  0
 22 24  1  0
 22 20  1  0
 23 22  2  0
M  END
$$$$
