PDL.pdb
     RDKit          3D

 24 24  0  0  1  0  0  0  0  0999 V2000
   20.6800  -11.5039  -17.6531 N   0  0  0  0  0  0  0  0  0  0  0  0
   20.8195  -12.5281  -18.6860 C   0  0  0  0  0  0  0  0  0  0  0  0
   19.9192  -12.1306  -19.8055 C   0  0  0  0  0  0  0  0  0  0  0  0
   19.3416  -10.8060  -19.3491 C   0  0  0  0  0  0  0  0  0  0  0  0
   20.4487  -10.3039  -18.4429 C   0  0  1  0  0  0  0  0  0  0  0  0
   20.0746   -9.1518  -17.6180 C   0  0  0  0  0  0  0  0  0  0  0  0
   19.8667   -7.9940  -18.0705 O   0  0  0  0  0  0  0  0  0  0  0  0
   19.9300   -9.3321  -16.2111 N   0  0  0  0  0  0  0  0  0  0  0  0
   19.5015   -8.1956  -15.3599 C   0  0  1  0  0  0  0  0  0  0  0  0
   18.6998   -8.7374  -14.2023 C   0  0  0  0  0  0  0  0  0  0  0  0
   17.3864   -9.2509  -14.5822 C   0  0  0  0  0  0  0  0  0  0  0  0
   16.7311   -8.7460  -15.5135 O   0  0  0  0  0  0  0  0  0  0  0  0
   20.6897   -7.4318  -14.9781 C   0  0  0  0  0  0  0  0  0  0  0  0
   21.8518   -7.8937  -14.8823 O   0  0  0  0  0  0  0  0  0  0  0  0
   16.7939  -10.3426  -13.9140 O   0  0  0  0  0  0  0  0  0  0  0  0
   24.7711   -4.5416  -15.0158 C   0  0  0  0  0  0  0  0  0  0  0  0
   23.6885   -4.2593  -16.0077 C   0  0  1  0  0  0  0  0  0  0  0  0
   24.2054   -4.3141  -17.4530 C   0  0  0  0  0  0  0  0  0  0  0  0
   22.5395   -5.2301  -15.9513 C   0  0  0  0  0  0  0  0  0  0  0  0
   21.6694   -5.1256  -14.7450 C   0  0  2  0  0  0  0  0  0  0  0  0
   20.5519   -6.0216  -14.6800 N   0  0  0  0  0  0  0  0  0  0  0  0
   21.3128   -3.7121  -14.4363 C   0  0  0  0  0  0  0  0  0  0  0  0
   22.1903   -2.8652  -14.1903 O   0  0  0  0  0  0  0  0  0  0  0  0
   19.9472   -3.3679  -14.4314 O   0  0  0  0  0  0  0  0  0  0  0  0
  1  2  1  0
  2  3  1  0
  4  3  1  0
  5  4  1  0
  5  1  1  0
  5  6  1  1
  6  7  2  0
  8  6  1  0
  9  8  1  0
  9 13  1  0
  9 10  1  1
 11 10  1  0
 11 12  2  0
 13 14  2  0
 15 11  1  0
 17 18  1  6
 17 16  1  0
 19 17  1  0
 20 19  1  6
 21 13  1  0
 21 20  1  0
 22 24  1  0
 22 20  1  0
 23 22  2  0
M  END
$$$$
