PDL.pdb
     RDKit          3D

 24 24  0  0  1  0  0  0  0  0999 V2000
   19.2872  -11.9958  -19.6683 N   0  0  0  0  0  0  0  0  0  0  0  0
   19.2474  -13.3146  -20.2964 C   0  0  0  0  0  0  0  0  0  0  0  0
   20.4855  -13.4336  -21.1179 C   0  0  0  0  0  0  0  0  0  0  0  0
   21.2240  -12.1389  -20.8442 C   0  0  0  0  0  0  0  0  0  0  0  0
   20.7137  -11.8017  -19.4569 C   0  0  1  0  0  0  0  0  0  0  0  0
   21.0360  -10.4433  -19.0113 C   0  0  0  0  0  0  0  0  0  0  0  0
   22.1811  -10.0735  -18.6365 O   0  0  0  0  0  0  0  0  0  0  0  0
   20.0018   -9.4621  -18.9949 N   0  0  0  0  0  0  0  0  0  0  0  0
   20.3083   -8.0711  -18.5817 C   0  0  1  0  0  0  0  0  0  0  0  0
   19.3772   -7.1358  -19.3130 C   0  0  0  0  0  0  0  0  0  0  0  0
   19.6107   -5.7236  -19.0230 C   0  0  0  0  0  0  0  0  0  0  0  0
   20.5838   -5.3479  -18.3421 O   0  0  0  0  0  0  0  0  0  0  0  0
   20.2306   -7.9957  -17.1224 C   0  0  0  0  0  0  0  0  0  0  0  0
   19.2935   -8.4440  -16.4197 O   0  0  0  0  0  0  0  0  0  0  0  0
   18.7465   -4.7149  -19.4976 O   0  0  0  0  0  0  0  0  0  0  0  0
   20.5596   -8.7758  -12.2132 C   0  0  0  0  0  0  0  0  0  0  0  0
   21.9086   -8.7069  -12.8543 C   0  0  1  0  0  0  0  0  0  0  0  0
   22.7810   -9.9167  -12.4877 C   0  0  0  0  0  0  0  0  0  0  0  0
   21.8696   -8.6765  -14.3588 C   0  0  0  0  0  0  0  0  0  0  0  0
   21.3789   -7.4047  -14.9626 C   0  0  2  0  0  0  0  0  0  0  0  0
   21.3079   -7.3592  -16.3939 N   0  0  0  0  0  0  0  0  0  0  0  0
   22.0427   -6.2119  -14.3652 C   0  0  0  0  0  0  0  0  0  0  0  0
   22.7885   -5.4825  -15.0431 O   0  0  0  0  0  0  0  0  0  0  0  0
   21.7975   -5.9390  -13.0055 O   0  0  0  0  0  0  0  0  0  0  0  0
  1  2  1  0
  2  3  1  0
  4  3  1  0
  5  4  1  0
  5  1  1  0
  5  6  1  6
  6  7  2  0
  8  6  1  0
  9  8  1  0
  9 13  1  0
  9 10  1  6
 11 10  1  0
 11 12  2  0
 13 14  2  0
 15 11  1  0
 17 18  1  6
 17 16  1  0
 19 17  1  0
 20 19  1  6
 21 13  1  0
 21 20  1  0
 22 24  1  0
 22 20  1  0
 23 22  2  0
M  END
$$$$
