PDL.pdb
     RDKit          3D

 24 24  0  0  1  0  0  0  0  0999 V2000
   27.4819  -20.9638  -14.9644 N   0  0  0  0  0  0  0  0  0  0  0  0
   28.2614  -20.8314  -16.1932 C   0  0  0  0  0  0  0  0  0  0  0  0
   28.5399  -19.3775  -16.3673 C   0  0  0  0  0  0  0  0  0  0  0  0
   27.9286  -18.7443  -15.1337 C   0  0  0  0  0  0  0  0  0  0  0  0
   28.0207  -19.8895  -14.1442 C   0  0  1  0  0  0  0  0  0  0  0  0
   27.2531  -19.6835  -12.9129 C   0  0  0  0  0  0  0  0  0  0  0  0
   27.3997  -18.6963  -12.1433 O   0  0  0  0  0  0  0  0  0  0  0  0
   26.2716  -20.6500  -12.5453 N   0  0  0  0  0  0  0  0  0  0  0  0
   25.3139  -20.3530  -11.4525 C   0  0  1  0  0  0  0  0  0  0  0  0
   23.9632  -20.9076  -11.8327 C   0  0  0  0  0  0  0  0  0  0  0  0
   22.8724  -20.4428  -10.9801 C   0  0  0  0  0  0  0  0  0  0  0  0
   23.0724  -19.6648  -10.0280 O   0  0  0  0  0  0  0  0  0  0  0  0
   25.8626  -20.8798  -10.2025 C   0  0  0  0  0  0  0  0  0  0  0  0
   26.1444  -22.0816   -9.9810 O   0  0  0  0  0  0  0  0  0  0  0  0
   21.5390  -20.8517  -11.1905 O   0  0  0  0  0  0  0  0  0  0  0  0
   29.5903  -20.3993   -5.9500 C   0  0  0  0  0  0  0  0  0  0  0  0
   28.1476  -20.0183   -5.8553 C   0  0  1  0  0  0  0  0  0  0  0  0
   27.9130  -18.9122   -4.8158 C   0  0  0  0  0  0  0  0  0  0  0  0
   27.5680  -19.4946   -7.1420 C   0  0  0  0  0  0  0  0  0  0  0  0
   26.6437  -20.4226   -7.8545 C   0  0  2  0  0  0  0  0  0  0  0  0
   26.1167  -19.9670   -9.1076 N   0  0  0  0  0  0  0  0  0  0  0  0
   25.6048  -20.9817   -6.9441 C   0  0  0  0  0  0  0  0  0  0  0  0
   24.4357  -20.5570   -6.9630 O   0  0  0  0  0  0  0  0  0  0  0  0
   25.9926  -22.0073   -6.0603 O   0  0  0  0  0  0  0  0  0  0  0  0
  1  2  1  0
  2  3  1  0
  4  3  1  0
  5  4  1  0
  5  1  1  0
  5  6  1  1
  6  7  2  0
  8  6  1  0
  9  8  1  0
  9 13  1  0
  9 10  1  6
 11 10  1  0
 11 12  2  0
 13 14  2  0
 15 11  1  0
 17 18  1  1
 17 16  1  0
 19 17  1  0
 20 19  1  1
 21 13  1  0
 21 20  1  0
 22 24  1  0
 22 20  1  0
 23 22  2  0
M  END
$$$$
