QLM.pdb
     RDKit          3D

 26 25  0  0  1  0  0  0  0  0999 V2000
   30.6038  -25.1093  -16.0541 N   0  0  0  0  0  0  0  0  0  0  0  0
   29.9397  -24.5600  -17.1751 C   0  0  0  0  0  0  0  0  0  0  0  0
   30.1716  -24.9990  -18.3117 O   0  0  0  0  0  0  0  0  0  0  0  0
   28.9741  -23.4656  -16.9767 C   0  0  0  0  0  0  0  0  0  0  0  0
   27.6579  -24.0510  -16.5650 C   0  0  0  0  0  0  0  0  0  0  0  0
   26.5247  -23.0384  -16.6305 C   0  0  2  0  0  0  0  0  0  0  0  0
   26.8973  -21.8455  -17.3212 N   0  0  0  0  0  0  0  0  0  0  0  0
   26.1261  -22.7164  -15.2330 C   0  0  0  0  0  0  0  0  0  0  0  0
   25.6850  -23.6250  -14.4627 O   0  0  0  0  0  0  0  0  0  0  0  0
   28.8250  -21.3191  -12.6943 C   0  0  0  0  0  0  0  0  0  0  0  0
   28.1624  -20.0940  -13.3454 C   0  0  2  0  0  0  0  0  0  0  0  0
   29.0056  -18.9158  -12.9933 C   0  0  0  0  0  0  0  0  0  0  0  0
   26.7703  -20.0391  -12.8270 C   0  0  0  0  0  0  0  0  0  0  0  0
   25.8503  -21.1067  -13.3010 C   0  0  2  0  0  0  0  0  0  0  0  0
   26.2098  -21.4158  -14.6862 N   0  0  0  0  0  0  0  0  0  0  0  0
   24.4148  -20.7896  -13.1789 C   0  0  0  0  0  0  0  0  0  0  0  0
   23.9136  -20.4321  -12.0840 O   0  0  0  0  0  0  0  0  0  0  0  0
   21.0387  -17.1594  -16.8062 C   0  0  0  0  0  0  0  0  0  0  0  0
   19.5912  -18.1284  -16.2676 S   0  0  0  0  0  0  0  0  0  0  0  0
   20.1297  -19.3007  -15.0121 C   0  0  0  0  0  0  0  0  0  0  0  0
   21.6417  -19.4843  -15.0810 C   0  0  0  0  0  0  0  0  0  0  0  0
   22.0971  -20.5857  -14.1605 C   0  0  2  0  0  0  0  0  0  0  0  0
   23.5062  -20.8665  -14.2847 N   0  0  0  0  0  0  0  0  0  0  0  0
   21.3499  -21.8113  -14.5269 C   0  0  0  0  0  0  0  0  0  0  0  0
   20.2277  -22.0581  -14.0245 O   0  0  0  0  0  0  0  0  0  0  0  0
   21.9100  -22.6752  -15.4296 O   0  0  0  0  0  0  0  0  0  0  0  0
  1  2  1  0
  2  4  1  0
  2  3  2  0
  4  5  1  0
  5  6  1  0
  6  7  1  1
  8  9  2  0
  8  6  1  0
 11 10  1  1
 11 12  1  0
 14 13  1  6
 13 11  1  0
 14 15  1  0
 15  8  1  0
 16 14  1  0
 17 16  2  0
 19 18  1  0
 20 19  1  0
 21 20  1  0
 22 21  1  6
 22 24  1  0
 22 23  1  0
 23 16  1  0
 24 26  1  0
 25 24  2  0
M  END
$$$$
