QLM.pdb
     RDKit          3D

 26 25  0  0  1  0  0  0  0  0999 V2000
   19.9169  -20.0421  -10.2277 N   0  0  0  0  0  0  0  0  0  0  0  0
   19.7081  -19.8239  -11.6090 C   0  0  0  0  0  0  0  0  0  0  0  0
   18.6604  -19.2890  -12.0025 O   0  0  0  0  0  0  0  0  0  0  0  0
   20.7450  -20.2378  -12.5697 C   0  0  0  0  0  0  0  0  0  0  0  0
   21.9259  -20.7613  -11.8107 C   0  0  0  0  0  0  0  0  0  0  0  0
   23.1378  -20.9853  -12.7022 C   0  0  2  0  0  0  0  0  0  0  0  0
   22.9641  -22.0871  -13.5936 N   0  0  0  0  0  0  0  0  0  0  0  0
   24.3107  -21.2239  -11.8174 C   0  0  0  0  0  0  0  0  0  0  0  0
   24.4490  -22.3337  -11.2153 O   0  0  0  0  0  0  0  0  0  0  0  0
   28.3915  -21.9382  -12.5238 C   0  0  0  0  0  0  0  0  0  0  0  0
   28.0189  -20.4646  -12.7550 C   0  0  2  0  0  0  0  0  0  0  0  0
   29.1959  -19.8250  -13.4101 C   0  0  0  0  0  0  0  0  0  0  0  0
   27.6666  -19.9024  -11.4248 C   0  0  0  0  0  0  0  0  0  0  0  0
   26.4880  -20.5055  -10.7481 C   0  0  2  0  0  0  0  0  0  0  0  0
   25.3193  -20.2591  -11.5950 N   0  0  0  0  0  0  0  0  0  0  0  0
   26.2568  -20.0380   -9.3682 C   0  0  0  0  0  0  0  0  0  0  0  0
   25.5270  -19.0445   -9.1267 O   0  0  0  0  0  0  0  0  0  0  0  0
   30.0468  -22.0554   -4.5664 C   0  0  0  0  0  0  0  0  0  0  0  0
   29.0751  -20.8912   -3.5543 S   0  0  0  0  0  0  0  0  0  0  0  0
   27.8607  -20.0937   -4.6174 C   0  0  0  0  0  0  0  0  0  0  0  0
   27.8497  -20.7576   -5.9898 C   0  0  0  0  0  0  0  0  0  0  0  0
   26.9144  -20.0443   -6.9301 C   0  0  2  0  0  0  0  0  0  0  0  0
   26.8400  -20.6755   -8.2248 N   0  0  0  0  0  0  0  0  0  0  0  0
   27.4331  -18.6695   -7.1181 C   0  0  0  0  0  0  0  0  0  0  0  0
   28.2152  -18.3972   -8.0598 O   0  0  0  0  0  0  0  0  0  0  0  0
   27.0408  -17.6951   -6.2397 O   0  0  0  0  0  0  0  0  0  0  0  0
  1  2  1  0
  2  4  1  0
  2  3  2  0
  4  5  1  0
  5  6  1  0
  6  7  1  6
  8  9  2  0
  8  6  1  0
 11 10  1  1
 11 12  1  0
 14 13  1  6
 13 11  1  0
 14 15  1  0
 15  8  1  0
 16 14  1  0
 17 16  2  0
 19 18  1  0
 20 19  1  0
 21 20  1  0
 22 21  1  1
 22 24  1  0
 22 23  1  0
 23 16  1  0
 24 26  1  0
 25 24  2  0
M  END
$$$$
