QLM.pdb
     RDKit          3D

 26 25  0  0  1  0  0  0  0  0999 V2000
   13.4122   -9.4941  -15.4420 N   0  0  0  0  0  0  0  0  0  0  0  0
   13.9624  -10.2937  -16.4703 C   0  0  0  0  0  0  0  0  0  0  0  0
   13.2546  -10.6558  -17.4223 O   0  0  0  0  0  0  0  0  0  0  0  0
   15.3794  -10.6891  -16.3968 C   0  0  0  0  0  0  0  0  0  0  0  0
   15.9764  -10.1180  -15.1470 C   0  0  0  0  0  0  0  0  0  0  0  0
   17.4443  -10.4821  -14.9843 C   0  0  2  0  0  0  0  0  0  0  0  0
   17.6359  -11.8711  -14.7143 N   0  0  0  0  0  0  0  0  0  0  0  0
   17.9907   -9.6643  -13.8672 C   0  0  0  0  0  0  0  0  0  0  0  0
   17.9908  -10.1136  -12.6791 O   0  0  0  0  0  0  0  0  0  0  0  0
   21.9076   -5.0756  -13.3158 C   0  0  0  0  0  0  0  0  0  0  0  0
   20.8477   -5.8454  -12.5110 C   0  0  2  0  0  0  0  0  0  0  0  0
   21.5511   -6.4391  -11.3380 C   0  0  0  0  0  0  0  0  0  0  0  0
   20.2457   -6.8363  -13.4413 C   0  0  0  0  0  0  0  0  0  0  0  0
   19.0428   -7.5562  -12.9456 C   0  0  2  0  0  0  0  0  0  0  0  0
   18.5303   -8.3707  -14.0491 N   0  0  0  0  0  0  0  0  0  0  0  0
   17.9879   -6.6912  -12.3845 C   0  0  0  0  0  0  0  0  0  0  0  0
   17.2842   -5.9551  -13.1199 O   0  0  0  0  0  0  0  0  0  0  0  0
   12.9826   -5.5421   -6.3604 C   0  0  0  0  0  0  0  0  0  0  0  0
   14.6085   -6.2116   -6.8422 S   0  0  0  0  0  0  0  0  0  0  0  0
   14.9530   -5.7005   -8.5336 C   0  0  0  0  0  0  0  0  0  0  0  0
   16.2143   -6.3895   -9.0424 C   0  0  0  0  0  0  0  0  0  0  0  0
   16.5324   -5.9667  -10.4523 C   0  0  2  0  0  0  0  0  0  0  0  0
   17.6973   -6.6315  -10.9823 N   0  0  0  0  0  0  0  0  0  0  0  0
   16.8039   -4.5105  -10.4312 C   0  0  0  0  0  0  0  0  0  0  0  0
   15.8663   -3.6793  -10.3775 O   0  0  0  0  0  0  0  0  0  0  0  0
   18.1049   -4.0855  -10.4715 O   0  0  0  0  0  0  0  0  0  0  0  0
  1  2  1  0
  2  4  1  0
  2  3  2  0
  4  5  1  0
  5  6  1  0
  6  7  1  1
  8  9  2  0
  8  6  1  0
 11 10  1  6
 11 12  1  0
 14 13  1  6
 13 11  1  0
 14 15  1  0
 15  8  1  0
 16 14  1  0
 17 16  2  0
 19 18  1  0
 20 19  1  0
 21 20  1  0
 22 21  1  1
 22 24  1  0
 22 23  1  0
 23 16  1  0
 24 26  1  0
 25 24  2  0
M  END
$$$$
