QLM.pdb
     RDKit          3D

 26 25  0  0  1  0  0  0  0  0999 V2000
   23.2144  -23.7684  -18.5017 N   0  0  0  0  0  0  0  0  0  0  0  0
   22.9640  -25.1601  -18.4908 C   0  0  0  0  0  0  0  0  0  0  0  0
   22.4152  -25.7006  -19.4629 O   0  0  0  0  0  0  0  0  0  0  0  0
   23.3613  -25.9554  -17.3164 C   0  0  0  0  0  0  0  0  0  0  0  0
   23.9965  -25.0461  -16.3092 C   0  0  0  0  0  0  0  0  0  0  0  0
   25.4414  -24.7170  -16.6521 C   0  0  2  0  0  0  0  0  0  0  0  0
   26.2849  -25.8689  -16.6268 N   0  0  0  0  0  0  0  0  0  0  0  0
   25.9211  -23.7106  -15.6659 C   0  0  0  0  0  0  0  0  0  0  0  0
   26.3737  -24.0785  -14.5375 O   0  0  0  0  0  0  0  0  0  0  0  0
   26.7776  -17.6216  -15.6925 C   0  0  0  0  0  0  0  0  0  0  0  0
   26.8962  -18.8678  -14.8001 C   0  0  2  0  0  0  0  0  0  0  0  0
   28.3056  -18.9124  -14.3153 C   0  0  0  0  0  0  0  0  0  0  0  0
   26.4895  -20.0282  -15.6356 C   0  0  0  0  0  0  0  0  0  0  0  0
   26.3444  -21.3280  -14.9283 C   0  0  2  0  0  0  0  0  0  0  0  0
   25.9052  -22.3190  -15.9126 N   0  0  0  0  0  0  0  0  0  0  0  0
   25.4466  -21.3021  -13.7581 C   0  0  0  0  0  0  0  0  0  0  0  0
   24.2008  -21.4004  -13.8858 O   0  0  0  0  0  0  0  0  0  0  0  0
   27.1674  -18.9682   -7.9431 C   0  0  0  0  0  0  0  0  0  0  0  0
   25.6626  -19.8486   -7.4097 S   0  0  0  0  0  0  0  0  0  0  0  0
   24.7819  -20.4056   -8.8777 C   0  0  0  0  0  0  0  0  0  0  0  0
   25.7435  -20.5136  -10.0559 C   0  0  0  0  0  0  0  0  0  0  0  0
   25.0468  -21.0528  -11.2772 C   0  0  2  0  0  0  0  0  0  0  0  0
   25.9264  -21.1650  -12.4146 N   0  0  0  0  0  0  0  0  0  0  0  0
   23.9619  -20.1064  -11.6266 C   0  0  0  0  0  0  0  0  0  0  0  0
   24.1836  -19.1102  -12.3554 O   0  0  0  0  0  0  0  0  0  0  0  0
   22.7049  -20.3403  -11.1366 O   0  0  0  0  0  0  0  0  0  0  0  0
  1  2  1  0
  2  4  1  0
  2  3  2  0
  4  5  1  0
  5  6  1  0
  6  7  1  1
  8  9  2  0
  8  6  1  0
 11 10  1  6
 11 12  1  0
 14 13  1  6
 13 11  1  0
 14 15  1  0
 15  8  1  0
 16 14  1  0
 17 16  2  0
 19 18  1  0
 20 19  1  0
 21 20  1  0
 22 21  1  1
 22 24  1  0
 22 23  1  0
 23 16  1  0
 24 26  1  0
 25 24  2  0
M  END
$$$$
