QLM.pdb
     RDKit          3D

 26 25  0  0  1  0  0  0  0  0999 V2000
   19.3364  -30.9995   -6.3222 N   0  0  0  0  0  0  0  0  0  0  0  0
   18.1636  -31.4884   -6.9426 C   0  0  0  0  0  0  0  0  0  0  0  0
   17.1436  -30.7840   -6.9863 O   0  0  0  0  0  0  0  0  0  0  0  0
   18.1686  -32.8378   -7.5331 C   0  0  0  0  0  0  0  0  0  0  0  0
   19.5159  -33.4558   -7.3152 C   0  0  0  0  0  0  0  0  0  0  0  0
   20.2253  -33.7803   -8.6210 C   0  0  2  0  0  0  0  0  0  0  0  0
   19.6333  -34.8856   -9.3043 N   0  0  0  0  0  0  0  0  0  0  0  0
   21.6471  -34.0806   -8.2993 C   0  0  0  0  0  0  0  0  0  0  0  0
   22.0105  -35.2675   -8.0298 O   0  0  0  0  0  0  0  0  0  0  0  0
   26.4947  -34.1135   -9.2303 C   0  0  0  0  0  0  0  0  0  0  0  0
   26.3621  -32.6989   -8.6429 C   0  0  2  0  0  0  0  0  0  0  0  0
   27.0301  -32.7264   -7.3101 C   0  0  0  0  0  0  0  0  0  0  0  0
   24.9085  -32.3906   -8.6031 C   0  0  0  0  0  0  0  0  0  0  0  0
   24.0460  -33.3804   -7.9051 C   0  0  2  0  0  0  0  0  0  0  0  0
   22.6582  -33.0934   -8.2733 N   0  0  0  0  0  0  0  0  0  0  0  0
   24.2122  -33.4259   -6.4400 C   0  0  0  0  0  0  0  0  0  0  0  0
   23.9081  -32.4460   -5.7154 O   0  0  0  0  0  0  0  0  0  0  0  0
   22.1978  -38.0356   -2.7356 C   0  0  0  0  0  0  0  0  0  0  0  0
   23.6835  -37.6838   -1.7392 S   0  0  0  0  0  0  0  0  0  0  0  0
   24.3932  -36.1307   -2.3093 C   0  0  0  0  0  0  0  0  0  0  0  0
   24.2645  -36.0210   -3.8245 C   0  0  0  0  0  0  0  0  0  0  0  0
   24.7449  -34.6804   -4.3142 C   0  0  2  0  0  0  0  0  0  0  0  0
   24.7245  -34.5743   -5.7524 N   0  0  0  0  0  0  0  0  0  0  0  0
   26.1455  -34.5153   -3.8608 C   0  0  0  0  0  0  0  0  0  0  0  0
   27.1044  -34.8986   -4.5725 O   0  0  0  0  0  0  0  0  0  0  0  0
   26.3761  -33.9331   -2.6431 O   0  0  0  0  0  0  0  0  0  0  0  0
  1  2  1  0
  2  4  1  0
  2  3  2  0
  4  5  1  0
  5  6  1  0
  6  7  1  1
  8  9  2  0
  8  6  1  0
 11 10  1  1
 11 12  1  0
 14 13  1  1
 13 11  1  0
 14 15  1  0
 15  8  1  0
 16 14  1  0
 17 16  2  0
 19 18  1  0
 20 19  1  0
 21 20  1  0
 22 21  1  6
 22 24  1  0
 22 23  1  0
 23 16  1  0
 24 26  1  0
 25 24  2  0
M  END
$$$$
