QLM.pdb
     RDKit          3D

 26 25  0  0  1  0  0  0  0  0999 V2000
   31.2646  -23.1340  -18.1130 N   0  0  0  0  0  0  0  0  0  0  0  0
   30.1312  -22.8741  -18.9176 C   0  0  0  0  0  0  0  0  0  0  0  0
   30.0971  -23.2741  -20.0912 O   0  0  0  0  0  0  0  0  0  0  0  0
   28.9977  -22.1262  -18.3472 C   0  0  0  0  0  0  0  0  0  0  0  0
   29.3120  -21.7842  -16.9228 C   0  0  0  0  0  0  0  0  0  0  0  0
   28.3220  -22.3986  -15.9449 C   0  0  2  0  0  0  0  0  0  0  0  0
   27.0698  -22.7082  -16.5573 N   0  0  0  0  0  0  0  0  0  0  0  0
   28.1218  -21.4268  -14.8355 C   0  0  0  0  0  0  0  0  0  0  0  0
   29.1190  -20.9340  -14.2221 O   0  0  0  0  0  0  0  0  0  0  0  0
   27.2255  -17.2322  -14.2732 C   0  0  0  0  0  0  0  0  0  0  0  0
   26.1345  -18.1409  -14.8628 C   0  0  2  0  0  0  0  0  0  0  0  0
   25.0815  -17.2404  -15.4139 C   0  0  0  0  0  0  0  0  0  0  0  0
   25.6790  -19.0275  -13.7599 C   0  0  0  0  0  0  0  0  0  0  0  0
   26.6492  -20.0565  -13.3011 C   0  0  2  0  0  0  0  0  0  0  0  0
   26.8455  -21.0001  -14.4034 N   0  0  0  0  0  0  0  0  0  0  0  0
   26.2720  -20.7564  -12.0586 C   0  0  0  0  0  0  0  0  0  0  0  0
   25.5614  -21.7920  -12.0799 O   0  0  0  0  0  0  0  0  0  0  0  0
   28.5948  -19.5321   -6.0485 C   0  0  0  0  0  0  0  0  0  0  0  0
   26.9186  -20.0827   -5.5889 S   0  0  0  0  0  0  0  0  0  0  0  0
   26.1439  -20.8120   -7.0410 C   0  0  0  0  0  0  0  0  0  0  0  0
   26.7872  -20.2626   -8.3094 C   0  0  0  0  0  0  0  0  0  0  0  0
   26.1896  -20.8949   -9.5385 C   0  0  2  0  0  0  0  0  0  0  0  0
   26.6841  -20.3100  -10.7606 N   0  0  0  0  0  0  0  0  0  0  0  0
   24.7251  -20.6784   -9.4848 C   0  0  0  0  0  0  0  0  0  0  0  0
   24.1796  -19.7788  -10.1674 O   0  0  0  0  0  0  0  0  0  0  0  0
   23.9728  -21.4831   -8.6716 O   0  0  0  0  0  0  0  0  0  0  0  0
  1  2  1  0
  2  4  1  0
  2  3  2  0
  4  5  1  0
  5  6  1  0
  6  7  1  6
  8  9  2  0
  8  6  1  0
 11 10  1  1
 11 12  1  0
 14 13  1  6
 13 11  1  0
 14 15  1  0
 15  8  1  0
 16 14  1  0
 17 16  2  0
 19 18  1  0
 20 19  1  0
 21 20  1  0
 22 21  1  1
 22 24  1  0
 22 23  1  0
 23 16  1  0
 24 26  1  0
 25 24  2  0
M  END
$$$$
