QLM.pdb
     RDKit          3D

 26 25  0  0  1  0  0  0  0  0999 V2000
   33.7050  -21.1880  -19.8300 N   0  0  0  0  0  0  0  0  0  0  0  0
   34.8569  -21.4375  -20.6113 C   0  0  0  0  0  0  0  0  0  0  0  0
   35.5070  -20.4909  -21.0801 O   0  0  0  0  0  0  0  0  0  0  0  0
   35.2727  -22.8285  -20.8600 C   0  0  0  0  0  0  0  0  0  0  0  0
   34.3668  -23.7472  -20.0984 C   0  0  0  0  0  0  0  0  0  0  0  0
   35.1292  -24.6684  -19.1583 C   0  0  2  0  0  0  0  0  0  0  0  0
   35.8351  -25.6963  -19.8541 N   0  0  0  0  0  0  0  0  0  0  0  0
   34.1436  -25.2709  -18.2196 C   0  0  0  0  0  0  0  0  0  0  0  0
   33.4290  -26.2570  -18.5804 O   0  0  0  0  0  0  0  0  0  0  0  0
   34.6458  -26.9850  -14.0843 C   0  0  0  0  0  0  0  0  0  0  0  0
   34.6949  -25.4526  -14.1994 C   0  0  2  0  0  0  0  0  0  0  0  0
   35.1398  -24.9395  -12.8719 C   0  0  0  0  0  0  0  0  0  0  0  0
   33.3354  -25.0143  -14.6111 C   0  0  0  0  0  0  0  0  0  0  0  0
   32.9298  -25.3510  -16.0014 C   0  0  2  0  0  0  0  0  0  0  0  0
   33.9434  -24.7991  -16.9024 N   0  0  0  0  0  0  0  0  0  0  0  0
   31.5764  -24.9025  -16.3800 C   0  0  0  0  0  0  0  0  0  0  0  0
   31.3677  -23.7411  -16.8109 O   0  0  0  0  0  0  0  0  0  0  0  0
   28.5216  -26.1290  -21.2176 C   0  0  0  0  0  0  0  0  0  0  0  0
   27.6879  -24.6545  -20.5431 S   0  0  0  0  0  0  0  0  0  0  0  0
   27.7103  -24.7633  -18.7464 C   0  0  0  0  0  0  0  0  0  0  0  0
   29.1081  -25.1314  -18.2614 C   0  0  0  0  0  0  0  0  0  0  0  0
   29.1238  -25.3578  -16.7727 C   0  0  2  0  0  0  0  0  0  0  0  0
   30.4233  -25.7481  -16.2837 N   0  0  0  0  0  0  0  0  0  0  0  0
   28.1731  -26.4550  -16.4780 C   0  0  0  0  0  0  0  0  0  0  0  0
   26.9460  -26.2296  -16.3504 O   0  0  0  0  0  0  0  0  0  0  0  0
   28.6610  -27.7275  -16.3465 O   0  0  0  0  0  0  0  0  0  0  0  0
  1  2  1  0
  2  4  1  0
  2  3  2  0
  4  5  1  0
  5  6  1  0
  6  7  1  6
  8  9  2  0
  8  6  1  0
 11 10  1  1
 11 12  1  0
 14 13  1  1
 13 11  1  0
 14 15  1  0
 15  8  1  0
 16 14  1  0
 17 16  2  0
 19 18  1  0
 20 19  1  0
 21 20  1  0
 22 21  1  6
 22 24  1  0
 22 23  1  0
 23 16  1  0
 24 26  1  0
 25 24  2  0
M  END
$$$$
