QLM.pdb
     RDKit          3D

 26 25  0  0  1  0  0  0  0  0999 V2000
   17.8483  -21.9310  -15.8108 N   0  0  0  0  0  0  0  0  0  0  0  0
   18.1357  -22.5223  -17.0627 C   0  0  0  0  0  0  0  0  0  0  0  0
   17.9470  -21.8843  -18.1095 O   0  0  0  0  0  0  0  0  0  0  0  0
   18.6592  -23.8983  -17.1075 C   0  0  0  0  0  0  0  0  0  0  0  0
   18.9114  -24.3654  -15.7065 C   0  0  0  0  0  0  0  0  0  0  0  0
   20.1498  -23.7283  -15.0948 C   0  0  2  0  0  0  0  0  0  0  0  0
   21.3346  -24.4841  -15.3478 N   0  0  0  0  0  0  0  0  0  0  0  0
   19.9205  -23.6132  -13.6287 C   0  0  0  0  0  0  0  0  0  0  0  0
   20.1818  -24.5875  -12.8567 O   0  0  0  0  0  0  0  0  0  0  0  0
   21.0583  -20.7974   -9.9716 C   0  0  0  0  0  0  0  0  0  0  0  0
   20.2747  -20.1831  -11.1431 C   0  0  2  0  0  0  0  0  0  0  0  0
   20.1328  -18.7290  -10.8452 C   0  0  0  0  0  0  0  0  0  0  0  0
   18.9910  -20.9275  -11.2315 C   0  0  0  0  0  0  0  0  0  0  0  0
   19.0899  -22.3672  -11.5896 C   0  0  2  0  0  0  0  0  0  0  0  0
   19.4113  -22.4458  -13.0159 N   0  0  0  0  0  0  0  0  0  0  0  0
   17.8970  -23.1719  -11.2650 C   0  0  0  0  0  0  0  0  0  0  0  0
   16.9130  -23.2284  -12.0438 O   0  0  0  0  0  0  0  0  0  0  0  0
   17.6827  -28.5397   -7.6475 C   0  0  0  0  0  0  0  0  0  0  0  0
   15.9928  -27.9460   -7.3072 S   0  0  0  0  0  0  0  0  0  0  0  0
   15.6197  -26.6104   -8.4551 C   0  0  0  0  0  0  0  0  0  0  0  0
   16.8929  -25.8465   -8.8014 C   0  0  0  0  0  0  0  0  0  0  0  0
   16.5989  -24.6899   -9.7198 C   0  0  2  0  0  0  0  0  0  0  0  0
   17.7799  -23.9337  -10.0567 N   0  0  0  0  0  0  0  0  0  0  0  0
   15.6604  -23.7867   -9.0140 C   0  0  0  0  0  0  0  0  0  0  0  0
   16.0634  -22.7261   -8.4796 O   0  0  0  0  0  0  0  0  0  0  0  0
   14.3369  -24.1327   -8.9550 O   0  0  0  0  0  0  0  0  0  0  0  0
  1  2  1  0
  2  4  1  0
  2  3  2  0
  4  5  1  0
  5  6  1  0
  6  7  1  1
  8  9  2  0
  8  6  1  0
 11 10  1  1
 11 12  1  0
 14 13  1  6
 13 11  1  0
 14 15  1  0
 15  8  1  0
 16 14  1  0
 17 16  2  0
 19 18  1  0
 20 19  1  0
 21 20  1  0
 22 21  1  1
 22 24  1  0
 22 23  1  0
 23 16  1  0
 24 26  1  0
 25 24  2  0
M  END
$$$$
