QLM.pdb
     RDKit          3D

 26 25  0  0  1  0  0  0  0  0999 V2000
   27.4916  -16.4393  -15.6399 N   0  0  0  0  0  0  0  0  0  0  0  0
   28.0738  -17.2241  -16.6620 C   0  0  0  0  0  0  0  0  0  0  0  0
   29.2658  -17.0644  -16.9656 O   0  0  0  0  0  0  0  0  0  0  0  0
   27.2510  -18.2282  -17.3578 C   0  0  0  0  0  0  0  0  0  0  0  0
   26.5143  -19.0408  -16.3372 C   0  0  0  0  0  0  0  0  0  0  0  0
   27.4119  -20.0514  -15.6396 C   0  0  2  0  0  0  0  0  0  0  0  0
   27.9349  -21.0297  -16.5387 N   0  0  0  0  0  0  0  0  0  0  0  0
   26.6060  -20.7127  -14.5773 C   0  0  0  0  0  0  0  0  0  0  0  0
   25.9770  -21.7890  -14.8210 O   0  0  0  0  0  0  0  0  0  0  0  0
   25.6656  -19.8884   -8.5669 C   0  0  0  0  0  0  0  0  0  0  0  0
   25.0986  -20.6126   -9.7988 C   0  0  2  0  0  0  0  0  0  0  0  0
   25.0499  -22.0629   -9.4558 C   0  0  0  0  0  0  0  0  0  0  0  0
   25.9907  -20.2732  -10.9384 C   0  0  0  0  0  0  0  0  0  0  0  0
   25.5454  -20.7328  -12.2806 C   0  0  2  0  0  0  0  0  0  0  0  0
   26.4907  -20.2017  -13.2646 N   0  0  0  0  0  0  0  0  0  0  0  0
   24.1561  -20.3802  -12.6290 C   0  0  0  0  0  0  0  0  0  0  0  0
   23.8017  -19.1846  -12.7797 O   0  0  0  0  0  0  0  0  0  0  0  0
   20.2192  -23.3451  -16.7805 C   0  0  0  0  0  0  0  0  0  0  0  0
   18.9885  -22.9577  -15.4923 S   0  0  0  0  0  0  0  0  0  0  0  0
   19.6961  -21.7276  -14.3846 C   0  0  0  0  0  0  0  0  0  0  0  0
   21.1576  -22.0567  -14.1014 C   0  0  0  0  0  0  0  0  0  0  0  0
   21.7822  -21.0229  -13.2021 C   0  0  2  0  0  0  0  0  0  0  0  0
   23.1298  -21.3628  -12.8169 N   0  0  0  0  0  0  0  0  0  0  0  0
   20.9587  -20.9441  -11.9732 C   0  0  0  0  0  0  0  0  0  0  0  0
   20.1105  -20.0329  -11.8214 O   0  0  0  0  0  0  0  0  0  0  0  0
   21.1411  -21.8898  -11.0000 O   0  0  0  0  0  0  0  0  0  0  0  0
  1  2  1  0
  2  4  1  0
  2  3  2  0
  4  5  1  0
  5  6  1  0
  6  7  1  6
  8  9  2  0
  8  6  1  0
 11 10  1  1
 11 12  1  0
 14 13  1  1
 13 11  1  0
 14 15  1  0
 15  8  1  0
 16 14  1  0
 17 16  2  0
 19 18  1  0
 20 19  1  0
 21 20  1  0
 22 21  1  6
 22 24  1  0
 22 23  1  0
 23 16  1  0
 24 26  1  0
 25 24  2  0
M  END
$$$$
