QLM.pdb
     RDKit          3D

 26 25  0  0  1  0  0  0  0  0999 V2000
   17.5907  -14.0938  -17.1240 N   0  0  0  0  0  0  0  0  0  0  0  0
   18.1461  -14.3118  -18.4060 C   0  0  0  0  0  0  0  0  0  0  0  0
   18.0116  -15.4120  -18.9628 O   0  0  0  0  0  0  0  0  0  0  0  0
   18.8824  -13.2215  -19.0682 C   0  0  0  0  0  0  0  0  0  0  0  0
   18.8994  -12.0291  -18.1613 C   0  0  0  0  0  0  0  0  0  0  0  0
   19.6311  -10.8438  -18.7722 C   0  0  2  0  0  0  0  0  0  0  0  0
   20.9130  -11.2010  -19.2901 N   0  0  0  0  0  0  0  0  0  0  0  0
   19.7785   -9.8095  -17.7120 C   0  0  0  0  0  0  0  0  0  0  0  0
   18.7535   -9.2954  -17.1658 O   0  0  0  0  0  0  0  0  0  0  0  0
   21.3429   -9.5922  -13.5281 C   0  0  0  0  0  0  0  0  0  0  0  0
   22.3807   -9.8289  -14.6375 C   0  0  2  0  0  0  0  0  0  0  0  0
   23.6672  -10.1513  -13.9560 C   0  0  0  0  0  0  0  0  0  0  0  0
   22.4077   -8.5934  -15.4637 C   0  0  0  0  0  0  0  0  0  0  0  0
   21.1764   -8.2971  -16.2427 C   0  0  2  0  0  0  0  0  0  0  0  0
   21.0328   -9.3444  -17.2559 N   0  0  0  0  0  0  0  0  0  0  0  0
   21.1341   -6.9543  -16.8517 C   0  0  0  0  0  0  0  0  0  0  0  0
   22.0288   -6.5654  -17.6431 O   0  0  0  0  0  0  0  0  0  0  0  0
   17.0308   -0.8735  -19.6013 C   0  0  0  0  0  0  0  0  0  0  0  0
   16.9692   -2.4851  -18.7509 S   0  0  0  0  0  0  0  0  0  0  0  0
   18.6407   -2.9236  -18.2465 C   0  0  0  0  0  0  0  0  0  0  0  0
   18.6583   -4.3300  -17.6581 C   0  0  0  0  0  0  0  0  0  0  0  0
   20.0387   -4.7038  -17.1866 C   0  0  2  0  0  0  0  0  0  0  0  0
   20.0851   -6.0144  -16.5866 N   0  0  0  0  0  0  0  0  0  0  0  0
   20.4435   -3.7141  -16.1613 C   0  0  0  0  0  0  0  0  0  0  0  0
   20.4480   -4.0114  -14.9429 O   0  0  0  0  0  0  0  0  0  0  0  0
   20.8148   -2.4612  -16.5700 O   0  0  0  0  0  0  0  0  0  0  0  0
  1  2  1  0
  2  4  1  0
  2  3  2  0
  4  5  1  0
  5  6  1  0
  6  7  1  1
  8  9  2  0
  8  6  1  0
 11 10  1  1
 11 12  1  0
 14 13  1  6
 13 11  1  0
 14 15  1  0
 15  8  1  0
 16 14  1  0
 17 16  2  0
 19 18  1  0
 20 19  1  0
 21 20  1  0
 22 21  1  1
 22 24  1  0
 22 23  1  0
 23 16  1  0
 24 26  1  0
 25 24  2  0
M  END
$$$$
