QLM.pdb
     RDKit          3D

 26 25  0  0  1  0  0  0  0  0999 V2000
   19.6960  -17.7725  -13.2381 N   0  0  0  0  0  0  0  0  0  0  0  0
   19.8176  -17.9531  -14.6352 C   0  0  0  0  0  0  0  0  0  0  0  0
   19.6772  -16.9878  -15.4013 O   0  0  0  0  0  0  0  0  0  0  0  0
   20.1115  -19.2951  -15.1664 C   0  0  0  0  0  0  0  0  0  0  0  0
   20.3457  -20.2288  -14.0183 C   0  0  0  0  0  0  0  0  0  0  0  0
   21.6768  -19.9778  -13.3264 C   0  0  2  0  0  0  0  0  0  0  0  0
   22.7919  -20.1991  -14.1904 N   0  0  0  0  0  0  0  0  0  0  0  0
   21.7528  -20.8877  -12.1509 C   0  0  0  0  0  0  0  0  0  0  0  0
   21.7219  -22.1478  -12.3078 O   0  0  0  0  0  0  0  0  0  0  0  0
   24.9134  -21.8672   -9.3314 C   0  0  0  0  0  0  0  0  0  0  0  0
   24.3303  -20.4593   -9.1275 C   0  0  2  0  0  0  0  0  0  0  0  0
   25.2015  -19.7778   -8.1275 C   0  0  0  0  0  0  0  0  0  0  0  0
   22.9187  -20.6427   -8.6992 C   0  0  0  0  0  0  0  0  0  0  0  0
   22.0195  -21.3177   -9.6722 C   0  0  2  0  0  0  0  0  0  0  0  0
   21.8612  -20.4232  -10.8204 N   0  0  0  0  0  0  0  0  0  0  0  0
   20.7107  -21.7272   -9.1286 C   0  0  0  0  0  0  0  0  0  0  0  0
   19.7974  -20.8905   -8.9196 O   0  0  0  0  0  0  0  0  0  0  0  0
   18.4361  -28.0636   -7.7110 C   0  0  0  0  0  0  0  0  0  0  0  0
   17.0593  -27.0200   -8.2936 S   0  0  0  0  0  0  0  0  0  0  0  0
   17.4485  -25.3042   -7.9127 C   0  0  0  0  0  0  0  0  0  0  0  0
   18.7785  -24.9153   -8.5487 C   0  0  0  0  0  0  0  0  0  0  0  0
   19.1302  -23.4842   -8.2389 C   0  0  2  0  0  0  0  0  0  0  0  0
   20.3954  -23.0876   -8.8062 N   0  0  0  0  0  0  0  0  0  0  0  0
   19.2266  -23.3569   -6.7661 C   0  0  0  0  0  0  0  0  0  0  0  0
   20.3406  -23.2695   -6.1968 O   0  0  0  0  0  0  0  0  0  0  0  0
   18.0704  -23.3363   -6.0328 O   0  0  0  0  0  0  0  0  0  0  0  0
  1  2  1  0
  2  4  1  0
  2  3  2  0
  4  5  1  0
  5  6  1  0
  6  7  1  6
  8  9  2  0
  8  6  1  0
 11 10  1  1
 11 12  1  0
 14 13  1  1
 13 11  1  0
 14 15  1  0
 15  8  1  0
 16 14  1  0
 17 16  2  0
 19 18  1  0
 20 19  1  0
 21 20  1  0
 22 21  1  1
 22 24  1  0
 22 23  1  0
 23 16  1  0
 24 26  1  0
 25 24  2  0
M  END
$$$$
