QLM.pdb
     RDKit          3D

 26 25  0  0  1  0  0  0  0  0999 V2000
   14.1007  -27.2540   -7.1384 N   0  0  0  0  0  0  0  0  0  0  0  0
   14.0269  -25.8572   -7.3451 C   0  0  0  0  0  0  0  0  0  0  0  0
   13.0040  -25.3543   -7.8342 O   0  0  0  0  0  0  0  0  0  0  0  0
   15.1743  -25.0113   -6.9741 C   0  0  0  0  0  0  0  0  0  0  0  0
   16.2702  -25.8870   -6.4480 C   0  0  0  0  0  0  0  0  0  0  0  0
   17.4624  -25.0878   -5.9444 C   0  0  2  0  0  0  0  0  0  0  0  0
   18.2536  -24.5578   -7.0084 N   0  0  0  0  0  0  0  0  0  0  0  0
   18.2862  -25.9924   -5.0968 C   0  0  0  0  0  0  0  0  0  0  0  0
   19.3086  -26.5728   -5.5775 O   0  0  0  0  0  0  0  0  0  0  0  0
   19.0520  -26.9137    0.8713 C   0  0  0  0  0  0  0  0  0  0  0  0
   19.4281  -27.5040   -0.4975 C   0  0  2  0  0  0  0  0  0  0  0  0
   20.9176  -27.5057   -0.5663 C   0  0  0  0  0  0  0  0  0  0  0  0
   18.7597  -26.6591   -1.5219 C   0  0  0  0  0  0  0  0  0  0  0  0
   18.7846  -27.1746   -2.9164 C   0  0  2  0  0  0  0  0  0  0  0  0
   17.9938  -26.2579   -3.7397 N   0  0  0  0  0  0  0  0  0  0  0  0
   18.3234  -28.5671   -3.0727 C   0  0  0  0  0  0  0  0  0  0  0  0
   17.1067  -28.8676   -2.9884 O   0  0  0  0  0  0  0  0  0  0  0  0
   21.3938  -33.3585   -6.2678 C   0  0  0  0  0  0  0  0  0  0  0  0
   20.4785  -34.3750   -5.0624 S   0  0  0  0  0  0  0  0  0  0  0  0
   19.2461  -33.3340   -4.2636 C   0  0  0  0  0  0  0  0  0  0  0  0
   19.7601  -31.9026   -4.1556 C   0  0  0  0  0  0  0  0  0  0  0  0
   18.7756  -31.0261   -3.4275 C   0  0  2  0  0  0  0  0  0  0  0  0
   19.2184  -29.6571   -3.3277 N   0  0  0  0  0  0  0  0  0  0  0  0
   18.6295  -31.5633   -2.0548 C   0  0  0  0  0  0  0  0  0  0  0  0
   17.7764  -32.4447   -1.7934 O   0  0  0  0  0  0  0  0  0  0  0  0
   19.4476  -31.0775   -1.0701 O   0  0  0  0  0  0  0  0  0  0  0  0
  1  2  1  0
  2  4  1  0
  2  3  2  0
  4  5  1  0
  5  6  1  0
  6  7  1  6
  8  9  2  0
  8  6  1  0
 11 10  1  1
 11 12  1  0
 14 13  1  1
 13 11  1  0
 14 15  1  0
 15  8  1  0
 16 14  1  0
 17 16  2  0
 19 18  1  0
 20 19  1  0
 21 20  1  0
 22 21  1  6
 22 24  1  0
 22 23  1  0
 23 16  1  0
 24 26  1  0
 25 24  2  0
M  END
$$$$
