LCN.pdb
     RDKit          3D

 23 22  0  0  1  0  0  0  0  0999 V2000
    7.8511  -14.5432   18.8528 C   0  0  0  0  0  0  0  0  0  0  0  0
    7.7025  -13.6323   20.0224 C   0  0  2  0  0  0  0  0  0  0  0  0
    7.6690  -12.1925   19.5375 C   0  0  0  0  0  0  0  0  0  0  0  0
    8.6611  -13.8397   21.1398 C   0  0  0  0  0  0  0  0  0  0  0  0
    8.5826  -15.1414   21.8570 C   0  0  2  0  0  0  0  0  0  0  0  0
    7.2948  -15.7444   21.8668 N   0  0  0  0  0  0  0  0  0  0  0  0
    9.1979  -14.9633   23.1995 C   0  0  0  0  0  0  0  0  0  0  0  0
   10.3640  -14.4506   23.3152 O   0  0  0  0  0  0  0  0  0  0  0  0
    8.5924  -15.3213   24.4247 N   0  0  0  0  0  0  0  0  0  0  0  0
    9.2202  -15.1037   25.7133 C   0  0  1  0  0  0  0  0  0  0  0  0
    8.4535  -14.1653   26.5868 C   0  0  0  0  0  0  0  0  0  0  0  0
    9.3693  -13.9396   28.1310 S   0  0  0  0  0  0  0  0  0  0  0  0
    9.5093  -16.4081   26.3817 C   0  0  0  0  0  0  0  0  0  0  0  0
    8.5499  -17.2058   26.5817 O   0  0  0  0  0  0  0  0  0  0  0  0
   13.3459  -18.2050   24.7915 N   0  0  0  0  0  0  0  0  0  0  0  0
   12.4549  -18.9254   25.6278 C   0  0  0  0  0  0  0  0  0  0  0  0
   11.7333  -19.8076   25.1036 O   0  0  0  0  0  0  0  0  0  0  0  0
   12.3988  -18.6227   27.0797 C   0  0  0  0  0  0  0  0  0  0  0  0
   11.0572  -18.0426   27.4746 C   0  0  2  0  0  0  0  0  0  0  0  0
   10.7855  -16.8019   26.8019 N   0  0  0  0  0  0  0  0  0  0  0  0
   11.0383  -17.9315   28.9434 C   0  0  0  0  0  0  0  0  0  0  0  0
   11.1566  -16.7804   29.4393 O   0  0  0  0  0  0  0  0  0  0  0  0
   10.9019  -18.9834   29.8196 O   0  0  0  0  0  0  0  0  0  0  0  0
  2  3  1  6
  2  1  1  0
  4  2  1  0
  5  7  1  0
  5  4  1  0
  5  6  1  1
  7  9  1  0
  8  7  2  0
  9 10  1  0
 10 13  1  0
 10 11  1  1
 11 12  1  0
 13 14  2  0
 13 20  1  0
 16 18  1  0
 16 15  1  0
 17 16  2  0
 19 21  1  0
 19 18  1  6
 20 19  1  0
 21 23  1  0
 22 21  2  0
M  END
$$$$
