LCN.pdb
     RDKit          3D

 23 22  0  0  1  0  0  0  0  0999 V2000
    7.4652  -11.4139   27.2490 C   0  0  0  0  0  0  0  0  0  0  0  0
    6.4939  -11.9089   26.2335 C   0  0  2  0  0  0  0  0  0  0  0  0
    5.1198  -11.3307   26.5280 C   0  0  0  0  0  0  0  0  0  0  0  0
    6.4638  -13.3798   26.0186 C   0  0  0  0  0  0  0  0  0  0  0  0
    7.7745  -14.0536   25.8114 C   0  0  2  0  0  0  0  0  0  0  0  0
    8.8854  -13.1762   25.6757 N   0  0  0  0  0  0  0  0  0  0  0  0
    7.6161  -15.0347   24.7047 C   0  0  0  0  0  0  0  0  0  0  0  0
    6.7155  -15.9411   24.7659 O   0  0  0  0  0  0  0  0  0  0  0  0
    8.4006  -15.0684   23.5303 N   0  0  0  0  0  0  0  0  0  0  0  0
    8.4286  -16.2024   22.6272 C   0  0  1  0  0  0  0  0  0  0  0  0
    7.9824  -15.8596   21.2434 C   0  0  0  0  0  0  0  0  0  0  0  0
    7.5290  -14.1083   21.2031 S   0  0  0  0  0  0  0  0  0  0  0  0
    9.7696  -16.8604   22.6547 C   0  0  0  0  0  0  0  0  0  0  0  0
   10.7839  -16.1462   22.8950 O   0  0  0  0  0  0  0  0  0  0  0  0
   14.3627  -19.0251   20.9454 N   0  0  0  0  0  0  0  0  0  0  0  0
   13.6934  -18.6390   22.1350 C   0  0  0  0  0  0  0  0  0  0  0  0
   14.2465  -18.8877   23.2332 O   0  0  0  0  0  0  0  0  0  0  0  0
   12.3756  -17.9610   22.0530 C   0  0  0  0  0  0  0  0  0  0  0  0
   11.2542  -18.8696   22.5103 C   0  0  2  0  0  0  0  0  0  0  0  0
    9.9710  -18.2275   22.4293 N   0  0  0  0  0  0  0  0  0  0  0  0
   11.5913  -19.3409   23.8648 C   0  0  0  0  0  0  0  0  0  0  0  0
   10.8634  -18.9472   24.8135 O   0  0  0  0  0  0  0  0  0  0  0  0
   12.6375  -20.1772   24.1792 O   0  0  0  0  0  0  0  0  0  0  0  0
  2  3  1  1
  2  1  1  0
  4  2  1  0
  5  7  1  0
  5  4  1  0
  5  6  1  6
  7  9  1  0
  8  7  2  0
  9 10  1  0
 10 13  1  0
 10 11  1  6
 11 12  1  0
 13 14  2  0
 13 20  1  0
 16 18  1  0
 16 15  1  0
 17 16  2  0
 19 21  1  0
 19 18  1  1
 20 19  1  0
 21 23  1  0
 22 21  2  0
M  END
$$$$
