LCN.pdb
     RDKit          3D

 23 22  0  0  1  0  0  0  0  0999 V2000
    8.0832  -14.1844   18.5421 C   0  0  0  0  0  0  0  0  0  0  0  0
    7.7555  -13.2724   19.6737 C   0  0  2  0  0  0  0  0  0  0  0  0
    7.8132  -11.8323   19.1921 C   0  0  0  0  0  0  0  0  0  0  0  0
    8.5191  -13.4884   20.9310 C   0  0  0  0  0  0  0  0  0  0  0  0
    8.2388  -14.7448   21.6778 C   0  0  2  0  0  0  0  0  0  0  0  0
    7.0405  -15.4118   21.3014 N   0  0  0  0  0  0  0  0  0  0  0  0
    8.3588  -14.4512   23.1310 C   0  0  0  0  0  0  0  0  0  0  0  0
    9.4528  -13.9950   23.6119 O   0  0  0  0  0  0  0  0  0  0  0  0
    7.3324  -14.6343   24.0844 N   0  0  0  0  0  0  0  0  0  0  0  0
    7.5027  -14.3548   25.4969 C   0  0  1  0  0  0  0  0  0  0  0  0
    6.3597  -13.5936   26.0847 C   0  0  0  0  0  0  0  0  0  0  0  0
    7.0070  -12.0916   26.8588 S   0  0  0  0  0  0  0  0  0  0  0  0
    7.8055  -15.6112   26.2463 C   0  0  0  0  0  0  0  0  0  0  0  0
    6.8395  -16.3363   26.6176 O   0  0  0  0  0  0  0  0  0  0  0  0
    9.0953  -20.2090   24.3235 N   0  0  0  0  0  0  0  0  0  0  0  0
    9.9915  -19.1794   24.7093 C   0  0  0  0  0  0  0  0  0  0  0  0
   11.1996  -19.4760   24.8725 O   0  0  0  0  0  0  0  0  0  0  0  0
    9.4865  -17.7979   24.9076 C   0  0  0  0  0  0  0  0  0  0  0  0
    9.5744  -17.3775   26.3594 C   0  0  2  0  0  0  0  0  0  0  0  0
    9.1014  -16.0358   26.5634 N   0  0  0  0  0  0  0  0  0  0  0  0
   10.9664  -17.5829   26.7959 C   0  0  0  0  0  0  0  0  0  0  0  0
   11.1764  -18.4675   27.6666 O   0  0  0  0  0  0  0  0  0  0  0  0
   12.0577  -16.8867   26.3298 O   0  0  0  0  0  0  0  0  0  0  0  0
  2  3  1  6
  2  1  1  0
  4  2  1  0
  5  7  1  0
  5  4  1  0
  5  6  1  1
  7  9  1  0
  8  7  2  0
  9 10  1  0
 10 13  1  0
 10 11  1  1
 11 12  1  0
 13 14  2  0
 13 20  1  0
 16 18  1  0
 16 15  1  0
 17 16  2  0
 19 21  1  0
 19 18  1  6
 20 19  1  0
 21 23  1  0
 22 21  2  0
M  END
$$$$
