LCN.pdb
     RDKit          3D

 23 22  0  0  1  0  0  0  0  0999 V2000
    8.1197  -13.3937   18.6501 C   0  0  0  0  0  0  0  0  0  0  0  0
    7.6092  -13.2273   20.0398 C   0  0  2  0  0  0  0  0  0  0  0  0
    7.8543  -11.7994   20.4981 C   0  0  0  0  0  0  0  0  0  0  0  0
    8.0687  -14.2354   21.0313 C   0  0  0  0  0  0  0  0  0  0  0  0
    7.7721  -15.6610   20.7240 C   0  0  2  0  0  0  0  0  0  0  0  0
    6.3915  -16.0019   20.7320 N   0  0  0  0  0  0  0  0  0  0  0  0
    8.6281  -16.5065   21.5987 C   0  0  0  0  0  0  0  0  0  0  0  0
    8.2151  -16.8707   22.7532 O   0  0  0  0  0  0  0  0  0  0  0  0
    9.9193  -16.9733   21.2656 N   0  0  0  0  0  0  0  0  0  0  0  0
   10.7398  -17.7519   22.1726 C   0  0  1  0  0  0  0  0  0  0  0  0
   11.8757  -18.4406   21.4892 C   0  0  0  0  0  0  0  0  0  0  0  0
   12.7813  -19.4125   22.7178 S   0  0  0  0  0  0  0  0  0  0  0  0
   11.1836  -16.9140   23.3271 C   0  0  0  0  0  0  0  0  0  0  0  0
   10.9452  -15.6735   23.2952 O   0  0  0  0  0  0  0  0  0  0  0  0
   10.9500  -14.2093   27.6579 N   0  0  0  0  0  0  0  0  0  0  0  0
   10.9259  -15.6269   27.6141 C   0  0  0  0  0  0  0  0  0  0  0  0
   11.0827  -16.2554   28.6885 O   0  0  0  0  0  0  0  0  0  0  0  0
   10.7192  -16.3214   26.3188 C   0  0  0  0  0  0  0  0  0  0  0  0
   12.0366  -16.6878   25.6687 C   0  0  2  0  0  0  0  0  0  0  0  0
   11.8510  -17.4230   24.4477 N   0  0  0  0  0  0  0  0  0  0  0  0
   12.8399  -17.4077   26.6721 C   0  0  0  0  0  0  0  0  0  0  0  0
   12.7660  -18.6644   26.6808 O   0  0  0  0  0  0  0  0  0  0  0  0
   13.6656  -16.8191   27.6019 O   0  0  0  0  0  0  0  0  0  0  0  0
  2  3  1  1
  2  1  1  0
  4  2  1  0
  5  7  1  0
  5  4  1  0
  5  6  1  1
  7  9  1  0
  8  7  2  0
  9 10  1  0
 10 13  1  0
 10 11  1  6
 11 12  1  0
 13 14  2  0
 13 20  1  0
 16 18  1  0
 16 15  1  0
 17 16  2  0
 19 21  1  0
 19 18  1  1
 20 19  1  0
 21 23  1  0
 22 21  2  0
M  END
$$$$
