LCN.pdb
     RDKit          3D

 23 22  0  0  1  0  0  0  0  0999 V2000
    8.9049  -13.7762   18.4893 C   0  0  0  0  0  0  0  0  0  0  0  0
    7.8104  -13.3730   19.4162 C   0  0  2  0  0  0  0  0  0  0  0  0
    7.2710  -12.0155   18.9973 C   0  0  0  0  0  0  0  0  0  0  0  0
    8.1226  -13.4436   20.8681 C   0  0  0  0  0  0  0  0  0  0  0  0
    8.5421  -14.7689   21.3996 C   0  0  2  0  0  0  0  0  0  0  0  0
    7.7154  -15.8594   21.0128 N   0  0  0  0  0  0  0  0  0  0  0  0
    8.7465  -14.6310   22.8665 C   0  0  0  0  0  0  0  0  0  0  0  0
    9.2590  -13.5645   23.3521 O   0  0  0  0  0  0  0  0  0  0  0  0
    8.4137  -15.6104   23.8287 N   0  0  0  0  0  0  0  0  0  0  0  0
    8.6169  -15.4252   25.2523 C   0  0  1  0  0  0  0  0  0  0  0  0
    7.9187  -14.2194   25.7910 C   0  0  0  0  0  0  0  0  0  0  0  0
    6.1345  -14.4584   25.6071 S   0  0  0  0  0  0  0  0  0  0  0  0
    8.2710  -16.6731   25.9972 C   0  0  0  0  0  0  0  0  0  0  0  0
    7.1326  -17.1884   25.8094 O   0  0  0  0  0  0  0  0  0  0  0  0
   10.9972  -20.4795   24.0106 N   0  0  0  0  0  0  0  0  0  0  0  0
   11.4388  -19.6571   25.0786 C   0  0  0  0  0  0  0  0  0  0  0  0
   12.4330  -20.0340   25.7444 O   0  0  0  0  0  0  0  0  0  0  0  0
   10.7252  -18.3905   25.3779 C   0  0  0  0  0  0  0  0  0  0  0  0
    9.8406  -18.5267   26.5991 C   0  0  2  0  0  0  0  0  0  0  0  0
    9.1365  -17.3093   26.8952 N   0  0  0  0  0  0  0  0  0  0  0  0
   10.6870  -19.0010   27.7077 C   0  0  0  0  0  0  0  0  0  0  0  0
   11.3462  -18.1377   28.3441 O   0  0  0  0  0  0  0  0  0  0  0  0
   10.8167  -20.3115   28.1058 O   0  0  0  0  0  0  0  0  0  0  0  0
  2  3  1  6
  2  1  1  0
  4  2  1  0
  5  7  1  0
  5  4  1  0
  5  6  1  1
  7  9  1  0
  8  7  2  0
  9 10  1  0
 10 13  1  0
 10 11  1  1
 11 12  1  0
 13 14  2  0
 13 20  1  0
 16 18  1  0
 16 15  1  0
 17 16  2  0
 19 21  1  0
 19 18  1  6
 20 19  1  0
 21 23  1  0
 22 21  2  0
M  END
$$$$
