LCN.pdb
     RDKit          3D

 23 22  0  0  1  0  0  0  0  0999 V2000
    8.9565  -13.8527   18.3650 C   0  0  0  0  0  0  0  0  0  0  0  0
    7.8622  -13.3095   19.2178 C   0  0  2  0  0  0  0  0  0  0  0  0
    7.3314  -12.0273   18.5987 C   0  0  0  0  0  0  0  0  0  0  0  0
    8.1709  -13.1635   20.6649 C   0  0  0  0  0  0  0  0  0  0  0  0
    8.6294  -14.3861   21.3789 C   0  0  2  0  0  0  0  0  0  0  0  0
    7.8589  -15.5540   21.1244 N   0  0  0  0  0  0  0  0  0  0  0  0
    8.7875  -14.0448   22.8180 C   0  0  0  0  0  0  0  0  0  0  0  0
    8.9585  -12.8302   23.1811 O   0  0  0  0  0  0  0  0  0  0  0  0
    8.7662  -14.9753   23.8808 N   0  0  0  0  0  0  0  0  0  0  0  0
    8.3581  -14.6307   25.2288 C   0  0  1  0  0  0  0  0  0  0  0  0
    7.0078  -13.9944   25.2868 C   0  0  0  0  0  0  0  0  0  0  0  0
    6.6644  -13.5304   27.0017 S   0  0  0  0  0  0  0  0  0  0  0  0
    8.4767  -15.8158   26.1306 C   0  0  0  0  0  0  0  0  0  0  0  0
    8.1949  -15.6700   27.3538 O   0  0  0  0  0  0  0  0  0  0  0  0
   11.3989  -17.5223   23.0310 N   0  0  0  0  0  0  0  0  0  0  0  0
   11.3990  -18.2299   24.2604 C   0  0  0  0  0  0  0  0  0  0  0  0
   11.4897  -19.4806   24.2239 O   0  0  0  0  0  0  0  0  0  0  0  0
   11.2934  -17.4852   25.5400 C   0  0  0  0  0  0  0  0  0  0  0  0
    9.9985  -17.7981   26.2593 C   0  0  2  0  0  0  0  0  0  0  0  0
    8.8833  -17.0845   25.7000 N   0  0  0  0  0  0  0  0  0  0  0  0
   10.2114  -17.5270   27.6916 C   0  0  0  0  0  0  0  0  0  0  0  0
    9.4288  -16.7144   28.2504 O   0  0  0  0  0  0  0  0  0  0  0  0
   11.1963  -18.0894   28.4703 O   0  0  0  0  0  0  0  0  0  0  0  0
  2  3  1  6
  2  1  1  0
  4  2  1  0
  5  7  1  0
  5  4  1  0
  5  6  1  1
  7  9  1  0
  8  7  2  0
  9 10  1  0
 10 13  1  0
 10 11  1  6
 11 12  1  0
 13 14  2  0
 13 20  1  0
 16 18  1  0
 16 15  1  0
 17 16  2  0
 19 21  1  0
 19 18  1  6
 20 19  1  0
 21 23  1  0
 22 21  2  0
M  END
$$$$
