LCN.pdb
     RDKit          3D

 23 22  0  0  1  0  0  0  0  0999 V2000
    8.3853  -13.7435   18.5581 C   0  0  0  0  0  0  0  0  0  0  0  0
    7.2164  -13.6551   19.4777 C   0  0  2  0  0  0  0  0  0  0  0  0
    6.2546  -12.5948   18.9680 C   0  0  0  0  0  0  0  0  0  0  0  0
    7.5303  -13.4987   20.9225 C   0  0  0  0  0  0  0  0  0  0  0  0
    8.4248  -14.5221   21.5284 C   0  0  2  0  0  0  0  0  0  0  0  0
    7.9326  -15.8553   21.4772 N   0  0  0  0  0  0  0  0  0  0  0  0
    8.8077  -14.0506   22.8863 C   0  0  0  0  0  0  0  0  0  0  0  0
    8.5137  -12.8657   23.2678 O   0  0  0  0  0  0  0  0  0  0  0  0
    9.4992  -14.8200   23.8485 N   0  0  0  0  0  0  0  0  0  0  0  0
    9.5894  -14.4470   25.2467 C   0  0  1  0  0  0  0  0  0  0  0  0
    8.2915  -13.9668   25.8092 C   0  0  0  0  0  0  0  0  0  0  0  0
    8.5415  -13.5430   27.5504 S   0  0  0  0  0  0  0  0  0  0  0  0
   10.1898  -15.5566   26.0467 C   0  0  0  0  0  0  0  0  0  0  0  0
    9.4942  -16.5907   26.2554 O   0  0  0  0  0  0  0  0  0  0  0  0
   12.9779  -16.5413   24.5795 N   0  0  0  0  0  0  0  0  0  0  0  0
   13.9952  -16.5362   25.5679 C   0  0  0  0  0  0  0  0  0  0  0  0
   15.1887  -16.4593   25.1891 O   0  0  0  0  0  0  0  0  0  0  0  0
   13.6289  -16.6206   27.0037 C   0  0  0  0  0  0  0  0  0  0  0  0
   12.1270  -16.6498   27.1929 C   0  0  2  0  0  0  0  0  0  0  0  0
   11.4830  -15.5195   26.5818 N   0  0  0  0  0  0  0  0  0  0  0  0
   11.8653  -16.7653   28.6380 C   0  0  0  0  0  0  0  0  0  0  0  0
   11.1757  -15.8601   29.1764 O   0  0  0  0  0  0  0  0  0  0  0  0
   12.3129  -17.7823   29.4492 O   0  0  0  0  0  0  0  0  0  0  0  0
  2  3  1  6
  2  1  1  0
  4  2  1  0
  5  7  1  0
  5  4  1  0
  5  6  1  1
  7  9  1  0
  8  7  2  0
  9 10  1  0
 10 13  1  0
 10 11  1  1
 11 12  1  0
 13 14  2  0
 13 20  1  0
 16 18  1  0
 16 15  1  0
 17 16  2  0
 19 21  1  0
 19 18  1  1
 20 19  1  0
 21 23  1  0
 22 21  2  0
M  END
$$$$
