LCN.pdb
     RDKit          3D

 23 22  0  0  1  0  0  0  0  0999 V2000
    6.5488  -14.0984   19.5241 C   0  0  0  0  0  0  0  0  0  0  0  0
    7.7091  -13.2196   19.8419 C   0  0  2  0  0  0  0  0  0  0  0  0
    8.6891  -13.2410   18.6808 C   0  0  0  0  0  0  0  0  0  0  0  0
    8.3681  -13.4541   21.1540 C   0  0  0  0  0  0  0  0  0  0  0  0
    9.0366  -14.7703   21.3422 C   0  0  2  0  0  0  0  0  0  0  0  0
    8.4012  -15.8644   20.6930 N   0  0  0  0  0  0  0  0  0  0  0  0
    9.2723  -14.9609   22.7984 C   0  0  0  0  0  0  0  0  0  0  0  0
    9.7046  -13.9950   23.5170 O   0  0  0  0  0  0  0  0  0  0  0  0
    9.0551  -16.1643   23.5059 N   0  0  0  0  0  0  0  0  0  0  0  0
    9.3313  -16.3133   24.9215 C   0  0  1  0  0  0  0  0  0  0  0  0
    8.1641  -15.9632   25.7855 C   0  0  0  0  0  0  0  0  0  0  0  0
    6.6515  -16.5121   24.9580 S   0  0  0  0  0  0  0  0  0  0  0  0
    9.8737  -17.6755   25.2084 C   0  0  0  0  0  0  0  0  0  0  0  0
    9.3069  -18.6716   24.6762 O   0  0  0  0  0  0  0  0  0  0  0  0
   12.6662  -19.1779   23.9138 N   0  0  0  0  0  0  0  0  0  0  0  0
   13.5304  -19.2457   25.0366 C   0  0  0  0  0  0  0  0  0  0  0  0
   14.7681  -19.2522   24.8317 O   0  0  0  0  0  0  0  0  0  0  0  0
   12.9586  -19.3064   26.4049 C   0  0  0  0  0  0  0  0  0  0  0  0
   11.4467  -19.2303   26.3787 C   0  0  2  0  0  0  0  0  0  0  0  0
   10.9774  -17.9159   26.0355 N   0  0  0  0  0  0  0  0  0  0  0  0
   10.9572  -19.7072   27.6838 C   0  0  0  0  0  0  0  0  0  0  0  0
   10.3904  -18.8683   28.4321 O   0  0  0  0  0  0  0  0  0  0  0  0
   11.0683  -20.9956   28.1532 O   0  0  0  0  0  0  0  0  0  0  0  0
  2  3  1  6
  2  1  1  0
  4  2  1  0
  5  7  1  0
  5  4  1  0
  5  6  1  1
  7  9  1  0
  8  7  2  0
  9 10  1  0
 10 13  1  0
 10 11  1  1
 11 12  1  0
 13 14  2  0
 13 20  1  0
 16 18  1  0
 16 15  1  0
 17 16  2  0
 19 21  1  0
 19 18  1  1
 20 19  1  0
 21 23  1  0
 22 21  2  0
M  END
$$$$
