LCN.pdb
     RDKit          3D

 23 22  0  0  1  0  0  0  0  0999 V2000
    8.7927  -11.9720   18.8348 C   0  0  0  0  0  0  0  0  0  0  0  0
    8.1545  -13.2868   19.1243 C   0  0  2  0  0  0  0  0  0  0  0  0
    6.7967  -13.0563   19.7664 C   0  0  0  0  0  0  0  0  0  0  0  0
    8.9848  -14.2669   19.8731 C   0  0  0  0  0  0  0  0  0  0  0  0
   10.3622  -14.5062   19.3629 C   0  0  2  0  0  0  0  0  0  0  0  0
   10.4478  -14.7715   17.9684 N   0  0  0  0  0  0  0  0  0  0  0  0
   11.0022  -15.5292   20.2326 C   0  0  0  0  0  0  0  0  0  0  0  0
   10.8043  -15.5211   21.4963 O   0  0  0  0  0  0  0  0  0  0  0  0
   11.8510  -16.5640   19.7804 N   0  0  0  0  0  0  0  0  0  0  0  0
   12.3968  -17.5823   20.6565 C   0  0  1  0  0  0  0  0  0  0  0  0
   12.1957  -18.9689   20.1386 C   0  0  0  0  0  0  0  0  0  0  0  0
   10.4249  -19.3405   20.1636 S   0  0  0  0  0  0  0  0  0  0  0  0
   13.8262  -17.2870   20.9754 C   0  0  0  0  0  0  0  0  0  0  0  0
   14.4884  -16.5795   20.1645 O   0  0  0  0  0  0  0  0  0  0  0  0
   14.4882  -14.9082   24.3140 N   0  0  0  0  0  0  0  0  0  0  0  0
   15.6647  -15.3614   23.6641 C   0  0  0  0  0  0  0  0  0  0  0  0
   16.3534  -14.5234   23.0337 O   0  0  0  0  0  0  0  0  0  0  0  0
   16.0466  -16.7934   23.7443 C   0  0  0  0  0  0  0  0  0  0  0  0
   15.8634  -17.4924   22.4138 C   0  0  2  0  0  0  0  0  0  0  0  0
   14.4793  -17.7494   22.1242 N   0  0  0  0  0  0  0  0  0  0  0  0
   16.6953  -18.7080   22.4345 C   0  0  0  0  0  0  0  0  0  0  0  0
   16.1107  -19.8131   22.2866 O   0  0  0  0  0  0  0  0  0  0  0  0
   18.0606  -18.7354   22.6023 O   0  0  0  0  0  0  0  0  0  0  0  0
  2  3  1  1
  2  1  1  0
  4  2  1  0
  5  7  1  0
  5  4  1  0
  5  6  1  6
  7  9  1  0
  8  7  2  0
  9 10  1  0
 10 13  1  0
 10 11  1  6
 11 12  1  0
 13 14  2  0
 13 20  1  0
 16 18  1  0
 16 15  1  0
 17 16  2  0
 19 21  1  0
 19 18  1  1
 20 19  1  0
 21 23  1  0
 22 21  2  0
M  END
$$$$
