SNS.pdb
     RDKit          3D

 21 20  0  0  1  0  0  0  0  0999 V2000
   18.1673  -11.2135  -12.3865 O   0  0  0  0  0  0  0  0  0  0  0  0
   17.3030  -10.1701  -12.0994 C   0  0  0  0  0  0  0  0  0  0  0  0
   16.3097  -10.5367  -11.0227 C   0  0  2  0  0  0  0  0  0  0  0  0
   15.5062  -11.6237  -11.4755 N   0  0  0  0  0  0  0  0  0  0  0  0
   15.4437   -9.3979  -10.6448 C   0  0  0  0  0  0  0  0  0  0  0  0
   14.4166   -9.0844  -11.3109 O   0  0  0  0  0  0  0  0  0  0  0  0
   13.3269   -5.4913   -8.1897 N   0  0  0  0  0  0  0  0  0  0  0  0
   13.3905   -6.6769   -7.3568 C   0  0  0  0  0  0  0  0  0  0  0  0
   12.5992   -6.6509   -6.3897 O   0  0  0  0  0  0  0  0  0  0  0  0
   14.3342   -7.7476   -7.7102 C   0  0  0  0  0  0  0  0  0  0  0  0
   14.9775   -7.5132   -9.0095 C   0  0  2  0  0  0  0  0  0  0  0  0
   15.7565   -8.6265   -9.5121 N   0  0  0  0  0  0  0  0  0  0  0  0
   15.8624   -6.3276   -8.9572 C   0  0  0  0  0  0  0  0  0  0  0  0
   16.9548   -6.2395   -8.3545 O   0  0  0  0  0  0  0  0  0  0  0  0
   17.7772   -2.6272  -11.0002 O   0  0  0  0  0  0  0  0  0  0  0  0
   16.9047   -3.7371  -10.9956 C   0  0  0  0  0  0  0  0  0  0  0  0
   16.3057   -3.9107   -9.5941 C   0  0  2  0  0  0  0  0  0  0  0  0
   15.4860   -5.1090   -9.6524 N   0  0  0  0  0  0  0  0  0  0  0  0
   15.5112   -2.7174   -9.3036 C   0  0  0  0  0  0  0  0  0  0  0  0
   14.3242   -2.6504   -9.6793 O   0  0  0  0  0  0  0  0  0  0  0  0
   16.0775   -1.6633   -8.6115 O   0  0  0  0  0  0  0  0  0  0  0  0
  2  1  1  0
  3  2  1  0
  3  4  1  6
  3  5  1  0
  5  6  2  0
  8  7  1  0
  8 10  1  0
  9  8  2  0
 11 10  1  1
 11 13  1  0
 12  5  1  0
 12 11  1  0
 13 18  1  0
 13 14  2  0
 15 16  1  0
 17 16  1  6
 17 19  1  0
 18 17  1  0
 19 20  2  0
 19 21  1  0
M  END
$$$$
