SNS.pdb
     RDKit          3D

 21 20  0  0  1  0  0  0  0  0999 V2000
   13.8331  -10.6685  -15.5902 O   0  0  0  0  0  0  0  0  0  0  0  0
   14.7063  -11.1387  -16.5569 C   0  0  0  0  0  0  0  0  0  0  0  0
   15.9519  -11.7405  -15.9513 C   0  0  2  0  0  0  0  0  0  0  0  0
   15.5803  -12.7798  -15.0491 N   0  0  0  0  0  0  0  0  0  0  0  0
   16.7761  -10.7352  -15.2444 C   0  0  0  0  0  0  0  0  0  0  0  0
   16.5656  -10.4211  -14.0386 O   0  0  0  0  0  0  0  0  0  0  0  0
   20.3362   -7.3760  -13.9891 N   0  0  0  0  0  0  0  0  0  0  0  0
   20.9712   -8.3457  -14.8609 C   0  0  0  0  0  0  0  0  0  0  0  0
   22.2195   -8.2825  -14.8526 O   0  0  0  0  0  0  0  0  0  0  0  0
   20.1286   -9.2683  -15.6358 C   0  0  0  0  0  0  0  0  0  0  0  0
   18.6991   -9.0820  -15.3553 C   0  0  2  0  0  0  0  0  0  0  0  0
   17.8316  -10.0967  -15.9181 N   0  0  0  0  0  0  0  0  0  0  0  0
   18.2304   -7.7645  -15.8411 C   0  0  0  0  0  0  0  0  0  0  0  0
   18.0157   -7.4425  -17.0305 O   0  0  0  0  0  0  0  0  0  0  0  0
   15.3366   -5.8179  -14.4824 O   0  0  0  0  0  0  0  0  0  0  0  0
   16.4388   -4.9444  -14.3594 C   0  0  0  0  0  0  0  0  0  0  0  0
   17.5430   -5.3742  -15.3337 C   0  0  2  0  0  0  0  0  0  0  0  0
   17.9751   -6.6909  -14.8966 N   0  0  0  0  0  0  0  0  0  0  0  0
   18.6187   -4.3871  -15.2438 C   0  0  0  0  0  0  0  0  0  0  0  0
   19.7479   -4.7285  -14.8401 O   0  0  0  0  0  0  0  0  0  0  0  0
   18.3825   -3.0745  -15.6073 O   0  0  0  0  0  0  0  0  0  0  0  0
  2  1  1  0
  3  2  1  0
  3  4  1  1
  3  5  1  0
  5  6  2  0
  8  7  1  0
  8 10  1  0
  9  8  2  0
 11 10  1  6
 11 13  1  0
 12  5  1  0
 12 11  1  0
 13 18  1  0
 13 14  2  0
 15 16  1  0
 17 16  1  1
 17 19  1  0
 18 17  1  0
 19 20  2  0
 19 21  1  0
M  END
$$$$
