SNS.pdb
     RDKit          3D

 21 20  0  0  1  0  0  0  0  0999 V2000
   17.9520  -12.3304  -17.0445 O   0  0  0  0  0  0  0  0  0  0  0  0
   19.1142  -11.6239  -16.7831 C   0  0  0  0  0  0  0  0  0  0  0  0
   19.0084  -10.1799  -17.2120 C   0  0  2  0  0  0  0  0  0  0  0  0
   18.9901  -10.1131  -18.6359 N   0  0  0  0  0  0  0  0  0  0  0  0
   20.1183   -9.3542  -16.6867 C   0  0  0  0  0  0  0  0  0  0  0  0
   20.4117   -9.3258  -15.4578 O   0  0  0  0  0  0  0  0  0  0  0  0
   24.0525   -9.4924  -16.7222 N   0  0  0  0  0  0  0  0  0  0  0  0
   24.1405   -8.6784  -17.9193 C   0  0  0  0  0  0  0  0  0  0  0  0
   25.1446   -8.9283  -18.6205 O   0  0  0  0  0  0  0  0  0  0  0  0
   23.0912   -7.6832  -18.1844 C   0  0  0  0  0  0  0  0  0  0  0  0
   22.0105   -7.7391  -17.1916 C   0  0  2  0  0  0  0  0  0  0  0  0
   20.8828   -8.5681  -17.5661 N   0  0  0  0  0  0  0  0  0  0  0  0
   21.4965   -6.3840  -16.8899 C   0  0  0  0  0  0  0  0  0  0  0  0
   20.9353   -5.6047  -17.6911 O   0  0  0  0  0  0  0  0  0  0  0  0
   19.9254   -3.3467  -13.5181 O   0  0  0  0  0  0  0  0  0  0  0  0
   20.3657   -4.6249  -13.9249 C   0  0  0  0  0  0  0  0  0  0  0  0
   21.1755   -4.4980  -15.2215 C   0  0  2  0  0  0  0  0  0  0  0  0
   21.6242   -5.8407  -15.5488 N   0  0  0  0  0  0  0  0  0  0  0  0
   22.2959   -3.5960  -14.9548 C   0  0  0  0  0  0  0  0  0  0  0  0
   22.1499   -2.3642  -15.0806 O   0  0  0  0  0  0  0  0  0  0  0  0
   23.5173   -4.1107  -14.5625 O   0  0  0  0  0  0  0  0  0  0  0  0
  2  1  1  0
  3  2  1  0
  3  4  1  6
  3  5  1  0
  5  6  2  0
  8  7  1  0
  8 10  1  0
  9  8  2  0
 11 10  1  6
 11 13  1  0
 12  5  1  0
 12 11  1  0
 13 18  1  0
 13 14  2  0
 15 16  1  0
 17 16  1  1
 17 19  1  0
 18 17  1  0
 19 20  2  0
 19 21  1  0
M  END
$$$$
