SNS.pdb
     RDKit          3D

 21 20  0  0  1  0  0  0  0  0999 V2000
   16.3506  -10.0162  -15.0773 O   0  0  0  0  0  0  0  0  0  0  0  0
   16.4450  -10.4173  -16.3995 C   0  0  0  0  0  0  0  0  0  0  0  0
   17.6261  -11.3290  -16.6324 C   0  0  2  0  0  0  0  0  0  0  0  0
   17.4499  -12.5271  -15.8803 N   0  0  0  0  0  0  0  0  0  0  0  0
   18.9099  -10.6917  -16.2647 C   0  0  0  0  0  0  0  0  0  0  0  0
   19.4157  -10.8142  -15.1131 O   0  0  0  0  0  0  0  0  0  0  0  0
   22.4400  -11.3917  -17.6992 N   0  0  0  0  0  0  0  0  0  0  0  0
   22.4520  -10.2397  -18.5802 C   0  0  0  0  0  0  0  0  0  0  0  0
   23.1527  -10.4003  -19.6027 O   0  0  0  0  0  0  0  0  0  0  0  0
   21.6765   -9.0477  -18.2070 C   0  0  0  0  0  0  0  0  0  0  0  0
   20.8777   -9.2633  -16.9937 C   0  0  2  0  0  0  0  0  0  0  0  0
   19.6050   -9.9203  -17.2121 N   0  0  0  0  0  0  0  0  0  0  0  0
   20.6137   -7.9837  -16.2978 C   0  0  0  0  0  0  0  0  0  0  0  0
   19.6263   -7.2345  -16.4653 O   0  0  0  0  0  0  0  0  0  0  0  0
   22.2587   -4.9244  -12.8253 O   0  0  0  0  0  0  0  0  0  0  0  0
   22.3743   -6.1571  -13.5037 C   0  0  0  0  0  0  0  0  0  0  0  0
   21.3869   -6.1893  -14.6772 C   0  0  2  0  0  0  0  0  0  0  0  0
   21.5548   -7.4870  -15.3090 N   0  0  0  0  0  0  0  0  0  0  0  0
   21.7379   -5.0920  -15.5787 C   0  0  0  0  0  0  0  0  0  0  0  0
   22.6355   -5.2459  -16.4303 O   0  0  0  0  0  0  0  0  0  0  0  0
   21.0731   -3.8837  -15.4859 O   0  0  0  0  0  0  0  0  0  0  0  0
  2  1  1  0
  3  2  1  0
  3  4  1  1
  3  5  1  0
  5  6  2  0
  8  7  1  0
  8 10  1  0
  9  8  2  0
 11 10  1  6
 11 13  1  0
 12  5  1  0
 12 11  1  0
 13 18  1  0
 13 14  2  0
 15 16  1  0
 17 16  1  1
 17 19  1  0
 18 17  1  0
 19 20  2  0
 19 21  1  0
M  END
$$$$
