SNS.pdb
     RDKit          3D

 21 20  0  0  1  0  0  0  0  0999 V2000
   17.3857  -13.3183  -14.5699 O   0  0  0  0  0  0  0  0  0  0  0  0
   18.1512  -12.1945  -14.8332 C   0  0  0  0  0  0  0  0  0  0  0  0
   17.6924  -11.4752  -16.0792 C   0  0  2  0  0  0  0  0  0  0  0  0
   17.9747  -12.2838  -17.2189 N   0  0  0  0  0  0  0  0  0  0  0  0
   18.3351  -10.1513  -16.2335 C   0  0  0  0  0  0  0  0  0  0  0  0
   19.4128   -9.9979  -16.8755 O   0  0  0  0  0  0  0  0  0  0  0  0
   17.5466   -4.6266  -17.2367 N   0  0  0  0  0  0  0  0  0  0  0  0
   17.6412   -5.2738  -15.9423 C   0  0  0  0  0  0  0  0  0  0  0  0
   18.1782   -4.5622  -15.0662 O   0  0  0  0  0  0  0  0  0  0  0  0
   17.1219   -6.6407  -15.7882 C   0  0  0  0  0  0  0  0  0  0  0  0
   18.1892   -7.6482  -15.8373 C   0  0  2  0  0  0  0  0  0  0  0  0
   17.7444   -9.0149  -15.6544 N   0  0  0  0  0  0  0  0  0  0  0  0
   19.2288   -7.3699  -14.8208 C   0  0  0  0  0  0  0  0  0  0  0  0
   19.1970   -7.6967  -13.6139 O   0  0  0  0  0  0  0  0  0  0  0  0
   22.9840   -6.2461  -16.1127 O   0  0  0  0  0  0  0  0  0  0  0  0
   22.7866   -6.8869  -14.8703 C   0  0  0  0  0  0  0  0  0  0  0  0
   21.4889   -6.3755  -14.2319 C   0  0  2  0  0  0  0  0  0  0  0  0
   20.4333   -6.6480  -15.1925 N   0  0  0  0  0  0  0  0  0  0  0  0
   21.6520   -4.9422  -13.9895 C   0  0  0  0  0  0  0  0  0  0  0  0
   21.0877   -4.1148  -14.7321 O   0  0  0  0  0  0  0  0  0  0  0  0
   22.4326   -4.5053  -12.9357 O   0  0  0  0  0  0  0  0  0  0  0  0
  2  1  1  0
  3  2  1  0
  3  4  1  6
  3  5  1  0
  5  6  2  0
  8  7  1  0
  8 10  1  0
  9  8  2  0
 11 10  1  1
 11 13  1  0
 12  5  1  0
 12 11  1  0
 13 18  1  0
 13 14  2  0
 15 16  1  0
 17 16  1  6
 17 19  1  0
 18 17  1  0
 19 20  2  0
 19 21  1  0
M  END
$$$$
