SNS.pdb
     RDKit          3D

 21 20  0  0  1  0  0  0  0  0999 V2000
   15.3514  -12.5219  -10.5032 O   0  0  0  0  0  0  0  0  0  0  0  0
   15.7880  -11.2801  -10.9341 C   0  0  0  0  0  0  0  0  0  0  0  0
   15.1126  -10.1524  -10.1908 C   0  0  2  0  0  0  0  0  0  0  0  0
   13.7100  -10.1984  -10.4414 N   0  0  0  0  0  0  0  0  0  0  0  0
   15.6462   -8.8266  -10.5744 C   0  0  0  0  0  0  0  0  0  0  0  0
   15.4646   -8.3361  -11.7248 O   0  0  0  0  0  0  0  0  0  0  0  0
   14.4336   -5.7422   -9.4908 N   0  0  0  0  0  0  0  0  0  0  0  0
   15.4610   -5.3477   -8.5462 C   0  0  0  0  0  0  0  0  0  0  0  0
   15.0402   -4.6085   -7.6304 O   0  0  0  0  0  0  0  0  0  0  0  0
   16.8356   -5.8305   -8.7440 C   0  0  0  0  0  0  0  0  0  0  0  0
   16.9402   -6.7563   -9.8792 C   0  0  2  0  0  0  0  0  0  0  0  0
   16.3822   -8.0726   -9.6441 N   0  0  0  0  0  0  0  0  0  0  0  0
   18.3505   -6.9294  -10.2946 C   0  0  0  0  0  0  0  0  0  0  0  0
   19.2102   -7.6435   -9.7330 O   0  0  0  0  0  0  0  0  0  0  0  0
   21.1571   -7.9327  -13.7037 O   0  0  0  0  0  0  0  0  0  0  0  0
   19.9359   -7.6333  -13.0617 C   0  0  0  0  0  0  0  0  0  0  0  0
   20.1610   -6.5235  -12.0269 C   0  0  2  0  0  0  0  0  0  0  0  0
   18.8549   -6.2285  -11.4626 N   0  0  0  0  0  0  0  0  0  0  0  0
   20.7260   -5.3725  -12.7309 C   0  0  0  0  0  0  0  0  0  0  0  0
   19.9721   -4.5318  -13.2596 O   0  0  0  0  0  0  0  0  0  0  0  0
   22.0973   -5.2171  -12.8096 O   0  0  0  0  0  0  0  0  0  0  0  0
  2  1  1  0
  3  2  1  0
  3  4  1  6
  3  5  1  0
  5  6  2  0
  8  7  1  0
  8 10  1  0
  9  8  2  0
 11 10  1  1
 11 13  1  0
 12  5  1  0
 12 11  1  0
 13 18  1  0
 13 14  2  0
 15 16  1  0
 17 16  1  6
 17 19  1  0
 18 17  1  0
 19 20  2  0
 19 21  1  0
M  END
$$$$
