SNS.pdb
     RDKit          3D

 21 20  0  0  1  0  0  0  0  0999 V2000
   17.4252  -11.8885  -17.6182 O   0  0  0  0  0  0  0  0  0  0  0  0
   18.6806  -12.3674  -17.2825 C   0  0  0  0  0  0  0  0  0  0  0  0
   19.2925  -11.5989  -16.1356 C   0  0  2  0  0  0  0  0  0  0  0  0
   18.5080  -11.8020  -14.9627 N   0  0  0  0  0  0  0  0  0  0  0  0
   19.3989  -10.1510  -16.4218 C   0  0  0  0  0  0  0  0  0  0  0  0
   20.0923   -9.7042  -17.3792 O   0  0  0  0  0  0  0  0  0  0  0  0
   18.4902   -5.1654  -16.5488 N   0  0  0  0  0  0  0  0  0  0  0  0
   17.3200   -5.7596  -15.9315 C   0  0  0  0  0  0  0  0  0  0  0  0
   16.3637   -4.9646  -15.8057 O   0  0  0  0  0  0  0  0  0  0  0  0
   17.3649   -7.1734  -15.5306 C   0  0  0  0  0  0  0  0  0  0  0  0
   18.6608   -7.7946  -15.8331 C   0  0  2  0  0  0  0  0  0  0  0  0
   18.7150   -9.2258  -15.6143 N   0  0  0  0  0  0  0  0  0  0  0  0
   19.7452   -7.1733  -15.0398 C   0  0  0  0  0  0  0  0  0  0  0  0
   19.8696   -7.2043  -13.7956 O   0  0  0  0  0  0  0  0  0  0  0  0
   24.1680   -5.0921  -15.3825 O   0  0  0  0  0  0  0  0  0  0  0  0
   23.0279   -5.6273  -16.0206 C   0  0  0  0  0  0  0  0  0  0  0  0
   21.9344   -5.8899  -14.9774 C   0  0  2  0  0  0  0  0  0  0  0  0
   20.8041   -6.4373  -15.7082 N   0  0  0  0  0  0  0  0  0  0  0  0
   21.6107   -4.6103  -14.3466 C   0  0  0  0  0  0  0  0  0  0  0  0
   20.8555   -3.8029  -14.9232 O   0  0  0  0  0  0  0  0  0  0  0  0
   22.1427   -4.2968  -13.1099 O   0  0  0  0  0  0  0  0  0  0  0  0
  2  1  1  0
  3  2  1  0
  3  4  1  1
  3  5  1  0
  5  6  2  0
  8  7  1  0
  8 10  1  0
  9  8  2  0
 11 10  1  1
 11 13  1  0
 12  5  1  0
 12 11  1  0
 13 18  1  0
 13 14  2  0
 15 16  1  0
 17 16  1  6
 17 19  1  0
 18 17  1  0
 19 20  2  0
 19 21  1  0
M  END
$$$$
