SNS.pdb
     RDKit          3D

 21 20  0  0  1  0  0  0  0  0999 V2000
   17.2137  -11.5244  -15.3390 O   0  0  0  0  0  0  0  0  0  0  0  0
   17.7929  -11.0632  -16.5095 C   0  0  0  0  0  0  0  0  0  0  0  0
   19.2752  -10.8221  -16.3519 C   0  0  2  0  0  0  0  0  0  0  0  0
   19.9074  -12.0336  -15.9459 N   0  0  0  0  0  0  0  0  0  0  0  0
   19.5702   -9.7516  -15.3737 C   0  0  0  0  0  0  0  0  0  0  0  0
   19.1900   -9.8172  -14.1703 O   0  0  0  0  0  0  0  0  0  0  0  0
   21.9642   -6.0907  -12.4252 N   0  0  0  0  0  0  0  0  0  0  0  0
   22.2586   -6.0662  -13.8451 C   0  0  0  0  0  0  0  0  0  0  0  0
   22.7042   -4.9685  -14.2438 O   0  0  0  0  0  0  0  0  0  0  0  0
   22.0174   -7.2760  -14.6451 C   0  0  0  0  0  0  0  0  0  0  0  0
   20.5924   -7.4682  -14.9438 C   0  0  2  0  0  0  0  0  0  0  0  0
   20.2949   -8.6164  -15.7759 N   0  0  0  0  0  0  0  0  0  0  0  0
   20.0221   -6.2713  -15.6022 C   0  0  0  0  0  0  0  0  0  0  0  0
   20.1863   -5.9270  -16.7933 O   0  0  0  0  0  0  0  0  0  0  0  0
   16.6952   -2.7327  -15.2438 O   0  0  0  0  0  0  0  0  0  0  0  0
   17.2720   -3.9261  -14.7578 C   0  0  0  0  0  0  0  0  0  0  0  0
   18.6218   -4.1596  -15.4483 C   0  0  2  0  0  0  0  0  0  0  0  0
   19.1783   -5.3604  -14.8484 N   0  0  0  0  0  0  0  0  0  0  0  0
   19.4553   -2.9844  -15.1953 C   0  0  0  0  0  0  0  0  0  0  0  0
   20.1941   -2.9468  -14.1917 O   0  0  0  0  0  0  0  0  0  0  0  0
   19.4235   -1.9150  -16.0706 O   0  0  0  0  0  0  0  0  0  0  0  0
  2  1  1  0
  3  2  1  0
  3  4  1  1
  3  5  1  0
  5  6  2  0
  8  7  1  0
  8 10  1  0
  9  8  2  0
 11 10  1  6
 11 13  1  0
 12  5  1  0
 12 11  1  0
 13 18  1  0
 13 14  2  0
 15 16  1  0
 17 16  1  1
 17 19  1  0
 18 17  1  0
 19 20  2  0
 19 21  1  0
M  END
$$$$
