DVQ.pdb
     RDKit          3D

 25 24  0  0  1  0  0  0  0  0999 V2000
   23.8671  -15.7890  -18.1491 N   0  0  0  0  0  0  0  0  0  0  0  0
   24.3777  -14.5132  -18.6037 C   0  0  1  0  0  0  0  0  0  0  0  0
   23.7468  -14.0562  -19.8775 C   0  0  0  0  0  0  0  0  0  0  0  0
   24.0666  -15.0077  -20.9600 C   0  0  0  0  0  0  0  0  0  0  0  0
   24.5835  -16.1116  -20.7031 O   0  0  0  0  0  0  0  0  0  0  0  0
   24.3172  -13.4876  -17.5334 C   0  0  0  0  0  0  0  0  0  0  0  0
   23.4706  -13.6246  -16.6218 O   0  0  0  0  0  0  0  0  0  0  0  0
   23.7891  -14.6710  -22.2668 O   0  0  0  0  0  0  0  0  0  0  0  0
   26.6741   -9.7361  -15.3749 C   0  0  0  0  0  0  0  0  0  0  0  0
   26.6286  -10.8645  -16.3680 C   0  0  1  0  0  0  0  0  0  0  0  0
   27.4382  -12.0403  -15.8344 C   0  0  0  0  0  0  0  0  0  0  0  0
   25.2056  -11.3301  -16.5756 C   0  0  2  0  0  0  0  0  0  0  0  0
   25.2015  -12.3752  -17.5478 N   0  0  0  0  0  0  0  0  0  0  0  0
   24.4397  -10.1328  -17.0200 C   0  0  0  0  0  0  0  0  0  0  0  0
   24.6346   -9.5140  -18.0724 O   0  0  0  0  0  0  0  0  0  0  0  0
   18.9054   -8.2036  -14.6103 N   0  0  0  0  0  0  0  0  0  0  0  0
   18.8340   -8.7478  -15.9171 C   0  0  0  0  0  0  0  0  0  0  0  0
   17.7533   -9.0918  -16.4701 O   0  0  0  0  0  0  0  0  0  0  0  0
   20.1274   -8.9163  -16.6720 C   0  0  0  0  0  0  0  0  0  0  0  0
   21.2864   -8.4822  -15.8050 C   0  0  0  0  0  0  0  0  0  0  0  0
   22.6118   -8.5093  -16.4700 C   0  0  2  0  0  0  0  0  0  0  0  0
   23.4049   -9.6804  -16.1457 N   0  0  0  0  0  0  0  0  0  0  0  0
   23.3517   -7.2602  -16.0869 C   0  0  0  0  0  0  0  0  0  0  0  0
   23.9853   -7.2494  -15.0073 O   0  0  0  0  0  0  0  0  0  0  0  0
   23.3591   -6.1330  -16.8780 O   0  0  0  0  0  0  0  0  0  0  0  0
  2  1  1  1
  2  6  1  0
  2  3  1  0
  3  4  1  0
  4  5  2  0
  6 13  1  0
  7  6  2  0
  8  4  1  0
 10  9  1  1
 11 10  1  0
 12 10  1  0
 12 13  1  6
 14 15  2  0
 14 12  1  0
 16 17  1  0
 17 19  1  0
 18 17  2  0
 19 20  1  0
 21 22  1  0
 21 20  1  1
 22 14  1  0
 23 21  1  0
 24 23  2  0
 25 23  1  0
M  END
$$$$
