DVQ.pdb
     RDKit          3D

 25 24  0  0  1  0  0  0  0  0999 V2000
   18.7497  -14.9283  -18.1532 N   0  0  0  0  0  0  0  0  0  0  0  0
   18.1655  -13.7172  -17.6173 C   0  0  1  0  0  0  0  0  0  0  0  0
   16.9020  -13.9673  -16.8621 C   0  0  0  0  0  0  0  0  0  0  0  0
   15.8622  -14.4658  -17.7839 C   0  0  0  0  0  0  0  0  0  0  0  0
   15.7077  -15.6885  -17.9653 O   0  0  0  0  0  0  0  0  0  0  0  0
   19.1540  -12.9322  -16.8377 C   0  0  0  0  0  0  0  0  0  0  0  0
   19.8578  -13.5290  -15.9922 O   0  0  0  0  0  0  0  0  0  0  0  0
   15.0546  -13.5691  -18.4485 O   0  0  0  0  0  0  0  0  0  0  0  0
   22.0127  -11.2813  -17.9200 C   0  0  0  0  0  0  0  0  0  0  0  0
   21.2293  -10.1552  -17.3038 C   0  0  1  0  0  0  0  0  0  0  0  0
   20.4940   -9.3923  -18.3994 C   0  0  0  0  0  0  0  0  0  0  0  0
   20.2010  -10.6933  -16.3354 C   0  0  2  0  0  0  0  0  0  0  0  0
   19.2941  -11.5338  -17.0485 N   0  0  0  0  0  0  0  0  0  0  0  0
   19.5310   -9.5036  -15.7409 C   0  0  0  0  0  0  0  0  0  0  0  0
   18.5196   -8.9562  -16.1945 O   0  0  0  0  0  0  0  0  0  0  0  0
   17.1865   -8.9349  -10.6193 N   0  0  0  0  0  0  0  0  0  0  0  0
   17.2965   -7.5317  -10.7850 C   0  0  0  0  0  0  0  0  0  0  0  0
   16.6881   -6.6952  -10.0623 O   0  0  0  0  0  0  0  0  0  0  0  0
   18.1933   -7.0296  -11.8872 C   0  0  0  0  0  0  0  0  0  0  0  0
   18.7456   -8.1981  -12.6701 C   0  0  0  0  0  0  0  0  0  0  0  0
   19.5302   -7.8319  -13.8742 C   0  0  2  0  0  0  0  0  0  0  0  0
   20.1210   -8.9689  -14.5552 N   0  0  0  0  0  0  0  0  0  0  0  0
   20.6002   -6.8644  -13.4575 C   0  0  0  0  0  0  0  0  0  0  0  0
   21.7764   -7.2815  -13.3593 O   0  0  0  0  0  0  0  0  0  0  0  0
   20.3346   -5.5414  -13.1827 O   0  0  0  0  0  0  0  0  0  0  0  0
  2  1  1  1
  2  6  1  0
  2  3  1  0
  3  4  1  0
  4  5  2  0
  6 13  1  0
  7  6  2  0
  8  4  1  0
 10  9  1  6
 11 10  1  0
 12 10  1  0
 12 13  1  6
 14 15  2  0
 14 12  1  0
 16 17  1  0
 17 19  1  0
 18 17  2  0
 19 20  1  0
 21 22  1  0
 21 20  1  1
 22 14  1  0
 23 21  1  0
 24 23  2  0
 25 23  1  0
M  END
$$$$
