DVQ.pdb
     RDKit          3D

 25 24  0  0  1  0  0  0  0  0999 V2000
   18.9525  -13.3861  -16.5410 N   0  0  0  0  0  0  0  0  0  0  0  0
   19.4598  -12.1666  -17.1333 C   0  0  1  0  0  0  0  0  0  0  0  0
   18.3843  -11.3209  -17.7313 C   0  0  0  0  0  0  0  0  0  0  0  0
   17.6158  -12.1135  -18.7114 C   0  0  0  0  0  0  0  0  0  0  0  0
   18.1976  -12.8685  -19.5135 O   0  0  0  0  0  0  0  0  0  0  0  0
   20.3200  -11.4157  -16.1860 C   0  0  0  0  0  0  0  0  0  0  0  0
   19.9065  -11.2342  -15.0187 O   0  0  0  0  0  0  0  0  0  0  0  0
   16.2417  -12.0175  -18.7375 O   0  0  0  0  0  0  0  0  0  0  0  0
   24.8397   -9.9200  -15.0944 C   0  0  0  0  0  0  0  0  0  0  0  0
   23.8765  -10.6717  -15.9713 C   0  0  1  0  0  0  0  0  0  0  0  0
   23.9021  -12.1495  -15.5992 C   0  0  0  0  0  0  0  0  0  0  0  0
   22.4681  -10.1613  -15.7699 C   0  0  2  0  0  0  0  0  0  0  0  0
   21.5837  -10.9142  -16.5996 N   0  0  0  0  0  0  0  0  0  0  0  0
   22.4971   -8.7162  -16.1285 C   0  0  0  0  0  0  0  0  0  0  0  0
   22.8266   -8.2632  -17.2306 O   0  0  0  0  0  0  0  0  0  0  0  0
   21.1183   -2.6839  -17.9310 N   0  0  0  0  0  0  0  0  0  0  0  0
   21.0579   -4.0535  -17.5717 C   0  0  0  0  0  0  0  0  0  0  0  0
   21.2498   -4.9967  -18.3875 O   0  0  0  0  0  0  0  0  0  0  0  0
   20.7479   -4.3825  -16.1340 C   0  0  0  0  0  0  0  0  0  0  0  0
   20.8195   -5.8772  -15.9240 C   0  0  0  0  0  0  0  0  0  0  0  0
   22.0943   -6.3693  -15.3477 C   0  0  2  0  0  0  0  0  0  0  0  0
   22.1118   -7.7996  -15.1032 N   0  0  0  0  0  0  0  0  0  0  0  0
   22.3482   -5.6223  -14.0702 C   0  0  0  0  0  0  0  0  0  0  0  0
   22.0794   -6.1865  -12.9855 O   0  0  0  0  0  0  0  0  0  0  0  0
   22.8650   -4.3460  -14.0501 O   0  0  0  0  0  0  0  0  0  0  0  0
  2  1  1  1
  2  6  1  0
  2  3  1  0
  3  4  1  0
  4  5  2  0
  6 13  1  0
  7  6  2  0
  8  4  1  0
 10  9  1  1
 11 10  1  0
 12 10  1  0
 12 13  1  6
 14 15  2  0
 14 12  1  0
 16 17  1  0
 17 19  1  0
 18 17  2  0
 19 20  1  0
 21 22  1  0
 21 20  1  1
 22 14  1  0
 23 21  1  0
 24 23  2  0
 25 23  1  0
M  END
$$$$
