DVQ.pdb
     RDKit          3D

 25 24  0  0  1  0  0  0  0  0999 V2000
   13.1570  -11.5926  -10.4864 N   0  0  0  0  0  0  0  0  0  0  0  0
   14.4349  -11.0045  -10.8274 C   0  0  1  0  0  0  0  0  0  0  0  0
   15.0516  -11.6195  -12.0403 C   0  0  0  0  0  0  0  0  0  0  0  0
   15.2068  -13.0734  -11.8362 C   0  0  0  0  0  0  0  0  0  0  0  0
   14.7301  -13.6275  -10.8276 O   0  0  0  0  0  0  0  0  0  0  0  0
   14.3504   -9.5259  -10.9139 C   0  0  0  0  0  0  0  0  0  0  0  0
   13.2250   -8.9996  -11.0655 O   0  0  0  0  0  0  0  0  0  0  0  0
   15.8846  -13.8239  -12.7718 O   0  0  0  0  0  0  0  0  0  0  0  0
   13.4395   -7.4009   -9.4388 C   0  0  0  0  0  0  0  0  0  0  0  0
   14.8463   -6.8715   -9.4855 C   0  0  1  0  0  0  0  0  0  0  0  0
   15.6369   -7.4331   -8.3097 C   0  0  0  0  0  0  0  0  0  0  0  0
   15.5324   -7.3031  -10.7613 C   0  0  2  0  0  0  0  0  0  0  0  0
   15.5238   -8.7289  -10.8278 N   0  0  0  0  0  0  0  0  0  0  0  0
   16.9104   -6.7418  -10.6997 C   0  0  0  0  0  0  0  0  0  0  0  0
   17.7467   -7.0034   -9.8275 O   0  0  0  0  0  0  0  0  0  0  0  0
   20.7688   -7.1389  -14.9199 N   0  0  0  0  0  0  0  0  0  0  0  0
   20.4402   -8.0240  -13.8628 C   0  0  0  0  0  0  0  0  0  0  0  0
   20.7207   -9.2542  -13.8718 O   0  0  0  0  0  0  0  0  0  0  0  0
   19.7183   -7.4477  -12.6720 C   0  0  0  0  0  0  0  0  0  0  0  0
   19.4276   -5.9838  -12.9089 C   0  0  0  0  0  0  0  0  0  0  0  0
   18.6272   -5.3238  -11.8491 C   0  0  2  0  0  0  0  0  0  0  0  0
   17.2721   -5.8308  -11.7385 N   0  0  0  0  0  0  0  0  0  0  0  0
   18.6072   -3.8489  -12.1297 C   0  0  0  0  0  0  0  0  0  0  0  0
   17.5617   -3.3450  -12.5992 O   0  0  0  0  0  0  0  0  0  0  0  0
   19.6918   -3.0354  -11.8887 O   0  0  0  0  0  0  0  0  0  0  0  0
  2  1  1  6
  2  6  1  0
  2  3  1  0
  3  4  1  0
  4  5  2  0
  6 13  1  0
  7  6  2  0
  8  4  1  0
 10  9  1  6
 11 10  1  0
 12 10  1  0
 12 13  1  1
 14 15  2  0
 14 12  1  0
 16 17  1  0
 17 19  1  0
 18 17  2  0
 19 20  1  0
 21 22  1  0
 21 20  1  6
 22 14  1  0
 23 21  1  0
 24 23  2  0
 25 23  1  0
M  END
$$$$
