DVQ.pdb
     RDKit          3D

 25 24  0  0  1  0  0  0  0  0999 V2000
   19.8187  -12.3364  -16.5750 N   0  0  0  0  0  0  0  0  0  0  0  0
   18.9490  -11.2008  -16.3528 C   0  0  1  0  0  0  0  0  0  0  0  0
   17.5268  -11.4801  -16.7118 C   0  0  0  0  0  0  0  0  0  0  0  0
   17.4252  -11.7623  -18.1573 C   0  0  0  0  0  0  0  0  0  0  0  0
   17.4009  -12.9356  -18.5751 O   0  0  0  0  0  0  0  0  0  0  0  0
   19.0982  -10.6586  -14.9800 C   0  0  0  0  0  0  0  0  0  0  0  0
   19.0106  -11.4483  -14.0129 O   0  0  0  0  0  0  0  0  0  0  0  0
   17.3552  -10.7170  -19.0520 O   0  0  0  0  0  0  0  0  0  0  0  0
   21.9293   -8.8404  -13.4127 C   0  0  0  0  0  0  0  0  0  0  0  0
   20.7635   -7.8910  -13.4464 C   0  0  1  0  0  0  0  0  0  0  0  0
   20.8504   -7.0283  -14.6999 C   0  0  0  0  0  0  0  0  0  0  0  0
   19.4599   -8.6547  -13.4917 C   0  0  2  0  0  0  0  0  0  0  0  0
   19.3337   -9.2726  -14.7722 N   0  0  0  0  0  0  0  0  0  0  0  0
   18.3866   -7.6559  -13.2305 C   0  0  0  0  0  0  0  0  0  0  0  0
   17.8596   -6.9375  -14.0876 O   0  0  0  0  0  0  0  0  0  0  0  0
   15.3612   -7.4472   -7.7091 N   0  0  0  0  0  0  0  0  0  0  0  0
   14.6722   -6.4042   -8.3770 C   0  0  0  0  0  0  0  0  0  0  0  0
   13.7074   -5.7696   -7.8686 O   0  0  0  0  0  0  0  0  0  0  0  0
   15.1306   -6.0465   -9.7674 C   0  0  0  0  0  0  0  0  0  0  0  0
   16.2758   -6.9439  -10.1755 C   0  0  0  0  0  0  0  0  0  0  0  0
   16.8242   -6.6848  -11.5289 C   0  0  2  0  0  0  0  0  0  0  0  0
   17.9484   -7.5339  -11.8767 N   0  0  0  0  0  0  0  0  0  0  0  0
   17.2247   -5.2396  -11.6014 C   0  0  0  0  0  0  0  0  0  0  0  0
   18.3925   -4.9270  -11.2761 O   0  0  0  0  0  0  0  0  0  0  0  0
   16.3578   -4.2517  -12.0125 O   0  0  0  0  0  0  0  0  0  0  0  0
  2  1  1  1
  2  6  1  0
  2  3  1  0
  3  4  1  0
  4  5  2  0
  6 13  1  0
  7  6  2  0
  8  4  1  0
 10  9  1  6
 11 10  1  0
 12 10  1  0
 12 13  1  6
 14 15  2  0
 14 12  1  0
 16 17  1  0
 17 19  1  0
 18 17  2  0
 19 20  1  0
 21 22  1  0
 21 20  1  1
 22 14  1  0
 23 21  1  0
 24 23  2  0
 25 23  1  0
M  END
$$$$
