DVQ.pdb
     RDKit          3D

 25 24  0  0  1  0  0  0  0  0999 V2000
   18.7457  -13.8244  -20.0613 N   0  0  0  0  0  0  0  0  0  0  0  0
   19.3590  -13.3805  -18.8276 C   0  0  1  0  0  0  0  0  0  0  0  0
   20.8489  -13.3238  -18.9078 C   0  0  0  0  0  0  0  0  0  0  0  0
   21.3813  -14.6650  -19.2199 C   0  0  0  0  0  0  0  0  0  0  0  0
   20.6345  -15.6620  -19.2134 O   0  0  0  0  0  0  0  0  0  0  0  0
   18.7617  -12.1104  -18.3466 C   0  0  0  0  0  0  0  0  0  0  0  0
   18.5526  -11.1968  -19.1760 O   0  0  0  0  0  0  0  0  0  0  0  0
   22.7171  -14.8140  -19.5225 O   0  0  0  0  0  0  0  0  0  0  0  0
   16.7282  -12.1396  -14.7672 C   0  0  0  0  0  0  0  0  0  0  0  0
   16.6066  -11.0091  -15.7513 C   0  0  1  0  0  0  0  0  0  0  0  0
   16.1625   -9.7478  -15.0198 C   0  0  0  0  0  0  0  0  0  0  0  0
   17.9413  -10.7284  -16.4028 C   0  0  2  0  0  0  0  0  0  0  0  0
   18.4375  -11.9389  -16.9736 N   0  0  0  0  0  0  0  0  0  0  0  0
   18.8239  -10.2002  -15.3259 C   0  0  0  0  0  0  0  0  0  0  0  0
   19.3625  -10.8842  -14.4482 O   0  0  0  0  0  0  0  0  0  0  0  0
   21.7637   -4.7512  -15.9496 N   0  0  0  0  0  0  0  0  0  0  0  0
   22.1634   -5.0401  -14.6209 C   0  0  0  0  0  0  0  0  0  0  0  0
   22.9553   -4.3147  -13.9585 O   0  0  0  0  0  0  0  0  0  0  0  0
   21.6019   -6.2833  -13.9803 C   0  0  0  0  0  0  0  0  0  0  0  0
   20.5780   -6.9132  -14.8959 C   0  0  0  0  0  0  0  0  0  0  0  0
   19.9961   -8.1859  -14.4049 C   0  0  2  0  0  0  0  0  0  0  0  0
   19.0507   -8.7901  -15.3252 N   0  0  0  0  0  0  0  0  0  0  0  0
   19.3341   -7.9177  -13.0842 C   0  0  0  0  0  0  0  0  0  0  0  0
   19.9824   -8.1378  -12.0361 O   0  0  0  0  0  0  0  0  0  0  0  0
   18.0466   -7.4391  -12.9861 O   0  0  0  0  0  0  0  0  0  0  0  0
  2  1  1  6
  2  6  1  0
  2  3  1  0
  3  4  1  0
  4  5  2  0
  6 13  1  0
  7  6  2  0
  8  4  1  0
 10  9  1  1
 11 10  1  0
 12 10  1  0
 12 13  1  1
 14 15  2  0
 14 12  1  0
 16 17  1  0
 17 19  1  0
 18 17  2  0
 19 20  1  0
 21 22  1  0
 21 20  1  6
 22 14  1  0
 23 21  1  0
 24 23  2  0
 25 23  1  0
M  END
$$$$
