DVQ.pdb
     RDKit          3D

 25 24  0  0  1  0  0  0  0  0999 V2000
   27.5191  -22.9243  -16.9890 N   0  0  0  0  0  0  0  0  0  0  0  0
   26.6586  -22.1008  -16.1665 C   0  0  1  0  0  0  0  0  0  0  0  0
   26.8128  -20.6418  -16.4446 C   0  0  0  0  0  0  0  0  0  0  0  0
   28.2200  -20.2434  -16.2430 C   0  0  0  0  0  0  0  0  0  0  0  0
   29.0998  -21.1012  -16.0382 O   0  0  0  0  0  0  0  0  0  0  0  0
   25.2464  -22.5509  -16.2314 C   0  0  0  0  0  0  0  0  0  0  0  0
   24.6448  -22.4747  -17.3263 O   0  0  0  0  0  0  0  0  0  0  0  0
   28.5626  -18.9096  -16.2833 O   0  0  0  0  0  0  0  0  0  0  0  0
   21.8052  -25.3818  -14.2606 C   0  0  0  0  0  0  0  0  0  0  0  0
   23.2114  -24.8521  -14.3199 C   0  0  1  0  0  0  0  0  0  0  0  0
   24.0887  -25.8324  -15.0896 C   0  0  0  0  0  0  0  0  0  0  0  0
   23.2471  -23.5242  -15.0411 C   0  0  2  0  0  0  0  0  0  0  0  0
   24.5949  -23.0552  -15.0735 N   0  0  0  0  0  0  0  0  0  0  0  0
   22.3440  -22.6166  -14.2807 C   0  0  0  0  0  0  0  0  0  0  0  0
   22.4643  -22.3328  -13.0834 O   0  0  0  0  0  0  0  0  0  0  0  0
   21.1593  -18.1210  -13.7532 N   0  0  0  0  0  0  0  0  0  0  0  0
   19.7461  -18.0282  -13.6971 C   0  0  0  0  0  0  0  0  0  0  0  0
   19.1318  -17.1453  -13.0374 O   0  0  0  0  0  0  0  0  0  0  0  0
   18.9509  -19.0459  -14.4737 C   0  0  0  0  0  0  0  0  0  0  0  0
   19.8881  -20.0083  -15.1656 C   0  0  0  0  0  0  0  0  0  0  0  0
   20.2889  -21.1847  -14.3562 C   0  0  2  0  0  0  0  0  0  0  0  0
   21.2597  -22.0416  -15.0111 N   0  0  0  0  0  0  0  0  0  0  0  0
   19.0505  -21.9654  -14.0225 C   0  0  0  0  0  0  0  0  0  0  0  0
   18.6751  -22.8570  -14.8170 O   0  0  0  0  0  0  0  0  0  0  0  0
   18.3184  -21.7374  -12.8786 O   0  0  0  0  0  0  0  0  0  0  0  0
  2  1  1  6
  2  6  1  0
  2  3  1  0
  3  4  1  0
  4  5  2  0
  6 13  1  0
  7  6  2  0
  8  4  1  0
 10  9  1  6
 11 10  1  0
 12 10  1  0
 12 13  1  1
 14 15  2  0
 14 12  1  0
 16 17  1  0
 17 19  1  0
 18 17  2  0
 19 20  1  0
 21 22  1  0
 21 20  1  6
 22 14  1  0
 23 21  1  0
 24 23  2  0
 25 23  1  0
M  END
$$$$
