DVQ.pdb
     RDKit          3D

 25 24  0  0  1  0  0  0  0  0999 V2000
   21.0787   -8.4675  -19.1179 N   0  0  0  0  0  0  0  0  0  0  0  0
   21.5566   -7.7627  -17.9474 C   0  0  1  0  0  0  0  0  0  0  0  0
   21.4281   -6.2801  -18.0701 C   0  0  0  0  0  0  0  0  0  0  0  0
   22.2460   -5.8023  -19.2025 C   0  0  0  0  0  0  0  0  0  0  0  0
   23.0923   -6.5465  -19.7332 O   0  0  0  0  0  0  0  0  0  0  0  0
   20.9438   -8.2905  -16.7037 C   0  0  0  0  0  0  0  0  0  0  0  0
   19.7670   -8.7140  -16.7505 O   0  0  0  0  0  0  0  0  0  0  0  0
   22.0697   -4.5210  -19.6772 O   0  0  0  0  0  0  0  0  0  0  0  0
   21.6920   -9.9754  -12.1599 C   0  0  0  0  0  0  0  0  0  0  0  0
   22.2351   -9.4384  -13.4554 C   0  0  1  0  0  0  0  0  0  0  0  0
   22.7387  -10.5952  -14.3104 C   0  0  0  0  0  0  0  0  0  0  0  0
   21.1512   -8.7214  -14.2273 C   0  0  2  0  0  0  0  0  0  0  0  0
   21.6797   -8.3114  -15.4881 N   0  0  0  0  0  0  0  0  0  0  0  0
   20.7336   -7.5698  -13.3805 C   0  0  0  0  0  0  0  0  0  0  0  0
   21.3553   -6.5071  -13.2683 O   0  0  0  0  0  0  0  0  0  0  0  0
   16.4155   -4.4124  -14.4879 N   0  0  0  0  0  0  0  0  0  0  0  0
   16.4956   -3.8794  -13.1770 C   0  0  0  0  0  0  0  0  0  0  0  0
   15.8600   -2.8563  -12.8012 O   0  0  0  0  0  0  0  0  0  0  0  0
   17.3915   -4.5860  -12.1924 C   0  0  0  0  0  0  0  0  0  0  0  0
   18.0898   -5.7404  -12.8728 C   0  0  0  0  0  0  0  0  0  0  0  0
   18.8987   -6.6009  -11.9756 C   0  0  2  0  0  0  0  0  0  0  0  0
   19.5177   -7.7280  -12.6481 N   0  0  0  0  0  0  0  0  0  0  0  0
   18.0098   -7.0842  -10.8662 C   0  0  0  0  0  0  0  0  0  0  0  0
   17.5070   -8.2269  -10.9592 O   0  0  0  0  0  0  0  0  0  0  0  0
   17.7311   -6.3193   -9.7554 O   0  0  0  0  0  0  0  0  0  0  0  0
  2  1  1  6
  2  6  1  0
  2  3  1  0
  3  4  1  0
  4  5  2  0
  6 13  1  0
  7  6  2  0
  8  4  1  0
 10  9  1  1
 11 10  1  0
 12 10  1  0
 12 13  1  6
 14 15  2  0
 14 12  1  0
 16 17  1  0
 17 19  1  0
 18 17  2  0
 19 20  1  0
 21 22  1  0
 21 20  1  6
 22 14  1  0
 23 21  1  0
 24 23  2  0
 25 23  1  0
M  END
$$$$
