MET.pdb
     RDKit          3D

 25 24  0  0  1  0  0  0  0  0999 V2000
   14.6731   -9.9715  -17.2318 C   0  0  0  0  0  0  0  0  0  0  0  0
   14.8769  -10.9991  -15.7749 S   0  0  0  0  0  0  0  0  0  0  0  0
   16.3648  -11.9600  -15.8535 C   0  0  0  0  0  0  0  0  0  0  0  0
   17.6250  -11.2312  -15.6687 C   0  0  0  0  0  0  0  0  0  0  0  0
   18.7888  -11.5167  -16.5330 C   0  0  2  0  0  0  0  0  0  0  0  0
   19.2376  -12.8857  -16.1910 N   0  0  0  0  0  0  0  0  0  0  0  0
   19.9444  -10.5971  -16.1440 C   0  0  0  0  0  0  0  0  0  0  0  0
   20.3798  -10.6977  -14.9826 O   0  0  0  0  0  0  0  0  0  0  0  0
   20.4967   -9.6783  -17.0457 N   0  0  0  0  0  0  0  0  0  0  0  0
   21.6003   -8.7870  -16.6644 C   0  0  1  0  0  0  0  0  0  0  0  0
   22.5142   -8.5488  -17.8089 C   0  0  0  0  0  0  0  0  0  0  0  0
   23.2721   -9.7663  -18.2181 C   0  0  0  0  0  0  0  0  0  0  0  0
   24.0568   -9.6276  -19.4582 C   0  0  0  0  0  0  0  0  0  0  0  0
   24.9706   -8.7942  -19.6475 O   0  0  0  0  0  0  0  0  0  0  0  0
   21.0507   -7.5150  -16.1429 C   0  0  0  0  0  0  0  0  0  0  0  0
   20.0367   -6.9620  -16.6206 O   0  0  0  0  0  0  0  0  0  0  0  0
   23.7968  -10.4771  -20.5487 O   0  0  0  0  0  0  0  0  0  0  0  0
   19.6829   -7.3105  -12.9494 C   0  0  0  0  0  0  0  0  0  0  0  0
   19.6605   -6.0776  -13.8187 C   0  0  1  0  0  0  0  0  0  0  0  0
   19.1781   -4.9880  -13.1144 O   0  0  0  0  0  0  0  0  0  0  0  0
   21.0194   -5.7260  -14.3505 C   0  0  2  0  0  0  0  0  0  0  0  0
   21.6594   -6.8280  -15.0390 N   0  0  0  0  0  0  0  0  0  0  0  0
   21.9132   -5.1729  -13.2997 C   0  0  0  0  0  0  0  0  0  0  0  0
   23.0864   -5.8518  -12.9585 O   0  0  0  0  0  0  0  0  0  0  0  0
   21.6514   -4.1126  -12.7047 O   0  0  0  0  0  0  0  0  0  0  0  0
  2  1  1  0
  3  4  1  0
  3  2  1  0
  4  5  1  0
  5  7  1  0
  5  6  1  1
  7  8  2  0
  9  7  1  0
  9 10  1  0
 10 15  1  0
 11 12  1  0
 10 11  1  6
 12 13  1  0
 13 14  2  0
 15 22  1  0
 15 16  2  0
 17 13  1  0
 19 21  1  0
 19 18  1  1
 20 19  1  0
 21 23  1  0
 21 22  1  1
 23 24  1  0
 25 23  2  0
M  END
$$$$
