MET.pdb
     RDKit          3D

 25 24  0  0  1  0  0  0  0  0999 V2000
    8.3555   -8.7178   -6.5939 C   0  0  0  0  0  0  0  0  0  0  0  0
    9.0752   -8.3924   -8.2051 S   0  0  0  0  0  0  0  0  0  0  0  0
   10.6912   -7.6759   -8.0685 C   0  0  0  0  0  0  0  0  0  0  0  0
   11.3853   -7.3821   -9.3276 C   0  0  0  0  0  0  0  0  0  0  0  0
   12.7367   -6.7852   -9.3161 C   0  0  2  0  0  0  0  0  0  0  0  0
   12.5595   -5.3563   -8.9703 N   0  0  0  0  0  0  0  0  0  0  0  0
   13.3061   -6.7967  -10.7331 C   0  0  0  0  0  0  0  0  0  0  0  0
   12.9965   -5.8458  -11.4738 O   0  0  0  0  0  0  0  0  0  0  0  0
   14.1399   -7.8259  -11.1889 N   0  0  0  0  0  0  0  0  0  0  0  0
   14.6542   -7.8539  -12.5645 C   0  0  1  0  0  0  0  0  0  0  0  0
   15.3751   -6.5987  -12.8909 C   0  0  0  0  0  0  0  0  0  0  0  0
   15.9906   -6.6115  -14.2492 C   0  0  0  0  0  0  0  0  0  0  0  0
   16.6959   -5.3739  -14.6282 C   0  0  0  0  0  0  0  0  0  0  0  0
   17.9074   -5.2944  -14.9306 O   0  0  0  0  0  0  0  0  0  0  0  0
   15.5279   -9.0360  -12.7415 C   0  0  0  0  0  0  0  0  0  0  0  0
   16.5410   -9.2480  -12.0408 O   0  0  0  0  0  0  0  0  0  0  0  0
   15.9957   -4.1547  -14.6688 O   0  0  0  0  0  0  0  0  0  0  0  0
   16.3300  -13.4851  -14.8884 C   0  0  0  0  0  0  0  0  0  0  0  0
   15.4595  -12.2601  -14.7556 C   0  0  1  0  0  0  0  0  0  0  0  0
   14.2668  -12.5703  -14.1255 O   0  0  0  0  0  0  0  0  0  0  0  0
   16.1274  -11.1634  -13.9781 C   0  0  2  0  0  0  0  0  0  0  0  0
   15.2604  -10.0266  -13.7456 N   0  0  0  0  0  0  0  0  0  0  0  0
   17.4078  -10.7299  -14.5959 C   0  0  0  0  0  0  0  0  0  0  0  0
   17.3933   -9.8236  -15.6599 O   0  0  0  0  0  0  0  0  0  0  0  0
   18.5074  -11.1502  -14.1946 O   0  0  0  0  0  0  0  0  0  0  0  0
  2  1  1  0
  3  4  1  0
  3  2  1  0
  4  5  1  0
  5  7  1  0
  5  6  1  6
  7  8  2  0
  9  7  1  0
  9 10  1  0
 10 15  1  0
 11 12  1  0
 10 11  1  1
 12 13  1  0
 13 14  2  0
 15 22  1  0
 15 16  2  0
 17 13  1  0
 19 21  1  0
 19 18  1  1
 20 19  1  0
 21 23  1  0
 21 22  1  6
 23 24  1  0
 25 23  2  0
M  END
$$$$
