MET.pdb
     RDKit          3D

 25 24  0  0  1  0  0  0  0  0999 V2000
   10.3970  -12.5639  -10.4497 C   0  0  0  0  0  0  0  0  0  0  0  0
   11.4665  -11.5428  -11.4663 S   0  0  0  0  0  0  0  0  0  0  0  0
   12.1493  -12.4572  -12.8233 C   0  0  0  0  0  0  0  0  0  0  0  0
   13.0865  -11.7363  -13.6923 C   0  0  0  0  0  0  0  0  0  0  0  0
   14.5299  -12.0504  -13.6607 C   0  0  2  0  0  0  0  0  0  0  0  0
   14.6729  -13.2769  -12.8435 N   0  0  0  0  0  0  0  0  0  0  0  0
   15.2680  -10.9568  -12.8917 C   0  0  0  0  0  0  0  0  0  0  0  0
   15.5887  -11.2110  -11.7165 O   0  0  0  0  0  0  0  0  0  0  0  0
   15.5752   -9.7199  -13.4731 N   0  0  0  0  0  0  0  0  0  0  0  0
   16.3672   -8.7062  -12.7638 C   0  0  1  0  0  0  0  0  0  0  0  0
   17.1003   -7.8377  -13.7176 C   0  0  0  0  0  0  0  0  0  0  0  0
   17.8979   -6.7711  -13.0465 C   0  0  0  0  0  0  0  0  0  0  0  0
   18.6142   -5.8592  -13.9565 C   0  0  0  0  0  0  0  0  0  0  0  0
   19.6974   -6.1113  -14.5296 O   0  0  0  0  0  0  0  0  0  0  0  0
   15.4793   -7.9101  -11.8865 C   0  0  0  0  0  0  0  0  0  0  0  0
   14.3529   -7.5022  -12.2435 O   0  0  0  0  0  0  0  0  0  0  0  0
   18.0790   -4.5890  -14.2372 O   0  0  0  0  0  0  0  0  0  0  0  0
   14.3412   -6.2447   -7.3274 C   0  0  0  0  0  0  0  0  0  0  0  0
   15.2730   -7.0231   -8.2230 C   0  0  1  0  0  0  0  0  0  0  0  0
   15.1394   -8.3838   -8.0078 O   0  0  0  0  0  0  0  0  0  0  0  0
   15.0270   -6.7538   -9.6791 C   0  0  2  0  0  0  0  0  0  0  0  0
   15.8645   -7.5518  -10.5508 N   0  0  0  0  0  0  0  0  0  0  0  0
   15.1430   -5.3108  -10.0157 C   0  0  0  0  0  0  0  0  0  0  0  0
   14.0499   -4.4621   -9.8190 O   0  0  0  0  0  0  0  0  0  0  0  0
   16.1925   -4.8240  -10.4721 O   0  0  0  0  0  0  0  0  0  0  0  0
  2  1  1  0
  3  4  1  0
  3  2  1  0
  4  5  1  0
  5  7  1  0
  5  6  1  1
  7  8  2  0
  9  7  1  0
  9 10  1  0
 10 15  1  0
 11 12  1  0
 10 11  1  6
 12 13  1  0
 13 14  2  0
 15 22  1  0
 15 16  2  0
 17 13  1  0
 19 21  1  0
 19 18  1  1
 20 19  1  0
 21 23  1  0
 21 22  1  6
 23 24  1  0
 25 23  2  0
M  END
$$$$
