MET.pdb
     RDKit          3D

 25 24  0  0  1  0  0  0  0  0999 V2000
   26.4037  -28.7840  -17.9016 C   0  0  0  0  0  0  0  0  0  0  0  0
   28.1211  -28.4143  -18.2671 S   0  0  0  0  0  0  0  0  0  0  0  0
   28.4929  -26.7007  -18.0045 C   0  0  0  0  0  0  0  0  0  0  0  0
   27.5319  -25.9386  -17.1989 C   0  0  0  0  0  0  0  0  0  0  0  0
   27.6619  -24.4729  -17.0665 C   0  0  2  0  0  0  0  0  0  0  0  0
   28.9408  -24.2287  -16.3613 N   0  0  0  0  0  0  0  0  0  0  0  0
   26.5722  -23.9515  -16.1322 C   0  0  0  0  0  0  0  0  0  0  0  0
   26.7926  -24.0275  -14.9097 O   0  0  0  0  0  0  0  0  0  0  0  0
   25.3751  -23.4104  -16.6182 N   0  0  0  0  0  0  0  0  0  0  0  0
   24.3649  -22.8344  -15.7207 C   0  0  1  0  0  0  0  0  0  0  0  0
   24.1894  -21.3832  -15.9755 C   0  0  0  0  0  0  0  0  0  0  0  0
   23.1072  -20.7695  -15.1529 C   0  0  0  0  0  0  0  0  0  0  0  0
   22.8224  -19.3540  -15.4492 C   0  0  0  0  0  0  0  0  0  0  0  0
   23.3941  -18.6684  -16.3259 O   0  0  0  0  0  0  0  0  0  0  0  0
   23.0875  -23.5656  -15.8803 C   0  0  0  0  0  0  0  0  0  0  0  0
   22.5225  -23.7210  -16.9844 O   0  0  0  0  0  0  0  0  0  0  0  0
   21.8362  -18.6709  -14.7150 O   0  0  0  0  0  0  0  0  0  0  0  0
   22.3344  -27.1233  -14.3866 C   0  0  0  0  0  0  0  0  0  0  0  0
   21.2176  -26.1740  -14.0293 C   0  0  1  0  0  0  0  0  0  0  0  0
   21.3198  -25.7689  -12.7097 O   0  0  0  0  0  0  0  0  0  0  0  0
   21.2078  -24.9479  -14.8952 C   0  0  2  0  0  0  0  0  0  0  0  0
   22.4087  -24.1497  -14.7582 N   0  0  0  0  0  0  0  0  0  0  0  0
   19.9958  -24.1144  -14.6831 C   0  0  0  0  0  0  0  0  0  0  0  0
   20.1249  -22.8181  -14.1763 O   0  0  0  0  0  0  0  0  0  0  0  0
   18.8546  -24.5342  -14.9442 O   0  0  0  0  0  0  0  0  0  0  0  0
  2  1  1  0
  3  4  1  0
  3  2  1  0
  4  5  1  0
  5  7  1  0
  5  6  1  1
  7  8  2  0
  9  7  1  0
  9 10  1  0
 10 15  1  0
 11 12  1  0
 10 11  1  6
 12 13  1  0
 13 14  2  0
 15 22  1  0
 15 16  2  0
 17 13  1  0
 19 21  1  0
 19 18  1  6
 20 19  1  0
 21 23  1  0
 21 22  1  1
 23 24  1  0
 25 23  2  0
M  END
$$$$
