MET.pdb
     RDKit          3D

 25 24  0  0  1  0  0  0  0  0999 V2000
   27.9555  -18.9943   -5.6174 C   0  0  0  0  0  0  0  0  0  0  0  0
   26.9167  -19.6265   -6.9369 S   0  0  0  0  0  0  0  0  0  0  0  0
   27.3316  -18.9032   -8.5015 C   0  0  0  0  0  0  0  0  0  0  0  0
   26.5276  -19.3289   -9.6529 C   0  0  0  0  0  0  0  0  0  0  0  0
   25.9634  -20.6932   -9.7088 C   0  0  2  0  0  0  0  0  0  0  0  0
   27.0987  -21.6043   -9.9799 N   0  0  0  0  0  0  0  0  0  0  0  0
   25.0445  -20.8104  -10.9229 C   0  0  0  0  0  0  0  0  0  0  0  0
   25.5155  -21.3569  -11.9369 O   0  0  0  0  0  0  0  0  0  0  0  0
   23.7295  -20.3281  -10.9070 N   0  0  0  0  0  0  0  0  0  0  0  0
   22.8086  -20.5528  -12.0292 C   0  0  1  0  0  0  0  0  0  0  0  0
   21.4109  -20.6975  -11.5523 C   0  0  0  0  0  0  0  0  0  0  0  0
   21.2785  -21.6316  -10.3972 C   0  0  0  0  0  0  0  0  0  0  0  0
   19.9236  -21.7317   -9.8256 C   0  0  0  0  0  0  0  0  0  0  0  0
   18.8998  -21.1812  -10.2884 O   0  0  0  0  0  0  0  0  0  0  0  0
   22.9320  -19.4418  -12.9999 C   0  0  0  0  0  0  0  0  0  0  0  0
   22.9422  -18.2381  -12.6632 O   0  0  0  0  0  0  0  0  0  0  0  0
   19.7095  -22.4965   -8.6647 O   0  0  0  0  0  0  0  0  0  0  0  0
   25.7573  -18.9185  -15.5691 C   0  0  0  0  0  0  0  0  0  0  0  0
   24.4325  -18.9108  -16.2908 C   0  0  1  0  0  0  0  0  0  0  0  0
   24.2011  -20.1285  -16.9069 O   0  0  0  0  0  0  0  0  0  0  0  0
   23.2804  -18.6254  -15.3719 C   0  0  2  0  0  0  0  0  0  0  0  0
   23.0490  -19.6835  -14.4102 N   0  0  0  0  0  0  0  0  0  0  0  0
   22.0317  -18.3054  -16.1117 C   0  0  0  0  0  0  0  0  0  0  0  0
   21.9934  -17.1966  -16.9619 O   0  0  0  0  0  0  0  0  0  0  0  0
   21.0051  -18.9985  -16.0004 O   0  0  0  0  0  0  0  0  0  0  0  0
  2  1  1  0
  3  4  1  0
  3  2  1  0
  4  5  1  0
  5  7  1  0
  5  6  1  6
  7  8  2  0
  9  7  1  0
  9 10  1  0
 10 15  1  0
 11 12  1  0
 10 11  1  1
 12 13  1  0
 13 14  2  0
 15 22  1  0
 15 16  2  0
 17 13  1  0
 19 21  1  0
 19 18  1  1
 20 19  1  0
 21 23  1  0
 21 22  1  6
 23 24  1  0
 25 23  2  0
M  END
$$$$
