IPV.pdb
     RDKit          3D

 23 23  0  0  1  0  0  0  0  0999 V2000
   22.2756  -18.1955  -16.0073 C   0  0  0  0  0  0  0  0  0  0  0  0
   23.3310  -19.2441  -16.1984 C   0  0  0  0  0  0  0  0  0  0  0  0
   23.9232  -19.6766  -14.9112 C   0  0  2  0  0  0  0  0  0  0  0  0
   24.7329  -18.4852  -14.3431 C   0  0  0  0  0  0  0  0  0  0  0  0
   24.8466  -20.8792  -14.9754 C   0  0  2  0  0  0  0  0  0  0  0  0
   23.8936  -21.9979  -15.2681 N   0  0  0  0  0  0  0  0  0  0  0  0
   25.4340  -21.2518  -13.6769 C   0  0  0  0  0  0  0  0  0  0  0  0
   24.6789  -21.7537  -12.7762 O   0  0  0  0  0  0  0  0  0  0  0  0
   26.7868  -21.0967  -13.3527 N   0  0  0  0  0  0  0  0  0  0  0  0
   27.8407  -20.6463  -14.2243 C   0  0  0  0  0  0  0  0  0  0  0  0
   29.1042  -21.3227  -13.7100 C   0  0  0  0  0  0  0  0  0  0  0  0
   28.8741  -21.2587  -12.2174 C   0  0  0  0  0  0  0  0  0  0  0  0
   27.3975  -21.3764  -12.0542 C   0  0  1  0  0  0  0  0  0  0  0  0
   26.8396  -20.5062  -10.9981 C   0  0  0  0  0  0  0  0  0  0  0  0
   26.5118  -19.3249  -11.2776 O   0  0  0  0  0  0  0  0  0  0  0  0
   23.9110  -20.8240   -8.8723 C   0  0  0  0  0  0  0  0  0  0  0  0
   25.0380  -20.5544   -7.9285 C   0  0  1  0  0  0  0  0  0  0  0  0
   25.4144  -21.8775   -7.2743 C   0  0  0  0  0  0  0  0  0  0  0  0
   26.2696  -20.0222   -8.5920 C   0  0  2  0  0  0  0  0  0  0  0  0
   26.6462  -20.9261   -9.6628 N   0  0  0  0  0  0  0  0  0  0  0  0
   27.3970  -19.8072   -7.6516 C   0  0  0  0  0  0  0  0  0  0  0  0
   27.3783  -18.6967   -6.8033 O   0  0  0  0  0  0  0  0  0  0  0  0
   28.3766  -20.5708   -7.5716 O   0  0  0  0  0  0  0  0  0  0  0  0
  2  1  1  0
  3  2  1  0
  3  4  1  6
  5  6  1  1
  5  7  1  0
  5  3  1  0
  7  9  1  0
  8  7  2  0
  9 10  1  0
  9 13  1  0
 10 11  1  0
 12 11  1  0
 13 12  1  0
 14 20  1  0
 13 14  1  1
 15 14  2  0
 17 16  1  6
 18 17  1  0
 19 17  1  0
 19 20  1  6
 21 19  1  0
 21 22  1  0
 23 21  2  0
M  END
$$$$
