IPV.pdb
     RDKit          3D

 23 23  0  0  1  0  0  0  0  0999 V2000
   13.1562  -26.6644   -5.2352 C   0  0  0  0  0  0  0  0  0  0  0  0
   14.6393  -26.8427   -5.3708 C   0  0  0  0  0  0  0  0  0  0  0  0
   15.2289  -27.5086   -4.1860 C   0  0  2  0  0  0  0  0  0  0  0  0
   15.0826  -26.5435   -2.9839 C   0  0  0  0  0  0  0  0  0  0  0  0
   16.6925  -27.8929   -4.2995 C   0  0  2  0  0  0  0  0  0  0  0  0
   16.6508  -29.0207   -5.2853 N   0  0  0  0  0  0  0  0  0  0  0  0
   17.2438  -28.5132   -3.0825 C   0  0  0  0  0  0  0  0  0  0  0  0
   16.8033  -29.6552   -2.7148 O   0  0  0  0  0  0  0  0  0  0  0  0
   18.2378  -27.9332   -2.2857 N   0  0  0  0  0  0  0  0  0  0  0  0
   18.8772  -26.6591   -2.4884 C   0  0  0  0  0  0  0  0  0  0  0  0
   20.2712  -26.8101   -1.8946 C   0  0  0  0  0  0  0  0  0  0  0  0
   19.9724  -27.6554   -0.6777 C   0  0  0  0  0  0  0  0  0  0  0  0
   18.8318  -28.5226   -1.0869 C   0  0  1  0  0  0  0  0  0  0  0  0
   17.8208  -28.7232   -0.0278 C   0  0  0  0  0  0  0  0  0  0  0  0
   16.8533  -27.9253    0.0642 O   0  0  0  0  0  0  0  0  0  0  0  0
   17.4599  -32.4341    2.1504 C   0  0  0  0  0  0  0  0  0  0  0  0
   16.3971  -31.4489    1.7853 C   0  0  1  0  0  0  0  0  0  0  0  0
   15.2402  -31.6416    2.7573 C   0  0  0  0  0  0  0  0  0  0  0  0
   16.8323  -30.0208    1.8924 C   0  0  2  0  0  0  0  0  0  0  0  0
   17.8726  -29.7787    0.9102 N   0  0  0  0  0  0  0  0  0  0  0  0
   17.2847  -29.6454    3.2548 C   0  0  0  0  0  0  0  0  0  0  0  0
   16.3693  -29.0842    4.1495 O   0  0  0  0  0  0  0  0  0  0  0  0
   18.4523  -29.8031    3.6560 O   0  0  0  0  0  0  0  0  0  0  0  0
  2  1  1  0
  3  2  1  0
  3  4  1  1
  5  6  1  6
  5  7  1  0
  5  3  1  0
  7  9  1  0
  8  7  2  0
  9 10  1  0
  9 13  1  0
 10 11  1  0
 12 11  1  0
 13 12  1  0
 14 20  1  0
 13 14  1  1
 15 14  2  0
 17 16  1  1
 18 17  1  0
 19 17  1  0
 19 20  1  6
 21 19  1  0
 21 22  1  0
 23 21  2  0
M  END
$$$$
