IPV.pdb
     RDKit          3D

 23 23  0  0  1  0  0  0  0  0999 V2000
   29.8582  -21.7390  -12.1020 C   0  0  0  0  0  0  0  0  0  0  0  0
   28.8357  -20.7971  -11.5387 C   0  0  0  0  0  0  0  0  0  0  0  0
   27.8069  -20.4312  -12.5400 C   0  0  2  0  0  0  0  0  0  0  0  0
   28.5366  -19.8167  -13.7597 C   0  0  0  0  0  0  0  0  0  0  0  0
   26.7540  -19.4403  -12.0791 C   0  0  2  0  0  0  0  0  0  0  0  0
   25.9692  -20.2461  -11.0890 N   0  0  0  0  0  0  0  0  0  0  0  0
   25.7630  -19.0968  -13.1134 C   0  0  0  0  0  0  0  0  0  0  0  0
   24.7042  -19.8050  -13.2168 O   0  0  0  0  0  0  0  0  0  0  0  0
   25.8974  -18.0275  -14.0065 N   0  0  0  0  0  0  0  0  0  0  0  0
   27.0105  -17.1199  -14.1107 C   0  0  0  0  0  0  0  0  0  0  0  0
   26.4169  -15.8125  -14.6176 C   0  0  0  0  0  0  0  0  0  0  0  0
   25.3850  -16.3281  -15.5945 C   0  0  0  0  0  0  0  0  0  0  0  0
   24.9162  -17.6158  -15.0091 C   0  0  1  0  0  0  0  0  0  0  0  0
   24.6878  -18.6807  -16.0080 C   0  0  0  0  0  0  0  0  0  0  0  0
   25.6516  -19.3965  -16.3819 O   0  0  0  0  0  0  0  0  0  0  0  0
   21.2220  -20.8909  -16.4172 C   0  0  0  0  0  0  0  0  0  0  0  0
   22.5802  -21.1569  -16.9812 C   0  0  1  0  0  0  0  0  0  0  0  0
   22.4255  -22.2087  -18.0721 C   0  0  0  0  0  0  0  0  0  0  0  0
   23.2208  -19.9586  -17.6090 C   0  0  2  0  0  0  0  0  0  0  0  0
   23.4263  -18.9527  -16.5836 N   0  0  0  0  0  0  0  0  0  0  0  0
   22.4475  -19.4095  -18.7501 C   0  0  0  0  0  0  0  0  0  0  0  0
   22.6641  -19.9207  -20.0328 O   0  0  0  0  0  0  0  0  0  0  0  0
   21.6017  -18.5041  -18.6312 O   0  0  0  0  0  0  0  0  0  0  0  0
  2  1  1  0
  3  2  1  0
  3  4  1  6
  5  6  1  1
  5  7  1  0
  5  3  1  0
  7  9  1  0
  8  7  2  0
  9 10  1  0
  9 13  1  0
 10 11  1  0
 12 11  1  0
 13 12  1  0
 14 20  1  0
 13 14  1  6
 15 14  2  0
 17 16  1  6
 18 17  1  0
 19 17  1  0
 19 20  1  1
 21 19  1  0
 21 22  1  0
 23 21  2  0
M  END
$$$$
