IPV.pdb
     RDKit          3D

 23 23  0  0  1  0  0  0  0  0999 V2000
   27.1914  -15.3201  -16.5975 C   0  0  0  0  0  0  0  0  0  0  0  0
   27.8288  -16.5967  -16.1349 C   0  0  0  0  0  0  0  0  0  0  0  0
   26.8264  -17.5730  -15.6484 C   0  0  2  0  0  0  0  0  0  0  0  0
   26.1667  -16.9763  -14.3809 C   0  0  0  0  0  0  0  0  0  0  0  0
   27.3575  -18.9495  -15.2932 C   0  0  2  0  0  0  0  0  0  0  0  0
   27.7689  -19.4874  -16.6300 N   0  0  0  0  0  0  0  0  0  0  0  0
   26.3197  -19.8925  -14.8418 C   0  0  0  0  0  0  0  0  0  0  0  0
   25.4756  -20.3384  -15.6915 O   0  0  0  0  0  0  0  0  0  0  0  0
   26.1907  -20.3478  -13.5245 N   0  0  0  0  0  0  0  0  0  0  0  0
   27.0834  -20.0855  -12.4256 C   0  0  0  0  0  0  0  0  0  0  0  0
   26.9628  -21.2976  -11.5118 C   0  0  0  0  0  0  0  0  0  0  0  0
   25.4835  -21.5890  -11.6189 C   0  0  0  0  0  0  0  0  0  0  0  0
   25.1175  -21.1963  -13.0091 C   0  0  1  0  0  0  0  0  0  0  0  0
   23.8037  -20.5283  -13.1175 C   0  0  0  0  0  0  0  0  0  0  0  0
   23.6801  -19.3382  -12.7309 O   0  0  0  0  0  0  0  0  0  0  0  0
   21.9585  -19.4339  -15.8435 C   0  0  0  0  0  0  0  0  0  0  0  0
   20.9697  -20.2692  -15.0964 C   0  0  1  0  0  0  0  0  0  0  0  0
   20.8970  -21.6235  -15.7899 C   0  0  0  0  0  0  0  0  0  0  0  0
   21.3455  -20.5218  -13.6698 C   0  0  2  0  0  0  0  0  0  0  0  0
   22.6504  -21.1556  -13.6398 N   0  0  0  0  0  0  0  0  0  0  0  0
   20.3417  -21.3279  -12.9320 C   0  0  0  0  0  0  0  0  0  0  0  0
   19.2454  -20.6877  -12.3476 O   0  0  0  0  0  0  0  0  0  0  0  0
   20.4191  -22.5631  -12.7998 O   0  0  0  0  0  0  0  0  0  0  0  0
  2  1  1  0
  3  2  1  0
  3  4  1  1
  5  6  1  6
  5  7  1  0
  5  3  1  0
  7  9  1  0
  8  7  2  0
  9 10  1  0
  9 13  1  0
 10 11  1  0
 12 11  1  0
 13 12  1  0
 14 20  1  0
 13 14  1  1
 15 14  2  0
 17 16  1  6
 18 17  1  0
 19 17  1  0
 19 20  1  6
 21 19  1  0
 21 22  1  0
 23 21  2  0
M  END
$$$$
