IPV.pdb
     RDKit          3D

 23 23  0  0  1  0  0  0  0  0999 V2000
   15.9786  -11.1920  -19.6502 C   0  0  0  0  0  0  0  0  0  0  0  0
   17.3627  -11.7489  -19.4951 C   0  0  0  0  0  0  0  0  0  0  0  0
   18.1472  -11.0108  -18.4779 C   0  0  2  0  0  0  0  0  0  0  0  0
   18.3213   -9.5575  -18.9830 C   0  0  0  0  0  0  0  0  0  0  0  0
   19.5258  -11.5658  -18.1708 C   0  0  2  0  0  0  0  0  0  0  0  0
   19.2038  -12.8334  -17.4393 N   0  0  0  0  0  0  0  0  0  0  0  0
   20.2820  -10.7757  -17.1839 C   0  0  0  0  0  0  0  0  0  0  0  0
   19.8189  -10.6575  -15.9986 O   0  0  0  0  0  0  0  0  0  0  0  0
   21.4970  -10.1355  -17.4541 N   0  0  0  0  0  0  0  0  0  0  0  0
   22.2188  -10.1366  -18.7001 C   0  0  0  0  0  0  0  0  0  0  0  0
   23.6848   -9.9900  -18.3154 C   0  0  0  0  0  0  0  0  0  0  0  0
   23.5807   -9.0200  -17.1608 C   0  0  0  0  0  0  0  0  0  0  0  0
   22.2806   -9.3429  -16.5080 C   0  0  1  0  0  0  0  0  0  0  0  0
   21.5294   -8.1563  -16.0480 C   0  0  0  0  0  0  0  0  0  0  0  0
   20.5006   -7.7935  -16.6733 O   0  0  0  0  0  0  0  0  0  0  0  0
   20.1811   -7.6188  -12.5833 C   0  0  0  0  0  0  0  0  0  0  0  0
   19.9030   -6.7512  -13.7680 C   0  0  1  0  0  0  0  0  0  0  0  0
   19.1317   -5.5342  -13.2738 C   0  0  0  0  0  0  0  0  0  0  0  0
   21.1351   -6.2469  -14.4520 C   0  0  2  0  0  0  0  0  0  0  0  0
   21.9016   -7.3849  -14.9241 N   0  0  0  0  0  0  0  0  0  0  0  0
   21.9626   -5.3627  -13.5946 C   0  0  0  0  0  0  0  0  0  0  0  0
   21.7276   -3.9850  -13.6040 O   0  0  0  0  0  0  0  0  0  0  0  0
   22.8705   -5.7823  -12.8537 O   0  0  0  0  0  0  0  0  0  0  0  0
  2  1  1  0
  3  2  1  0
  3  4  1  6
  5  6  1  1
  5  7  1  0
  5  3  1  0
  7  9  1  0
  8  7  2  0
  9 10  1  0
  9 13  1  0
 10 11  1  0
 12 11  1  0
 13 12  1  0
 14 20  1  0
 13 14  1  6
 15 14  2  0
 17 16  1  1
 18 17  1  0
 19 17  1  0
 19 20  1  1
 21 19  1  0
 21 22  1  0
 23 21  2  0
M  END
$$$$
