IPV.pdb
     RDKit          3D

 23 23  0  0  1  0  0  0  0  0999 V2000
   22.3886  -16.9354  -17.8676 C   0  0  0  0  0  0  0  0  0  0  0  0
   23.6178  -17.7820  -18.0168 C   0  0  0  0  0  0  0  0  0  0  0  0
   23.9875  -18.4522  -16.7483 C   0  0  2  0  0  0  0  0  0  0  0  0
   24.2158  -17.3504  -15.6845 C   0  0  0  0  0  0  0  0  0  0  0  0
   25.2310  -19.3209  -16.7937 C   0  0  2  0  0  0  0  0  0  0  0  0
   24.7924  -20.4608  -17.6619 N   0  0  0  0  0  0  0  0  0  0  0  0
   25.5572  -19.9653  -15.5099 C   0  0  0  0  0  0  0  0  0  0  0  0
   24.6883  -20.7230  -14.9583 O   0  0  0  0  0  0  0  0  0  0  0  0
   26.7754  -19.8082  -14.8387 N   0  0  0  0  0  0  0  0  0  0  0  0
   27.9013  -19.0158  -15.2603 C   0  0  0  0  0  0  0  0  0  0  0  0
   29.1236  -19.7119  -14.6771 C   0  0  0  0  0  0  0  0  0  0  0  0
   28.5885  -20.1476  -13.3322 C   0  0  0  0  0  0  0  0  0  0  0  0
   27.1460  -20.4354  -13.5712 C   0  0  1  0  0  0  0  0  0  0  0  0
   26.2575  -19.9984  -12.4741 C   0  0  0  0  0  0  0  0  0  0  0  0
   25.6544  -18.8989  -12.5660 O   0  0  0  0  0  0  0  0  0  0  0  0
   22.9397  -20.3891   -9.2114 C   0  0  0  0  0  0  0  0  0  0  0  0
   23.8732  -20.8563  -10.2810 C   0  0  1  0  0  0  0  0  0  0  0  0
   23.2929  -20.4177  -11.6194 C   0  0  0  0  0  0  0  0  0  0  0  0
   25.2481  -20.2733  -10.1819 C   0  0  2  0  0  0  0  0  0  0  0  0
   26.0369  -20.7544  -11.3008 N   0  0  0  0  0  0  0  0  0  0  0  0
   25.9179  -20.5646   -8.8904 C   0  0  0  0  0  0  0  0  0  0  0  0
   25.8663  -19.6176   -7.8638 O   0  0  0  0  0  0  0  0  0  0  0  0
   26.5344  -21.6215   -8.6622 O   0  0  0  0  0  0  0  0  0  0  0  0
  2  1  1  0
  3  2  1  0
  3  4  1  1
  5  6  1  6
  5  7  1  0
  5  3  1  0
  7  9  1  0
  8  7  2  0
  9 10  1  0
  9 13  1  0
 10 11  1  0
 12 11  1  0
 13 12  1  0
 14 20  1  0
 13 14  1  1
 15 14  2  0
 17 16  1  1
 18 17  1  0
 19 17  1  0
 19 20  1  6
 21 19  1  0
 21 22  1  0
 23 21  2  0
M  END
$$$$
