IPV.pdb
     RDKit          3D

 23 23  0  0  1  0  0  0  0  0999 V2000
   22.1686  -19.7012  -12.8456 C   0  0  0  0  0  0  0  0  0  0  0  0
   23.4415  -20.4148  -13.1927 C   0  0  0  0  0  0  0  0  0  0  0  0
   24.2840  -20.6594  -11.9990 C   0  0  2  0  0  0  0  0  0  0  0  0
   24.6129  -19.2846  -11.3668 C   0  0  0  0  0  0  0  0  0  0  0  0
   25.5943  -21.3834  -12.2475 C   0  0  2  0  0  0  0  0  0  0  0  0
   25.1325  -22.7568  -12.6299 N   0  0  0  0  0  0  0  0  0  0  0  0
   26.3925  -21.6098  -11.0303 C   0  0  0  0  0  0  0  0  0  0  0  0
   25.8324  -22.1411  -10.0118 O   0  0  0  0  0  0  0  0  0  0  0  0
   27.7478  -21.2824  -10.9069 N   0  0  0  0  0  0  0  0  0  0  0  0
   28.5984  -20.7159  -11.9213 C   0  0  0  0  0  0  0  0  0  0  0  0
   29.9982  -21.2221  -11.6006 C   0  0  0  0  0  0  0  0  0  0  0  0
   29.9819  -21.1669  -10.0901 C   0  0  0  0  0  0  0  0  0  0  0  0
   28.5716  -21.4659   -9.7131 C   0  0  1  0  0  0  0  0  0  0  0  0
   28.0688  -20.6578   -8.5826 C   0  0  0  0  0  0  0  0  0  0  0  0
   27.3289  -19.6669   -8.8100 O   0  0  0  0  0  0  0  0  0  0  0  0
   27.9090  -19.9337   -3.6441 C   0  0  0  0  0  0  0  0  0  0  0  0
   28.0834  -20.7873   -4.8584 C   0  0  1  0  0  0  0  0  0  0  0  0
   26.9184  -21.7679   -4.9004 C   0  0  0  0  0  0  0  0  0  0  0  0
   28.0646  -20.0219   -6.1445 C   0  0  2  0  0  0  0  0  0  0  0  0
   28.3731  -20.9335   -7.2305 N   0  0  0  0  0  0  0  0  0  0  0  0
   28.9822  -18.8559   -6.1475 C   0  0  0  0  0  0  0  0  0  0  0  0
   28.5291  -17.6272   -5.6591 O   0  0  0  0  0  0  0  0  0  0  0  0
   30.1530  -18.9074   -6.5666 O   0  0  0  0  0  0  0  0  0  0  0  0
  2  1  1  0
  3  2  1  0
  3  4  1  6
  5  6  1  1
  5  7  1  0
  5  3  1  0
  7  9  1  0
  8  7  2  0
  9 10  1  0
  9 13  1  0
 10 11  1  0
 12 11  1  0
 13 12  1  0
 14 20  1  0
 13 14  1  1
 15 14  2  0
 17 16  1  1
 18 17  1  0
 19 17  1  0
 19 20  1  6
 21 19  1  0
 21 22  1  0
 23 21  2  0
M  END
$$$$
