IPV.pdb
     RDKit          3D

 23 23  0  0  1  0  0  0  0  0999 V2000
   24.5776  -18.3366  -14.6575 C   0  0  0  0  0  0  0  0  0  0  0  0
   25.1471  -19.7046  -14.4248 C   0  0  0  0  0  0  0  0  0  0  0  0
   25.7468  -19.8342  -13.0763 C   0  0  2  0  0  0  0  0  0  0  0  0
   26.8706  -18.7754  -12.9586 C   0  0  0  0  0  0  0  0  0  0  0  0
   26.3454  -21.1881  -12.7427 C   0  0  2  0  0  0  0  0  0  0  0  0
   25.1334  -22.0675  -12.6853 N   0  0  0  0  0  0  0  0  0  0  0  0
   26.9049  -21.2757  -11.3829 C   0  0  0  0  0  0  0  0  0  0  0  0
   26.1065  -21.3496  -10.3877 O   0  0  0  0  0  0  0  0  0  0  0  0
   28.2748  -21.2880  -11.0959 N   0  0  0  0  0  0  0  0  0  0  0  0
   29.3567  -21.0854  -12.0243 C   0  0  0  0  0  0  0  0  0  0  0  0
   30.5243  -21.8843  -11.4613 C   0  0  0  0  0  0  0  0  0  0  0  0
   30.3494  -21.6389   -9.9801 C   0  0  0  0  0  0  0  0  0  0  0  0
   28.8767  -21.5231   -9.7844 C   0  0  1  0  0  0  0  0  0  0  0  0
   28.4806  -20.4799   -8.8154 C   0  0  0  0  0  0  0  0  0  0  0  0
   28.1792  -19.3317   -9.2299 O   0  0  0  0  0  0  0  0  0  0  0  0
   25.7637  -20.0882   -6.6292 C   0  0  0  0  0  0  0  0  0  0  0  0
   26.9370  -19.8672   -5.7303 C   0  0  1  0  0  0  0  0  0  0  0  0
   27.1218  -21.1303   -4.8990 C   0  0  0  0  0  0  0  0  0  0  0  0
   28.2215  -19.6251   -6.4595 C   0  0  2  0  0  0  0  0  0  0  0  0
   28.4175  -20.6947   -7.4203 N   0  0  0  0  0  0  0  0  0  0  0  0
   29.3928  -19.4941   -5.5581 C   0  0  0  0  0  0  0  0  0  0  0  0
   29.5785  -18.3063   -4.8453 O   0  0  0  0  0  0  0  0  0  0  0  0
   30.2357  -20.3955   -5.3957 O   0  0  0  0  0  0  0  0  0  0  0  0
  2  1  1  0
  3  2  1  0
  3  4  1  6
  5  6  1  1
  5  7  1  0
  5  3  1  0
  7  9  1  0
  8  7  2  0
  9 10  1  0
  9 13  1  0
 10 11  1  0
 12 11  1  0
 13 12  1  0
 14 20  1  0
 13 14  1  1
 15 14  2  0
 17 16  1  6
 18 17  1  0
 19 17  1  0
 19 20  1  6
 21 19  1  0
 21 22  1  0
 23 21  2  0
M  END
$$$$
