MNV.pdb
     RDKit          3D

 24 23  0  0  1  0  0  0  0  0999 V2000
   31.4391  -21.1878   -8.5711 C   0  0  0  0  0  0  0  0  0  0  0  0
   32.1073  -22.1947   -9.8798 S   0  0  0  0  0  0  0  0  0  0  0  0
   31.0138  -22.2532  -11.2989 C   0  0  0  0  0  0  0  0  0  0  0  0
   30.2370  -21.0048  -11.4841 C   0  0  0  0  0  0  0  0  0  0  0  0
   28.8980  -20.9228  -10.8570 C   0  0  2  0  0  0  0  0  0  0  0  0
   28.3716  -22.2201  -10.4572 N   0  0  0  0  0  0  0  0  0  0  0  0
   27.9707  -20.3577  -11.9098 C   0  0  0  0  0  0  0  0  0  0  0  0
   28.3161  -19.3349  -12.5541 O   0  0  0  0  0  0  0  0  0  0  0  0
   26.0107  -18.5752  -15.9880 N   0  0  0  0  0  0  0  0  0  0  0  0
   25.7749  -19.9516  -15.6530 C   0  0  0  0  0  0  0  0  0  0  0  0
   24.9107  -20.6309  -16.2536 O   0  0  0  0  0  0  0  0  0  0  0  0
   26.5870  -20.5507  -14.5700 C   0  0  0  0  0  0  0  0  0  0  0  0
   25.8959  -20.3680  -13.2444 C   0  0  2  0  0  0  0  0  0  0  0  0
   26.7203  -20.9407  -12.1988 N   0  0  0  0  0  0  0  0  0  0  0  0
   24.5456  -21.0487  -13.2720 C   0  0  0  0  0  0  0  0  0  0  0  0
   24.5823  -22.2383  -13.6129 O   0  0  0  0  0  0  0  0  0  0  0  0
   21.4305  -18.6617  -11.3445 C   0  0  0  0  0  0  0  0  0  0  0  0
   21.6292  -20.1455  -11.1889 C   0  0  2  0  0  0  0  0  0  0  0  0
   22.5741  -20.3977  -10.0336 C   0  0  0  0  0  0  0  0  0  0  0  0
   22.1233  -20.8349  -12.4536 C   0  0  2  0  0  0  0  0  0  0  0  0
   23.3972  -20.3366  -12.9303 N   0  0  0  0  0  0  0  0  0  0  0  0
   21.1881  -20.6224  -13.5670 C   0  0  0  0  0  0  0  0  0  0  0  0
   21.4746  -19.7925  -14.4632 O   0  0  0  0  0  0  0  0  0  0  0  0
   19.9967  -21.3048  -13.6682 O   0  0  0  0  0  0  0  0  0  0  0  0
  1  2  1  0
  3  2  1  0
  4  3  1  0
  5  4  1  0
  5  6  1  6
  7  5  1  0
  8  7  2  0
  9 10  1  0
 10 12  1  0
 11 10  2  0
 13 12  1  6
 13 14  1  0
 14  7  1  0
 15 21  1  0
 15 13  1  0
 16 15  2  0
 18 17  1  6
 18 20  1  0
 19 18  1  0
 20 22  1  0
 20 21  1  6
 22 24  1  0
 23 22  2  0
M  END
$$$$
