MNV.pdb
     RDKit          3D

 24 23  0  0  1  0  0  0  0  0999 V2000
   28.9430  -17.8118  -17.6552 C   0  0  0  0  0  0  0  0  0  0  0  0
   28.6717  -19.0881  -16.4425 S   0  0  0  0  0  0  0  0  0  0  0  0
   27.3164  -18.6827  -15.3416 C   0  0  0  0  0  0  0  0  0  0  0  0
   26.1474  -18.1083  -16.0483 C   0  0  0  0  0  0  0  0  0  0  0  0
   24.9986  -17.6542  -15.2316 C   0  0  2  0  0  0  0  0  0  0  0  0
   25.3952  -16.8756  -14.0671 N   0  0  0  0  0  0  0  0  0  0  0  0
   24.3119  -18.9060  -14.7327 C   0  0  0  0  0  0  0  0  0  0  0  0
   23.7463  -19.6710  -15.5545 O   0  0  0  0  0  0  0  0  0  0  0  0
   26.0879  -21.2933  -12.9517 N   0  0  0  0  0  0  0  0  0  0  0  0
   25.4571  -21.2777  -11.6617 C   0  0  0  0  0  0  0  0  0  0  0  0
   26.0790  -21.6109  -10.6268 O   0  0  0  0  0  0  0  0  0  0  0  0
   24.0406  -20.8541  -11.5875 C   0  0  0  0  0  0  0  0  0  0  0  0
   23.5549  -20.4337  -12.9497 C   0  0  2  0  0  0  0  0  0  0  0  0
   24.2817  -19.2509  -13.3662 N   0  0  0  0  0  0  0  0  0  0  0  0
   22.0721  -20.1401  -12.8974 C   0  0  0  0  0  0  0  0  0  0  0  0
   21.7731  -19.1506  -12.2160 O   0  0  0  0  0  0  0  0  0  0  0  0
   17.8871  -20.3766  -15.4614 C   0  0  0  0  0  0  0  0  0  0  0  0
   19.3661  -20.5530  -15.2451 C   0  0  2  0  0  0  0  0  0  0  0  0
   19.8587  -21.6916  -16.1123 C   0  0  0  0  0  0  0  0  0  0  0  0
   19.7516  -20.7749  -13.7888 C   0  0  2  0  0  0  0  0  0  0  0  0
   21.1738  -20.9563  -13.5825 N   0  0  0  0  0  0  0  0  0  0  0  0
   19.1291  -21.9970  -13.2612 C   0  0  0  0  0  0  0  0  0  0  0  0
   17.9288  -21.9699  -12.8970 O   0  0  0  0  0  0  0  0  0  0  0  0
   19.8170  -23.1843  -13.1489 O   0  0  0  0  0  0  0  0  0  0  0  0
  1  2  1  0
  3  2  1  0
  4  3  1  0
  5  4  1  0
  5  6  1  1
  7  5  1  0
  8  7  2  0
  9 10  1  0
 10 12  1  0
 11 10  2  0
 13 12  1  1
 13 14  1  0
 14  7  1  0
 15 21  1  0
 15 13  1  0
 16 15  2  0
 18 17  1  1
 18 20  1  0
 19 18  1  0
 20 22  1  0
 20 21  1  6
 22 24  1  0
 23 22  2  0
M  END
$$$$
