MNV.pdb
     RDKit          3D

 24 23  0  0  1  0  0  0  0  0999 V2000
   24.0308  -19.9016   -7.5821 C   0  0  0  0  0  0  0  0  0  0  0  0
   25.7771  -19.5767   -7.7160 S   0  0  0  0  0  0  0  0  0  0  0  0
   26.5852  -20.7290   -8.8262 C   0  0  0  0  0  0  0  0  0  0  0  0
   26.3018  -20.4534  -10.2545 C   0  0  0  0  0  0  0  0  0  0  0  0
   26.9102  -21.3472  -11.2664 C   0  0  2  0  0  0  0  0  0  0  0  0
   28.3619  -21.2499  -11.3185 N   0  0  0  0  0  0  0  0  0  0  0  0
   26.3731  -20.8976  -12.6068 C   0  0  0  0  0  0  0  0  0  0  0  0
   27.1031  -20.2134  -13.3682 O   0  0  0  0  0  0  0  0  0  0  0  0
   24.3373  -24.3690  -14.4702 N   0  0  0  0  0  0  0  0  0  0  0  0
   24.4934  -23.1921  -15.2781 C   0  0  0  0  0  0  0  0  0  0  0  0
   25.2453  -23.1829  -16.2798 O   0  0  0  0  0  0  0  0  0  0  0  0
   23.7358  -21.9804  -14.8920 C   0  0  0  0  0  0  0  0  0  0  0  0
   24.6803  -20.9148  -14.4014 C   0  0  2  0  0  0  0  0  0  0  0  0
   25.0708  -21.2202  -13.0394 N   0  0  0  0  0  0  0  0  0  0  0  0
   24.0026  -19.5639  -14.4565 C   0  0  0  0  0  0  0  0  0  0  0  0
   23.0111  -19.4617  -13.7222 O   0  0  0  0  0  0  0  0  0  0  0  0
   25.7279  -16.5491  -17.2344 C   0  0  0  0  0  0  0  0  0  0  0  0
   25.1649  -16.2365  -15.8740 C   0  0  2  0  0  0  0  0  0  0  0  0
   26.2946  -16.2115  -14.8670 C   0  0  0  0  0  0  0  0  0  0  0  0
   24.0645  -17.1912  -15.4307 C   0  0  2  0  0  0  0  0  0  0  0  0
   24.5055  -18.5634  -15.2864 N   0  0  0  0  0  0  0  0  0  0  0  0
   22.9804  -17.2395  -16.4216 C   0  0  0  0  0  0  0  0  0  0  0  0
   23.0304  -18.0823  -17.3496 O   0  0  0  0  0  0  0  0  0  0  0  0
   21.8998  -16.3879  -16.3727 O   0  0  0  0  0  0  0  0  0  0  0  0
  1  2  1  0
  3  2  1  0
  4  3  1  0
  5  4  1  0
  5  6  1  6
  7  5  1  0
  8  7  2  0
  9 10  1  0
 10 12  1  0
 11 10  2  0
 13 12  1  1
 13 14  1  0
 14  7  1  0
 15 21  1  0
 15 13  1  0
 16 15  2  0
 18 17  1  6
 18 20  1  0
 19 18  1  0
 20 22  1  0
 20 21  1  6
 22 24  1  0
 23 22  2  0
M  END
$$$$
