MNV.pdb
     RDKit          3D

 24 23  0  0  1  0  0  0  0  0999 V2000
   19.2060  -15.8760  -15.7453 C   0  0  0  0  0  0  0  0  0  0  0  0
   19.7743  -16.2004  -17.4021 S   0  0  0  0  0  0  0  0  0  0  0  0
   19.6632  -14.7438  -18.4409 C   0  0  0  0  0  0  0  0  0  0  0  0
   19.7264  -13.4779  -17.6730 C   0  0  0  0  0  0  0  0  0  0  0  0
   19.7130  -12.2062  -18.4316 C   0  0  2  0  0  0  0  0  0  0  0  0
   20.7952  -12.1049  -19.4002 N   0  0  0  0  0  0  0  0  0  0  0  0
   19.9049  -11.1037  -17.4142 C   0  0  0  0  0  0  0  0  0  0  0  0
   19.0619  -10.9580  -16.4930 O   0  0  0  0  0  0  0  0  0  0  0  0
   21.7792  -11.1582  -14.5822 N   0  0  0  0  0  0  0  0  0  0  0  0
   22.8990  -10.3697  -15.0140 C   0  0  0  0  0  0  0  0  0  0  0  0
   24.0570  -10.5950  -14.5931 O   0  0  0  0  0  0  0  0  0  0  0  0
   22.6459   -9.2747  -15.9774 C   0  0  0  0  0  0  0  0  0  0  0  0
   21.1962   -9.2704  -16.3856 C   0  0  2  0  0  0  0  0  0  0  0  0
   21.0051  -10.2236  -17.4607 N   0  0  0  0  0  0  0  0  0  0  0  0
   20.7963   -7.8853  -16.8430 C   0  0  0  0  0  0  0  0  0  0  0  0
   21.3393   -7.5200  -17.8940 O   0  0  0  0  0  0  0  0  0  0  0  0
   16.9435   -6.5445  -15.9882 C   0  0  0  0  0  0  0  0  0  0  0  0
   17.9175   -5.8469  -16.8993 C   0  0  2  0  0  0  0  0  0  0  0  0
   17.8611   -6.4919  -18.2675 C   0  0  0  0  0  0  0  0  0  0  0  0
   19.3449   -5.8233  -16.3696 C   0  0  2  0  0  0  0  0  0  0  0  0
   19.8877   -7.1380  -16.0956 N   0  0  0  0  0  0  0  0  0  0  0  0
   19.4184   -5.1043  -15.0900 C   0  0  0  0  0  0  0  0  0  0  0  0
   19.3208   -3.8536  -15.0790 O   0  0  0  0  0  0  0  0  0  0  0  0
   19.5918   -5.7546  -13.8890 O   0  0  0  0  0  0  0  0  0  0  0  0
  1  2  1  0
  3  2  1  0
  4  3  1  0
  5  4  1  0
  5  6  1  6
  7  5  1  0
  8  7  2  0
  9 10  1  0
 10 12  1  0
 11 10  2  0
 13 12  1  6
 13 14  1  0
 14  7  1  0
 15 21  1  0
 15 13  1  0
 16 15  2  0
 18 17  1  1
 18 20  1  0
 19 18  1  0
 20 22  1  0
 20 21  1  1
 22 24  1  0
 23 22  2  0
M  END
$$$$
