MNV.pdb
     RDKit          3D

 24 23  0  0  1  0  0  0  0  0999 V2000
   29.9674  -20.7615  -12.3830 C   0  0  0  0  0  0  0  0  0  0  0  0
   29.6217  -21.0806  -10.6649 S   0  0  0  0  0  0  0  0  0  0  0  0
   27.8693  -21.3178  -10.3715 C   0  0  0  0  0  0  0  0  0  0  0  0
   27.0212  -20.7801  -11.4614 C   0  0  0  0  0  0  0  0  0  0  0  0
   25.5546  -20.9499  -11.3457 C   0  0  2  0  0  0  0  0  0  0  0  0
   25.1596  -22.3103  -11.0098 N   0  0  0  0  0  0  0  0  0  0  0  0
   24.9820  -20.6305  -12.7086 C   0  0  0  0  0  0  0  0  0  0  0  0
   25.1651  -19.4902  -13.2052 O   0  0  0  0  0  0  0  0  0  0  0  0
   25.4265  -24.3246  -15.4125 N   0  0  0  0  0  0  0  0  0  0  0  0
   25.1239  -22.9908  -15.8502 C   0  0  0  0  0  0  0  0  0  0  0  0
   25.9881  -22.2742  -16.4056 O   0  0  0  0  0  0  0  0  0  0  0  0
   23.7523  -22.4816  -15.6254 C   0  0  0  0  0  0  0  0  0  0  0  0
   23.7962  -21.2312  -14.7869 C   0  0  2  0  0  0  0  0  0  0  0  0
   24.2427  -21.5736  -13.4511 N   0  0  0  0  0  0  0  0  0  0  0  0
   22.4214  -20.6036  -14.7296 C   0  0  0  0  0  0  0  0  0  0  0  0
   21.7310  -20.9772  -13.7722 O   0  0  0  0  0  0  0  0  0  0  0  0
   22.0271  -16.7302  -16.2301 C   0  0  0  0  0  0  0  0  0  0  0  0
   20.9336  -17.6697  -16.6626 C   0  0  2  0  0  0  0  0  0  0  0  0
   19.6237  -16.9127  -16.7103 C   0  0  0  0  0  0  0  0  0  0  0  0
   20.8104  -18.9116  -15.7901 C   0  0  2  0  0  0  0  0  0  0  0  0
   22.0298  -19.6889  -15.7056 N   0  0  0  0  0  0  0  0  0  0  0  0
   19.8039  -19.8356  -16.3310 C   0  0  0  0  0  0  0  0  0  0  0  0
   20.0428  -20.4524  -17.3971 O   0  0  0  0  0  0  0  0  0  0  0  0
   18.5956  -20.0549  -15.7085 O   0  0  0  0  0  0  0  0  0  0  0  0
  1  2  1  0
  3  2  1  0
  4  3  1  0
  5  4  1  0
  5  6  1  6
  7  5  1  0
  8  7  2  0
  9 10  1  0
 10 12  1  0
 11 10  2  0
 13 12  1  6
 13 14  1  0
 14  7  1  0
 15 21  1  0
 15 13  1  0
 16 15  2  0
 18 17  1  1
 18 20  1  0
 19 18  1  0
 20 22  1  0
 20 21  1  6
 22 24  1  0
 23 22  2  0
M  END
$$$$
