MNV.pdb
     RDKit          3D

 24 23  0  0  1  0  0  0  0  0999 V2000
   27.5183  -26.9326  -15.3948 C   0  0  0  0  0  0  0  0  0  0  0  0
   28.4328  -26.5238  -16.8679 S   0  0  0  0  0  0  0  0  0  0  0  0
   28.0348  -24.8806  -17.4636 C   0  0  0  0  0  0  0  0  0  0  0  0
   27.6717  -23.9418  -16.3759 C   0  0  0  0  0  0  0  0  0  0  0  0
   26.2523  -23.5374  -16.2552 C   0  0  2  0  0  0  0  0  0  0  0  0
   25.6468  -23.1820  -17.5306 N   0  0  0  0  0  0  0  0  0  0  0  0
   26.2360  -22.3031  -15.3813 C   0  0  0  0  0  0  0  0  0  0  0  0
   26.6667  -22.3737  -14.2023 O   0  0  0  0  0  0  0  0  0  0  0  0
   28.3810  -19.9714  -14.8598 N   0  0  0  0  0  0  0  0  0  0  0  0
   27.8117  -18.8571  -15.5644 C   0  0  0  0  0  0  0  0  0  0  0  0
   28.5341  -18.0052  -16.1314 O   0  0  0  0  0  0  0  0  0  0  0  0
   26.3364  -18.7412  -15.6026 C   0  0  0  0  0  0  0  0  0  0  0  0
   25.7069  -19.9353  -14.9346 C   0  0  2  0  0  0  0  0  0  0  0  0
   25.7507  -21.0631  -15.8440 N   0  0  0  0  0  0  0  0  0  0  0  0
   24.2740  -19.6207  -14.5666 C   0  0  0  0  0  0  0  0  0  0  0  0
   24.1431  -18.6379  -13.8252 O   0  0  0  0  0  0  0  0  0  0  0  0
   19.6176  -19.8948  -16.1974 C   0  0  0  0  0  0  0  0  0  0  0  0
   21.1048  -20.1015  -16.3024 C   0  0  2  0  0  0  0  0  0  0  0  0
   21.3734  -21.3281  -17.1476 C   0  0  0  0  0  0  0  0  0  0  0  0
   21.8067  -20.2072  -14.9552 C   0  0  2  0  0  0  0  0  0  0  0  0
   23.2370  -20.4125  -15.0567 N   0  0  0  0  0  0  0  0  0  0  0  0
   21.3075  -21.3595  -14.1920 C   0  0  0  0  0  0  0  0  0  0  0  0
   21.9690  -22.4255  -14.1816 O   0  0  0  0  0  0  0  0  0  0  0  0
   20.1303  -21.3166  -13.4795 O   0  0  0  0  0  0  0  0  0  0  0  0
  1  2  1  0
  3  2  1  0
  4  3  1  0
  5  4  1  0
  5  6  1  6
  7  5  1  0
  8  7  2  0
  9 10  1  0
 10 12  1  0
 11 10  2  0
 13 12  1  6
 13 14  1  0
 14  7  1  0
 15 21  1  0
 15 13  1  0
 16 15  2  0
 18 17  1  1
 18 20  1  0
 19 18  1  0
 20 22  1  0
 20 21  1  6
 22 24  1  0
 23 22  2  0
M  END
$$$$
