MNV.pdb
     RDKit          3D

 24 23  0  0  1  0  0  0  0  0999 V2000
   18.7657  -12.5868  -22.1260 C   0  0  0  0  0  0  0  0  0  0  0  0
   19.0248  -11.9726  -20.4740 S   0  0  0  0  0  0  0  0  0  0  0  0
   20.6854  -11.3345  -20.2541 C   0  0  0  0  0  0  0  0  0  0  0  0
   20.9280  -10.8075  -18.8904 C   0  0  0  0  0  0  0  0  0  0  0  0
   22.2610  -10.2333  -18.5967 C   0  0  2  0  0  0  0  0  0  0  0  0
   23.2699  -11.2432  -18.3103 N   0  0  0  0  0  0  0  0  0  0  0  0
   22.0941   -9.3881  -17.3537 C   0  0  0  0  0  0  0  0  0  0  0  0
   22.0909   -9.9414  -16.2248 O   0  0  0  0  0  0  0  0  0  0  0  0
   21.6456   -5.7707  -13.9534 N   0  0  0  0  0  0  0  0  0  0  0  0
   22.2022   -5.0984  -15.0937 C   0  0  0  0  0  0  0  0  0  0  0  0
   22.5592   -3.8993  -15.0345 O   0  0  0  0  0  0  0  0  0  0  0  0
   22.3436   -5.8668  -16.3510 C   0  0  0  0  0  0  0  0  0  0  0  0
   21.7527   -7.2422  -16.1854 C   0  0  2  0  0  0  0  0  0  0  0  0
   21.9401   -7.9881  -17.4139 N   0  0  0  0  0  0  0  0  0  0  0  0
   20.2787   -7.1319  -15.8649 C   0  0  0  0  0  0  0  0  0  0  0  0
   19.5902   -6.6762  -16.7874 O   0  0  0  0  0  0  0  0  0  0  0  0
   18.7546   -9.6462  -12.7106 C   0  0  0  0  0  0  0  0  0  0  0  0
   17.9506   -8.9684  -13.7875 C   0  0  2  0  0  0  0  0  0  0  0  0
   17.9346   -9.8489  -15.0185 C   0  0  0  0  0  0  0  0  0  0  0  0
   18.4400   -7.5676  -14.1294 C   0  0  2  0  0  0  0  0  0  0  0  0
   19.8038   -7.5283  -14.6159 N   0  0  0  0  0  0  0  0  0  0  0  0
   18.4325   -6.7039  -12.9404 C   0  0  0  0  0  0  0  0  0  0  0  0
   19.5212   -6.3058  -12.4606 O   0  0  0  0  0  0  0  0  0  0  0  0
   17.2663   -6.3092  -12.3245 O   0  0  0  0  0  0  0  0  0  0  0  0
  1  2  1  0
  3  2  1  0
  4  3  1  0
  5  4  1  0
  5  6  1  1
  7  5  1  0
  8  7  2  0
  9 10  1  0
 10 12  1  0
 11 10  2  0
 13 12  1  6
 13 14  1  0
 14  7  1  0
 15 21  1  0
 15 13  1  0
 16 15  2  0
 18 17  1  1
 18 20  1  0
 19 18  1  0
 20 22  1  0
 20 21  1  1
 22 24  1  0
 23 22  2  0
M  END
$$$$
