MNV.pdb
     RDKit          3D

 24 23  0  0  1  0  0  0  0  0999 V2000
   27.7390  -17.8623   -5.0117 C   0  0  0  0  0  0  0  0  0  0  0  0
   28.1537  -19.5896   -5.1451 S   0  0  0  0  0  0  0  0  0  0  0  0
   28.6069  -20.0378   -6.8205 C   0  0  0  0  0  0  0  0  0  0  0  0
   27.5521  -19.7187   -7.8113 C   0  0  0  0  0  0  0  0  0  0  0  0
   26.7312  -20.8354   -8.3330 C   0  0  2  0  0  0  0  0  0  0  0  0
   27.5201  -21.9992   -8.7109 N   0  0  0  0  0  0  0  0  0  0  0  0
   26.0542  -20.3165   -9.5819 C   0  0  0  0  0  0  0  0  0  0  0  0
   25.4073  -19.2396   -9.5333 O   0  0  0  0  0  0  0  0  0  0  0  0
   28.7655  -20.7930  -13.0312 N   0  0  0  0  0  0  0  0  0  0  0  0
   27.5574  -20.0293  -13.1709 C   0  0  0  0  0  0  0  0  0  0  0  0
   27.5816  -18.7805  -13.2641 O   0  0  0  0  0  0  0  0  0  0  0  0
   26.2725  -20.7637  -13.2018 C   0  0  0  0  0  0  0  0  0  0  0  0
   25.4627  -20.4403  -11.9738 C   0  0  2  0  0  0  0  0  0  0  0  0
   26.1218  -21.0023  -10.8117 N   0  0  0  0  0  0  0  0  0  0  0  0
   24.0712  -21.0167  -12.1106 C   0  0  0  0  0  0  0  0  0  0  0  0
   23.9486  -22.1629  -11.6588 O   0  0  0  0  0  0  0  0  0  0  0  0
   19.3147  -19.7220  -13.2932 C   0  0  0  0  0  0  0  0  0  0  0  0
   20.7807  -19.3941  -13.1994 C   0  0  2  0  0  0  0  0  0  0  0  0
   21.2216  -18.7345  -14.4885 C   0  0  0  0  0  0  0  0  0  0  0  0
   21.6592  -20.5954  -12.8771 C   0  0  2  0  0  0  0  0  0  0  0  0
   23.0592  -20.2655  -12.7057 N   0  0  0  0  0  0  0  0  0  0  0  0
   21.6282  -21.5770  -13.9703 C   0  0  0  0  0  0  0  0  0  0  0  0
   22.4581  -21.4837  -14.9066 O   0  0  0  0  0  0  0  0  0  0  0  0
   20.7152  -22.6067  -14.0096 O   0  0  0  0  0  0  0  0  0  0  0  0
  1  2  1  0
  3  2  1  0
  4  3  1  0
  5  4  1  0
  5  6  1  6
  7  5  1  0
  8  7  2  0
  9 10  1  0
 10 12  1  0
 11 10  2  0
 13 12  1  6
 13 14  1  0
 14  7  1  0
 15 21  1  0
 15 13  1  0
 16 15  2  0
 18 17  1  6
 18 20  1  0
 19 18  1  0
 20 22  1  0
 20 21  1  6
 22 24  1  0
 23 22  2  0
M  END
$$$$
