MNV.pdb
     RDKit          3D

 24 23  0  0  1  0  0  0  0  0999 V2000
   27.3861  -16.6416  -16.0259 C   0  0  0  0  0  0  0  0  0  0  0  0
   28.5178  -17.9641  -16.4046 S   0  0  0  0  0  0  0  0  0  0  0  0
   27.6794  -19.3672  -17.1407 C   0  0  0  0  0  0  0  0  0  0  0  0
   26.6453  -19.9539  -16.2561 C   0  0  0  0  0  0  0  0  0  0  0  0
   27.0994  -20.7296  -15.0793 C   0  0  2  0  0  0  0  0  0  0  0  0
   27.7464  -21.9845  -15.4346 N   0  0  0  0  0  0  0  0  0  0  0  0
   25.8557  -21.0645  -14.2866 C   0  0  0  0  0  0  0  0  0  0  0  0
   25.0420  -21.9092  -14.7393 O   0  0  0  0  0  0  0  0  0  0  0  0
   25.9382  -22.3632  -10.8925 N   0  0  0  0  0  0  0  0  0  0  0  0
   25.3983  -21.2296  -10.1957 C   0  0  0  0  0  0  0  0  0  0  0  0
   25.7183  -20.9783   -9.0111 O   0  0  0  0  0  0  0  0  0  0  0  0
   24.4456  -20.3591  -10.9210 C   0  0  0  0  0  0  0  0  0  0  0  0
   24.3399  -20.7941  -12.3590 C   0  0  2  0  0  0  0  0  0  0  0  0
   25.5713  -20.4586  -13.0459 N   0  0  0  0  0  0  0  0  0  0  0  0
   23.1708  -20.0990  -13.0204 C   0  0  0  0  0  0  0  0  0  0  0  0
   23.3647  -18.9016  -13.2683 O   0  0  0  0  0  0  0  0  0  0  0  0
   21.6702  -21.2355  -16.2675 C   0  0  0  0  0  0  0  0  0  0  0  0
   20.5419  -21.2170  -15.2715 C   0  0  2  0  0  0  0  0  0  0  0  0
   19.2822  -20.7408  -15.9626 C   0  0  0  0  0  0  0  0  0  0  0  0
   20.8300  -20.3797  -14.0327 C   0  0  2  0  0  0  0  0  0  0  0  0
   22.0033  -20.8076  -13.2989 N   0  0  0  0  0  0  0  0  0  0  0  0
   19.7231  -20.4678  -13.0702 C   0  0  0  0  0  0  0  0  0  0  0  0
   19.6573  -21.4517  -12.2946 O   0  0  0  0  0  0  0  0  0  0  0  0
   18.7441  -19.5037  -12.9837 O   0  0  0  0  0  0  0  0  0  0  0  0
  1  2  1  0
  3  2  1  0
  4  3  1  0
  5  4  1  0
  5  6  1  6
  7  5  1  0
  8  7  2  0
  9 10  1  0
 10 12  1  0
 11 10  2  0
 13 12  1  1
 13 14  1  0
 14  7  1  0
 15 21  1  0
 15 13  1  0
 16 15  2  0
 18 17  1  6
 18 20  1  0
 19 18  1  0
 20 22  1  0
 20 21  1  1
 22 24  1  0
 23 22  2  0
M  END
$$$$
