RWH.pdb
     RDKit          3D

 36 38  0  0  1  0  0  0  0  0999 V2000
    8.4999  -12.2296   15.9107 N   0  0  0  0  0  0  0  0  0  0  0  0
    7.9803  -13.5613   15.6851 C   0  0  0  0  0  0  0  0  0  0  0  0
    7.7096  -13.9177   14.4859 N   0  0  0  0  0  0  0  0  0  0  0  0
    7.7692  -14.4403   16.7705 N   0  0  0  0  0  0  0  0  0  0  0  0
    8.3154  -14.1229   18.0673 C   0  0  0  0  0  0  0  0  0  0  0  0
    7.9356  -15.1313   19.1322 C   0  0  0  0  0  0  0  0  0  0  0  0
    8.5110  -14.7356   20.4615 C   0  0  0  0  0  0  0  0  0  0  0  0
    9.2265  -15.9342   21.0562 C   0  0  2  0  0  0  0  0  0  0  0  0
    8.5107  -17.1325   20.6715 N   0  0  0  0  0  0  0  0  0  0  0  0
    9.4446  -15.7848   22.4994 C   0  0  0  0  0  0  0  0  0  0  0  0
   10.2153  -14.8346   22.8698 O   0  0  0  0  0  0  0  0  0  0  0  0
    7.3639  -14.8741   14.2926 N   0  0  0  0  0  0  0  0  0  0  0  0
    8.8965  -16.5751   23.5349 C   0  0  1  0  0  0  0  0  0  0  0  0
    9.2543  -16.3474   24.9343 C   0  0  0  0  0  0  0  0  0  0  0  0
    7.9831  -16.4816   25.7546 C   0  0  0  0  0  0  0  0  0  0  0  0
    7.1084  -15.3150   25.6576 C   0  0  0  0  0  0  0  0  0  0  0  0
    5.7977  -15.3293   25.2254 N   0  0  0  0  0  0  0  0  0  0  0  0
    5.3064  -14.0589   25.2722 C   0  0  0  0  0  0  0  0  0  0  0  0
    6.2455  -13.2114   25.7199 C   0  0  0  0  0  0  0  0  0  0  0  0
    6.2774  -11.8577   25.9521 C   0  0  0  0  0  0  0  0  0  0  0  0
    7.4400  -11.2838   26.4283 C   0  0  0  0  0  0  0  0  0  0  0  0
    8.5703  -12.0295   26.6785 C   0  0  0  0  0  0  0  0  0  0  0  0
    8.5045  -13.3853   26.4342 C   0  0  0  0  0  0  0  0  0  0  0  0
    7.3780  -14.0025   25.9616 C   0  0  0  0  0  0  0  0  0  0  0  0
   10.3152  -17.2377   25.3811 O   0  0  0  0  0  0  0  0  0  0  0  0
   10.6627  -18.2798   24.7508 N   0  0  0  0  0  0  0  0  0  0  0  0
   11.0143  -16.9403   26.5809 C   0  0  2  0  0  0  0  0  0  0  0  0
   11.8732  -17.9264   27.2695 C   0  0  0  0  0  0  0  0  0  0  0  0
   12.2939  -17.3357   28.5644 C   0  0  0  0  0  0  0  0  0  0  0  0
   13.0945  -18.2080   29.4418 C   0  0  0  0  0  0  0  0  0  0  0  0
   14.1258  -19.0668   29.2222 N   0  0  0  0  0  0  0  0  0  0  0  0
   14.5172  -19.5376   30.4318 C   0  0  0  0  0  0  0  0  0  0  0  0
   13.7720  -19.0045   31.3876 N   0  0  0  0  0  0  0  0  0  0  0  0
   12.9005  -18.1915   30.7997 C   0  0  0  0  0  0  0  0  0  0  0  0
   11.0801  -19.1803   27.4100 O   0  0  0  0  0  0  0  0  0  0  0  0
   11.5965  -20.4100   27.1780 O   0  0  0  0  0  0  0  0  0  0  0  0
  1  2  1  0
  2  3  2  0
  4  5  1  0
  4  2  1  0
  5  6  1  0
  7  6  1  0
  8  9  1  1
  8  7  1  0
 10  8  1  0
 11 10  2  0
 12 10  1  0
 13 12  1  0
 13 14  1  6
 15 14  1  0
 16 15  2  0
 17 16  1  0
 18 17  1  0
 18 23  2  0
 19 20  2  0
 19 18  1  0
 20 21  1  0
 21 22  2  0
 23 22  1  0
 23 15  1  0
 24 25  2  0
 24 13  1  0
 26 24  1  0
 27 26  1  0
 27 28  1  1
 28 29  1  0
 29 33  1  0
 30 29  2  0
 30 31  1  0
 31 32  1  0
 33 32  2  0
 34 27  1  0
 35 34  1  0
 36 34  2  0
M  END
$$$$
