RWH.pdb
     RDKit          3D

 36 38  0  0  1  0  0  0  0  0999 V2000
    9.6881  -18.9620   15.6634 N   0  0  0  0  0  0  0  0  0  0  0  0
   10.4723  -19.8085   16.5367 C   0  0  0  0  0  0  0  0  0  0  0  0
   11.2464  -20.6813   16.0100 N   0  0  0  0  0  0  0  0  0  0  0  0
   10.3733  -19.6761   17.9396 N   0  0  0  0  0  0  0  0  0  0  0  0
    9.1017  -19.3585   18.5421 C   0  0  0  0  0  0  0  0  0  0  0  0
    8.9605  -17.8900   18.8866 C   0  0  0  0  0  0  0  0  0  0  0  0
    9.5405  -17.6090   20.2428 C   0  0  0  0  0  0  0  0  0  0  0  0
    8.5463  -16.7784   21.0327 C   0  0  2  0  0  0  0  0  0  0  0  0
    8.3161  -15.5392   20.3201 N   0  0  0  0  0  0  0  0  0  0  0  0
    8.9541  -16.6159   22.4327 C   0  0  0  0  0  0  0  0  0  0  0  0
    9.9125  -15.8018   22.6624 O   0  0  0  0  0  0  0  0  0  0  0  0
   11.7649  -21.3467   16.6099 N   0  0  0  0  0  0  0  0  0  0  0  0
    8.4055  -17.2596   23.5650 C   0  0  1  0  0  0  0  0  0  0  0  0
    8.8796  -16.9566   24.9146 C   0  0  0  0  0  0  0  0  0  0  0  0
    7.6591  -16.6526   25.7660 C   0  0  0  0  0  0  0  0  0  0  0  0
    7.0763  -15.3410   25.4910 C   0  0  0  0  0  0  0  0  0  0  0  0
    5.9575  -15.1071   24.7174 N   0  0  0  0  0  0  0  0  0  0  0  0
    5.7156  -13.7661   24.6901 C   0  0  0  0  0  0  0  0  0  0  0  0
    6.6334  -13.1112   25.4177 C   0  0  0  0  0  0  0  0  0  0  0  0
    6.8489  -11.7874   25.7153 C   0  0  0  0  0  0  0  0  0  0  0  0
    7.9191  -11.4437   26.5180 C   0  0  0  0  0  0  0  0  0  0  0  0
    8.7781  -12.3901   27.0305 C   0  0  0  0  0  0  0  0  0  0  0  0
    8.5337  -13.7096   26.7119 C   0  0  0  0  0  0  0  0  0  0  0  0
    7.4884  -14.1028   25.9204 C   0  0  0  0  0  0  0  0  0  0  0  0
    9.7008  -18.0268   25.4607 O   0  0  0  0  0  0  0  0  0  0  0  0
    9.2924  -19.2176   25.5996 N   0  0  0  0  0  0  0  0  0  0  0  0
   11.0340  -17.7460   25.8612 C   0  0  1  0  0  0  0  0  0  0  0  0
   11.9234  -18.7700   26.4481 C   0  0  0  0  0  0  0  0  0  0  0  0
   13.2910  -18.1974   26.5169 C   0  0  0  0  0  0  0  0  0  0  0  0
   14.3280  -19.0710   27.0941 C   0  0  0  0  0  0  0  0  0  0  0  0
   14.4943  -20.4196   27.1489 N   0  0  0  0  0  0  0  0  0  0  0  0
   15.6900  -20.6501   27.7449 C   0  0  0  0  0  0  0  0  0  0  0  0
   16.2682  -19.5011   28.0584 N   0  0  0  0  0  0  0  0  0  0  0  0
   15.4503  -18.5294   27.6676 C   0  0  0  0  0  0  0  0  0  0  0  0
   11.3575  -19.1365   27.7773 O   0  0  0  0  0  0  0  0  0  0  0  0
   11.6832  -20.2776   28.4286 O   0  0  0  0  0  0  0  0  0  0  0  0
  1  2  1  0
  2  3  2  0
  4  5  1  0
  4  2  1  0
  5  6  1  0
  7  6  1  0
  8  9  1  6
  8  7  1  0
 10  8  1  0
 11 10  2  0
 12 10  1  0
 13 12  1  0
 13 14  1  1
 15 14  1  0
 16 15  2  0
 17 16  1  0
 18 17  1  0
 18 23  2  0
 19 20  2  0
 19 18  1  0
 20 21  1  0
 21 22  2  0
 23 22  1  0
 23 15  1  0
 24 25  2  0
 24 13  1  0
 26 24  1  0
 27 26  1  0
 27 28  1  1
 28 29  1  0
 29 33  1  0
 30 29  2  0
 30 31  1  0
 31 32  1  0
 33 32  2  0
 34 27  1  0
 35 34  1  0
 36 34  2  0
M  END
$$$$
