RWH.pdb
     RDKit          3D

 36 38  0  0  1  0  0  0  0  0999 V2000
   11.9760  -16.5785   14.7859 N   0  0  0  0  0  0  0  0  0  0  0  0
   10.6786  -16.7533   14.1692 C   0  0  0  0  0  0  0  0  0  0  0  0
   10.4749  -16.2382   13.0152 N   0  0  0  0  0  0  0  0  0  0  0  0
    9.6599  -17.4693   14.8363 N   0  0  0  0  0  0  0  0  0  0  0  0
    9.9509  -18.1396   16.0800 C   0  0  0  0  0  0  0  0  0  0  0  0
    9.7706  -17.2461   17.2901 C   0  0  0  0  0  0  0  0  0  0  0  0
    8.8611  -17.8949   18.2932 C   0  0  0  0  0  0  0  0  0  0  0  0
    9.6637  -18.2126   19.5411 C   0  0  2  0  0  0  0  0  0  0  0  0
    9.2293  -19.4963   20.0508 N   0  0  0  0  0  0  0  0  0  0  0  0
    9.6214  -17.1174   20.5165 C   0  0  0  0  0  0  0  0  0  0  0  0
   10.3731  -16.1100   20.2840 O   0  0  0  0  0  0  0  0  0  0  0  0
    9.5499  -16.3304   12.5600 N   0  0  0  0  0  0  0  0  0  0  0  0
    8.8393  -17.0465   21.6916 C   0  0  1  0  0  0  0  0  0  0  0  0
    8.9442  -15.9104   22.6061 C   0  0  0  0  0  0  0  0  0  0  0  0
    7.5716  -15.6943   23.2195 C   0  0  0  0  0  0  0  0  0  0  0  0
    7.3338  -14.3115   23.6278 C   0  0  0  0  0  0  0  0  0  0  0  0
    7.4224  -13.2062   22.8060 N   0  0  0  0  0  0  0  0  0  0  0  0
    7.1324  -12.0924   23.5359 C   0  0  0  0  0  0  0  0  0  0  0  0
    6.8558  -12.4255   24.8061 C   0  0  0  0  0  0  0  0  0  0  0  0
    6.5107  -11.7104   25.9272 C   0  0  0  0  0  0  0  0  0  0  0  0
    6.2890  -12.3834   27.1128 C   0  0  0  0  0  0  0  0  0  0  0  0
    6.4032  -13.7526   27.2049 C   0  0  0  0  0  0  0  0  0  0  0  0
    6.7517  -14.4399   26.0611 C   0  0  0  0  0  0  0  0  0  0  0  0
    6.9831  -13.8210   24.8624 C   0  0  0  0  0  0  0  0  0  0  0  0
    9.9876  -16.1025   23.6021 O   0  0  0  0  0  0  0  0  0  0  0  0
   11.1773  -15.6944   23.4533 N   0  0  0  0  0  0  0  0  0  0  0  0
    9.6782  -16.7760   24.8135 C   0  0  1  0  0  0  0  0  0  0  0  0
   10.6932  -17.0634   25.8485 C   0  0  0  0  0  0  0  0  0  0  0  0
   10.0885  -16.7679   27.1714 C   0  0  0  0  0  0  0  0  0  0  0  0
   10.6516  -15.6144   27.8951 C   0  0  0  0  0  0  0  0  0  0  0  0
   11.6063  -14.6937   27.5945 N   0  0  0  0  0  0  0  0  0  0  0  0
   11.6475  -13.8115   28.6231 C   0  0  0  0  0  0  0  0  0  0  0  0
   10.7580  -14.1484   29.5441 N   0  0  0  0  0  0  0  0  0  0  0  0
   10.1428  -15.2452   29.1144 C   0  0  0  0  0  0  0  0  0  0  0  0
   11.1048  -18.4859   25.6799 O   0  0  0  0  0  0  0  0  0  0  0  0
   12.3167  -18.9534   26.0607 O   0  0  0  0  0  0  0  0  0  0  0  0
  1  2  1  0
  2  3  2  0
  4  5  1  0
  4  2  1  0
  5  6  1  0
  7  6  1  0
  8  9  1  1
  8  7  1  0
 10  8  1  0
 11 10  2  0
 12 10  1  0
 13 12  1  0
 13 14  1  1
 15 14  1  0
 16 15  2  0
 17 16  1  0
 18 17  1  0
 18 23  2  0
 19 20  2  0
 19 18  1  0
 20 21  1  0
 21 22  2  0
 23 22  1  0
 23 15  1  0
 24 25  2  0
 24 13  1  0
 26 24  1  0
 27 26  1  0
 27 28  1  1
 28 29  1  0
 29 33  1  0
 30 29  2  0
 30 31  1  0
 31 32  1  0
 33 32  2  0
 34 27  1  0
 35 34  1  0
 36 34  2  0
M  END
$$$$
