RWH.pdb
     RDKit          3D

 36 38  0  0  1  0  0  0  0  0999 V2000
    8.8310  -13.2139   17.2389 N   0  0  0  0  0  0  0  0  0  0  0  0
    8.2647  -14.0177   16.1772 C   0  0  0  0  0  0  0  0  0  0  0  0
    7.9255  -13.4402   15.0864 N   0  0  0  0  0  0  0  0  0  0  0  0
    8.0833  -15.4078   16.3512 N   0  0  0  0  0  0  0  0  0  0  0  0
    7.6530  -15.9206   17.6290 C   0  0  0  0  0  0  0  0  0  0  0  0
    7.2376  -14.8298   18.5948 C   0  0  0  0  0  0  0  0  0  0  0  0
    8.1503  -14.8061   19.7869 C   0  0  0  0  0  0  0  0  0  0  0  0
    7.5633  -15.6983   20.8647 C   0  0  2  0  0  0  0  0  0  0  0  0
    6.1380  -15.4536   20.9360 N   0  0  0  0  0  0  0  0  0  0  0  0
    8.2751  -15.5619   22.1403 C   0  0  0  0  0  0  0  0  0  0  0  0
    8.9665  -14.4990   22.3030 O   0  0  0  0  0  0  0  0  0  0  0  0
    7.5892  -14.0004   14.2836 N   0  0  0  0  0  0  0  0  0  0  0  0
    8.2844  -16.4759   23.2182 C   0  0  1  0  0  0  0  0  0  0  0  0
    9.1425  -16.2670   24.3836 C   0  0  0  0  0  0  0  0  0  0  0  0
    8.2523  -16.3013   25.6138 C   0  0  0  0  0  0  0  0  0  0  0  0
    7.2783  -15.2126   25.6514 C   0  0  0  0  0  0  0  0  0  0  0  0
    5.9229  -15.3413   25.4249 N   0  0  0  0  0  0  0  0  0  0  0  0
    5.3396  -14.1155   25.5458 C   0  0  0  0  0  0  0  0  0  0  0  0
    6.2615  -13.1871   25.8441 C   0  0  0  0  0  0  0  0  0  0  0  0
    6.2147  -11.8325   26.0679 C   0  0  0  0  0  0  0  0  0  0  0  0
    7.3840  -11.1579   26.3603 C   0  0  0  0  0  0  0  0  0  0  0  0
    8.5978  -11.8040   26.4348 C   0  0  0  0  0  0  0  0  0  0  0  0
    8.6096  -13.1637   26.2041 C   0  0  0  0  0  0  0  0  0  0  0  0
    7.4800  -13.8784   25.9098 C   0  0  0  0  0  0  0  0  0  0  0  0
   10.2311  -17.2309   24.4431 O   0  0  0  0  0  0  0  0  0  0  0  0
   10.1031  -18.4483   24.1182 N   0  0  0  0  0  0  0  0  0  0  0  0
   11.5136  -16.8064   24.8810 C   0  0  1  0  0  0  0  0  0  0  0  0
   12.6844  -17.7078   24.9141 C   0  0  0  0  0  0  0  0  0  0  0  0
   13.9010  -16.8782   24.7288 C   0  0  0  0  0  0  0  0  0  0  0  0
   15.1887  -17.5738   24.9006 C   0  0  0  0  0  0  0  0  0  0  0  0
   15.6685  -18.4429   25.8300 N   0  0  0  0  0  0  0  0  0  0  0  0
   16.9074  -18.8160   25.4251 C   0  0  0  0  0  0  0  0  0  0  0  0
   17.2110  -18.2149   24.2852 N   0  0  0  0  0  0  0  0  0  0  0  0
   16.1730  -17.4547   23.9525 C   0  0  0  0  0  0  0  0  0  0  0  0
   12.6447  -18.4348   26.2145 O   0  0  0  0  0  0  0  0  0  0  0  0
   13.3718  -19.5503   26.4586 O   0  0  0  0  0  0  0  0  0  0  0  0
  1  2  1  0
  2  3  2  0
  4  5  1  0
  4  2  1  0
  5  6  1  0
  7  6  1  0
  8  9  1  1
  8  7  1  0
 10  8  1  0
 11 10  2  0
 12 10  1  0
 13 12  1  0
 13 14  1  1
 15 14  1  0
 16 15  2  0
 17 16  1  0
 18 17  1  0
 18 23  2  0
 19 20  2  0
 19 18  1  0
 20 21  1  0
 21 22  2  0
 23 22  1  0
 23 15  1  0
 24 25  2  0
 24 13  1  0
 26 24  1  0
 27 26  1  0
 27 28  1  1
 28 29  1  0
 29 33  1  0
 30 29  2  0
 30 31  1  0
 31 32  1  0
 33 32  2  0
 34 27  1  0
 35 34  1  0
 36 34  2  0
M  END
$$$$
