RWH.pdb
     RDKit          3D

 36 38  0  0  1  0  0  0  0  0999 V2000
    9.7286  -13.3524   17.4020 N   0  0  0  0  0  0  0  0  0  0  0  0
    8.5043  -13.8649   16.8250 C   0  0  0  0  0  0  0  0  0  0  0  0
    8.2314  -13.5725   15.6091 N   0  0  0  0  0  0  0  0  0  0  0  0
    7.6288  -14.6615   17.5958 N   0  0  0  0  0  0  0  0  0  0  0  0
    6.7073  -14.0346   18.5117 C   0  0  0  0  0  0  0  0  0  0  0  0
    7.3602  -13.6136   19.8123 C   0  0  0  0  0  0  0  0  0  0  0  0
    6.8092  -14.4095   20.9601 C   0  0  0  0  0  0  0  0  0  0  0  0
    7.6473  -15.6633   21.1271 C   0  0  2  0  0  0  0  0  0  0  0  0
    6.7599  -16.8071   21.1565 N   0  0  0  0  0  0  0  0  0  0  0  0
    8.5624  -15.5656   22.2698 C   0  0  0  0  0  0  0  0  0  0  0  0
    9.4747  -14.6728   22.2020 O   0  0  0  0  0  0  0  0  0  0  0  0
    7.3878  -13.9657   15.1560 N   0  0  0  0  0  0  0  0  0  0  0  0
    8.5514  -16.3496   23.4456 C   0  0  1  0  0  0  0  0  0  0  0  0
    9.4917  -16.0959   24.5362 C   0  0  0  0  0  0  0  0  0  0  0  0
    8.7011  -16.1264   25.8327 C   0  0  0  0  0  0  0  0  0  0  0  0
    7.5572  -15.2171   25.8321 C   0  0  0  0  0  0  0  0  0  0  0  0
    6.2346  -15.5925   25.7103 N   0  0  0  0  0  0  0  0  0  0  0  0
    5.4557  -14.4749   25.7532 C   0  0  0  0  0  0  0  0  0  0  0  0
    6.2176  -13.3801   25.8995 C   0  0  0  0  0  0  0  0  0  0  0  0
    5.9494  -12.0361   25.9964 C   0  0  0  0  0  0  0  0  0  0  0  0
    6.9982  -11.1496   26.1443 C   0  0  0  0  0  0  0  0  0  0  0  0
    8.3073  -11.5733   26.1981 C   0  0  0  0  0  0  0  0  0  0  0  0
    8.5416  -12.9287   26.0973 C   0  0  0  0  0  0  0  0  0  0  0  0
    7.5387  -13.8483   25.9486 C   0  0  0  0  0  0  0  0  0  0  0  0
   10.6062  -17.0316   24.5284 O   0  0  0  0  0  0  0  0  0  0  0  0
   10.4608  -18.2888   24.4806 N   0  0  0  0  0  0  0  0  0  0  0  0
   11.9349  -16.5322   24.5717 C   0  0  1  0  0  0  0  0  0  0  0  0
   13.1203  -17.4146   24.5515 C   0  0  0  0  0  0  0  0  0  0  0  0
   14.2130  -16.6905   23.8553 C   0  0  0  0  0  0  0  0  0  0  0  0
   13.9408  -16.2973   22.4614 C   0  0  0  0  0  0  0  0  0  0  0  0
   13.1596  -16.8155   21.4762 N   0  0  0  0  0  0  0  0  0  0  0  0
   13.2462  -15.9758   20.4154 C   0  0  0  0  0  0  0  0  0  0  0  0
   14.0465  -14.9616   20.7052 N   0  0  0  0  0  0  0  0  0  0  0  0
   14.4773  -15.1434   21.9492 C   0  0  0  0  0  0  0  0  0  0  0  0
   13.4354  -17.7625   25.9660 O   0  0  0  0  0  0  0  0  0  0  0  0
   14.4063  -18.6405   26.3111 O   0  0  0  0  0  0  0  0  0  0  0  0
  1  2  1  0
  2  3  2  0
  4  5  1  0
  4  2  1  0
  5  6  1  0
  7  6  1  0
  8  9  1  1
  8  7  1  0
 10  8  1  0
 11 10  2  0
 12 10  1  0
 13 12  1  0
 13 14  1  6
 15 14  1  0
 16 15  2  0
 17 16  1  0
 18 17  1  0
 18 23  2  0
 19 20  2  0
 19 18  1  0
 20 21  1  0
 21 22  2  0
 23 22  1  0
 23 15  1  0
 24 25  2  0
 24 13  1  0
 26 24  1  0
 27 26  1  0
 27 28  1  1
 28 29  1  0
 29 33  1  0
 30 29  2  0
 30 31  1  0
 31 32  1  0
 33 32  2  0
 34 27  1  0
 35 34  1  0
 36 34  2  0
M  END
$$$$
