RWH.pdb
     RDKit          3D

 36 38  0  0  1  0  0  0  0  0999 V2000
    6.9117  -15.2329   16.4811 N   0  0  0  0  0  0  0  0  0  0  0  0
    7.9845  -14.5033   15.8400 C   0  0  0  0  0  0  0  0  0  0  0  0
    7.6941  -13.6986   14.8879 N   0  0  0  0  0  0  0  0  0  0  0  0
    9.3224  -14.6876   16.2542 N   0  0  0  0  0  0  0  0  0  0  0  0
    9.6054  -15.4407   17.4515 C   0  0  0  0  0  0  0  0  0  0  0  0
    9.2924  -14.6744   18.7203 C   0  0  0  0  0  0  0  0  0  0  0  0
    9.7089  -15.4631   19.9283 C   0  0  0  0  0  0  0  0  0  0  0  0
    8.5716  -15.4484   20.9326 C   0  0  2  0  0  0  0  0  0  0  0  0
    7.5907  -14.4751   20.4999 N   0  0  0  0  0  0  0  0  0  0  0  0
    9.0529  -15.2672   22.3067 C   0  0  0  0  0  0  0  0  0  0  0  0
    9.7818  -14.2414   22.5308 O   0  0  0  0  0  0  0  0  0  0  0  0
    8.4436  -13.1772   14.4003 N   0  0  0  0  0  0  0  0  0  0  0  0
    8.8013  -16.1014   23.4194 C   0  0  1  0  0  0  0  0  0  0  0  0
    9.4442  -15.8598   24.7103 C   0  0  0  0  0  0  0  0  0  0  0  0
    8.3843  -16.0339   25.7841 C   0  0  0  0  0  0  0  0  0  0  0  0
    7.3049  -15.0531   25.6933 C   0  0  0  0  0  0  0  0  0  0  0  0
    6.0027  -15.3257   25.3258 N   0  0  0  0  0  0  0  0  0  0  0  0
    5.2864  -14.1666   25.3567 C   0  0  0  0  0  0  0  0  0  0  0  0
    6.0696  -13.1435   25.7316 C   0  0  0  0  0  0  0  0  0  0  0  0
    5.8592  -11.7990   25.9195 C   0  0  0  0  0  0  0  0  0  0  0  0
    6.9139  -11.0024   26.3207 C   0  0  0  0  0  0  0  0  0  0  0  0
    8.1725  -11.5167   26.5389 C   0  0  0  0  0  0  0  0  0  0  0  0
    8.3496  -12.8700   26.3406 C   0  0  0  0  0  0  0  0  0  0  0  0
    7.3385  -13.7024   25.9427 C   0  0  0  0  0  0  0  0  0  0  0  0
   10.6046  -16.7143   24.9136 O   0  0  0  0  0  0  0  0  0  0  0  0
   11.3061  -16.6983   25.9680 N   0  0  0  0  0  0  0  0  0  0  0  0
   10.9865  -17.6242   23.8925 C   0  0  2  0  0  0  0  0  0  0  0  0
   12.1404  -18.5377   24.0282 C   0  0  0  0  0  0  0  0  0  0  0  0
   13.3776  -17.7273   23.9040 C   0  0  0  0  0  0  0  0  0  0  0  0
   14.6449  -18.4467   24.1231 C   0  0  0  0  0  0  0  0  0  0  0  0
   14.9736  -19.5861   24.7887 N   0  0  0  0  0  0  0  0  0  0  0  0
   16.2953  -19.8032   24.5791 C   0  0  0  0  0  0  0  0  0  0  0  0
   16.7948  -18.8470   23.8116 N   0  0  0  0  0  0  0  0  0  0  0  0
   15.8008  -18.0129   23.5251 C   0  0  0  0  0  0  0  0  0  0  0  0
   12.0037  -19.2290   25.3414 O   0  0  0  0  0  0  0  0  0  0  0  0
   10.9975  -18.9715   26.2096 O   0  0  0  0  0  0  0  0  0  0  0  0
  1  2  1  0
  2  3  2  0
  4  5  1  0
  4  2  1  0
  5  6  1  0
  7  6  1  0
  8  9  1  6
  8  7  1  0
 10  8  1  0
 11 10  2  0
 12 10  1  0
 13 12  1  0
 13 14  1  1
 15 14  1  0
 16 15  2  0
 17 16  1  0
 18 17  1  0
 18 23  2  0
 19 20  2  0
 19 18  1  0
 20 21  1  0
 21 22  2  0
 23 22  1  0
 23 15  1  0
 24 25  2  0
 24 13  1  0
 26 24  1  0
 27 26  1  0
 27 28  1  6
 28 29  1  0
 29 33  1  0
 30 29  2  0
 30 31  1  0
 31 32  1  0
 33 32  2  0
 34 27  1  0
 35 34  1  0
 36 34  2  0
M  END
$$$$
