RWH.pdb
     RDKit          3D

 36 38  0  0  1  0  0  0  0  0999 V2000
    9.0309  -15.1654   14.8586 N   0  0  0  0  0  0  0  0  0  0  0  0
    8.8286  -13.9741   15.6549 C   0  0  0  0  0  0  0  0  0  0  0  0
    8.4044  -12.9149   15.0749 N   0  0  0  0  0  0  0  0  0  0  0  0
    9.1051  -13.9840   17.0401 N   0  0  0  0  0  0  0  0  0  0  0  0
    8.4492  -14.9425   17.8957 C   0  0  0  0  0  0  0  0  0  0  0  0
    7.1195  -14.4483   18.4276 C   0  0  0  0  0  0  0  0  0  0  0  0
    7.0651  -14.5879   19.9216 C   0  0  0  0  0  0  0  0  0  0  0  0
    7.9044  -15.7850   20.3275 C   0  0  2  0  0  0  0  0  0  0  0  0
    7.0507  -16.9540   20.3583 N   0  0  0  0  0  0  0  0  0  0  0  0
    8.6536  -15.5380   21.5646 C   0  0  0  0  0  0  0  0  0  0  0  0
    9.4230  -14.5172   21.5777 O   0  0  0  0  0  0  0  0  0  0  0  0
    8.2431  -12.0510   15.6219 N   0  0  0  0  0  0  0  0  0  0  0  0
    8.6222  -16.3031   22.7524 C   0  0  1  0  0  0  0  0  0  0  0  0
    9.4723  -15.9683   23.8940 C   0  0  0  0  0  0  0  0  0  0  0  0
    8.6633  -16.2280   25.1530 C   0  0  0  0  0  0  0  0  0  0  0  0
    7.5127  -15.3382   25.2930 C   0  0  0  0  0  0  0  0  0  0  0  0
    6.1920  -15.7031   25.1264 N   0  0  0  0  0  0  0  0  0  0  0  0
    5.4051  -14.6105   25.3374 C   0  0  0  0  0  0  0  0  0  0  0  0
    6.1599  -13.5423   25.6371 C   0  0  0  0  0  0  0  0  0  0  0  0
    5.8825  -12.2293   25.9313 C   0  0  0  0  0  0  0  0  0  0  0  0
    6.9257  -11.3650   26.2002 C   0  0  0  0  0  0  0  0  0  0  0  0
    8.2383  -11.7807   26.1829 C   0  0  0  0  0  0  0  0  0  0  0  0
    8.4820  -13.1048   25.8833 C   0  0  0  0  0  0  0  0  0  0  0  0
    7.4848  -14.0013   25.6085 C   0  0  0  0  0  0  0  0  0  0  0  0
   10.7339  -16.6934   23.8698 O   0  0  0  0  0  0  0  0  0  0  0  0
   10.8752  -17.8289   23.3270 N   0  0  0  0  0  0  0  0  0  0  0  0
   11.8806  -16.1154   24.4761 C   0  0  2  0  0  0  0  0  0  0  0  0
   12.1337  -16.1824   25.9306 C   0  0  0  0  0  0  0  0  0  0  0  0
   10.9002  -15.7385   26.6266 C   0  0  0  0  0  0  0  0  0  0  0  0
   10.9415  -15.7751   28.0992 C   0  0  0  0  0  0  0  0  0  0  0  0
   11.8997  -16.1148   29.0024 N   0  0  0  0  0  0  0  0  0  0  0  0
   11.3890  -15.8745   30.2351 C   0  0  0  0  0  0  0  0  0  0  0  0
   10.1575  -15.3999   30.1300 N   0  0  0  0  0  0  0  0  0  0  0  0
    9.8708  -15.3332   28.8341 C   0  0  0  0  0  0  0  0  0  0  0  0
   12.5302  -17.5842   26.2454 O   0  0  0  0  0  0  0  0  0  0  0  0
   11.6509  -18.6133   26.2636 O   0  0  0  0  0  0  0  0  0  0  0  0
  1  2  1  0
  2  3  2  0
  4  5  1  0
  4  2  1  0
  5  6  1  0
  7  6  1  0
  8  9  1  1
  8  7  1  0
 10  8  1  0
 11 10  2  0
 12 10  1  0
 13 12  1  0
 13 14  1  1
 15 14  1  0
 16 15  2  0
 17 16  1  0
 18 17  1  0
 18 23  2  0
 19 20  2  0
 19 18  1  0
 20 21  1  0
 21 22  2  0
 23 22  1  0
 23 15  1  0
 24 25  2  0
 24 13  1  0
 26 24  1  0
 27 26  1  0
 27 28  1  6
 28 29  1  0
 29 33  1  0
 30 29  2  0
 30 31  1  0
 31 32  1  0
 33 32  2  0
 34 27  1  0
 35 34  1  0
 36 34  2  0
M  END
$$$$
