RWH.pdb
     RDKit          3D

 36 38  0  0  1  0  0  0  0  0999 V2000
    7.7968  -12.7593   17.1958 N   0  0  0  0  0  0  0  0  0  0  0  0
    7.7744  -13.9510   16.3750 C   0  0  0  0  0  0  0  0  0  0  0  0
    7.4153  -13.8446   15.1510 N   0  0  0  0  0  0  0  0  0  0  0  0
    8.1325  -15.2032   16.9219 N   0  0  0  0  0  0  0  0  0  0  0  0
    8.7483  -15.2673   18.2248 C   0  0  0  0  0  0  0  0  0  0  0  0
    9.0799  -16.6820   18.6536 C   0  0  0  0  0  0  0  0  0  0  0  0
    9.9437  -16.6714   19.8817 C   0  0  0  0  0  0  0  0  0  0  0  0
    9.1108  -17.1293   21.0643 C   0  0  2  0  0  0  0  0  0  0  0  0
    7.7532  -16.6619   20.8771 N   0  0  0  0  0  0  0  0  0  0  0  0
    9.7195  -16.7530   22.3451 C   0  0  0  0  0  0  0  0  0  0  0  0
   10.9919  -16.6313   22.3641 O   0  0  0  0  0  0  0  0  0  0  0  0
    7.4848  -14.6587   14.5156 N   0  0  0  0  0  0  0  0  0  0  0  0
    9.0571  -16.5069   23.5690 C   0  0  1  0  0  0  0  0  0  0  0  0
    9.8043  -16.3018   24.8090 C   0  0  0  0  0  0  0  0  0  0  0  0
    9.5567  -14.8715   25.2560 C   0  0  0  0  0  0  0  0  0  0  0  0
    8.1462  -14.5808   25.5040 C   0  0  0  0  0  0  0  0  0  0  0  0
    7.1095  -15.4850   25.3920 N   0  0  0  0  0  0  0  0  0  0  0  0
    5.9417  -14.8540   25.7012 C   0  0  0  0  0  0  0  0  0  0  0  0
    6.1734  -13.5695   26.0128 C   0  0  0  0  0  0  0  0  0  0  0  0
    5.3721  -12.5185   26.3881 C   0  0  0  0  0  0  0  0  0  0  0  0
    5.9493  -11.2898   26.6429 C   0  0  0  0  0  0  0  0  0  0  0  0
    7.3067  -11.0862   26.5323 C   0  0  0  0  0  0  0  0  0  0  0  0
    8.0821  -12.1619   26.1529 C   0  0  0  0  0  0  0  0  0  0  0  0
    7.5599  -13.3992   25.8881 C   0  0  0  0  0  0  0  0  0  0  0  0
    9.4583  -17.2829   25.8267 O   0  0  0  0  0  0  0  0  0  0  0  0
    8.4496  -18.0446   25.7465 N   0  0  0  0  0  0  0  0  0  0  0  0
   10.2821  -17.4140   26.9759 C   0  0  1  0  0  0  0  0  0  0  0  0
   10.5653  -18.7185   27.6102 C   0  0  0  0  0  0  0  0  0  0  0  0
   11.0896  -19.6286   26.5616 C   0  0  0  0  0  0  0  0  0  0  0  0
   11.3563  -21.0147   26.9847 C   0  0  0  0  0  0  0  0  0  0  0  0
   11.1740  -21.6911   28.1503 N   0  0  0  0  0  0  0  0  0  0  0  0
   11.5345  -22.9785   27.9250 C   0  0  0  0  0  0  0  0  0  0  0  0
   11.9300  -23.1245   26.6700 N   0  0  0  0  0  0  0  0  0  0  0  0
   11.8266  -21.9363   26.0839 C   0  0  0  0  0  0  0  0  0  0  0  0
   11.5240  -18.4687   28.7237 O   0  0  0  0  0  0  0  0  0  0  0  0
   11.9777  -17.2340   29.0437 O   0  0  0  0  0  0  0  0  0  0  0  0
  1  2  1  0
  2  3  2  0
  4  5  1  0
  4  2  1  0
  5  6  1  0
  7  6  1  0
  8  9  1  6
  8  7  1  0
 10  8  1  0
 11 10  2  0
 12 10  1  0
 13 12  1  0
 13 14  1  6
 15 14  1  0
 16 15  2  0
 17 16  1  0
 18 17  1  0
 18 23  2  0
 19 20  2  0
 19 18  1  0
 20 21  1  0
 21 22  2  0
 23 22  1  0
 23 15  1  0
 24 25  2  0
 24 13  1  0
 26 24  1  0
 27 26  1  0
 27 28  1  1
 28 29  1  0
 29 33  1  0
 30 29  2  0
 30 31  1  0
 31 32  1  0
 33 32  2  0
 34 27  1  0
 35 34  1  0
 36 34  2  0
M  END
$$$$
