KIA.pdb
     RDKit          3D

 23 22  0  0  1  0  0  0  0  0999 V2000
   23.3723  -15.0095  -17.7469 N   0  0  0  0  0  0  0  0  0  0  0  0
   22.6857  -13.7566  -17.9727 C   0  0  1  0  0  0  0  0  0  0  0  0
   21.1998  -13.9786  -18.1896 C   0  0  0  0  0  0  0  0  0  0  0  0
   20.9152  -15.4192  -18.5230 C   0  0  0  0  0  0  0  0  0  0  0  0
   19.4564  -15.6990  -18.7339 C   0  0  0  0  0  0  0  0  0  0  0  0
   19.1911  -17.1565  -19.0417 C   0  0  0  0  0  0  0  0  0  0  0  0
   17.7532  -17.3015  -19.2617 N   0  0  0  0  0  0  0  0  0  0  0  0
   22.8713  -12.8979  -16.7795 C   0  0  0  0  0  0  0  0  0  0  0  0
   22.4565  -13.3064  -15.6663 O   0  0  0  0  0  0  0  0  0  0  0  0
   27.5473  -11.7713  -16.1117 C   0  0  0  0  0  0  0  0  0  0  0  0
   26.2150  -11.8624  -15.4372 C   0  0  0  0  0  0  0  0  0  0  0  0
   25.3191  -10.6952  -15.6133 C   0  0  2  0  0  0  0  0  0  0  0  0
   25.7749   -9.4444  -14.8941 C   0  0  0  0  0  0  0  0  0  0  0  0
   23.8665  -10.9735  -15.5676 C   0  0  2  0  0  0  0  0  0  0  0  0
   23.4916  -11.6414  -16.8287 N   0  0  0  0  0  0  0  0  0  0  0  0
   22.9612   -9.8477  -15.3137 C   0  0  0  0  0  0  0  0  0  0  0  0
   22.9444   -9.1753  -14.2614 O   0  0  0  0  0  0  0  0  0  0  0  0
   20.0660   -8.8494  -15.0050 C   0  0  0  0  0  0  0  0  0  0  0  0
   21.0880   -8.4163  -16.0552 C   0  0  2  0  0  0  0  0  0  0  0  0
   22.0123   -9.4664  -16.3319 N   0  0  0  0  0  0  0  0  0  0  0  0
   21.7661   -7.1778  -15.6205 C   0  0  0  0  0  0  0  0  0  0  0  0
   21.0392   -6.0438  -15.3392 O   0  0  0  0  0  0  0  0  0  0  0  0
   23.0087   -7.1552  -15.5060 O   0  0  0  0  0  0  0  0  0  0  0  0
  2  1  1  1
  3  2  1  0
  4  3  1  0
  5  4  1  0
  6  5  1  0
  7  6  1  0
  8  2  1  0
  8  9  2  0
 11 10  1  0
 12 11  1  0
 12 13  1  1
 14 15  1  6
 14 12  1  0
 15  8  1  0
 16 14  1  0
 17 16  2  0
 19 18  1  1
 19 20  1  0
 20 16  1  0
 21 19  1  0
 21 22  1  0
 23 21  2  0
M  END
$$$$
