KIA.pdb
     RDKit          3D

 23 22  0  0  1  0  0  0  0  0999 V2000
   29.0298  -30.3011  -16.8215 N   0  0  0  0  0  0  0  0  0  0  0  0
   29.2064  -29.2816  -17.8322 C   0  0  1  0  0  0  0  0  0  0  0  0
   28.2262  -29.4696  -18.9759 C   0  0  0  0  0  0  0  0  0  0  0  0
   28.9451  -29.8579  -20.2408 C   0  0  0  0  0  0  0  0  0  0  0  0
   29.3389  -31.3051  -20.2753 C   0  0  0  0  0  0  0  0  0  0  0  0
   30.0296  -31.6805  -21.5682 C   0  0  0  0  0  0  0  0  0  0  0  0
   30.4851  -33.0630  -21.4344 N   0  0  0  0  0  0  0  0  0  0  0  0
   28.9670  -27.9581  -17.2106 C   0  0  0  0  0  0  0  0  0  0  0  0
   28.2852  -27.8956  -16.1573 O   0  0  0  0  0  0  0  0  0  0  0  0
   32.8427  -25.4826  -15.7290 C   0  0  0  0  0  0  0  0  0  0  0  0
   31.3689  -25.7382  -15.7021 C   0  0  0  0  0  0  0  0  0  0  0  0
   30.5556  -24.9365  -16.6465 C   0  0  2  0  0  0  0  0  0  0  0  0
   30.5904  -23.4456  -16.3902 C   0  0  0  0  0  0  0  0  0  0  0  0
   29.2366  -25.4983  -17.0130 C   0  0  2  0  0  0  0  0  0  0  0  0
   29.4665  -26.7604  -17.7417 N   0  0  0  0  0  0  0  0  0  0  0  0
   28.3168  -24.6459  -17.7739 C   0  0  0  0  0  0  0  0  0  0  0  0
   28.4152  -24.4118  -18.9967 O   0  0  0  0  0  0  0  0  0  0  0  0
   25.1969  -22.6581  -16.9571 C   0  0  0  0  0  0  0  0  0  0  0  0
   26.3904  -23.0981  -17.8038 C   0  0  2  0  0  0  0  0  0  0  0  0
   27.2110  -24.0203  -17.0897 N   0  0  0  0  0  0  0  0  0  0  0  0
   27.1493  -21.9160  -18.2613 C   0  0  0  0  0  0  0  0  0  0  0  0
   28.2165  -21.4443  -17.5319 O   0  0  0  0  0  0  0  0  0  0  0  0
   26.8233  -21.3370  -19.3178 O   0  0  0  0  0  0  0  0  0  0  0  0
  2  1  1  1
  3  2  1  0
  4  3  1  0
  5  4  1  0
  6  5  1  0
  7  6  1  0
  8  2  1  0
  8  9  2  0
 11 10  1  0
 12 11  1  0
 12 13  1  1
 14 15  1  6
 14 12  1  0
 15  8  1  0
 16 14  1  0
 17 16  2  0
 19 18  1  1
 19 20  1  0
 20 16  1  0
 21 19  1  0
 21 22  1  0
 23 21  2  0
M  END
$$$$
