KIA.pdb
     RDKit          3D

 23 22  0  0  1  0  0  0  0  0999 V2000
   15.6267  -11.1154  -12.9701 N   0  0  0  0  0  0  0  0  0  0  0  0
   16.6526  -10.2822  -12.3824 C   0  0  1  0  0  0  0  0  0  0  0  0
   17.8149  -10.0888  -13.3394 C   0  0  0  0  0  0  0  0  0  0  0  0
   17.3595  -10.2132  -14.7693 C   0  0  0  0  0  0  0  0  0  0  0  0
   17.9530   -9.1708  -15.6704 C   0  0  0  0  0  0  0  0  0  0  0  0
   17.5988   -9.4004  -17.1235 C   0  0  0  0  0  0  0  0  0  0  0  0
   18.2079   -8.3201  -17.8972 N   0  0  0  0  0  0  0  0  0  0  0  0
   16.0626   -8.9586  -12.0738 C   0  0  0  0  0  0  0  0  0  0  0  0
   15.0560   -8.5760  -12.7208 O   0  0  0  0  0  0  0  0  0  0  0  0
   14.7554   -7.3858   -7.1819 C   0  0  0  0  0  0  0  0  0  0  0  0
   14.8649   -7.5694   -8.6626 C   0  0  0  0  0  0  0  0  0  0  0  0
   15.7893   -6.6466   -9.3627 C   0  0  2  0  0  0  0  0  0  0  0  0
   15.7400   -5.2182   -8.8660 C   0  0  0  0  0  0  0  0  0  0  0  0
   15.8974   -6.8174  -10.8286 C   0  0  2  0  0  0  0  0  0  0  0  0
   16.5740   -8.1026  -11.0879 N   0  0  0  0  0  0  0  0  0  0  0  0
   16.5476   -5.7500  -11.5963 C   0  0  0  0  0  0  0  0  0  0  0  0
   17.7221   -5.3642  -11.4189 O   0  0  0  0  0  0  0  0  0  0  0  0
   15.7804   -3.9063  -14.7692 C   0  0  0  0  0  0  0  0  0  0  0  0
   16.4525   -4.0706  -13.4068 C   0  0  2  0  0  0  0  0  0  0  0  0
   15.8042   -5.0800  -12.6358 N   0  0  0  0  0  0  0  0  0  0  0  0
   16.4931   -2.7724  -12.7029 C   0  0  0  0  0  0  0  0  0  0  0  0
   17.4843   -1.8582  -12.9774 O   0  0  0  0  0  0  0  0  0  0  0  0
   15.6230   -2.4980  -11.8512 O   0  0  0  0  0  0  0  0  0  0  0  0
  2  1  1  6
  3  2  1  0
  4  3  1  0
  5  4  1  0
  6  5  1  0
  7  6  1  0
  8  2  1  0
  8  9  2  0
 11 10  1  0
 12 11  1  0
 12 13  1  6
 14 15  1  1
 14 12  1  0
 15  8  1  0
 16 14  1  0
 17 16  2  0
 19 18  1  6
 19 20  1  0
 20 16  1  0
 21 19  1  0
 21 22  1  0
 23 21  2  0
M  END
$$$$
