KIA.pdb
     RDKit          3D

 23 22  0  0  1  0  0  0  0  0999 V2000
   20.6483  -21.0407  -11.3326 N   0  0  0  0  0  0  0  0  0  0  0  0
   20.9908  -20.7060  -12.6974 C   0  0  1  0  0  0  0  0  0  0  0  0
   20.0669  -19.6336  -13.2458 C   0  0  0  0  0  0  0  0  0  0  0  0
   18.7024  -20.1990  -13.5392 C   0  0  0  0  0  0  0  0  0  0  0  0
   18.7372  -21.3649  -14.4827 C   0  0  0  0  0  0  0  0  0  0  0  0
   18.0266  -21.0692  -15.7855 C   0  0  0  0  0  0  0  0  0  0  0  0
   17.9940  -22.3107  -16.5564 N   0  0  0  0  0  0  0  0  0  0  0  0
   22.3817  -20.1959  -12.7208 C   0  0  0  0  0  0  0  0  0  0  0  0
   22.5833  -18.9712  -12.5264 O   0  0  0  0  0  0  0  0  0  0  0  0
   27.2330  -20.6369  -10.4396 C   0  0  0  0  0  0  0  0  0  0  0  0
   27.0941  -20.9910  -11.8866 C   0  0  0  0  0  0  0  0  0  0  0  0
   25.7548  -21.4614  -12.3122 C   0  0  2  0  0  0  0  0  0  0  0  0
   25.7597  -22.7956  -13.0258 C   0  0  0  0  0  0  0  0  0  0  0  0
   24.8481  -20.4337  -12.8702 C   0  0  2  0  0  0  0  0  0  0  0  0
   23.4951  -21.0165  -12.9508 N   0  0  0  0  0  0  0  0  0  0  0  0
   25.2067  -19.8308  -14.1584 C   0  0  0  0  0  0  0  0  0  0  0  0
   24.8471  -20.2700  -15.2709 O   0  0  0  0  0  0  0  0  0  0  0  0
   27.0596  -16.7119  -15.2366 C   0  0  0  0  0  0  0  0  0  0  0  0
   26.3885  -18.0712  -15.4290 C   0  0  2  0  0  0  0  0  0  0  0  0
   26.0315  -18.6468  -14.1741 N   0  0  0  0  0  0  0  0  0  0  0  0
   27.2638  -18.9599  -16.2205 C   0  0  0  0  0  0  0  0  0  0  0  0
   27.2134  -18.9484  -17.5955 O   0  0  0  0  0  0  0  0  0  0  0  0
   28.0575  -19.7295  -15.6412 O   0  0  0  0  0  0  0  0  0  0  0  0
  2  1  1  1
  3  2  1  0
  4  3  1  0
  5  4  1  0
  6  5  1  0
  7  6  1  0
  8  2  1  0
  8  9  2  0
 11 10  1  0
 12 11  1  0
 12 13  1  6
 14 15  1  6
 14 12  1  0
 15  8  1  0
 16 14  1  0
 17 16  2  0
 19 18  1  1
 19 20  1  0
 20 16  1  0
 21 19  1  0
 21 22  1  0
 23 21  2  0
M  END
$$$$
