KIA.pdb
     RDKit          3D

 23 22  0  0  1  0  0  0  0  0999 V2000
   18.5167  -11.7275  -18.4970 N   0  0  0  0  0  0  0  0  0  0  0  0
   19.4692  -10.6744  -18.7727 C   0  0  1  0  0  0  0  0  0  0  0  0
   18.7911   -9.4781  -19.4155 C   0  0  0  0  0  0  0  0  0  0  0  0
   18.3715   -9.7930  -20.8270 C   0  0  0  0  0  0  0  0  0  0  0  0
   17.7732   -8.6171  -21.5411 C   0  0  0  0  0  0  0  0  0  0  0  0
   17.3453   -8.9600  -22.9513 C   0  0  0  0  0  0  0  0  0  0  0  0
   17.1152  -10.4027  -22.9990 N   0  0  0  0  0  0  0  0  0  0  0  0
   20.0797  -10.2465  -17.4922 C   0  0  0  0  0  0  0  0  0  0  0  0
   19.3407  -10.0930  -16.4880 O   0  0  0  0  0  0  0  0  0  0  0  0
   23.9828  -12.7708  -15.3092 C   0  0  0  0  0  0  0  0  0  0  0  0
   22.8260  -11.8900  -15.6616 C   0  0  0  0  0  0  0  0  0  0  0  0
   23.0987  -10.4333  -15.6639 C   0  0  2  0  0  0  0  0  0  0  0  0
   23.9551   -9.9569  -14.5111 C   0  0  0  0  0  0  0  0  0  0  0  0
   21.9646   -9.5568  -16.0316 C   0  0  2  0  0  0  0  0  0  0  0  0
   21.4520  -10.0017  -17.3416 N   0  0  0  0  0  0  0  0  0  0  0  0
   22.1980   -8.1089  -16.0554 C   0  0  0  0  0  0  0  0  0  0  0  0
   22.9774   -7.5295  -16.8407 O   0  0  0  0  0  0  0  0  0  0  0  0
   20.6183   -5.0670  -15.6828 C   0  0  0  0  0  0  0  0  0  0  0  0
   21.7768   -5.8713  -15.0945 C   0  0  2  0  0  0  0  0  0  0  0  0
   21.4925   -7.2685  -15.1181 N   0  0  0  0  0  0  0  0  0  0  0  0
   22.0873   -5.3891  -13.7331 C   0  0  0  0  0  0  0  0  0  0  0  0
   22.7099   -4.1765  -13.5451 O   0  0  0  0  0  0  0  0  0  0  0  0
   21.7841   -6.0843  -12.7418 O   0  0  0  0  0  0  0  0  0  0  0  0
  2  1  1  1
  3  2  1  0
  4  3  1  0
  5  4  1  0
  6  5  1  0
  7  6  1  0
  8  2  1  0
  8  9  2  0
 11 10  1  0
 12 11  1  0
 12 13  1  1
 14 15  1  6
 14 12  1  0
 15  8  1  0
 16 14  1  0
 17 16  2  0
 19 18  1  1
 19 20  1  0
 20 16  1  0
 21 19  1  0
 21 22  1  0
 23 21  2  0
M  END
$$$$
