KIA.pdb
     RDKit          3D

 23 22  0  0  1  0  0  0  0  0999 V2000
   20.3986  -20.7661  -12.6316 N   0  0  0  0  0  0  0  0  0  0  0  0
   21.5298  -21.4028  -13.2697 C   0  0  1  0  0  0  0  0  0  0  0  0
   21.4436  -21.2844  -14.7806 C   0  0  0  0  0  0  0  0  0  0  0  0
   20.6042  -22.3926  -15.3590 C   0  0  0  0  0  0  0  0  0  0  0  0
   20.0731  -23.3349  -14.3193 C   0  0  0  0  0  0  0  0  0  0  0  0
   18.5819  -23.5540  -14.4525 C   0  0  0  0  0  0  0  0  0  0  0  0
   18.3804  -24.9379  -14.8777 N   0  0  0  0  0  0  0  0  0  0  0  0
   22.7678  -20.7325  -12.8078 C   0  0  0  0  0  0  0  0  0  0  0  0
   22.8926  -19.4955  -12.9879 O   0  0  0  0  0  0  0  0  0  0  0  0
   24.4657  -20.9168   -8.0314 C   0  0  0  0  0  0  0  0  0  0  0  0
   24.1821  -20.6977   -9.4839 C   0  0  0  0  0  0  0  0  0  0  0  0
   25.3305  -20.8811  -10.4025 C   0  0  2  0  0  0  0  0  0  0  0  0
   26.6345  -20.3063   -9.8939 C   0  0  0  0  0  0  0  0  0  0  0  0
   25.0542  -20.6807  -11.8423 C   0  0  2  0  0  0  0  0  0  0  0  0
   23.8172  -21.4132  -12.1742 N   0  0  0  0  0  0  0  0  0  0  0  0
   26.1105  -21.0315  -12.7976 C   0  0  0  0  0  0  0  0  0  0  0  0
   26.8527  -22.0311  -12.6979 O   0  0  0  0  0  0  0  0  0  0  0  0
   27.1994  -21.9093  -15.4237 C   0  0  0  0  0  0  0  0  0  0  0  0
   27.3844  -20.5056  -14.8490 C   0  0  2  0  0  0  0  0  0  0  0  0
   26.3319  -20.1819  -13.9428 N   0  0  0  0  0  0  0  0  0  0  0  0
   27.4981  -19.5213  -15.9447 C   0  0  0  0  0  0  0  0  0  0  0  0
   28.4531  -19.6715  -16.9240 O   0  0  0  0  0  0  0  0  0  0  0  0
   26.7236  -18.5435  -15.9867 O   0  0  0  0  0  0  0  0  0  0  0  0
  2  1  1  1
  3  2  1  0
  4  3  1  0
  5  4  1  0
  6  5  1  0
  7  6  1  0
  8  2  1  0
  8  9  2  0
 11 10  1  0
 12 11  1  0
 12 13  1  1
 14 15  1  6
 14 12  1  0
 15  8  1  0
 16 14  1  0
 17 16  2  0
 19 18  1  6
 19 20  1  0
 20 16  1  0
 21 19  1  0
 21 22  1  0
 23 21  2  0
M  END
$$$$
