DDA.pdb
     RDKit          3D

 22 21  0  0  1  0  0  0  0  0999 V2000
   20.7905  -11.5034  -16.1201 N   0  0  0  0  0  0  0  0  0  0  0  0
   20.0702  -10.3837  -16.6987 C   0  0  1  0  0  0  0  0  0  0  0  0
   18.6635  -10.7631  -17.1074 C   0  0  0  0  0  0  0  0  0  0  0  0
   18.6084  -11.2799  -18.4873 C   0  0  0  0  0  0  0  0  0  0  0  0
   19.6564  -11.3439  -19.1784 O   0  0  0  0  0  0  0  0  0  0  0  0
   20.0927   -9.2549  -15.7503 C   0  0  0  0  0  0  0  0  0  0  0  0
   19.8957   -9.4640  -14.5191 O   0  0  0  0  0  0  0  0  0  0  0  0
   17.4373  -11.7109  -19.0831 O   0  0  0  0  0  0  0  0  0  0  0  0
   20.3255   -7.9125  -16.1278 N   0  0  0  0  0  0  0  0  0  0  0  0
   20.4012   -6.8276  -15.1452 C   0  0  1  0  0  0  0  0  0  0  0  0
   21.7082   -7.0051  -14.4003 C   0  0  0  0  0  0  0  0  0  0  0  0
   21.9147   -6.0119  -13.3327 C   0  0  0  0  0  0  0  0  0  0  0  0
   21.2640   -6.0892  -12.2653 O   0  0  0  0  0  0  0  0  0  0  0  0
   20.2699   -5.5142  -15.8139 C   0  0  0  0  0  0  0  0  0  0  0  0
   21.1316   -5.1350  -16.6808 O   0  0  0  0  0  0  0  0  0  0  0  0
   22.8398   -4.9991  -13.5389 O   0  0  0  0  0  0  0  0  0  0  0  0
   17.8481   -2.6643  -15.7997 C   0  0  0  0  0  0  0  0  0  0  0  0
   19.1229   -3.3373  -16.3062 C   0  0  2  0  0  0  0  0  0  0  0  0
   19.2240   -4.5843  -15.5794 N   0  0  0  0  0  0  0  0  0  0  0  0
   20.2323   -2.4013  -16.0211 C   0  0  0  0  0  0  0  0  0  0  0  0
   20.5451   -1.3639  -16.8880 O   0  0  0  0  0  0  0  0  0  0  0  0
   20.9391   -2.4981  -14.9900 O   0  0  0  0  0  0  0  0  0  0  0  0
  2  1  1  1
  2  3  1  0
  3  4  1  0
  4  8  1  0
  5  4  2  0
  6  2  1  0
  7  6  2  0
  9  6  1  0
 10  9  1  0
 10 14  1  0
 10 11  1  6
 12 13  2  0
 12 11  1  0
 14 19  1  0
 15 14  2  0
 16 12  1  0
 18 17  1  1
 18 20  1  0
 19 18  1  0
 20 22  2  0
 20 21  1  0
M  END
$$$$
