DDA.pdb
     RDKit          3D

 22 21  0  0  1  0  0  0  0  0999 V2000
   26.8665  -17.6994  -16.7831 N   0  0  0  0  0  0  0  0  0  0  0  0
   25.8412  -18.7107  -16.6001 C   0  0  1  0  0  0  0  0  0  0  0  0
   25.5690  -19.4809  -17.8737 C   0  0  0  0  0  0  0  0  0  0  0  0
   25.3525  -18.5864  -19.0259 C   0  0  0  0  0  0  0  0  0  0  0  0
   25.8097  -18.8928  -20.1560 O   0  0  0  0  0  0  0  0  0  0  0  0
   26.2290  -19.5930  -15.4840 C   0  0  0  0  0  0  0  0  0  0  0  0
   25.5677  -20.6461  -15.2561 O   0  0  0  0  0  0  0  0  0  0  0  0
   24.6556  -17.3956  -18.9335 O   0  0  0  0  0  0  0  0  0  0  0  0
   27.3207  -19.3404  -14.6220 N   0  0  0  0  0  0  0  0  0  0  0  0
   27.6242  -20.2006  -13.4748 C   0  0  1  0  0  0  0  0  0  0  0  0
   29.1051  -20.0471  -13.1950 C   0  0  0  0  0  0  0  0  0  0  0  0
   29.5662  -20.8240  -12.0320 C   0  0  0  0  0  0  0  0  0  0  0  0
   28.7538  -21.5093  -11.3695 O   0  0  0  0  0  0  0  0  0  0  0  0
   26.7612  -19.8521  -12.3246 C   0  0  0  0  0  0  0  0  0  0  0  0
   26.7786  -18.6716  -11.8306 O   0  0  0  0  0  0  0  0  0  0  0  0
   30.9105  -20.7766  -11.6936 O   0  0  0  0  0  0  0  0  0  0  0  0
   23.7438  -21.0845  -10.6743 C   0  0  0  0  0  0  0  0  0  0  0  0
   25.0781  -20.3538  -10.5322 C   0  0  2  0  0  0  0  0  0  0  0  0
   25.8643  -20.7447  -11.6822 N   0  0  0  0  0  0  0  0  0  0  0  0
   25.6619  -20.7941   -9.2463 C   0  0  0  0  0  0  0  0  0  0  0  0
   26.7323  -21.6761   -9.2014 O   0  0  0  0  0  0  0  0  0  0  0  0
   25.2222  -20.3950   -8.1420 O   0  0  0  0  0  0  0  0  0  0  0  0
  2  1  1  6
  2  3  1  0
  3  4  1  0
  4  8  1  0
  5  4  2  0
  6  2  1  0
  7  6  2  0
  9  6  1  0
 10  9  1  0
 10 14  1  0
 10 11  1  1
 12 13  2  0
 12 11  1  0
 14 19  1  0
 15 14  2  0
 16 12  1  0
 18 17  1  6
 18 20  1  0
 19 18  1  0
 20 22  2  0
 20 21  1  0
M  END
$$$$
