DDA.pdb
     RDKit          3D

 22 21  0  0  1  0  0  0  0  0999 V2000
   18.0786  -10.6532  -15.1445 N   0  0  0  0  0  0  0  0  0  0  0  0
   18.4831   -9.6111  -16.0707 C   0  0  1  0  0  0  0  0  0  0  0  0
   17.4696   -9.4080  -17.1757 C   0  0  0  0  0  0  0  0  0  0  0  0
   17.2889  -10.6232  -17.9913 C   0  0  0  0  0  0  0  0  0  0  0  0
   16.1387  -10.9663  -18.3644 O   0  0  0  0  0  0  0  0  0  0  0  0
   18.7451   -8.3715  -15.3162 C   0  0  0  0  0  0  0  0  0  0  0  0
   18.0067   -8.0634  -14.3372 O   0  0  0  0  0  0  0  0  0  0  0  0
   18.3414  -11.4311  -18.3810 O   0  0  0  0  0  0  0  0  0  0  0  0
   19.7944   -7.4729  -15.6161 N   0  0  0  0  0  0  0  0  0  0  0  0
   19.9865   -6.2227  -14.8755 C   0  0  1  0  0  0  0  0  0  0  0  0
   21.3842   -6.2717  -14.2934 C   0  0  0  0  0  0  0  0  0  0  0  0
   21.7348   -5.0766  -13.5075 C   0  0  0  0  0  0  0  0  0  0  0  0
   20.8372   -4.3994  -12.9557 O   0  0  0  0  0  0  0  0  0  0  0  0
   19.7484   -5.0580  -15.7565 C   0  0  0  0  0  0  0  0  0  0  0  0
   20.4996   -4.8430  -16.7701 O   0  0  0  0  0  0  0  0  0  0  0  0
   23.0719   -4.7250  -13.3960 O   0  0  0  0  0  0  0  0  0  0  0  0
   17.1474   -2.4230  -16.1743 C   0  0  0  0  0  0  0  0  0  0  0  0
   18.5382   -2.9801  -16.4739 C   0  0  2  0  0  0  0  0  0  0  0  0
   18.7107   -4.1060  -15.5817 N   0  0  0  0  0  0  0  0  0  0  0  0
   19.4938   -1.8797  -16.2202 C   0  0  0  0  0  0  0  0  0  0  0  0
   20.3709   -1.9159  -15.1455 O   0  0  0  0  0  0  0  0  0  0  0  0
   19.5581   -0.8681  -16.9581 O   0  0  0  0  0  0  0  0  0  0  0  0
  2  1  1  1
  2  3  1  0
  3  4  1  0
  4  8  1  0
  5  4  2  0
  6  2  1  0
  7  6  2  0
  9  6  1  0
 10  9  1  0
 10 14  1  0
 10 11  1  6
 12 13  2  0
 12 11  1  0
 14 19  1  0
 15 14  2  0
 16 12  1  0
 18 17  1  1
 18 20  1  0
 19 18  1  0
 20 22  2  0
 20 21  1  0
M  END
$$$$
