DDA.pdb
     RDKit          3D

 22 21  0  0  1  0  0  0  0  0999 V2000
   16.0716  -11.4099  -16.4226 N   0  0  0  0  0  0  0  0  0  0  0  0
   16.8429  -10.6197  -17.3650 C   0  0  1  0  0  0  0  0  0  0  0  0
   16.5175  -10.9702  -18.8006 C   0  0  0  0  0  0  0  0  0  0  0  0
   16.9037  -12.3538  -19.1337 C   0  0  0  0  0  0  0  0  0  0  0  0
   16.0192  -13.2158  -19.3678 O   0  0  0  0  0  0  0  0  0  0  0  0
   16.6348   -9.1886  -17.0770 C   0  0  0  0  0  0  0  0  0  0  0  0
   15.4603   -8.7333  -16.9683 O   0  0  0  0  0  0  0  0  0  0  0  0
   18.2202  -12.7709  -19.2058 O   0  0  0  0  0  0  0  0  0  0  0  0
   17.6852   -8.2575  -16.9081 N   0  0  0  0  0  0  0  0  0  0  0  0
   17.4344   -6.8397  -16.6340 C   0  0  1  0  0  0  0  0  0  0  0  0
   17.8504   -6.5934  -15.1984 C   0  0  0  0  0  0  0  0  0  0  0  0
   17.7501   -5.1813  -14.7923 C   0  0  0  0  0  0  0  0  0  0  0  0
   18.7732   -4.5547  -14.4327 O   0  0  0  0  0  0  0  0  0  0  0  0
   18.1455   -5.9899  -17.6146 C   0  0  0  0  0  0  0  0  0  0  0  0
   19.3904   -6.1693  -17.8511 O   0  0  0  0  0  0  0  0  0  0  0  0
   16.5051   -4.5705  -14.8188 O   0  0  0  0  0  0  0  0  0  0  0  0
   17.2581   -3.3642  -20.1108 C   0  0  0  0  0  0  0  0  0  0  0  0
   18.2988   -4.1552  -19.3197 C   0  0  2  0  0  0  0  0  0  0  0  0
   17.5506   -4.9409  -18.3626 N   0  0  0  0  0  0  0  0  0  0  0  0
   19.1919   -3.1586  -18.6892 C   0  0  0  0  0  0  0  0  0  0  0  0
   19.2507   -3.0088  -17.3109 O   0  0  0  0  0  0  0  0  0  0  0  0
   19.9342   -2.4063  -19.3637 O   0  0  0  0  0  0  0  0  0  0  0  0
  2  1  1  1
  2  3  1  0
  3  4  1  0
  4  8  1  0
  5  4  2  0
  6  2  1  0
  7  6  2  0
  9  6  1  0
 10  9  1  0
 10 14  1  0
 10 11  1  1
 12 13  2  0
 12 11  1  0
 14 19  1  0
 15 14  2  0
 16 12  1  0
 18 17  1  6
 18 20  1  0
 19 18  1  0
 20 22  2  0
 20 21  1  0
M  END
$$$$
