DDA.pdb
     RDKit          3D

 22 21  0  0  1  0  0  0  0  0999 V2000
   21.6074   -9.3757  -18.6449 N   0  0  0  0  0  0  0  0  0  0  0  0
   20.3397   -9.3981  -17.9380 C   0  0  1  0  0  0  0  0  0  0  0  0
   20.1215  -10.7030  -17.2037 C   0  0  0  0  0  0  0  0  0  0  0  0
   20.1883  -11.8653  -18.1088 C   0  0  0  0  0  0  0  0  0  0  0  0
   21.0741  -12.7419  -17.9442 O   0  0  0  0  0  0  0  0  0  0  0  0
   20.2690   -8.2312  -17.0393 C   0  0  0  0  0  0  0  0  0  0  0  0
   19.2078   -7.9992  -16.3923 O   0  0  0  0  0  0  0  0  0  0  0  0
   19.3080  -12.0529  -19.1586 O   0  0  0  0  0  0  0  0  0  0  0  0
   21.3342   -7.3230  -16.8410 N   0  0  0  0  0  0  0  0  0  0  0  0
   21.2108   -6.1552  -15.9640 C   0  0  1  0  0  0  0  0  0  0  0  0
   22.1929   -6.3576  -14.8285 C   0  0  0  0  0  0  0  0  0  0  0  0
   22.2403   -5.2277  -13.8851 C   0  0  0  0  0  0  0  0  0  0  0  0
   22.5870   -4.0909  -14.2802 O   0  0  0  0  0  0  0  0  0  0  0  0
   21.4332   -4.9083  -16.7289 C   0  0  0  0  0  0  0  0  0  0  0  0
   22.5220   -4.7259  -17.3763 O   0  0  0  0  0  0  0  0  0  0  0  0
   21.8940   -5.4541  -12.5612 O   0  0  0  0  0  0  0  0  0  0  0  0
   19.5256   -1.7951  -17.5268 C   0  0  0  0  0  0  0  0  0  0  0  0
   20.8232   -2.6016  -17.5063 C   0  0  2  0  0  0  0  0  0  0  0  0
   20.5065   -3.8377  -16.8243 N   0  0  0  0  0  0  0  0  0  0  0  0
   21.8187   -1.7752  -16.7892 C   0  0  0  0  0  0  0  0  0  0  0  0
   22.8195   -1.0952  -17.4687 O   0  0  0  0  0  0  0  0  0  0  0  0
   21.8073   -1.6489  -15.5418 O   0  0  0  0  0  0  0  0  0  0  0  0
  2  1  1  1
  2  3  1  0
  3  4  1  0
  4  8  1  0
  5  4  2  0
  6  2  1  0
  7  6  2  0
  9  6  1  0
 10  9  1  0
 10 14  1  0
 10 11  1  1
 12 13  2  0
 12 11  1  0
 14 19  1  0
 15 14  2  0
 16 12  1  0
 18 17  1  1
 18 20  1  0
 19 18  1  0
 20 22  2  0
 20 21  1  0
M  END
$$$$
