DDA.pdb
     RDKit          3D

 22 21  0  0  1  0  0  0  0  0999 V2000
   12.4246   -9.6230  -10.0072 N   0  0  0  0  0  0  0  0  0  0  0  0
   13.7803  -10.1111  -10.1842 C   0  0  1  0  0  0  0  0  0  0  0  0
   13.8235  -11.3862  -10.9977 C   0  0  0  0  0  0  0  0  0  0  0  0
   13.1775  -12.5117  -10.2974 C   0  0  0  0  0  0  0  0  0  0  0  0
   12.5888  -12.3187   -9.2036 O   0  0  0  0  0  0  0  0  0  0  0  0
   14.6038   -9.0408  -10.7763 C   0  0  0  0  0  0  0  0  0  0  0  0
   14.1237   -8.3105  -11.6899 O   0  0  0  0  0  0  0  0  0  0  0  0
   13.1816  -13.8048  -10.7874 O   0  0  0  0  0  0  0  0  0  0  0  0
   15.9336   -8.7618  -10.3858 N   0  0  0  0  0  0  0  0  0  0  0  0
   16.6967   -7.6477  -10.9556 C   0  0  1  0  0  0  0  0  0  0  0  0
   17.3244   -6.9092   -9.7914 C   0  0  0  0  0  0  0  0  0  0  0  0
   16.4126   -5.9508   -9.1441 C   0  0  0  0  0  0  0  0  0  0  0  0
   15.3084   -5.6784   -9.6686 O   0  0  0  0  0  0  0  0  0  0  0  0
   17.6783   -8.1455  -11.9445 C   0  0  0  0  0  0  0  0  0  0  0  0
   18.6292   -8.9228  -11.5847 O   0  0  0  0  0  0  0  0  0  0  0  0
   16.8058   -5.3640   -7.9503 O   0  0  0  0  0  0  0  0  0  0  0  0
   18.2192   -7.8945  -15.6348 C   0  0  0  0  0  0  0  0  0  0  0  0
   18.6609   -8.3488  -14.2445 C   0  0  2  0  0  0  0  0  0  0  0  0
   17.6670   -7.8325  -13.3286 N   0  0  0  0  0  0  0  0  0  0  0  0
   20.0093   -7.7808  -14.0270 C   0  0  0  0  0  0  0  0  0  0  0  0
   21.1543   -8.4714  -14.3983 O   0  0  0  0  0  0  0  0  0  0  0  0
   20.1830   -6.6561  -13.5008 O   0  0  0  0  0  0  0  0  0  0  0  0
  2  1  1  6
  2  3  1  0
  3  4  1  0
  4  8  1  0
  5  4  2  0
  6  2  1  0
  7  6  2  0
  9  6  1  0
 10  9  1  0
 10 14  1  0
 10 11  1  1
 12 13  2  0
 12 11  1  0
 14 19  1  0
 15 14  2  0
 16 12  1  0
 18 17  1  6
 18 20  1  0
 19 18  1  0
 20 22  2  0
 20 21  1  0
M  END
$$$$
