DDA.pdb
     RDKit          3D

 22 21  0  0  1  0  0  0  0  0999 V2000
   16.1951  -10.9772  -16.7362 N   0  0  0  0  0  0  0  0  0  0  0  0
   16.1048  -10.0055  -15.6615 C   0  0  1  0  0  0  0  0  0  0  0  0
   16.1638  -10.6590  -14.2980 C   0  0  0  0  0  0  0  0  0  0  0  0
   15.0176  -11.5570  -14.0646 C   0  0  0  0  0  0  0  0  0  0  0  0
   13.8439  -11.1137  -14.1422 O   0  0  0  0  0  0  0  0  0  0  0  0
   17.1580   -8.9893  -15.8415 C   0  0  0  0  0  0  0  0  0  0  0  0
   18.2370   -9.2983  -16.4236 O   0  0  0  0  0  0  0  0  0  0  0  0
   15.1624  -12.8972  -13.7562 O   0  0  0  0  0  0  0  0  0  0  0  0
   17.0472   -7.6518  -15.3971 N   0  0  0  0  0  0  0  0  0  0  0  0
   18.0485   -6.6340  -15.7287 C   0  0  1  0  0  0  0  0  0  0  0  0
   17.2977   -5.3337  -15.9293 C   0  0  0  0  0  0  0  0  0  0  0  0
   18.1732   -4.1946  -16.2532 C   0  0  0  0  0  0  0  0  0  0  0  0
   18.1500   -3.1609  -15.5464 O   0  0  0  0  0  0  0  0  0  0  0  0
   19.0859   -6.5669  -14.6758 C   0  0  0  0  0  0  0  0  0  0  0  0
   18.7632   -6.3584  -13.4551 O   0  0  0  0  0  0  0  0  0  0  0  0
   19.0153   -4.2965  -17.3507 O   0  0  0  0  0  0  0  0  0  0  0  0
   22.7192   -7.2994  -14.3710 C   0  0  0  0  0  0  0  0  0  0  0  0
   21.4422   -6.6679  -13.8188 C   0  0  2  0  0  0  0  0  0  0  0  0
   20.4789   -6.7233  -14.8969 N   0  0  0  0  0  0  0  0  0  0  0  0
   21.7961   -5.2881  -13.4196 C   0  0  0  0  0  0  0  0  0  0  0  0
   22.5250   -5.0324  -12.2668 O   0  0  0  0  0  0  0  0  0  0  0  0
   21.4579   -4.2894  -14.0980 O   0  0  0  0  0  0  0  0  0  0  0  0
  2  1  1  6
  2  3  1  0
  3  4  1  0
  4  8  1  0
  5  4  2  0
  6  2  1  0
  7  6  2  0
  9  6  1  0
 10  9  1  0
 10 14  1  0
 10 11  1  1
 12 13  2  0
 12 11  1  0
 14 19  1  0
 15 14  2  0
 16 12  1  0
 18 17  1  6
 18 20  1  0
 19 18  1  0
 20 22  2  0
 20 21  1  0
M  END
$$$$
