DDA.pdb
     RDKit          3D

 22 21  0  0  1  0  0  0  0  0999 V2000
   15.8422  -13.1245  -12.8864 N   0  0  0  0  0  0  0  0  0  0  0  0
   15.0023  -11.9651  -12.6461 C   0  0  1  0  0  0  0  0  0  0  0  0
   13.7471  -12.3216  -11.8800 C   0  0  0  0  0  0  0  0  0  0  0  0
   12.9519  -13.3541  -12.5701 C   0  0  0  0  0  0  0  0  0  0  0  0
   12.6687  -13.2219  -13.7876 O   0  0  0  0  0  0  0  0  0  0  0  0
   15.7981  -10.9270  -11.9653 C   0  0  0  0  0  0  0  0  0  0  0  0
   16.6116  -11.2546  -11.0546 O   0  0  0  0  0  0  0  0  0  0  0  0
   12.4859  -14.4923  -11.9380 O   0  0  0  0  0  0  0  0  0  0  0  0
   15.7161   -9.5477  -12.2650 N   0  0  0  0  0  0  0  0  0  0  0  0
   16.5055   -8.5446  -11.5447 C   0  0  1  0  0  0  0  0  0  0  0  0
   17.3069   -7.7911  -12.5863 C   0  0  0  0  0  0  0  0  0  0  0  0
   18.0846   -6.6706  -12.0307 C   0  0  0  0  0  0  0  0  0  0  0  0
   17.6466   -5.4998  -12.1079 O   0  0  0  0  0  0  0  0  0  0  0  0
   15.6234   -7.6795  -10.7307 C   0  0  0  0  0  0  0  0  0  0  0  0
   14.6686   -7.0249  -11.2762 O   0  0  0  0  0  0  0  0  0  0  0  0
   19.3026   -6.9442  -11.4260 O   0  0  0  0  0  0  0  0  0  0  0  0
   15.1125   -6.8814   -7.1229 C   0  0  0  0  0  0  0  0  0  0  0  0
   14.8990   -6.5649   -8.6023 C   0  0  2  0  0  0  0  0  0  0  0  0
   15.7349   -7.4966   -9.3278 N   0  0  0  0  0  0  0  0  0  0  0  0
   15.2964   -5.1524   -8.7901 C   0  0  0  0  0  0  0  0  0  0  0  0
   16.4683   -4.8117   -9.4504 O   0  0  0  0  0  0  0  0  0  0  0  0
   14.5991   -4.2007   -8.3656 O   0  0  0  0  0  0  0  0  0  0  0  0
  2  1  1  1
  2  3  1  0
  3  4  1  0
  4  8  1  0
  5  4  2  0
  6  2  1  0
  7  6  2  0
  9  6  1  0
 10  9  1  0
 10 14  1  0
 10 11  1  6
 12 13  2  0
 12 11  1  0
 14 19  1  0
 15 14  2  0
 16 12  1  0
 18 17  1  1
 18 20  1  0
 19 18  1  0
 20 22  2  0
 20 21  1  0
M  END
$$$$
