DDA.pdb
     RDKit          3D

 22 21  0  0  1  0  0  0  0  0999 V2000
   21.4240  -10.4339  -18.5526 N   0  0  0  0  0  0  0  0  0  0  0  0
   21.8639   -9.0822  -18.8468 C   0  0  1  0  0  0  0  0  0  0  0  0
   21.4715   -8.6478  -20.2421 C   0  0  0  0  0  0  0  0  0  0  0  0
   22.1170   -9.4721  -21.2805 C   0  0  0  0  0  0  0  0  0  0  0  0
   23.3278   -9.7911  -21.1692 O   0  0  0  0  0  0  0  0  0  0  0  0
   21.3455   -8.1708  -17.8099 C   0  0  0  0  0  0  0  0  0  0  0  0
   20.1462   -8.2750  -17.4237 O   0  0  0  0  0  0  0  0  0  0  0  0
   21.4492   -9.9281  -22.4022 O   0  0  0  0  0  0  0  0  0  0  0  0
   22.1150   -7.1561  -17.1958 N   0  0  0  0  0  0  0  0  0  0  0  0
   21.5630   -6.2764  -16.1616 C   0  0  1  0  0  0  0  0  0  0  0  0
   22.4622   -6.4109  -14.9500 C   0  0  0  0  0  0  0  0  0  0  0  0
   22.0070   -5.6244  -13.7911 C   0  0  0  0  0  0  0  0  0  0  0  0
   22.6345   -4.5991  -13.4394 O   0  0  0  0  0  0  0  0  0  0  0  0
   21.4490   -4.8909  -16.6683 C   0  0  0  0  0  0  0  0  0  0  0  0
   22.4793   -4.2694  -17.1044 O   0  0  0  0  0  0  0  0  0  0  0  0
   20.8763   -6.0454  -13.1068 O   0  0  0  0  0  0  0  0  0  0  0  0
   18.7370   -2.4587  -17.4451 C   0  0  0  0  0  0  0  0  0  0  0  0
   20.2090   -2.7698  -17.1785 C   0  0  2  0  0  0  0  0  0  0  0  0
   20.2441   -4.1434  -16.7253 N   0  0  0  0  0  0  0  0  0  0  0  0
   20.6625   -1.8032  -16.1546 C   0  0  0  0  0  0  0  0  0  0  0  0
   20.9901   -2.2107  -14.8692 O   0  0  0  0  0  0  0  0  0  0  0  0
   20.7729   -0.5778  -16.3958 O   0  0  0  0  0  0  0  0  0  0  0  0
  2  1  1  1
  2  3  1  0
  3  4  1  0
  4  8  1  0
  5  4  2  0
  6  2  1  0
  7  6  2  0
  9  6  1  0
 10  9  1  0
 10 14  1  0
 10 11  1  1
 12 13  2  0
 12 11  1  0
 14 19  1  0
 15 14  2  0
 16 12  1  0
 18 17  1  1
 18 20  1  0
 19 18  1  0
 20 22  2  0
 20 21  1  0
M  END
$$$$
