SLR.pdb
     RDKit          3D

 26 25  0  0  1  0  0  0  0  0999 V2000
    5.7570  -16.6323   20.8744 O   0  0  0  0  0  0  0  0  0  0  0  0
    7.0889  -16.2053   20.8700 C   0  0  0  0  0  0  0  0  0  0  0  0
    7.0609  -14.7147   21.1522 C   0  0  2  0  0  0  0  0  0  0  0  0
    7.6524  -14.0081   20.0334 N   0  0  0  0  0  0  0  0  0  0  0  0
    7.8077  -14.4852   22.4102 C   0  0  0  0  0  0  0  0  0  0  0  0
    9.0630  -14.4112   22.3619 O   0  0  0  0  0  0  0  0  0  0  0  0
    7.8006  -11.3347   25.8937 C   0  0  0  0  0  0  0  0  0  0  0  0
    6.5562  -12.2287   25.7210 C   0  0  2  0  0  0  0  0  0  0  0  0
    5.4955  -11.8320   26.7102 C   0  0  0  0  0  0  0  0  0  0  0  0
    6.9681  -13.6600   25.9135 C   0  0  0  0  0  0  0  0  0  0  0  0
    7.9763  -14.1777   24.9224 C   0  0  2  0  0  0  0  0  0  0  0  0
    7.1980  -14.3426   23.6709 N   0  0  0  0  0  0  0  0  0  0  0  0
    8.5262  -15.5044   25.2403 C   0  0  0  0  0  0  0  0  0  0  0  0
    7.7389  -16.4956   25.1798 O   0  0  0  0  0  0  0  0  0  0  0  0
   14.1983  -22.6255   23.5230 N   0  0  0  0  0  0  0  0  0  0  0  0
   13.8206  -21.2917   23.2386 C   0  0  0  0  0  0  0  0  0  0  0  0
   13.4783  -20.9524   22.0230 N   0  0  0  0  0  0  0  0  0  0  0  0
   13.8172  -20.3223   24.2915 N   0  0  0  0  0  0  0  0  0  0  0  0
   13.2643  -19.0022   24.0549 C   0  0  0  0  0  0  0  0  0  0  0  0
   12.1244  -18.8020   25.0680 C   0  0  0  0  0  0  0  0  0  0  0  0
   11.5140  -17.4411   24.9087 C   0  0  0  0  0  0  0  0  0  0  0  0
   10.3561  -17.1628   25.8092 C   0  0  2  0  0  0  0  0  0  0  0  0
    9.8517  -15.7961   25.6064 N   0  0  0  0  0  0  0  0  0  0  0  0
   10.5837  -17.4361   27.2303 C   0  0  0  0  0  0  0  0  0  0  0  0
   10.3774  -16.4536   28.2228 O   0  0  0  0  0  0  0  0  0  0  0  0
   10.9726  -18.5408   27.6789 O   0  0  0  0  0  0  0  0  0  0  0  0
  1  2  1  0
  3  2  1  0
  3  5  1  0
  3  4  1  6
  5  6  2  0
  8  7  1  1
  8  9  1  0
 10  8  1  0
 11 10  1  1
 12 11  1  0
 12  5  1  0
 13 11  1  0
 13 14  2  0
 15 16  1  0
 16 17  2  0
 18 16  1  0
 18 19  1  0
 20 19  1  0
 20 21  1  0
 22 21  1  6
 22 23  1  0
 22 24  1  0
 23 13  1  0
 24 26  2  0
 24 25  1  0
M  END
$$$$
