SLR.pdb
     RDKit          3D

 26 25  0  0  1  0  0  0  0  0999 V2000
    6.5374  -20.1337   25.4983 O   0  0  0  0  0  0  0  0  0  0  0  0
    6.3974  -19.4954   24.2617 C   0  0  0  0  0  0  0  0  0  0  0  0
    5.4736  -18.3141   24.4925 C   0  0  2  0  0  0  0  0  0  0  0  0
    4.3742  -18.3793   23.5501 N   0  0  0  0  0  0  0  0  0  0  0  0
    6.2762  -17.0810   24.3235 C   0  0  0  0  0  0  0  0  0  0  0  0
    6.4294  -16.6147   23.1647 O   0  0  0  0  0  0  0  0  0  0  0  0
    6.6872  -12.5185   25.8348 C   0  0  0  0  0  0  0  0  0  0  0  0
    6.7151  -13.6724   26.8572 C   0  0  2  0  0  0  0  0  0  0  0  0
    6.8415  -13.1227   28.2511 C   0  0  0  0  0  0  0  0  0  0  0  0
    7.8681  -14.5753   26.5245 C   0  0  0  0  0  0  0  0  0  0  0  0
    7.7970  -15.2380   25.1746 C   0  0  2  0  0  0  0  0  0  0  0  0
    6.8859  -16.3886   25.3866 N   0  0  0  0  0  0  0  0  0  0  0  0
    9.0685  -15.8048   24.6997 C   0  0  0  0  0  0  0  0  0  0  0  0
    9.5382  -16.8000   25.3282 O   0  0  0  0  0  0  0  0  0  0  0  0
    8.8404  -12.7416   17.8856 N   0  0  0  0  0  0  0  0  0  0  0  0
    8.0729  -13.7654   18.4901 C   0  0  0  0  0  0  0  0  0  0  0  0
    6.7674  -13.7322   18.4231 N   0  0  0  0  0  0  0  0  0  0  0  0
    8.7384  -14.8329   19.1727 N   0  0  0  0  0  0  0  0  0  0  0  0
    9.6803  -14.5339   20.2346 C   0  0  0  0  0  0  0  0  0  0  0  0
   10.2207  -15.8784   20.7505 C   0  0  0  0  0  0  0  0  0  0  0  0
   11.3458  -15.6555   21.7172 C   0  0  0  0  0  0  0  0  0  0  0  0
   11.0445  -16.0342   23.1296 C   0  0  2  0  0  0  0  0  0  0  0  0
    9.8288  -15.3568   23.6055 N   0  0  0  0  0  0  0  0  0  0  0  0
   12.1491  -15.8633   24.0765 C   0  0  0  0  0  0  0  0  0  0  0  0
   13.4082  -16.4688   23.8735 O   0  0  0  0  0  0  0  0  0  0  0  0
   12.0747  -15.1802   25.1257 O   0  0  0  0  0  0  0  0  0  0  0  0
  1  2  1  0
  3  2  1  0
  3  5  1  0
  3  4  1  6
  5  6  2  0
  8  7  1  6
  8  9  1  0
 10  8  1  0
 11 10  1  1
 12 11  1  0
 12  5  1  0
 13 11  1  0
 13 14  2  0
 15 16  1  0
 16 17  2  0
 18 16  1  0
 18 19  1  0
 20 19  1  0
 20 21  1  0
 22 21  1  6
 22 23  1  0
 22 24  1  0
 23 13  1  0
 24 26  2  0
 24 25  1  0
M  END
$$$$
