SLR.pdb
     RDKit          3D

 26 25  0  0  1  0  0  0  0  0999 V2000
    5.9337  -20.1063   26.0014 O   0  0  0  0  0  0  0  0  0  0  0  0
    6.7776  -19.6111   25.0020 C   0  0  0  0  0  0  0  0  0  0  0  0
    5.9398  -18.6605   24.1673 C   0  0  2  0  0  0  0  0  0  0  0  0
    5.6584  -19.2756   22.8854 N   0  0  0  0  0  0  0  0  0  0  0  0
    6.7061  -17.4016   24.0218 C   0  0  0  0  0  0  0  0  0  0  0  0
    7.5311  -17.3031   23.0766 O   0  0  0  0  0  0  0  0  0  0  0  0
    6.3843  -11.7841   26.5364 C   0  0  0  0  0  0  0  0  0  0  0  0
    7.2415  -12.6748   25.6147 C   0  0  2  0  0  0  0  0  0  0  0  0
    7.3344  -12.0603   24.2455 C   0  0  0  0  0  0  0  0  0  0  0  0
    6.6160  -14.0387   25.5548 C   0  0  0  0  0  0  0  0  0  0  0  0
    7.3461  -15.0441   24.7046 C   0  0  2  0  0  0  0  0  0  0  0  0
    6.5703  -16.2954   24.8816 N   0  0  0  0  0  0  0  0  0  0  0  0
    8.7159  -15.3455   25.1479 C   0  0  0  0  0  0  0  0  0  0  0  0
    8.8713  -15.7499   26.3389 O   0  0  0  0  0  0  0  0  0  0  0  0
    9.3592  -20.1229   28.8864 N   0  0  0  0  0  0  0  0  0  0  0  0
    8.5751  -19.6695   27.7992 C   0  0  0  0  0  0  0  0  0  0  0  0
    7.2717  -19.6365   27.8999 N   0  0  0  0  0  0  0  0  0  0  0  0
    9.2213  -19.2492   26.5933 N   0  0  0  0  0  0  0  0  0  0  0  0
   10.6647  -19.3391   26.4794 C   0  0  0  0  0  0  0  0  0  0  0  0
   11.1924  -17.9073   26.2869 C   0  0  0  0  0  0  0  0  0  0  0  0
   10.8643  -17.4077   24.9112 C   0  0  0  0  0  0  0  0  0  0  0  0
   11.1325  -15.9557   24.6896 C   0  0  2  0  0  0  0  0  0  0  0  0
    9.8884  -15.2346   24.3805 N   0  0  0  0  0  0  0  0  0  0  0  0
   12.1770  -15.6509   23.7089 C   0  0  0  0  0  0  0  0  0  0  0  0
   13.5348  -15.9587   23.9429 O   0  0  0  0  0  0  0  0  0  0  0  0
   11.9616  -15.1027   22.6016 O   0  0  0  0  0  0  0  0  0  0  0  0
  1  2  1  0
  3  2  1  0
  3  5  1  0
  3  4  1  6
  5  6  2  0
  8  7  1  1
  8  9  1  0
 10  8  1  0
 11 10  1  1
 12 11  1  0
 12  5  1  0
 13 11  1  0
 13 14  2  0
 15 16  1  0
 16 17  2  0
 18 16  1  0
 18 19  1  0
 20 19  1  0
 20 21  1  0
 22 21  1  6
 22 23  1  0
 22 24  1  0
 23 13  1  0
 24 26  2  0
 24 25  1  0
M  END
$$$$
