SLR.pdb
     RDKit          3D

 26 25  0  0  1  0  0  0  0  0999 V2000
    7.5808  -14.3440   19.1615 O   0  0  0  0  0  0  0  0  0  0  0  0
    8.0419  -14.0168   20.4408 C   0  0  0  0  0  0  0  0  0  0  0  0
    7.9763  -15.2934   21.2583 C   0  0  2  0  0  0  0  0  0  0  0  0
    6.6092  -15.7744   21.2796 N   0  0  0  0  0  0  0  0  0  0  0  0
    8.4745  -14.9786   22.6169 C   0  0  0  0  0  0  0  0  0  0  0  0
    9.6766  -14.6320   22.7536 O   0  0  0  0  0  0  0  0  0  0  0  0
    7.9012  -11.8932   25.9773 C   0  0  0  0  0  0  0  0  0  0  0  0
    6.6927  -12.7695   25.5908 C   0  0  2  0  0  0  0  0  0  0  0  0
    5.4748  -12.3345   26.3580 C   0  0  0  0  0  0  0  0  0  0  0  0
    7.0321  -14.2032   25.8812 C   0  0  0  0  0  0  0  0  0  0  0  0
    8.2176  -14.7481   25.1298 C   0  0  2  0  0  0  0  0  0  0  0  0
    7.6822  -15.0425   23.7786 N   0  0  0  0  0  0  0  0  0  0  0  0
    8.7427  -16.0205   25.6483 C   0  0  0  0  0  0  0  0  0  0  0  0
    7.9535  -17.0116   25.6795 O   0  0  0  0  0  0  0  0  0  0  0  0
   13.6381  -20.8426   22.4969 N   0  0  0  0  0  0  0  0  0  0  0  0
   13.1698  -19.6988   21.8077 C   0  0  0  0  0  0  0  0  0  0  0  0
   12.9750  -19.7462   20.5156 N   0  0  0  0  0  0  0  0  0  0  0  0
   12.9128  -18.4946   22.5374 N   0  0  0  0  0  0  0  0  0  0  0  0
   13.0401  -18.4858   23.9825 C   0  0  0  0  0  0  0  0  0  0  0  0
   11.6752  -18.0648   24.5532 C   0  0  0  0  0  0  0  0  0  0  0  0
   11.7201  -18.0348   26.0522 C   0  0  0  0  0  0  0  0  0  0  0  0
   10.4746  -17.5370   26.7080 C   0  0  2  0  0  0  0  0  0  0  0  0
   10.0461  -16.2601   26.1171 N   0  0  0  0  0  0  0  0  0  0  0  0
   10.5233  -17.4524   28.1697 C   0  0  0  0  0  0  0  0  0  0  0  0
   10.7355  -18.5905   28.9776 O   0  0  0  0  0  0  0  0  0  0  0  0
   10.3840  -16.3867   28.8160 O   0  0  0  0  0  0  0  0  0  0  0  0
  1  2  1  0
  3  2  1  0
  3  5  1  0
  3  4  1  1
  5  6  2  0
  8  7  1  1
  8  9  1  0
 10  8  1  0
 11 10  1  1
 12 11  1  0
 12  5  1  0
 13 11  1  0
 13 14  2  0
 15 16  1  0
 16 17  2  0
 18 16  1  0
 18 19  1  0
 20 19  1  0
 20 21  1  0
 22 21  1  6
 22 23  1  0
 22 24  1  0
 23 13  1  0
 24 26  2  0
 24 25  1  0
M  END
$$$$
