SLR.pdb
     RDKit          3D

 26 25  0  0  1  0  0  0  0  0999 V2000
    7.3921  -18.2968   20.2964 O   0  0  0  0  0  0  0  0  0  0  0  0
    7.4016  -17.5286   21.4651 C   0  0  0  0  0  0  0  0  0  0  0  0
    7.9830  -16.1795   21.0852 C   0  0  2  0  0  0  0  0  0  0  0  0
    9.0127  -16.3709   20.0832 N   0  0  0  0  0  0  0  0  0  0  0  0
    8.5188  -15.5615   22.3197 C   0  0  0  0  0  0  0  0  0  0  0  0
    9.7443  -15.6892   22.5756 O   0  0  0  0  0  0  0  0  0  0  0  0
    6.1912  -12.0830   26.8564 C   0  0  0  0  0  0  0  0  0  0  0  0
    7.4768  -12.7831   26.3719 C   0  0  2  0  0  0  0  0  0  0  0  0
    8.6033  -11.7907   26.2874 C   0  0  0  0  0  0  0  0  0  0  0  0
    7.2033  -13.4071   25.0336 C   0  0  0  0  0  0  0  0  0  0  0  0
    8.2715  -14.3407   24.5293 C   0  0  2  0  0  0  0  0  0  0  0  0
    7.7378  -14.8322   23.2360 N   0  0  0  0  0  0  0  0  0  0  0  0
    8.4894  -15.5334   25.3621 C   0  0  0  0  0  0  0  0  0  0  0  0
    7.4866  -16.2683   25.6079 O   0  0  0  0  0  0  0  0  0  0  0  0
   13.8559  -19.5766   22.1859 N   0  0  0  0  0  0  0  0  0  0  0  0
   12.7434  -18.8538   21.6934 C   0  0  0  0  0  0  0  0  0  0  0  0
   12.6513  -18.5815   20.4177 N   0  0  0  0  0  0  0  0  0  0  0  0
   11.7245  -18.4260   22.6030 N   0  0  0  0  0  0  0  0  0  0  0  0
   11.4926  -19.1684   23.8275 C   0  0  0  0  0  0  0  0  0  0  0  0
   10.3470  -18.4630   24.5729 C   0  0  0  0  0  0  0  0  0  0  0  0
   10.7482  -18.1611   25.9864 C   0  0  0  0  0  0  0  0  0  0  0  0
    9.8617  -17.1931   26.6979 C   0  0  2  0  0  0  0  0  0  0  0  0
    9.7090  -15.9540   25.9205 N   0  0  0  0  0  0  0  0  0  0  0  0
   10.2310  -16.9037   28.0856 C   0  0  0  0  0  0  0  0  0  0  0  0
   10.4378  -15.5847   28.5445 O   0  0  0  0  0  0  0  0  0  0  0  0
   10.3921  -17.7816   28.9666 O   0  0  0  0  0  0  0  0  0  0  0  0
  1  2  1  0
  3  2  1  0
  3  5  1  0
  3  4  1  6
  5  6  2  0
  8  7  1  6
  8  9  1  0
 10  8  1  0
 11 10  1  1
 12 11  1  0
 12  5  1  0
 13 11  1  0
 13 14  2  0
 15 16  1  0
 16 17  2  0
 18 16  1  0
 18 19  1  0
 20 19  1  0
 20 21  1  0
 22 21  1  6
 22 23  1  0
 22 24  1  0
 23 13  1  0
 24 26  2  0
 24 25  1  0
M  END
$$$$
