SLR.pdb
     RDKit          3D

 26 25  0  0  1  0  0  0  0  0999 V2000
    5.6937  -16.9260   20.5740 O   0  0  0  0  0  0  0  0  0  0  0  0
    6.8837  -16.1978   20.4751 C   0  0  0  0  0  0  0  0  0  0  0  0
    6.5718  -14.7992   20.9739 C   0  0  2  0  0  0  0  0  0  0  0  0
    6.7266  -13.8594   19.8813 N   0  0  0  0  0  0  0  0  0  0  0  0
    7.4986  -14.5075   22.0915 C   0  0  0  0  0  0  0  0  0  0  0  0
    8.6842  -14.1822   21.8230 O   0  0  0  0  0  0  0  0  0  0  0  0
    7.5468  -11.4832   25.6451 C   0  0  0  0  0  0  0  0  0  0  0  0
    6.4768  -12.5933   25.6627 C   0  0  2  0  0  0  0  0  0  0  0  0
    5.5653  -12.4116   26.8447 C   0  0  0  0  0  0  0  0  0  0  0  0
    7.1719  -13.9235   25.7144 C   0  0  0  0  0  0  0  0  0  0  0  0
    8.0725  -14.2241   24.5459 C   0  0  2  0  0  0  0  0  0  0  0  0
    7.1357  -14.5712   23.4501 N   0  0  0  0  0  0  0  0  0  0  0  0
    8.9438  -15.3953   24.7261 C   0  0  0  0  0  0  0  0  0  0  0  0
    8.3902  -16.5333   24.7943 O   0  0  0  0  0  0  0  0  0  0  0  0
   16.0076  -18.5812   25.8145 N   0  0  0  0  0  0  0  0  0  0  0  0
   16.3054  -18.9568   24.4830 C   0  0  0  0  0  0  0  0  0  0  0  0
   17.3448  -19.7091   24.2311 N   0  0  0  0  0  0  0  0  0  0  0  0
   15.4600  -18.5062   23.4197 N   0  0  0  0  0  0  0  0  0  0  0  0
   14.7287  -17.2610   23.5579 C   0  0  0  0  0  0  0  0  0  0  0  0
   13.3894  -17.5968   24.2356 C   0  0  0  0  0  0  0  0  0  0  0  0
   12.4856  -16.3997   24.2333 C   0  0  0  0  0  0  0  0  0  0  0  0
   11.1613  -16.6113   24.8894 C   0  0  2  0  0  0  0  0  0  0  0  0
   10.3457  -15.3888   24.8292 N   0  0  0  0  0  0  0  0  0  0  0  0
   11.2121  -17.1455   26.2525 C   0  0  0  0  0  0  0  0  0  0  0  0
   10.7941  -16.3882   27.3682 O   0  0  0  0  0  0  0  0  0  0  0  0
   11.6217  -18.2953   26.5408 O   0  0  0  0  0  0  0  0  0  0  0  0
  1  2  1  0
  3  2  1  0
  3  5  1  0
  3  4  1  6
  5  6  2  0
  8  7  1  1
  8  9  1  0
 10  8  1  0
 11 10  1  1
 12 11  1  0
 12  5  1  0
 13 11  1  0
 13 14  2  0
 15 16  1  0
 16 17  2  0
 18 16  1  0
 18 19  1  0
 20 19  1  0
 20 21  1  0
 22 21  1  1
 22 23  1  0
 22 24  1  0
 23 13  1  0
 24 26  2  0
 24 25  1  0
M  END
$$$$
