SLR.pdb
     RDKit          3D

 26 25  0  0  1  0  0  0  0  0999 V2000
    7.1252  -17.5195   19.7318 O   0  0  0  0  0  0  0  0  0  0  0  0
    6.9776  -16.8586   20.9555 C   0  0  0  0  0  0  0  0  0  0  0  0
    7.2645  -15.3930   20.6871 C   0  0  2  0  0  0  0  0  0  0  0  0
    8.1490  -15.2835   19.5440 N   0  0  0  0  0  0  0  0  0  0  0  0
    7.8706  -14.8256   21.9134 C   0  0  0  0  0  0  0  0  0  0  0  0
    9.1246  -14.8201   22.0198 O   0  0  0  0  0  0  0  0  0  0  0  0
    5.7098  -12.0384   26.9814 C   0  0  0  0  0  0  0  0  0  0  0  0
    6.9709  -12.6776   26.3661 C   0  0  2  0  0  0  0  0  0  0  0  0
    8.1073  -11.6931   26.3815 C   0  0  0  0  0  0  0  0  0  0  0  0
    6.6492  -13.1115   24.9649 C   0  0  0  0  0  0  0  0  0  0  0  0
    7.7537  -13.8418   24.2484 C   0  0  2  0  0  0  0  0  0  0  0  0
    7.1272  -14.2858   22.9798 N   0  0  0  0  0  0  0  0  0  0  0  0
    8.2227  -15.0622   24.9225 C   0  0  0  0  0  0  0  0  0  0  0  0
    7.3469  -15.8955   25.3030 O   0  0  0  0  0  0  0  0  0  0  0  0
   11.6268  -21.1824   25.0982 N   0  0  0  0  0  0  0  0  0  0  0  0
   10.5178  -21.9871   24.7449 C   0  0  0  0  0  0  0  0  0  0  0  0
   10.4692  -23.2383   25.1219 N   0  0  0  0  0  0  0  0  0  0  0  0
    9.4544  -21.4190   23.9736 N   0  0  0  0  0  0  0  0  0  0  0  0
    9.5549  -20.0498   23.5050 C   0  0  0  0  0  0  0  0  0  0  0  0
    9.4259  -19.1400   24.7384 C   0  0  0  0  0  0  0  0  0  0  0  0
    9.5747  -17.6999   24.3460 C   0  0  0  0  0  0  0  0  0  0  0  0
   10.0010  -16.7890   25.4494 C   0  0  2  0  0  0  0  0  0  0  0  0
    9.5577  -15.4106   25.1913 N   0  0  0  0  0  0  0  0  0  0  0  0
   11.4263  -16.8311   25.7853 C   0  0  0  0  0  0  0  0  0  0  0  0
   11.9486  -17.7585   26.7128 O   0  0  0  0  0  0  0  0  0  0  0  0
   12.2869  -16.0649   25.2901 O   0  0  0  0  0  0  0  0  0  0  0  0
  1  2  1  0
  3  2  1  0
  3  5  1  0
  3  4  1  6
  5  6  2  0
  8  7  1  6
  8  9  1  0
 10  8  1  0
 11 10  1  1
 12 11  1  0
 12  5  1  0
 13 11  1  0
 13 14  2  0
 15 16  1  0
 16 17  2  0
 18 16  1  0
 18 19  1  0
 20 19  1  0
 20 21  1  0
 22 21  1  6
 22 23  1  0
 22 24  1  0
 23 13  1  0
 24 26  2  0
 24 25  1  0
M  END
$$$$
