EQR.pdb
     RDKit          3D

 30 29  0  0  1  0  0  0  0  0999 V2000
   25.0613  -20.0896  -16.8006 N   0  0  0  0  0  0  0  0  0  0  0  0
   25.3616  -19.9634  -15.3992 C   0  0  1  0  0  0  0  0  0  0  0  0
   26.3082  -18.7761  -15.2617 C   0  0  0  0  0  0  0  0  0  0  0  0
   26.5348  -18.2089  -16.6533 C   0  0  0  0  0  0  0  0  0  0  0  0
   27.6395  -18.9413  -17.3217 C   0  0  0  0  0  0  0  0  0  0  0  0
   28.1470  -19.9458  -16.7604 O   0  0  0  0  0  0  0  0  0  0  0  0
   24.1218  -19.7586  -14.6188 C   0  0  0  0  0  0  0  0  0  0  0  0
   24.1106  -19.5763  -13.3761 O   0  0  0  0  0  0  0  0  0  0  0  0
   28.0919  -18.5050  -18.5521 O   0  0  0  0  0  0  0  0  0  0  0  0
   18.7986  -17.2462  -16.7404 N   0  0  0  0  0  0  0  0  0  0  0  0
   18.5133  -17.6637  -15.4233 C   0  0  0  0  0  0  0  0  0  0  0  0
   17.4324  -17.3495  -14.8806 O   0  0  0  0  0  0  0  0  0  0  0  0
   19.4866  -18.4724  -14.6788 C   0  0  0  0  0  0  0  0  0  0  0  0
   20.7408  -18.7507  -15.4813 C   0  0  0  0  0  0  0  0  0  0  0  0
   21.6385  -19.6157  -14.5842 C   0  0  2  0  0  0  0  0  0  0  0  0
   22.8747  -19.7648  -15.2872 N   0  0  0  0  0  0  0  0  0  0  0  0
   20.9832  -20.8981  -14.2669 C   0  0  0  0  0  0  0  0  0  0  0  0
   20.8815  -21.7871  -15.1417 O   0  0  0  0  0  0  0  0  0  0  0  0
   19.2805  -25.4362   -7.6532 N   0  0  0  0  0  0  0  0  0  0  0  0
   18.0897  -24.7939   -8.0888 C   0  0  0  0  0  0  0  0  0  0  0  0
   16.9606  -25.2764   -7.6976 N   0  0  0  0  0  0  0  0  0  0  0  0
   18.0911  -23.6542   -8.9276 N   0  0  0  0  0  0  0  0  0  0  0  0
   17.2630  -23.6438  -10.1138 C   0  0  0  0  0  0  0  0  0  0  0  0
   18.1472  -23.6533  -11.3416 C   0  0  0  0  0  0  0  0  0  0  0  0
   18.9049  -22.3794  -11.5451 C   0  0  0  0  0  0  0  0  0  0  0  0
   19.7195  -22.4161  -12.7828 C   0  0  2  0  0  0  0  0  0  0  0  0
   20.4542  -21.1707  -12.9905 N   0  0  0  0  0  0  0  0  0  0  0  0
   18.9347  -22.7279  -13.9928 C   0  0  0  0  0  0  0  0  0  0  0  0
   19.0186  -24.0413  -14.4987 O   0  0  0  0  0  0  0  0  0  0  0  0
   18.2115  -21.9341  -14.5979 O   0  0  0  0  0  0  0  0  0  0  0  0
  2  1  1  6
  2  3  1  0
  3  4  1  0
  5  6  2  0
  5  4  1  0
  7  8  2  0
  7  2  1  0
  9  5  1  0
 10 11  1  0
 11 13  1  0
 12 11  2  0
 13 14  1  0
 15 14  1  6
 15 16  1  0
 16  7  1  0
 17 18  2  0
 17 15  1  0
 20 21  2  0
 20 19  1  0
 22 20  1  0
 23 22  1  0
 24 23  1  0
 24 25  1  0
 26 25  1  1
 26 27  1  0
 27 17  1  0
 28 26  1  0
 29 28  1  0
 30 28  2  0
M  END
$$$$
