EQR.pdb
     RDKit          3D

 30 29  0  0  1  0  0  0  0  0999 V2000
   19.9247  -11.5969  -15.4565 N   0  0  0  0  0  0  0  0  0  0  0  0
   18.8494  -10.6741  -15.2073 C   0  0  1  0  0  0  0  0  0  0  0  0
   17.6380  -11.5125  -14.8146 C   0  0  0  0  0  0  0  0  0  0  0  0
   17.1592  -12.2360  -16.0624 C   0  0  0  0  0  0  0  0  0  0  0  0
   15.9758  -13.0710  -15.7372 C   0  0  0  0  0  0  0  0  0  0  0  0
   15.6225  -13.2067  -14.5379 O   0  0  0  0  0  0  0  0  0  0  0  0
   19.2185   -9.7237  -14.1357 C   0  0  0  0  0  0  0  0  0  0  0  0
   19.7932  -10.0698  -13.0738 O   0  0  0  0  0  0  0  0  0  0  0  0
   15.2813  -13.6862  -16.7611 O   0  0  0  0  0  0  0  0  0  0  0  0
   21.2402   -4.0564  -15.1762 N   0  0  0  0  0  0  0  0  0  0  0  0
   22.0026   -5.0450  -14.5191 C   0  0  0  0  0  0  0  0  0  0  0  0
   23.2455   -4.9386  -14.4439 O   0  0  0  0  0  0  0  0  0  0  0  0
   21.3400   -6.2087  -13.9173 C   0  0  0  0  0  0  0  0  0  0  0  0
   19.8362   -6.1739  -14.0964 C   0  0  0  0  0  0  0  0  0  0  0  0
   19.2853   -7.3762  -13.3152 C   0  0  2  0  0  0  0  0  0  0  0  0
   18.9179   -8.3503  -14.2954 N   0  0  0  0  0  0  0  0  0  0  0  0
   18.1684   -6.9680  -12.4432 C   0  0  0  0  0  0  0  0  0  0  0  0
   17.1416   -6.4493  -12.9357 O   0  0  0  0  0  0  0  0  0  0  0  0
   11.7945  -10.1234   -7.9549 N   0  0  0  0  0  0  0  0  0  0  0  0
   11.7294   -8.7071   -7.8545 C   0  0  0  0  0  0  0  0  0  0  0  0
   10.6375   -8.1779   -7.4204 N   0  0  0  0  0  0  0  0  0  0  0  0
   12.8056   -7.8590   -8.2078 N   0  0  0  0  0  0  0  0  0  0  0  0
   14.0176   -8.4360   -8.7473 C   0  0  0  0  0  0  0  0  0  0  0  0
   14.9730   -7.3266   -9.1296 C   0  0  0  0  0  0  0  0  0  0  0  0
   16.2029   -7.8094   -9.8314 C   0  0  0  0  0  0  0  0  0  0  0  0
   17.0765   -6.6858  -10.2451 C   0  0  2  0  0  0  0  0  0  0  0  0
   18.2099   -7.1412  -11.0462 N   0  0  0  0  0  0  0  0  0  0  0  0
   17.5712   -5.8794   -9.1128 C   0  0  0  0  0  0  0  0  0  0  0  0
   16.6248   -5.1162   -8.3986 O   0  0  0  0  0  0  0  0  0  0  0  0
   18.7444   -5.8181   -8.7398 O   0  0  0  0  0  0  0  0  0  0  0  0
  2  1  1  1
  2  3  1  0
  3  4  1  0
  5  6  2  0
  5  4  1  0
  7  8  2  0
  7  2  1  0
  9  5  1  0
 10 11  1  0
 11 13  1  0
 12 11  2  0
 13 14  1  0
 15 14  1  6
 15 16  1  0
 16  7  1  0
 17 18  2  0
 17 15  1  0
 20 21  2  0
 20 19  1  0
 22 20  1  0
 23 22  1  0
 24 23  1  0
 24 25  1  0
 26 25  1  1
 26 27  1  0
 27 17  1  0
 28 26  1  0
 29 28  1  0
 30 28  2  0
M  END
$$$$
