EQR.pdb
     RDKit          3D

 30 29  0  0  1  0  0  0  0  0999 V2000
   26.6080  -22.3960  -15.3237 N   0  0  0  0  0  0  0  0  0  0  0  0
   25.7155  -21.2734  -15.2098 C   0  0  1  0  0  0  0  0  0  0  0  0
   25.4954  -20.7467  -16.6236 C   0  0  0  0  0  0  0  0  0  0  0  0
   26.8631  -20.4790  -17.2296 C   0  0  0  0  0  0  0  0  0  0  0  0
   27.1206  -19.0176  -17.2652 C   0  0  0  0  0  0  0  0  0  0  0  0
   26.2736  -18.2261  -16.7779 O   0  0  0  0  0  0  0  0  0  0  0  0
   24.4408  -21.6848  -14.5824 C   0  0  0  0  0  0  0  0  0  0  0  0
   23.9571  -22.8386  -14.6942 O   0  0  0  0  0  0  0  0  0  0  0  0
   28.2900  -18.5515  -17.8349 O   0  0  0  0  0  0  0  0  0  0  0  0
   21.3789  -18.2627  -10.1476 N   0  0  0  0  0  0  0  0  0  0  0  0
   20.6659  -19.4740  -10.2698 C   0  0  0  0  0  0  0  0  0  0  0  0
   19.6938  -19.7136   -9.5220 O   0  0  0  0  0  0  0  0  0  0  0  0
   21.0617  -20.4642  -11.2789 C   0  0  0  0  0  0  0  0  0  0  0  0
   22.3111  -20.0548  -12.0312 C   0  0  0  0  0  0  0  0  0  0  0  0
   22.4965  -21.0930  -13.1478 C   0  0  2  0  0  0  0  0  0  0  0  0
   23.7139  -20.7460  -13.8129 N   0  0  0  0  0  0  0  0  0  0  0  0
   21.3237  -21.1172  -14.0414 C   0  0  0  0  0  0  0  0  0  0  0  0
   21.1250  -20.1795  -14.8459 O   0  0  0  0  0  0  0  0  0  0  0  0
   22.6573  -26.4451  -16.6234 N   0  0  0  0  0  0  0  0  0  0  0  0
   21.3546  -26.7140  -16.1225 C   0  0  0  0  0  0  0  0  0  0  0  0
   21.2176  -27.6657  -15.2644 N   0  0  0  0  0  0  0  0  0  0  0  0
   20.2093  -25.9856  -16.5225 N   0  0  0  0  0  0  0  0  0  0  0  0
   20.3648  -24.8331  -17.3831 C   0  0  0  0  0  0  0  0  0  0  0  0
   20.4054  -23.5790  -16.5376 C   0  0  0  0  0  0  0  0  0  0  0  0
   19.1432  -23.3289  -15.7743 C   0  0  0  0  0  0  0  0  0  0  0  0
   19.2451  -22.1184  -14.9251 C   0  0  2  0  0  0  0  0  0  0  0  0
   20.3956  -22.1764  -14.0269 N   0  0  0  0  0  0  0  0  0  0  0  0
   18.0255  -21.8480  -14.1401 C   0  0  0  0  0  0  0  0  0  0  0  0
   17.0740  -20.9722  -14.7022 O   0  0  0  0  0  0  0  0  0  0  0  0
   17.7699  -22.3249  -13.0326 O   0  0  0  0  0  0  0  0  0  0  0  0
  2  1  1  6
  2  3  1  0
  3  4  1  0
  5  6  2  0
  5  4  1  0
  7  8  2  0
  7  2  1  0
  9  5  1  0
 10 11  1  0
 11 13  1  0
 12 11  2  0
 13 14  1  0
 15 14  1  1
 15 16  1  0
 16  7  1  0
 17 18  2  0
 17 15  1  0
 20 21  2  0
 20 19  1  0
 22 20  1  0
 23 22  1  0
 24 23  1  0
 24 25  1  0
 26 25  1  1
 26 27  1  0
 27 17  1  0
 28 26  1  0
 29 28  1  0
 30 28  2  0
M  END
$$$$
