EQR.pdb
     RDKit          3D

 30 29  0  0  1  0  0  0  0  0999 V2000
   23.0327  -21.1066  -16.1019 N   0  0  0  0  0  0  0  0  0  0  0  0
   23.6496  -20.5134  -14.9455 C   0  0  1  0  0  0  0  0  0  0  0  0
   24.2993  -19.2165  -15.4153 C   0  0  0  0  0  0  0  0  0  0  0  0
   24.1560  -19.1553  -16.9271 C   0  0  0  0  0  0  0  0  0  0  0  0
   24.6952  -17.8678  -17.4321 C   0  0  0  0  0  0  0  0  0  0  0  0
   25.1451  -17.0214  -16.6180 O   0  0  0  0  0  0  0  0  0  0  0  0
   22.6429  -20.2619  -13.8913 C   0  0  0  0  0  0  0  0  0  0  0  0
   22.9206  -19.7444  -12.7810 O   0  0  0  0  0  0  0  0  0  0  0  0
   24.6932  -17.6215  -18.7916 O   0  0  0  0  0  0  0  0  0  0  0  0
   17.4070  -17.6812  -14.7860 N   0  0  0  0  0  0  0  0  0  0  0  0
   18.6770  -17.2108  -14.3907 C   0  0  0  0  0  0  0  0  0  0  0  0
   18.9660  -16.0003  -14.5035 O   0  0  0  0  0  0  0  0  0  0  0  0
   19.6708  -18.1423  -13.8427 C   0  0  0  0  0  0  0  0  0  0  0  0
   19.1811  -19.5757  -13.8431 C   0  0  0  0  0  0  0  0  0  0  0  0
   20.2736  -20.4003  -13.1462 C   0  0  2  0  0  0  0  0  0  0  0  0
   21.2930  -20.6149  -14.1257 N   0  0  0  0  0  0  0  0  0  0  0  0
   19.7162  -21.6485  -12.5932 C   0  0  0  0  0  0  0  0  0  0  0  0
   19.7208  -22.6973  -13.2758 O   0  0  0  0  0  0  0  0  0  0  0  0
   18.4350  -25.9331   -4.8616 N   0  0  0  0  0  0  0  0  0  0  0  0
   17.6213  -26.5109   -5.8737 C   0  0  0  0  0  0  0  0  0  0  0  0
   16.9620  -27.5803   -5.5869 N   0  0  0  0  0  0  0  0  0  0  0  0
   17.5045  -25.9650   -7.1740 N   0  0  0  0  0  0  0  0  0  0  0  0
   18.3283  -24.8359   -7.5475 C   0  0  0  0  0  0  0  0  0  0  0  0
   18.0355  -24.4557   -8.9824 C   0  0  0  0  0  0  0  0  0  0  0  0
   18.8452  -23.2973   -9.4732 C   0  0  0  0  0  0  0  0  0  0  0  0
   18.5057  -22.9426  -10.8717 C   0  0  2  0  0  0  0  0  0  0  0  0
   19.1654  -21.7112  -11.2986 N   0  0  0  0  0  0  0  0  0  0  0  0
   17.0544  -22.8281  -11.1122 C   0  0  0  0  0  0  0  0  0  0  0  0
   16.3178  -24.0262  -11.2120 O   0  0  0  0  0  0  0  0  0  0  0  0
   16.4329  -21.7706  -11.2332 O   0  0  0  0  0  0  0  0  0  0  0  0
  2  1  1  6
  2  3  1  0
  3  4  1  0
  5  6  2  0
  5  4  1  0
  7  8  2  0
  7  2  1  0
  9  5  1  0
 10 11  1  0
 11 13  1  0
 12 11  2  0
 13 14  1  0
 15 14  1  6
 15 16  1  0
 16  7  1  0
 17 18  2  0
 17 15  1  0
 20 21  2  0
 20 19  1  0
 22 20  1  0
 23 22  1  0
 24 23  1  0
 24 25  1  0
 26 25  1  1
 26 27  1  0
 27 17  1  0
 28 26  1  0
 29 28  1  0
 30 28  2  0
M  END
$$$$
