EQR.pdb
     RDKit          3D

 30 29  0  0  1  0  0  0  0  0999 V2000
   28.1335  -22.6347  -16.5057 N   0  0  0  0  0  0  0  0  0  0  0  0
   27.5254  -21.4748  -15.9101 C   0  0  1  0  0  0  0  0  0  0  0  0
   26.9489  -20.6490  -17.0548 C   0  0  0  0  0  0  0  0  0  0  0  0
   28.1138  -20.1749  -17.9080 C   0  0  0  0  0  0  0  0  0  0  0  0
   28.3809  -18.7391  -17.6423 C   0  0  0  0  0  0  0  0  0  0  0  0
   27.5770  -18.0787  -16.9358 O   0  0  0  0  0  0  0  0  0  0  0  0
   26.4737  -21.8750  -14.9500 C   0  0  0  0  0  0  0  0  0  0  0  0
   25.6667  -22.8139  -15.1618 O   0  0  0  0  0  0  0  0  0  0  0  0
   29.5114  -18.1521  -18.1775 O   0  0  0  0  0  0  0  0  0  0  0  0
   26.0874  -19.8886   -8.8890 N   0  0  0  0  0  0  0  0  0  0  0  0
   24.9309  -20.6622   -9.1227 C   0  0  0  0  0  0  0  0  0  0  0  0
   24.1572  -20.9426   -8.1823 O   0  0  0  0  0  0  0  0  0  0  0  0
   24.6270  -21.1444  -10.4757 C   0  0  0  0  0  0  0  0  0  0  0  0
   25.7448  -20.8557  -11.4565 C   0  0  0  0  0  0  0  0  0  0  0  0
   25.2955  -21.4459  -12.8015 C   0  0  2  0  0  0  0  0  0  0  0  0
   26.3539  -21.1775  -13.7249 N   0  0  0  0  0  0  0  0  0  0  0  0
   23.9970  -20.8819  -13.2142 C   0  0  0  0  0  0  0  0  0  0  0  0
   23.9164  -19.6882  -13.5809 O   0  0  0  0  0  0  0  0  0  0  0  0
   20.6014  -26.4289  -16.6091 N   0  0  0  0  0  0  0  0  0  0  0  0
   19.4991  -26.1853  -15.7454 C   0  0  0  0  0  0  0  0  0  0  0  0
   18.8726  -27.2005  -15.2580 N   0  0  0  0  0  0  0  0  0  0  0  0
   19.0638  -24.8840  -15.3996 N   0  0  0  0  0  0  0  0  0  0  0  0
   19.8352  -23.7385  -15.8305 C   0  0  0  0  0  0  0  0  0  0  0  0
   20.3012  -22.9639  -14.6172 C   0  0  0  0  0  0  0  0  0  0  0  0
   21.1105  -21.7514  -14.9540 C   0  0  0  0  0  0  0  0  0  0  0  0
   21.5884  -21.0540  -13.7366 C   0  0  2  0  0  0  0  0  0  0  0  0
   22.8155  -21.6485  -13.2126 N   0  0  0  0  0  0  0  0  0  0  0  0
   20.5790  -20.9903  -12.6623 C   0  0  0  0  0  0  0  0  0  0  0  0
   19.4992  -20.1010  -12.8398 O   0  0  0  0  0  0  0  0  0  0  0  0
   20.6021  -21.6510  -11.6220 O   0  0  0  0  0  0  0  0  0  0  0  0
  2  1  1  6
  2  3  1  0
  3  4  1  0
  5  6  2  0
  5  4  1  0
  7  8  2  0
  7  2  1  0
  9  5  1  0
 10 11  1  0
 11 13  1  0
 12 11  2  0
 13 14  1  0
 15 14  1  1
 15 16  1  0
 16  7  1  0
 17 18  2  0
 17 15  1  0
 20 21  2  0
 20 19  1  0
 22 20  1  0
 23 22  1  0
 24 23  1  0
 24 25  1  0
 26 25  1  6
 26 27  1  0
 27 17  1  0
 28 26  1  0
 29 28  1  0
 30 28  2  0
M  END
$$$$
