EQR.pdb
     RDKit          3D

 30 29  0  0  1  0  0  0  0  0999 V2000
   25.9347  -25.3476  -16.5611 N   0  0  0  0  0  0  0  0  0  0  0  0
   27.0036  -24.4267  -16.2796 C   0  0  1  0  0  0  0  0  0  0  0  0
   27.8880  -24.3931  -17.5211 C   0  0  0  0  0  0  0  0  0  0  0  0
   28.4806  -25.7814  -17.6975 C   0  0  0  0  0  0  0  0  0  0  0  0
   29.2670  -25.8369  -18.9553 C   0  0  0  0  0  0  0  0  0  0  0  0
   28.9183  -26.6251  -19.8711 O   0  0  0  0  0  0  0  0  0  0  0  0
   26.4644  -23.0859  -15.9644 C   0  0  0  0  0  0  0  0  0  0  0  0
   27.1882  -22.0742  -15.7904 O   0  0  0  0  0  0  0  0  0  0  0  0
   30.3715  -25.0190  -19.0979 O   0  0  0  0  0  0  0  0  0  0  0  0
   24.5288  -18.3065  -18.0365 N   0  0  0  0  0  0  0  0  0  0  0  0
   25.6260  -18.4932  -17.1694 C   0  0  0  0  0  0  0  0  0  0  0  0
   26.4148  -17.5525  -16.9364 O   0  0  0  0  0  0  0  0  0  0  0  0
   25.8495  -19.7972  -16.5330 C   0  0  0  0  0  0  0  0  0  0  0  0
   24.8204  -20.8276  -16.9500 C   0  0  0  0  0  0  0  0  0  0  0  0
   24.4733  -21.6217  -15.6819 C   0  0  2  0  0  0  0  0  0  0  0  0
   25.0649  -22.9127  -15.8488 N   0  0  0  0  0  0  0  0  0  0  0  0
   23.0141  -21.6652  -15.4733 C   0  0  0  0  0  0  0  0  0  0  0  0
   22.3499  -22.6484  -15.8709 O   0  0  0  0  0  0  0  0  0  0  0  0
   19.3317  -26.5767  -13.2788 N   0  0  0  0  0  0  0  0  0  0  0  0
   19.6385  -26.0052  -12.0141 C   0  0  0  0  0  0  0  0  0  0  0  0
   19.4524  -26.7240  -10.9608 N   0  0  0  0  0  0  0  0  0  0  0  0
   20.1371  -24.6895  -11.8633 N   0  0  0  0  0  0  0  0  0  0  0  0
   19.5363  -23.6110  -12.6174 C   0  0  0  0  0  0  0  0  0  0  0  0
   20.1828  -22.3019  -12.2204 C   0  0  0  0  0  0  0  0  0  0  0  0
   21.4060  -21.9714  -13.0159 C   0  0  0  0  0  0  0  0  0  0  0  0
   21.1297  -20.9439  -14.0477 C   0  0  2  0  0  0  0  0  0  0  0  0
   22.3202  -20.6218  -14.8306 N   0  0  0  0  0  0  0  0  0  0  0  0
   20.5548  -19.7008  -13.4988 C   0  0  0  0  0  0  0  0  0  0  0  0
   19.1968  -19.7270  -13.1202 O   0  0  0  0  0  0  0  0  0  0  0  0
   21.1645  -18.6408  -13.3441 O   0  0  0  0  0  0  0  0  0  0  0  0
  2  1  1  6
  2  3  1  0
  3  4  1  0
  5  6  2  0
  5  4  1  0
  7  8  2  0
  7  2  1  0
  9  5  1  0
 10 11  1  0
 11 13  1  0
 12 11  2  0
 13 14  1  0
 15 14  1  6
 15 16  1  0
 16  7  1  0
 17 18  2  0
 17 15  1  0
 20 21  2  0
 20 19  1  0
 22 20  1  0
 23 22  1  0
 24 23  1  0
 24 25  1  0
 26 25  1  1
 26 27  1  0
 27 17  1  0
 28 26  1  0
 29 28  1  0
 30 28  2  0
M  END
$$$$
