TQP.pdb
     RDKit          3D

 24 24  0  0  1  0  0  0  0  0999 V2000
    8.4171  -12.7122   20.3916 C   0  0  0  0  0  0  0  0  0  0  0  0
    7.9262  -13.7560   19.4001 C   0  0  1  0  0  0  0  0  0  0  0  0
    8.6599  -13.7401   18.2225 O   0  0  0  0  0  0  0  0  0  0  0  0
    8.0007  -15.1013   20.0588 C   0  0  2  0  0  0  0  0  0  0  0  0
    7.5474  -16.1613   19.2134 N   0  0  0  0  0  0  0  0  0  0  0  0
    7.2886  -15.0869   21.3780 C   0  0  0  0  0  0  0  0  0  0  0  0
    6.0296  -15.1805   21.3420 O   0  0  0  0  0  0  0  0  0  0  0  0
    7.8646  -19.6023   24.7900 N   0  0  0  0  0  0  0  0  0  0  0  0
    7.1364  -18.7477   25.6414 C   0  0  0  0  0  0  0  0  0  0  0  0
    6.6093  -19.2518   26.6610 O   0  0  0  0  0  0  0  0  0  0  0  0
    6.9622  -17.2987   25.3993 C   0  0  0  0  0  0  0  0  0  0  0  0
    7.5445  -16.7823   24.1479 C   0  0  0  0  0  0  0  0  0  0  0  0
    7.3528  -15.3186   23.8572 C   0  0  2  0  0  0  0  0  0  0  0  0
    8.0034  -14.9736   22.5957 N   0  0  0  0  0  0  0  0  0  0  0  0
    8.0530  -14.5709   24.9317 C   0  0  0  0  0  0  0  0  0  0  0  0
    9.2749  -14.9042   25.1370 O   0  0  0  0  0  0  0  0  0  0  0  0
    7.4703  -13.5415   25.7177 N   0  0  0  0  0  0  0  0  0  0  0  0
    6.1612  -12.9903   25.6430 C   0  0  0  0  0  0  0  0  0  0  0  0
    5.9102  -12.5418   27.0938 C   0  0  0  0  0  0  0  0  0  0  0  0
    7.2464  -11.9101   27.4493 C   0  0  0  0  0  0  0  0  0  0  0  0
    8.2245  -12.8385   26.7427 C   0  0  1  0  0  0  0  0  0  0  0  0
    8.7694  -13.8437   27.6940 C   0  0  0  0  0  0  0  0  0  0  0  0
    9.7252  -13.4951   28.6074 O   0  0  0  0  0  0  0  0  0  0  0  0
    8.3733  -15.0441   27.6923 O   0  0  0  0  0  0  0  0  0  0  0  0
  2  1  1  1
  2  4  1  0
  3  2  1  0
  4  6  1  0
  4  5  1  6
  6  7  2  0
  8  9  1  0
  9 11  1  0
 10  9  2  0
 11 12  1  0
 13 12  1  1
 13 15  1  0
 14  6  1  0
 14 13  1  0
 15 17  1  0
 15 16  2  0
 17 21  1  0
 18 17  1  0
 19 18  1  0
 19 20  1  0
 20 21  1  0
 21 22  1  1
 22 24  2  0
 22 23  1  0
M  END
$$$$
