TQP.pdb
     RDKit          3D

 24 24  0  0  1  0  0  0  0  0999 V2000
    8.6093  -12.6377   20.3845 C   0  0  0  0  0  0  0  0  0  0  0  0
    8.1298  -13.6188   19.3255 C   0  0  1  0  0  0  0  0  0  0  0  0
    8.8946  -13.5512   18.1698 O   0  0  0  0  0  0  0  0  0  0  0  0
    8.1672  -14.9985   19.9121 C   0  0  2  0  0  0  0  0  0  0  0  0
    7.6916  -16.0004   19.0100 N   0  0  0  0  0  0  0  0  0  0  0  0
    7.4492  -15.0360   21.2276 C   0  0  0  0  0  0  0  0  0  0  0  0
    6.1965  -14.8793   21.1928 O   0  0  0  0  0  0  0  0  0  0  0  0
    7.8322  -19.6611   25.0052 N   0  0  0  0  0  0  0  0  0  0  0  0
    7.1174  -18.7179   25.7700 C   0  0  0  0  0  0  0  0  0  0  0  0
    6.5915  -19.1115   26.8377 O   0  0  0  0  0  0  0  0  0  0  0  0
    6.9558  -17.2989   25.3842 C   0  0  0  0  0  0  0  0  0  0  0  0
    7.5627  -16.9097   24.0989 C   0  0  0  0  0  0  0  0  0  0  0  0
    7.4145  -15.4725   23.6797 C   0  0  2  0  0  0  0  0  0  0  0  0
    8.1520  -15.2379   22.4409 N   0  0  0  0  0  0  0  0  0  0  0  0
    8.0547  -14.6479   24.7352 C   0  0  0  0  0  0  0  0  0  0  0  0
    9.2910  -14.9015   24.9668 O   0  0  0  0  0  0  0  0  0  0  0  0
    7.4020  -13.6277   25.4770 N   0  0  0  0  0  0  0  0  0  0  0  0
    6.0778  -13.1274   25.3379 C   0  0  0  0  0  0  0  0  0  0  0  0
    5.7498  -12.6639   26.7684 C   0  0  0  0  0  0  0  0  0  0  0  0
    7.0457  -11.9765   27.1671 C   0  0  0  0  0  0  0  0  0  0  0  0
    8.0861  -12.8795   26.5191 C   0  0  1  0  0  0  0  0  0  0  0  0
    8.6270  -13.8472   27.5108 C   0  0  0  0  0  0  0  0  0  0  0  0
    9.5390  -13.4501   28.4488 O   0  0  0  0  0  0  0  0  0  0  0  0
    8.2675  -15.0590   27.5220 O   0  0  0  0  0  0  0  0  0  0  0  0
  2  1  1  1
  2  4  1  0
  3  2  1  0
  4  6  1  0
  4  5  1  6
  6  7  2  0
  8  9  1  0
  9 11  1  0
 10  9  2  0
 11 12  1  0
 13 12  1  1
 13 15  1  0
 14  6  1  0
 14 13  1  0
 15 17  1  0
 15 16  2  0
 17 21  1  0
 18 17  1  0
 19 18  1  0
 19 20  1  0
 20 21  1  0
 21 22  1  1
 22 24  2  0
 22 23  1  0
M  END
$$$$
