TQP.pdb
     RDKit          3D

 24 24  0  0  1  0  0  0  0  0999 V2000
    9.1475  -12.6349   20.5259 C   0  0  0  0  0  0  0  0  0  0  0  0
    8.1610  -13.3044   19.5812 C   0  0  1  0  0  0  0  0  0  0  0  0
    8.5462  -13.1805   18.2539 O   0  0  0  0  0  0  0  0  0  0  0  0
    8.0425  -14.7476   19.9715 C   0  0  2  0  0  0  0  0  0  0  0  0
    7.4068  -15.5451   18.9697 N   0  0  0  0  0  0  0  0  0  0  0  0
    7.3771  -14.8835   21.3080 C   0  0  0  0  0  0  0  0  0  0  0  0
    6.1399  -14.6336   21.3519 O   0  0  0  0  0  0  0  0  0  0  0  0
    7.6856  -19.6873   25.0166 N   0  0  0  0  0  0  0  0  0  0  0  0
    7.0894  -18.7065   25.8339 C   0  0  0  0  0  0  0  0  0  0  0  0
    6.6202  -19.0734   26.9369 O   0  0  0  0  0  0  0  0  0  0  0  0
    6.9886  -17.2777   25.4636 C   0  0  0  0  0  0  0  0  0  0  0  0
    7.4978  -16.9233   24.1269 C   0  0  0  0  0  0  0  0  0  0  0  0
    7.4205  -15.4750   23.7272 C   0  0  2  0  0  0  0  0  0  0  0  0
    8.1104  -15.2731   22.4557 N   0  0  0  0  0  0  0  0  0  0  0  0
    8.1618  -14.7040   24.7567 C   0  0  0  0  0  0  0  0  0  0  0  0
    9.3940  -15.0257   24.9135 O   0  0  0  0  0  0  0  0  0  0  0  0
    7.6068  -13.6649   25.5500 N   0  0  0  0  0  0  0  0  0  0  0  0
    6.3191  -13.0665   25.4680 C   0  0  0  0  0  0  0  0  0  0  0  0
    6.0672  -12.6285   26.9218 C   0  0  0  0  0  0  0  0  0  0  0  0
    7.4206  -12.0495   27.3009 C   0  0  0  0  0  0  0  0  0  0  0  0
    8.3734  -13.0028   26.5929 C   0  0  1  0  0  0  0  0  0  0  0  0
    8.8710  -14.0393   27.5366 C   0  0  0  0  0  0  0  0  0  0  0  0
    9.8292  -13.7375   28.4641 O   0  0  0  0  0  0  0  0  0  0  0  0
    8.4313  -15.2243   27.5153 O   0  0  0  0  0  0  0  0  0  0  0  0
  2  1  1  1
  2  4  1  0
  3  2  1  0
  4  6  1  0
  4  5  1  6
  6  7  2  0
  8  9  1  0
  9 11  1  0
 10  9  2  0
 11 12  1  0
 13 12  1  1
 13 15  1  0
 14  6  1  0
 14 13  1  0
 15 17  1  0
 15 16  2  0
 17 21  1  0
 18 17  1  0
 19 18  1  0
 19 20  1  0
 20 21  1  0
 21 22  1  1
 22 24  2  0
 22 23  1  0
M  END
$$$$
