TQP.pdb
     RDKit          3D

 24 24  0  0  1  0  0  0  0  0999 V2000
   10.0160  -14.1698   19.1208 C   0  0  0  0  0  0  0  0  0  0  0  0
    9.1516  -13.7783   20.3096 C   0  0  1  0  0  0  0  0  0  0  0  0
    8.8051  -12.4350   20.2805 O   0  0  0  0  0  0  0  0  0  0  0  0
    7.9288  -14.6465   20.3073 C   0  0  2  0  0  0  0  0  0  0  0  0
    6.9645  -14.2479   19.3301 N   0  0  0  0  0  0  0  0  0  0  0  0
    7.3369  -14.7340   21.6819 C   0  0  0  0  0  0  0  0  0  0  0  0
    6.2881  -14.0619   21.8900 O   0  0  0  0  0  0  0  0  0  0  0  0
    7.5756  -19.8342   25.4509 N   0  0  0  0  0  0  0  0  0  0  0  0
    6.9668  -18.8251   26.2232 C   0  0  0  0  0  0  0  0  0  0  0  0
    6.5372  -19.1392   27.3583 O   0  0  0  0  0  0  0  0  0  0  0  0
    6.8090  -17.4255   25.7707 C   0  0  0  0  0  0  0  0  0  0  0  0
    7.3967  -17.1050   24.4579 C   0  0  0  0  0  0  0  0  0  0  0  0
    7.2790  -15.6816   23.9848 C   0  0  2  0  0  0  0  0  0  0  0  0
    7.9337  -15.5338   22.6874 N   0  0  0  0  0  0  0  0  0  0  0  0
    8.0286  -14.8426   24.9534 C   0  0  0  0  0  0  0  0  0  0  0  0
    9.2649  -15.1464   25.1136 O   0  0  0  0  0  0  0  0  0  0  0  0
    7.4770  -13.7586   25.6866 N   0  0  0  0  0  0  0  0  0  0  0  0
    6.2076  -13.1335   25.5417 C   0  0  0  0  0  0  0  0  0  0  0  0
    5.9246  -12.6298   26.9682 C   0  0  0  0  0  0  0  0  0  0  0  0
    7.2805  -12.0681   27.3640 C   0  0  0  0  0  0  0  0  0  0  0  0
    8.2293  -13.0724   26.7243 C   0  0  1  0  0  0  0  0  0  0  0  0
    8.6731  -14.0805   27.7240 C   0  0  0  0  0  0  0  0  0  0  0  0
    9.5867  -13.7539   28.6874 O   0  0  0  0  0  0  0  0  0  0  0  0
    8.2270  -15.2632   27.7189 O   0  0  0  0  0  0  0  0  0  0  0  0
  2  1  1  6
  2  4  1  0
  3  2  1  0
  4  6  1  0
  4  5  1  6
  6  7  2  0
  8  9  1  0
  9 11  1  0
 10  9  2  0
 11 12  1  0
 13 12  1  1
 13 15  1  0
 14  6  1  0
 14 13  1  0
 15 17  1  0
 15 16  2  0
 17 21  1  0
 18 17  1  0
 19 18  1  0
 19 20  1  0
 20 21  1  0
 21 22  1  1
 22 24  2  0
 22 23  1  0
M  END
$$$$
