TQP.pdb
     RDKit          3D

 24 24  0  0  1  0  0  0  0  0999 V2000
   10.1350  -14.3260   18.4660 C   0  0  0  0  0  0  0  0  0  0  0  0
    9.6636  -14.2523   19.9104 C   0  0  1  0  0  0  0  0  0  0  0  0
   10.3205  -13.2582   20.6215 O   0  0  0  0  0  0  0  0  0  0  0  0
    8.1820  -14.0195   19.9097 C   0  0  2  0  0  0  0  0  0  0  0  0
    7.8121  -12.7875   19.2859 N   0  0  0  0  0  0  0  0  0  0  0  0
    7.6247  -14.1404   21.2961 C   0  0  0  0  0  0  0  0  0  0  0  0
    7.2641  -13.0675   21.8563 O   0  0  0  0  0  0  0  0  0  0  0  0
    7.6199  -19.3276   25.1220 N   0  0  0  0  0  0  0  0  0  0  0  0
    6.6684  -18.4443   25.6697 C   0  0  0  0  0  0  0  0  0  0  0  0
    6.1863  -18.7292   26.7913 O   0  0  0  0  0  0  0  0  0  0  0  0
    6.2115  -17.2079   24.9980 C   0  0  0  0  0  0  0  0  0  0  0  0
    6.8125  -16.9331   23.6808 C   0  0  0  0  0  0  0  0  0  0  0  0
    6.9388  -15.4902   23.2741 C   0  0  2  0  0  0  0  0  0  0  0  0
    7.5135  -15.4003   21.9342 N   0  0  0  0  0  0  0  0  0  0  0  0
    7.9052  -14.8621   24.2098 C   0  0  0  0  0  0  0  0  0  0  0  0
    9.0983  -15.3329   24.1773 O   0  0  0  0  0  0  0  0  0  0  0  0
    7.5976  -13.8048   25.1069 N   0  0  0  0  0  0  0  0  0  0  0  0
    6.3904  -13.0642   25.2376 C   0  0  0  0  0  0  0  0  0  0  0  0
    6.4077  -12.6674   26.7246 C   0  0  0  0  0  0  0  0  0  0  0  0
    7.8603  -12.2599   26.9108 C   0  0  0  0  0  0  0  0  0  0  0  0
    8.5811  -13.2799   26.0401 C   0  0  1  0  0  0  0  0  0  0  0  0
    9.0878  -14.4070   26.8681 C   0  0  0  0  0  0  0  0  0  0  0  0
   10.2076  -14.2595   27.6387 O   0  0  0  0  0  0  0  0  0  0  0  0
    8.5084  -15.5302   26.8887 O   0  0  0  0  0  0  0  0  0  0  0  0
  2  1  1  6
  2  4  1  0
  3  2  1  0
  4  6  1  0
  4  5  1  1
  6  7  2  0
  8  9  1  0
  9 11  1  0
 10  9  2  0
 11 12  1  0
 13 12  1  1
 13 15  1  0
 14  6  1  0
 14 13  1  0
 15 17  1  0
 15 16  2  0
 17 21  1  0
 18 17  1  0
 19 18  1  0
 19 20  1  0
 20 21  1  0
 21 22  1  1
 22 24  2  0
 22 23  1  0
M  END
$$$$
