TQP.pdb
     RDKit          3D

 24 24  0  0  1  0  0  0  0  0999 V2000
    8.6973  -12.8639   20.6189 C   0  0  0  0  0  0  0  0  0  0  0  0
    8.0127  -13.7857   19.6211 C   0  0  1  0  0  0  0  0  0  0  0  0
    8.6405  -13.7704   18.3837 O   0  0  0  0  0  0  0  0  0  0  0  0
    7.9966  -15.1708   20.1958 C   0  0  2  0  0  0  0  0  0  0  0  0
    7.4029  -16.1309   19.3186 N   0  0  0  0  0  0  0  0  0  0  0  0
    7.3593  -15.1754   21.5528 C   0  0  0  0  0  0  0  0  0  0  0  0
    6.1091  -15.0002   21.5911 O   0  0  0  0  0  0  0  0  0  0  0  0
    7.6225  -19.6464   23.3143 N   0  0  0  0  0  0  0  0  0  0  0  0
    6.4056  -19.0953   23.7624 C   0  0  0  0  0  0  0  0  0  0  0  0
    5.3707  -19.7925   23.6422 O   0  0  0  0  0  0  0  0  0  0  0  0
    6.2842  -17.7488   24.3631 C   0  0  0  0  0  0  0  0  0  0  0  0
    7.5315  -16.9685   24.4475 C   0  0  0  0  0  0  0  0  0  0  0  0
    7.4682  -15.5286   24.0161 C   0  0  2  0  0  0  0  0  0  0  0  0
    8.1316  -15.3675   22.7247 N   0  0  0  0  0  0  0  0  0  0  0  0
    8.2457  -14.7467   25.0101 C   0  0  0  0  0  0  0  0  0  0  0  0
    9.4681  -15.1037   25.1666 O   0  0  0  0  0  0  0  0  0  0  0  0
    7.7339  -13.6619   25.7706 N   0  0  0  0  0  0  0  0  0  0  0  0
    6.5183  -12.9434   25.5996 C   0  0  0  0  0  0  0  0  0  0  0  0
    6.2012  -12.4879   27.0352 C   0  0  0  0  0  0  0  0  0  0  0  0
    7.5713  -12.0416   27.5194 C   0  0  0  0  0  0  0  0  0  0  0  0
    8.4797  -13.0792   26.8741 C   0  0  1  0  0  0  0  0  0  0  0  0
    8.8050  -14.1613   27.8415 C   0  0  0  0  0  0  0  0  0  0  0  0
    9.7085  -13.9520   28.8461 O   0  0  0  0  0  0  0  0  0  0  0  0
    8.2642  -15.3016   27.7704 O   0  0  0  0  0  0  0  0  0  0  0  0
  2  1  1  1
  2  4  1  0
  3  2  1  0
  4  6  1  0
  4  5  1  6
  6  7  2  0
  8  9  1  0
  9 11  1  0
 10  9  2  0
 11 12  1  0
 13 12  1  1
 13 15  1  0
 14  6  1  0
 14 13  1  0
 15 17  1  0
 15 16  2  0
 17 21  1  0
 18 17  1  0
 19 18  1  0
 19 20  1  0
 20 21  1  0
 21 22  1  1
 22 24  2  0
 22 23  1  0
M  END
$$$$
