TQP.pdb
     RDKit          3D

 24 24  0  0  1  0  0  0  0  0999 V2000
    8.4950  -12.8298   20.6277 C   0  0  0  0  0  0  0  0  0  0  0  0
    7.8605  -13.8062   19.6489 C   0  0  1  0  0  0  0  0  0  0  0  0
    8.5155  -13.8155   18.4257 O   0  0  0  0  0  0  0  0  0  0  0  0
    7.8717  -15.1701   20.2723 C   0  0  2  0  0  0  0  0  0  0  0  0
    7.3101  -16.1748   19.4244 N   0  0  0  0  0  0  0  0  0  0  0  0
    7.2211  -15.1423   21.6227 C   0  0  0  0  0  0  0  0  0  0  0  0
    5.9836  -14.8913   21.6492 O   0  0  0  0  0  0  0  0  0  0  0  0
    7.4938  -19.7200   25.3602 N   0  0  0  0  0  0  0  0  0  0  0  0
    6.6145  -19.3039   24.3408 C   0  0  0  0  0  0  0  0  0  0  0  0
    5.8686  -20.1695   23.8251 O   0  0  0  0  0  0  0  0  0  0  0  0
    6.5243  -17.9111   23.8503 C   0  0  0  0  0  0  0  0  0  0  0  0
    7.3409  -16.9211   24.5747 C   0  0  0  0  0  0  0  0  0  0  0  0
    7.2838  -15.4989   24.0871 C   0  0  2  0  0  0  0  0  0  0  0  0
    7.9679  -15.3869   22.8014 N   0  0  0  0  0  0  0  0  0  0  0  0
    8.0447  -14.6784   25.0627 C   0  0  0  0  0  0  0  0  0  0  0  0
    9.2862  -14.9753   25.1917 O   0  0  0  0  0  0  0  0  0  0  0  0
    7.4981  -13.6184   25.8339 N   0  0  0  0  0  0  0  0  0  0  0  0
    6.2140  -13.0138   25.7416 C   0  0  0  0  0  0  0  0  0  0  0  0
    5.9684  -12.5419   27.1858 C   0  0  0  0  0  0  0  0  0  0  0  0
    7.3264  -11.9632   27.5488 C   0  0  0  0  0  0  0  0  0  0  0  0
    8.2715  -12.9381   26.8600 C   0  0  1  0  0  0  0  0  0  0  0  0
    8.7648  -13.9565   27.8254 C   0  0  0  0  0  0  0  0  0  0  0  0
    8.2994  -15.2414   27.7843 O   0  0  0  0  0  0  0  0  0  0  0  0
    9.6226  -13.6739   28.7099 O   0  0  0  0  0  0  0  0  0  0  0  0
  2  1  1  1
  2  4  1  0
  3  2  1  0
  4  6  1  0
  4  5  1  6
  6  7  2  0
  8  9  1  0
  9 11  1  0
 10  9  2  0
 11 12  1  0
 13 12  1  1
 13 15  1  0
 14  6  1  0
 14 13  1  0
 15 17  1  0
 15 16  2  0
 17 21  1  0
 18 17  1  0
 19 18  1  0
 19 20  1  0
 20 21  1  0
 21 22  1  1
 22 24  2  0
 22 23  1  0
M  END
$$$$
