TQP.pdb
     RDKit          3D

 24 24  0  0  1  0  0  0  0  0999 V2000
    8.9197  -15.7598   18.9278 C   0  0  0  0  0  0  0  0  0  0  0  0
    9.1675  -15.3269   20.3649 C   0  0  1  0  0  0  0  0  0  0  0  0
   10.4737  -14.9023   20.5620 O   0  0  0  0  0  0  0  0  0  0  0  0
    8.1939  -14.2370   20.7016 C   0  0  2  0  0  0  0  0  0  0  0  0
    8.3221  -13.0939   19.8527 N   0  0  0  0  0  0  0  0  0  0  0  0
    8.2830  -13.8752   22.1537 C   0  0  0  0  0  0  0  0  0  0  0  0
    8.7821  -12.7474   22.4259 O   0  0  0  0  0  0  0  0  0  0  0  0
    5.5290  -12.0062   25.7019 N   0  0  0  0  0  0  0  0  0  0  0  0
    5.8431  -12.8842   26.7583 C   0  0  0  0  0  0  0  0  0  0  0  0
    5.7855  -12.4341   27.9269 O   0  0  0  0  0  0  0  0  0  0  0  0
    6.2336  -14.2979   26.5644 C   0  0  0  0  0  0  0  0  0  0  0  0
    6.4682  -14.7137   25.1702 C   0  0  0  0  0  0  0  0  0  0  0  0
    7.7835  -14.3243   24.5523 C   0  0  2  0  0  0  0  0  0  0  0  0
    7.8270  -14.7624   23.1595 N   0  0  0  0  0  0  0  0  0  0  0  0
    8.8395  -15.0710   25.2810 C   0  0  0  0  0  0  0  0  0  0  0  0
    9.0464  -16.2734   24.8839 O   0  0  0  0  0  0  0  0  0  0  0  0
    9.6098  -14.5497   26.3543 N   0  0  0  0  0  0  0  0  0  0  0  0
    9.5923  -13.2435   26.9171 C   0  0  0  0  0  0  0  0  0  0  0  0
   10.0102  -13.5082   28.3746 C   0  0  0  0  0  0  0  0  0  0  0  0
   11.1424  -14.5052   28.1871 C   0  0  0  0  0  0  0  0  0  0  0  0
   10.6265  -15.3432   27.0255 C   0  0  1  0  0  0  0  0  0  0  0  0
    9.9906  -16.5916   27.5250 C   0  0  0  0  0  0  0  0  0  0  0  0
   10.7498  -17.6020   28.0467 O   0  0  0  0  0  0  0  0  0  0  0  0
    8.7387  -16.7624   27.4852 O   0  0  0  0  0  0  0  0  0  0  0  0
  2  1  1  6
  2  4  1  0
  3  2  1  0
  4  6  1  0
  4  5  1  6
  6  7  2  0
  8  9  1  0
  9 11  1  0
 10  9  2  0
 11 12  1  0
 13 12  1  1
 13 15  1  0
 14  6  1  0
 14 13  1  0
 15 17  1  0
 15 16  2  0
 17 21  1  0
 18 17  1  0
 19 18  1  0
 19 20  1  0
 20 21  1  0
 21 22  1  1
 22 24  2  0
 22 23  1  0
M  END
$$$$
