GWV.pdb
     RDKit          3D

 26 27  0  0  1  0  0  0  0  0999 V2000
    8.7964  -20.8738   22.9377 N   0  0  0  0  0  0  0  0  0  0  0  0
    8.2184  -19.7129   23.5419 C   0  0  0  0  0  0  0  0  0  0  0  0
    9.0531  -18.5015   23.3284 C   0  0  0  0  0  0  0  0  0  0  0  0
   10.1737  -18.5920   22.7829 O   0  0  0  0  0  0  0  0  0  0  0  0
    8.5731  -17.2417   23.7464 N   0  0  0  0  0  0  0  0  0  0  0  0
    9.2713  -15.9978   23.5026 C   0  0  1  0  0  0  0  0  0  0  0  0
    8.3186  -14.8421   23.3196 C   0  0  0  0  0  0  0  0  0  0  0  0
    7.4461  -14.6300   24.4784 C   0  0  0  0  0  0  0  0  0  0  0  0
    6.8300  -15.6233   25.2034 C   0  0  0  0  0  0  0  0  0  0  0  0
    6.1111  -15.0508   26.1900 N   0  0  0  0  0  0  0  0  0  0  0  0
    6.2335  -13.6961   26.1400 C   0  0  0  0  0  0  0  0  0  0  0  0
    5.7264  -12.6613   26.8878 C   0  0  0  0  0  0  0  0  0  0  0  0
    6.0379  -11.3511   26.5876 C   0  0  0  0  0  0  0  0  0  0  0  0
    6.8705  -11.0903   25.5200 C   0  0  0  0  0  0  0  0  0  0  0  0
    7.3680  -12.1320   24.7841 C   0  0  0  0  0  0  0  0  0  0  0  0
    7.0663  -13.4480   25.0711 C   0  0  0  0  0  0  0  0  0  0  0  0
   10.1887  -15.6510   24.6192 C   0  0  0  0  0  0  0  0  0  0  0  0
   11.2105  -14.9793   24.3440 O   0  0  0  0  0  0  0  0  0  0  0  0
   10.3835  -13.4890   27.0897 C   0  0  0  0  0  0  0  0  0  0  0  0
   10.6440  -14.7351   27.8843 C   0  0  1  0  0  0  0  0  0  0  0  0
    9.4608  -14.9711   28.7963 C   0  0  0  0  0  0  0  0  0  0  0  0
   10.9131  -15.9519   27.0099 C   0  0  2  0  0  0  0  0  0  0  0  0
    9.9255  -16.0618   25.9546 N   0  0  0  0  0  0  0  0  0  0  0  0
   11.0391  -17.1914   27.7928 C   0  0  0  0  0  0  0  0  0  0  0  0
   11.8719  -17.3554   28.7174 O   0  0  0  0  0  0  0  0  0  0  0  0
   10.1881  -18.2464   27.4957 O   0  0  0  0  0  0  0  0  0  0  0  0
  1  2  1  0
  3  2  1  0
  3  4  2  0
  5  3  1  0
  6  5  1  0
  6  7  1  1
  7  8  1  0
  8  9  2  0
  8 16  1  0
  9 10  1  0
 10 11  1  0
 11 12  2  0
 12 13  1  0
 14 13  2  0
 15 14  1  0
 16 15  2  0
 16 11  1  0
 17  6  1  0
 18 17  2  0
 20 21  1  6
 20 19  1  0
 22 20  1  0
 22 23  1  6
 23 17  1  0
 24 22  1  0
 25 24  2  0
 26 24  1  0
M  END
$$$$
