GWV.pdb
     RDKit          3D

 26 27  0  0  1  0  0  0  0  0999 V2000
    6.5073  -15.6089   19.7857 N   0  0  0  0  0  0  0  0  0  0  0  0
    6.6797  -16.4533   20.9277 C   0  0  0  0  0  0  0  0  0  0  0  0
    7.8212  -16.0168   21.7741 C   0  0  0  0  0  0  0  0  0  0  0  0
    8.7375  -15.3179   21.2910 O   0  0  0  0  0  0  0  0  0  0  0  0
    7.8667  -16.3966   23.1327 N   0  0  0  0  0  0  0  0  0  0  0  0
    8.9401  -16.0293   24.0311 C   0  0  1  0  0  0  0  0  0  0  0  0
    8.5015  -16.0540   25.4746 C   0  0  0  0  0  0  0  0  0  0  0  0
    7.3922  -15.1368   25.7519 C   0  0  0  0  0  0  0  0  0  0  0  0
    6.0793  -15.5062   25.9302 C   0  0  0  0  0  0  0  0  0  0  0  0
    5.3497  -14.3968   26.1644 N   0  0  0  0  0  0  0  0  0  0  0  0
    6.1469  -13.2936   26.1465 C   0  0  0  0  0  0  0  0  0  0  0  0
    5.9243  -11.9494   26.3218 C   0  0  0  0  0  0  0  0  0  0  0  0
    6.9621  -11.0434   26.2445 C   0  0  0  0  0  0  0  0  0  0  0  0
    8.2351  -11.5063   25.9873 C   0  0  0  0  0  0  0  0  0  0  0  0
    8.4412  -12.8488   25.8149 C   0  0  0  0  0  0  0  0  0  0  0  0
    7.4143  -13.7680   25.8890 C   0  0  0  0  0  0  0  0  0  0  0  0
   10.1064  -16.9411   23.9006 C   0  0  0  0  0  0  0  0  0  0  0  0
    9.8755  -18.1694   23.8057 O   0  0  0  0  0  0  0  0  0  0  0  0
   13.1073  -16.2290   21.5065 C   0  0  0  0  0  0  0  0  0  0  0  0
   13.6442  -16.6664   22.8379 C   0  0  1  0  0  0  0  0  0  0  0  0
   14.2565  -15.4634   23.5198 C   0  0  0  0  0  0  0  0  0  0  0  0
   12.5877  -17.3173   23.7198 C   0  0  2  0  0  0  0  0  0  0  0  0
   11.4396  -16.4476   23.8830 N   0  0  0  0  0  0  0  0  0  0  0  0
   13.1330  -17.7755   25.0073 C   0  0  0  0  0  0  0  0  0  0  0  0
   12.7383  -17.3598   26.1240 O   0  0  0  0  0  0  0  0  0  0  0  0
   14.1450  -18.7248   24.9926 O   0  0  0  0  0  0  0  0  0  0  0  0
  1  2  1  0
  3  2  1  0
  3  4  2  0
  5  3  1  0
  6  5  1  0
  6  7  1  1
  7  8  1  0
  8  9  2  0
  8 16  1  0
  9 10  1  0
 10 11  1  0
 11 12  2  0
 12 13  1  0
 14 13  2  0
 15 14  1  0
 16 15  2  0
 16 11  1  0
 17  6  1  0
 18 17  2  0
 20 21  1  1
 20 19  1  0
 22 20  1  0
 22 23  1  1
 23 17  1  0
 24 22  1  0
 25 24  2  0
 26 24  1  0
M  END
$$$$
