GWV.pdb
     RDKit          3D

 26 27  0  0  1  0  0  0  0  0999 V2000
   11.3285  -15.9038   19.5483 N   0  0  0  0  0  0  0  0  0  0  0  0
   10.7207  -16.7712   20.5101 C   0  0  0  0  0  0  0  0  0  0  0  0
   10.2568  -16.0297   21.7121 C   0  0  0  0  0  0  0  0  0  0  0  0
   10.4988  -14.8101   21.8369 O   0  0  0  0  0  0  0  0  0  0  0  0
    9.5383  -16.7116   22.7175 N   0  0  0  0  0  0  0  0  0  0  0  0
    9.1222  -16.0979   23.9603 C   0  0  1  0  0  0  0  0  0  0  0  0
    7.8085  -16.6535   24.4523 C   0  0  0  0  0  0  0  0  0  0  0  0
    6.9361  -15.6300   25.0356 C   0  0  0  0  0  0  0  0  0  0  0  0
    5.6729  -15.8501   25.5334 C   0  0  0  0  0  0  0  0  0  0  0  0
    5.1795  -14.6789   25.9836 N   0  0  0  0  0  0  0  0  0  0  0  0
    6.0858  -13.6806   25.7974 C   0  0  0  0  0  0  0  0  0  0  0  0
    6.0949  -12.3337   26.0679 C   0  0  0  0  0  0  0  0  0  0  0  0
    7.1909  -11.5557   25.7559 C   0  0  0  0  0  0  0  0  0  0  0  0
    8.2854  -12.1503   25.1648 C   0  0  0  0  0  0  0  0  0  0  0  0
    8.2616  -13.4935   24.9013 C   0  0  0  0  0  0  0  0  0  0  0  0
    7.1735  -14.2857   25.2071 C   0  0  0  0  0  0  0  0  0  0  0  0
   10.1258  -16.2971   25.0381 C   0  0  0  0  0  0  0  0  0  0  0  0
   10.9075  -17.2710   24.9310 O   0  0  0  0  0  0  0  0  0  0  0  0
   11.0185  -13.2335   27.7352 C   0  0  0  0  0  0  0  0  0  0  0  0
   10.9183  -14.5991   28.3490 C   0  0  1  0  0  0  0  0  0  0  0  0
    9.6229  -14.6751   29.1260 C   0  0  0  0  0  0  0  0  0  0  0  0
   11.0081  -15.7200   27.3227 C   0  0  2  0  0  0  0  0  0  0  0  0
   10.2042  -15.4201   26.1544 N   0  0  0  0  0  0  0  0  0  0  0  0
   10.6935  -17.0372   27.8981 C   0  0  0  0  0  0  0  0  0  0  0  0
    9.6106  -17.6437   27.7113 O   0  0  0  0  0  0  0  0  0  0  0  0
   11.6481  -17.6512   28.6963 O   0  0  0  0  0  0  0  0  0  0  0  0
  1  2  1  0
  3  2  1  0
  3  4  2  0
  5  3  1  0
  6  5  1  0
  6  7  1  1
  7  8  1  0
  8  9  2  0
  8 16  1  0
  9 10  1  0
 10 11  1  0
 11 12  2  0
 12 13  1  0
 14 13  2  0
 15 14  1  0
 16 15  2  0
 16 11  1  0
 17  6  1  0
 18 17  2  0
 20 21  1  6
 20 19  1  0
 22 20  1  0
 22 23  1  6
 23 17  1  0
 24 22  1  0
 25 24  2  0
 26 24  1  0
M  END
$$$$
