GWV.pdb
     RDKit          3D

 26 27  0  0  1  0  0  0  0  0999 V2000
    8.0154  -22.0402   25.5381 N   0  0  0  0  0  0  0  0  0  0  0  0
    7.4013  -20.8804   26.1078 C   0  0  0  0  0  0  0  0  0  0  0  0
    7.9033  -19.6254   25.4890 C   0  0  0  0  0  0  0  0  0  0  0  0
    8.8602  -19.6534   24.6858 O   0  0  0  0  0  0  0  0  0  0  0  0
    7.2921  -18.3952   25.8136 N   0  0  0  0  0  0  0  0  0  0  0  0
    7.6176  -17.1436   25.1642 C   0  0  1  0  0  0  0  0  0  0  0  0
    6.4909  -16.1451   25.2658 C   0  0  0  0  0  0  0  0  0  0  0  0
    6.7984  -14.8666   24.6180 C   0  0  0  0  0  0  0  0  0  0  0  0
    7.2769  -14.7179   23.3370 C   0  0  0  0  0  0  0  0  0  0  0  0
    7.4395  -13.4024   23.0901 N   0  0  0  0  0  0  0  0  0  0  0  0
    7.0799  -12.6686   24.1786 C   0  0  0  0  0  0  0  0  0  0  0  0
    7.0501  -11.3240   24.4587 C   0  0  0  0  0  0  0  0  0  0  0  0
    6.6232  -10.8657   25.6882 C   0  0  0  0  0  0  0  0  0  0  0  0
    6.2238  -11.7798   26.6398 C   0  0  0  0  0  0  0  0  0  0  0  0
    6.2590  -13.1165   26.3460 C   0  0  0  0  0  0  0  0  0  0  0  0
    6.6832  -13.5913   25.1213 C   0  0  0  0  0  0  0  0  0  0  0  0
    8.8291  -16.5148   25.7520 C   0  0  0  0  0  0  0  0  0  0  0  0
    9.5709  -15.8557   24.9862 O   0  0  0  0  0  0  0  0  0  0  0  0
    9.9109  -13.8414   27.4555 C   0  0  0  0  0  0  0  0  0  0  0  0
   10.3953  -14.9383   28.3579 C   0  0  1  0  0  0  0  0  0  0  0  0
    9.5026  -14.9765   29.5781 C   0  0  0  0  0  0  0  0  0  0  0  0
   10.4421  -16.2960   27.6707 C   0  0  2  0  0  0  0  0  0  0  0  0
    9.1440  -16.6504   27.1317 N   0  0  0  0  0  0  0  0  0  0  0  0
   10.9966  -17.3475   28.5378 C   0  0  0  0  0  0  0  0  0  0  0  0
   12.1435  -17.3052   29.0458 O   0  0  0  0  0  0  0  0  0  0  0  0
   10.2083  -18.4553   28.8145 O   0  0  0  0  0  0  0  0  0  0  0  0
  1  2  1  0
  3  2  1  0
  3  4  2  0
  5  3  1  0
  6  5  1  0
  6  7  1  1
  7  8  1  0
  8  9  2  0
  8 16  1  0
  9 10  1  0
 10 11  1  0
 11 12  2  0
 12 13  1  0
 14 13  2  0
 15 14  1  0
 16 15  2  0
 16 11  1  0
 17  6  1  0
 18 17  2  0
 20 21  1  1
 20 19  1  0
 22 20  1  0
 22 23  1  1
 23 17  1  0
 24 22  1  0
 25 24  2  0
 26 24  1  0
M  END
$$$$
