GWV.pdb
     RDKit          3D

 26 27  0  0  1  0  0  0  0  0999 V2000
    6.9046  -16.4997   19.1312 N   0  0  0  0  0  0  0  0  0  0  0  0
    6.6212  -16.8866   20.4791 C   0  0  0  0  0  0  0  0  0  0  0  0
    7.7002  -16.4731   21.4143 C   0  0  0  0  0  0  0  0  0  0  0  0
    8.6752  -15.8085   21.0030 O   0  0  0  0  0  0  0  0  0  0  0  0
    7.6193  -16.8358   22.7759 N   0  0  0  0  0  0  0  0  0  0  0  0
    8.5833  -16.4226   23.7731 C   0  0  1  0  0  0  0  0  0  0  0  0
    8.0226  -16.5112   25.1712 C   0  0  0  0  0  0  0  0  0  0  0  0
    7.1561  -15.3795   25.5135 C   0  0  0  0  0  0  0  0  0  0  0  0
    5.8461  -15.4748   25.9219 C   0  0  0  0  0  0  0  0  0  0  0  0
    5.3751  -14.2314   26.1455 N   0  0  0  0  0  0  0  0  0  0  0  0
    6.3423  -13.3069   25.8954 C   0  0  0  0  0  0  0  0  0  0  0  0
    6.3953  -11.9357   25.9615 C   0  0  0  0  0  0  0  0  0  0  0  0
    7.5509  -11.2549   25.6376 C   0  0  0  0  0  0  0  0  0  0  0  0
    8.6605  -11.9722   25.2437 C   0  0  0  0  0  0  0  0  0  0  0  0
    8.5924  -13.3382   25.1826 C   0  0  0  0  0  0  0  0  0  0  0  0
    7.4445  -14.0342   25.5032 C   0  0  0  0  0  0  0  0  0  0  0  0
    9.8144  -17.2541   23.7295 C   0  0  0  0  0  0  0  0  0  0  0  0
    9.6734  -18.4992   23.6985 O   0  0  0  0  0  0  0  0  0  0  0  0
   13.7556  -15.3850   23.3299 C   0  0  0  0  0  0  0  0  0  0  0  0
   13.3218  -16.6618   22.6713 C   0  0  1  0  0  0  0  0  0  0  0  0
   14.5543  -17.4913   22.3886 C   0  0  0  0  0  0  0  0  0  0  0  0
   12.3127  -17.4447   23.4998 C   0  0  2  0  0  0  0  0  0  0  0  0
   11.1095  -16.6678   23.7231 N   0  0  0  0  0  0  0  0  0  0  0  0
   12.8898  -17.9590   24.7519 C   0  0  0  0  0  0  0  0  0  0  0  0
   13.7170  -18.9013   24.8078 O   0  0  0  0  0  0  0  0  0  0  0  0
   12.4998  -17.3703   25.9463 O   0  0  0  0  0  0  0  0  0  0  0  0
  1  2  1  0
  3  2  1  0
  3  4  2  0
  5  3  1  0
  6  5  1  0
  6  7  1  1
  7  8  1  0
  8  9  2  0
  8 16  1  0
  9 10  1  0
 10 11  1  0
 11 12  2  0
 12 13  1  0
 14 13  2  0
 15 14  1  0
 16 15  2  0
 16 11  1  0
 17  6  1  0
 18 17  2  0
 20 21  1  1
 20 19  1  0
 22 20  1  0
 22 23  1  1
 23 17  1  0
 24 22  1  0
 25 24  2  0
 26 24  1  0
M  END
$$$$
