GWV.pdb
     RDKit          3D

 26 27  0  0  1  0  0  0  0  0999 V2000
    8.6111  -20.4525   21.1834 N   0  0  0  0  0  0  0  0  0  0  0  0
    8.0275  -20.2080   22.4666 C   0  0  0  0  0  0  0  0  0  0  0  0
    8.4842  -18.9182   23.0479 C   0  0  0  0  0  0  0  0  0  0  0  0
    9.3783  -18.2507   22.4854 O   0  0  0  0  0  0  0  0  0  0  0  0
    7.9013  -18.4477   24.2442 N   0  0  0  0  0  0  0  0  0  0  0  0
    8.2075  -17.1612   24.8319 C   0  0  1  0  0  0  0  0  0  0  0  0
    6.9595  -16.3963   25.1980 C   0  0  0  0  0  0  0  0  0  0  0  0
    6.9629  -15.0197   24.6943 C   0  0  0  0  0  0  0  0  0  0  0  0
    7.2945  -14.6411   23.4142 C   0  0  0  0  0  0  0  0  0  0  0  0
    7.1830  -13.3007   23.3210 N   0  0  0  0  0  0  0  0  0  0  0  0
    6.7839  -12.7751   24.5115 C   0  0  0  0  0  0  0  0  0  0  0  0
    6.5233  -11.5015   24.9558 C   0  0  0  0  0  0  0  0  0  0  0  0
    6.1226  -11.2730   26.2563 C   0  0  0  0  0  0  0  0  0  0  0  0
    5.9858  -12.3459   27.1113 C   0  0  0  0  0  0  0  0  0  0  0  0
    6.2492  -13.6091   26.6540 C   0  0  0  0  0  0  0  0  0  0  0  0
    6.6507  -13.8548   25.3565 C   0  0  0  0  0  0  0  0  0  0  0  0
    9.0281  -17.2975   26.0635 C   0  0  0  0  0  0  0  0  0  0  0  0
    8.9810  -18.3909   26.6746 O   0  0  0  0  0  0  0  0  0  0  0  0
   11.7388  -14.1383   27.1341 C   0  0  0  0  0  0  0  0  0  0  0  0
   11.1605  -15.0153   28.2057 C   0  0  1  0  0  0  0  0  0  0  0  0
   10.0091  -14.2774   28.8514 C   0  0  0  0  0  0  0  0  0  0  0  0
   10.7165  -16.3753   27.6851 C   0  0  2  0  0  0  0  0  0  0  0  0
    9.8403  -16.2321   26.5393 N   0  0  0  0  0  0  0  0  0  0  0  0
   10.1299  -17.2179   28.7391 C   0  0  0  0  0  0  0  0  0  0  0  0
    8.8960  -17.3803   28.9017 O   0  0  0  0  0  0  0  0  0  0  0  0
   10.9879  -17.8757   29.6089 O   0  0  0  0  0  0  0  0  0  0  0  0
  1  2  1  0
  3  2  1  0
  3  4  2  0
  5  3  1  0
  6  5  1  0
  6  7  1  1
  7  8  1  0
  8  9  2  0
  8 16  1  0
  9 10  1  0
 10 11  1  0
 11 12  2  0
 12 13  1  0
 14 13  2  0
 15 14  1  0
 16 15  2  0
 16 11  1  0
 17  6  1  0
 18 17  2  0
 20 21  1  6
 20 19  1  0
 22 20  1  0
 22 23  1  6
 23 17  1  0
 24 22  1  0
 25 24  2  0
 26 24  1  0
M  END
$$$$
