GWV.pdb
     RDKit          3D

 26 27  0  0  1  0  0  0  0  0999 V2000
    5.0725  -20.3325   20.2203 N   0  0  0  0  0  0  0  0  0  0  0  0
    5.5339  -20.3900   21.5734 C   0  0  0  0  0  0  0  0  0  0  0  0
    6.1339  -19.1021   22.0108 C   0  0  0  0  0  0  0  0  0  0  0  0
    6.4288  -18.2232   21.1729 O   0  0  0  0  0  0  0  0  0  0  0  0
    6.3709  -18.8742   23.3834 N   0  0  0  0  0  0  0  0  0  0  0  0
    7.0252  -17.6900   23.8971 C   0  0  1  0  0  0  0  0  0  0  0  0
    6.3748  -17.1900   25.1634 C   0  0  0  0  0  0  0  0  0  0  0  0
    7.0256  -15.9948   25.7083 C   0  0  0  0  0  0  0  0  0  0  0  0
    7.6426  -15.9135   26.9349 C   0  0  0  0  0  0  0  0  0  0  0  0
    8.1236  -14.6636   27.0909 N   0  0  0  0  0  0  0  0  0  0  0  0
    7.8413  -13.9077   25.9947 C   0  0  0  0  0  0  0  0  0  0  0  0
    8.0941  -12.6047   25.6400 C   0  0  0  0  0  0  0  0  0  0  0  0
    7.6712  -12.1065   24.4248 C   0  0  0  0  0  0  0  0  0  0  0  0
    6.9868  -12.9378   23.5638 C   0  0  0  0  0  0  0  0  0  0  0  0
    6.7424  -14.2338   23.9312 C   0  0  0  0  0  0  0  0  0  0  0  0
    7.1584  -14.7476   25.1428 C   0  0  0  0  0  0  0  0  0  0  0  0
    8.4598  -17.9372   24.1965 C   0  0  0  0  0  0  0  0  0  0  0  0
    8.7446  -18.9494   24.8787 O   0  0  0  0  0  0  0  0  0  0  0  0
   11.5590  -14.9862   23.3508 C   0  0  0  0  0  0  0  0  0  0  0  0
   11.7434  -16.4410   23.0321 C   0  0  1  0  0  0  0  0  0  0  0  0
   13.2120  -16.7740   23.1726 C   0  0  0  0  0  0  0  0  0  0  0  0
   10.8893  -17.3528   23.9020 C   0  0  2  0  0  0  0  0  0  0  0  0
    9.4794  -17.0629   23.7306 N   0  0  0  0  0  0  0  0  0  0  0  0
   11.2998  -17.3301   25.3148 C   0  0  0  0  0  0  0  0  0  0  0  0
   10.8706  -16.5041   26.1567 O   0  0  0  0  0  0  0  0  0  0  0  0
   12.2166  -18.2770   25.7486 O   0  0  0  0  0  0  0  0  0  0  0  0
  1  2  1  0
  3  2  1  0
  3  4  2  0
  5  3  1  0
  6  5  1  0
  6  7  1  1
  7  8  1  0
  8  9  2  0
  8 16  1  0
  9 10  1  0
 10 11  1  0
 11 12  2  0
 12 13  1  0
 14 13  2  0
 15 14  1  0
 16 15  2  0
 16 11  1  0
 17  6  1  0
 18 17  2  0
 20 21  1  1
 20 19  1  0
 22 20  1  0
 22 23  1  1
 23 17  1  0
 24 22  1  0
 25 24  2  0
 26 24  1  0
M  END
$$$$
