GWV.pdb
     RDKit          3D

 26 27  0  0  1  0  0  0  0  0999 V2000
    5.0458  -18.5347   21.4807 N   0  0  0  0  0  0  0  0  0  0  0  0
    5.9740  -18.8166   22.5322 C   0  0  0  0  0  0  0  0  0  0  0  0
    6.9864  -17.7387   22.6833 C   0  0  0  0  0  0  0  0  0  0  0  0
    7.3814  -17.0959   21.6871 O   0  0  0  0  0  0  0  0  0  0  0  0
    7.5031  -17.4421   23.9629 N   0  0  0  0  0  0  0  0  0  0  0  0
    8.5772  -16.5002   24.1940 C   0  0  1  0  0  0  0  0  0  0  0  0
    8.6040  -16.0136   25.6219 C   0  0  0  0  0  0  0  0  0  0  0  0
    7.4605  -15.1599   25.9577 C   0  0  0  0  0  0  0  0  0  0  0  0
    6.1998  -15.6072   26.2778 C   0  0  0  0  0  0  0  0  0  0  0  0
    5.4157  -14.5386   26.5251 N   0  0  0  0  0  0  0  0  0  0  0  0
    6.1253  -13.3865   26.3771 C   0  0  0  0  0  0  0  0  0  0  0  0
    5.8222  -12.0528   26.5061 C   0  0  0  0  0  0  0  0  0  0  0  0
    6.7798  -11.0840   26.2860 C   0  0  0  0  0  0  0  0  0  0  0  0
    8.0543  -11.4730   25.9323 C   0  0  0  0  0  0  0  0  0  0  0  0
    8.3413  -12.8059   25.8076 C   0  0  0  0  0  0  0  0  0  0  0  0
    7.3952  -13.7872   26.0243 C   0  0  0  0  0  0  0  0  0  0  0  0
    9.9067  -17.0944   23.8971 C   0  0  0  0  0  0  0  0  0  0  0  0
   10.0981  -18.2866   24.2333 O   0  0  0  0  0  0  0  0  0  0  0  0
   14.1960  -16.7123   21.3611 C   0  0  0  0  0  0  0  0  0  0  0  0
   12.8606  -16.1549   21.7587 C   0  0  1  0  0  0  0  0  0  0  0  0
   11.9712  -16.1384   20.5355 C   0  0  0  0  0  0  0  0  0  0  0  0
   12.2101  -16.9264   22.8986 C   0  0  2  0  0  0  0  0  0  0  0  0
   10.9308  -16.3456   23.2554 N   0  0  0  0  0  0  0  0  0  0  0  0
   13.1025  -17.0760   24.0589 C   0  0  0  0  0  0  0  0  0  0  0  0
   14.1485  -17.7697   24.0544 O   0  0  0  0  0  0  0  0  0  0  0  0
   12.7730  -16.4122   25.2320 O   0  0  0  0  0  0  0  0  0  0  0  0
  1  2  1  0
  3  2  1  0
  3  4  2  0
  5  3  1  0
  6  5  1  0
  6  7  1  1
  7  8  1  0
  8  9  2  0
  8 16  1  0
  9 10  1  0
 10 11  1  0
 11 12  2  0
 12 13  1  0
 14 13  2  0
 15 14  1  0
 16 15  2  0
 16 11  1  0
 17  6  1  0
 18 17  2  0
 20 21  1  6
 20 19  1  0
 22 20  1  0
 22 23  1  1
 23 17  1  0
 24 22  1  0
 25 24  2  0
 26 24  1  0
M  END
$$$$
