GWV.pdb
     RDKit          3D

 26 27  0  0  1  0  0  0  0  0999 V2000
    4.0218  -20.2910   22.6007 N   0  0  0  0  0  0  0  0  0  0  0  0
    5.3519  -19.9847   23.0295 C   0  0  0  0  0  0  0  0  0  0  0  0
    5.6445  -18.5302   22.9364 C   0  0  0  0  0  0  0  0  0  0  0  0
    4.8366  -17.7555   22.3809 O   0  0  0  0  0  0  0  0  0  0  0  0
    6.8447  -18.0245   23.4804 N   0  0  0  0  0  0  0  0  0  0  0  0
    7.2257  -16.6296   23.4202 C   0  0  1  0  0  0  0  0  0  0  0  0
    8.0263  -16.2105   24.6285 C   0  0  0  0  0  0  0  0  0  0  0  0
    7.2757  -15.3416   25.5398 C   0  0  0  0  0  0  0  0  0  0  0  0
    6.2821  -15.7551   26.3964 C   0  0  0  0  0  0  0  0  0  0  0  0
    5.8249  -14.6819   27.0725 N   0  0  0  0  0  0  0  0  0  0  0  0
    6.4916  -13.5599   26.6862 C   0  0  0  0  0  0  0  0  0  0  0  0
    6.4248  -12.2357   27.0460 C   0  0  0  0  0  0  0  0  0  0  0  0
    7.2548  -11.3004   26.4627 C   0  0  0  0  0  0  0  0  0  0  0  0
    8.1588  -11.7132   25.5071 C   0  0  0  0  0  0  0  0  0  0  0  0
    8.2136  -13.0362   25.1590 C   0  0  0  0  0  0  0  0  0  0  0  0
    7.3907  -13.9842   25.7328 C   0  0  0  0  0  0  0  0  0  0  0  0
    8.0423  -16.3314   22.2149 C   0  0  0  0  0  0  0  0  0  0  0  0
    8.8959  -17.1808   21.8670 O   0  0  0  0  0  0  0  0  0  0  0  0
    6.5378  -14.0067   19.1410 C   0  0  0  0  0  0  0  0  0  0  0  0
    7.9735  -13.7231   19.4732 C   0  0  1  0  0  0  0  0  0  0  0  0
    8.0367  -12.4072   20.2159 C   0  0  0  0  0  0  0  0  0  0  0  0
    8.6288  -14.8378   20.2769 C   0  0  2  0  0  0  0  0  0  0  0  0
    7.8691  -15.1288   21.4766 N   0  0  0  0  0  0  0  0  0  0  0  0
   10.0471  -14.5682   20.5615 C   0  0  0  0  0  0  0  0  0  0  0  0
   10.9444  -14.5353   19.6846 O   0  0  0  0  0  0  0  0  0  0  0  0
   10.4211  -14.3353   21.8772 O   0  0  0  0  0  0  0  0  0  0  0  0
  1  2  1  0
  3  2  1  0
  3  4  2  0
  5  3  1  0
  6  5  1  0
  6  7  1  1
  7  8  1  0
  8  9  2  0
  8 16  1  0
  9 10  1  0
 10 11  1  0
 11 12  2  0
 12 13  1  0
 14 13  2  0
 15 14  1  0
 16 15  2  0
 16 11  1  0
 17  6  1  0
 18 17  2  0
 20 21  1  1
 20 19  1  0
 22 20  1  0
 22 23  1  1
 23 17  1  0
 24 22  1  0
 25 24  2  0
 26 24  1  0
M  END
$$$$
