GWV.pdb
     RDKit          3D

 26 27  0  0  1  0  0  0  0  0999 V2000
    6.6461  -16.7852   19.4333 N   0  0  0  0  0  0  0  0  0  0  0  0
    6.7318  -17.2447   20.7854 C   0  0  0  0  0  0  0  0  0  0  0  0
    7.8318  -16.5775   21.5303 C   0  0  0  0  0  0  0  0  0  0  0  0
    8.6554  -15.8539   20.9307 O   0  0  0  0  0  0  0  0  0  0  0  0
    7.9434  -16.7652   22.9247 N   0  0  0  0  0  0  0  0  0  0  0  0
    9.0027  -16.1926   23.7274 C   0  0  1  0  0  0  0  0  0  0  0  0
    8.6516  -16.1731   25.1947 C   0  0  0  0  0  0  0  0  0  0  0  0
    7.5453  -15.2635   25.5069 C   0  0  0  0  0  0  0  0  0  0  0  0
    6.2266  -15.6306   25.6422 C   0  0  0  0  0  0  0  0  0  0  0  0
    5.5024  -14.5300   25.9287 N   0  0  0  0  0  0  0  0  0  0  0  0
    6.3087  -13.4350   25.9878 C   0  0  0  0  0  0  0  0  0  0  0  0
    6.0942  -12.1012   26.2373 C   0  0  0  0  0  0  0  0  0  0  0  0
    7.1406  -11.2017   26.2295 C   0  0  0  0  0  0  0  0  0  0  0  0
    8.4138  -11.6606   25.9663 C   0  0  0  0  0  0  0  0  0  0  0  0
    8.6118  -12.9926   25.7196 C   0  0  0  0  0  0  0  0  0  0  0  0
    7.5763  -13.9052   25.7237 C   0  0  0  0  0  0  0  0  0  0  0  0
   10.2758  -16.9451   23.5802 C   0  0  0  0  0  0  0  0  0  0  0  0
   10.2142  -18.1969   23.5835 O   0  0  0  0  0  0  0  0  0  0  0  0
   15.0326  -16.8587   22.1254 C   0  0  0  0  0  0  0  0  0  0  0  0
   13.7510  -16.1402   22.4305 C   0  0  1  0  0  0  0  0  0  0  0  0
   13.1462  -15.6755   21.1246 C   0  0  0  0  0  0  0  0  0  0  0  0
   12.7653  -16.9920   23.2184 C   0  0  2  0  0  0  0  0  0  0  0  0
   11.5235  -16.2780   23.4403 N   0  0  0  0  0  0  0  0  0  0  0  0
   13.3440  -17.5142   24.4664 C   0  0  0  0  0  0  0  0  0  0  0  0
   13.1064  -17.0375   25.6029 O   0  0  0  0  0  0  0  0  0  0  0  0
   14.2050  -18.5995   24.3885 O   0  0  0  0  0  0  0  0  0  0  0  0
  1  2  1  0
  3  2  1  0
  3  4  2  0
  5  3  1  0
  6  5  1  0
  6  7  1  1
  7  8  1  0
  8  9  2  0
  8 16  1  0
  9 10  1  0
 10 11  1  0
 11 12  2  0
 12 13  1  0
 14 13  2  0
 15 14  1  0
 16 15  2  0
 16 11  1  0
 17  6  1  0
 18 17  2  0
 20 21  1  6
 20 19  1  0
 22 20  1  0
 22 23  1  1
 23 17  1  0
 24 22  1  0
 25 24  2  0
 26 24  1  0
M  END
$$$$
