AVP.pdb
     RDKit          3D

 20 20  0  0  1  0  0  0  0  0999 V2000
    9.6435  -17.3262   21.6936 C   0  0  0  0  0  0  0  0  0  0  0  0
    8.9106  -16.0084   21.5336 C   0  0  2  0  0  0  0  0  0  0  0  0
    9.5747  -15.2876   20.4635 N   0  0  0  0  0  0  0  0  0  0  0  0
    8.9945  -15.1837   22.7614 C   0  0  0  0  0  0  0  0  0  0  0  0
    9.9716  -14.3835   22.9620 O   0  0  0  0  0  0  0  0  0  0  0  0
    6.8647  -13.8190   27.0432 C   0  0  0  0  0  0  0  0  0  0  0  0
    6.8165  -14.0524   25.5480 C   0  0  1  0  0  0  0  0  0  0  0  0
    6.2550  -12.8532   24.8572 C   0  0  0  0  0  0  0  0  0  0  0  0
    8.1908  -14.4394   25.0192 C   0  0  2  0  0  0  0  0  0  0  0  0
    8.0159  -15.2181   23.7890 N   0  0  0  0  0  0  0  0  0  0  0  0
    8.8605  -15.2969   26.0241 C   0  0  0  0  0  0  0  0  0  0  0  0
    8.5602  -16.5370   25.9743 O   0  0  0  0  0  0  0  0  0  0  0  0
    9.7825  -14.8156   26.9939 N   0  0  0  0  0  0  0  0  0  0  0  0
   10.1723  -13.4876   27.3657 C   0  0  0  0  0  0  0  0  0  0  0  0
   10.3005  -13.6156   28.8946 C   0  0  0  0  0  0  0  0  0  0  0  0
   11.2187  -14.8552   28.9107 C   0  0  0  0  0  0  0  0  0  0  0  0
   10.5444  -15.7334   27.8491 C   0  0  1  0  0  0  0  0  0  0  0  0
    9.6823  -16.7320   28.5120 C   0  0  0  0  0  0  0  0  0  0  0  0
    8.4401  -16.5936   28.4849 O   0  0  0  0  0  0  0  0  0  0  0  0
   10.2248  -17.8139   29.1583 O   0  0  0  0  0  0  0  0  0  0  0  0
  2  1  1  1
  2  3  1  0
  4  2  1  0
  4  5  2  0
  7  6  1  1
  7  9  1  0
  8  7  1  0
  9 10  1  6
  9 11  1  0
 10  4  1  0
 11 13  1  0
 12 11  2  0
 13 14  1  0
 13 17  1  0
 14 15  1  0
 15 16  1  0
 17 16  1  0
 18 20  1  0
 17 18  1  1
 19 18  2  0
M  END
$$$$
