AVP.pdb
     RDKit          3D

 20 20  0  0  1  0  0  0  0  0999 V2000
    9.9264  -17.5203   21.6614 C   0  0  0  0  0  0  0  0  0  0  0  0
    9.2146  -16.1918   21.4941 C   0  0  2  0  0  0  0  0  0  0  0  0
    9.9209  -15.4668   20.4544 N   0  0  0  0  0  0  0  0  0  0  0  0
    9.2691  -15.3826   22.7339 C   0  0  0  0  0  0  0  0  0  0  0  0
   10.2070  -14.5375   22.9381 O   0  0  0  0  0  0  0  0  0  0  0  0
    6.9208  -13.8395   26.8223 C   0  0  0  0  0  0  0  0  0  0  0  0
    6.9740  -14.2142   25.3563 C   0  0  1  0  0  0  0  0  0  0  0  0
    6.4447  -13.0962   24.5193 C   0  0  0  0  0  0  0  0  0  0  0  0
    8.3848  -14.6241   24.9565 C   0  0  2  0  0  0  0  0  0  0  0  0
    8.3036  -15.4814   23.7696 N   0  0  0  0  0  0  0  0  0  0  0  0
    8.9803  -15.4105   26.0613 C   0  0  0  0  0  0  0  0  0  0  0  0
    8.7115  -16.6587   26.0530 O   0  0  0  0  0  0  0  0  0  0  0  0
    9.8022  -14.8556   27.0806 N   0  0  0  0  0  0  0  0  0  0  0  0
   10.0736  -13.4998   27.4572 C   0  0  0  0  0  0  0  0  0  0  0  0
   10.1120  -13.6032   28.9927 C   0  0  0  0  0  0  0  0  0  0  0  0
   11.1116  -14.7748   29.0848 C   0  0  0  0  0  0  0  0  0  0  0  0
   10.5698  -15.7089   27.9955 C   0  0  1  0  0  0  0  0  0  0  0  0
    9.7389  -16.7592   28.6167 C   0  0  0  0  0  0  0  0  0  0  0  0
    8.4956  -16.7216   28.4899 O   0  0  0  0  0  0  0  0  0  0  0  0
   10.3115  -17.7801   29.3324 O   0  0  0  0  0  0  0  0  0  0  0  0
  2  1  1  1
  2  3  1  0
  4  2  1  0
  4  5  2  0
  7  6  1  1
  7  9  1  0
  8  7  1  0
  9 10  1  6
  9 11  1  0
 10  4  1  0
 11 13  1  0
 12 11  2  0
 13 14  1  0
 13 17  1  0
 14 15  1  0
 15 16  1  0
 17 16  1  0
 18 20  1  0
 17 18  1  1
 19 18  2  0
M  END
$$$$
