AVP.pdb
     RDKit          3D

 20 20  0  0  1  0  0  0  0  0999 V2000
   12.0231  -17.9792   22.9394 C   0  0  0  0  0  0  0  0  0  0  0  0
   11.3443  -17.2416   21.8016 C   0  0  2  0  0  0  0  0  0  0  0  0
   12.3897  -16.8490   20.8748 N   0  0  0  0  0  0  0  0  0  0  0  0
   10.6668  -16.0120   22.2745 C   0  0  0  0  0  0  0  0  0  0  0  0
   11.3156  -14.9287   22.4769 O   0  0  0  0  0  0  0  0  0  0  0  0
    7.7940  -13.8493   20.8657 C   0  0  0  0  0  0  0  0  0  0  0  0
    7.4180  -14.4098   22.2210 C   0  0  1  0  0  0  0  0  0  0  0  0
    6.5379  -15.6054   22.0579 C   0  0  0  0  0  0  0  0  0  0  0  0
    8.6635  -14.7107   23.0433 C   0  0  2  0  0  0  0  0  0  0  0  0
    9.2730  -15.9434   22.5341 N   0  0  0  0  0  0  0  0  0  0  0  0
    8.2590  -14.9358   24.4502 C   0  0  0  0  0  0  0  0  0  0  0  0
    8.2871  -16.1509   24.8413 O   0  0  0  0  0  0  0  0  0  0  0  0
    7.8619  -13.8999   25.3399 N   0  0  0  0  0  0  0  0  0  0  0  0
    7.7542  -12.4812   25.1678 C   0  0  0  0  0  0  0  0  0  0  0  0
    6.4717  -12.1665   25.9591 C   0  0  0  0  0  0  0  0  0  0  0  0
    6.8686  -12.8816   27.2672 C   0  0  0  0  0  0  0  0  0  0  0  0
    7.4555  -14.1890   26.7203 C   0  0  1  0  0  0  0  0  0  0  0  0
    6.4369  -15.2550   26.7959 C   0  0  0  0  0  0  0  0  0  0  0  0
    5.7003  -15.4792   25.8109 O   0  0  0  0  0  0  0  0  0  0  0  0
    6.2864  -16.0071   27.9335 O   0  0  0  0  0  0  0  0  0  0  0  0
  2  1  1  1
  2  3  1  0
  4  2  1  0
  4  5  2  0
  7  6  1  6
  7  9  1  0
  8  7  1  0
  9 10  1  6
  9 11  1  0
 10  4  1  0
 11 13  1  0
 12 11  2  0
 13 14  1  0
 13 17  1  0
 14 15  1  0
 15 16  1  0
 17 16  1  0
 18 20  1  0
 17 18  1  6
 19 18  2  0
M  END
$$$$
