AVP.pdb
     RDKit          3D

 20 20  0  0  1  0  0  0  0  0999 V2000
    9.3291  -17.1011   21.6273 C   0  0  0  0  0  0  0  0  0  0  0  0
    8.6652  -15.7408   21.5356 C   0  0  2  0  0  0  0  0  0  0  0  0
    9.3424  -15.0152   20.4770 N   0  0  0  0  0  0  0  0  0  0  0  0
    8.8221  -14.9702   22.7911 C   0  0  0  0  0  0  0  0  0  0  0  0
    9.8437  -14.2286   22.9954 O   0  0  0  0  0  0  0  0  0  0  0  0
    6.8401  -13.8368   27.2001 C   0  0  0  0  0  0  0  0  0  0  0  0
    6.7656  -13.8698   25.6882 C   0  0  1  0  0  0  0  0  0  0  0  0
    6.2730  -12.5593   25.1680 C   0  0  0  0  0  0  0  0  0  0  0  0
    8.1093  -14.2657   25.0918 C   0  0  2  0  0  0  0  0  0  0  0  0
    7.8692  -14.9957   23.8429 N   0  0  0  0  0  0  0  0  0  0  0  0
    8.7987  -15.1726   26.0383 C   0  0  0  0  0  0  0  0  0  0  0  0
    8.5058  -16.4101   25.9241 O   0  0  0  0  0  0  0  0  0  0  0  0
    9.7310  -14.7389   27.0206 N   0  0  0  0  0  0  0  0  0  0  0  0
   10.1312  -13.4305   27.4468 C   0  0  0  0  0  0  0  0  0  0  0  0
   10.2710  -13.6259   28.9675 C   0  0  0  0  0  0  0  0  0  0  0  0
   11.1824  -14.8698   28.9218 C   0  0  0  0  0  0  0  0  0  0  0  0
   10.4947  -15.6972   27.8285 C   0  0  1  0  0  0  0  0  0  0  0  0
    9.6325  -16.7193   28.4542 C   0  0  0  0  0  0  0  0  0  0  0  0
    8.3907  -16.5746   28.4415 O   0  0  0  0  0  0  0  0  0  0  0  0
   10.1742  -17.8300   29.0503 O   0  0  0  0  0  0  0  0  0  0  0  0
  2  1  1  1
  2  3  1  0
  4  2  1  0
  4  5  2  0
  7  6  1  1
  7  9  1  0
  8  7  1  0
  9 10  1  6
  9 11  1  0
 10  4  1  0
 11 13  1  0
 12 11  2  0
 13 14  1  0
 13 17  1  0
 14 15  1  0
 15 16  1  0
 17 16  1  0
 18 20  1  0
 17 18  1  1
 19 18  2  0
M  END
$$$$
