AVP.pdb
     RDKit          3D

 20 20  0  0  1  0  0  0  0  0999 V2000
    7.2953  -19.9040   24.1777 C   0  0  0  0  0  0  0  0  0  0  0  0
    6.1808  -19.1132   24.8350 C   0  0  2  0  0  0  0  0  0  0  0  0
    4.9311  -19.6792   24.3622 N   0  0  0  0  0  0  0  0  0  0  0  0
    6.2158  -17.6862   24.4382 C   0  0  0  0  0  0  0  0  0  0  0  0
    5.5422  -17.2546   23.4406 O   0  0  0  0  0  0  0  0  0  0  0  0
    8.1352  -13.1315   25.1116 C   0  0  0  0  0  0  0  0  0  0  0  0
    7.5889  -14.4245   25.6793 C   0  0  1  0  0  0  0  0  0  0  0  0
    6.4822  -14.1382   26.6405 C   0  0  0  0  0  0  0  0  0  0  0  0
    7.1608  -15.3647   24.5609 C   0  0  2  0  0  0  0  0  0  0  0  0
    6.9845  -16.7081   25.1217 N   0  0  0  0  0  0  0  0  0  0  0  0
    8.2405  -15.4187   23.5485 C   0  0  0  0  0  0  0  0  0  0  0  0
    9.3038  -16.0247   23.9125 O   0  0  0  0  0  0  0  0  0  0  0  0
    8.1420  -14.8508   22.2485 N   0  0  0  0  0  0  0  0  0  0  0  0
    7.0706  -14.1733   21.5801 C   0  0  0  0  0  0  0  0  0  0  0  0
    7.8250  -13.0653   20.8228 C   0  0  0  0  0  0  0  0  0  0  0  0
    8.8727  -13.9714   20.1435 C   0  0  0  0  0  0  0  0  0  0  0  0
    9.2693  -14.8861   21.3092 C   0  0  1  0  0  0  0  0  0  0  0  0
   10.5229  -14.3953   21.9152 C   0  0  0  0  0  0  0  0  0  0  0  0
   10.4912  -13.8214   23.0254 O   0  0  0  0  0  0  0  0  0  0  0  0
   11.7264  -14.5609   21.2776 O   0  0  0  0  0  0  0  0  0  0  0  0
  2  1  1  6
  2  3  1  0
  4  2  1  0
  4  5  2  0
  7  6  1  6
  7  9  1  0
  8  7  1  0
  9 10  1  1
  9 11  1  0
 10  4  1  0
 11 13  1  0
 12 11  2  0
 13 14  1  0
 13 17  1  0
 14 15  1  0
 15 16  1  0
 17 16  1  0
 18 20  1  0
 17 18  1  1
 19 18  2  0
M  END
$$$$
