QIR.pdb
     RDKit          3D

 29 28  0  0  1  0  0  0  0  0999 V2000
   18.8111  -25.4452   -9.7026 N   0  0  0  0  0  0  0  0  0  0  0  0
   18.7585  -25.7433   -8.3270 C   0  0  0  0  0  0  0  0  0  0  0  0
   18.1204  -26.7859   -7.9761 O   0  0  0  0  0  0  0  0  0  0  0  0
   19.4235  -24.8775   -7.2908 C   0  0  0  0  0  0  0  0  0  0  0  0
   20.1705  -23.7714   -7.9720 C   0  0  0  0  0  0  0  0  0  0  0  0
   20.8552  -22.8098   -7.0633 C   0  0  2  0  0  0  0  0  0  0  0  0
   19.7892  -22.0797   -6.3587 N   0  0  0  0  0  0  0  0  0  0  0  0
   21.6273  -21.8045   -7.8204 C   0  0  0  0  0  0  0  0  0  0  0  0
   21.0340  -20.7909   -8.2542 O   0  0  0  0  0  0  0  0  0  0  0  0
   26.7611  -20.1868   -6.7167 C   0  0  0  0  0  0  0  0  0  0  0  0
   25.2829  -20.2739   -7.0367 C   0  0  0  0  0  0  0  0  0  0  0  0
   25.1618  -20.7836   -8.4515 C   0  0  2  0  0  0  0  0  0  0  0  0
   25.8315  -19.8078   -9.3981 C   0  0  0  0  0  0  0  0  0  0  0  0
   23.7364  -20.9476   -8.8924 C   0  0  2  0  0  0  0  0  0  0  0  0
   23.0165  -21.9162   -8.0908 N   0  0  0  0  0  0  0  0  0  0  0  0
   23.6109  -21.2538  -10.3323 C   0  0  0  0  0  0  0  0  0  0  0  0
   24.0484  -22.3569  -10.7492 O   0  0  0  0  0  0  0  0  0  0  0  0
   17.0241  -19.5544  -15.7181 N   0  0  0  0  0  0  0  0  0  0  0  0
   18.1832  -19.3955  -16.5345 C   0  0  0  0  0  0  0  0  0  0  0  0
   18.0545  -18.8671  -17.6807 N   0  0  0  0  0  0  0  0  0  0  0  0
   19.4721  -19.8122  -16.0976 N   0  0  0  0  0  0  0  0  0  0  0  0
   19.6011  -20.4556  -14.8224 C   0  0  0  0  0  0  0  0  0  0  0  0
   21.0023  -20.7604  -14.4301 C   0  0  0  0  0  0  0  0  0  0  0  0
   21.4167  -20.4178  -13.0515 C   0  0  0  0  0  0  0  0  0  0  0  0
   22.8182  -20.7143  -12.6647 C   0  0  2  0  0  0  0  0  0  0  0  0
   23.0287  -20.3741  -11.2514 N   0  0  0  0  0  0  0  0  0  0  0  0
   23.8747  -20.2329  -13.5442 C   0  0  0  0  0  0  0  0  0  0  0  0
   24.4835  -19.1336  -13.3218 O   0  0  0  0  0  0  0  0  0  0  0  0
   24.2758  -20.9414  -14.6649 O   0  0  0  0  0  0  0  0  0  0  0  0
  2  1  1  0
  2  3  2  0
  4  2  1  0
  5  4  1  0
  5  6  1  0
  6  7  1  6
  8  6  1  0
  8  9  2  0
 11 10  1  0
 12 11  1  0
 12 14  1  0
 12 13  1  6
 14 15  1  1
 15  8  1  0
 16 26  1  0
 16 14  1  0
 17 16  2  0
 18 19  1  0
 19 21  1  0
 20 19  2  0
 21 22  1  0
 22 23  1  0
 23 24  1  0
 25 24  1  6
 25 26  1  0
 25 27  1  0
 27 29  1  0
 28 27  2  0
M  END
$$$$
