QIR.pdb
     RDKit          3D

 29 28  0  0  1  0  0  0  0  0999 V2000
   26.2683  -22.6150  -19.9933 N   0  0  0  0  0  0  0  0  0  0  0  0
   26.9313  -23.8573  -19.9592 C   0  0  0  0  0  0  0  0  0  0  0  0
   27.3312  -24.3401  -21.0658 O   0  0  0  0  0  0  0  0  0  0  0  0
   27.1701  -24.6061  -18.6756 C   0  0  0  0  0  0  0  0  0  0  0  0
   26.5852  -23.8333  -17.5327 C   0  0  0  0  0  0  0  0  0  0  0  0
   27.4287  -22.7186  -17.0180 C   0  0  2  0  0  0  0  0  0  0  0  0
   28.5458  -23.3481  -16.2958 N   0  0  0  0  0  0  0  0  0  0  0  0
   26.6982  -21.8961  -16.0333 C   0  0  0  0  0  0  0  0  0  0  0  0
   26.6643  -22.2736  -14.8401 O   0  0  0  0  0  0  0  0  0  0  0  0
   27.3337  -16.7385  -16.0128 C   0  0  0  0  0  0  0  0  0  0  0  0
   27.1129  -18.1009  -15.3882 C   0  0  0  0  0  0  0  0  0  0  0  0
   25.6435  -18.4179  -15.5164 C   0  0  2  0  0  0  0  0  0  0  0  0
   24.8718  -17.6739  -14.4451 C   0  0  0  0  0  0  0  0  0  0  0  0
   25.3470  -19.8815  -15.3643 C   0  0  2  0  0  0  0  0  0  0  0  0
   26.0235  -20.6900  -16.3582 N   0  0  0  0  0  0  0  0  0  0  0  0
   23.8995  -20.1759  -15.3380 C   0  0  0  0  0  0  0  0  0  0  0  0
   23.2366  -20.0103  -16.3940 O   0  0  0  0  0  0  0  0  0  0  0  0
   18.3730  -25.8604  -11.3493 N   0  0  0  0  0  0  0  0  0  0  0  0
   19.6090  -25.9196  -12.0593 C   0  0  0  0  0  0  0  0  0  0  0  0
   20.0622  -27.0540  -12.4019 N   0  0  0  0  0  0  0  0  0  0  0  0
   20.3416  -24.7451  -12.3906 N   0  0  0  0  0  0  0  0  0  0  0  0
   19.8088  -23.4650  -12.0238 C   0  0  0  0  0  0  0  0  0  0  0  0
   20.0936  -22.3813  -13.0007 C   0  0  0  0  0  0  0  0  0  0  0  0
   21.5110  -22.0279  -13.2364 C   0  0  0  0  0  0  0  0  0  0  0  0
   21.7908  -20.9011  -14.1604 C   0  0  2  0  0  0  0  0  0  0  0  0
   23.2339  -20.6295  -14.1939 N   0  0  0  0  0  0  0  0  0  0  0  0
   20.9745  -19.7024  -14.0255 C   0  0  0  0  0  0  0  0  0  0  0  0
   21.2568  -18.7906  -13.1784 O   0  0  0  0  0  0  0  0  0  0  0  0
   19.8524  -19.4871  -14.8087 O   0  0  0  0  0  0  0  0  0  0  0  0
  2  1  1  0
  2  3  2  0
  4  2  1  0
  5  4  1  0
  5  6  1  0
  6  7  1  1
  8  6  1  0
  8  9  2  0
 11 10  1  0
 12 11  1  0
 12 14  1  0
 12 13  1  1
 14 15  1  6
 15  8  1  0
 16 26  1  0
 16 14  1  0
 17 16  2  0
 18 19  1  0
 19 21  1  0
 20 19  2  0
 21 22  1  0
 22 23  1  0
 23 24  1  0
 25 24  1  1
 25 26  1  0
 25 27  1  0
 27 29  1  0
 28 27  2  0
M  END
$$$$
