QIR.pdb
     RDKit          3D

 29 28  0  0  1  0  0  0  0  0999 V2000
   27.6437  -17.2269  -15.4490 N   0  0  0  0  0  0  0  0  0  0  0  0
   28.4044  -17.8584  -16.4523 C   0  0  0  0  0  0  0  0  0  0  0  0
   29.3522  -17.1924  -16.9772 O   0  0  0  0  0  0  0  0  0  0  0  0
   28.1270  -19.2668  -16.9047 C   0  0  0  0  0  0  0  0  0  0  0  0
   27.0469  -19.8596  -16.0517 C   0  0  0  0  0  0  0  0  0  0  0  0
   27.5073  -20.8402  -15.0291 C   0  0  2  0  0  0  0  0  0  0  0  0
   27.9091  -22.0474  -15.7688 N   0  0  0  0  0  0  0  0  0  0  0  0
   26.4077  -21.2417  -14.1295 C   0  0  0  0  0  0  0  0  0  0  0  0
   25.6218  -22.1418  -14.5032 O   0  0  0  0  0  0  0  0  0  0  0  0
   26.6269  -20.4769   -8.6608 C   0  0  0  0  0  0  0  0  0  0  0  0
   26.3217  -21.2569   -9.9231 C   0  0  0  0  0  0  0  0  0  0  0  0
   25.1802  -20.5553  -10.6163 C   0  0  2  0  0  0  0  0  0  0  0  0
   23.8847  -20.8632   -9.8925 C   0  0  0  0  0  0  0  0  0  0  0  0
   25.0189  -20.9776  -12.0477 C   0  0  2  0  0  0  0  0  0  0  0  0
   26.1824  -20.6643  -12.8522 N   0  0  0  0  0  0  0  0  0  0  0  0
   23.7874  -20.4482  -12.6688 C   0  0  0  0  0  0  0  0  0  0  0  0
   23.7264  -19.2173  -12.9204 O   0  0  0  0  0  0  0  0  0  0  0  0
   19.6337  -24.8906  -16.7137 N   0  0  0  0  0  0  0  0  0  0  0  0
   18.3792  -24.2814  -16.4133 C   0  0  0  0  0  0  0  0  0  0  0  0
   17.3748  -25.0263  -16.1990 N   0  0  0  0  0  0  0  0  0  0  0  0
   18.2274  -22.8677  -16.3484 N   0  0  0  0  0  0  0  0  0  0  0  0
   19.3705  -22.0330  -16.5799 C   0  0  0  0  0  0  0  0  0  0  0  0
   19.7728  -21.2085  -15.4100 C   0  0  0  0  0  0  0  0  0  0  0  0
   21.0338  -21.5653  -14.7230 C   0  0  0  0  0  0  0  0  0  0  0  0
   21.4502  -20.7217  -13.5755 C   0  0  2  0  0  0  0  0  0  0  0  0
   22.6880  -21.2522  -12.9891 N   0  0  0  0  0  0  0  0  0  0  0  0
   20.4354  -20.3823  -12.5874 C   0  0  0  0  0  0  0  0  0  0  0  0
   20.2707  -21.0767  -11.5295 O   0  0  0  0  0  0  0  0  0  0  0  0
   19.5984  -19.2893  -12.7413 O   0  0  0  0  0  0  0  0  0  0  0  0
  2  1  1  0
  2  3  2  0
  4  2  1  0
  5  4  1  0
  5  6  1  0
  6  7  1  6
  8  6  1  0
  8  9  2  0
 11 10  1  0
 12 11  1  0
 12 14  1  0
 12 13  1  1
 14 15  1  6
 15  8  1  0
 16 26  1  0
 16 14  1  0
 17 16  2  0
 18 19  1  0
 19 21  1  0
 20 19  2  0
 21 22  1  0
 22 23  1  0
 23 24  1  0
 25 24  1  6
 25 26  1  0
 25 27  1  0
 27 29  1  0
 28 27  2  0
M  END
$$$$
