QIR.pdb
     RDKit          3D

 29 28  0  0  1  0  0  0  0  0999 V2000
   28.1045  -18.6593  -17.2442 N   0  0  0  0  0  0  0  0  0  0  0  0
   28.5957  -19.2483  -18.4256 C   0  0  0  0  0  0  0  0  0  0  0  0
   29.3971  -18.5613  -19.1350 O   0  0  0  0  0  0  0  0  0  0  0  0
   28.2029  -20.6362  -18.8554 C   0  0  0  0  0  0  0  0  0  0  0  0
   27.3070  -21.2431  -17.8188 C   0  0  0  0  0  0  0  0  0  0  0  0
   27.9852  -21.6824  -16.5673 C   0  0  2  0  0  0  0  0  0  0  0  0
   28.6967  -22.9269  -16.9005 N   0  0  0  0  0  0  0  0  0  0  0  0
   27.0095  -22.0223  -15.5127 C   0  0  0  0  0  0  0  0  0  0  0  0
   26.4376  -23.1351  -15.5572 O   0  0  0  0  0  0  0  0  0  0  0  0
   25.9173  -20.9083   -9.6196 C   0  0  0  0  0  0  0  0  0  0  0  0
   25.3544  -21.5003  -10.8955 C   0  0  0  0  0  0  0  0  0  0  0  0
   26.2278  -21.0264  -12.0306 C   0  0  2  0  0  0  0  0  0  0  0  0
   26.1965  -19.5124  -12.0929 C   0  0  0  0  0  0  0  0  0  0  0  0
   25.7850  -21.5509  -13.3655 C   0  0  2  0  0  0  0  0  0  0  0  0
   26.6748  -21.1563  -14.4387 N   0  0  0  0  0  0  0  0  0  0  0  0
   24.3846  -21.2046  -13.6843 C   0  0  0  0  0  0  0  0  0  0  0  0
   24.1471  -20.0753  -14.1846 O   0  0  0  0  0  0  0  0  0  0  0  0
   17.1452  -26.0859  -15.3905 N   0  0  0  0  0  0  0  0  0  0  0  0
   16.6354  -24.7682  -15.1931 C   0  0  0  0  0  0  0  0  0  0  0  0
   15.4056  -24.5499  -15.4161 N   0  0  0  0  0  0  0  0  0  0  0  0
   17.4668  -23.6993  -14.7548 N   0  0  0  0  0  0  0  0  0  0  0  0
   18.8535  -23.9570  -14.4946 C   0  0  0  0  0  0  0  0  0  0  0  0
   19.6584  -22.7403  -14.2084 C   0  0  0  0  0  0  0  0  0  0  0  0
   21.1040  -22.9218  -13.9498 C   0  0  0  0  0  0  0  0  0  0  0  0
   21.9126  -21.7030  -13.6996 C   0  0  2  0  0  0  0  0  0  0  0  0
   23.3126  -22.0741  -13.4553 N   0  0  0  0  0  0  0  0  0  0  0  0
   21.3909  -20.7342  -12.7453 C   0  0  0  0  0  0  0  0  0  0  0  0
   21.6669  -20.8027  -11.5013 O   0  0  0  0  0  0  0  0  0  0  0  0
   20.5713  -19.6879  -13.1360 O   0  0  0  0  0  0  0  0  0  0  0  0
  2  1  1  0
  2  3  2  0
  4  2  1  0
  5  4  1  0
  5  6  1  0
  6  7  1  6
  8  6  1  0
  8  9  2  0
 11 10  1  0
 12 11  1  0
 12 14  1  0
 12 13  1  6
 14 15  1  6
 15  8  1  0
 16 26  1  0
 16 14  1  0
 17 16  2  0
 18 19  1  0
 19 21  1  0
 20 19  2  0
 21 22  1  0
 22 23  1  0
 23 24  1  0
 25 24  1  1
 25 26  1  0
 25 27  1  0
 27 29  1  0
 28 27  2  0
M  END
$$$$
