QIR.pdb
     RDKit          3D

 29 28  0  0  1  0  0  0  0  0999 V2000
   25.9687  -21.3198  -19.2492 N   0  0  0  0  0  0  0  0  0  0  0  0
   24.8860  -20.7989  -18.5141 C   0  0  0  0  0  0  0  0  0  0  0  0
   23.7158  -21.1606  -18.8561 O   0  0  0  0  0  0  0  0  0  0  0  0
   25.0790  -19.8485  -17.3630 C   0  0  0  0  0  0  0  0  0  0  0  0
   24.6296  -20.5065  -16.0939 C   0  0  0  0  0  0  0  0  0  0  0  0
   25.7207  -20.9120  -15.1643 C   0  0  2  0  0  0  0  0  0  0  0  0
   26.4230  -22.0286  -15.8169 N   0  0  0  0  0  0  0  0  0  0  0  0
   25.1829  -21.4358  -13.8930 C   0  0  0  0  0  0  0  0  0  0  0  0
   24.8459  -22.6400  -13.8321 O   0  0  0  0  0  0  0  0  0  0  0  0
   26.9346  -19.5357   -9.1213 C   0  0  0  0  0  0  0  0  0  0  0  0
   26.4890  -20.6248  -10.0755 C   0  0  0  0  0  0  0  0  0  0  0  0
   25.0027  -20.4620  -10.2760 C   0  0  2  0  0  0  0  0  0  0  0  0
   24.2683  -21.0015   -9.0650 C   0  0  0  0  0  0  0  0  0  0  0  0
   24.4938  -21.1913  -11.4852 C   0  0  2  0  0  0  0  0  0  0  0  0
   25.0218  -20.6505  -12.7213 N   0  0  0  0  0  0  0  0  0  0  0  0
   23.0193  -21.2730  -11.5300 C   0  0  0  0  0  0  0  0  0  0  0  0
   22.3934  -20.4162  -12.2054 O   0  0  0  0  0  0  0  0  0  0  0  0
   17.4119  -25.8315   -6.2146 N   0  0  0  0  0  0  0  0  0  0  0  0
   16.5661  -25.1437   -7.1348 C   0  0  0  0  0  0  0  0  0  0  0  0
   15.3113  -25.3120   -7.0532 N   0  0  0  0  0  0  0  0  0  0  0  0
   17.0918  -24.2790   -8.1356 N   0  0  0  0  0  0  0  0  0  0  0  0
   18.5132  -24.1956   -8.3078 C   0  0  0  0  0  0  0  0  0  0  0  0
   18.9452  -23.2706   -9.3884 C   0  0  0  0  0  0  0  0  0  0  0  0
   20.3981  -23.1396   -9.6365 C   0  0  0  0  0  0  0  0  0  0  0  0
   20.8272  -22.2192  -10.7184 C   0  0  2  0  0  0  0  0  0  0  0  0
   22.2890  -22.2582  -10.8564 N   0  0  0  0  0  0  0  0  0  0  0  0
   20.2777  -20.8704  -10.7111 C   0  0  0  0  0  0  0  0  0  0  0  0
   20.7236  -19.9688   -9.9258 O   0  0  0  0  0  0  0  0  0  0  0  0
   19.2459  -20.4941  -11.5554 O   0  0  0  0  0  0  0  0  0  0  0  0
  2  1  1  0
  2  3  2  0
  4  2  1  0
  5  4  1  0
  5  6  1  0
  6  7  1  6
  8  6  1  0
  8  9  2  0
 11 10  1  0
 12 11  1  0
 12 14  1  0
 12 13  1  1
 14 15  1  6
 15  8  1  0
 16 26  1  0
 16 14  1  0
 17 16  2  0
 18 19  1  0
 19 21  1  0
 20 19  2  0
 21 22  1  0
 22 23  1  0
 23 24  1  0
 25 24  1  1
 25 26  1  0
 25 27  1  0
 27 29  1  0
 28 27  2  0
M  END
$$$$
