RKF.pdb
     RDKit          3D

 32 32  0  0  1  0  0  0  0  0999 V2000
    7.6565  -14.5108   14.8212 N   0  0  0  0  0  0  0  0  0  0  0  0
    7.9180  -13.6679   15.9236 C   0  0  0  0  0  0  0  0  0  0  0  0
    8.0730  -12.3954   15.7624 N   0  0  0  0  0  0  0  0  0  0  0  0
    8.0195  -14.1895   17.2511 N   0  0  0  0  0  0  0  0  0  0  0  0
    8.1995  -15.6326   17.4924 C   0  0  0  0  0  0  0  0  0  0  0  0
    7.1951  -16.0177   18.5166 C   0  0  0  0  0  0  0  0  0  0  0  0
    7.7018  -16.4145   19.8504 C   0  0  0  0  0  0  0  0  0  0  0  0
    7.7686  -17.8659   20.1500 C   0  0  2  0  0  0  0  0  0  0  0  0
    6.6216  -18.6159   19.7443 N   0  0  0  0  0  0  0  0  0  0  0  0
    7.9104  -18.0321   21.6308 C   0  0  0  0  0  0  0  0  0  0  0  0
    6.9046  -17.9079   22.4073 O   0  0  0  0  0  0  0  0  0  0  0  0
    8.2674  -11.7312   16.5162 N   0  0  0  0  0  0  0  0  0  0  0  0
    9.1766  -18.3349   22.2130 C   0  0  2  0  0  0  0  0  0  0  0  0
    9.4433  -18.3729   23.6154 C   0  0  0  0  0  0  0  0  0  0  0  0
    9.7102  -19.7123   24.1670 C   0  0  0  0  0  0  0  0  0  0  0  0
    9.9776  -19.9978   25.5625 C   0  0  0  0  0  0  0  0  0  0  0  0
   10.2417  -21.3296   26.0899 C   0  0  0  0  0  0  0  0  0  0  0  0
   10.4910  -21.5057   27.5407 N   0  0  0  0  0  0  0  0  0  0  0  0
   10.6443  -22.9230   27.8801 C   0  0  0  0  0  0  0  0  0  0  0  0
   10.2758  -17.3057   24.1793 O   0  0  0  0  0  0  0  0  0  0  0  0
   11.0520  -17.5833   25.1555 N   0  0  0  0  0  0  0  0  0  0  0  0
   10.2995  -15.9516   23.7324 C   0  0  1  0  0  0  0  0  0  0  0  0
    9.6803  -14.9197   24.5374 C   0  0  0  0  0  0  0  0  0  0  0  0
    8.4042  -14.4111   23.9508 C   0  0  0  0  0  0  0  0  0  0  0  0
    7.7133  -13.3891   24.7446 C   0  0  0  0  0  0  0  0  0  0  0  0
    6.4881  -13.7035   25.2975 C   0  0  0  0  0  0  0  0  0  0  0  0
    5.8318  -12.7698   26.0335 C   0  0  0  0  0  0  0  0  0  0  0  0
    6.3438  -11.5155   26.2506 C   0  0  0  0  0  0  0  0  0  0  0  0
    7.5643  -11.1985   25.7013 C   0  0  0  0  0  0  0  0  0  0  0  0
    8.2561  -12.1167   24.9517 C   0  0  0  0  0  0  0  0  0  0  0  0
    9.4351  -15.4753   25.8949 O   0  0  0  0  0  0  0  0  0  0  0  0
    8.6981  -16.4648   26.0592 O   0  0  0  0  0  0  0  0  0  0  0  0
  1  2  1  0
  2  3  2  0
  4  2  1  0
  4  5  1  0
  6  5  1  0
  7  8  1  0
  7  6  1  0
  8  9  1  1
 10  8  1  0
 11 10  2  0
 12 10  1  0
 13 19  1  0
 13 12  1  0
 14 15  1  0
 13 14  1  6
 15 16  1  0
 17 16  1  0
 17 18  1  0
 19 21  1  0
 20 19  2  0
 21 22  1  0
 22 30  1  0
 22 23  1  6
 24 23  1  0
 24 29  2  0
 25 24  1  0
 26 25  2  0
 26 27  1  0
 27 28  2  0
 28 29  1  0
 30 31  2  0
 30 32  1  0
M  END
$$$$
