RKF.pdb
     RDKit          3D

 32 32  0  0  1  0  0  0  0  0999 V2000
    8.3512  -13.2489   16.4189 N   0  0  0  0  0  0  0  0  0  0  0  0
    8.5359  -13.1993   17.8181 C   0  0  0  0  0  0  0  0  0  0  0  0
    8.7378  -12.0741   18.4201 N   0  0  0  0  0  0  0  0  0  0  0  0
    8.5056  -14.3862   18.6150 N   0  0  0  0  0  0  0  0  0  0  0  0
    7.2286  -15.0075   19.0105 C   0  0  0  0  0  0  0  0  0  0  0  0
    6.8034  -14.3359   20.2652 C   0  0  0  0  0  0  0  0  0  0  0  0
    7.2823  -14.9138   21.5419 C   0  0  0  0  0  0  0  0  0  0  0  0
    7.2496  -16.3908   21.6761 C   0  0  2  0  0  0  0  0  0  0  0  0
    5.9420  -16.9530   21.8050 N   0  0  0  0  0  0  0  0  0  0  0  0
    8.0205  -16.7664   22.9030 C   0  0  0  0  0  0  0  0  0  0  0  0
    7.4484  -16.8490   24.0414 O   0  0  0  0  0  0  0  0  0  0  0  0
    8.9850  -11.9772   19.4084 N   0  0  0  0  0  0  0  0  0  0  0  0
    9.4178  -17.0428   22.8305 C   0  0  2  0  0  0  0  0  0  0  0  0
   10.2577  -17.3089   23.9544 C   0  0  0  0  0  0  0  0  0  0  0  0
   11.5915  -17.8421   23.6283 C   0  0  0  0  0  0  0  0  0  0  0  0
   11.8833  -18.7287   22.5195 C   0  0  0  0  0  0  0  0  0  0  0  0
   13.2117  -19.2363   22.2048 C   0  0  0  0  0  0  0  0  0  0  0  0
   13.3863  -20.1753   21.0708 N   0  0  0  0  0  0  0  0  0  0  0  0
   14.7855  -20.5916   20.9429 C   0  0  0  0  0  0  0  0  0  0  0  0
   10.2410  -16.3459   25.0600 O   0  0  0  0  0  0  0  0  0  0  0  0
    9.8296  -15.1577   24.8332 N   0  0  0  0  0  0  0  0  0  0  0  0
   10.6542  -16.6155   26.3980 C   0  0  1  0  0  0  0  0  0  0  0  0
   10.1753  -15.7795   27.4787 C   0  0  0  0  0  0  0  0  0  0  0  0
    8.6860  -15.7725   27.5933 C   0  0  0  0  0  0  0  0  0  0  0  0
    8.0245  -14.5643   27.0889 C   0  0  0  0  0  0  0  0  0  0  0  0
    8.3773  -13.3458   27.6332 C   0  0  0  0  0  0  0  0  0  0  0  0
    7.7742  -12.2162   27.1811 C   0  0  0  0  0  0  0  0  0  0  0  0
    6.8196  -12.2395   26.1959 C   0  0  0  0  0  0  0  0  0  0  0  0
    6.4653  -13.4517   25.6511 C   0  0  0  0  0  0  0  0  0  0  0  0
    7.0536  -14.6139   26.0831 C   0  0  0  0  0  0  0  0  0  0  0  0
   10.7848  -16.2649   28.7455 O   0  0  0  0  0  0  0  0  0  0  0  0
   10.7594  -15.5689   29.7771 O   0  0  0  0  0  0  0  0  0  0  0  0
  1  2  1  0
  2  3  2  0
  4  2  1  0
  4  5  1  0
  6  5  1  0
  7  8  1  0
  7  6  1  0
  8  9  1  1
 10  8  1  0
 11 10  2  0
 12 10  1  0
 13 19  1  0
 13 12  1  0
 14 15  1  0
 13 14  1  6
 15 16  1  0
 17 16  1  0
 17 18  1  0
 19 21  1  0
 20 19  2  0
 21 22  1  0
 22 30  1  0
 22 23  1  1
 24 23  1  0
 24 29  2  0
 25 24  1  0
 26 25  2  0
 26 27  1  0
 27 28  2  0
 28 29  1  0
 30 31  2  0
 30 32  1  0
M  END
$$$$
