RKF.pdb
     RDKit          3D

 32 32  0  0  1  0  0  0  0  0999 V2000
    7.7613  -23.4738   20.5103 N   0  0  0  0  0  0  0  0  0  0  0  0
    8.4303  -23.5259   19.2677 C   0  0  0  0  0  0  0  0  0  0  0  0
    7.9083  -24.1433   18.2599 N   0  0  0  0  0  0  0  0  0  0  0  0
    9.7024  -22.9002   19.0810 N   0  0  0  0  0  0  0  0  0  0  0  0
    9.8823  -21.4546   19.3068 C   0  0  0  0  0  0  0  0  0  0  0  0
    9.0094  -21.0947   20.4533 C   0  0  0  0  0  0  0  0  0  0  0  0
    9.1724  -19.7419   21.0337 C   0  0  0  0  0  0  0  0  0  0  0  0
    8.3334  -18.6544   20.4734 C   0  0  2  0  0  0  0  0  0  0  0  0
    8.2300  -18.6497   19.0480 N   0  0  0  0  0  0  0  0  0  0  0  0
    8.9310  -17.3443   20.8824 C   0  0  0  0  0  0  0  0  0  0  0  0
   10.1965  -17.1809   20.9224 O   0  0  0  0  0  0  0  0  0  0  0  0
    8.3531  -24.2448   17.3438 N   0  0  0  0  0  0  0  0  0  0  0  0
    8.0986  -16.2422   21.2384 C   0  0  1  0  0  0  0  0  0  0  0  0
    8.5719  -14.9750   21.6960 C   0  0  0  0  0  0  0  0  0  0  0  0
    7.7981  -13.8112   21.2306 C   0  0  0  0  0  0  0  0  0  0  0  0
    8.1070  -13.0254   20.0526 C   0  0  0  0  0  0  0  0  0  0  0  0
    8.2022  -13.5716   18.7058 C   0  0  0  0  0  0  0  0  0  0  0  0
    8.5838  -12.6837   17.5815 N   0  0  0  0  0  0  0  0  0  0  0  0
    8.7801  -13.4506   16.3484 C   0  0  0  0  0  0  0  0  0  0  0  0
    9.0353  -14.8820   23.0840 O   0  0  0  0  0  0  0  0  0  0  0  0
    9.7765  -13.8967   23.4191 N   0  0  0  0  0  0  0  0  0  0  0  0
    8.7323  -15.8125   24.1213 C   0  0  1  0  0  0  0  0  0  0  0  0
    9.1417  -15.5294   25.4808 C   0  0  0  0  0  0  0  0  0  0  0  0
    7.9939  -15.4753   26.4352 C   0  0  0  0  0  0  0  0  0  0  0  0
    7.1885  -14.2507   26.3779 C   0  0  0  0  0  0  0  0  0  0  0  0
    7.7801  -13.0574   26.7406 C   0  0  0  0  0  0  0  0  0  0  0  0
    7.0501  -11.9131   26.6964 C   0  0  0  0  0  0  0  0  0  0  0  0
    5.7361  -11.8973   26.3019 C   0  0  0  0  0  0  0  0  0  0  0  0
    5.1431  -13.0843   25.9398 C   0  0  0  0  0  0  0  0  0  0  0  0
    5.8499  -14.2602   25.9721 C   0  0  0  0  0  0  0  0  0  0  0  0
   10.1094  -16.5775   25.9014 O   0  0  0  0  0  0  0  0  0  0  0  0
   10.3792  -17.5373   25.1560 O   0  0  0  0  0  0  0  0  0  0  0  0
  1  2  1  0
  2  3  2  0
  4  2  1  0
  4  5  1  0
  6  5  1  0
  7  8  1  0
  7  6  1  0
  8  9  1  6
 10  8  1  0
 11 10  2  0
 12 10  1  0
 13 19  1  0
 13 12  1  0
 14 15  1  0
 13 14  1  1
 15 16  1  0
 17 16  1  0
 17 18  1  0
 19 21  1  0
 20 19  2  0
 21 22  1  0
 22 30  1  0
 22 23  1  1
 24 23  1  0
 24 29  2  0
 25 24  1  0
 26 25  2  0
 26 27  1  0
 27 28  2  0
 28 29  1  0
 30 31  2  0
 30 32  1  0
M  END
$$$$
