RKF.pdb
     RDKit          3D

 32 32  0  0  1  0  0  0  0  0999 V2000
    9.7539  -13.8671   18.6591 N   0  0  0  0  0  0  0  0  0  0  0  0
    8.7162  -13.0772   18.1173 C   0  0  0  0  0  0  0  0  0  0  0  0
    8.6395  -12.8666   16.8449 N   0  0  0  0  0  0  0  0  0  0  0  0
    7.7180  -12.4856   18.9529 N   0  0  0  0  0  0  0  0  0  0  0  0
    7.5352  -12.9216   20.3492 C   0  0  0  0  0  0  0  0  0  0  0  0
    7.6051  -14.4051   20.3406 C   0  0  0  0  0  0  0  0  0  0  0  0
    7.3520  -15.1053   21.6209 C   0  0  0  0  0  0  0  0  0  0  0  0
    7.5124  -16.5800   21.6345 C   0  0  2  0  0  0  0  0  0  0  0  0
    6.3168  -17.3163   21.3686 N   0  0  0  0  0  0  0  0  0  0  0  0
    7.9946  -16.9857   22.9922 C   0  0  0  0  0  0  0  0  0  0  0  0
    7.1758  -17.1733   23.9536 O   0  0  0  0  0  0  0  0  0  0  0  0
    7.8994  -12.3291   16.3861 N   0  0  0  0  0  0  0  0  0  0  0  0
    9.3853  -17.1740   23.2464 C   0  0  2  0  0  0  0  0  0  0  0  0
    9.9397  -17.5809   24.4979 C   0  0  0  0  0  0  0  0  0  0  0  0
   10.9855  -18.6148   24.4141 C   0  0  0  0  0  0  0  0  0  0  0  0
   10.7688  -19.9830   23.9883 C   0  0  0  0  0  0  0  0  0  0  0  0
   10.8343  -21.1367   24.8749 C   0  0  0  0  0  0  0  0  0  0  0  0
   10.6087  -22.4952   24.3258 N   0  0  0  0  0  0  0  0  0  0  0  0
    9.2425  -22.9516   24.5951 C   0  0  0  0  0  0  0  0  0  0  0  0
   10.1903  -16.5418   25.5016 O   0  0  0  0  0  0  0  0  0  0  0  0
   10.9036  -15.5330   25.1761 N   0  0  0  0  0  0  0  0  0  0  0  0
    9.7038  -16.5522   26.8421 C   0  0  1  0  0  0  0  0  0  0  0  0
   10.1074  -15.5075   27.7596 C   0  0  0  0  0  0  0  0  0  0  0  0
    8.9501  -14.7562   28.3319 C   0  0  0  0  0  0  0  0  0  0  0  0
    8.1875  -13.9527   27.3703 C   0  0  0  0  0  0  0  0  0  0  0  0
    8.6545  -12.6940   27.0490 C   0  0  0  0  0  0  0  0  0  0  0  0
    7.9610  -11.9340   26.1627 C   0  0  0  0  0  0  0  0  0  0  0  0
    6.8044  -12.3726   25.5691 C   0  0  0  0  0  0  0  0  0  0  0  0
    6.3359  -13.6262   25.8867 C   0  0  0  0  0  0  0  0  0  0  0  0
    7.0103  -14.4222   26.7782 C   0  0  0  0  0  0  0  0  0  0  0  0
   10.9041  -16.1303   28.8501 O   0  0  0  0  0  0  0  0  0  0  0  0
   11.0313  -17.3663   28.9256 O   0  0  0  0  0  0  0  0  0  0  0  0
  1  2  1  0
  2  3  2  0
  4  2  1  0
  4  5  1  0
  6  5  1  0
  7  8  1  0
  7  6  1  0
  8  9  1  1
 10  8  1  0
 11 10  2  0
 12 10  1  0
 13 19  1  0
 13 12  1  0
 14 15  1  0
 13 14  1  1
 15 16  1  0
 17 16  1  0
 17 18  1  0
 19 21  1  0
 20 19  2  0
 21 22  1  0
 22 30  1  0
 22 23  1  1
 24 23  1  0
 24 29  2  0
 25 24  1  0
 26 25  2  0
 26 27  1  0
 27 28  2  0
 28 29  1  0
 30 31  2  0
 30 32  1  0
M  END
$$$$
