RKF.pdb
     RDKit          3D

 32 32  0  0  1  0  0  0  0  0999 V2000
  -20.7497  -89.0426   69.8293 N   0  0  0  0  0  0  0  0  0  0  0  0
  -19.5161  -89.2151   70.4947 C   0  0  0  0  0  0  0  0  0  0  0  0
  -19.4728  -89.6776   71.7003 N   0  0  0  0  0  0  0  0  0  0  0  0
  -18.2770  -88.8865   69.8612 N   0  0  0  0  0  0  0  0  0  0  0  0
  -17.2415  -89.9105   69.6329 C   0  0  0  0  0  0  0  0  0  0  0  0
  -17.3877  -90.9089   70.7227 C   0  0  0  0  0  0  0  0  0  0  0  0
  -17.3926  -92.3392   70.3385 C   0  0  0  0  0  0  0  0  0  0  0  0
  -18.1953  -92.7234   69.1516 C   0  0  2  0  0  0  0  0  0  0  0  0
  -18.5171  -91.6455   68.2701 N   0  0  0  0  0  0  0  0  0  0  0  0
  -19.4866  -93.3102   69.6300 C   0  0  0  0  0  0  0  0  0  0  0  0
  -20.3451  -92.5970   70.2499 O   0  0  0  0  0  0  0  0  0  0  0  0
  -20.2732  -90.0677   72.2046 N   0  0  0  0  0  0  0  0  0  0  0  0
  -19.7912  -94.6851   69.4040 C   0  0  1  0  0  0  0  0  0  0  0  0
  -20.3114  -95.2173   68.1853 C   0  0  0  0  0  0  0  0  0  0  0  0
  -21.0400  -96.4907   68.3175 C   0  0  0  0  0  0  0  0  0  0  0  0
  -20.5140  -97.7905   67.9513 C   0  0  0  0  0  0  0  0  0  0  0  0
  -19.6877  -98.6147   68.8227 C   0  0  0  0  0  0  0  0  0  0  0  0
  -18.7057  -97.9682   69.7258 N   0  0  0  0  0  0  0  0  0  0  0  0
  -17.7741  -97.1244   68.9726 C   0  0  0  0  0  0  0  0  0  0  0  0
  -20.9002  -94.2759   67.2277 O   0  0  0  0  0  0  0  0  0  0  0  0
  -20.1651  -93.8124   66.2911 N   0  0  0  0  0  0  0  0  0  0  0  0
  -22.2493  -93.8139   67.2450 C   0  0  2  0  0  0  0  0  0  0  0  0
  -23.3258  -94.7523   67.4828 C   0  0  0  0  0  0  0  0  0  0  0  0
  -24.6137  -94.3325   66.8532 C   0  0  0  0  0  0  0  0  0  0  0  0
  -24.6073  -92.9985   66.2431 C   0  0  0  0  0  0  0  0  0  0  0  0
  -24.7343  -92.9023   64.8719 C   0  0  0  0  0  0  0  0  0  0  0  0
  -24.7282  -91.6762   64.2882 C   0  0  0  0  0  0  0  0  0  0  0  0
  -24.5995  -90.5195   65.0148 C   0  0  0  0  0  0  0  0  0  0  0  0
  -24.4727  -90.6113   66.3814 C   0  0  0  0  0  0  0  0  0  0  0  0
  -24.4747  -91.8334   67.0057 C   0  0  0  0  0  0  0  0  0  0  0  0
  -22.9079  -96.0800   66.9591 O   0  0  0  0  0  0  0  0  0  0  0  0
  -22.4945  -96.2076   65.7920 O   0  0  0  0  0  0  0  0  0  0  0  0
  1  2  1  0
  2  3  2  0
  4  2  1  0
  4  5  1  0
  6  5  1  0
  7  8  1  0
  7  6  1  0
  8  9  1  6
 10  8  1  0
 11 10  2  0
 12 10  1  0
 13 19  1  0
 13 12  1  0
 14 15  1  0
 13 14  1  6
 15 16  1  0
 17 16  1  0
 17 18  1  0
 19 21  1  0
 20 19  2  0
 21 22  1  0
 22 30  1  0
 22 23  1  1
 24 23  1  0
 24 29  2  0
 25 24  1  0
 26 25  2  0
 26 27  1  0
 27 28  2  0
 28 29  1  0
 30 31  2  0
 30 32  1  0
M  END
$$$$
