DKL.pdb
     RDKit          3D

 26 25  0  0  1  0  0  0  0  0999 V2000
   26.7512  -21.3454  -18.9128 N   0  0  0  0  0  0  0  0  0  0  0  0
   27.1784  -21.6575  -17.5824 C   0  0  1  0  0  0  0  0  0  0  0  0
   28.6651  -21.4634  -17.4202 C   0  0  0  0  0  0  0  0  0  0  0  0
   29.4073  -22.6947  -17.7086 C   0  0  0  0  0  0  0  0  0  0  0  0
   28.7845  -23.7544  -18.0469 O   0  0  0  0  0  0  0  0  0  0  0  0
   26.3893  -20.8658  -16.6131 C   0  0  0  0  0  0  0  0  0  0  0  0
   26.7882  -20.7197  -15.4196 O   0  0  0  0  0  0  0  0  0  0  0  0
   30.7972  -22.7531  -17.6256 O   0  0  0  0  0  0  0  0  0  0  0  0
   25.1748  -20.2694  -17.0351 N   0  0  0  0  0  0  0  0  0  0  0  0
   24.3954  -19.4469  -16.1289 C   0  0  1  0  0  0  0  0  0  0  0  0
   23.2059  -18.9412  -16.9452 C   0  0  0  0  0  0  0  0  0  0  0  0
   22.3172  -18.1201  -16.0673 C   0  0  0  0  0  0  0  0  0  0  0  0
   21.0957  -17.6647  -16.7899 C   0  0  0  0  0  0  0  0  0  0  0  0
   20.2121  -16.8348  -15.9038 C   0  0  0  0  0  0  0  0  0  0  0  0
   18.9356  -16.5592  -16.5585 N   0  0  0  0  0  0  0  0  0  0  0  0
   23.8976  -20.2884  -15.0266 C   0  0  0  0  0  0  0  0  0  0  0  0
   23.3636  -21.3990  -15.3090 O   0  0  0  0  0  0  0  0  0  0  0  0
   25.1787  -22.6353  -10.2654 C   0  0  0  0  0  0  0  0  0  0  0  0
   24.8947  -21.1731  -10.2929 C   0  0  1  0  0  0  0  0  0  0  0  0
   25.8402  -20.4524   -9.3257 C   0  0  0  0  0  0  0  0  0  0  0  0
   24.8043  -20.5003  -11.5944 C   0  0  0  0  0  0  0  0  0  0  0  0
   23.7277  -20.7961  -12.5521 C   0  0  2  0  0  0  0  0  0  0  0  0
   24.0057  -19.8848  -13.7064 N   0  0  0  0  0  0  0  0  0  0  0  0
   22.3436  -20.6333  -12.1772 C   0  0  0  0  0  0  0  0  0  0  0  0
   21.5695  -21.7239  -11.7346 O   0  0  0  0  0  0  0  0  0  0  0  0
   21.7540  -19.5393  -12.2196 O   0  0  0  0  0  0  0  0  0  0  0  0
  2  6  1  0
  2  1  1  6
  3  2  1  0
  4  3  1  0
  5  4  2  0
  6  7  2  0
  8  4  1  0
  9 10  1  0
  9  6  1  0
 11 12  1  0
 10 11  1  6
 12 13  1  0
 13 14  1  0
 14 15  1  0
 16 10  1  0
 16 17  2  0
 19 21  1  0
 19 18  1  6
 20 19  1  0
 22 21  1  1
 22 23  1  0
 22 24  1  0
 23 16  1  0
 24 26  2  0
 24 25  1  0
M  END
$$$$
