DKL.pdb
     RDKit          3D

 26 25  0  0  1  0  0  0  0  0999 V2000
   17.2990  -24.0521  -14.1346 N   0  0  0  0  0  0  0  0  0  0  0  0
   18.2302  -23.0111  -14.4496 C   0  0  1  0  0  0  0  0  0  0  0  0
   17.8889  -21.7294  -13.7320 C   0  0  0  0  0  0  0  0  0  0  0  0
   17.0762  -20.8400  -14.5677 C   0  0  0  0  0  0  0  0  0  0  0  0
   16.0704  -21.2987  -15.2027 O   0  0  0  0  0  0  0  0  0  0  0  0
   19.6052  -23.4773  -14.1648 C   0  0  0  0  0  0  0  0  0  0  0  0
   19.9112  -23.9312  -13.0222 O   0  0  0  0  0  0  0  0  0  0  0  0
   17.3666  -19.4831  -14.6978 O   0  0  0  0  0  0  0  0  0  0  0  0
   20.5830  -23.4103  -15.1886 N   0  0  0  0  0  0  0  0  0  0  0  0
   21.9334  -23.8891  -14.9604 C   0  0  1  0  0  0  0  0  0  0  0  0
   22.3636  -24.5580  -16.2659 C   0  0  0  0  0  0  0  0  0  0  0  0
   23.6936  -25.2123  -16.0714 C   0  0  0  0  0  0  0  0  0  0  0  0
   24.8123  -24.3293  -16.5077 C   0  0  0  0  0  0  0  0  0  0  0  0
   26.1374  -25.0260  -16.3922 C   0  0  0  0  0  0  0  0  0  0  0  0
   27.2224  -24.1484  -16.8243 N   0  0  0  0  0  0  0  0  0  0  0  0
   22.8127  -22.7357  -14.7000 C   0  0  0  0  0  0  0  0  0  0  0  0
   22.6579  -21.6902  -15.3937 O   0  0  0  0  0  0  0  0  0  0  0  0
   25.5847  -20.8679   -9.6353 C   0  0  0  0  0  0  0  0  0  0  0  0
   25.4933  -20.6895  -11.1116 C   0  0  1  0  0  0  0  0  0  0  0  0
   26.8762  -20.3341  -11.6683 C   0  0  0  0  0  0  0  0  0  0  0  0
   24.8197  -21.7262  -11.9030 C   0  0  0  0  0  0  0  0  0  0  0  0
   24.6333  -21.5995  -13.3567 C   0  0  2  0  0  0  0  0  0  0  0  0
   23.7907  -22.7818  -13.7207 N   0  0  0  0  0  0  0  0  0  0  0  0
   25.7703  -21.5703  -14.2450 C   0  0  0  0  0  0  0  0  0  0  0  0
   26.2890  -22.7505  -14.8130 O   0  0  0  0  0  0  0  0  0  0  0  0
   26.3563  -20.5202  -14.5616 O   0  0  0  0  0  0  0  0  0  0  0  0
  2  6  1  0
  2  1  1  1
  3  2  1  0
  4  3  1  0
  5  4  2  0
  6  7  2  0
  8  4  1  0
  9 10  1  0
  9  6  1  0
 11 12  1  0
 10 11  1  6
 12 13  1  0
 13 14  1  0
 14 15  1  0
 16 10  1  0
 16 17  2  0
 19 21  1  0
 19 18  1  1
 20 19  1  0
 22 21  1  1
 22 23  1  0
 22 24  1  0
 23 16  1  0
 24 26  2  0
 24 25  1  0
M  END
$$$$
