DKL.pdb
     RDKit          3D

 26 25  0  0  1  0  0  0  0  0999 V2000
   18.8196  -10.6851  -18.8974 N   0  0  0  0  0  0  0  0  0  0  0  0
   19.6767  -10.6942  -17.7506 C   0  0  1  0  0  0  0  0  0  0  0  0
   21.1252  -10.8365  -18.1452 C   0  0  0  0  0  0  0  0  0  0  0  0
   21.3954  -12.1425  -18.7548 C   0  0  0  0  0  0  0  0  0  0  0  0
   20.8376  -13.1924  -18.2946 O   0  0  0  0  0  0  0  0  0  0  0  0
   19.4221   -9.4859  -16.9357 C   0  0  0  0  0  0  0  0  0  0  0  0
   19.4674   -8.3320  -17.4569 O   0  0  0  0  0  0  0  0  0  0  0  0
   22.2568  -12.2838  -19.8412 O   0  0  0  0  0  0  0  0  0  0  0  0
   19.1258   -9.6324  -15.5574 N   0  0  0  0  0  0  0  0  0  0  0  0
   18.7974   -8.4795  -14.7401 C   0  0  1  0  0  0  0  0  0  0  0  0
   18.0066   -9.0245  -13.5508 C   0  0  0  0  0  0  0  0  0  0  0  0
   16.5437   -8.9157  -13.8382 C   0  0  0  0  0  0  0  0  0  0  0  0
   15.7193   -9.2858  -12.6529 C   0  0  0  0  0  0  0  0  0  0  0  0
   14.2518   -9.2227  -12.9647 C   0  0  0  0  0  0  0  0  0  0  0  0
   13.4575   -9.5446  -11.7816 N   0  0  0  0  0  0  0  0  0  0  0  0
   20.0456   -7.8705  -14.2476 C   0  0  0  0  0  0  0  0  0  0  0  0
   21.0567   -8.6123  -14.0878 O   0  0  0  0  0  0  0  0  0  0  0  0
   24.3251   -5.4759  -15.2571 C   0  0  0  0  0  0  0  0  0  0  0  0
   23.0468   -5.3549  -16.0126 C   0  0  1  0  0  0  0  0  0  0  0  0
   23.2842   -5.7324  -17.4789 C   0  0  0  0  0  0  0  0  0  0  0  0
   21.8424   -5.9857  -15.4592 C   0  0  0  0  0  0  0  0  0  0  0  0
   21.3931   -5.7336  -14.0813 C   0  0  2  0  0  0  0  0  0  0  0  0
   20.1238   -6.5177  -13.9624 N   0  0  0  0  0  0  0  0  0  0  0  0
   21.1324   -4.3891  -13.6263 C   0  0  0  0  0  0  0  0  0  0  0  0
   19.9341   -3.7234  -13.9508 O   0  0  0  0  0  0  0  0  0  0  0  0
   21.9341   -3.7416  -12.9304 O   0  0  0  0  0  0  0  0  0  0  0  0
  2  6  1  0
  2  1  1  6
  3  2  1  0
  4  3  1  0
  5  4  2  0
  6  7  2  0
  8  4  1  0
  9 10  1  0
  9  6  1  0
 11 12  1  0
 10 11  1  1
 12 13  1  0
 13 14  1  0
 14 15  1  0
 16 10  1  0
 16 17  2  0
 19 21  1  0
 19 18  1  1
 20 19  1  0
 22 21  1  6
 22 23  1  0
 22 24  1  0
 23 16  1  0
 24 26  2  0
 24 25  1  0
M  END
$$$$
