DKL.pdb
     RDKit          3D

 26 25  0  0  1  0  0  0  0  0999 V2000
   27.9721  -19.3165  -17.6160 N   0  0  0  0  0  0  0  0  0  0  0  0
   27.2622  -20.2763  -16.8255 C   0  0  1  0  0  0  0  0  0  0  0  0
   28.2036  -21.1127  -15.9958 C   0  0  0  0  0  0  0  0  0  0  0  0
   28.6335  -22.3175  -16.7126 C   0  0  0  0  0  0  0  0  0  0  0  0
   28.2625  -22.5140  -17.9163 O   0  0  0  0  0  0  0  0  0  0  0  0
   26.2416  -19.5835  -16.0086 C   0  0  0  0  0  0  0  0  0  0  0  0
   26.5622  -18.6162  -15.2558 O   0  0  0  0  0  0  0  0  0  0  0  0
   29.4498  -23.2769  -16.1164 O   0  0  0  0  0  0  0  0  0  0  0  0
   24.8934  -20.0154  -16.0761 N   0  0  0  0  0  0  0  0  0  0  0  0
   23.8795  -19.4262  -15.2218 C   0  0  1  0  0  0  0  0  0  0  0  0
   22.7043  -19.0922  -16.1406 C   0  0  0  0  0  0  0  0  0  0  0  0
   22.9338  -17.7565  -16.7713 C   0  0  0  0  0  0  0  0  0  0  0  0
   21.8089  -17.3694  -17.6692 C   0  0  0  0  0  0  0  0  0  0  0  0
   22.0531  -16.0330  -18.3089 C   0  0  0  0  0  0  0  0  0  0  0  0
   21.0421  -15.7539  -19.3258 N   0  0  0  0  0  0  0  0  0  0  0  0
   23.4452  -20.4284  -14.2328 C   0  0  0  0  0  0  0  0  0  0  0  0
   23.1208  -21.5795  -14.6427 O   0  0  0  0  0  0  0  0  0  0  0  0
   25.9452  -20.3066   -9.5170 C   0  0  0  0  0  0  0  0  0  0  0  0
   25.1991  -20.7963  -10.7099 C   0  0  1  0  0  0  0  0  0  0  0  0
   25.7764  -22.1449  -11.1535 C   0  0  0  0  0  0  0  0  0  0  0  0
   23.7318  -20.8016  -10.6661 C   0  0  0  0  0  0  0  0  0  0  0  0
   22.9173  -21.1086  -11.8519 C   0  0  2  0  0  0  0  0  0  0  0  0
   23.3890  -20.1302  -12.8817 N   0  0  0  0  0  0  0  0  0  0  0  0
   21.4771  -21.0376  -11.7943 C   0  0  0  0  0  0  0  0  0  0  0  0
   20.7662  -20.0067  -12.4395 O   0  0  0  0  0  0  0  0  0  0  0  0
   20.7814  -21.8670  -11.1822 O   0  0  0  0  0  0  0  0  0  0  0  0
  2  6  1  0
  2  1  1  1
  3  2  1  0
  4  3  1  0
  5  4  2  0
  6  7  2  0
  8  4  1  0
  9 10  1  0
  9  6  1  0
 11 12  1  0
 10 11  1  6
 12 13  1  0
 13 14  1  0
 14 15  1  0
 16 10  1  0
 16 17  2  0
 19 21  1  0
 19 18  1  1
 20 19  1  0
 22 21  1  1
 22 23  1  0
 22 24  1  0
 23 16  1  0
 24 26  2  0
 24 25  1  0
M  END
$$$$
