DKL.pdb
     RDKit          3D

 26 25  0  0  1  0  0  0  0  0999 V2000
   17.7100  -15.9910  -16.2190 N   0  0  0  0  0  0  0  0  0  0  0  0
   19.0419  -15.6732  -16.6373 C   0  0  1  0  0  0  0  0  0  0  0  0
   19.4373  -16.4573  -17.8633 C   0  0  0  0  0  0  0  0  0  0  0  0
   19.4199  -17.9019  -17.6120 C   0  0  0  0  0  0  0  0  0  0  0  0
   19.0353  -18.7064  -18.5231 O   0  0  0  0  0  0  0  0  0  0  0  0
   19.1621  -14.2113  -16.8301 C   0  0  0  0  0  0  0  0  0  0  0  0
   20.2386  -13.7016  -17.2616 O   0  0  0  0  0  0  0  0  0  0  0  0
   19.8159  -18.4413  -16.3896 O   0  0  0  0  0  0  0  0  0  0  0  0
   18.0545  -13.3812  -16.5249 N   0  0  0  0  0  0  0  0  0  0  0  0
   18.0838  -11.9617  -16.8236 C   0  0  1  0  0  0  0  0  0  0  0  0
   16.6407  -11.4774  -16.6829 C   0  0  0  0  0  0  0  0  0  0  0  0
   15.8307  -11.9978  -17.8265 C   0  0  0  0  0  0  0  0  0  0  0  0
   14.3805  -11.6983  -17.6572 C   0  0  0  0  0  0  0  0  0  0  0  0
   13.5668  -12.2770  -18.7787 C   0  0  0  0  0  0  0  0  0  0  0  0
   12.1384  -12.1520  -18.4992 N   0  0  0  0  0  0  0  0  0  0  0  0
   18.9190  -11.2783  -15.8203 C   0  0  0  0  0  0  0  0  0  0  0  0
   18.7746  -11.5879  -14.6031 O   0  0  0  0  0  0  0  0  0  0  0  0
   24.2432  -11.4459  -14.7157 C   0  0  0  0  0  0  0  0  0  0  0  0
   22.8816  -10.9350  -14.3923 C   0  0  1  0  0  0  0  0  0  0  0  0
   22.9595  -10.0178  -13.1669 C   0  0  0  0  0  0  0  0  0  0  0  0
   22.0735  -10.3585  -15.4736 C   0  0  0  0  0  0  0  0  0  0  0  0
   20.7914   -9.6853  -15.2153 C   0  0  2  0  0  0  0  0  0  0  0  0
   19.8453  -10.3169  -16.1879 N   0  0  0  0  0  0  0  0  0  0  0  0
   20.6733   -8.2527  -15.3426 C   0  0  0  0  0  0  0  0  0  0  0  0
   20.9180   -7.3958  -14.2516 O   0  0  0  0  0  0  0  0  0  0  0  0
   20.3534   -7.6906  -16.4048 O   0  0  0  0  0  0  0  0  0  0  0  0
  2  6  1  0
  2  1  1  6
  3  2  1  0
  4  3  1  0
  5  4  2  0
  6  7  2  0
  8  4  1  0
  9 10  1  0
  9  6  1  0
 11 12  1  0
 10 11  1  1
 12 13  1  0
 13 14  1  0
 14 15  1  0
 16 10  1  0
 16 17  2  0
 19 21  1  0
 19 18  1  6
 20 19  1  0
 22 21  1  6
 22 23  1  0
 22 24  1  0
 23 16  1  0
 24 26  2  0
 24 25  1  0
M  END
$$$$
