DKL.pdb
     RDKit          3D

 26 25  0  0  1  0  0  0  0  0999 V2000
   19.3632  -15.4666  -17.8195 N   0  0  0  0  0  0  0  0  0  0  0  0
   18.4846  -14.4506  -17.3239 C   0  0  1  0  0  0  0  0  0  0  0  0
   18.0123  -14.7629  -15.9262 C   0  0  0  0  0  0  0  0  0  0  0  0
   17.3027  -16.0448  -15.8673 C   0  0  0  0  0  0  0  0  0  0  0  0
   16.6453  -16.4606  -16.8774 O   0  0  0  0  0  0  0  0  0  0  0  0
   19.1503  -13.1329  -17.4215 C   0  0  0  0  0  0  0  0  0  0  0  0
   20.3375  -12.9752  -17.0081 O   0  0  0  0  0  0  0  0  0  0  0  0
   17.3193  -16.8436  -14.7255 O   0  0  0  0  0  0  0  0  0  0  0  0
   18.4426  -12.0418  -17.9849 N   0  0  0  0  0  0  0  0  0  0  0  0
   19.0461  -10.7248  -18.0643 C   0  0  1  0  0  0  0  0  0  0  0  0
   18.1206   -9.8964  -18.9555 C   0  0  0  0  0  0  0  0  0  0  0  0
   18.2422  -10.3685  -20.3687 C   0  0  0  0  0  0  0  0  0  0  0  0
   17.3222   -9.6290  -21.2788 C   0  0  0  0  0  0  0  0  0  0  0  0
   17.4313  -10.1268  -22.6912 C   0  0  0  0  0  0  0  0  0  0  0  0
   16.5325   -9.3849  -23.5719 N   0  0  0  0  0  0  0  0  0  0  0  0
   19.0743  -10.1289  -16.7170 C   0  0  0  0  0  0  0  0  0  0  0  0
   18.6147  -10.8013  -15.7501 O   0  0  0  0  0  0  0  0  0  0  0  0
   22.7985   -8.4808  -13.4936 C   0  0  0  0  0  0  0  0  0  0  0  0
   22.6965   -9.5639  -14.5115 C   0  0  1  0  0  0  0  0  0  0  0  0
   22.8781  -10.9237  -13.8283 C   0  0  0  0  0  0  0  0  0  0  0  0
   21.5590   -9.5499  -15.4391 C   0  0  0  0  0  0  0  0  0  0  0  0
   20.4948   -8.5379  -15.3530 C   0  0  2  0  0  0  0  0  0  0  0  0
   19.5896   -8.8621  -16.5000 N   0  0  0  0  0  0  0  0  0  0  0  0
   20.8100   -7.1310  -15.4159 C   0  0  0  0  0  0  0  0  0  0  0  0
   20.8693   -6.3390  -14.2524 O   0  0  0  0  0  0  0  0  0  0  0  0
   21.0458   -6.5361  -16.4822 O   0  0  0  0  0  0  0  0  0  0  0  0
  2  6  1  0
  2  1  1  1
  3  2  1  0
  4  3  1  0
  5  4  2  0
  6  7  2  0
  8  4  1  0
  9 10  1  0
  9  6  1  0
 11 12  1  0
 10 11  1  6
 12 13  1  0
 13 14  1  0
 14 15  1  0
 16 10  1  0
 16 17  2  0
 19 21  1  0
 19 18  1  1
 20 19  1  0
 22 21  1  6
 22 23  1  0
 22 24  1  0
 23 16  1  0
 24 26  2  0
 24 25  1  0
M  END
$$$$
