GFC.pdb
     RDKit          3D

 22 22  0  0  1  0  0  0  0  0999 V2000
    5.6867  -19.4443   22.8250 N   0  0  0  0  0  0  0  0  0  0  0  0
    5.7523  -18.2192   23.5597 C   0  0  0  0  0  0  0  0  0  0  0  0
    6.8478  -17.3312   23.0827 C   0  0  0  0  0  0  0  0  0  0  0  0
    7.6860  -17.7263   22.2159 O   0  0  0  0  0  0  0  0  0  0  0  0
    6.9584  -16.0154   23.6071 N   0  0  0  0  0  0  0  0  0  0  0  0
    8.0247  -15.1142   23.2859 C   0  0  1  0  0  0  0  0  0  0  0  0
    7.4875  -13.6871   23.4463 C   0  0  0  0  0  0  0  0  0  0  0  0
    7.1989  -13.3814   24.8520 C   0  0  0  0  0  0  0  0  0  0  0  0
    6.0475  -13.8412   25.4317 C   0  0  0  0  0  0  0  0  0  0  0  0
    5.7979  -13.5365   26.7678 C   0  0  0  0  0  0  0  0  0  0  0  0
    6.7146  -12.7796   27.4760 C   0  0  0  0  0  0  0  0  0  0  0  0
    7.8761  -12.3225   26.8711 C   0  0  0  0  0  0  0  0  0  0  0  0
    8.1221  -12.6232   25.5530 C   0  0  0  0  0  0  0  0  0  0  0  0
    9.2187  -15.2857   24.1348 C   0  0  0  0  0  0  0  0  0  0  0  0
   10.2452  -14.5928   24.0710 O   0  0  0  0  0  0  0  0  0  0  0  0
    9.1938  -16.3264   25.1032 N   0  0  0  0  0  0  0  0  0  0  0  0
   10.3130  -16.6940   25.9191 C   0  0  1  0  0  0  0  0  0  0  0  0
   10.4249  -15.8916   27.1858 C   0  0  0  0  0  0  0  0  0  0  0  0
    9.5028  -16.6017   28.5505 S   0  0  0  0  0  0  0  0  0  0  0  0
   10.3607  -18.1474   26.1517 C   0  0  0  0  0  0  0  0  0  0  0  0
    9.4025  -18.8481   25.7338 O   0  0  0  0  0  0  0  0  0  0  0  0
   11.3830  -18.7995   26.7969 O   0  0  0  0  0  0  0  0  0  0  0  0
  2  1  1  0
  2  3  1  0
  3  5  1  0
  3  4  2  0
  5  6  1  0
  6 14  1  0
  6  7  1  1
  8  7  1  0
  8 13  2  0
  9  8  1  0
 10  9  2  0
 10 11  1  0
 11 12  2  0
 12 13  1  0
 14 15  2  0
 14 16  1  0
 16 17  1  0
 17 20  1  0
 17 18  1  1
 19 18  1  0
 20 22  1  0
 21 20  2  0
M  END
$$$$
