GFC.pdb
     RDKit          3D

 22 22  0  0  1  0  0  0  0  0999 V2000
    9.6986  -18.7712   19.1848 N   0  0  0  0  0  0  0  0  0  0  0  0
    8.8192  -18.4235   20.2575 C   0  0  0  0  0  0  0  0  0  0  0  0
    9.3839  -17.3568   21.1290 C   0  0  0  0  0  0  0  0  0  0  0  0
   10.5771  -16.9505   20.9841 O   0  0  0  0  0  0  0  0  0  0  0  0
    8.5721  -16.7813   22.1432 N   0  0  0  0  0  0  0  0  0  0  0  0
    9.0575  -15.8633   23.1301 C   0  0  1  0  0  0  0  0  0  0  0  0
    7.9825  -14.7885   23.3297 C   0  0  0  0  0  0  0  0  0  0  0  0
    7.5991  -14.1749   22.0533 C   0  0  0  0  0  0  0  0  0  0  0  0
    6.5203  -14.6520   21.3593 C   0  0  0  0  0  0  0  0  0  0  0  0
    6.1780  -14.0513   20.1501 C   0  0  0  0  0  0  0  0  0  0  0  0
    6.9322  -12.9909   19.6794 C   0  0  0  0  0  0  0  0  0  0  0  0
    8.0223  -12.5213   20.3971 C   0  0  0  0  0  0  0  0  0  0  0  0
    8.3598  -13.1141   21.5899 C   0  0  0  0  0  0  0  0  0  0  0  0
    9.3623  -16.4970   24.4268 C   0  0  0  0  0  0  0  0  0  0  0  0
    8.5194  -16.8375   25.2703 O   0  0  0  0  0  0  0  0  0  0  0  0
   10.7288  -16.7377   24.7367 N   0  0  0  0  0  0  0  0  0  0  0  0
   11.1878  -17.7999   25.5819 C   0  0  1  0  0  0  0  0  0  0  0  0
   10.5811  -19.1361   25.2539 C   0  0  0  0  0  0  0  0  0  0  0  0
   10.5042  -20.2381   26.6668 S   0  0  0  0  0  0  0  0  0  0  0  0
   12.6581  -17.8375   25.6562 C   0  0  0  0  0  0  0  0  0  0  0  0
   13.1914  -18.0562   26.7749 O   0  0  0  0  0  0  0  0  0  0  0  0
   13.4969  -17.6497   24.5849 O   0  0  0  0  0  0  0  0  0  0  0  0
  2  1  1  0
  2  3  1  0
  3  5  1  0
  3  4  2  0
  5  6  1  0
  6 14  1  0
  6  7  1  1
  8  7  1  0
  8 13  2  0
  9  8  1  0
 10  9  2  0
 10 11  1  0
 11 12  2  0
 12 13  1  0
 14 15  2  0
 14 16  1  0
 16 17  1  0
 17 20  1  0
 17 18  1  6
 19 18  1  0
 20 22  1  0
 21 20  2  0
M  END
$$$$
