GFC.pdb
     RDKit          3D

 22 22  0  0  1  0  0  0  0  0999 V2000
    9.3758  -16.9623   19.0928 N   0  0  0  0  0  0  0  0  0  0  0  0
    8.2573  -16.5830   19.8990 C   0  0  0  0  0  0  0  0  0  0  0  0
    8.6721  -15.9299   21.1708 C   0  0  0  0  0  0  0  0  0  0  0  0
    9.8509  -16.0566   21.6227 O   0  0  0  0  0  0  0  0  0  0  0  0
    7.7309  -15.1491   21.8941 N   0  0  0  0  0  0  0  0  0  0  0  0
    7.9550  -14.6520   23.2188 C   0  0  1  0  0  0  0  0  0  0  0  0
    6.9242  -13.5471   23.4782 C   0  0  0  0  0  0  0  0  0  0  0  0
    7.0306  -13.0299   24.8472 C   0  0  0  0  0  0  0  0  0  0  0  0
    7.9642  -12.0760   25.1496 C   0  0  0  0  0  0  0  0  0  0  0  0
    8.0440  -11.6022   26.4571 C   0  0  0  0  0  0  0  0  0  0  0  0
    7.1821  -12.1038   27.4165 C   0  0  0  0  0  0  0  0  0  0  0  0
    6.2424  -13.0706   27.0907 C   0  0  0  0  0  0  0  0  0  0  0  0
    6.1639  -13.5377   25.8009 C   0  0  0  0  0  0  0  0  0  0  0  0
    7.8380  -15.6854   24.2649 C   0  0  0  0  0  0  0  0  0  0  0  0
    6.9144  -16.5080   24.3553 O   0  0  0  0  0  0  0  0  0  0  0  0
    8.8632  -15.7457   25.2481 N   0  0  0  0  0  0  0  0  0  0  0  0
    9.3972  -16.9640   25.7811 C   0  0  1  0  0  0  0  0  0  0  0  0
   10.1823  -17.7664   24.7807 C   0  0  0  0  0  0  0  0  0  0  0  0
   10.9149  -19.2440   25.4855 S   0  0  0  0  0  0  0  0  0  0  0  0
   10.1311  -16.7314   27.0364 C   0  0  0  0  0  0  0  0  0  0  0  0
   10.2404  -17.6879   27.8470 O   0  0  0  0  0  0  0  0  0  0  0  0
   10.7098  -15.5371   27.3901 O   0  0  0  0  0  0  0  0  0  0  0  0
  2  1  1  0
  2  3  1  0
  3  5  1  0
  3  4  2  0
  5  6  1  0
  6 14  1  0
  6  7  1  1
  8  7  1  0
  8 13  2  0
  9  8  1  0
 10  9  2  0
 10 11  1  0
 11 12  2  0
 12 13  1  0
 14 15  2  0
 14 16  1  0
 16 17  1  0
 17 20  1  0
 17 18  1  6
 19 18  1  0
 20 22  1  0
 21 20  2  0
M  END
$$$$
