GFC.pdb
     RDKit          3D

 22 22  0  0  1  0  0  0  0  0999 V2000
    6.9868  -14.1412   20.1971 N   0  0  0  0  0  0  0  0  0  0  0  0
    6.5757  -14.8308   21.3805 C   0  0  0  0  0  0  0  0  0  0  0  0
    7.6308  -14.8314   22.4306 C   0  0  0  0  0  0  0  0  0  0  0  0
    8.8079  -14.4282   22.1821 O   0  0  0  0  0  0  0  0  0  0  0  0
    7.3153  -15.2920   23.7371 N   0  0  0  0  0  0  0  0  0  0  0  0
    8.2460  -15.3051   24.8261 C   0  0  1  0  0  0  0  0  0  0  0  0
    7.4480  -15.0945   26.1183 C   0  0  0  0  0  0  0  0  0  0  0  0
    7.1363  -13.6760   26.3268 C   0  0  0  0  0  0  0  0  0  0  0  0
    5.8405  -13.2793   26.5185 C   0  0  0  0  0  0  0  0  0  0  0  0
    5.5723  -11.9265   26.7142 C   0  0  0  0  0  0  0  0  0  0  0  0
    6.6162  -11.0182   26.7105 C   0  0  0  0  0  0  0  0  0  0  0  0
    7.9231  -11.4395   26.5145 C   0  0  0  0  0  0  0  0  0  0  0  0
    8.1874  -12.7740   26.3215 C   0  0  0  0  0  0  0  0  0  0  0  0
    9.0191  -16.5572   24.9273 C   0  0  0  0  0  0  0  0  0  0  0  0
    8.5295  -17.6936   25.0087 O   0  0  0  0  0  0  0  0  0  0  0  0
   10.4373  -16.4565   24.9320 N   0  0  0  0  0  0  0  0  0  0  0  0
   11.3239  -17.5779   25.0320 C   0  0  1  0  0  0  0  0  0  0  0  0
   12.6816  -17.3276   24.4363 C   0  0  0  0  0  0  0  0  0  0  0  0
   12.6087  -16.5123   22.8404 S   0  0  0  0  0  0  0  0  0  0  0  0
   11.3856  -18.0998   26.4076 C   0  0  0  0  0  0  0  0  0  0  0  0
   10.7135  -17.5145   27.2962 O   0  0  0  0  0  0  0  0  0  0  0  0
   12.1293  -19.1877   26.7950 O   0  0  0  0  0  0  0  0  0  0  0  0
  2  1  1  0
  2  3  1  0
  3  5  1  0
  3  4  2  0
  5  6  1  0
  6 14  1  0
  6  7  1  1
  8  7  1  0
  8 13  2  0
  9  8  1  0
 10  9  2  0
 10 11  1  0
 11 12  2  0
 12 13  1  0
 14 15  2  0
 14 16  1  0
 16 17  1  0
 17 20  1  0
 17 18  1  1
 19 18  1  0
 20 22  1  0
 21 20  2  0
M  END
$$$$
