GFC.pdb
     RDKit          3D

 22 22  0  0  1  0  0  0  0  0999 V2000
    9.3780  -16.8938   19.0198 N   0  0  0  0  0  0  0  0  0  0  0  0
    8.2343  -16.5807   19.8190 C   0  0  0  0  0  0  0  0  0  0  0  0
    8.6012  -15.8918   21.0866 C   0  0  0  0  0  0  0  0  0  0  0  0
    9.7968  -15.8859   21.5112 O   0  0  0  0  0  0  0  0  0  0  0  0
    7.5941  -15.2273   21.8369 N   0  0  0  0  0  0  0  0  0  0  0  0
    7.8164  -14.6314   23.1206 C   0  0  1  0  0  0  0  0  0  0  0  0
    6.6083  -13.7399   23.4315 C   0  0  0  0  0  0  0  0  0  0  0  0
    6.7292  -13.1220   24.7568 C   0  0  0  0  0  0  0  0  0  0  0  0
    6.0186  -13.6220   25.8143 C   0  0  0  0  0  0  0  0  0  0  0  0
    6.1518  -13.0166   27.0617 C   0  0  0  0  0  0  0  0  0  0  0  0
    6.9950  -11.9287   27.2036 C   0  0  0  0  0  0  0  0  0  0  0  0
    7.7070  -11.4362   26.1200 C   0  0  0  0  0  0  0  0  0  0  0  0
    7.5755  -12.0336   24.8895 C   0  0  0  0  0  0  0  0  0  0  0  0
    7.9908  -15.6148   24.2060 C   0  0  0  0  0  0  0  0  0  0  0  0
    7.1214  -16.4081   24.5968 O   0  0  0  0  0  0  0  0  0  0  0  0
    9.2538  -15.6592   24.8573 N   0  0  0  0  0  0  0  0  0  0  0  0
    9.7167  -16.7652   25.6420 C   0  0  1  0  0  0  0  0  0  0  0  0
    9.6212  -18.0884   24.9340 C   0  0  0  0  0  0  0  0  0  0  0  0
    9.4468  -19.4751   26.0580 S   0  0  0  0  0  0  0  0  0  0  0  0
   11.0526  -16.5089   26.2061 C   0  0  0  0  0  0  0  0  0  0  0  0
   11.5698  -17.3945   26.9357 O   0  0  0  0  0  0  0  0  0  0  0  0
   11.7815  -15.3645   25.9926 O   0  0  0  0  0  0  0  0  0  0  0  0
  2  1  1  0
  2  3  1  0
  3  5  1  0
  3  4  2  0
  5  6  1  0
  6 14  1  0
  6  7  1  1
  8  7  1  0
  8 13  2  0
  9  8  1  0
 10  9  2  0
 10 11  1  0
 11 12  2  0
 12 13  1  0
 14 15  2  0
 14 16  1  0
 16 17  1  0
 17 20  1  0
 17 18  1  6
 19 18  1  0
 20 22  1  0
 21 20  2  0
M  END
$$$$
