GFC.pdb
     RDKit          3D

 22 22  0  0  1  0  0  0  0  0999 V2000
    4.6431  -19.7610   21.9924 N   0  0  0  0  0  0  0  0  0  0  0  0
    5.3203  -19.6430   23.2463 C   0  0  0  0  0  0  0  0  0  0  0  0
    6.0537  -18.3538   23.3743 C   0  0  0  0  0  0  0  0  0  0  0  0
    6.5359  -17.7664   22.3583 O   0  0  0  0  0  0  0  0  0  0  0  0
    6.2178  -17.7684   24.6585 N   0  0  0  0  0  0  0  0  0  0  0  0
    7.0390  -16.6230   24.9154 C   0  0  1  0  0  0  0  0  0  0  0  0
    6.5156  -15.9565   26.1931 C   0  0  0  0  0  0  0  0  0  0  0  0
    6.9860  -14.5711   26.3024 C   0  0  0  0  0  0  0  0  0  0  0  0
    6.2795  -13.5581   25.7125 C   0  0  0  0  0  0  0  0  0  0  0  0
    6.7482  -12.2518   25.8317 C   0  0  0  0  0  0  0  0  0  0  0  0
    7.9116  -12.0081   26.5400 C   0  0  0  0  0  0  0  0  0  0  0  0
    8.6140  -13.0480   27.1310 C   0  0  0  0  0  0  0  0  0  0  0  0
    8.1514  -14.3366   27.0133 C   0  0  0  0  0  0  0  0  0  0  0  0
    8.4683  -16.9468   25.0829 C   0  0  0  0  0  0  0  0  0  0  0  0
    8.9250  -17.7581   25.9022 O   0  0  0  0  0  0  0  0  0  0  0  0
    9.3978  -16.2779   24.2404 N   0  0  0  0  0  0  0  0  0  0  0  0
   10.7689  -16.6652   24.0868 C   0  0  1  0  0  0  0  0  0  0  0  0
   11.2884  -16.5000   22.6854 C   0  0  0  0  0  0  0  0  0  0  0  0
   10.8828  -14.9063   21.9695 S   0  0  0  0  0  0  0  0  0  0  0  0
   11.6290  -16.0291   25.0987 C   0  0  0  0  0  0  0  0  0  0  0  0
   11.1326  -15.1212   25.8151 O   0  0  0  0  0  0  0  0  0  0  0  0
   12.9444  -16.3569   25.3198 O   0  0  0  0  0  0  0  0  0  0  0  0
  2  1  1  0
  2  3  1  0
  3  5  1  0
  3  4  2  0
  5  6  1  0
  6 14  1  0
  6  7  1  1
  8  7  1  0
  8 13  2  0
  9  8  1  0
 10  9  2  0
 10 11  1  0
 11 12  2  0
 12 13  1  0
 14 15  2  0
 14 16  1  0
 16 17  1  0
 17 20  1  0
 17 18  1  6
 19 18  1  0
 20 22  1  0
 21 20  2  0
M  END
$$$$
