GFC.pdb
     RDKit          3D

 22 22  0  0  1  0  0  0  0  0999 V2000
   10.2160  -16.9850   19.1427 N   0  0  0  0  0  0  0  0  0  0  0  0
    8.9996  -16.6479   19.8146 C   0  0  0  0  0  0  0  0  0  0  0  0
    9.2420  -16.0117   21.1385 C   0  0  0  0  0  0  0  0  0  0  0  0
   10.3959  -16.0074   21.6661 O   0  0  0  0  0  0  0  0  0  0  0  0
    8.1613  -15.3968   21.8260 N   0  0  0  0  0  0  0  0  0  0  0  0
    8.2589  -14.8599   23.1506 C   0  0  1  0  0  0  0  0  0  0  0  0
    7.0342  -13.9660   23.3782 C   0  0  0  0  0  0  0  0  0  0  0  0
    7.0629  -13.3521   24.7105 C   0  0  0  0  0  0  0  0  0  0  0  0
    6.3125  -13.8806   25.7258 C   0  0  0  0  0  0  0  0  0  0  0  0
    6.3581  -13.2783   26.9809 C   0  0  0  0  0  0  0  0  0  0  0  0
    7.1569  -12.1647   27.1729 C   0  0  0  0  0  0  0  0  0  0  0  0
    7.9104  -11.6436   26.1315 C   0  0  0  0  0  0  0  0  0  0  0  0
    7.8652  -12.2379   24.8934 C   0  0  0  0  0  0  0  0  0  0  0  0
    8.3139  -15.8917   24.2034 C   0  0  0  0  0  0  0  0  0  0  0  0
    7.4473  -16.7564   24.4011 O   0  0  0  0  0  0  0  0  0  0  0  0
    9.4484  -15.8977   25.0603 N   0  0  0  0  0  0  0  0  0  0  0  0
    9.7340  -16.9314   26.0107 C   0  0  1  0  0  0  0  0  0  0  0  0
   10.8410  -17.8546   25.5825 C   0  0  0  0  0  0  0  0  0  0  0  0
   10.3986  -18.8767   24.1767 S   0  0  0  0  0  0  0  0  0  0  0  0
    9.9307  -16.3851   27.3640 C   0  0  0  0  0  0  0  0  0  0  0  0
    9.9300  -15.1346   27.5061 O   0  0  0  0  0  0  0  0  0  0  0  0
   10.1163  -17.1467   28.4918 O   0  0  0  0  0  0  0  0  0  0  0  0
  2  1  1  0
  2  3  1  0
  3  5  1  0
  3  4  2  0
  5  6  1  0
  6 14  1  0
  6  7  1  1
  8  7  1  0
  8 13  2  0
  9  8  1  0
 10  9  2  0
 10 11  1  0
 11 12  2  0
 12 13  1  0
 14 15  2  0
 14 16  1  0
 16 17  1  0
 17 20  1  0
 17 18  1  6
 19 18  1  0
 20 22  1  0
 21 20  2  0
M  END
$$$$
