GFC.pdb
     RDKit          3D

 22 22  0  0  1  0  0  0  0  0999 V2000
    9.2797  -18.4014   20.5031 N   0  0  0  0  0  0  0  0  0  0  0  0
    8.4377  -18.3621   21.6583 C   0  0  0  0  0  0  0  0  0  0  0  0
    8.7522  -17.2114   22.5488 C   0  0  0  0  0  0  0  0  0  0  0  0
    9.8163  -16.5361   22.4020 O   0  0  0  0  0  0  0  0  0  0  0  0
    7.8442  -16.8611   23.5840 N   0  0  0  0  0  0  0  0  0  0  0  0
    8.0805  -15.8154   24.5342 C   0  0  1  0  0  0  0  0  0  0  0  0
    6.7197  -15.2195   24.9135 C   0  0  0  0  0  0  0  0  0  0  0  0
    6.8767  -13.9941   25.7050 C   0  0  0  0  0  0  0  0  0  0  0  0
    7.0228  -12.7864   25.0779 C   0  0  0  0  0  0  0  0  0  0  0  0
    7.1700  -11.6384   25.8530 C   0  0  0  0  0  0  0  0  0  0  0  0
    7.1653  -11.7437   27.2328 C   0  0  0  0  0  0  0  0  0  0  0  0
    7.0160  -12.9767   27.8502 C   0  0  0  0  0  0  0  0  0  0  0  0
    6.8708  -14.1089   27.0853 C   0  0  0  0  0  0  0  0  0  0  0  0
    8.7720  -16.2718   25.7547 C   0  0  0  0  0  0  0  0  0  0  0  0
    8.4140  -17.2239   26.4640 O   0  0  0  0  0  0  0  0  0  0  0  0
    9.9411  -15.5666   26.1514 N   0  0  0  0  0  0  0  0  0  0  0  0
   10.8435  -16.0131   27.1711 C   0  0  1  0  0  0  0  0  0  0  0  0
   12.2931  -15.8602   26.8020 C   0  0  0  0  0  0  0  0  0  0  0  0
   12.6546  -16.4099   25.1335 S   0  0  0  0  0  0  0  0  0  0  0  0
   10.5172  -15.4236   28.4805 C   0  0  0  0  0  0  0  0  0  0  0  0
    9.6263  -14.5360   28.5274 O   0  0  0  0  0  0  0  0  0  0  0  0
   11.1191  -15.7746   29.6642 O   0  0  0  0  0  0  0  0  0  0  0  0
  2  1  1  0
  2  3  1  0
  3  5  1  0
  3  4  2  0
  5  6  1  0
  6 14  1  0
  6  7  1  1
  8  7  1  0
  8 13  2  0
  9  8  1  0
 10  9  2  0
 10 11  1  0
 11 12  2  0
 12 13  1  0
 14 15  2  0
 14 16  1  0
 16 17  1  0
 17 20  1  0
 17 18  1  6
 19 18  1  0
 20 22  1  0
 21 20  2  0
M  END
$$$$
