GFC.pdb
     RDKit          3D

 22 22  0  0  1  0  0  0  0  0999 V2000
    6.2836  -19.0077   20.2831 N   0  0  0  0  0  0  0  0  0  0  0  0
    6.0395  -18.8446   21.6826 C   0  0  0  0  0  0  0  0  0  0  0  0
    6.7728  -17.6814   22.2531 C   0  0  0  0  0  0  0  0  0  0  0  0
    7.6793  -17.0864   21.5942 O   0  0  0  0  0  0  0  0  0  0  0  0
    6.4528  -17.2274   23.5608 N   0  0  0  0  0  0  0  0  0  0  0  0
    7.1770  -16.2013   24.2500 C   0  0  1  0  0  0  0  0  0  0  0  0
    6.2830  -15.6874   25.3846 C   0  0  0  0  0  0  0  0  0  0  0  0
    6.8084  -14.4414   25.9541 C   0  0  0  0  0  0  0  0  0  0  0  0
    6.4222  -13.2344   25.4372 C   0  0  0  0  0  0  0  0  0  0  0  0
    6.9360  -12.0667   25.9965 C   0  0  0  0  0  0  0  0  0  0  0  0
    7.8210  -12.1522   27.0569 C   0  0  0  0  0  0  0  0  0  0  0  0
    8.2006  -13.3848   27.5671 C   0  0  0  0  0  0  0  0  0  0  0  0
    7.6936  -14.5365   27.0152 C   0  0  0  0  0  0  0  0  0  0  0  0
    8.4624  -16.6600   24.8095 C   0  0  0  0  0  0  0  0  0  0  0  0
    8.6172  -17.6778   25.5008 O   0  0  0  0  0  0  0  0  0  0  0  0
    9.6164  -15.8756   24.5366 N   0  0  0  0  0  0  0  0  0  0  0  0
   10.9623  -16.3441   24.6864 C   0  0  1  0  0  0  0  0  0  0  0  0
   11.9432  -15.6614   23.7738 C   0  0  0  0  0  0  0  0  0  0  0  0
   13.5294  -16.4951   23.6980 S   0  0  0  0  0  0  0  0  0  0  0  0
   11.3858  -16.3360   26.0967 C   0  0  0  0  0  0  0  0  0  0  0  0
   10.9105  -15.4512   26.8551 O   0  0  0  0  0  0  0  0  0  0  0  0
   12.2689  -17.2309   26.6497 O   0  0  0  0  0  0  0  0  0  0  0  0
  2  1  1  0
  2  3  1  0
  3  5  1  0
  3  4  2  0
  5  6  1  0
  6 14  1  0
  6  7  1  1
  8  7  1  0
  8 13  2  0
  9  8  1  0
 10  9  2  0
 10 11  1  0
 11 12  2  0
 12 13  1  0
 14 15  2  0
 14 16  1  0
 16 17  1  0
 17 20  1  0
 17 18  1  6
 19 18  1  0
 20 22  1  0
 21 20  2  0
M  END
$$$$
