GFC.pdb
     RDKit          3D

 22 22  0  0  1  0  0  0  0  0999 V2000
    6.8146  -19.2838   21.0561 N   0  0  0  0  0  0  0  0  0  0  0  0
    6.5015  -19.0520   22.4320 C   0  0  0  0  0  0  0  0  0  0  0  0
    7.1932  -17.8509   22.9751 C   0  0  0  0  0  0  0  0  0  0  0  0
    8.1240  -17.2786   22.3301 O   0  0  0  0  0  0  0  0  0  0  0  0
    6.8047  -17.3339   24.2402 N   0  0  0  0  0  0  0  0  0  0  0  0
    7.4920  -16.2736   24.9153 C   0  0  1  0  0  0  0  0  0  0  0  0
    6.4812  -15.5810   25.8369 C   0  0  0  0  0  0  0  0  0  0  0  0
    6.9677  -14.2657   26.2683 C   0  0  0  0  0  0  0  0  0  0  0  0
    7.7811  -14.1606   27.3640 C   0  0  0  0  0  0  0  0  0  0  0  0
    8.2288  -12.9000   27.7521 C   0  0  0  0  0  0  0  0  0  0  0  0
    7.8435  -11.7874   27.0252 C   0  0  0  0  0  0  0  0  0  0  0  0
    7.0184  -11.9139   25.9174 C   0  0  0  0  0  0  0  0  0  0  0  0
    6.5769  -13.1577   25.5348 C   0  0  0  0  0  0  0  0  0  0  0  0
    8.6464  -16.7310   25.7115 C   0  0  0  0  0  0  0  0  0  0  0  0
    8.6227  -17.6571   26.5359 O   0  0  0  0  0  0  0  0  0  0  0  0
    9.8849  -16.0593   25.5209 N   0  0  0  0  0  0  0  0  0  0  0  0
   11.1473  -16.5496   25.9894 C   0  0  1  0  0  0  0  0  0  0  0  0
   12.2999  -16.2058   25.0871 C   0  0  0  0  0  0  0  0  0  0  0  0
   11.8418  -16.1482   23.3540 S   0  0  0  0  0  0  0  0  0  0  0  0
   11.3855  -16.1794   27.3947 C   0  0  0  0  0  0  0  0  0  0  0  0
   12.4395  -16.5890   27.9469 O   0  0  0  0  0  0  0  0  0  0  0  0
   10.5343  -15.4132   28.1530 O   0  0  0  0  0  0  0  0  0  0  0  0
  2  1  1  0
  2  3  1  0
  3  5  1  0
  3  4  2  0
  5  6  1  0
  6 14  1  0
  6  7  1  1
  8  7  1  0
  8 13  2  0
  9  8  1  0
 10  9  2  0
 10 11  1  0
 11 12  2  0
 12 13  1  0
 14 15  2  0
 14 16  1  0
 16 17  1  0
 17 20  1  0
 17 18  1  6
 19 18  1  0
 20 22  1  0
 21 20  2  0
M  END
$$$$
