GFC.pdb
     RDKit          3D

 22 22  0  0  1  0  0  0  0  0999 V2000
    9.7270  -17.4699   19.5631 N   0  0  0  0  0  0  0  0  0  0  0  0
    8.5407  -17.0093   20.2153 C   0  0  0  0  0  0  0  0  0  0  0  0
    8.8323  -16.3348   21.5100 C   0  0  0  0  0  0  0  0  0  0  0  0
    9.9694  -16.4354   22.0640 O   0  0  0  0  0  0  0  0  0  0  0  0
    7.8188  -15.5630   22.1390 N   0  0  0  0  0  0  0  0  0  0  0  0
    7.9483  -14.9851   23.4435 C   0  0  1  0  0  0  0  0  0  0  0  0
    6.8976  -13.8750   23.5634 C   0  0  0  0  0  0  0  0  0  0  0  0
    6.9553  -13.2266   24.8783 C   0  0  0  0  0  0  0  0  0  0  0  0
    6.0476  -13.5584   25.8473 C   0  0  0  0  0  0  0  0  0  0  0  0
    6.1248  -12.9277   27.0869 C   0  0  0  0  0  0  0  0  0  0  0  0
    7.1123  -11.9845   27.3102 C   0  0  0  0  0  0  0  0  0  0  0  0
    8.0234  -11.6614   26.3156 C   0  0  0  0  0  0  0  0  0  0  0  0
    7.9470  -12.2837   25.0929 C   0  0  0  0  0  0  0  0  0  0  0  0
    7.7631  -15.9544   24.5398 C   0  0  0  0  0  0  0  0  0  0  0  0
    6.7433  -16.6350   24.7260 O   0  0  0  0  0  0  0  0  0  0  0  0
    8.8364  -16.1238   25.4568 N   0  0  0  0  0  0  0  0  0  0  0  0
    8.9239  -17.1948   26.4048 C   0  0  1  0  0  0  0  0  0  0  0  0
    9.0491  -18.5524   25.7705 C   0  0  0  0  0  0  0  0  0  0  0  0
   10.5428  -18.7366   24.7950 S   0  0  0  0  0  0  0  0  0  0  0  0
    9.9576  -16.9365   27.4214 C   0  0  0  0  0  0  0  0  0  0  0  0
   10.0908  -17.7664   28.3580 O   0  0  0  0  0  0  0  0  0  0  0  0
   10.7939  -15.8469   27.4221 O   0  0  0  0  0  0  0  0  0  0  0  0
  2  1  1  0
  2  3  1  0
  3  5  1  0
  3  4  2  0
  5  6  1  0
  6 14  1  0
  6  7  1  1
  8  7  1  0
  8 13  2  0
  9  8  1  0
 10  9  2  0
 10 11  1  0
 11 12  2  0
 12 13  1  0
 14 15  2  0
 14 16  1  0
 16 17  1  0
 17 20  1  0
 17 18  1  6
 19 18  1  0
 20 22  1  0
 21 20  2  0
M  END
$$$$
