YQD.pdb
     RDKit          3D

 30 30  0  0  1  0  0  0  0  0999 V2000
    5.4155  -10.7781   28.3861 O   0  0  0  0  0  0  0  0  0  0  0  0
    6.1310  -11.6271   27.5434 C   0  0  0  0  0  0  0  0  0  0  0  0
    7.1207  -12.4221   28.0551 C   0  0  0  0  0  0  0  0  0  0  0  0
    7.8539  -13.2811   27.2412 C   0  0  0  0  0  0  0  0  0  0  0  0
    7.6036  -13.3595   25.8747 C   0  0  0  0  0  0  0  0  0  0  0  0
    8.3628  -14.2626   24.9733 C   0  0  0  0  0  0  0  0  0  0  0  0
    7.4396  -15.0985   24.1643 C   0  0  2  0  0  0  0  0  0  0  0  0
    6.6959  -15.9793   25.0283 N   0  0  0  0  0  0  0  0  0  0  0  0
    8.0849  -15.8120   23.0481 C   0  0  0  0  0  0  0  0  0  0  0  0
    8.1927  -17.0812   23.1794 O   0  0  0  0  0  0  0  0  0  0  0  0
    6.5873  -12.5340   25.3885 C   0  0  0  0  0  0  0  0  0  0  0  0
    5.8642  -11.6888   26.1845 C   0  0  0  0  0  0  0  0  0  0  0  0
    9.4192  -13.2031   17.6567 N   0  0  0  0  0  0  0  0  0  0  0  0
    8.1330  -13.7583   17.8356 C   0  0  0  0  0  0  0  0  0  0  0  0
    7.1936  -13.3589   17.1257 O   0  0  0  0  0  0  0  0  0  0  0  0
    8.0015  -14.8152   18.8989 C   0  0  0  0  0  0  0  0  0  0  0  0
    9.2979  -15.0596   19.5790 C   0  0  0  0  0  0  0  0  0  0  0  0
    9.2356  -15.9554   20.7800 C   0  0  2  0  0  0  0  0  0  0  0  0
    8.5869  -15.2435   21.8714 N   0  0  0  0  0  0  0  0  0  0  0  0
   10.5607  -16.4457   21.1356 C   0  0  0  0  0  0  0  0  0  0  0  0
   11.1094  -17.2676   20.3755 O   0  0  0  0  0  0  0  0  0  0  0  0
   11.2842  -16.0564   22.2948 N   0  0  0  0  0  0  0  0  0  0  0  0
   12.5992  -16.6584   22.6302 C   0  0  1  0  0  0  0  0  0  0  0  0
   13.6567  -15.6031   22.6281 C   0  0  0  0  0  0  0  0  0  0  0  0
   14.0961  -15.1318   21.3109 C   0  0  0  0  0  0  0  0  0  0  0  0
   13.6605  -15.6421   20.2501 O   0  0  0  0  0  0  0  0  0  0  0  0
   12.4880  -17.3220   23.9355 C   0  0  0  0  0  0  0  0  0  0  0  0
   11.3849  -17.2694   24.7530 O   0  0  0  0  0  0  0  0  0  0  0  0
   15.0105  -14.1068   21.2071 O   0  0  0  0  0  0  0  0  0  0  0  0
   13.4665  -17.9974   24.3618 O   0  0  0  0  0  0  0  0  0  0  0  0
  2 12  2  0
  2  1  1  0
  3  2  1  0
  4  5  1  0
  4  3  2  0
  5 11  2  0
  6  5  1  0
  7  6  1  0
  7  8  1  1
  9 19  1  0
  9  7  1  0
 10  9  2  0
 11 12  1  0
 14 13  1  0
 14 15  2  0
 16 14  1  0
 17 16  1  0
 18 17  1  6
 18 19  1  0
 20 18  1  0
 20 21  2  0
 22 23  1  0
 22 20  1  0
 23 24  1  1
 25 24  1  0
 25 29  1  0
 26 25  2  0
 27 23  1  0
 28 27  1  0
 30 27  2  0
M  END
$$$$
