YQD.pdb
     RDKit          3D

 30 30  0  0  1  0  0  0  0  0999 V2000
    6.3961  -12.7293   17.2108 O   0  0  0  0  0  0  0  0  0  0  0  0
    6.9852  -13.0891   18.4218 C   0  0  0  0  0  0  0  0  0  0  0  0
    8.3480  -13.1663   18.5221 C   0  0  0  0  0  0  0  0  0  0  0  0
    8.9680  -13.5223   19.7165 C   0  0  0  0  0  0  0  0  0  0  0  0
    8.2189  -13.8128   20.8526 C   0  0  0  0  0  0  0  0  0  0  0  0
    8.8419  -14.1959   22.1447 C   0  0  0  0  0  0  0  0  0  0  0  0
    9.2874  -15.6124   22.1161 C   0  0  2  0  0  0  0  0  0  0  0  0
    8.1439  -16.4807   21.9995 N   0  0  0  0  0  0  0  0  0  0  0  0
   10.1766  -15.9931   23.2277 C   0  0  0  0  0  0  0  0  0  0  0  0
    9.6244  -16.1010   24.3779 O   0  0  0  0  0  0  0  0  0  0  0  0
    6.8321  -13.7237   20.7127 C   0  0  0  0  0  0  0  0  0  0  0  0
    6.2188  -13.3741   19.5412 C   0  0  0  0  0  0  0  0  0  0  0  0
    9.4065  -21.4625   23.4450 N   0  0  0  0  0  0  0  0  0  0  0  0
   10.6313  -20.8181   23.7259 C   0  0  0  0  0  0  0  0  0  0  0  0
   11.6687  -21.4969   23.8200 O   0  0  0  0  0  0  0  0  0  0  0  0
   10.5789  -19.3233   23.8930 C   0  0  0  0  0  0  0  0  0  0  0  0
   11.5741  -18.6485   23.0229 C   0  0  0  0  0  0  0  0  0  0  0  0
   12.2356  -17.4414   23.6179 C   0  0  2  0  0  0  0  0  0  0  0  0
   11.5516  -16.2448   23.1497 N   0  0  0  0  0  0  0  0  0  0  0  0
   13.6620  -17.4278   23.3217 C   0  0  0  0  0  0  0  0  0  0  0  0
   14.0224  -17.6301   22.1455 O   0  0  0  0  0  0  0  0  0  0  0  0
   14.6861  -17.2002   24.2800 N   0  0  0  0  0  0  0  0  0  0  0  0
   16.1093  -17.0624   23.8805 C   0  0  1  0  0  0  0  0  0  0  0  0
   16.8353  -16.2120   24.8713 C   0  0  0  0  0  0  0  0  0  0  0  0
   18.2542  -15.9665   24.5947 C   0  0  0  0  0  0  0  0  0  0  0  0
   19.1442  -16.7768   24.9508 O   0  0  0  0  0  0  0  0  0  0  0  0
   16.6952  -18.4048   23.7748 C   0  0  0  0  0  0  0  0  0  0  0  0
   17.7803  -18.7302   22.9974 O   0  0  0  0  0  0  0  0  0  0  0  0
   18.6474  -14.8251   23.9313 O   0  0  0  0  0  0  0  0  0  0  0  0
   16.1809  -19.3487   24.4380 O   0  0  0  0  0  0  0  0  0  0  0  0
  2 12  2  0
  2  1  1  0
  3  2  1  0
  4  5  1  0
  4  3  2  0
  5 11  2  0
  6  5  1  0
  7  6  1  0
  7  8  1  1
  9 19  1  0
  9  7  1  0
 10  9  2  0
 11 12  1  0
 14 13  1  0
 14 15  2  0
 16 14  1  0
 17 16  1  0
 18 17  1  6
 18 19  1  0
 20 18  1  0
 20 21  2  0
 22 23  1  0
 22 20  1  0
 23 24  1  1
 25 24  1  0
 25 29  1  0
 26 25  2  0
 27 23  1  0
 28 27  1  0
 30 27  2  0
M  END
$$$$
