YQD.pdb
     RDKit          3D

 30 30  0  0  1  0  0  0  0  0999 V2000
    5.3851  -11.9169   19.1203 O   0  0  0  0  0  0  0  0  0  0  0  0
    6.5212  -12.5879   19.5698 C   0  0  0  0  0  0  0  0  0  0  0  0
    7.7474  -12.2827   19.0440 C   0  0  0  0  0  0  0  0  0  0  0  0
    8.9015  -12.9336   19.4708 C   0  0  0  0  0  0  0  0  0  0  0  0
    8.8457  -13.9203   20.4503 C   0  0  0  0  0  0  0  0  0  0  0  0
   10.0532  -14.6373   20.9326 C   0  0  0  0  0  0  0  0  0  0  0  0
   10.5803  -15.5474   19.8840 C   0  0  2  0  0  0  0  0  0  0  0  0
    9.6075  -16.5688   19.5913 N   0  0  0  0  0  0  0  0  0  0  0  0
   11.9142  -16.1022   20.1743 C   0  0  0  0  0  0  0  0  0  0  0  0
   11.9419  -17.3156   20.5824 O   0  0  0  0  0  0  0  0  0  0  0  0
    7.5783  -14.2049   20.9633 C   0  0  0  0  0  0  0  0  0  0  0  0
    6.4419  -13.5677   20.5471 C   0  0  0  0  0  0  0  0  0  0  0  0
   17.7800  -14.6381   17.2428 N   0  0  0  0  0  0  0  0  0  0  0  0
   16.6205  -14.0671   17.8118 C   0  0  0  0  0  0  0  0  0  0  0  0
   16.5313  -12.8300   17.8990 O   0  0  0  0  0  0  0  0  0  0  0  0
   15.5604  -15.0279   18.2784 C   0  0  0  0  0  0  0  0  0  0  0  0
   15.5049  -15.0913   19.7602 C   0  0  0  0  0  0  0  0  0  0  0  0
   14.4549  -15.9998   20.3266 C   0  0  2  0  0  0  0  0  0  0  0  0
   13.1407  -15.4387   20.0496 N   0  0  0  0  0  0  0  0  0  0  0  0
   14.6791  -16.2361   21.7467 C   0  0  0  0  0  0  0  0  0  0  0  0
   14.2486  -15.3950   22.5600 O   0  0  0  0  0  0  0  0  0  0  0  0
   15.3586  -17.3629   22.2829 N   0  0  0  0  0  0  0  0  0  0  0  0
   15.4939  -17.5659   23.7473 C   0  0  1  0  0  0  0  0  0  0  0  0
   14.3723  -18.4162   24.2483 C   0  0  0  0  0  0  0  0  0  0  0  0
   14.4186  -18.7748   25.6694 C   0  0  0  0  0  0  0  0  0  0  0  0
   15.3627  -18.4076   26.4106 O   0  0  0  0  0  0  0  0  0  0  0  0
   16.8045  -18.1722   24.0141 C   0  0  0  0  0  0  0  0  0  0  0  0
   17.5530  -17.9605   25.1467 O   0  0  0  0  0  0  0  0  0  0  0  0
   13.4151  -19.5344   26.2293 O   0  0  0  0  0  0  0  0  0  0  0  0
   17.3034  -18.9500   23.1530 O   0  0  0  0  0  0  0  0  0  0  0  0
  2 12  2  0
  2  1  1  0
  3  2  1  0
  4  5  1  0
  4  3  2  0
  5 11  2  0
  6  5  1  0
  7  6  1  0
  7  8  1  1
  9 19  1  0
  9  7  1  0
 10  9  2  0
 11 12  1  0
 14 13  1  0
 14 15  2  0
 16 14  1  0
 17 16  1  0
 18 17  1  1
 18 19  1  0
 20 18  1  0
 20 21  2  0
 22 23  1  0
 22 20  1  0
 23 24  1  6
 25 24  1  0
 25 29  1  0
 26 25  2  0
 27 23  1  0
 28 27  1  0
 30 27  2  0
M  END
$$$$
