YQD.pdb
     RDKit          3D

 30 30  0  0  1  0  0  0  0  0999 V2000
    5.3961  -11.0716   28.5879 O   0  0  0  0  0  0  0  0  0  0  0  0
    6.1095  -11.8482   27.6764 C   0  0  0  0  0  0  0  0  0  0  0  0
    7.1391  -12.6384   28.1110 C   0  0  0  0  0  0  0  0  0  0  0  0
    7.8713  -13.4261   27.2272 C   0  0  0  0  0  0  0  0  0  0  0  0
    7.5792  -13.4357   25.8668 C   0  0  0  0  0  0  0  0  0  0  0  0
    8.3359  -14.2616   24.8923 C   0  0  0  0  0  0  0  0  0  0  0  0
    7.4216  -15.1536   24.1346 C   0  0  2  0  0  0  0  0  0  0  0  0
    6.7606  -16.0574   25.0409 N   0  0  0  0  0  0  0  0  0  0  0  0
    8.0531  -15.8503   23.0001 C   0  0  0  0  0  0  0  0  0  0  0  0
    8.1475  -17.1231   23.1039 O   0  0  0  0  0  0  0  0  0  0  0  0
    6.5229  -12.6174   25.4601 C   0  0  0  0  0  0  0  0  0  0  0  0
    5.8007  -11.8421   26.3250 C   0  0  0  0  0  0  0  0  0  0  0  0
    9.0389  -13.2047   17.5700 N   0  0  0  0  0  0  0  0  0  0  0  0
    7.7567  -13.6720   17.9334 C   0  0  0  0  0  0  0  0  0  0  0  0
    6.7553  -13.2113   17.3582 O   0  0  0  0  0  0  0  0  0  0  0  0
    7.7063  -14.7163   19.0159 C   0  0  0  0  0  0  0  0  0  0  0  0
    9.0684  -15.0682   19.4892 C   0  0  0  0  0  0  0  0  0  0  0  0
    9.1208  -15.9647   20.6901 C   0  0  2  0  0  0  0  0  0  0  0  0
    8.5552  -15.2625   21.8329 N   0  0  0  0  0  0  0  0  0  0  0  0
   10.4783  -16.4346   20.9327 C   0  0  0  0  0  0  0  0  0  0  0  0
   10.9709  -17.2540   20.1325 O   0  0  0  0  0  0  0  0  0  0  0  0
   11.2935  -16.0280   22.0231 N   0  0  0  0  0  0  0  0  0  0  0  0
   12.6437  -16.6048   22.2430 C   0  0  1  0  0  0  0  0  0  0  0  0
   13.6797  -15.5356   22.1182 C   0  0  0  0  0  0  0  0  0  0  0  0
   13.9414  -15.0452   20.7613 C   0  0  0  0  0  0  0  0  0  0  0  0
   13.8418  -15.7950   19.7596 O   0  0  0  0  0  0  0  0  0  0  0  0
   12.6680  -17.2416   23.5660 C   0  0  0  0  0  0  0  0  0  0  0  0
   11.6057  -17.2878   24.4362 O   0  0  0  0  0  0  0  0  0  0  0  0
   14.3097  -13.7342   20.5532 O   0  0  0  0  0  0  0  0  0  0  0  0
   13.7341  -17.7948   23.9572 O   0  0  0  0  0  0  0  0  0  0  0  0
  2 12  2  0
  2  1  1  0
  3  2  1  0
  4  5  1  0
  4  3  2  0
  5 11  2  0
  6  5  1  0
  7  6  1  0
  7  8  1  1
  9 19  1  0
  9  7  1  0
 10  9  2  0
 11 12  1  0
 14 13  1  0
 14 15  2  0
 16 14  1  0
 17 16  1  0
 18 17  1  6
 18 19  1  0
 20 18  1  0
 20 21  2  0
 22 23  1  0
 22 20  1  0
 23 24  1  1
 25 24  1  0
 25 29  1  0
 26 25  2  0
 27 23  1  0
 28 27  1  0
 30 27  2  0
M  END
$$$$
