YQD.pdb
     RDKit          3D

 30 30  0  0  1  0  0  0  0  0999 V2000
    7.2328  -10.4843   27.4498 O   0  0  0  0  0  0  0  0  0  0  0  0
    6.8954  -11.7118   26.8819 C   0  0  0  0  0  0  0  0  0  0  0  0
    6.4388  -12.7291   27.6756 C   0  0  0  0  0  0  0  0  0  0  0  0
    6.0932  -13.9667   27.1404 C   0  0  0  0  0  0  0  0  0  0  0  0
    6.2014  -14.2112   25.7748 C   0  0  0  0  0  0  0  0  0  0  0  0
    5.8427  -15.5167   25.1654 C   0  0  0  0  0  0  0  0  0  0  0  0
    7.0512  -16.3579   24.9711 C   0  0  2  0  0  0  0  0  0  0  0  0
    7.9837  -16.1267   26.0445 N   0  0  0  0  0  0  0  0  0  0  0  0
    7.6744  -16.2298   23.6420 C   0  0  0  0  0  0  0  0  0  0  0  0
    7.2418  -17.0277   22.7387 O   0  0  0  0  0  0  0  0  0  0  0  0
    6.6707  -13.1505   24.9967 C   0  0  0  0  0  0  0  0  0  0  0  0
    7.0111  -11.9328   25.5183 C   0  0  0  0  0  0  0  0  0  0  0  0
    6.2861  -14.7587   19.6552 N   0  0  0  0  0  0  0  0  0  0  0  0
    7.5792  -14.1922   19.6927 C   0  0  0  0  0  0  0  0  0  0  0  0
    8.3030  -14.2603   18.6840 O   0  0  0  0  0  0  0  0  0  0  0  0
    7.9858  -13.5359   20.9845 C   0  0  0  0  0  0  0  0  0  0  0  0
    9.3426  -13.9671   21.4044 C   0  0  0  0  0  0  0  0  0  0  0  0
    9.4221  -15.3318   22.0208 C   0  0  2  0  0  0  0  0  0  0  0  0
    8.6832  -15.3311   23.2749 N   0  0  0  0  0  0  0  0  0  0  0  0
   10.8076  -15.7520   22.1830 C   0  0  0  0  0  0  0  0  0  0  0  0
   11.3077  -15.7085   23.3243 O   0  0  0  0  0  0  0  0  0  0  0  0
   11.6432  -16.2120   21.1298 N   0  0  0  0  0  0  0  0  0  0  0  0
   12.6620  -17.2691   21.3497 C   0  0  1  0  0  0  0  0  0  0  0  0
   12.0080  -18.5026   21.8814 C   0  0  0  0  0  0  0  0  0  0  0  0
   12.8685  -19.6819   22.0187 C   0  0  0  0  0  0  0  0  0  0  0  0
   14.0174  -19.6040   22.5183 O   0  0  0  0  0  0  0  0  0  0  0  0
   13.3553  -17.5189   20.0795 C   0  0  0  0  0  0  0  0  0  0  0  0
   12.7343  -17.8046   18.8876 O   0  0  0  0  0  0  0  0  0  0  0  0
   12.4305  -20.9172   21.5949 O   0  0  0  0  0  0  0  0  0  0  0  0
   14.6174  -17.4742   20.0543 O   0  0  0  0  0  0  0  0  0  0  0  0
  2 12  2  0
  2  1  1  0
  3  2  1  0
  4  5  1  0
  4  3  2  0
  5 11  2  0
  6  5  1  0
  7  6  1  0
  7  8  1  1
  9 19  1  0
  9  7  1  0
 10  9  2  0
 11 12  1  0
 14 13  1  0
 14 15  2  0
 16 14  1  0
 17 16  1  0
 18 17  1  1
 18 19  1  0
 20 18  1  0
 20 21  2  0
 22 23  1  0
 22 20  1  0
 23 24  1  6
 25 24  1  0
 25 29  1  0
 26 25  2  0
 27 23  1  0
 28 27  1  0
 30 27  2  0
M  END
$$$$
