YQD.pdb
     RDKit          3D

 30 30  0  0  1  0  0  0  0  0999 V2000
    5.8453  -10.5349   28.4468 O   0  0  0  0  0  0  0  0  0  0  0  0
    6.4403  -11.4964   27.6317 C   0  0  0  0  0  0  0  0  0  0  0  0
    6.1621  -11.5227   26.2919 C   0  0  0  0  0  0  0  0  0  0  0  0
    6.7393  -12.4692   25.4501 C   0  0  0  0  0  0  0  0  0  0  0  0
    7.6219  -13.4240   25.9457 C   0  0  0  0  0  0  0  0  0  0  0  0
    8.2584  -14.4496   25.0812 C   0  0  0  0  0  0  0  0  0  0  0  0
    7.2321  -15.2211   24.3348 C   0  0  2  0  0  0  0  0  0  0  0  0
    6.3810  -15.9233   25.2610 N   0  0  0  0  0  0  0  0  0  0  0  0
    7.7763  -16.1018   23.2862 C   0  0  0  0  0  0  0  0  0  0  0  0
    7.7904  -17.3537   23.5549 O   0  0  0  0  0  0  0  0  0  0  0  0
    7.8818  -13.3665   27.3168 C   0  0  0  0  0  0  0  0  0  0  0  0
    7.3171  -12.4381   28.1474 C   0  0  0  0  0  0  0  0  0  0  0  0
    8.0706  -15.0241   17.2218 N   0  0  0  0  0  0  0  0  0  0  0  0
    7.9137  -14.0766   18.2572 C   0  0  0  0  0  0  0  0  0  0  0  0
    7.5843  -12.9121   17.9718 O   0  0  0  0  0  0  0  0  0  0  0  0
    8.1653  -14.5668   19.6576 C   0  0  0  0  0  0  0  0  0  0  0  0
    8.5518  -15.9998   19.6657 C   0  0  0  0  0  0  0  0  0  0  0  0
    8.8320  -16.5831   21.0185 C   0  0  2  0  0  0  0  0  0  0  0  0
    8.2746  -15.7074   22.0388 N   0  0  0  0  0  0  0  0  0  0  0  0
   10.2576  -16.8232   21.1990 C   0  0  0  0  0  0  0  0  0  0  0  0
   10.8327  -17.5893   20.4011 O   0  0  0  0  0  0  0  0  0  0  0  0
   11.0524  -16.2464   22.2259 N   0  0  0  0  0  0  0  0  0  0  0  0
   12.4757  -16.6247   22.4137 C   0  0  1  0  0  0  0  0  0  0  0  0
   13.3532  -15.4417   22.1641 C   0  0  0  0  0  0  0  0  0  0  0  0
   13.3873  -14.9421   20.7859 C   0  0  0  0  0  0  0  0  0  0  0  0
   13.2449  -15.7103   19.8035 O   0  0  0  0  0  0  0  0  0  0  0  0
   12.6410  -17.1542   23.7734 C   0  0  0  0  0  0  0  0  0  0  0  0
   11.6393  -17.2440   24.7096 O   0  0  0  0  0  0  0  0  0  0  0  0
   13.5813  -13.6015   20.5353 O   0  0  0  0  0  0  0  0  0  0  0  0
   13.7801  -17.5635   24.1342 O   0  0  0  0  0  0  0  0  0  0  0  0
  2 12  2  0
  2  1  1  0
  3  2  1  0
  4  5  1  0
  4  3  2  0
  5 11  2  0
  6  5  1  0
  7  6  1  0
  7  8  1  1
  9 19  1  0
  9  7  1  0
 10  9  2  0
 11 12  1  0
 14 13  1  0
 14 15  2  0
 16 14  1  0
 17 16  1  0
 18 17  1  6
 18 19  1  0
 20 18  1  0
 20 21  2  0
 22 23  1  0
 22 20  1  0
 23 24  1  1
 25 24  1  0
 25 29  1  0
 26 25  2  0
 27 23  1  0
 28 27  1  0
 30 27  2  0
M  END
$$$$
