YQD.pdb
     RDKit          3D

 30 30  0  0  1  0  0  0  0  0999 V2000
    5.4542  -10.6262   28.7312 O   0  0  0  0  0  0  0  0  0  0  0  0
    6.1090  -11.4444   27.8121 C   0  0  0  0  0  0  0  0  0  0  0  0
    6.9884  -12.3970   28.2508 C   0  0  0  0  0  0  0  0  0  0  0  0
    7.6585  -13.2303   27.3596 C   0  0  0  0  0  0  0  0  0  0  0  0
    7.4554  -13.1213   25.9874 C   0  0  0  0  0  0  0  0  0  0  0  0
    8.1501  -13.9908   25.0047 C   0  0  0  0  0  0  0  0  0  0  0  0
    7.2227  -15.0129   24.4563 C   0  0  2  0  0  0  0  0  0  0  0  0
    6.9336  -15.9999   25.4651 N   0  0  0  0  0  0  0  0  0  0  0  0
    7.6627  -15.6144   23.1851 C   0  0  0  0  0  0  0  0  0  0  0  0
    7.9652  -16.8580   23.2264 O   0  0  0  0  0  0  0  0  0  0  0  0
    6.5517  -12.1387   25.5769 C   0  0  0  0  0  0  0  0  0  0  0  0
    5.8909  -11.3180   26.4490 C   0  0  0  0  0  0  0  0  0  0  0  0
    8.1138  -12.6229   17.7412 N   0  0  0  0  0  0  0  0  0  0  0  0
    8.3381  -13.9202   17.2301 C   0  0  0  0  0  0  0  0  0  0  0  0
    8.4464  -14.0801   16.0018 O   0  0  0  0  0  0  0  0  0  0  0  0
    8.4295  -15.0318   18.2405 C   0  0  0  0  0  0  0  0  0  0  0  0
    8.1714  -14.5336   19.6146 C   0  0  0  0  0  0  0  0  0  0  0  0
    8.1658  -15.5805   20.6882 C   0  0  2  0  0  0  0  0  0  0  0  0
    7.7817  -14.9655   21.9504 N   0  0  0  0  0  0  0  0  0  0  0  0
    9.4518  -16.2613   20.7611 C   0  0  0  0  0  0  0  0  0  0  0  0
    9.7769  -17.0108   19.8193 O   0  0  0  0  0  0  0  0  0  0  0  0
   10.3744  -16.1370   21.8345 N   0  0  0  0  0  0  0  0  0  0  0  0
   11.7578  -16.6667   21.7371 C   0  0  1  0  0  0  0  0  0  0  0  0
   12.6716  -15.6079   21.2120 C   0  0  0  0  0  0  0  0  0  0  0  0
   14.0920  -15.9630   21.1303 C   0  0  0  0  0  0  0  0  0  0  0  0
   14.4661  -17.0957   20.7397 O   0  0  0  0  0  0  0  0  0  0  0  0
   12.1701  -17.1390   23.0651 C   0  0  0  0  0  0  0  0  0  0  0  0
   13.3313  -17.8236   23.3307 O   0  0  0  0  0  0  0  0  0  0  0  0
   15.0600  -15.0503   21.4873 O   0  0  0  0  0  0  0  0  0  0  0  0
   11.4176  -16.9121   24.0539 O   0  0  0  0  0  0  0  0  0  0  0  0
  2 12  2  0
  2  1  1  0
  3  2  1  0
  4  5  1  0
  4  3  2  0
  5 11  2  0
  6  5  1  0
  7  6  1  0
  7  8  1  1
  9 19  1  0
  9  7  1  0
 10  9  2  0
 11 12  1  0
 14 13  1  0
 14 15  2  0
 16 14  1  0
 17 16  1  0
 18 17  1  6
 18 19  1  0
 20 18  1  0
 20 21  2  0
 22 23  1  0
 22 20  1  0
 23 24  1  1
 25 24  1  0
 25 29  1  0
 26 25  2  0
 27 23  1  0
 28 27  1  0
 30 27  2  0
M  END
$$$$
