MKS.pdb
     RDKit          3D

 24 23  0  0  1  0  0  0  0  0999 V2000
   20.7955  -30.9670  -18.8262 C   0  0  0  0  0  0  0  0  0  0  0  0
   20.0374  -30.1862  -17.3613 S   0  0  0  0  0  0  0  0  0  0  0  0
   21.2532  -29.0253  -16.6909 C   0  0  0  0  0  0  0  0  0  0  0  0
   20.6521  -28.1713  -15.5792 C   0  0  0  0  0  0  0  0  0  0  0  0
   21.7783  -27.2884  -15.0798 C   0  0  2  0  0  0  0  0  0  0  0  0
   22.7080  -28.1559  -14.3805 N   0  0  0  0  0  0  0  0  0  0  0  0
   21.3094  -26.2104  -14.2022 C   0  0  0  0  0  0  0  0  0  0  0  0
   21.2962  -26.3925  -12.9531 O   0  0  0  0  0  0  0  0  0  0  0  0
   20.8688  -24.9708  -14.6860 N   0  0  0  0  0  0  0  0  0  0  0  0
   20.4799  -23.8582  -13.7661 C   0  0  1  0  0  0  0  0  0  0  0  0
   20.9192  -22.5664  -14.3791 C   0  0  0  0  0  0  0  0  0  0  0  0
   20.6082  -21.3192  -13.6515 C   0  0  0  0  0  0  0  0  0  0  0  0
   21.0225  -20.1260  -14.4808 C   0  0  0  0  0  0  0  0  0  0  0  0
   20.6338  -18.8663  -13.7139 C   0  0  0  0  0  0  0  0  0  0  0  0
   21.1948  -17.7260  -14.4558 N   0  0  0  0  0  0  0  0  0  0  0  0
   19.0211  -23.9986  -13.5843 C   0  0  0  0  0  0  0  0  0  0  0  0
   18.2662  -23.9319  -14.6196 O   0  0  0  0  0  0  0  0  0  0  0  0
   17.3836  -24.2143   -9.9394 O   0  0  0  0  0  0  0  0  0  0  0  0
   16.5795  -24.8471  -10.9007 C   0  0  0  0  0  0  0  0  0  0  0  0
   16.8818  -24.3134  -12.2880 C   0  0  2  0  0  0  0  0  0  0  0  0
   18.3332  -24.2053  -12.3828 N   0  0  0  0  0  0  0  0  0  0  0  0
   16.2375  -22.9785  -12.3939 C   0  0  0  0  0  0  0  0  0  0  0  0
   16.9700  -21.9720  -12.3746 O   0  0  0  0  0  0  0  0  0  0  0  0
   14.8622  -22.8363  -12.5115 O   0  0  0  0  0  0  0  0  0  0  0  0
  2  1  1  0
  3  2  1  0
  4  3  1  0
  5  4  1  0
  5  7  1  0
  5  6  1  1
  7  9  1  0
  7  8  2  0
  9 10  1  0
 10 11  1  6
 12 11  1  0
 13 12  1  0
 13 14  1  0
 15 14  1  0
 16 21  1  0
 16 10  1  0
 17 16  2  0
 20 19  1  1
 19 18  1  0
 20 22  1  0
 20 21  1  0
 22 24  1  0
 23 22  2  0
M  END
$$$$
