MKS.pdb
     RDKit          3D

 24 23  0  0  1  0  0  0  0  0999 V2000
   27.4699   -9.6370  -15.5434 C   0  0  0  0  0  0  0  0  0  0  0  0
   25.8766  -10.3915  -15.0713 S   0  0  0  0  0  0  0  0  0  0  0  0
   25.3225  -11.3838  -16.4796 C   0  0  0  0  0  0  0  0  0  0  0  0
   24.0851  -10.7779  -17.1340 C   0  0  0  0  0  0  0  0  0  0  0  0
   22.9058  -11.2495  -16.3069 C   0  0  2  0  0  0  0  0  0  0  0  0
   22.7875  -12.6787  -16.5284 N   0  0  0  0  0  0  0  0  0  0  0  0
   21.6569  -10.5624  -16.6537 C   0  0  0  0  0  0  0  0  0  0  0  0
   21.3287  -10.4531  -17.8678 O   0  0  0  0  0  0  0  0  0  0  0  0
   20.7968  -10.0130  -15.6928 N   0  0  0  0  0  0  0  0  0  0  0  0
   19.5382   -9.3024  -16.0752 C   0  0  1  0  0  0  0  0  0  0  0  0
   18.3874  -10.0016  -15.4238 C   0  0  0  0  0  0  0  0  0  0  0  0
   17.0354   -9.4467  -15.6378 C   0  0  0  0  0  0  0  0  0  0  0  0
   16.0106  -10.3139  -14.9445 C   0  0  0  0  0  0  0  0  0  0  0  0
   14.6268   -9.8090  -15.3398 C   0  0  0  0  0  0  0  0  0  0  0  0
   13.6566  -10.8059  -14.8600 N   0  0  0  0  0  0  0  0  0  0  0  0
   19.7398   -7.9026  -15.6498 C   0  0  0  0  0  0  0  0  0  0  0  0
   20.2353   -7.6816  -14.4872 O   0  0  0  0  0  0  0  0  0  0  0  0
   19.6737   -3.1211  -16.6208 O   0  0  0  0  0  0  0  0  0  0  0  0
   19.6245   -4.4601  -17.0401 C   0  0  0  0  0  0  0  0  0  0  0  0
   19.5779   -5.3944  -15.8460 C   0  0  2  0  0  0  0  0  0  0  0  0
   19.4509   -6.7449  -16.3818 N   0  0  0  0  0  0  0  0  0  0  0  0
   18.3834   -5.0218  -15.0445 C   0  0  0  0  0  0  0  0  0  0  0  0
   17.2827   -5.4979  -15.3787 O   0  0  0  0  0  0  0  0  0  0  0  0
   18.4707   -4.1701  -13.9525 O   0  0  0  0  0  0  0  0  0  0  0  0
  2  1  1  0
  3  2  1  0
  4  3  1  0
  5  4  1  0
  5  7  1  0
  5  6  1  6
  7  9  1  0
  7  8  2  0
  9 10  1  0
 10 11  1  1
 12 11  1  0
 13 12  1  0
 13 14  1  0
 15 14  1  0
 16 21  1  0
 16 10  1  0
 17 16  2  0
 20 19  1  6
 19 18  1  0
 20 22  1  0
 20 21  1  0
 22 24  1  0
 23 22  2  0
M  END
$$$$
