MKS.pdb
     RDKit          3D

 24 23  0  0  1  0  0  0  0  0999 V2000
   25.3374  -20.0364  -18.7015 C   0  0  0  0  0  0  0  0  0  0  0  0
   27.1086  -20.4671  -18.6126 S   0  0  0  0  0  0  0  0  0  0  0  0
   27.3405  -21.4479  -17.1095 C   0  0  0  0  0  0  0  0  0  0  0  0
   26.0335  -21.6002  -16.3379 C   0  0  0  0  0  0  0  0  0  0  0  0
   26.3974  -22.2894  -15.0380 C   0  0  2  0  0  0  0  0  0  0  0  0
   26.7002  -23.6694  -15.3695 N   0  0  0  0  0  0  0  0  0  0  0  0
   25.3280  -22.2157  -14.0365 C   0  0  0  0  0  0  0  0  0  0  0  0
   24.3555  -23.0172  -14.1113 O   0  0  0  0  0  0  0  0  0  0  0  0
   25.3301  -21.2880  -12.9857 N   0  0  0  0  0  0  0  0  0  0  0  0
   24.2018  -21.2003  -12.0087 C   0  0  1  0  0  0  0  0  0  0  0  0
   24.6482  -20.3677  -10.8490 C   0  0  0  0  0  0  0  0  0  0  0  0
   23.6652  -20.0925   -9.7814 C   0  0  0  0  0  0  0  0  0  0  0  0
   23.0271  -21.3848   -9.3278 C   0  0  0  0  0  0  0  0  0  0  0  0
   21.9921  -21.0453   -8.2602 C   0  0  0  0  0  0  0  0  0  0  0  0
   21.3377  -22.3087   -7.8846 N   0  0  0  0  0  0  0  0  0  0  0  0
   23.0682  -20.6456  -12.7757 C   0  0  0  0  0  0  0  0  0  0  0  0
   23.2568  -19.5767  -13.4597 O   0  0  0  0  0  0  0  0  0  0  0  0
   20.5165  -21.7087  -15.7454 O   0  0  0  0  0  0  0  0  0  0  0  0
   20.0475  -21.6770  -14.4225 C   0  0  0  0  0  0  0  0  0  0  0  0
   20.7046  -20.5507  -13.6476 C   0  0  2  0  0  0  0  0  0  0  0  0
   21.7682  -21.1583  -12.8559 N   0  0  0  0  0  0  0  0  0  0  0  0
   19.6615  -19.9531  -12.7740 C   0  0  0  0  0  0  0  0  0  0  0  0
   19.7470  -20.1433  -11.5466 O   0  0  0  0  0  0  0  0  0  0  0  0
   18.6154  -19.2023  -13.2909 O   0  0  0  0  0  0  0  0  0  0  0  0
  2  1  1  0
  3  2  1  0
  4  3  1  0
  5  4  1  0
  5  7  1  0
  5  6  1  6
  7  9  1  0
  7  8  2  0
  9 10  1  0
 10 11  1  1
 12 11  1  0
 13 12  1  0
 13 14  1  0
 15 14  1  0
 16 21  1  0
 16 10  1  0
 17 16  2  0
 20 19  1  1
 19 18  1  0
 20 22  1  0
 20 21  1  0
 22 24  1  0
 23 22  2  0
M  END
$$$$
