MKS.pdb
     RDKit          3D

 24 23  0  0  1  0  0  0  0  0999 V2000
   29.3385  -20.5752   -4.5221 C   0  0  0  0  0  0  0  0  0  0  0  0
   27.8804  -19.4873   -4.3772 S   0  0  0  0  0  0  0  0  0  0  0  0
   27.3521  -19.0826   -6.0602 C   0  0  0  0  0  0  0  0  0  0  0  0
   26.8298  -20.3156   -6.7904 C   0  0  0  0  0  0  0  0  0  0  0  0
   27.0063  -20.0281   -8.2681 C   0  0  2  0  0  0  0  0  0  0  0  0
   26.8141  -18.6000   -8.4397 N   0  0  0  0  0  0  0  0  0  0  0  0
   26.0736  -20.7852   -9.1101 C   0  0  0  0  0  0  0  0  0  0  0  0
   26.2019  -22.0376   -9.2022 O   0  0  0  0  0  0  0  0  0  0  0  0
   25.0322  -20.1810   -9.8280 N   0  0  0  0  0  0  0  0  0  0  0  0
   24.4435  -20.8149  -11.0474 C   0  0  1  0  0  0  0  0  0  0  0  0
   22.9685  -20.5663  -11.0406 C   0  0  0  0  0  0  0  0  0  0  0  0
   22.1877  -21.0298  -12.2055 C   0  0  0  0  0  0  0  0  0  0  0  0
   20.7257  -20.7061  -12.0034 C   0  0  0  0  0  0  0  0  0  0  0  0
   19.9729  -21.1424  -13.2559 C   0  0  0  0  0  0  0  0  0  0  0  0
   18.5440  -20.9022  -12.9994 N   0  0  0  0  0  0  0  0  0  0  0  0
   25.1720  -20.2168  -12.1843 C   0  0  0  0  0  0  0  0  0  0  0  0
   26.1049  -19.3716  -11.9368 O   0  0  0  0  0  0  0  0  0  0  0  0
   27.9686  -22.0554  -14.8559 O   0  0  0  0  0  0  0  0  0  0  0  0
   26.9211  -21.7678  -13.9664 C   0  0  0  0  0  0  0  0  0  0  0  0
   26.0496  -20.6505  -14.5076 C   0  0  2  0  0  0  0  0  0  0  0  0
   24.9681  -20.4665  -13.5465 N   0  0  0  0  0  0  0  0  0  0  0  0
   25.5258  -21.1016  -15.8231 C   0  0  0  0  0  0  0  0  0  0  0  0
   24.6057  -21.9402  -15.8301 O   0  0  0  0  0  0  0  0  0  0  0  0
   26.0333  -20.6150  -17.0193 O   0  0  0  0  0  0  0  0  0  0  0  0
  2  1  1  0
  3  2  1  0
  4  3  1  0
  5  4  1  0
  5  7  1  0
  5  6  1  1
  7  9  1  0
  7  8  2  0
  9 10  1  0
 10 11  1  6
 12 11  1  0
 13 12  1  0
 13 14  1  0
 15 14  1  0
 16 21  1  0
 16 10  1  0
 17 16  2  0
 20 19  1  1
 19 18  1  0
 20 22  1  0
 20 21  1  0
 22 24  1  0
 23 22  2  0
M  END
$$$$
