MKS.pdb
     RDKit          3D

 24 23  0  0  1  0  0  0  0  0999 V2000
   27.6418  -18.9922   -7.7925 C   0  0  0  0  0  0  0  0  0  0  0  0
   26.7430  -20.3069   -8.6838 S   0  0  0  0  0  0  0  0  0  0  0  0
   27.8441  -20.9119   -9.9864 C   0  0  0  0  0  0  0  0  0  0  0  0
   27.0550  -21.4776  -11.1629 C   0  0  0  0  0  0  0  0  0  0  0  0
   25.7663  -20.6817  -11.2186 C   0  0  2  0  0  0  0  0  0  0  0  0
   24.8388  -21.3279  -10.3086 N   0  0  0  0  0  0  0  0  0  0  0  0
   25.2030  -20.6057  -12.5711 C   0  0  0  0  0  0  0  0  0  0  0  0
   24.6473  -21.6249  -13.0669 O   0  0  0  0  0  0  0  0  0  0  0  0
   25.2506  -19.4429  -13.3524 N   0  0  0  0  0  0  0  0  0  0  0  0
   24.5807  -19.3612  -14.6865 C   0  0  1  0  0  0  0  0  0  0  0  0
   24.3558  -17.9186  -15.0118 C   0  0  0  0  0  0  0  0  0  0  0  0
   23.6046  -17.6003  -16.2430 C   0  0  0  0  0  0  0  0  0  0  0  0
   22.1675  -18.0430  -16.0945 C   0  0  0  0  0  0  0  0  0  0  0  0
   21.4274  -17.6643  -17.3731 C   0  0  0  0  0  0  0  0  0  0  0  0
   20.0265  -18.0770  -17.1924 N   0  0  0  0  0  0  0  0  0  0  0  0
   25.4785  -20.0776  -15.6147 C   0  0  0  0  0  0  0  0  0  0  0  0
   26.7455  -19.9307  -15.4763 O   0  0  0  0  0  0  0  0  0  0  0  0
   24.7845  -21.8721  -19.6055 O   0  0  0  0  0  0  0  0  0  0  0  0
   25.2696  -22.5010  -18.4479 C   0  0  0  0  0  0  0  0  0  0  0  0
   26.0579  -21.5237  -17.5970 C   0  0  2  0  0  0  0  0  0  0  0  0
   25.1090  -20.9294  -16.6623 N   0  0  0  0  0  0  0  0  0  0  0  0
   26.6196  -20.4982  -18.5142 C   0  0  0  0  0  0  0  0  0  0  0  0
   25.9457  -19.4738  -18.7294 O   0  0  0  0  0  0  0  0  0  0  0  0
   27.8562  -20.6586  -19.1228 O   0  0  0  0  0  0  0  0  0  0  0  0
  2  1  1  0
  3  2  1  0
  4  3  1  0
  5  4  1  0
  5  7  1  0
  5  6  1  1
  7  9  1  0
  7  8  2  0
  9 10  1  0
 10 11  1  6
 12 11  1  0
 13 12  1  0
 13 14  1  0
 15 14  1  0
 16 21  1  0
 16 10  1  0
 17 16  2  0
 20 19  1  6
 19 18  1  0
 20 22  1  0
 20 21  1  0
 22 24  1  0
 23 22  2  0
M  END
$$$$
