MKS.pdb
     RDKit          3D

 24 23  0  0  1  0  0  0  0  0999 V2000
   28.8506  -13.8164  -15.5452 C   0  0  0  0  0  0  0  0  0  0  0  0
   27.8964  -12.2739  -15.3437 S   0  0  0  0  0  0  0  0  0  0  0  0
   26.5387  -12.3308  -16.5390 C   0  0  0  0  0  0  0  0  0  0  0  0
   25.6723  -11.0782  -16.4563 C   0  0  0  0  0  0  0  0  0  0  0  0
   24.5847  -11.2569  -17.4967 C   0  0  2  0  0  0  0  0  0  0  0  0
   25.2322  -11.1775  -18.7929 N   0  0  0  0  0  0  0  0  0  0  0  0
   23.5191  -10.2551  -17.3832 C   0  0  0  0  0  0  0  0  0  0  0  0
   23.6593   -9.1371  -17.9525 O   0  0  0  0  0  0  0  0  0  0  0  0
   22.3362  -10.4783  -16.6650 N   0  0  0  0  0  0  0  0  0  0  0  0
   21.2148   -9.4895  -16.6654 C   0  0  1  0  0  0  0  0  0  0  0  0
   19.9494  -10.2140  -16.3320 C   0  0  0  0  0  0  0  0  0  0  0  0
   18.6996   -9.4283  -16.2831 C   0  0  0  0  0  0  0  0  0  0  0  0
   17.5193  -10.3548  -16.1055 C   0  0  0  0  0  0  0  0  0  0  0  0
   16.2485   -9.5181  -16.2111 C   0  0  0  0  0  0  0  0  0  0  0  0
   15.1224  -10.4130  -15.9007 N   0  0  0  0  0  0  0  0  0  0  0  0
   21.6141   -8.4513  -15.6940 C   0  0  0  0  0  0  0  0  0  0  0  0
   22.3579   -8.7917  -14.7056 O   0  0  0  0  0  0  0  0  0  0  0  0
   23.4004   -4.3257  -14.6920 O   0  0  0  0  0  0  0  0  0  0  0  0
   22.8964   -5.3612  -15.4950 C   0  0  0  0  0  0  0  0  0  0  0  0
   21.7936   -6.1114  -14.7728 C   0  0  2  0  0  0  0  0  0  0  0  0
   21.2738   -7.0937  -15.7173 N   0  0  0  0  0  0  0  0  0  0  0  0
   20.7523   -5.1158  -14.4083 C   0  0  0  0  0  0  0  0  0  0  0  0
   19.8459   -4.8893  -15.2312 O   0  0  0  0  0  0  0  0  0  0  0  0
   20.7716   -4.4476  -13.1924 O   0  0  0  0  0  0  0  0  0  0  0  0
  2  1  1  0
  3  2  1  0
  4  3  1  0
  5  4  1  0
  5  7  1  0
  5  6  1  6
  7  9  1  0
  7  8  2  0
  9 10  1  0
 10 11  1  1
 12 11  1  0
 13 12  1  0
 13 14  1  0
 15 14  1  0
 16 21  1  0
 16 10  1  0
 17 16  2  0
 20 19  1  6
 19 18  1  0
 20 22  1  0
 20 21  1  0
 22 24  1  0
 23 22  2  0
M  END
$$$$
