MKS.pdb
     RDKit          3D

 24 23  0  0  1  0  0  0  0  0999 V2000
   29.8357  -20.3493  -14.0599 C   0  0  0  0  0  0  0  0  0  0  0  0
   29.1452  -19.2584  -12.7700 S   0  0  0  0  0  0  0  0  0  0  0  0
   27.8058  -20.1715  -11.9654 C   0  0  0  0  0  0  0  0  0  0  0  0
   26.7578  -20.6264  -12.9760 C   0  0  0  0  0  0  0  0  0  0  0  0
   25.6613  -21.2891  -12.1662 C   0  0  2  0  0  0  0  0  0  0  0  0
   26.2327  -22.4988  -11.6042 N   0  0  0  0  0  0  0  0  0  0  0  0
   24.4707  -21.5970  -12.9661 C   0  0  0  0  0  0  0  0  0  0  0  0
   24.3664  -22.7332  -13.5063 O   0  0  0  0  0  0  0  0  0  0  0  0
   23.4278  -20.6816  -13.1645 N   0  0  0  0  0  0  0  0  0  0  0  0
   22.2507  -21.0022  -14.0287 C   0  0  1  0  0  0  0  0  0  0  0  0
   21.0055  -20.6838  -13.2635 C   0  0  0  0  0  0  0  0  0  0  0  0
   19.7326  -21.2484  -13.7559 C   0  0  0  0  0  0  0  0  0  0  0  0
   19.7965  -22.7578  -13.7257 C   0  0  0  0  0  0  0  0  0  0  0  0
   18.4713  -23.2924  -14.2586 C   0  0  0  0  0  0  0  0  0  0  0  0
   18.5951  -24.7577  -14.3151 N   0  0  0  0  0  0  0  0  0  0  0  0
   22.4469  -20.2095  -15.2592 C   0  0  0  0  0  0  0  0  0  0  0  0
   21.7899  -19.1158  -15.3939 O   0  0  0  0  0  0  0  0  0  0  0  0
   21.9371  -22.9550  -18.6631 O   0  0  0  0  0  0  0  0  0  0  0  0
   22.3298  -22.3913  -17.4386 C   0  0  0  0  0  0  0  0  0  0  0  0
   22.8160  -20.9680  -17.6350 C   0  0  2  0  0  0  0  0  0  0  0  0
   23.2913  -20.5098  -16.3345 N   0  0  0  0  0  0  0  0  0  0  0  0
   21.6513  -20.1663  -18.0923 C   0  0  0  0  0  0  0  0  0  0  0  0
   20.6305  -20.1584  -17.3797 O   0  0  0  0  0  0  0  0  0  0  0  0
   21.6804  -19.4413  -19.2750 O   0  0  0  0  0  0  0  0  0  0  0  0
  2  1  1  0
  3  2  1  0
  4  3  1  0
  5  4  1  0
  5  7  1  0
  5  6  1  6
  7  9  1  0
  7  8  2  0
  9 10  1  0
 10 11  1  1
 12 11  1  0
 13 12  1  0
 13 14  1  0
 15 14  1  0
 16 21  1  0
 16 10  1  0
 17 16  2  0
 20 19  1  1
 19 18  1  0
 20 22  1  0
 20 21  1  0
 22 24  1  0
 23 22  2  0
M  END
$$$$
