MKS.pdb
     RDKit          3D

 24 23  0  0  1  0  0  0  0  0999 V2000
   28.2168  -14.4072  -15.1579 C   0  0  0  0  0  0  0  0  0  0  0  0
   26.8828  -13.1874  -15.4090 S   0  0  0  0  0  0  0  0  0  0  0  0
   27.6453  -11.7070  -16.1178 C   0  0  0  0  0  0  0  0  0  0  0  0
   26.6527  -10.5511  -16.1903 C   0  0  0  0  0  0  0  0  0  0  0  0
   25.4736  -11.0667  -16.9910 C   0  0  2  0  0  0  0  0  0  0  0  0
   25.9539  -11.2894  -18.3422 N   0  0  0  0  0  0  0  0  0  0  0  0
   24.3355  -10.1411  -16.9875 C   0  0  0  0  0  0  0  0  0  0  0  0
   24.3547   -9.1358  -17.7509 O   0  0  0  0  0  0  0  0  0  0  0  0
   23.2117  -10.3177  -16.1686 N   0  0  0  0  0  0  0  0  0  0  0  0
   22.0349   -9.3979  -16.2352 C   0  0  1  0  0  0  0  0  0  0  0  0
   20.8339  -10.1343  -15.7326 C   0  0  0  0  0  0  0  0  0  0  0  0
   19.5674   -9.3838  -15.6131 C   0  0  0  0  0  0  0  0  0  0  0  0
   18.4433  -10.1732  -16.2427 C   0  0  0  0  0  0  0  0  0  0  0  0
   17.1754   -9.3299  -16.1580 C   0  0  0  0  0  0  0  0  0  0  0  0
   16.1675   -9.9902  -17.0028 N   0  0  0  0  0  0  0  0  0  0  0  0
   22.4216   -8.2166  -15.4377 C   0  0  0  0  0  0  0  0  0  0  0  0
   22.9860   -8.4038  -14.3008 O   0  0  0  0  0  0  0  0  0  0  0  0
   22.6970   -4.5112  -16.9602 O   0  0  0  0  0  0  0  0  0  0  0  0
   23.3866   -4.7763  -15.7663 C   0  0  0  0  0  0  0  0  0  0  0  0
   22.6137   -5.7593  -14.9077 C   0  0  2  0  0  0  0  0  0  0  0  0
   22.2467   -6.8702  -15.7785 N   0  0  0  0  0  0  0  0  0  0  0  0
   21.4075   -5.0501  -14.4074 C   0  0  0  0  0  0  0  0  0  0  0  0
   20.3033   -5.3609  -14.8912 O   0  0  0  0  0  0  0  0  0  0  0  0
   21.4879   -4.0677  -13.4308 O   0  0  0  0  0  0  0  0  0  0  0  0
  2  1  1  0
  3  2  1  0
  4  3  1  0
  5  4  1  0
  5  7  1  0
  5  6  1  6
  7  9  1  0
  7  8  2  0
  9 10  1  0
 10 11  1  1
 12 11  1  0
 13 12  1  0
 13 14  1  0
 15 14  1  0
 16 21  1  0
 16 10  1  0
 17 16  2  0
 20 19  1  6
 19 18  1  0
 20 22  1  0
 20 21  1  0
 22 24  1  0
 23 22  2  0
M  END
$$$$
