MKS.pdb
     RDKit          3D

 24 23  0  0  1  0  0  0  0  0999 V2000
   29.3089  -18.6380   -5.3915 C   0  0  0  0  0  0  0  0  0  0  0  0
   28.6534  -20.2239   -4.7703 S   0  0  0  0  0  0  0  0  0  0  0  0
   27.1105  -20.5444   -5.6601 C   0  0  0  0  0  0  0  0  0  0  0  0
   27.2274  -20.1607   -7.1317 C   0  0  0  0  0  0  0  0  0  0  0  0
   25.8549  -20.3932   -7.7311 C   0  0  2  0  0  0  0  0  0  0  0  0
   25.4841  -21.7576   -7.4042 N   0  0  0  0  0  0  0  0  0  0  0  0
   25.8239  -20.1772   -9.1818 C   0  0  0  0  0  0  0  0  0  0  0  0
   26.2273  -19.0769   -9.6511 O   0  0  0  0  0  0  0  0  0  0  0  0
   25.3628  -21.1432  -10.0867 N   0  0  0  0  0  0  0  0  0  0  0  0
   25.3421  -20.8965  -11.5612 C   0  0  1  0  0  0  0  0  0  0  0  0
   26.2179  -21.9144  -12.2202 C   0  0  0  0  0  0  0  0  0  0  0  0
   26.2474  -21.9435  -13.6967 C   0  0  0  0  0  0  0  0  0  0  0  0
   27.1247  -20.8269  -14.2131 C   0  0  0  0  0  0  0  0  0  0  0  0
   27.1427  -20.9130  -15.7357 C   0  0  0  0  0  0  0  0  0  0  0  0
   27.9508  -19.7811  -16.2167 N   0  0  0  0  0  0  0  0  0  0  0  0
   23.9170  -20.9579  -11.9437 C   0  0  0  0  0  0  0  0  0  0  0  0
   23.2281  -21.9761  -11.5765 O   0  0  0  0  0  0  0  0  0  0  0  0
   21.0902  -17.9312  -12.7345 O   0  0  0  0  0  0  0  0  0  0  0  0
   21.3749  -18.8828  -13.7268 C   0  0  0  0  0  0  0  0  0  0  0  0
   21.8122  -20.1941  -13.1024 C   0  0  2  0  0  0  0  0  0  0  0  0
   23.1961  -20.0105  -12.6801 N   0  0  0  0  0  0  0  0  0  0  0  0
   21.7076  -21.2373  -14.1556 C   0  0  0  0  0  0  0  0  0  0  0  0
   20.6529  -21.8952  -14.2247 O   0  0  0  0  0  0  0  0  0  0  0  0
   22.7430  -21.4863  -15.0451 O   0  0  0  0  0  0  0  0  0  0  0  0
  2  1  1  0
  3  2  1  0
  4  3  1  0
  5  4  1  0
  5  7  1  0
  5  6  1  6
  7  9  1  0
  7  8  2  0
  9 10  1  0
 10 11  1  6
 12 11  1  0
 13 12  1  0
 13 14  1  0
 15 14  1  0
 16 21  1  0
 16 10  1  0
 17 16  2  0
 20 19  1  6
 19 18  1  0
 20 22  1  0
 20 21  1  0
 22 24  1  0
 23 22  2  0
M  END
$$$$
