MKS.pdb
     RDKit          3D

 24 23  0  0  1  0  0  0  0  0999 V2000
    9.5032  -21.1780   -3.3933 C   0  0  0  0  0  0  0  0  0  0  0  0
   10.5677  -19.7113   -3.6082 S   0  0  0  0  0  0  0  0  0  0  0  0
   11.9746  -20.2223   -4.6254 C   0  0  0  0  0  0  0  0  0  0  0  0
   12.2636  -21.7115   -4.4666 C   0  0  0  0  0  0  0  0  0  0  0  0
   13.3924  -22.0198   -5.4299 C   0  0  2  0  0  0  0  0  0  0  0  0
   12.8248  -21.9725   -6.7646 N   0  0  0  0  0  0  0  0  0  0  0  0
   14.0181  -23.3219   -5.1746 C   0  0  0  0  0  0  0  0  0  0  0  0
   13.3537  -24.3764   -5.3755 O   0  0  0  0  0  0  0  0  0  0  0  0
   15.3345  -23.4577   -4.7127 N   0  0  0  0  0  0  0  0  0  0  0  0
   15.9276  -24.7946   -4.4025 C   0  0  1  0  0  0  0  0  0  0  0  0
   17.3393  -24.8084   -4.8967 C   0  0  0  0  0  0  0  0  0  0  0  0
   17.7255  -25.8732   -5.8447 C   0  0  0  0  0  0  0  0  0  0  0  0
   17.8915  -25.2906   -7.2289 C   0  0  0  0  0  0  0  0  0  0  0  0
   18.1566  -26.4429   -8.1923 C   0  0  0  0  0  0  0  0  0  0  0  0
   18.2114  -25.8638   -9.5440 N   0  0  0  0  0  0  0  0  0  0  0  0
   15.7759  -24.9557   -2.9424 C   0  0  0  0  0  0  0  0  0  0  0  0
   15.9866  -23.9386   -2.1893 O   0  0  0  0  0  0  0  0  0  0  0  0
   14.3984  -27.6294    0.8989 O   0  0  0  0  0  0  0  0  0  0  0  0
   14.5791  -27.4850   -0.4859 C   0  0  0  0  0  0  0  0  0  0  0  0
   15.3289  -26.2039   -0.7980 C   0  0  2  0  0  0  0  0  0  0  0  0
   15.4158  -26.1187   -2.2514 N   0  0  0  0  0  0  0  0  0  0  0  0
   16.6781  -26.3260   -0.1872 C   0  0  0  0  0  0  0  0  0  0  0  0
   17.6182  -26.6965   -0.9144 O   0  0  0  0  0  0  0  0  0  0  0  0
   16.9045  -26.0403    1.1516 O   0  0  0  0  0  0  0  0  0  0  0  0
  2  1  1  0
  3  2  1  0
  4  3  1  0
  5  4  1  0
  5  7  1  0
  5  6  1  6
  7  9  1  0
  7  8  2  0
  9 10  1  0
 10 11  1  1
 12 11  1  0
 13 12  1  0
 13 14  1  0
 15 14  1  0
 16 21  1  0
 16 10  1  0
 17 16  2  0
 20 19  1  6
 19 18  1  0
 20 22  1  0
 20 21  1  0
 22 24  1  0
 23 22  2  0
M  END
$$$$
