DAK.pdb
     RDKit          3D

 23 22  0  0  1  0  0  0  0  0999 V2000
   15.6318  -14.0262  -16.4743 N   0  0  0  0  0  0  0  0  0  0  0  0
   16.3011  -13.2999  -15.4168 C   0  0  1  0  0  0  0  0  0  0  0  0
   17.4613  -14.0928  -14.8466 C   0  0  0  0  0  0  0  0  0  0  0  0
   16.9930  -15.3485  -14.2177 C   0  0  0  0  0  0  0  0  0  0  0  0
   16.1240  -15.3104  -13.3268 O   0  0  0  0  0  0  0  0  0  0  0  0
   16.7403  -11.9556  -15.8642 C   0  0  0  0  0  0  0  0  0  0  0  0
   17.4506  -11.8275  -16.8926 O   0  0  0  0  0  0  0  0  0  0  0  0
   17.5101  -16.5710  -14.6081 O   0  0  0  0  0  0  0  0  0  0  0  0
   16.0091   -8.3474  -15.0308 C   0  0  0  0  0  0  0  0  0  0  0  0
   16.8075   -9.4889  -15.6127 C   0  0  2  0  0  0  0  0  0  0  0  0
   16.3842  -10.7715  -15.1628 N   0  0  0  0  0  0  0  0  0  0  0  0
   18.2440   -9.2167  -15.3516 C   0  0  0  0  0  0  0  0  0  0  0  0
   18.7462   -9.7028  -14.3116 O   0  0  0  0  0  0  0  0  0  0  0  0
   19.0623   -8.4566  -16.1903 N   0  0  0  0  0  0  0  0  0  0  0  0
   20.4474   -8.1501  -15.9849 C   0  0  1  0  0  0  0  0  0  0  0  0
   21.2369   -7.8726  -17.2011 C   0  0  0  0  0  0  0  0  0  0  0  0
   22.6674   -7.4608  -16.9939 C   0  0  0  0  0  0  0  0  0  0  0  0
   23.3757   -7.0315  -18.2546 C   0  0  0  0  0  0  0  0  0  0  0  0
   24.8306   -6.7559  -17.9036 C   0  0  0  0  0  0  0  0  0  0  0  0
   25.4608   -6.2546  -19.1191 N   0  0  0  0  0  0  0  0  0  0  0  0
   20.6066   -7.1711  -14.9022 C   0  0  0  0  0  0  0  0  0  0  0  0
   19.9157   -6.1266  -14.7896 O   0  0  0  0  0  0  0  0  0  0  0  0
   21.5784   -7.3854  -13.9229 O   0  0  0  0  0  0  0  0  0  0  0  0
  2  1  1  6
  2  3  1  0
  3  4  1  0
  4  5  2  0
  6 11  1  0
  6  2  1  0
  7  6  2  0
  8  4  1  0
 10  9  1  1
 10 12  1  0
 10 11  1  0
 12 14  1  0
 13 12  2  0
 14 15  1  0
 15 21  1  0
 15 16  1  6
 16 17  1  0
 18 19  1  0
 18 17  1  0
 20 19  1  0
 21 23  1  0
 22 21  2  0
M  END
$$$$
