DAK.pdb
     RDKit          3D

 23 22  0  0  1  0  0  0  0  0999 V2000
   16.8028  -10.2690  -12.3175 N   0  0  0  0  0  0  0  0  0  0  0  0
   17.1302   -8.8853  -12.0493 C   0  0  1  0  0  0  0  0  0  0  0  0
   17.3391   -8.1052  -13.3328 C   0  0  0  0  0  0  0  0  0  0  0  0
   18.5823   -8.5254  -14.0178 C   0  0  0  0  0  0  0  0  0  0  0  0
   18.5718   -9.5173  -14.7705 O   0  0  0  0  0  0  0  0  0  0  0  0
   16.1126   -8.2354  -11.1876 C   0  0  0  0  0  0  0  0  0  0  0  0
   14.8958   -8.2764  -11.4978 O   0  0  0  0  0  0  0  0  0  0  0  0
   19.7627   -7.8277  -13.8328 O   0  0  0  0  0  0  0  0  0  0  0  0
   15.9375   -6.9111   -7.6787 C   0  0  0  0  0  0  0  0  0  0  0  0
   15.4634   -7.0553   -9.1048 C   0  0  2  0  0  0  0  0  0  0  0  0
   16.4609   -7.5488   -9.9926 N   0  0  0  0  0  0  0  0  0  0  0  0
   14.8914   -5.7512   -9.5264 C   0  0  0  0  0  0  0  0  0  0  0  0
   15.5842   -5.0322  -10.2836 O   0  0  0  0  0  0  0  0  0  0  0  0
   13.6365   -5.2820   -9.1320 N   0  0  0  0  0  0  0  0  0  0  0  0
   13.0338   -4.0359   -9.5042 C   0  0  1  0  0  0  0  0  0  0  0  0
   11.6323   -3.8423   -9.0825 C   0  0  0  0  0  0  0  0  0  0  0  0
   11.0083   -2.5157   -9.4137 C   0  0  0  0  0  0  0  0  0  0  0  0
    9.6231   -2.3259   -8.8475 C   0  0  0  0  0  0  0  0  0  0  0  0
    9.1485   -0.9312   -9.2290 C   0  0  0  0  0  0  0  0  0  0  0  0
    7.8438   -0.7534   -8.6028 N   0  0  0  0  0  0  0  0  0  0  0  0
   13.9343   -2.9150   -9.2060 C   0  0  0  0  0  0  0  0  0  0  0  0
   14.5327   -2.7643   -8.1106 O   0  0  0  0  0  0  0  0  0  0  0  0
   14.1586   -1.9395  -10.1794 O   0  0  0  0  0  0  0  0  0  0  0  0
  2  1  1  6
  2  3  1  0
  3  4  1  0
  4  5  2  0
  6 11  1  0
  6  2  1  0
  7  6  2  0
  8  4  1  0
 10  9  1  1
 10 12  1  0
 10 11  1  0
 12 14  1  0
 13 12  2  0
 14 15  1  0
 15 21  1  0
 15 16  1  1
 16 17  1  0
 18 19  1  0
 18 17  1  0
 20 19  1  0
 21 23  1  0
 22 21  2  0
M  END
$$$$
