DAK.pdb
     RDKit          3D

 23 22  0  0  1  0  0  0  0  0999 V2000
   20.2410  -11.1200  -15.4490 N   0  0  0  0  0  0  0  0  0  0  0  0
   19.5827   -9.8379  -15.3203 C   0  0  1  0  0  0  0  0  0  0  0  0
   18.1942   -9.8628  -15.9295 C   0  0  0  0  0  0  0  0  0  0  0  0
   18.2551  -10.0982  -17.3898 C   0  0  0  0  0  0  0  0  0  0  0  0
   19.2002   -9.6343  -18.0547 O   0  0  0  0  0  0  0  0  0  0  0  0
   19.5402   -9.3796  -13.9101 C   0  0  0  0  0  0  0  0  0  0  0  0
   18.9522  -10.0639  -13.0357 O   0  0  0  0  0  0  0  0  0  0  0  0
   17.2713  -10.8306  -18.0301 O   0  0  0  0  0  0  0  0  0  0  0  0
   20.9080   -6.5338  -11.8184 C   0  0  0  0  0  0  0  0  0  0  0  0
   19.9734   -7.6661  -12.1698 C   0  0  2  0  0  0  0  0  0  0  0  0
   20.1517   -8.1668  -13.4905 N   0  0  0  0  0  0  0  0  0  0  0  0
   18.5868   -7.2116  -11.8936 C   0  0  0  0  0  0  0  0  0  0  0  0
   17.9493   -6.6892  -12.8375 O   0  0  0  0  0  0  0  0  0  0  0  0
   17.9557   -7.3309  -10.6534 N   0  0  0  0  0  0  0  0  0  0  0  0
   16.6125   -6.9433  -10.3366 C   0  0  1  0  0  0  0  0  0  0  0  0
   15.9227   -7.7658   -9.3231 C   0  0  0  0  0  0  0  0  0  0  0  0
   14.4866   -7.4217   -9.0429 C   0  0  0  0  0  0  0  0  0  0  0  0
   13.8229   -8.3190   -8.0282 C   0  0  0  0  0  0  0  0  0  0  0  0
   12.3903   -7.8393   -7.8452 C   0  0  0  0  0  0  0  0  0  0  0  0
   11.7796   -8.7279   -6.8636 N   0  0  0  0  0  0  0  0  0  0  0  0
   16.5281   -5.4928  -10.1241 C   0  0  0  0  0  0  0  0  0  0  0  0
   15.4764   -4.8195  -10.2705 O   0  0  0  0  0  0  0  0  0  0  0  0
   17.6705   -4.7902   -9.7362 O   0  0  0  0  0  0  0  0  0  0  0  0
  2  1  1  1
  2  3  1  0
  3  4  1  0
  4  5  2  0
  6 11  1  0
  6  2  1  0
  7  6  2  0
  8  4  1  0
 10  9  1  6
 10 12  1  0
 10 11  1  0
 12 14  1  0
 13 12  2  0
 14 15  1  0
 15 21  1  0
 15 16  1  1
 16 17  1  0
 18 19  1  0
 18 17  1  0
 20 19  1  0
 21 23  1  0
 22 21  2  0
M  END
$$$$
