DAK.pdb
     RDKit          3D

 23 22  0  0  1  0  0  0  0  0999 V2000
   20.3264  -15.2553  -15.9591 N   0  0  0  0  0  0  0  0  0  0  0  0
   20.2514  -14.0530  -16.7606 C   0  0  1  0  0  0  0  0  0  0  0  0
   18.8638  -13.8574  -17.3400 C   0  0  0  0  0  0  0  0  0  0  0  0
   18.4680  -15.0099  -18.1807 C   0  0  0  0  0  0  0  0  0  0  0  0
   17.3242  -15.4909  -18.0763 O   0  0  0  0  0  0  0  0  0  0  0  0
   20.6875  -12.8561  -16.0004 C   0  0  0  0  0  0  0  0  0  0  0  0
   19.8647  -12.2081  -15.3065 O   0  0  0  0  0  0  0  0  0  0  0  0
   19.3558  -15.5634  -19.0860 O   0  0  0  0  0  0  0  0  0  0  0  0
   23.9162  -10.9953  -15.2974 C   0  0  0  0  0  0  0  0  0  0  0  0
   22.4237  -11.2214  -15.3181 C   0  0  2  0  0  0  0  0  0  0  0  0
   22.0322  -12.3955  -16.0215 N   0  0  0  0  0  0  0  0  0  0  0  0
   21.7849   -9.9840  -15.8343 C   0  0  0  0  0  0  0  0  0  0  0  0
   21.6517   -9.8751  -17.0756 O   0  0  0  0  0  0  0  0  0  0  0  0
   21.3273   -8.9421  -15.0246 N   0  0  0  0  0  0  0  0  0  0  0  0
   20.7679   -7.6985  -15.4661 C   0  0  1  0  0  0  0  0  0  0  0  0
   19.3052   -7.5588  -15.3231 C   0  0  0  0  0  0  0  0  0  0  0  0
   18.6977   -6.2866  -15.8442 C   0  0  0  0  0  0  0  0  0  0  0  0
   17.1972   -6.2170  -15.7071 C   0  0  0  0  0  0  0  0  0  0  0  0
   16.7161   -4.9796  -16.4509 C   0  0  0  0  0  0  0  0  0  0  0  0
   15.2612   -4.9796  -16.3548 N   0  0  0  0  0  0  0  0  0  0  0  0
   21.5541   -6.5671  -14.9581 C   0  0  0  0  0  0  0  0  0  0  0  0
   22.2873   -6.6202  -13.9381 O   0  0  0  0  0  0  0  0  0  0  0  0
   21.5034   -5.3429  -15.6276 O   0  0  0  0  0  0  0  0  0  0  0  0
  2  1  1  1
  2  3  1  0
  3  4  1  0
  4  5  2  0
  6 11  1  0
  6  2  1  0
  7  6  2  0
  8  4  1  0
 10  9  1  6
 10 12  1  0
 10 11  1  0
 12 14  1  0
 13 12  2  0
 14 15  1  0
 15 21  1  0
 15 16  1  1
 16 17  1  0
 18 19  1  0
 18 17  1  0
 20 19  1  0
 21 23  1  0
 22 21  2  0
M  END
$$$$
