DAK.pdb
     RDKit          3D

 23 22  0  0  1  0  0  0  0  0999 V2000
   16.5031  -24.9738    5.0010 N   0  0  0  0  0  0  0  0  0  0  0  0
   17.7802  -25.2395    5.6272 C   0  0  1  0  0  0  0  0  0  0  0  0
   18.9171  -25.1566    4.6271 C   0  0  0  0  0  0  0  0  0  0  0  0
   18.7614  -26.1659    3.5554 C   0  0  0  0  0  0  0  0  0  0  0  0
   19.4888  -26.1172    2.5460 O   0  0  0  0  0  0  0  0  0  0  0  0
   18.0214  -24.3466    6.7869 C   0  0  0  0  0  0  0  0  0  0  0  0
   17.6656  -23.1423    6.7481 O   0  0  0  0  0  0  0  0  0  0  0  0
   17.8136  -27.1684    3.6599 O   0  0  0  0  0  0  0  0  0  0  0  0
   19.3176  -24.6760   10.3365 C   0  0  0  0  0  0  0  0  0  0  0  0
   18.7746  -23.9667    9.1195 C   0  0  2  0  0  0  0  0  0  0  0  0
   18.6549  -24.8042    7.9745 N   0  0  0  0  0  0  0  0  0  0  0  0
   19.6125  -22.7632    8.8849 C   0  0  0  0  0  0  0  0  0  0  0  0
   20.5373  -22.8558    8.0444 O   0  0  0  0  0  0  0  0  0  0  0  0
   19.4323  -21.5432    9.5405 N   0  0  0  0  0  0  0  0  0  0  0  0
   20.1974  -20.3468    9.3460 C   0  0  1  0  0  0  0  0  0  0  0  0
   19.4300  -19.0862    9.3062 C   0  0  0  0  0  0  0  0  0  0  0  0
   18.6520  -18.8129    8.0496 C   0  0  0  0  0  0  0  0  0  0  0  0
   17.7508  -17.6060    8.1311 C   0  0  0  0  0  0  0  0  0  0  0  0
   16.9807  -17.5075    6.8222 C   0  0  0  0  0  0  0  0  0  0  0  0
   16.2489  -16.2472    6.8675 N   0  0  0  0  0  0  0  0  0  0  0  0
   21.3717  -20.3334   10.2274 C   0  0  0  0  0  0  0  0  0  0  0  0
   22.2914  -19.4785   10.1627 O   0  0  0  0  0  0  0  0  0  0  0  0
   21.5035  -21.3193   11.2072 O   0  0  0  0  0  0  0  0  0  0  0  0
  2  1  1  6
  2  3  1  0
  3  4  1  0
  4  5  2  0
  6 11  1  0
  6  2  1  0
  7  6  2  0
  8  4  1  0
 10  9  1  1
 10 12  1  0
 10 11  1  0
 12 14  1  0
 13 12  2  0
 14 15  1  0
 15 21  1  0
 15 16  1  1
 16 17  1  0
 18 19  1  0
 18 17  1  0
 20 19  1  0
 21 23  1  0
 22 21  2  0
M  END
$$$$
