DAK.pdb
     RDKit          3D

 23 22  0  0  1  0  0  0  0  0999 V2000
   26.9074  -20.9975  -15.4814 N   0  0  0  0  0  0  0  0  0  0  0  0
   27.8777  -20.7914  -16.5349 C   0  0  1  0  0  0  0  0  0  0  0  0
   27.7093  -21.8041  -17.6510 C   0  0  0  0  0  0  0  0  0  0  0  0
   28.5506  -23.0000  -17.4195 C   0  0  0  0  0  0  0  0  0  0  0  0
   29.2742  -23.0639  -16.4082 O   0  0  0  0  0  0  0  0  0  0  0  0
   27.8349  -19.4045  -17.0596 C   0  0  0  0  0  0  0  0  0  0  0  0
   26.7874  -18.7181  -16.9596 O   0  0  0  0  0  0  0  0  0  0  0  0
   28.5441  -24.0539  -18.3158 O   0  0  0  0  0  0  0  0  0  0  0  0
   30.2302  -16.8741  -18.5297 C   0  0  0  0  0  0  0  0  0  0  0  0
   28.8824  -17.4843  -18.2290 C   0  0  2  0  0  0  0  0  0  0  0  0
   28.9569  -18.7991  -17.6884 N   0  0  0  0  0  0  0  0  0  0  0  0
   28.0611  -17.3998  -19.4635 C   0  0  0  0  0  0  0  0  0  0  0  0
   27.3752  -18.4018  -19.7729 O   0  0  0  0  0  0  0  0  0  0  0  0
   28.0081  -16.2781  -20.2939 N   0  0  0  0  0  0  0  0  0  0  0  0
   27.1219  -16.0758  -21.4022 C   0  0  1  0  0  0  0  0  0  0  0  0
   25.6859  -16.2837  -21.1299 C   0  0  0  0  0  0  0  0  0  0  0  0
   24.7407  -16.0137  -22.2668 C   0  0  0  0  0  0  0  0  0  0  0  0
   23.2891  -16.2532  -21.9337 C   0  0  0  0  0  0  0  0  0  0  0  0
   22.4680  -15.9596  -23.1809 C   0  0  0  0  0  0  0  0  0  0  0  0
   21.0723  -16.1707  -22.8156 N   0  0  0  0  0  0  0  0  0  0  0  0
   27.4481  -14.8290  -22.1059 C   0  0  0  0  0  0  0  0  0  0  0  0
   27.8413  -13.7800  -21.5351 O   0  0  0  0  0  0  0  0  0  0  0  0
   27.3224  -14.7742  -23.4954 O   0  0  0  0  0  0  0  0  0  0  0  0
  2  1  1  1
  2  3  1  0
  3  4  1  0
  4  5  2  0
  6 11  1  0
  6  2  1  0
  7  6  2  0
  8  4  1  0
 10  9  1  6
 10 12  1  0
 10 11  1  0
 12 14  1  0
 13 12  2  0
 14 15  1  0
 15 21  1  0
 15 16  1  1
 16 17  1  0
 18 19  1  0
 18 17  1  0
 20 19  1  0
 21 23  1  0
 22 21  2  0
M  END
$$$$
