DAK.pdb
     RDKit          3D

 23 22  0  0  1  0  0  0  0  0999 V2000
   21.0973  -17.8743  -14.9678 N   0  0  0  0  0  0  0  0  0  0  0  0
   21.5893  -19.2335  -15.0306 C   0  0  1  0  0  0  0  0  0  0  0  0
   20.4513  -20.2341  -15.0880 C   0  0  0  0  0  0  0  0  0  0  0  0
   19.4786  -20.0009  -13.9967 C   0  0  0  0  0  0  0  0  0  0  0  0
   18.5082  -20.7682  -13.8553 O   0  0  0  0  0  0  0  0  0  0  0  0
   22.5298  -19.4272  -16.1613 C   0  0  0  0  0  0  0  0  0  0  0  0
   23.0396  -20.5545  -16.3794 O   0  0  0  0  0  0  0  0  0  0  0  0
   19.6332  -18.9365  -13.1265 O   0  0  0  0  0  0  0  0  0  0  0  0
   23.9165  -17.3871  -19.0412 C   0  0  0  0  0  0  0  0  0  0  0  0
   23.8084  -18.5662  -18.1045 C   0  0  2  0  0  0  0  0  0  0  0  0
   22.8910  -18.3652  -17.0346 N   0  0  0  0  0  0  0  0  0  0  0  0
   25.1795  -18.9103  -17.6491 C   0  0  0  0  0  0  0  0  0  0  0  0
   25.5942  -18.3681  -16.5982 O   0  0  0  0  0  0  0  0  0  0  0  0
   26.0278  -19.7959  -18.3175 N   0  0  0  0  0  0  0  0  0  0  0  0
   27.3485  -20.1822  -17.9161 C   0  0  1  0  0  0  0  0  0  0  0  0
   27.5578  -21.6242  -17.6788 C   0  0  0  0  0  0  0  0  0  0  0  0
   28.9456  -22.0455  -17.2841 C   0  0  0  0  0  0  0  0  0  0  0  0
   29.1198  -23.5364  -17.1349 C   0  0  0  0  0  0  0  0  0  0  0  0
   30.5734  -23.8039  -16.7724 C   0  0  0  0  0  0  0  0  0  0  0  0
   30.7255  -25.2530  -16.7186 N   0  0  0  0  0  0  0  0  0  0  0  0
   28.3578  -19.5380  -18.7660 C   0  0  0  0  0  0  0  0  0  0  0  0
   29.3764  -18.9470  -18.3256 O   0  0  0  0  0  0  0  0  0  0  0  0
   28.2033  -19.5661  -20.1534 O   0  0  0  0  0  0  0  0  0  0  0  0
  2  1  1  6
  2  3  1  0
  3  4  1  0
  4  5  2  0
  6 11  1  0
  6  2  1  0
  7  6  2  0
  8  4  1  0
 10  9  1  1
 10 12  1  0
 10 11  1  0
 12 14  1  0
 13 12  2  0
 14 15  1  0
 15 21  1  0
 15 16  1  6
 16 17  1  0
 18 19  1  0
 18 17  1  0
 20 19  1  0
 21 23  1  0
 22 21  2  0
M  END
$$$$
