DAK.pdb
     RDKit          3D

 23 22  0  0  1  0  0  0  0  0999 V2000
   17.4085  -11.9668  -15.1748 N   0  0  0  0  0  0  0  0  0  0  0  0
   18.2101  -11.2137  -16.1151 C   0  0  1  0  0  0  0  0  0  0  0  0
   17.3430  -10.4262  -17.0782 C   0  0  0  0  0  0  0  0  0  0  0  0
   16.4538  -11.3217  -17.8520 C   0  0  0  0  0  0  0  0  0  0  0  0
   16.9244  -12.3254  -18.4193 O   0  0  0  0  0  0  0  0  0  0  0  0
   19.1829  -10.3308  -15.4263 C   0  0  0  0  0  0  0  0  0  0  0  0
   18.7873   -9.4646  -14.6068 O   0  0  0  0  0  0  0  0  0  0  0  0
   15.0995  -11.0581  -17.9545 O   0  0  0  0  0  0  0  0  0  0  0  0
   22.9460   -9.9622  -15.1704 C   0  0  0  0  0  0  0  0  0  0  0  0
   21.5010   -9.5642  -14.9891 C   0  0  2  0  0  0  0  0  0  0  0  0
   20.5826  -10.4223  -15.6575 N   0  0  0  0  0  0  0  0  0  0  0  0
   21.3707   -8.1385  -15.3841 C   0  0  0  0  0  0  0  0  0  0  0  0
   21.0084   -7.8933  -16.5583 O   0  0  0  0  0  0  0  0  0  0  0  0
   21.6260   -7.0627  -14.5308 N   0  0  0  0  0  0  0  0  0  0  0  0
   21.5010   -5.6707  -14.8489 C   0  0  1  0  0  0  0  0  0  0  0  0
   20.1338   -5.1911  -15.1325 C   0  0  0  0  0  0  0  0  0  0  0  0
   19.9752   -3.7152  -15.3687 C   0  0  0  0  0  0  0  0  0  0  0  0
   18.5551   -3.2809  -15.6333 C   0  0  0  0  0  0  0  0  0  0  0  0
   18.5730   -1.7943  -15.9581 C   0  0  0  0  0  0  0  0  0  0  0  0
   17.2028   -1.4293  -16.2976 N   0  0  0  0  0  0  0  0  0  0  0  0
   22.2638   -4.8513  -13.8987 C   0  0  0  0  0  0  0  0  0  0  0  0
   22.5323   -5.2033  -12.7220 O   0  0  0  0  0  0  0  0  0  0  0  0
   22.7322   -3.5979  -14.2977 O   0  0  0  0  0  0  0  0  0  0  0  0
  2  1  1  1
  2  3  1  0
  3  4  1  0
  4  5  2  0
  6 11  1  0
  6  2  1  0
  7  6  2  0
  8  4  1  0
 10  9  1  6
 10 12  1  0
 10 11  1  0
 12 14  1  0
 13 12  2  0
 14 15  1  0
 15 21  1  0
 15 16  1  1
 16 17  1  0
 18 19  1  0
 18 17  1  0
 20 19  1  0
 21 23  1  0
 22 21  2  0
M  END
$$$$
