PDF.pdb
     RDKit          3D

 27 28  0  0  1  0  0  0  0  0999 V2000
    9.1530  -14.5740   18.7324 N   0  0  0  0  0  0  0  0  0  0  0  0
    8.2023  -14.5327   17.6640 C   0  0  0  0  0  0  0  0  0  0  0  0
    7.4748  -13.2266   17.8937 C   0  0  0  0  0  0  0  0  0  0  0  0
    7.3015  -13.2616   19.4181 C   0  0  0  0  0  0  0  0  0  0  0  0
    8.5832  -13.8965   19.8504 C   0  0  1  0  0  0  0  0  0  0  0  0
    8.4863  -14.7652   21.0138 C   0  0  0  0  0  0  0  0  0  0  0  0
    7.8532  -14.3535   22.0204 O   0  0  0  0  0  0  0  0  0  0  0  0
    9.0535  -16.0601   21.1151 N   0  0  0  0  0  0  0  0  0  0  0  0
    8.9167  -16.9465   22.2284 C   0  0  1  0  0  0  0  0  0  0  0  0
    9.3773  -18.3467   21.9619 C   0  0  0  0  0  0  0  0  0  0  0  0
   10.7474  -18.4381   21.4594 C   0  0  0  0  0  0  0  0  0  0  0  0
   11.0871  -18.2675   20.2609 O   0  0  0  0  0  0  0  0  0  0  0  0
    9.6808  -16.4186   23.4011 C   0  0  0  0  0  0  0  0  0  0  0  0
   10.7806  -15.8387   23.2310 O   0  0  0  0  0  0  0  0  0  0  0  0
   11.7594  -18.7350   22.3620 O   0  0  0  0  0  0  0  0  0  0  0  0
    9.1964  -16.5525   24.7307 N   0  0  0  0  0  0  0  0  0  0  0  0
    9.8996  -16.0050   25.8884 C   0  0  1  0  0  0  0  0  0  0  0  0
   10.0520  -14.5237   25.7854 C   0  0  0  0  0  0  0  0  0  0  0  0
    8.7623  -13.8307   25.9819 C   0  0  0  0  0  0  0  0  0  0  0  0
    8.3900  -13.3129   27.2220 C   0  0  0  0  0  0  0  0  0  0  0  0
    7.2089  -12.6536   27.4115 C   0  0  0  0  0  0  0  0  0  0  0  0
    6.3153  -12.4646   26.3752 C   0  0  0  0  0  0  0  0  0  0  0  0
    6.6697  -12.9681   25.1541 C   0  0  0  0  0  0  0  0  0  0  0  0
    7.8506  -13.6320   24.9468 C   0  0  0  0  0  0  0  0  0  0  0  0
    9.2716  -16.4405   27.1483 C   0  0  0  0  0  0  0  0  0  0  0  0
    8.1505  -17.0084   27.0913 O   0  0  0  0  0  0  0  0  0  0  0  0
    9.8330  -16.2689   28.3949 O   0  0  0  0  0  0  0  0  0  0  0  0
  1  2  1  0
  3  2  1  0
  4  3  1  0
  5  4  1  0
  5  1  1  0
  5  6  1  1
  7  6  2  0
  8  6  1  0
  9  8  1  0
  9 10  1  6
 11 10  1  0
 12 11  2  0
 13  9  1  0
 13 14  2  0
 15 11  1  0
 16 17  1  0
 16 13  1  0
 17 18  1  6
 19 18  1  0
 19 20  2  0
 20 21  1  0
 22 21  2  0
 23 24  2  0
 23 22  1  0
 24 19  1  0
 25 17  1  0
 26 25  2  0
 27 25  1  0
M  END
$$$$
