PDF.pdb
     RDKit          3D

 27 28  0  0  1  0  0  0  0  0999 V2000
    9.4413  -14.0776   18.5386 N   0  0  0  0  0  0  0  0  0  0  0  0
    8.6857  -14.0108   17.3255 C   0  0  0  0  0  0  0  0  0  0  0  0
    7.6190  -12.9838   17.6341 C   0  0  0  0  0  0  0  0  0  0  0  0
    7.2314  -13.3959   19.0607 C   0  0  0  0  0  0  0  0  0  0  0  0
    8.5528  -13.8107   19.6216 C   0  0  1  0  0  0  0  0  0  0  0  0
    8.5086  -14.9166   20.5665 C   0  0  0  0  0  0  0  0  0  0  0  0
    7.5828  -14.9426   21.4185 O   0  0  0  0  0  0  0  0  0  0  0  0
    9.4349  -15.9882   20.6126 N   0  0  0  0  0  0  0  0  0  0  0  0
    9.4306  -17.0547   21.5647 C   0  0  1  0  0  0  0  0  0  0  0  0
   10.5189  -18.0643   21.3644 C   0  0  0  0  0  0  0  0  0  0  0  0
   10.5136  -18.6926   20.0440 C   0  0  0  0  0  0  0  0  0  0  0  0
   11.4555  -18.6297   19.2136 O   0  0  0  0  0  0  0  0  0  0  0  0
    9.5525  -16.5053   22.9507 C   0  0  0  0  0  0  0  0  0  0  0  0
   10.4764  -15.7054   23.2356 O   0  0  0  0  0  0  0  0  0  0  0  0
    9.3910  -19.4161   19.6656 O   0  0  0  0  0  0  0  0  0  0  0  0
    8.6400  -16.8637   23.9799 N   0  0  0  0  0  0  0  0  0  0  0  0
    8.2842  -15.9610   25.0723 C   0  0  1  0  0  0  0  0  0  0  0  0
    7.6705  -14.6998   24.5615 C   0  0  0  0  0  0  0  0  0  0  0  0
    7.3210  -13.7812   25.6643 C   0  0  0  0  0  0  0  0  0  0  0  0
    5.9976  -13.4421   25.9440 C   0  0  0  0  0  0  0  0  0  0  0  0
    5.6607  -12.6091   26.9726 C   0  0  0  0  0  0  0  0  0  0  0  0
    6.6223  -12.0553   27.7954 C   0  0  0  0  0  0  0  0  0  0  0  0
    7.9239  -12.3808   27.5306 C   0  0  0  0  0  0  0  0  0  0  0  0
    8.2792  -13.2148   26.5028 C   0  0  0  0  0  0  0  0  0  0  0  0
    7.4565  -16.6454   26.0811 C   0  0  0  0  0  0  0  0  0  0  0  0
    7.8212  -16.5981   27.2843 O   0  0  0  0  0  0  0  0  0  0  0  0
    6.3000  -17.3379   25.7957 O   0  0  0  0  0  0  0  0  0  0  0  0
  1  2  1  0
  3  2  1  0
  4  3  1  0
  5  4  1  0
  5  1  1  0
  5  6  1  6
  7  6  2  0
  8  6  1  0
  9  8  1  0
  9 10  1  6
 11 10  1  0
 12 11  2  0
 13  9  1  0
 13 14  2  0
 15 11  1  0
 16 17  1  0
 16 13  1  0
 17 18  1  6
 19 18  1  0
 19 20  2  0
 20 21  1  0
 22 21  2  0
 23 24  2  0
 23 22  1  0
 24 19  1  0
 25 17  1  0
 26 25  2  0
 27 25  1  0
M  END
$$$$
