PDF.pdb
     RDKit          3D

 27 28  0  0  1  0  0  0  0  0999 V2000
    9.2602  -14.2413   19.2316 N   0  0  0  0  0  0  0  0  0  0  0  0
    8.5171  -14.0973   18.0175 C   0  0  0  0  0  0  0  0  0  0  0  0
    7.6114  -12.9191   18.2996 C   0  0  0  0  0  0  0  0  0  0  0  0
    7.1743  -13.2339   19.7367 C   0  0  0  0  0  0  0  0  0  0  0  0
    8.4242  -13.8208   20.3077 C   0  0  1  0  0  0  0  0  0  0  0  0
    8.2246  -14.8839   21.2812 C   0  0  0  0  0  0  0  0  0  0  0  0
    7.2090  -14.8369   22.0229 O   0  0  0  0  0  0  0  0  0  0  0  0
    9.0905  -15.9896   21.4713 N   0  0  0  0  0  0  0  0  0  0  0  0
    8.9201  -17.0259   22.4413 C   0  0  1  0  0  0  0  0  0  0  0  0
    9.7727  -18.2352   22.2077 C   0  0  0  0  0  0  0  0  0  0  0  0
    9.5839  -18.8535   20.8962 C   0  0  0  0  0  0  0  0  0  0  0  0
   10.3744  -18.7375   19.9255 O   0  0  0  0  0  0  0  0  0  0  0  0
    9.2186  -16.5012   23.8101 C   0  0  0  0  0  0  0  0  0  0  0  0
   10.3078  -15.9232   24.0428 O   0  0  0  0  0  0  0  0  0  0  0  0
    8.4511  -19.6297   20.6932 O   0  0  0  0  0  0  0  0  0  0  0  0
    8.2934  -16.6362   24.8807 N   0  0  0  0  0  0  0  0  0  0  0  0
    8.6194  -16.2769   26.2588 C   0  0  1  0  0  0  0  0  0  0  0  0
    7.4468  -15.6743   26.9587 C   0  0  0  0  0  0  0  0  0  0  0  0
    7.2377  -14.2687   26.5552 C   0  0  0  0  0  0  0  0  0  0  0  0
    6.0143  -13.8241   26.0551 C   0  0  0  0  0  0  0  0  0  0  0  0
    5.8032  -12.5231   25.6967 C   0  0  0  0  0  0  0  0  0  0  0  0
    6.7996  -11.5733   25.8124 C   0  0  0  0  0  0  0  0  0  0  0  0
    8.0039  -11.9979   26.3018 C   0  0  0  0  0  0  0  0  0  0  0  0
    8.2326  -13.2992   26.6660 C   0  0  0  0  0  0  0  0  0  0  0  0
    9.2072  -17.4182   26.9823 C   0  0  0  0  0  0  0  0  0  0  0  0
    9.6777  -17.2178   28.1318 O   0  0  0  0  0  0  0  0  0  0  0  0
    9.2759  -18.7008   26.4836 O   0  0  0  0  0  0  0  0  0  0  0  0
  1  2  1  0
  3  2  1  0
  4  3  1  0
  5  4  1  0
  5  1  1  0
  5  6  1  1
  7  6  2  0
  8  6  1  0
  9  8  1  0
  9 10  1  6
 11 10  1  0
 12 11  2  0
 13  9  1  0
 13 14  2  0
 15 11  1  0
 16 17  1  0
 16 13  1  0
 17 18  1  1
 19 18  1  0
 19 20  2  0
 20 21  1  0
 22 21  2  0
 23 24  2  0
 23 22  1  0
 24 19  1  0
 25 17  1  0
 26 25  2  0
 27 25  1  0
M  END
$$$$
