PDF.pdb
     RDKit          3D

 27 28  0  0  1  0  0  0  0  0999 V2000
    9.1452  -13.7818   19.3938 N   0  0  0  0  0  0  0  0  0  0  0  0
    8.2707  -13.6548   18.2687 C   0  0  0  0  0  0  0  0  0  0  0  0
    7.2753  -12.6074   18.7161 C   0  0  0  0  0  0  0  0  0  0  0  0
    7.0245  -13.0529   20.1631 C   0  0  0  0  0  0  0  0  0  0  0  0
    8.3828  -13.5235   20.5709 C   0  0  1  0  0  0  0  0  0  0  0  0
    8.4011  -14.6568   21.4834 C   0  0  0  0  0  0  0  0  0  0  0  0
    7.4570  -14.7816   22.3060 O   0  0  0  0  0  0  0  0  0  0  0  0
    9.4089  -15.6523   21.5283 N   0  0  0  0  0  0  0  0  0  0  0  0
    9.4460  -16.7624   22.4285 C   0  0  1  0  0  0  0  0  0  0  0  0
   10.5213  -17.7618   22.1308 C   0  0  0  0  0  0  0  0  0  0  0  0
   10.4201  -18.3692   20.8046 C   0  0  0  0  0  0  0  0  0  0  0  0
    9.3792  -18.8903   20.3294 O   0  0  0  0  0  0  0  0  0  0  0  0
    9.6333  -16.2787   23.8317 C   0  0  0  0  0  0  0  0  0  0  0  0
   10.6143  -15.5535   24.1256 O   0  0  0  0  0  0  0  0  0  0  0  0
   11.5503  -18.3784   19.9986 O   0  0  0  0  0  0  0  0  0  0  0  0
    8.7207  -16.6177   24.8674 N   0  0  0  0  0  0  0  0  0  0  0  0
    8.9888  -16.3485   26.2782 C   0  0  1  0  0  0  0  0  0  0  0  0
    7.7608  -15.8856   26.9894 C   0  0  0  0  0  0  0  0  0  0  0  0
    7.4624  -14.4698   26.6914 C   0  0  0  0  0  0  0  0  0  0  0  0
    8.4140  -13.4666   26.8720 C   0  0  0  0  0  0  0  0  0  0  0  0
    8.1561  -12.1571   26.5820 C   0  0  0  0  0  0  0  0  0  0  0  0
    6.9288  -11.7564   26.0907 C   0  0  0  0  0  0  0  0  0  0  0  0
    5.9875  -12.7317   25.9094 C   0  0  0  0  0  0  0  0  0  0  0  0
    6.2297  -14.0501   26.1953 C   0  0  0  0  0  0  0  0  0  0  0  0
    9.6388  -17.5011   26.9265 C   0  0  0  0  0  0  0  0  0  0  0  0
    9.6797  -18.5925   26.3019 O   0  0  0  0  0  0  0  0  0  0  0  0
   10.2113  -17.4655   28.1793 O   0  0  0  0  0  0  0  0  0  0  0  0
  1  2  1  0
  3  2  1  0
  4  3  1  0
  5  4  1  0
  5  1  1  0
  5  6  1  6
  7  6  2  0
  8  6  1  0
  9  8  1  0
  9 10  1  6
 11 10  1  0
 12 11  2  0
 13  9  1  0
 13 14  2  0
 15 11  1  0
 16 17  1  0
 16 13  1  0
 17 18  1  1
 19 18  1  0
 19 20  2  0
 20 21  1  0
 22 21  2  0
 23 24  2  0
 23 22  1  0
 24 19  1  0
 25 17  1  0
 26 25  2  0
 27 25  1  0
M  END
$$$$
