PDF.pdb
     RDKit          3D

 27 28  0  0  1  0  0  0  0  0999 V2000
    9.2830  -14.2605   18.1858 N   0  0  0  0  0  0  0  0  0  0  0  0
    8.3351  -14.1049   17.1255 C   0  0  0  0  0  0  0  0  0  0  0  0
    7.4941  -12.9318   17.5778 C   0  0  0  0  0  0  0  0  0  0  0  0
    7.3206  -13.2631   19.0662 C   0  0  0  0  0  0  0  0  0  0  0  0
    8.6525  -13.8535   19.3984 C   0  0  1  0  0  0  0  0  0  0  0  0
    8.6300  -14.9275   20.3801 C   0  0  0  0  0  0  0  0  0  0  0  0
    7.9279  -14.7821   21.4142 O   0  0  0  0  0  0  0  0  0  0  0  0
    9.3435  -16.1472   20.2718 N   0  0  0  0  0  0  0  0  0  0  0  0
    9.3916  -17.1768   21.2625 C   0  0  1  0  0  0  0  0  0  0  0  0
   10.1972  -18.3761   20.8668 C   0  0  0  0  0  0  0  0  0  0  0  0
   10.0292  -19.5263   21.7538 C   0  0  0  0  0  0  0  0  0  0  0  0
   10.9091  -19.9652   22.5373 O   0  0  0  0  0  0  0  0  0  0  0  0
    9.9555  -16.6354   22.5379 C   0  0  0  0  0  0  0  0  0  0  0  0
   11.1435  -16.2339   22.5847 O   0  0  0  0  0  0  0  0  0  0  0  0
    8.8120  -20.1935   21.7405 O   0  0  0  0  0  0  0  0  0  0  0  0
    9.1781  -16.5570   23.7253 N   0  0  0  0  0  0  0  0  0  0  0  0
    9.7285  -16.1142   25.0042 C   0  0  1  0  0  0  0  0  0  0  0  0
    9.0005  -14.9216   25.5293 C   0  0  0  0  0  0  0  0  0  0  0  0
    9.5090  -14.5162   26.8556 C   0  0  0  0  0  0  0  0  0  0  0  0
    8.7027  -13.8486   27.7768 C   0  0  0  0  0  0  0  0  0  0  0  0
    9.1557  -13.4856   29.0132 C   0  0  0  0  0  0  0  0  0  0  0  0
   10.4470  -13.7639   29.4175 C   0  0  0  0  0  0  0  0  0  0  0  0
   11.2471  -14.4184   28.5222 C   0  0  0  0  0  0  0  0  0  0  0  0
   10.8086  -14.7897   27.2780 C   0  0  0  0  0  0  0  0  0  0  0  0
    9.7977  -17.2264   25.9683 C   0  0  0  0  0  0  0  0  0  0  0  0
    8.8129  -18.0049   26.0532 O   0  0  0  0  0  0  0  0  0  0  0  0
   10.8760  -17.4761   26.7889 O   0  0  0  0  0  0  0  0  0  0  0  0
  1  2  1  0
  3  2  1  0
  4  3  1  0
  5  4  1  0
  5  1  1  0
  5  6  1  1
  7  6  2  0
  8  6  1  0
  9  8  1  0
  9 10  1  6
 11 10  1  0
 12 11  2  0
 13  9  1  0
 13 14  2  0
 15 11  1  0
 16 17  1  0
 16 13  1  0
 17 18  1  1
 19 18  1  0
 19 20  2  0
 20 21  1  0
 22 21  2  0
 23 24  2  0
 23 22  1  0
 24 19  1  0
 25 17  1  0
 26 25  2  0
 27 25  1  0
M  END
$$$$
