PDF.pdb
     RDKit          3D

 27 28  0  0  1  0  0  0  0  0999 V2000
    9.3554  -14.2586   18.7956 N   0  0  0  0  0  0  0  0  0  0  0  0
    8.5062  -14.2656   17.6441 C   0  0  0  0  0  0  0  0  0  0  0  0
    7.6267  -13.0525   17.8510 C   0  0  0  0  0  0  0  0  0  0  0  0
    7.3209  -13.1750   19.3499 C   0  0  0  0  0  0  0  0  0  0  0  0
    8.6183  -13.6949   19.8783 C   0  0  1  0  0  0  0  0  0  0  0  0
    8.5091  -14.6215   20.9951 C   0  0  0  0  0  0  0  0  0  0  0  0
    7.7997  -14.2933   21.9814 O   0  0  0  0  0  0  0  0  0  0  0  0
    9.1440  -15.8862   21.0713 N   0  0  0  0  0  0  0  0  0  0  0  0
    9.0747  -16.7896   22.1772 C   0  0  1  0  0  0  0  0  0  0  0  0
    9.5647  -18.1726   21.8752 C   0  0  0  0  0  0  0  0  0  0  0  0
    9.4492  -19.1041   22.9963 C   0  0  0  0  0  0  0  0  0  0  0  0
   10.4089  -19.4965   23.7075 O   0  0  0  0  0  0  0  0  0  0  0  0
    9.8672  -16.2541   23.3274 C   0  0  0  0  0  0  0  0  0  0  0  0
   11.0730  -15.9421   23.1746 O   0  0  0  0  0  0  0  0  0  0  0  0
    8.1916  -19.6007   23.3106 O   0  0  0  0  0  0  0  0  0  0  0  0
    9.2920  -16.0815   24.6157 N   0  0  0  0  0  0  0  0  0  0  0  0
   10.0696  -15.6657   25.7807 C   0  0  1  0  0  0  0  0  0  0  0  0
   10.0956  -14.1797   25.9186 C   0  0  0  0  0  0  0  0  0  0  0  0
    8.7408  -13.6309   26.1326 C   0  0  0  0  0  0  0  0  0  0  0  0
    7.7147  -13.8317   25.2100 C   0  0  0  0  0  0  0  0  0  0  0  0
    6.4534  -13.3456   25.4058 C   0  0  0  0  0  0  0  0  0  0  0  0
    6.1272  -12.6241   26.5378 C   0  0  0  0  0  0  0  0  0  0  0  0
    7.1257  -12.4209   27.4499 C   0  0  0  0  0  0  0  0  0  0  0  0
    8.3964  -12.9015   27.2690 C   0  0  0  0  0  0  0  0  0  0  0  0
    9.6140  -16.3567   26.9998 C   0  0  0  0  0  0  0  0  0  0  0  0
    8.5973  -17.0938   26.9236 O   0  0  0  0  0  0  0  0  0  0  0  0
   10.2309  -16.2520   28.2275 O   0  0  0  0  0  0  0  0  0  0  0  0
  1  2  1  0
  3  2  1  0
  4  3  1  0
  5  4  1  0
  5  1  1  0
  5  6  1  1
  7  6  2  0
  8  6  1  0
  9  8  1  0
  9 10  1  6
 11 10  1  0
 12 11  2  0
 13  9  1  0
 13 14  2  0
 15 11  1  0
 16 17  1  0
 16 13  1  0
 17 18  1  1
 19 18  1  0
 19 20  2  0
 20 21  1  0
 22 21  2  0
 23 24  2  0
 23 22  1  0
 24 19  1  0
 25 17  1  0
 26 25  2  0
 27 25  1  0
M  END
$$$$
