PDF.pdb
     RDKit          3D

 27 28  0  0  1  0  0  0  0  0999 V2000
    9.2419  -14.3684   18.5213 N   0  0  0  0  0  0  0  0  0  0  0  0
    8.2652  -14.3261   17.4767 C   0  0  0  0  0  0  0  0  0  0  0  0
    7.4966  -13.0564   17.7679 C   0  0  0  0  0  0  0  0  0  0  0  0
    7.3609  -13.1495   19.2938 C   0  0  0  0  0  0  0  0  0  0  0  0
    8.6747  -13.7509   19.6747 C   0  0  1  0  0  0  0  0  0  0  0  0
    8.6369  -14.6615   20.8091 C   0  0  0  0  0  0  0  0  0  0  0  0
    8.0731  -14.2803   21.8676 O   0  0  0  0  0  0  0  0  0  0  0  0
    9.1903  -15.9662   20.8271 N   0  0  0  0  0  0  0  0  0  0  0  0
    9.1175  -16.8886   21.9169 C   0  0  1  0  0  0  0  0  0  0  0  0
    9.7152  -18.2316   21.6288 C   0  0  0  0  0  0  0  0  0  0  0  0
    9.6242  -19.1758   22.7416 C   0  0  0  0  0  0  0  0  0  0  0  0
    8.5808  -19.4104   23.4026 O   0  0  0  0  0  0  0  0  0  0  0  0
    9.8048  -16.3193   23.1175 C   0  0  0  0  0  0  0  0  0  0  0  0
   10.9483  -15.8134   23.0118 O   0  0  0  0  0  0  0  0  0  0  0  0
   10.7680  -19.8726   23.1066 O   0  0  0  0  0  0  0  0  0  0  0  0
    9.1969  -16.3304   24.4023 N   0  0  0  0  0  0  0  0  0  0  0  0
    9.8721  -15.8406   25.6018 C   0  0  1  0  0  0  0  0  0  0  0  0
    9.9678  -14.3510   25.6057 C   0  0  0  0  0  0  0  0  0  0  0  0
    8.6794  -13.7255   25.9676 C   0  0  0  0  0  0  0  0  0  0  0  0
    7.6097  -13.6812   25.0742 C   0  0  0  0  0  0  0  0  0  0  0  0
    6.4076  -13.1227   25.4040 C   0  0  0  0  0  0  0  0  0  0  0  0
    6.1886  -12.5685   26.6503 C   0  0  0  0  0  0  0  0  0  0  0  0
    7.2307  -12.6062   27.5350 C   0  0  0  0  0  0  0  0  0  0  0  0
    8.4431  -13.1627   27.2204 C   0  0  0  0  0  0  0  0  0  0  0  0
    9.2543  -16.3885   26.8223 C   0  0  0  0  0  0  0  0  0  0  0  0
    8.1713  -17.0192   26.7117 O   0  0  0  0  0  0  0  0  0  0  0  0
    9.7862  -16.2583   28.0867 O   0  0  0  0  0  0  0  0  0  0  0  0
  1  2  1  0
  3  2  1  0
  4  3  1  0
  5  4  1  0
  5  1  1  0
  5  6  1  1
  7  6  2  0
  8  6  1  0
  9  8  1  0
  9 10  1  6
 11 10  1  0
 12 11  2  0
 13  9  1  0
 13 14  2  0
 15 11  1  0
 16 17  1  0
 16 13  1  0
 17 18  1  1
 19 18  1  0
 19 20  2  0
 20 21  1  0
 22 21  2  0
 23 24  2  0
 23 22  1  0
 24 19  1  0
 25 17  1  0
 26 25  2  0
 27 25  1  0
M  END
$$$$
