PDF.pdb
     RDKit          3D

 27 28  0  0  1  0  0  0  0  0999 V2000
    9.0758  -13.4872   19.8506 N   0  0  0  0  0  0  0  0  0  0  0  0
    8.5567  -13.4772   18.5174 C   0  0  0  0  0  0  0  0  0  0  0  0
    7.1559  -12.9337   18.6918 C   0  0  0  0  0  0  0  0  0  0  0  0
    6.7154  -13.6827   19.9568 C   0  0  0  0  0  0  0  0  0  0  0  0
    7.9865  -13.7174   20.7417 C   0  0  1  0  0  0  0  0  0  0  0  0
    8.1907  -14.9146   21.5433 C   0  0  0  0  0  0  0  0  0  0  0  0
    7.2272  -15.3547   22.2228 O   0  0  0  0  0  0  0  0  0  0  0  0
    9.4033  -15.6432   21.6278 N   0  0  0  0  0  0  0  0  0  0  0  0
    9.6569  -16.7428   22.5056 C   0  0  1  0  0  0  0  0  0  0  0  0
   10.8823  -17.5339   22.1647 C   0  0  0  0  0  0  0  0  0  0  0  0
   11.0136  -18.7825   22.9143 C   0  0  0  0  0  0  0  0  0  0  0  0
   12.0878  -19.2219   23.3978 O   0  0  0  0  0  0  0  0  0  0  0  0
    9.7926  -16.2546   23.9132 C   0  0  0  0  0  0  0  0  0  0  0  0
   10.7465  -15.5050   24.2340 O   0  0  0  0  0  0  0  0  0  0  0  0
    9.8749  -19.5507   23.1150 O   0  0  0  0  0  0  0  0  0  0  0  0
    8.8602  -16.6164   24.9231 N   0  0  0  0  0  0  0  0  0  0  0  0
    9.0311  -16.2487   26.3268 C   0  0  1  0  0  0  0  0  0  0  0  0
    7.7494  -15.7754   26.9279 C   0  0  0  0  0  0  0  0  0  0  0  0
    7.3750  -14.4382   26.4240 C   0  0  0  0  0  0  0  0  0  0  0  0
    6.2734  -14.2515   25.5897 C   0  0  0  0  0  0  0  0  0  0  0  0
    5.9061  -13.0178   25.1329 C   0  0  0  0  0  0  0  0  0  0  0  0
    6.6136  -11.8823   25.4773 C   0  0  0  0  0  0  0  0  0  0  0  0
    7.6961  -12.0532   26.2952 C   0  0  0  0  0  0  0  0  0  0  0  0
    8.0782  -13.2837   26.7624 C   0  0  0  0  0  0  0  0  0  0  0  0
    9.6658  -17.3380   27.0896 C   0  0  0  0  0  0  0  0  0  0  0  0
    9.9558  -17.1315   28.2963 O   0  0  0  0  0  0  0  0  0  0  0  0
    9.9645  -18.5782   26.5688 O   0  0  0  0  0  0  0  0  0  0  0  0
  1  2  1  0
  3  2  1  0
  4  3  1  0
  5  4  1  0
  5  1  1  0
  5  6  1  6
  7  6  2  0
  8  6  1  0
  9  8  1  0
  9 10  1  6
 11 10  1  0
 12 11  2  0
 13  9  1  0
 13 14  2  0
 15 11  1  0
 16 17  1  0
 16 13  1  0
 17 18  1  1
 19 18  1  0
 19 20  2  0
 20 21  1  0
 22 21  2  0
 23 24  2  0
 23 22  1  0
 24 19  1  0
 25 17  1  0
 26 25  2  0
 27 25  1  0
M  END
$$$$
