PDF.pdb
     RDKit          3D

 27 28  0  0  1  0  0  0  0  0999 V2000
    9.1499  -13.9336   19.4779 N   0  0  0  0  0  0  0  0  0  0  0  0
    8.4076  -13.8045   18.2616 C   0  0  0  0  0  0  0  0  0  0  0  0
    7.3247  -12.8100   18.6169 C   0  0  0  0  0  0  0  0  0  0  0  0
    6.9259  -13.3098   20.0121 C   0  0  0  0  0  0  0  0  0  0  0  0
    8.2459  -13.7413   20.5638 C   0  0  1  0  0  0  0  0  0  0  0  0
    8.2046  -14.9012   21.4416 C   0  0  0  0  0  0  0  0  0  0  0  0
    7.1817  -15.0812   22.1522 O   0  0  0  0  0  0  0  0  0  0  0  0
    9.2356  -15.8652   21.5692 N   0  0  0  0  0  0  0  0  0  0  0  0
    9.2723  -16.9261   22.5268 C   0  0  1  0  0  0  0  0  0  0  0  0
   10.3091  -17.9711   22.2497 C   0  0  0  0  0  0  0  0  0  0  0  0
   10.1879  -18.5971   20.9338 C   0  0  0  0  0  0  0  0  0  0  0  0
    9.1379  -19.1176   20.4787 O   0  0  0  0  0  0  0  0  0  0  0  0
    9.5198  -16.3738   23.8949 C   0  0  0  0  0  0  0  0  0  0  0  0
   10.5479  -15.6925   24.1261 O   0  0  0  0  0  0  0  0  0  0  0  0
   11.3084  -18.6262   20.1149 O   0  0  0  0  0  0  0  0  0  0  0  0
    8.6130  -16.5970   24.9665 N   0  0  0  0  0  0  0  0  0  0  0  0
    8.9355  -16.2792   26.3556 C   0  0  1  0  0  0  0  0  0  0  0  0
    7.7465  -15.7482   27.0852 C   0  0  0  0  0  0  0  0  0  0  0  0
    7.4367  -14.3616   26.6809 C   0  0  0  0  0  0  0  0  0  0  0  0
    8.3485  -13.3230   26.8665 C   0  0  0  0  0  0  0  0  0  0  0  0
    8.0810  -12.0407   26.4795 C   0  0  0  0  0  0  0  0  0  0  0  0
    6.8831  -11.7046   25.8794 C   0  0  0  0  0  0  0  0  0  0  0  0
    5.9809  -12.7151   25.6922 C   0  0  0  0  0  0  0  0  0  0  0  0
    6.2332  -14.0068   26.0744 C   0  0  0  0  0  0  0  0  0  0  0  0
    9.5703  -17.4249   27.0309 C   0  0  0  0  0  0  0  0  0  0  0  0
   10.0299  -17.2549   28.1896 O   0  0  0  0  0  0  0  0  0  0  0  0
    9.6948  -18.6803   26.4770 O   0  0  0  0  0  0  0  0  0  0  0  0
  1  2  1  0
  3  2  1  0
  4  3  1  0
  5  4  1  0
  5  1  1  0
  5  6  1  6
  7  6  2  0
  8  6  1  0
  9  8  1  0
  9 10  1  6
 11 10  1  0
 12 11  2  0
 13  9  1  0
 13 14  2  0
 15 11  1  0
 16 17  1  0
 16 13  1  0
 17 18  1  1
 19 18  1  0
 19 20  2  0
 20 21  1  0
 22 21  2  0
 23 24  2  0
 23 22  1  0
 24 19  1  0
 25 17  1  0
 26 25  2  0
 27 25  1  0
M  END
$$$$
