PDF.pdb
     RDKit          3D

 27 28  0  0  1  0  0  0  0  0999 V2000
    7.4047  -16.3027   20.4366 N   0  0  0  0  0  0  0  0  0  0  0  0
    6.0680  -16.0196   20.8607 C   0  0  0  0  0  0  0  0  0  0  0  0
    6.0941  -14.5312   21.1286 C   0  0  0  0  0  0  0  0  0  0  0  0
    7.4457  -14.3941   21.8425 C   0  0  0  0  0  0  0  0  0  0  0  0
    8.2765  -15.3927   21.1040 C   0  0  1  0  0  0  0  0  0  0  0  0
    9.2709  -16.0899   21.9057 C   0  0  0  0  0  0  0  0  0  0  0  0
    9.1407  -17.3293   22.0806 O   0  0  0  0  0  0  0  0  0  0  0  0
   10.3955  -15.4838   22.5193 N   0  0  0  0  0  0  0  0  0  0  0  0
   11.3790  -16.1567   23.3092 C   0  0  1  0  0  0  0  0  0  0  0  0
   12.7245  -15.4982   23.3107 C   0  0  0  0  0  0  0  0  0  0  0  0
   13.8053  -16.3516   23.8022 C   0  0  0  0  0  0  0  0  0  0  0  0
   13.7772  -17.6084   23.8223 O   0  0  0  0  0  0  0  0  0  0  0  0
   10.9112  -16.2668   24.7258 C   0  0  0  0  0  0  0  0  0  0  0  0
   11.7425  -16.3322   25.6636 O   0  0  0  0  0  0  0  0  0  0  0  0
   14.9549  -15.7421   24.2858 O   0  0  0  0  0  0  0  0  0  0  0  0
    9.5292  -16.3009   25.0563 N   0  0  0  0  0  0  0  0  0  0  0  0
    9.0460  -16.5132   26.4187 C   0  0  1  0  0  0  0  0  0  0  0  0
    7.6293  -16.0687   26.5718 C   0  0  0  0  0  0  0  0  0  0  0  0
    7.4811  -14.6247   26.2976 C   0  0  0  0  0  0  0  0  0  0  0  0
    6.7734  -14.1579   25.1905 C   0  0  0  0  0  0  0  0  0  0  0  0
    6.6134  -12.8253   24.9370 C   0  0  0  0  0  0  0  0  0  0  0  0
    7.1492  -11.8639   25.7718 C   0  0  0  0  0  0  0  0  0  0  0  0
    7.8454  -12.3100   26.8610 C   0  0  0  0  0  0  0  0  0  0  0  0
    8.0154  -13.6431   27.1301 C   0  0  0  0  0  0  0  0  0  0  0  0
    9.2714  -17.9030   26.8536 C   0  0  0  0  0  0  0  0  0  0  0  0
    9.0449  -18.1964   28.0558 O   0  0  0  0  0  0  0  0  0  0  0  0
    9.7151  -18.9123   26.0272 O   0  0  0  0  0  0  0  0  0  0  0  0
  1  2  1  0
  3  2  1  0
  4  3  1  0
  5  4  1  0
  5  1  1  0
  5  6  1  1
  7  6  2  0
  8  6  1  0
  9  8  1  0
  9 10  1  1
 11 10  1  0
 12 11  2  0
 13  9  1  0
 13 14  2  0
 15 11  1  0
 16 17  1  0
 16 13  1  0
 17 18  1  6
 19 18  1  0
 19 20  2  0
 20 21  1  0
 22 21  2  0
 23 24  2  0
 23 22  1  0
 24 19  1  0
 25 17  1  0
 26 25  2  0
 27 25  1  0
M  END
$$$$
