PDF.pdb
     RDKit          3D

 27 28  0  0  1  0  0  0  0  0999 V2000
    9.0824  -13.9577   19.6568 N   0  0  0  0  0  0  0  0  0  0  0  0
    8.3277  -13.9545   18.4413 C   0  0  0  0  0  0  0  0  0  0  0  0
    7.2160  -12.9682   18.7227 C   0  0  0  0  0  0  0  0  0  0  0  0
    6.8433  -13.3615   20.1585 C   0  0  0  0  0  0  0  0  0  0  0  0
    8.1803  -13.7035   20.7316 C   0  0  1  0  0  0  0  0  0  0  0  0
    8.1824  -14.7865   21.7036 C   0  0  0  0  0  0  0  0  0  0  0  0
    7.2378  -14.8522   22.5325 O   0  0  0  0  0  0  0  0  0  0  0  0
    9.1745  -15.7938   21.8009 N   0  0  0  0  0  0  0  0  0  0  0  0
    9.2098  -16.8391   22.7756 C   0  0  1  0  0  0  0  0  0  0  0  0
   10.1943  -17.9278   22.4767 C   0  0  0  0  0  0  0  0  0  0  0  0
   10.1001  -19.0794   23.3729 C   0  0  0  0  0  0  0  0  0  0  0  0
    9.0296  -19.5325   23.8520 O   0  0  0  0  0  0  0  0  0  0  0  0
    9.5330  -16.2738   24.1224 C   0  0  0  0  0  0  0  0  0  0  0  0
   10.5589  -15.5695   24.2837 O   0  0  0  0  0  0  0  0  0  0  0  0
   11.2726  -19.7311   23.7299 O   0  0  0  0  0  0  0  0  0  0  0  0
    8.7023  -16.5102   25.2513 N   0  0  0  0  0  0  0  0  0  0  0  0
    9.1045  -16.1724   26.6147 C   0  0  1  0  0  0  0  0  0  0  0  0
    7.9702  -15.5900   27.3909 C   0  0  0  0  0  0  0  0  0  0  0  0
    7.5406  -14.2918   26.8322 C   0  0  0  0  0  0  0  0  0  0  0  0
    8.2781  -13.1260   27.0362 C   0  0  0  0  0  0  0  0  0  0  0  0
    7.9012  -11.9238   26.5089 C   0  0  0  0  0  0  0  0  0  0  0  0
    6.7603  -11.8004   25.7400 C   0  0  0  0  0  0  0  0  0  0  0  0
    6.0288  -12.9372   25.5331 C   0  0  0  0  0  0  0  0  0  0  0  0
    6.3926  -14.1513   26.0547 C   0  0  0  0  0  0  0  0  0  0  0  0
    9.7393  -17.3218   27.2834 C   0  0  0  0  0  0  0  0  0  0  0  0
   10.2048  -17.1568   28.4405 O   0  0  0  0  0  0  0  0  0  0  0  0
    9.8578  -18.5759   26.7250 O   0  0  0  0  0  0  0  0  0  0  0  0
  1  2  1  0
  3  2  1  0
  4  3  1  0
  5  4  1  0
  5  1  1  0
  5  6  1  1
  7  6  2  0
  8  6  1  0
  9  8  1  0
  9 10  1  6
 11 10  1  0
 12 11  2  0
 13  9  1  0
 13 14  2  0
 15 11  1  0
 16 17  1  0
 16 13  1  0
 17 18  1  1
 19 18  1  0
 19 20  2  0
 20 21  1  0
 22 21  2  0
 23 24  2  0
 23 22  1  0
 24 19  1  0
 25 17  1  0
 26 25  2  0
 27 25  1  0
M  END
$$$$
