PDF.pdb
     RDKit          3D

 27 28  0  0  1  0  0  0  0  0999 V2000
    9.3324  -14.2863   19.1411 N   0  0  0  0  0  0  0  0  0  0  0  0
    8.6478  -14.0680   17.9039 C   0  0  0  0  0  0  0  0  0  0  0  0
    7.8721  -12.7938   18.1537 C   0  0  0  0  0  0  0  0  0  0  0  0
    7.3585  -13.0477   19.5775 C   0  0  0  0  0  0  0  0  0  0  0  0
    8.5164  -13.7674   20.1892 C   0  0  1  0  0  0  0  0  0  0  0  0
    8.1688  -14.7946   21.1594 C   0  0  0  0  0  0  0  0  0  0  0  0
    7.2214  -14.5721   21.9572 O   0  0  0  0  0  0  0  0  0  0  0  0
    8.8163  -16.0488   21.2876 N   0  0  0  0  0  0  0  0  0  0  0  0
    8.5299  -17.0385   22.2788 C   0  0  1  0  0  0  0  0  0  0  0  0
    9.1631  -18.3712   22.0202 C   0  0  0  0  0  0  0  0  0  0  0  0
    8.8207  -18.9523   20.7229 C   0  0  0  0  0  0  0  0  0  0  0  0
    9.5758  -18.9635   19.7177 O   0  0  0  0  0  0  0  0  0  0  0  0
    8.9780  -16.5616   23.6240 C   0  0  0  0  0  0  0  0  0  0  0  0
   10.1345  -16.1000   23.7792 O   0  0  0  0  0  0  0  0  0  0  0  0
    7.5714  -19.5392   20.5755 O   0  0  0  0  0  0  0  0  0  0  0  0
    8.1229  -16.6130   24.7583 N   0  0  0  0  0  0  0  0  0  0  0  0
    8.5377  -16.1590   26.0837 C   0  0  1  0  0  0  0  0  0  0  0  0
    7.4098  -15.5141   26.8185 C   0  0  0  0  0  0  0  0  0  0  0  0
    7.2017  -14.1197   26.3775 C   0  0  0  0  0  0  0  0  0  0  0  0
    5.9252  -13.6033   26.1579 C   0  0  0  0  0  0  0  0  0  0  0  0
    5.7193  -12.3105   25.7686 C   0  0  0  0  0  0  0  0  0  0  0  0
    6.7744  -11.4411   25.5707 C   0  0  0  0  0  0  0  0  0  0  0  0
    8.0312  -11.9365   25.7831 C   0  0  0  0  0  0  0  0  0  0  0  0
    8.2555  -13.2308   26.1739 C   0  0  0  0  0  0  0  0  0  0  0  0
    9.1821  -17.2459   26.8418 C   0  0  0  0  0  0  0  0  0  0  0  0
    9.0398  -18.4263   26.4306 O   0  0  0  0  0  0  0  0  0  0  0  0
    9.9376  -17.0570   27.9786 O   0  0  0  0  0  0  0  0  0  0  0  0
  1  2  1  0
  3  2  1  0
  4  3  1  0
  5  4  1  0
  5  1  1  0
  5  6  1  1
  7  6  2  0
  8  6  1  0
  9  8  1  0
  9 10  1  6
 11 10  1  0
 12 11  2  0
 13  9  1  0
 13 14  2  0
 15 11  1  0
 16 17  1  0
 16 13  1  0
 17 18  1  1
 19 18  1  0
 19 20  2  0
 20 21  1  0
 22 21  2  0
 23 24  2  0
 23 22  1  0
 24 19  1  0
 25 17  1  0
 26 25  2  0
 27 25  1  0
M  END
$$$$
