KRM.pdb
     RDKit          3D

 29 28  0  0  1  0  0  0  0  0999 V2000
    9.2494  -14.9975   18.4840 N   0  0  0  0  0  0  0  0  0  0  0  0
    8.6452  -13.9424   19.3249 C   0  0  1  0  0  0  0  0  0  0  0  0
    7.6104  -13.1993   18.5206 C   0  0  0  0  0  0  0  0  0  0  0  0
    7.2645  -13.8750   17.2300 C   0  0  0  0  0  0  0  0  0  0  0  0
    8.3061  -13.6421   16.1689 C   0  0  0  0  0  0  0  0  0  0  0  0
    7.8780  -14.1830   14.8232 C   0  0  0  0  0  0  0  0  0  0  0  0
    8.9583  -13.9623   13.8818 N   0  0  0  0  0  0  0  0  0  0  0  0
    8.1103  -14.5334   20.5599 C   0  0  0  0  0  0  0  0  0  0  0  0
    7.5501  -13.8492   21.4219 O   0  0  0  0  0  0  0  0  0  0  0  0
   11.5066  -19.3305   23.5391 N   0  0  0  0  0  0  0  0  0  0  0  0
   11.8214  -19.9071   22.2859 C   0  0  0  0  0  0  0  0  0  0  0  0
   13.0445  -20.1110   21.9606 N   0  0  0  0  0  0  0  0  0  0  0  0
   10.8053  -20.2799   21.3463 N   0  0  0  0  0  0  0  0  0  0  0  0
    9.4358  -19.9423   21.6138 C   0  0  0  0  0  0  0  0  0  0  0  0
    9.3353  -18.4356   21.7443 C   0  0  0  0  0  0  0  0  0  0  0  0
    7.9082  -18.0523   22.0074 C   0  0  0  0  0  0  0  0  0  0  0  0
    7.7839  -16.5505   22.0116 C   0  0  2  0  0  0  0  0  0  0  0  0
    8.2362  -15.9371   20.7803 N   0  0  0  0  0  0  0  0  0  0  0  0
    8.5929  -16.0308   23.1486 C   0  0  0  0  0  0  0  0  0  0  0  0
    9.8367  -15.8761   23.0585 O   0  0  0  0  0  0  0  0  0  0  0  0
   13.3233  -20.4867   21.0303 C   0  0  0  0  0  0  0  0  0  0  0  0
    7.0844  -10.5389   27.0541 S   0  0  0  0  0  0  0  0  0  0  0  0
    6.2474  -12.0429   26.4656 C   0  0  0  0  0  0  0  0  0  0  0  0
    7.4087  -13.0079   25.5001 C   0  0  0  0  0  0  0  0  0  0  0  0
    7.8693  -14.2176   26.2054 C   0  0  2  0  0  0  0  0  0  0  0  0
    8.7927  -15.1598   25.5136 N   0  0  0  0  0  0  0  0  0  0  0  0
    7.9762  -15.6913   24.3810 C   0  0  0  0  0  0  0  0  0  0  0  0
    9.2590  -16.3274   26.2418 O   0  0  0  0  0  0  0  0  0  0  0  0
    8.7940  -17.4745   26.0597 O   0  0  0  0  0  0  0  0  0  0  0  0
  2  3  1  0
  2  1  1  6
  3  4  1  0
  4  5  1  0
  5  6  1  0
  6  7  1  0
  8  2  1  0
  8  9  2  0
 10 11  1  0
 11 12  2  0
 13 11  1  0
 13 14  1  0
 15 16  1  0
 15 14  1  0
 17 16  1  6
 17 19  1  0
 17 18  1  0
 18  8  1  0
 19 26  1  0
 20 19  2  0
 22 23  1  0
 22 21  1  0
 23 24  1  0
 25 24  1  6
 25 27  1  0
 26 25  1  0
 27 28  2  0
 27 29  1  0
M  END
$$$$
