KRM.pdb
     RDKit          3D

 29 28  0  0  1  0  0  0  0  0999 V2000
    5.8357  -14.6791   19.9383 N   0  0  0  0  0  0  0  0  0  0  0  0
    6.8683  -15.6619   20.3295 C   0  0  1  0  0  0  0  0  0  0  0  0
    8.2319  -15.0884   20.0445 C   0  0  0  0  0  0  0  0  0  0  0  0
    8.2009  -13.9229   19.1050 C   0  0  0  0  0  0  0  0  0  0  0  0
    9.5792  -13.4005   18.8011 C   0  0  0  0  0  0  0  0  0  0  0  0
    9.5381  -12.1285   17.9842 C   0  0  0  0  0  0  0  0  0  0  0  0
   10.8874  -11.6066   17.8902 N   0  0  0  0  0  0  0  0  0  0  0  0
    6.6809  -16.0505   21.7347 C   0  0  0  0  0  0  0  0  0  0  0  0
    6.0680  -15.3358   22.5338 O   0  0  0  0  0  0  0  0  0  0  0  0
    6.6220  -20.1111   28.8047 N   0  0  0  0  0  0  0  0  0  0  0  0
    6.8831  -21.1605   27.8922 C   0  0  0  0  0  0  0  0  0  0  0  0
    6.1796  -22.2316   27.9251 N   0  0  0  0  0  0  0  0  0  0  0  0
    7.9251  -21.0712   26.9121 N   0  0  0  0  0  0  0  0  0  0  0  0
    7.5824  -20.9032   25.5281 C   0  0  0  0  0  0  0  0  0  0  0  0
    7.2697  -19.4392   25.2911 C   0  0  0  0  0  0  0  0  0  0  0  0
    7.3859  -19.1358   23.8258 C   0  0  0  0  0  0  0  0  0  0  0  0
    7.1340  -17.6680   23.5951 C   0  0  2  0  0  0  0  0  0  0  0  0
    7.2184  -17.2870   22.2006 N   0  0  0  0  0  0  0  0  0  0  0  0
    8.1451  -16.9049   24.3778 C   0  0  0  0  0  0  0  0  0  0  0  0
    9.3191  -16.7423   23.9600 O   0  0  0  0  0  0  0  0  0  0  0  0
    6.2861  -22.9956   27.2256 C   0  0  0  0  0  0  0  0  0  0  0  0
    6.0912  -10.6590   26.4892 S   0  0  0  0  0  0  0  0  0  0  0  0
    6.3919  -12.2291   27.3572 C   0  0  0  0  0  0  0  0  0  0  0  0
    7.5600  -13.1990   26.4051 C   0  0  0  0  0  0  0  0  0  0  0  0
    7.9114  -14.4719   27.0603 C   0  0  2  0  0  0  0  0  0  0  0  0
    8.7798  -15.4473   26.3435 N   0  0  0  0  0  0  0  0  0  0  0  0
    7.8091  -16.3326   25.6324 C   0  0  0  0  0  0  0  0  0  0  0  0
    9.6150  -16.3363   27.1327 O   0  0  0  0  0  0  0  0  0  0  0  0
    9.3032  -17.5222   27.3812 O   0  0  0  0  0  0  0  0  0  0  0  0
  2  3  1  0
  2  1  1  1
  3  4  1  0
  4  5  1  0
  5  6  1  0
  6  7  1  0
  8  2  1  0
  8  9  2  0
 10 11  1  0
 11 12  2  0
 13 11  1  0
 13 14  1  0
 15 16  1  0
 15 14  1  0
 17 16  1  6
 17 19  1  0
 17 18  1  0
 18  8  1  0
 19 26  1  0
 20 19  2  0
 22 23  1  0
 22 21  1  0
 23 24  1  0
 25 24  1  6
 25 27  1  0
 26 25  1  0
 27 28  2  0
 27 29  1  0
M  END
$$$$
