KRM.pdb
     RDKit          3D

 29 28  0  0  1  0  0  0  0  0999 V2000
    9.6065  -19.2410   21.1254 N   0  0  0  0  0  0  0  0  0  0  0  0
   10.8660  -18.4806   21.2696 C   0  0  1  0  0  0  0  0  0  0  0  0
   11.6478  -18.5680   19.9848 C   0  0  0  0  0  0  0  0  0  0  0  0
   12.1957  -19.9352   19.7154 C   0  0  0  0  0  0  0  0  0  0  0  0
   11.1801  -20.8374   19.0675 C   0  0  0  0  0  0  0  0  0  0  0  0
   11.7453  -22.2079   18.7687 C   0  0  0  0  0  0  0  0  0  0  0  0
   10.6699  -23.0426   18.2699 N   0  0  0  0  0  0  0  0  0  0  0  0
   10.5717  -17.1004   21.6807 C   0  0  0  0  0  0  0  0  0  0  0  0
   11.4653  -16.2656   21.8529 O   0  0  0  0  0  0  0  0  0  0  0  0
    8.5150  -12.3853   17.6313 N   0  0  0  0  0  0  0  0  0  0  0  0
    8.2789  -13.6732   17.0951 C   0  0  0  0  0  0  0  0  0  0  0  0
    8.9011  -14.0554   16.0415 N   0  0  0  0  0  0  0  0  0  0  0  0
    7.3519  -14.5864   17.6962 N   0  0  0  0  0  0  0  0  0  0  0  0
    6.9727  -14.4084   19.0693 C   0  0  0  0  0  0  0  0  0  0  0  0
    8.1741  -14.7232   19.9380 C   0  0  0  0  0  0  0  0  0  0  0  0
    7.7461  -14.7900   21.3750 C   0  0  0  0  0  0  0  0  0  0  0  0
    8.8766  -15.3318   22.2113 C   0  0  2  0  0  0  0  0  0  0  0  0
    9.2181  -16.7019   21.8900 N   0  0  0  0  0  0  0  0  0  0  0  0
    8.4659  -15.2471   23.6401 C   0  0  0  0  0  0  0  0  0  0  0  0
    7.2860  -15.4810   24.0037 O   0  0  0  0  0  0  0  0  0  0  0  0
    8.7853  -15.0069   15.6346 C   0  0  0  0  0  0  0  0  0  0  0  0
    6.4015  -10.6785   26.9726 S   0  0  0  0  0  0  0  0  0  0  0  0
    7.2405  -12.2684   27.2504 C   0  0  0  0  0  0  0  0  0  0  0  0
    6.9268  -13.3382   25.8472 C   0  0  0  0  0  0  0  0  0  0  0  0
    7.5102  -14.6818   26.0133 C   0  0  2  0  0  0  0  0  0  0  0  0
    8.9908  -14.8325   26.0782 N   0  0  0  0  0  0  0  0  0  0  0  0
    9.4054  -14.8958   24.6443 C   0  0  0  0  0  0  0  0  0  0  0  0
    9.5353  -16.0292   26.6964 O   0  0  0  0  0  0  0  0  0  0  0  0
    9.5992  -16.1871   27.9358 O   0  0  0  0  0  0  0  0  0  0  0  0
  2  3  1  0
  2  1  1  6
  3  4  1  0
  4  5  1  0
  5  6  1  0
  6  7  1  0
  8  2  1  0
  8  9  2  0
 10 11  1  0
 11 12  2  0
 13 11  1  0
 13 14  1  0
 15 16  1  0
 15 14  1  0
 17 16  1  6
 17 19  1  0
 17 18  1  0
 18  8  1  0
 19 26  1  0
 20 19  2  0
 22 23  1  0
 22 21  1  0
 23 24  1  0
 25 24  1  6
 25 27  1  0
 26 25  1  0
 27 28  2  0
 27 29  1  0
M  END
$$$$
