KRM.pdb
     RDKit          3D

 29 28  0  0  1  0  0  0  0  0999 V2000
    7.9985  -19.8521   22.0176 N   0  0  0  0  0  0  0  0  0  0  0  0
    9.2853  -19.6464   21.3197 C   0  0  1  0  0  0  0  0  0  0  0  0
    9.1582  -20.1208   19.8954 C   0  0  0  0  0  0  0  0  0  0  0  0
    7.7565  -20.0596   19.3724 C   0  0  0  0  0  0  0  0  0  0  0  0
    7.6705  -20.4686   17.9266 C   0  0  0  0  0  0  0  0  0  0  0  0
    6.2694  -20.3225   17.3766 C   0  0  0  0  0  0  0  0  0  0  0  0
    6.3082  -20.6098   15.9560 N   0  0  0  0  0  0  0  0  0  0  0  0
    9.6947  -18.2392   21.4315 C   0  0  0  0  0  0  0  0  0  0  0  0
   10.7221  -17.8132   20.8949 O   0  0  0  0  0  0  0  0  0  0  0  0
    7.6688  -12.2440   19.0581 N   0  0  0  0  0  0  0  0  0  0  0  0
    8.1739  -13.3838   18.3888 C   0  0  0  0  0  0  0  0  0  0  0  0
    9.2355  -13.2935   17.6760 N   0  0  0  0  0  0  0  0  0  0  0  0
    7.5317  -14.6621   18.4784 N   0  0  0  0  0  0  0  0  0  0  0  0
    7.4373  -15.3190   19.7514 C   0  0  0  0  0  0  0  0  0  0  0  0
    7.8865  -14.3450   20.8224 C   0  0  0  0  0  0  0  0  0  0  0  0
    7.9433  -15.0509   22.1456 C   0  0  0  0  0  0  0  0  0  0  0  0
    9.1796  -15.9107   22.2037 C   0  0  2  0  0  0  0  0  0  0  0  0
    8.8896  -17.3293   22.1791 N   0  0  0  0  0  0  0  0  0  0  0  0
    9.9068  -15.5768   23.4594 C   0  0  0  0  0  0  0  0  0  0  0  0
   10.1818  -14.3902   23.7684 O   0  0  0  0  0  0  0  0  0  0  0  0
    9.6528  -14.1105   17.1834 C   0  0  0  0  0  0  0  0  0  0  0  0
    9.4888  -12.9467   29.7968 S   0  0  0  0  0  0  0  0  0  0  0  0
    8.9983  -13.5992   28.1712 C   0  0  0  0  0  0  0  0  0  0  0  0
   10.2072  -14.8153   27.6501 C   0  0  0  0  0  0  0  0  0  0  0  0
    9.9836  -15.2865   26.2713 C   0  0  1  0  0  0  0  0  0  0  0  0
   10.9421  -16.2523   25.6648 N   0  0  0  0  0  0  0  0  0  0  0  0
   10.3153  -16.6002   24.3541 C   0  0  0  0  0  0  0  0  0  0  0  0
   11.1649  -17.5189   26.3406 O   0  0  0  0  0  0  0  0  0  0  0  0
   10.5973  -18.5811   26.0018 O   0  0  0  0  0  0  0  0  0  0  0  0
  2  3  1  0
  2  1  1  6
  3  4  1  0
  4  5  1  0
  5  6  1  0
  6  7  1  0
  8  2  1  0
  8  9  2  0
 10 11  1  0
 11 12  2  0
 13 11  1  0
 13 14  1  0
 15 16  1  0
 15 14  1  0
 17 16  1  1
 17 19  1  0
 17 18  1  0
 18  8  1  0
 19 26  1  0
 20 19  2  0
 22 23  1  0
 22 21  1  0
 23 24  1  0
 25 24  1  6
 25 27  1  0
 26 25  1  0
 27 28  2  0
 27 29  1  0
M  END
$$$$
