KRM.pdb
     RDKit          3D

 29 28  0  0  1  0  0  0  0  0999 V2000
    5.5774  -16.9735   19.5292 N   0  0  0  0  0  0  0  0  0  0  0  0
    6.7872  -16.5376   20.2584 C   0  0  1  0  0  0  0  0  0  0  0  0
    7.0187  -15.0711   20.0028 C   0  0  0  0  0  0  0  0  0  0  0  0
    7.4535  -14.7745   18.6010 C   0  0  0  0  0  0  0  0  0  0  0  0
    8.0360  -13.3934   18.4663 C   0  0  0  0  0  0  0  0  0  0  0  0
    8.4038  -13.0681   17.0360 C   0  0  0  0  0  0  0  0  0  0  0  0
    8.8039  -11.6759   16.9764 N   0  0  0  0  0  0  0  0  0  0  0  0
    6.6566  -16.8676   21.6848 C   0  0  0  0  0  0  0  0  0  0  0  0
    5.7349  -16.4233   22.3762 O   0  0  0  0  0  0  0  0  0  0  0  0
    6.1910  -21.4737   27.1900 N   0  0  0  0  0  0  0  0  0  0  0  0
    7.3826  -21.2814   27.9283 C   0  0  0  0  0  0  0  0  0  0  0  0
    7.3472  -21.2464   29.2093 N   0  0  0  0  0  0  0  0  0  0  0  0
    8.6543  -21.1208   27.2869 N   0  0  0  0  0  0  0  0  0  0  0  0
    8.7117  -20.9452   25.8632 C   0  0  0  0  0  0  0  0  0  0  0  0
    8.0306  -19.6356   25.5189 C   0  0  0  0  0  0  0  0  0  0  0  0
    8.1263  -19.3980   24.0401 C   0  0  0  0  0  0  0  0  0  0  0  0
    7.5466  -18.0467   23.7098 C   0  0  2  0  0  0  0  0  0  0  0  0
    7.6165  -17.7252   22.2996 N   0  0  0  0  0  0  0  0  0  0  0  0
    8.3018  -17.0259   24.4873 C   0  0  0  0  0  0  0  0  0  0  0  0
    9.5069  -16.7667   24.2423 O   0  0  0  0  0  0  0  0  0  0  0  0
    8.2049  -21.1560   29.7928 C   0  0  0  0  0  0  0  0  0  0  0  0
    6.4181  -11.0118   25.6261 S   0  0  0  0  0  0  0  0  0  0  0  0
    6.5438  -11.7301   27.2926 C   0  0  0  0  0  0  0  0  0  0  0  0
    7.8185  -12.9899   27.2821 C   0  0  0  0  0  0  0  0  0  0  0  0
    7.4573  -14.1592   26.4604 C   0  0  1  0  0  0  0  0  0  0  0  0
    8.4352  -15.2720   26.3033 N   0  0  0  0  0  0  0  0  0  0  0  0
    7.6762  -16.3076   25.5395 C   0  0  0  0  0  0  0  0  0  0  0  0
    8.9154  -15.9417   27.4998 O   0  0  0  0  0  0  0  0  0  0  0  0
    8.3312  -16.9217   28.0131 O   0  0  0  0  0  0  0  0  0  0  0  0
  2  3  1  0
  2  1  1  6
  3  4  1  0
  4  5  1  0
  5  6  1  0
  6  7  1  0
  8  2  1  0
  8  9  2  0
 10 11  1  0
 11 12  2  0
 13 11  1  0
 13 14  1  0
 15 16  1  0
 15 14  1  0
 17 16  1  6
 17 19  1  0
 17 18  1  0
 18  8  1  0
 19 26  1  0
 20 19  2  0
 22 23  1  0
 22 21  1  0
 23 24  1  0
 25 24  1  6
 25 27  1  0
 26 25  1  0
 27 28  2  0
 27 29  1  0
M  END
$$$$
