KRM.pdb
     RDKit          3D

 29 28  0  0  1  0  0  0  0  0999 V2000
    8.1131  -16.1936   18.8847 N   0  0  0  0  0  0  0  0  0  0  0  0
    8.3010  -14.9485   19.6592 C   0  0  1  0  0  0  0  0  0  0  0  0
    7.6631  -13.8025   18.9179 C   0  0  0  0  0  0  0  0  0  0  0  0
    7.3182  -14.1324   17.4987 C   0  0  0  0  0  0  0  0  0  0  0  0
    8.3331  -13.5937   16.5267 C   0  0  0  0  0  0  0  0  0  0  0  0
    7.9467  -13.8678   15.0906 C   0  0  0  0  0  0  0  0  0  0  0  0
    8.8996  -13.1959   14.2288 N   0  0  0  0  0  0  0  0  0  0  0  0
    7.7790  -15.1245   21.0219 C   0  0  0  0  0  0  0  0  0  0  0  0
    7.7499  -14.1957   21.8352 O   0  0  0  0  0  0  0  0  0  0  0  0
    7.6530  -20.4208   26.6271 N   0  0  0  0  0  0  0  0  0  0  0  0
    8.5240  -20.7616   25.5655 C   0  0  0  0  0  0  0  0  0  0  0  0
    9.7826  -20.8801   25.7788 N   0  0  0  0  0  0  0  0  0  0  0  0
    8.0448  -20.9841   24.2332 N   0  0  0  0  0  0  0  0  0  0  0  0
    6.9181  -20.2356   23.7522 C   0  0  0  0  0  0  0  0  0  0  0  0
    7.3594  -18.8023   23.5325 C   0  0  0  0  0  0  0  0  0  0  0  0
    6.2189  -18.0118   22.9607 C   0  0  0  0  0  0  0  0  0  0  0  0
    6.6625  -16.5919   22.7200 C   0  0  2  0  0  0  0  0  0  0  0  0
    7.2889  -16.4011   21.4284 N   0  0  0  0  0  0  0  0  0  0  0  0
    7.6266  -16.2286   23.7950 C   0  0  0  0  0  0  0  0  0  0  0  0
    8.8168  -16.6316   23.7794 O   0  0  0  0  0  0  0  0  0  0  0  0
   10.4595  -21.1241   25.0261 C   0  0  0  0  0  0  0  0  0  0  0  0
    6.3747  -10.5172   25.6371 S   0  0  0  0  0  0  0  0  0  0  0  0
    7.3444  -11.0805   27.0693 C   0  0  0  0  0  0  0  0  0  0  0  0
    8.3548  -12.4736   26.5689 C   0  0  0  0  0  0  0  0  0  0  0  0
    7.5898  -13.7307   26.4832 C   0  0  2  0  0  0  0  0  0  0  0  0
    8.2283  -14.9350   25.8822 N   0  0  0  0  0  0  0  0  0  0  0  0
    7.2253  -15.4074   24.8809 C   0  0  0  0  0  0  0  0  0  0  0  0
    8.4916  -16.0767   26.7413 O   0  0  0  0  0  0  0  0  0  0  0  0
    7.7163  -17.0544   26.8318 O   0  0  0  0  0  0  0  0  0  0  0  0
  2  3  1  0
  2  1  1  6
  3  4  1  0
  4  5  1  0
  5  6  1  0
  6  7  1  0
  8  2  1  0
  8  9  2  0
 10 11  1  0
 11 12  2  0
 13 11  1  0
 13 14  1  0
 15 16  1  0
 15 14  1  0
 17 16  1  1
 17 19  1  0
 17 18  1  0
 18  8  1  0
 19 26  1  0
 20 19  2  0
 22 23  1  0
 22 21  1  0
 23 24  1  0
 25 24  1  6
 25 27  1  0
 26 25  1  0
 27 28  2  0
 27 29  1  0
M  END
$$$$
