KRM.pdb
     RDKit          3D

 29 28  0  0  1  0  0  0  0  0999 V2000
    6.3643  -21.0668   22.0114 N   0  0  0  0  0  0  0  0  0  0  0  0
    6.0261  -19.8698   22.8102 C   0  0  1  0  0  0  0  0  0  0  0  0
    5.9229  -20.2560   24.2628 C   0  0  0  0  0  0  0  0  0  0  0  0
    6.2309  -21.6992   24.5164 C   0  0  0  0  0  0  0  0  0  0  0  0
    5.9212  -22.1067   25.9316 C   0  0  0  0  0  0  0  0  0  0  0  0
    6.2708  -23.5540   26.1962 C   0  0  0  0  0  0  0  0  0  0  0  0
    5.9264  -23.8592   27.5711 N   0  0  0  0  0  0  0  0  0  0  0  0
    7.0093  -18.8068   22.5576 C   0  0  0  0  0  0  0  0  0  0  0  0
    8.2225  -18.9938   22.6920 O   0  0  0  0  0  0  0  0  0  0  0  0
    8.1805  -15.2398   16.6055 N   0  0  0  0  0  0  0  0  0  0  0  0
    8.1197  -13.9637   17.2139 C   0  0  0  0  0  0  0  0  0  0  0  0
    7.5631  -12.9849   16.6011 N   0  0  0  0  0  0  0  0  0  0  0  0
    8.6674  -13.7173   18.5152 N   0  0  0  0  0  0  0  0  0  0  0  0
    7.7840  -13.4742   19.6204 C   0  0  0  0  0  0  0  0  0  0  0  0
    8.1641  -14.4141   20.7472 C   0  0  0  0  0  0  0  0  0  0  0  0
    7.0685  -15.4201   20.9478 C   0  0  0  0  0  0  0  0  0  0  0  0
    7.4804  -16.4065   22.0100 C   0  0  2  0  0  0  0  0  0  0  0  0
    6.5608  -17.5170   22.1446 N   0  0  0  0  0  0  0  0  0  0  0  0
    7.5625  -15.6735   23.3035 C   0  0  0  0  0  0  0  0  0  0  0  0
    6.7777  -14.7321   23.5807 O   0  0  0  0  0  0  0  0  0  0  0  0
    7.4113  -12.0562   17.0471 C   0  0  0  0  0  0  0  0  0  0  0  0
    6.7234  -10.9768   26.8082 S   0  0  0  0  0  0  0  0  0  0  0  0
    6.6732  -12.6506   27.5188 C   0  0  0  0  0  0  0  0  0  0  0  0
    8.1608  -13.5260   27.0364 C   0  0  0  0  0  0  0  0  0  0  0  0
    7.9484  -14.4168   25.8812 C   0  0  1  0  0  0  0  0  0  0  0  0
    9.1278  -14.9736   25.1614 N   0  0  0  0  0  0  0  0  0  0  0  0
    8.5404  -16.0204   24.2720 C   0  0  0  0  0  0  0  0  0  0  0  0
   10.1530  -15.6497   25.9376 O   0  0  0  0  0  0  0  0  0  0  0  0
   10.3492  -16.8839   25.8788 O   0  0  0  0  0  0  0  0  0  0  0  0
  2  3  1  0
  2  1  1  6
  3  4  1  0
  4  5  1  0
  5  6  1  0
  6  7  1  0
  8  2  1  0
  8  9  2  0
 10 11  1  0
 11 12  2  0
 13 11  1  0
 13 14  1  0
 15 16  1  0
 15 14  1  0
 17 16  1  6
 17 19  1  0
 17 18  1  0
 18  8  1  0
 19 26  1  0
 20 19  2  0
 22 23  1  0
 22 21  1  0
 23 24  1  0
 25 24  1  6
 25 27  1  0
 26 25  1  0
 27 28  2  0
 27 29  1  0
M  END
$$$$
