KRM.pdb
     RDKit          3D

 29 28  0  0  1  0  0  0  0  0999 V2000
    5.6554  -16.5807   19.9632 N   0  0  0  0  0  0  0  0  0  0  0  0
    7.0949  -16.9152   19.9966 C   0  0  1  0  0  0  0  0  0  0  0  0
    7.8666  -15.8594   19.2486 C   0  0  0  0  0  0  0  0  0  0  0  0
    7.6110  -14.4714   19.7488 C   0  0  0  0  0  0  0  0  0  0  0  0
    8.3826  -13.4368   18.9748 C   0  0  0  0  0  0  0  0  0  0  0  0
    8.2420  -12.0558   19.5747 C   0  0  0  0  0  0  0  0  0  0  0  0
    8.9926  -11.1263   18.7532 N   0  0  0  0  0  0  0  0  0  0  0  0
    7.5362  -17.0840   21.3885 C   0  0  0  0  0  0  0  0  0  0  0  0
    6.8695  -16.6661   22.3402 O   0  0  0  0  0  0  0  0  0  0  0  0
   11.8873  -22.1423   26.1137 N   0  0  0  0  0  0  0  0  0  0  0  0
   12.9737  -21.3934   25.6031 C   0  0  0  0  0  0  0  0  0  0  0  0
   14.1754  -21.6991   25.9288 N   0  0  0  0  0  0  0  0  0  0  0  0
   12.7796  -20.2831   24.7178 N   0  0  0  0  0  0  0  0  0  0  0  0
   11.8524  -19.2469   25.0748 C   0  0  0  0  0  0  0  0  0  0  0  0
   10.5236  -19.5501   24.4116 C   0  0  0  0  0  0  0  0  0  0  0  0
   10.4554  -18.8463   23.0878 C   0  0  0  0  0  0  0  0  0  0  0  0
    9.1899  -18.0312   23.0167 C   0  0  2  0  0  0  0  0  0  0  0  0
    8.7689  -17.7485   21.6603 N   0  0  0  0  0  0  0  0  0  0  0  0
    9.4337  -16.7501   23.7354 C   0  0  0  0  0  0  0  0  0  0  0  0
   10.2665  -15.9064   23.3186 O   0  0  0  0  0  0  0  0  0  0  0  0
   15.0021  -21.1609   25.5954 C   0  0  0  0  0  0  0  0  0  0  0  0
    5.9552  -11.0309   27.5142 S   0  0  0  0  0  0  0  0  0  0  0  0
    5.9746  -12.5359   26.4927 C   0  0  0  0  0  0  0  0  0  0  0  0
    7.6280  -13.2271   26.5167 C   0  0  0  0  0  0  0  0  0  0  0  0
    7.7392  -14.4661   25.7258 C   0  0  1  0  0  0  0  0  0  0  0  0
    9.0375  -15.1956   25.6895 N   0  0  0  0  0  0  0  0  0  0  0  0
    8.7248  -16.4408   24.9255 C   0  0  0  0  0  0  0  0  0  0  0  0
    9.6129  -15.6418   26.9467 O   0  0  0  0  0  0  0  0  0  0  0  0
    9.5247  -16.8207   27.3561 O   0  0  0  0  0  0  0  0  0  0  0  0
  2  3  1  0
  2  1  1  1
  3  4  1  0
  4  5  1  0
  5  6  1  0
  6  7  1  0
  8  2  1  0
  8  9  2  0
 10 11  1  0
 11 12  2  0
 13 11  1  0
 13 14  1  0
 15 16  1  0
 15 14  1  0
 17 16  1  6
 17 19  1  0
 17 18  1  0
 18  8  1  0
 19 26  1  0
 20 19  2  0
 22 23  1  0
 22 21  1  0
 23 24  1  0
 25 24  1  6
 25 27  1  0
 26 25  1  0
 27 28  2  0
 27 29  1  0
M  END
$$$$
