KRM.pdb
     RDKit          3D

 29 28  0  0  1  0  0  0  0  0999 V2000
    8.9968  -15.3160   19.0040 N   0  0  0  0  0  0  0  0  0  0  0  0
    8.4362  -14.4010   20.0208 C   0  0  1  0  0  0  0  0  0  0  0  0
    7.1039  -13.8851   19.5428 C   0  0  0  0  0  0  0  0  0  0  0  0
    6.9401  -13.9528   18.0560 C   0  0  0  0  0  0  0  0  0  0  0  0
    8.1363  -13.4033   17.3264 C   0  0  0  0  0  0  0  0  0  0  0  0
    7.9979  -13.5358   15.8263 C   0  0  0  0  0  0  0  0  0  0  0  0
    9.1691  -12.9448   15.2093 N   0  0  0  0  0  0  0  0  0  0  0  0
    8.3654  -15.0826   21.3211 C   0  0  0  0  0  0  0  0  0  0  0  0
    7.6969  -14.6347   22.2578 O   0  0  0  0  0  0  0  0  0  0  0  0
   11.7342  -21.0928   19.1494 N   0  0  0  0  0  0  0  0  0  0  0  0
   12.2081  -20.8589   20.4620 C   0  0  0  0  0  0  0  0  0  0  0  0
   13.3464  -21.3221   20.8270 N   0  0  0  0  0  0  0  0  0  0  0  0
   11.4497  -20.1090   21.4195 N   0  0  0  0  0  0  0  0  0  0  0  0
   10.1049  -20.5074   21.7256 C   0  0  0  0  0  0  0  0  0  0  0  0
    9.2414  -19.2627   21.7769 C   0  0  0  0  0  0  0  0  0  0  0  0
    9.8204  -18.2951   22.7673 C   0  0  0  0  0  0  0  0  0  0  0  0
    9.0053  -17.0276   22.7670 C   0  0  2  0  0  0  0  0  0  0  0  0
    9.0859  -16.2979   21.5188 N   0  0  0  0  0  0  0  0  0  0  0  0
    9.5030  -16.1670   23.8755 C   0  0  0  0  0  0  0  0  0  0  0  0
   10.6561  -15.6678   23.8580 O   0  0  0  0  0  0  0  0  0  0  0  0
   13.7417  -21.1576   21.7762 C   0  0  0  0  0  0  0  0  0  0  0  0
    6.4411  -10.4097   25.9614 S   0  0  0  0  0  0  0  0  0  0  0  0
    6.4776  -12.0907   26.6555 C   0  0  0  0  0  0  0  0  0  0  0  0
    7.9280  -12.9396   26.0328 C   0  0  0  0  0  0  0  0  0  0  0  0
    8.0945  -14.2841   26.6136 C   0  0  2  0  0  0  0  0  0  0  0  0
    9.2320  -15.1367   26.1683 N   0  0  0  0  0  0  0  0  0  0  0  0
    8.6807  -15.8820   24.9967 C   0  0  0  0  0  0  0  0  0  0  0  0
    9.7300  -16.1528   27.0795 O   0  0  0  0  0  0  0  0  0  0  0  0
    9.4403  -17.3651   26.9724 O   0  0  0  0  0  0  0  0  0  0  0  0
  2  3  1  0
  2  1  1  6
  3  4  1  0
  4  5  1  0
  5  6  1  0
  6  7  1  0
  8  2  1  0
  8  9  2  0
 10 11  1  0
 11 12  2  0
 13 11  1  0
 13 14  1  0
 15 16  1  0
 15 14  1  0
 17 16  1  6
 17 19  1  0
 17 18  1  0
 18  8  1  0
 19 26  1  0
 20 19  2  0
 22 23  1  0
 22 21  1  0
 23 24  1  0
 25 24  1  6
 25 27  1  0
 26 25  1  0
 27 28  2  0
 27 29  1  0
M  END
$$$$
