KRM.pdb
     RDKit          3D

 29 28  0  0  1  0  0  0  0  0999 V2000
    8.1583  -16.4619   19.2795 N   0  0  0  0  0  0  0  0  0  0  0  0
    8.0970  -15.1571   19.9717 C   0  0  1  0  0  0  0  0  0  0  0  0
    7.1034  -14.2692   19.2687 C   0  0  0  0  0  0  0  0  0  0  0  0
    7.1780  -14.3607   17.7760 C   0  0  0  0  0  0  0  0  0  0  0  0
    8.5184  -13.9279   17.2459 C   0  0  0  0  0  0  0  0  0  0  0  0
    8.5541  -13.9122   15.7342 C   0  0  0  0  0  0  0  0  0  0  0  0
    9.8497  -13.4130   15.3167 N   0  0  0  0  0  0  0  0  0  0  0  0
    7.7924  -15.3607   21.3951 C   0  0  0  0  0  0  0  0  0  0  0  0
    7.5296  -14.4180   22.1482 O   0  0  0  0  0  0  0  0  0  0  0  0
    8.7021  -21.5753   25.4469 N   0  0  0  0  0  0  0  0  0  0  0  0
    7.3560  -21.3160   25.7970 C   0  0  0  0  0  0  0  0  0  0  0  0
    6.9537  -21.5152   26.9978 N   0  0  0  0  0  0  0  0  0  0  0  0
    6.4044  -20.8294   24.8419 N   0  0  0  0  0  0  0  0  0  0  0  0
    6.7993  -20.6617   23.4719 C   0  0  0  0  0  0  0  0  0  0  0  0
    6.5913  -19.2090   23.0926 C   0  0  0  0  0  0  0  0  0  0  0  0
    7.6616  -18.3701   23.7277 C   0  0  0  0  0  0  0  0  0  0  0  0
    7.4769  -16.9300   23.3241 C   0  0  2  0  0  0  0  0  0  0  0  0
    7.7975  -16.6816   21.9340 N   0  0  0  0  0  0  0  0  0  0  0  0
    8.3577  -16.0988   24.1904 C   0  0  0  0  0  0  0  0  0  0  0  0
    9.5587  -15.8778   23.8934 O   0  0  0  0  0  0  0  0  0  0  0  0
    5.9987  -21.2548   27.3210 C   0  0  0  0  0  0  0  0  0  0  0  0
    5.3855  -11.7295   27.0555 S   0  0  0  0  0  0  0  0  0  0  0  0
    7.0095  -11.0388   27.4963 C   0  0  0  0  0  0  0  0  0  0  0  0
    8.2535  -12.3115   27.2842 C   0  0  0  0  0  0  0  0  0  0  0  0
    7.7911  -13.4243   26.4352 C   0  0  1  0  0  0  0  0  0  0  0  0
    8.7024  -14.5742   26.1775 N   0  0  0  0  0  0  0  0  0  0  0  0
    7.8615  -15.5254   25.3901 C   0  0  0  0  0  0  0  0  0  0  0  0
    9.1924  -15.3339   27.3148 O   0  0  0  0  0  0  0  0  0  0  0  0
    9.9723  -14.8560   28.1684 O   0  0  0  0  0  0  0  0  0  0  0  0
  2  3  1  0
  2  1  1  6
  3  4  1  0
  4  5  1  0
  5  6  1  0
  6  7  1  0
  8  2  1  0
  8  9  2  0
 10 11  1  0
 11 12  2  0
 13 11  1  0
 13 14  1  0
 15 16  1  0
 15 14  1  0
 17 16  1  1
 17 19  1  0
 17 18  1  0
 18  8  1  0
 19 26  1  0
 20 19  2  0
 22 23  1  0
 22 21  1  0
 23 24  1  0
 25 24  1  6
 25 27  1  0
 26 25  1  0
 27 28  2  0
 27 29  1  0
M  END
$$$$
