IKE.pdb
     RDKit          3D

 27 26  0  0  1  0  0  0  0  0999 V2000
   28.1344  -17.7424  -16.9749 C   0  0  0  0  0  0  0  0  0  0  0  0
   28.2463  -18.7823  -15.8851 C   0  0  0  0  0  0  0  0  0  0  0  0
   26.8568  -19.2884  -15.5731 C   0  0  2  0  0  0  0  0  0  0  0  0
   26.0112  -18.1210  -15.1132 C   0  0  0  0  0  0  0  0  0  0  0  0
   26.8796  -20.2883  -14.4326 C   0  0  2  0  0  0  0  0  0  0  0  0
   27.7876  -21.3856  -14.7250 N   0  0  0  0  0  0  0  0  0  0  0  0
   25.5601  -20.8261  -14.0865 C   0  0  0  0  0  0  0  0  0  0  0  0
   25.0121  -21.6762  -14.8117 O   0  0  0  0  0  0  0  0  0  0  0  0
   24.9061  -20.3768  -12.9185 N   0  0  0  0  0  0  0  0  0  0  0  0
   23.6152  -20.9449  -12.5007 C   0  0  1  0  0  0  0  0  0  0  0  0
   23.5227  -20.7298  -11.0020 C   0  0  0  0  0  0  0  0  0  0  0  0
   22.2285  -21.2139  -10.4439 C   0  0  0  0  0  0  0  0  0  0  0  0
   22.3153  -20.9870   -8.9267 C   0  0  0  0  0  0  0  0  0  0  0  0
   21.0134  -21.3793   -8.2619 C   0  0  0  0  0  0  0  0  0  0  0  0
   21.1819  -21.1455   -6.8398 N   0  0  0  0  0  0  0  0  0  0  0  0
   22.5611  -20.2900  -13.2720 C   0  0  0  0  0  0  0  0  0  0  0  0
   22.5414  -19.0433  -13.3961 O   0  0  0  0  0  0  0  0  0  0  0  0
   21.5523  -21.0450  -13.8885 N   0  0  0  0  0  0  0  0  0  0  0  0
   20.5280  -20.3864  -14.7416 C   0  0  1  0  0  0  0  0  0  0  0  0
   20.3670  -21.1538  -15.9829 C   0  0  0  0  0  0  0  0  0  0  0  0
   19.3425  -20.6727  -16.9316 C   0  0  0  0  0  0  0  0  0  0  0  0
   19.1254  -21.4483  -18.1632 C   0  0  0  0  0  0  0  0  0  0  0  0
   18.2904  -22.3848  -18.2855 O   0  0  0  0  0  0  0  0  0  0  0  0
   19.3811  -20.1681  -13.9042 C   0  0  0  0  0  0  0  0  0  0  0  0
   19.1326  -20.8739  -12.9040 O   0  0  0  0  0  0  0  0  0  0  0  0
   19.8838  -21.1487  -19.3120 O   0  0  0  0  0  0  0  0  0  0  0  0
   18.4423  -19.1406  -14.1415 O   0  0  0  0  0  0  0  0  0  0  0  0
  1  2  1  0
  3  2  1  0
  3  4  1  1
  5  6  1  6
  5  3  1  0
  7  5  1  0
  8  7  2  0
  9  7  1  0
 10  9  1  0
 10 11  1  1
 11 12  1  0
 12 13  1  0
 13 14  1  0
 15 14  1  0
 16 18  1  0
 16 10  1  0
 17 16  2  0
 19 18  1  0
 20 21  1  0
 19 20  1  6
 21 22  1  0
 22 26  1  0
 22 23  2  0
 24 19  1  0
 24 27  1  0
 25 24  2  0
M  END
$$$$
