IKE.pdb
     RDKit          3D

 27 26  0  0  1  0  0  0  0  0999 V2000
   28.5425  -11.8853  -16.0210 C   0  0  0  0  0  0  0  0  0  0  0  0
   27.2376  -12.6224  -16.2092 C   0  0  0  0  0  0  0  0  0  0  0  0
   26.1577  -11.6032  -16.4911 C   0  0  2  0  0  0  0  0  0  0  0  0
   25.9499  -10.7656  -15.2483 C   0  0  0  0  0  0  0  0  0  0  0  0
   24.8321  -12.2765  -16.7918 C   0  0  2  0  0  0  0  0  0  0  0  0
   24.9879  -13.2868  -17.8257 N   0  0  0  0  0  0  0  0  0  0  0  0
   23.7659  -11.3459  -17.1758 C   0  0  0  0  0  0  0  0  0  0  0  0
   23.9035  -10.5955  -18.1590 O   0  0  0  0  0  0  0  0  0  0  0  0
   22.5712  -11.3025  -16.4243 N   0  0  0  0  0  0  0  0  0  0  0  0
   21.4576  -10.4234  -16.8125 C   0  0  1  0  0  0  0  0  0  0  0  0
   20.2170  -11.2960  -16.8350 C   0  0  0  0  0  0  0  0  0  0  0  0
   20.0128  -11.9479  -18.1595 C   0  0  0  0  0  0  0  0  0  0  0  0
   18.7876  -12.8601  -17.9931 C   0  0  0  0  0  0  0  0  0  0  0  0
   18.4644  -13.5488  -19.3016 C   0  0  0  0  0  0  0  0  0  0  0  0
   17.2654  -14.3346  -19.0766 N   0  0  0  0  0  0  0  0  0  0  0  0
   21.4012   -9.3162  -15.8607 C   0  0  0  0  0  0  0  0  0  0  0  0
   21.5762   -9.5172  -14.6363 O   0  0  0  0  0  0  0  0  0  0  0  0
   21.1510   -8.0078  -16.3002 N   0  0  0  0  0  0  0  0  0  0  0  0
   21.0668   -6.8858  -15.3282 C   0  0  1  0  0  0  0  0  0  0  0  0
   22.1757   -5.9539  -15.5687 C   0  0  0  0  0  0  0  0  0  0  0  0
   22.2288   -4.7516  -14.7127 C   0  0  0  0  0  0  0  0  0  0  0  0
   23.3178   -3.7891  -14.9434 C   0  0  0  0  0  0  0  0  0  0  0  0
   23.1693   -2.5394  -15.0174 O   0  0  0  0  0  0  0  0  0  0  0  0
   19.7182   -6.3943  -15.3908 C   0  0  0  0  0  0  0  0  0  0  0  0
   18.9726   -6.5947  -16.3727 O   0  0  0  0  0  0  0  0  0  0  0  0
   24.6371   -4.2600  -15.0924 O   0  0  0  0  0  0  0  0  0  0  0  0
   19.1253   -5.6462  -14.3506 O   0  0  0  0  0  0  0  0  0  0  0  0
  1  2  1  0
  3  2  1  0
  3  4  1  1
  5  6  1  6
  5  3  1  0
  7  5  1  0
  8  7  2  0
  9  7  1  0
 10  9  1  0
 10 11  1  1
 11 12  1  0
 12 13  1  0
 13 14  1  0
 15 14  1  0
 16 18  1  0
 16 10  1  0
 17 16  2  0
 19 18  1  0
 20 21  1  0
 19 20  1  6
 21 22  1  0
 22 26  1  0
 22 23  2  0
 24 19  1  0
 24 27  1  0
 25 24  2  0
M  END
$$$$
