IKE.pdb
     RDKit          3D

 27 26  0  0  1  0  0  0  0  0999 V2000
   27.9936  -18.9524  -14.5766 C   0  0  0  0  0  0  0  0  0  0  0  0
   26.8338  -19.8984  -14.3730 C   0  0  0  0  0  0  0  0  0  0  0  0
   26.6613  -20.1187  -12.8877 C   0  0  2  0  0  0  0  0  0  0  0  0
   27.9303  -20.7356  -12.3418 C   0  0  0  0  0  0  0  0  0  0  0  0
   25.5403  -21.1007  -12.6046 C   0  0  2  0  0  0  0  0  0  0  0  0
   25.7386  -22.3383  -13.3415 N   0  0  0  0  0  0  0  0  0  0  0  0
   24.2017  -20.5734  -12.8878 C   0  0  0  0  0  0  0  0  0  0  0  0
   23.7814  -19.5614  -12.2979 O   0  0  0  0  0  0  0  0  0  0  0  0
   23.3830  -21.2185  -13.8403 N   0  0  0  0  0  0  0  0  0  0  0  0
   22.0316  -20.7236  -14.1445 C   0  0  1  0  0  0  0  0  0  0  0  0
   21.9918  -20.4941  -15.6434 C   0  0  0  0  0  0  0  0  0  0  0  0
   20.7025  -19.8914  -16.0854 C   0  0  0  0  0  0  0  0  0  0  0  0
   20.8940  -18.3703  -15.9830 C   0  0  0  0  0  0  0  0  0  0  0  0
   19.5985  -17.6555  -16.3013 C   0  0  0  0  0  0  0  0  0  0  0  0
   19.8755  -16.2331  -16.2275 N   0  0  0  0  0  0  0  0  0  0  0  0
   21.0681  -21.7081  -13.6575 C   0  0  0  0  0  0  0  0  0  0  0  0
   21.2777  -22.9345  -13.8066 O   0  0  0  0  0  0  0  0  0  0  0  0
   19.8912  -21.2986  -13.0133 N   0  0  0  0  0  0  0  0  0  0  0  0
   18.9326  -22.3016  -12.4787 C   0  0  1  0  0  0  0  0  0  0  0  0
   18.6349  -21.9856  -11.0761 C   0  0  0  0  0  0  0  0  0  0  0  0
   17.6448  -22.8467  -10.3983 C   0  0  0  0  0  0  0  0  0  0  0  0
   18.1368  -24.0468   -9.7030 C   0  0  0  0  0  0  0  0  0  0  0  0
   18.9116  -24.0349   -8.7087 O   0  0  0  0  0  0  0  0  0  0  0  0
   17.8505  -22.3722  -13.4213 C   0  0  0  0  0  0  0  0  0  0  0  0
   17.5084  -21.4013  -14.1288 O   0  0  0  0  0  0  0  0  0  0  0  0
   17.7303  -25.3198  -10.1489 O   0  0  0  0  0  0  0  0  0  0  0  0
   17.0864  -23.5416  -13.6257 O   0  0  0  0  0  0  0  0  0  0  0  0
  1  2  1  0
  3  2  1  0
  3  4  1  6
  5  6  1  6
  5  3  1  0
  7  5  1  0
  8  7  2  0
  9  7  1  0
 10  9  1  0
 10 11  1  6
 11 12  1  0
 12 13  1  0
 13 14  1  0
 15 14  1  0
 16 18  1  0
 16 10  1  0
 17 16  2  0
 19 18  1  0
 20 21  1  0
 19 20  1  1
 21 22  1  0
 22 26  1  0
 22 23  2  0
 24 19  1  0
 24 27  1  0
 25 24  2  0
M  END
$$$$
