IKE.pdb
     RDKit          3D

 27 26  0  0  1  0  0  0  0  0999 V2000
   26.1179  -20.5573   -7.9729 C   0  0  0  0  0  0  0  0  0  0  0  0
   26.5215  -21.2184   -9.2696 C   0  0  0  0  0  0  0  0  0  0  0  0
   25.7262  -20.5853  -10.3881 C   0  0  2  0  0  0  0  0  0  0  0  0
   24.2636  -20.9161  -10.1860 C   0  0  0  0  0  0  0  0  0  0  0  0
   26.1221  -21.1577  -11.7359 C   0  0  2  0  0  0  0  0  0  0  0  0
   27.5614  -21.0808  -11.9278 N   0  0  0  0  0  0  0  0  0  0  0  0
   25.4440  -20.5268  -12.8726 C   0  0  0  0  0  0  0  0  0  0  0  0
   25.6963  -19.3494  -13.1871 O   0  0  0  0  0  0  0  0  0  0  0  0
   24.4975  -21.2626  -13.6187 N   0  0  0  0  0  0  0  0  0  0  0  0
   23.8739  -20.6998  -14.8261 C   0  0  1  0  0  0  0  0  0  0  0  0
   24.0970  -21.7151  -15.9308 C   0  0  0  0  0  0  0  0  0  0  0  0
   25.2263  -21.3330  -16.8251 C   0  0  0  0  0  0  0  0  0  0  0  0
   26.2735  -22.4477  -16.6775 C   0  0  0  0  0  0  0  0  0  0  0  0
   27.4852  -22.1461  -17.5326 C   0  0  0  0  0  0  0  0  0  0  0  0
   28.5092  -23.1049  -17.1615 N   0  0  0  0  0  0  0  0  0  0  0  0
   22.4693  -20.4301  -14.5270 C   0  0  0  0  0  0  0  0  0  0  0  0
   21.8105  -21.2090  -13.7993 O   0  0  0  0  0  0  0  0  0  0  0  0
   21.8329  -19.2939  -15.0483 N   0  0  0  0  0  0  0  0  0  0  0  0
   20.4146  -18.9996  -14.7124 C   0  0  1  0  0  0  0  0  0  0  0  0
   20.1427  -17.5793  -14.9662 C   0  0  0  0  0  0  0  0  0  0  0  0
   18.7451  -17.1318  -14.7997 C   0  0  0  0  0  0  0  0  0  0  0  0
   18.4385  -15.7170  -15.0638 C   0  0  0  0  0  0  0  0  0  0  0  0
   17.9414  -14.9199  -14.2231 O   0  0  0  0  0  0  0  0  0  0  0  0
   19.6232  -19.9914  -15.3865 C   0  0  0  0  0  0  0  0  0  0  0  0
   18.6236  -20.5265  -14.8624 O   0  0  0  0  0  0  0  0  0  0  0  0
   18.7110  -15.1760  -16.3357 O   0  0  0  0  0  0  0  0  0  0  0  0
   19.9087  -20.4421  -16.6936 O   0  0  0  0  0  0  0  0  0  0  0  0
  1  2  1  0
  3  2  1  0
  3  4  1  1
  5  6  1  6
  5  3  1  0
  7  5  1  0
  8  7  2  0
  9  7  1  0
 10  9  1  0
 10 11  1  6
 11 12  1  0
 12 13  1  0
 13 14  1  0
 15 14  1  0
 16 18  1  0
 16 10  1  0
 17 16  2  0
 19 18  1  0
 20 21  1  0
 19 20  1  6
 21 22  1  0
 22 26  1  0
 22 23  2  0
 24 19  1  0
 24 27  1  0
 25 24  2  0
M  END
$$$$
