IKE.pdb
     RDKit          3D

 27 26  0  0  1  0  0  0  0  0999 V2000
   21.2865  -13.7995  -18.5332 C   0  0  0  0  0  0  0  0  0  0  0  0
   22.5233  -14.6090  -18.2226 C   0  0  0  0  0  0  0  0  0  0  0  0
   22.0859  -15.9889  -17.7883 C   0  0  2  0  0  0  0  0  0  0  0  0
   21.2954  -15.8617  -16.5045 C   0  0  0  0  0  0  0  0  0  0  0  0
   23.2802  -16.8724  -17.4811 C   0  0  2  0  0  0  0  0  0  0  0  0
   24.1381  -17.0062  -18.6474 N   0  0  0  0  0  0  0  0  0  0  0  0
   22.9224  -18.2044  -16.9832 C   0  0  0  0  0  0  0  0  0  0  0  0
   22.2092  -18.9645  -17.6632 O   0  0  0  0  0  0  0  0  0  0  0  0
   23.3932  -18.6293  -15.7216 N   0  0  0  0  0  0  0  0  0  0  0  0
   23.1158  -19.9842  -15.2208 C   0  0  1  0  0  0  0  0  0  0  0  0
   24.3752  -20.4385  -14.5077 C   0  0  0  0  0  0  0  0  0  0  0  0
   24.2310  -21.8038  -13.9279 C   0  0  0  0  0  0  0  0  0  0  0  0
   24.8386  -22.7645  -14.9617 C   0  0  0  0  0  0  0  0  0  0  0  0
   24.7071  -24.1961  -14.4887 C   0  0  0  0  0  0  0  0  0  0  0  0
   25.3187  -25.0313  -15.5056 N   0  0  0  0  0  0  0  0  0  0  0  0
   21.9292  -19.9191  -14.3707 C   0  0  0  0  0  0  0  0  0  0  0  0
   21.8956  -19.1538  -13.3790 O   0  0  0  0  0  0  0  0  0  0  0  0
   20.8057  -20.7113  -14.6495 N   0  0  0  0  0  0  0  0  0  0  0  0
   19.6061  -20.6590  -13.7726 C   0  0  1  0  0  0  0  0  0  0  0  0
   18.3987  -20.7941  -14.5971 C   0  0  0  0  0  0  0  0  0  0  0  0
   17.1159  -20.9261  -13.8774 C   0  0  0  0  0  0  0  0  0  0  0  0
   15.9628  -20.1613  -14.3784 C   0  0  0  0  0  0  0  0  0  0  0  0
   15.7652  -19.8683  -15.5885 O   0  0  0  0  0  0  0  0  0  0  0  0
   19.8353  -21.6027  -12.7137 C   0  0  0  0  0  0  0  0  0  0  0  0
   20.4215  -22.6906  -12.8955 O   0  0  0  0  0  0  0  0  0  0  0  0
   14.9845  -19.7106  -13.4704 O   0  0  0  0  0  0  0  0  0  0  0  0
   19.4183  -21.3793  -11.3835 O   0  0  0  0  0  0  0  0  0  0  0  0
  1  2  1  0
  3  2  1  0
  3  4  1  1
  5  6  1  6
  5  3  1  0
  7  5  1  0
  8  7  2  0
  9  7  1  0
 10  9  1  0
 10 11  1  1
 11 12  1  0
 12 13  1  0
 13 14  1  0
 15 14  1  0
 16 18  1  0
 16 10  1  0
 17 16  2  0
 19 18  1  0
 20 21  1  0
 19 20  1  6
 21 22  1  0
 22 26  1  0
 22 23  2  0
 24 19  1  0
 24 27  1  0
 25 24  2  0
M  END
$$$$
