IKE.pdb
     RDKit          3D

 27 26  0  0  1  0  0  0  0  0999 V2000
   26.7977  -21.0704   -7.0971 C   0  0  0  0  0  0  0  0  0  0  0  0
   25.5084  -20.2894   -7.1935 C   0  0  0  0  0  0  0  0  0  0  0  0
   25.0527  -20.3093   -8.6344 C   0  0  2  0  0  0  0  0  0  0  0  0
   24.7221  -21.7358   -9.0152 C   0  0  0  0  0  0  0  0  0  0  0  0
   26.1587  -19.8525   -9.5667 C   0  0  2  0  0  0  0  0  0  0  0  0
   26.6861  -18.5630   -9.1506 N   0  0  0  0  0  0  0  0  0  0  0  0
   25.7587  -19.7844  -10.9757 C   0  0  0  0  0  0  0  0  0  0  0  0
   25.0040  -18.8799  -11.3771 O   0  0  0  0  0  0  0  0  0  0  0  0
   26.2359  -20.7526  -11.8859 N   0  0  0  0  0  0  0  0  0  0  0  0
   25.8915  -20.6915  -13.3147 C   0  0  1  0  0  0  0  0  0  0  0  0
   27.1279  -21.1438  -14.0682 C   0  0  0  0  0  0  0  0  0  0  0  0
   26.9118  -21.1621  -15.5426 C   0  0  0  0  0  0  0  0  0  0  0  0
   28.2440  -21.6203  -16.1559 C   0  0  0  0  0  0  0  0  0  0  0  0
   28.1443  -21.6497  -17.6658 C   0  0  0  0  0  0  0  0  0  0  0  0
   29.4722  -21.9499  -18.1677 N   0  0  0  0  0  0  0  0  0  0  0  0
   24.7115  -21.5252  -13.5326 C   0  0  0  0  0  0  0  0  0  0  0  0
   24.4152  -22.4359  -12.7245 O   0  0  0  0  0  0  0  0  0  0  0  0
   23.8883  -21.3208  -14.6498 N   0  0  0  0  0  0  0  0  0  0  0  0
   22.4676  -21.7591  -14.6336 C   0  0  1  0  0  0  0  0  0  0  0  0
   21.8131  -21.2322  -13.4296 C   0  0  0  0  0  0  0  0  0  0  0  0
   20.7955  -22.0954  -12.7966 C   0  0  0  0  0  0  0  0  0  0  0  0
   19.8567  -21.4731  -11.8496 C   0  0  0  0  0  0  0  0  0  0  0  0
   19.8209  -20.2430  -11.5760 O   0  0  0  0  0  0  0  0  0  0  0  0
   21.9255  -21.4280  -15.9223 C   0  0  0  0  0  0  0  0  0  0  0  0
   22.3366  -20.4614  -16.5984 O   0  0  0  0  0  0  0  0  0  0  0  0
   18.9105  -22.2773  -11.1843 O   0  0  0  0  0  0  0  0  0  0  0  0
   20.8862  -22.1655  -16.5299 O   0  0  0  0  0  0  0  0  0  0  0  0
  1  2  1  0
  3  2  1  0
  3  4  1  6
  5  6  1  1
  5  3  1  0
  7  5  1  0
  8  7  2  0
  9  7  1  0
 10  9  1  0
 10 11  1  6
 11 12  1  0
 12 13  1  0
 13 14  1  0
 15 14  1  0
 16 18  1  0
 16 10  1  0
 17 16  2  0
 19 18  1  0
 20 21  1  0
 19 20  1  1
 21 22  1  0
 22 26  1  0
 22 23  2  0
 24 19  1  0
 24 27  1  0
 25 24  2  0
M  END
$$$$
