YEM.pdb
     RDKit          3D

 30 30  0  0  1  0  0  0  0  0999 V2000
    8.7268  -12.0852   20.0415 O   0  0  0  0  0  0  0  0  0  0  0  0
    8.0575  -13.1640   20.6184 C   0  0  0  0  0  0  0  0  0  0  0  0
    7.6974  -14.2479   19.8344 C   0  0  0  0  0  0  0  0  0  0  0  0
    7.0300  -15.3373   20.3810 C   0  0  0  0  0  0  0  0  0  0  0  0
    6.7078  -15.3671   21.7236 C   0  0  0  0  0  0  0  0  0  0  0  0
    5.9945  -16.5218   22.3238 C   0  0  0  0  0  0  0  0  0  0  0  0
    6.7666  -17.7981   22.0019 C   0  0  2  0  0  0  0  0  0  0  0  0
    5.8973  -18.8973   22.4207 N   0  0  0  0  0  0  0  0  0  0  0  0
    7.9983  -17.8537   22.8146 C   0  0  0  0  0  0  0  0  0  0  0  0
    7.9515  -18.0446   24.0395 O   0  0  0  0  0  0  0  0  0  0  0  0
    7.0652  -14.2921   22.5004 C   0  0  0  0  0  0  0  0  0  0  0  0
    7.7273  -13.2110   21.9586 C   0  0  0  0  0  0  0  0  0  0  0  0
    9.3023  -17.6928   22.2460 N   0  0  0  0  0  0  0  0  0  0  0  0
   10.5126  -17.6304   23.0434 C   0  0  1  0  0  0  0  0  0  0  0  0
   11.7548  -17.6055   22.2385 C   0  0  0  0  0  0  0  0  0  0  0  0
   13.0123  -17.5314   23.0504 C   0  0  0  0  0  0  0  0  0  0  0  0
   14.2436  -17.5462   22.2744 C   0  0  0  0  0  0  0  0  0  0  0  0
   14.7963  -16.4726   21.9425 O   0  0  0  0  0  0  0  0  0  0  0  0
   10.4179  -16.5376   24.0652 C   0  0  0  0  0  0  0  0  0  0  0  0
   10.3703  -15.3294   23.7362 O   0  0  0  0  0  0  0  0  0  0  0  0
   14.8263  -18.7323   21.8869 O   0  0  0  0  0  0  0  0  0  0  0  0
    8.3981  -11.2545   26.9841 C   0  0  0  0  0  0  0  0  0  0  0  0
    7.6119  -12.8595   26.7943 S   0  0  0  0  0  0  0  0  0  0  0  0
    8.6586  -14.1970   27.4196 C   0  0  0  0  0  0  0  0  0  0  0  0
    8.8711  -15.2386   26.3380 C   0  0  0  0  0  0  0  0  0  0  0  0
   10.2231  -15.9273   26.5213 C   0  0  2  0  0  0  0  0  0  0  0  0
   10.3795  -16.8646   25.4468 N   0  0  0  0  0  0  0  0  0  0  0  0
   10.2638  -16.5687   27.8546 C   0  0  0  0  0  0  0  0  0  0  0  0
   10.1148  -15.8891   28.8972 O   0  0  0  0  0  0  0  0  0  0  0  0
   10.4666  -17.9313   27.9883 O   0  0  0  0  0  0  0  0  0  0  0  0
  2  3  2  0
  2  1  1  0
  4  3  1  0
  5  4  2  0
  6  5  1  0
  7  9  1  0
  7  6  1  0
  7  8  1  1
  9 10  2  0
 11  5  1  0
 11 12  2  0
 12  2  1  0
 13 14  1  0
 13  9  1  0
 14 15  1  6
 15 16  1  0
 16 17  1  0
 17 21  1  0
 18 17  2  0
 19 20  2  0
 19 14  1  0
 22 23  1  0
 23 24  1  0
 24 25  1  0
 26 25  1  6
 26 27  1  0
 27 19  1  0
 28 26  1  0
 28 30  1  0
 29 28  2  0
M  END
$$$$
