YEM.pdb
     RDKit          3D

 30 30  0  0  1  0  0  0  0  0999 V2000
    7.1557  -13.1106   15.2493 O   0  0  0  0  0  0  0  0  0  0  0  0
    7.2455  -13.6220   16.5435 C   0  0  0  0  0  0  0  0  0  0  0  0
    7.1174  -14.9852   16.7541 C   0  0  0  0  0  0  0  0  0  0  0  0
    7.2024  -15.5239   18.0322 C   0  0  0  0  0  0  0  0  0  0  0  0
    7.4174  -14.7115   19.1281 C   0  0  0  0  0  0  0  0  0  0  0  0
    7.5099  -15.2696   20.5001 C   0  0  0  0  0  0  0  0  0  0  0  0
    8.8978  -14.9710   21.0598 C   0  0  2  0  0  0  0  0  0  0  0  0
    9.8393  -15.5299   20.0901 N   0  0  0  0  0  0  0  0  0  0  0  0
    9.0826  -15.6835   22.3400 C   0  0  0  0  0  0  0  0  0  0  0  0
    8.3056  -15.5073   23.2910 O   0  0  0  0  0  0  0  0  0  0  0  0
    7.5442  -13.3599   18.9186 C   0  0  0  0  0  0  0  0  0  0  0  0
    7.4599  -12.8249   17.6508 C   0  0  0  0  0  0  0  0  0  0  0  0
   10.1543  -16.6074   22.5580 N   0  0  0  0  0  0  0  0  0  0  0  0
   10.4168  -17.2284   23.8425 C   0  0  1  0  0  0  0  0  0  0  0  0
   11.4757  -18.2620   23.7984 C   0  0  0  0  0  0  0  0  0  0  0  0
   11.1894  -19.3961   22.8615 C   0  0  0  0  0  0  0  0  0  0  0  0
   12.2466  -20.3918   22.7649 C   0  0  0  0  0  0  0  0  0  0  0  0
   12.1146  -21.3854   22.0140 O   0  0  0  0  0  0  0  0  0  0  0  0
   10.6145  -16.1879   24.9033 C   0  0  0  0  0  0  0  0  0  0  0  0
   10.8729  -14.9955   24.6175 O   0  0  0  0  0  0  0  0  0  0  0  0
   13.4090  -20.2684   23.4929 O   0  0  0  0  0  0  0  0  0  0  0  0
    7.1328  -11.6199   27.6672 C   0  0  0  0  0  0  0  0  0  0  0  0
    7.2737  -12.9040   26.4175 S   0  0  0  0  0  0  0  0  0  0  0  0
    8.8991  -13.6991   26.4534 C   0  0  0  0  0  0  0  0  0  0  0  0
    8.7846  -15.0873   27.0532 C   0  0  0  0  0  0  0  0  0  0  0  0
   10.1726  -15.6563   27.3456 C   0  0  2  0  0  0  0  0  0  0  0  0
   10.5086  -16.5476   26.2732 N   0  0  0  0  0  0  0  0  0  0  0  0
   10.1540  -16.3257   28.6656 C   0  0  0  0  0  0  0  0  0  0  0  0
    9.8945  -17.5483   28.7603 O   0  0  0  0  0  0  0  0  0  0  0  0
   10.4215  -15.6243   29.8284 O   0  0  0  0  0  0  0  0  0  0  0  0
  2  3  2  0
  2  1  1  0
  4  3  1  0
  5  4  2  0
  6  5  1  0
  7  9  1  0
  7  6  1  0
  7  8  1  6
  9 10  2  0
 11  5  1  0
 11 12  2  0
 12  2  1  0
 13 14  1  0
 13  9  1  0
 14 15  1  6
 15 16  1  0
 16 17  1  0
 17 21  1  0
 18 17  2  0
 19 20  2  0
 19 14  1  0
 22 23  1  0
 23 24  1  0
 24 25  1  0
 26 25  1  6
 26 27  1  0
 27 19  1  0
 28 26  1  0
 28 30  1  0
 29 28  2  0
M  END
$$$$
