YEM.pdb
     RDKit          3D

 30 30  0  0  1  0  0  0  0  0999 V2000
    5.8491  -10.4391   25.5943 O   0  0  0  0  0  0  0  0  0  0  0  0
    6.1538  -11.7996   25.6189 C   0  0  0  0  0  0  0  0  0  0  0  0
    7.1122  -12.3048   24.7555 C   0  0  0  0  0  0  0  0  0  0  0  0
    7.4371  -13.6558   24.7570 C   0  0  0  0  0  0  0  0  0  0  0  0
    6.8109  -14.5319   25.6218 C   0  0  0  0  0  0  0  0  0  0  0  0
    7.1448  -15.9777   25.6363 C   0  0  0  0  0  0  0  0  0  0  0  0
    7.0960  -16.5081   24.2062 C   0  0  2  0  0  0  0  0  0  0  0  0
    5.9702  -17.4412   24.1732 N   0  0  0  0  0  0  0  0  0  0  0  0
    8.3284  -17.2673   23.9141 C   0  0  0  0  0  0  0  0  0  0  0  0
    8.3493  -18.5063   23.9757 O   0  0  0  0  0  0  0  0  0  0  0  0
    5.8607  -14.0303   26.4775 C   0  0  0  0  0  0  0  0  0  0  0  0
    5.5379  -12.6899   26.4765 C   0  0  0  0  0  0  0  0  0  0  0  0
    9.5562  -16.6287   23.5474 N   0  0  0  0  0  0  0  0  0  0  0  0
   10.7588  -17.3624   23.2009 C   0  0  1  0  0  0  0  0  0  0  0  0
   11.5027  -16.7810   22.0607 C   0  0  0  0  0  0  0  0  0  0  0  0
   12.7806  -17.4921   21.7334 C   0  0  0  0  0  0  0  0  0  0  0  0
   13.4691  -16.9996   20.5494 C   0  0  0  0  0  0  0  0  0  0  0  0
   12.9073  -17.0309   19.4306 O   0  0  0  0  0  0  0  0  0  0  0  0
   11.5953  -17.6138   24.4191 C   0  0  0  0  0  0  0  0  0  0  0  0
   12.7015  -18.1985   24.3504 O   0  0  0  0  0  0  0  0  0  0  0  0
   14.7470  -16.4924   20.6288 O   0  0  0  0  0  0  0  0  0  0  0  0
    8.4220  -13.1255   27.7040 C   0  0  0  0  0  0  0  0  0  0  0  0
    9.5300  -14.3111   28.4768 S   0  0  0  0  0  0  0  0  0  0  0  0
   10.2740  -15.4253   27.2601 C   0  0  0  0  0  0  0  0  0  0  0  0
   11.1920  -16.4131   27.9542 C   0  0  0  0  0  0  0  0  0  0  0  0
   11.8388  -17.3468   26.9316 C   0  0  2  0  0  0  0  0  0  0  0  0
   11.1356  -17.1832   25.6921 N   0  0  0  0  0  0  0  0  0  0  0  0
   11.7884  -18.7350   27.4426 C   0  0  0  0  0  0  0  0  0  0  0  0
   11.0276  -19.5829   26.9198 O   0  0  0  0  0  0  0  0  0  0  0  0
   12.5764  -19.1353   28.5077 O   0  0  0  0  0  0  0  0  0  0  0  0
  2  3  2  0
  2  1  1  0
  4  3  1  0
  5  4  2  0
  6  5  1  0
  7  9  1  0
  7  6  1  0
  7  8  1  1
  9 10  2  0
 11  5  1  0
 11 12  2  0
 12  2  1  0
 13 14  1  0
 13  9  1  0
 14 15  1  6
 15 16  1  0
 16 17  1  0
 17 21  1  0
 18 17  2  0
 19 20  2  0
 19 14  1  0
 22 23  1  0
 23 24  1  0
 24 25  1  0
 26 25  1  1
 26 27  1  0
 27 19  1  0
 28 26  1  0
 28 30  1  0
 29 28  2  0
M  END
$$$$
