YEM.pdb
     RDKit          3D

 30 30  0  0  1  0  0  0  0  0999 V2000
    9.7313  -17.3890   28.6954 O   0  0  0  0  0  0  0  0  0  0  0  0
    8.7214  -17.8332   27.8425 C   0  0  0  0  0  0  0  0  0  0  0  0
    8.4105  -19.1821   27.7899 C   0  0  0  0  0  0  0  0  0  0  0  0
    7.4093  -19.6544   26.9500 C   0  0  0  0  0  0  0  0  0  0  0  0
    6.6967  -18.7883   26.1441 C   0  0  0  0  0  0  0  0  0  0  0  0
    5.6249  -19.2754   25.2405 C   0  0  0  0  0  0  0  0  0  0  0  0
    6.2428  -20.2078   24.2025 C   0  0  2  0  0  0  0  0  0  0  0  0
    6.9349  -21.2432   24.9694 N   0  0  0  0  0  0  0  0  0  0  0  0
    7.2506  -19.4741   23.4109 C   0  0  0  0  0  0  0  0  0  0  0  0
    8.4589  -19.5482   23.6824 O   0  0  0  0  0  0  0  0  0  0  0  0
    7.0055  -17.4509   26.1968 C   0  0  0  0  0  0  0  0  0  0  0  0
    7.9988  -16.9818   27.0299 C   0  0  0  0  0  0  0  0  0  0  0  0
    6.8992  -18.6447   22.2981 N   0  0  0  0  0  0  0  0  0  0  0  0
    7.8820  -17.9827   21.4613 C   0  0  1  0  0  0  0  0  0  0  0  0
    7.5255  -17.9659   20.0246 C   0  0  0  0  0  0  0  0  0  0  0  0
    8.5591  -17.3346   19.1418 C   0  0  0  0  0  0  0  0  0  0  0  0
    8.1981  -17.2594   17.7339 C   0  0  0  0  0  0  0  0  0  0  0  0
    8.9417  -16.6656   16.9198 O   0  0  0  0  0  0  0  0  0  0  0  0
    8.2383  -16.6397   22.0240 C   0  0  0  0  0  0  0  0  0  0  0  0
    7.4563  -15.6637   21.9466 O   0  0  0  0  0  0  0  0  0  0  0  0
    7.0373  -17.8335   17.2653 O   0  0  0  0  0  0  0  0  0  0  0  0
    7.2881  -12.0793   25.3078 C   0  0  0  0  0  0  0  0  0  0  0  0
    7.4453  -13.6366   26.1912 S   0  0  0  0  0  0  0  0  0  0  0  0
    9.0001  -14.4760   25.7990 C   0  0  0  0  0  0  0  0  0  0  0  0
    8.7613  -15.5487   24.7538 C   0  0  0  0  0  0  0  0  0  0  0  0
    9.7911  -15.4349   23.6303 C   0  0  2  0  0  0  0  0  0  0  0  0
    9.4917  -16.4532   22.6654 N   0  0  0  0  0  0  0  0  0  0  0  0
   11.1498  -15.5663   24.2025 C   0  0  0  0  0  0  0  0  0  0  0  0
   11.3451  -16.2410   25.2406 O   0  0  0  0  0  0  0  0  0  0  0  0
   12.2390  -14.9507   23.6107 O   0  0  0  0  0  0  0  0  0  0  0  0
  2  3  2  0
  2  1  1  0
  4  3  1  0
  5  4  2  0
  6  5  1  0
  7  9  1  0
  7  6  1  0
  7  8  1  1
  9 10  2  0
 11  5  1  0
 11 12  2  0
 12  2  1  0
 13 14  1  0
 13  9  1  0
 14 15  1  6
 15 16  1  0
 16 17  1  0
 17 21  1  0
 18 17  2  0
 19 20  2  0
 19 14  1  0
 22 23  1  0
 23 24  1  0
 24 25  1  0
 26 25  1  1
 26 27  1  0
 27 19  1  0
 28 26  1  0
 28 30  1  0
 29 28  2  0
M  END
$$$$
