YEM.pdb
     RDKit          3D

 30 30  0  0  1  0  0  0  0  0999 V2000
   10.0183  -19.8490   30.8213 O   0  0  0  0  0  0  0  0  0  0  0  0
    9.2433  -19.5442   29.7028 C   0  0  0  0  0  0  0  0  0  0  0  0
    8.3284  -20.4697   29.2280 C   0  0  0  0  0  0  0  0  0  0  0  0
    7.5422  -20.1944   28.1157 C   0  0  0  0  0  0  0  0  0  0  0  0
    7.6534  -18.9876   27.4535 C   0  0  0  0  0  0  0  0  0  0  0  0
    6.8225  -18.6772   26.2637 C   0  0  0  0  0  0  0  0  0  0  0  0
    7.3387  -19.4879   25.0784 C   0  0  2  0  0  0  0  0  0  0  0  0
    7.5812  -20.8326   25.6002 N   0  0  0  0  0  0  0  0  0  0  0  0
    8.6292  -18.9350   24.6207 C   0  0  0  0  0  0  0  0  0  0  0  0
    9.7048  -19.4600   24.9472 O   0  0  0  0  0  0  0  0  0  0  0  0
    8.5608  -18.0703   27.9249 C   0  0  0  0  0  0  0  0  0  0  0  0
    9.3411  -18.3430   29.0283 C   0  0  0  0  0  0  0  0  0  0  0  0
    8.7158  -17.7762   23.7845 N   0  0  0  0  0  0  0  0  0  0  0  0
    9.9713  -17.2592   23.2737 C   0  0  1  0  0  0  0  0  0  0  0  0
    9.9187  -16.8730   21.8456 C   0  0  0  0  0  0  0  0  0  0  0  0
   11.2193  -16.3704   21.2961 C   0  0  0  0  0  0  0  0  0  0  0  0
   11.1948  -16.0289   19.8815 C   0  0  0  0  0  0  0  0  0  0  0  0
   12.2334  -15.6270   19.3086 O   0  0  0  0  0  0  0  0  0  0  0  0
   10.5145  -16.1962   24.1804 C   0  0  0  0  0  0  0  0  0  0  0  0
   11.2074  -15.2478   23.7438 O   0  0  0  0  0  0  0  0  0  0  0  0
   10.0372  -16.1364   19.1434 O   0  0  0  0  0  0  0  0  0  0  0  0
    6.0313  -12.1946   26.6466 C   0  0  0  0  0  0  0  0  0  0  0  0
    7.7420  -12.2903   26.1036 S   0  0  0  0  0  0  0  0  0  0  0  0
    8.4401  -13.9381   26.3739 C   0  0  0  0  0  0  0  0  0  0  0  0
    9.9228  -13.9322   26.0550 C   0  0  0  0  0  0  0  0  0  0  0  0
   10.5734  -15.2319   26.5277 C   0  0  2  0  0  0  0  0  0  0  0  0
   10.2444  -16.2513   25.5737 N   0  0  0  0  0  0  0  0  0  0  0  0
   10.0947  -15.5453   27.8927 C   0  0  0  0  0  0  0  0  0  0  0  0
    9.2711  -16.4702   28.0861 O   0  0  0  0  0  0  0  0  0  0  0  0
   10.5405  -14.8295   28.9902 O   0  0  0  0  0  0  0  0  0  0  0  0
  2  3  2  0
  2  1  1  0
  4  3  1  0
  5  4  2  0
  6  5  1  0
  7  9  1  0
  7  6  1  0
  7  8  1  1
  9 10  2  0
 11  5  1  0
 11 12  2  0
 12  2  1  0
 13 14  1  0
 13  9  1  0
 14 15  1  6
 15 16  1  0
 16 17  1  0
 17 21  1  0
 18 17  2  0
 19 20  2  0
 19 14  1  0
 22 23  1  0
 23 24  1  0
 24 25  1  0
 26 25  1  6
 26 27  1  0
 27 19  1  0
 28 26  1  0
 28 30  1  0
 29 28  2  0
M  END
$$$$
