YEM.pdb
     RDKit          3D

 30 30  0  0  1  0  0  0  0  0999 V2000
    8.2102  -12.1875   17.6499 O   0  0  0  0  0  0  0  0  0  0  0  0
    7.9620  -12.9274   18.8055 C   0  0  0  0  0  0  0  0  0  0  0  0
    8.8498  -13.9186   19.1905 C   0  0  0  0  0  0  0  0  0  0  0  0
    8.6293  -14.6722   20.3370 C   0  0  0  0  0  0  0  0  0  0  0  0
    7.5162  -14.4514   21.1241 C   0  0  0  0  0  0  0  0  0  0  0  0
    7.2645  -15.2472   22.3511 C   0  0  0  0  0  0  0  0  0  0  0  0
    7.8621  -16.6390   22.1657 C   0  0  2  0  0  0  0  0  0  0  0  0
    6.7208  -17.5530   22.1281 N   0  0  0  0  0  0  0  0  0  0  0  0
    8.6884  -16.9868   23.3391 C   0  0  0  0  0  0  0  0  0  0  0  0
    8.1680  -17.3107   24.4177 O   0  0  0  0  0  0  0  0  0  0  0  0
    6.6362  -13.4683   20.7417 C   0  0  0  0  0  0  0  0  0  0  0  0
    6.8545  -12.7204   19.6043 C   0  0  0  0  0  0  0  0  0  0  0  0
   10.1195  -16.9712   23.3035 N   0  0  0  0  0  0  0  0  0  0  0  0
   10.9446  -17.2775   24.4567 C   0  0  1  0  0  0  0  0  0  0  0  0
   12.2527  -17.8777   24.1098 C   0  0  0  0  0  0  0  0  0  0  0  0
   12.1564  -19.1495   23.3229 C   0  0  0  0  0  0  0  0  0  0  0  0
   13.4330  -19.7035   22.8966 C   0  0  0  0  0  0  0  0  0  0  0  0
   13.6496  -19.9372   21.6855 O   0  0  0  0  0  0  0  0  0  0  0  0
   11.0325  -16.0952   25.3741 C   0  0  0  0  0  0  0  0  0  0  0  0
   11.9184  -15.2194   25.2381 O   0  0  0  0  0  0  0  0  0  0  0  0
   14.4267  -19.9843   23.8078 O   0  0  0  0  0  0  0  0  0  0  0  0
    7.7332  -11.1776   24.9989 C   0  0  0  0  0  0  0  0  0  0  0  0
    7.8873  -12.0967   26.5357 S   0  0  0  0  0  0  0  0  0  0  0  0
    9.1362  -13.4009   26.4147 C   0  0  0  0  0  0  0  0  0  0  0  0
    9.2495  -14.1352   27.7369 C   0  0  0  0  0  0  0  0  0  0  0  0
   10.3151  -15.2272   27.6489 C   0  0  2  0  0  0  0  0  0  0  0  0
   10.0935  -15.9495   26.4296 N   0  0  0  0  0  0  0  0  0  0  0  0
   10.2288  -16.0870   28.8506 C   0  0  0  0  0  0  0  0  0  0  0  0
    9.7387  -17.2385   28.7807 O   0  0  0  0  0  0  0  0  0  0  0  0
   10.6846  -15.6463   30.0810 O   0  0  0  0  0  0  0  0  0  0  0  0
  2  3  2  0
  2  1  1  0
  4  3  1  0
  5  4  2  0
  6  5  1  0
  7  9  1  0
  7  6  1  0
  7  8  1  1
  9 10  2  0
 11  5  1  0
 11 12  2  0
 12  2  1  0
 13 14  1  0
 13  9  1  0
 14 15  1  6
 15 16  1  0
 16 17  1  0
 17 21  1  0
 18 17  2  0
 19 20  2  0
 19 14  1  0
 22 23  1  0
 23 24  1  0
 24 25  1  0
 26 25  1  1
 26 27  1  0
 27 19  1  0
 28 26  1  0
 28 30  1  0
 29 28  2  0
M  END
$$$$
