WFV.pdb
     RDKit          3D

 33 35  0  0  1  0  0  0  0  0999 V2000
    6.0365  -18.0248   23.9464 N   0  0  0  0  0  0  0  0  0  0  0  0
    6.7150  -16.7532   24.0997 C   0  0  1  0  0  0  0  0  0  0  0  0
    6.7139  -16.2889   25.5389 C   0  0  0  0  0  0  0  0  0  0  0  0
    5.9437  -15.0547   25.7663 C   0  0  0  0  0  0  0  0  0  0  0  0
    4.5823  -14.9382   25.9524 C   0  0  0  0  0  0  0  0  0  0  0  0
    4.3302  -13.6311   26.1209 N   0  0  0  0  0  0  0  0  0  0  0  0
    5.4668  -12.9188   26.0500 C   0  0  0  0  0  0  0  0  0  0  0  0
    5.7070  -11.5517   26.1626 C   0  0  0  0  0  0  0  0  0  0  0  0
    7.0043  -11.1003   26.0446 C   0  0  0  0  0  0  0  0  0  0  0  0
    8.0382  -11.9838   25.8203 C   0  0  0  0  0  0  0  0  0  0  0  0
    7.8198  -13.3364   25.7065 C   0  0  0  0  0  0  0  0  0  0  0  0
    6.5215  -13.7931   25.8240 C   0  0  0  0  0  0  0  0  0  0  0  0
    8.1457  -16.8954   23.7116 C   0  0  0  0  0  0  0  0  0  0  0  0
    8.7118  -18.0110   23.7905 O   0  0  0  0  0  0  0  0  0  0  0  0
    8.8750  -15.7849   23.2542 N   0  0  0  0  0  0  0  0  0  0  0  0
   10.2861  -15.9916   22.8692 C   0  0  1  0  0  0  0  0  0  0  0  0
   10.5758  -14.9546   21.8457 C   0  0  0  0  0  0  0  0  0  0  0  0
    9.4363  -14.3958   21.1181 C   0  0  0  0  0  0  0  0  0  0  0  0
    9.1395  -13.0506   21.1895 C   0  0  0  0  0  0  0  0  0  0  0  0
    8.0911  -12.4882   20.5015 C   0  0  0  0  0  0  0  0  0  0  0  0
    7.3012  -13.2821   19.7097 C   0  0  0  0  0  0  0  0  0  0  0  0
    7.5619  -14.6386   19.6078 C   0  0  0  0  0  0  0  0  0  0  0  0
    8.6344  -15.1715   20.3212 C   0  0  0  0  0  0  0  0  0  0  0  0
   11.0556  -16.0148   24.0918 C   0  0  0  0  0  0  0  0  0  0  0  0
   12.3095  -16.2737   24.0082 O   0  0  0  0  0  0  0  0  0  0  0  0
   10.5764  -13.6539   27.4837 C   0  0  0  0  0  0  0  0  0  0  0  0
   10.9017  -15.1034   27.7638 C   0  0  2  0  0  0  0  0  0  0  0  0
   11.9097  -15.1496   28.8917 C   0  0  0  0  0  0  0  0  0  0  0  0
   11.5211  -15.7775   26.5536 C   0  0  2  0  0  0  0  0  0  0  0  0
   10.6201  -15.7815   25.4236 N   0  0  0  0  0  0  0  0  0  0  0  0
   11.8070  -17.1730   26.9428 C   0  0  0  0  0  0  0  0  0  0  0  0
   12.8616  -17.5526   27.7632 O   0  0  0  0  0  0  0  0  0  0  0  0
   11.0802  -18.1334   26.5346 O   0  0  0  0  0  0  0  0  0  0  0  0
  2  3  1  0
  2  1  1  1
  4  3  1  0
  5  4  2  0
  6  5  1  0
  7 12  2  0
  7  6  1  0
  8  7  1  0
  9  8  2  0
  9 10  1  0
 10 11  2  0
 11 12  1  0
 12  4  1  0
 13  2  1  0
 13 14  2  0
 15 13  1  0
 16 15  1  0
 16 17  1  6
 18 19  2  0
 18 17  1  0
 20 19  1  0
 21 20  2  0
 22 21  1  0
 22 23  2  0
 23 18  1  0
 24 16  1  0
 25 24  2  0
 27 28  1  1
 27 26  1  0
 29 27  1  0
 29 30  1  6
 30 24  1  0
 31 32  1  0
 31 29  1  0
 33 31  2  0
M  END
$$$$
