WFV.pdb
     RDKit          3D

 33 35  0  0  1  0  0  0  0  0999 V2000
    8.6143  -18.2980   19.9193 N   0  0  0  0  0  0  0  0  0  0  0  0
    8.1216  -18.4811   21.2701 C   0  0  1  0  0  0  0  0  0  0  0  0
    8.7698  -19.6687   21.9454 C   0  0  0  0  0  0  0  0  0  0  0  0
    7.9654  -20.9005   21.8855 C   0  0  0  0  0  0  0  0  0  0  0  0
    8.1923  -22.0130   21.1027 C   0  0  0  0  0  0  0  0  0  0  0  0
    7.2078  -22.8818   21.3789 N   0  0  0  0  0  0  0  0  0  0  0  0
    6.3719  -22.3706   22.2978 C   0  0  0  0  0  0  0  0  0  0  0  0
    5.2241  -22.8902   22.8911 C   0  0  0  0  0  0  0  0  0  0  0  0
    4.5592  -22.1206   23.8217 C   0  0  0  0  0  0  0  0  0  0  0  0
    5.0217  -20.8659   24.1557 C   0  0  0  0  0  0  0  0  0  0  0  0
    6.1528  -20.3368   23.5804 C   0  0  0  0  0  0  0  0  0  0  0  0
    6.8222  -21.1045   22.6473 C   0  0  0  0  0  0  0  0  0  0  0  0
    8.4689  -17.2932   22.0985 C   0  0  0  0  0  0  0  0  0  0  0  0
    9.5180  -16.6480   21.8657 O   0  0  0  0  0  0  0  0  0  0  0  0
    7.6278  -16.8836   23.1469 N   0  0  0  0  0  0  0  0  0  0  0  0
    8.0545  -15.7341   23.9707 C   0  0  1  0  0  0  0  0  0  0  0  0
    6.8028  -15.0308   24.3522 C   0  0  0  0  0  0  0  0  0  0  0  0
    6.9006  -14.0088   25.3944 C   0  0  0  0  0  0  0  0  0  0  0  0
    6.4022  -14.2365   26.6603 C   0  0  0  0  0  0  0  0  0  0  0  0
    6.4972  -13.3082   27.6693 C   0  0  0  0  0  0  0  0  0  0  0  0
    7.1081  -12.1052   27.4231 C   0  0  0  0  0  0  0  0  0  0  0  0
    7.6233  -11.8329   26.1665 C   0  0  0  0  0  0  0  0  0  0  0  0
    7.5074  -12.8000   25.1695 C   0  0  0  0  0  0  0  0  0  0  0  0
    8.9173  -16.2564   25.0053 C   0  0  0  0  0  0  0  0  0  0  0  0
    8.5045  -17.2673   25.6789 O   0  0  0  0  0  0  0  0  0  0  0  0
   12.7426  -16.9683   24.4098 C   0  0  0  0  0  0  0  0  0  0  0  0
   12.5327  -16.4587   25.8175 C   0  0  2  0  0  0  0  0  0  0  0  0
   13.3725  -17.3014   26.7528 C   0  0  0  0  0  0  0  0  0  0  0  0
   11.0823  -16.5883   26.2446 C   0  0  2  0  0  0  0  0  0  0  0  0
   10.2048  -15.8070   25.4031 N   0  0  0  0  0  0  0  0  0  0  0  0
   10.9981  -16.0785   27.6279 C   0  0  0  0  0  0  0  0  0  0  0  0
   11.3289  -16.8219   28.7537 O   0  0  0  0  0  0  0  0  0  0  0  0
   10.6054  -14.8937   27.8711 O   0  0  0  0  0  0  0  0  0  0  0  0
  2  3  1  0
  2  1  1  6
  4  3  1  0
  5  4  2  0
  6  5  1  0
  7 12  2  0
  7  6  1  0
  8  7  1  0
  9  8  2  0
  9 10  1  0
 10 11  2  0
 11 12  1  0
 12  4  1  0
 13  2  1  0
 13 14  2  0
 15 13  1  0
 16 15  1  0
 16 17  1  1
 18 19  2  0
 18 17  1  0
 20 19  1  0
 21 20  2  0
 22 21  1  0
 22 23  2  0
 23 18  1  0
 24 16  1  0
 25 24  2  0
 27 28  1  1
 27 26  1  0
 29 27  1  0
 29 30  1  6
 30 24  1  0
 31 32  1  0
 31 29  1  0
 33 31  2  0
M  END
$$$$
