WFV.pdb
     RDKit          3D

 33 35  0  0  1  0  0  0  0  0999 V2000
    8.6900  -16.4881   19.9285 N   0  0  0  0  0  0  0  0  0  0  0  0
    9.1506  -15.3843   20.7472 C   0  0  1  0  0  0  0  0  0  0  0  0
    8.9160  -14.0517   20.0721 C   0  0  0  0  0  0  0  0  0  0  0  0
    9.7863  -13.8115   18.9090 C   0  0  0  0  0  0  0  0  0  0  0  0
    9.4149  -13.3431   17.6662 C   0  0  0  0  0  0  0  0  0  0  0  0
   10.5348  -13.2840   16.9297 N   0  0  0  0  0  0  0  0  0  0  0  0
   11.5937  -13.6924   17.6483 C   0  0  0  0  0  0  0  0  0  0  0  0
   12.9427  -13.8043   17.3210 C   0  0  0  0  0  0  0  0  0  0  0  0
   13.8169  -14.2621   18.2836 C   0  0  0  0  0  0  0  0  0  0  0  0
   13.3638  -14.6007   19.5406 C   0  0  0  0  0  0  0  0  0  0  0  0
   12.0360  -14.4967   19.8813 C   0  0  0  0  0  0  0  0  0  0  0  0
   11.1564  -14.0385   18.9198 C   0  0  0  0  0  0  0  0  0  0  0  0
    8.3790  -15.3450   22.0204 C   0  0  0  0  0  0  0  0  0  0  0  0
    7.4982  -14.4708   22.1963 O   0  0  0  0  0  0  0  0  0  0  0  0
    8.6288  -16.2839   23.0356 N   0  0  0  0  0  0  0  0  0  0  0  0
    8.6139  -15.8131   24.4357 C   0  0  1  0  0  0  0  0  0  0  0  0
    7.3300  -15.0832   24.5969 C   0  0  0  0  0  0  0  0  0  0  0  0
    7.2335  -14.1367   25.7083 C   0  0  0  0  0  0  0  0  0  0  0  0
    7.8133  -12.8877   25.6288 C   0  0  0  0  0  0  0  0  0  0  0  0
    7.7228  -11.9657   26.6439 C   0  0  0  0  0  0  0  0  0  0  0  0
    7.0331  -12.2854   27.7855 C   0  0  0  0  0  0  0  0  0  0  0  0
    6.4347  -13.5284   27.9094 C   0  0  0  0  0  0  0  0  0  0  0  0
    6.5488  -14.4362   26.8578 C   0  0  0  0  0  0  0  0  0  0  0  0
    8.8847  -16.9626   25.2680 C   0  0  0  0  0  0  0  0  0  0  0  0
    8.7076  -18.1276   24.7604 O   0  0  0  0  0  0  0  0  0  0  0  0
   11.6028  -17.9238   24.8725 C   0  0  0  0  0  0  0  0  0  0  0  0
   11.6992  -17.6142   26.3491 C   0  0  2  0  0  0  0  0  0  0  0  0
   12.7558  -18.5154   26.9505 C   0  0  0  0  0  0  0  0  0  0  0  0
   10.3877  -17.8896   27.0610 C   0  0  2  0  0  0  0  0  0  0  0  0
    9.3390  -17.0017   26.6133 N   0  0  0  0  0  0  0  0  0  0  0  0
   10.6274  -17.6601   28.4999 C   0  0  0  0  0  0  0  0  0  0  0  0
   10.5569  -16.4156   29.1128 O   0  0  0  0  0  0  0  0  0  0  0  0
   10.9212  -18.6200   29.2806 O   0  0  0  0  0  0  0  0  0  0  0  0
  2  3  1  0
  2  1  1  6
  4  3  1  0
  5  4  2  0
  6  5  1  0
  7 12  2  0
  7  6  1  0
  8  7  1  0
  9  8  2  0
  9 10  1  0
 10 11  2  0
 11 12  1  0
 12  4  1  0
 13  2  1  0
 13 14  2  0
 15 13  1  0
 16 15  1  0
 16 17  1  1
 18 19  2  0
 18 17  1  0
 20 19  1  0
 21 20  2  0
 22 21  1  0
 22 23  2  0
 23 18  1  0
 24 16  1  0
 25 24  2  0
 27 28  1  1
 27 26  1  0
 29 27  1  0
 29 30  1  6
 30 24  1  0
 31 32  1  0
 31 29  1  0
 33 31  2  0
M  END
$$$$
