WFV.pdb
     RDKit          3D

 33 35  0  0  1  0  0  0  0  0999 V2000
    5.1097  -18.0102   22.6719 N   0  0  0  0  0  0  0  0  0  0  0  0
    6.1196  -17.1973   22.0237 C   0  0  1  0  0  0  0  0  0  0  0  0
    5.5023  -16.1604   21.1124 C   0  0  0  0  0  0  0  0  0  0  0  0
    6.4777  -15.4578   20.2622 C   0  0  0  0  0  0  0  0  0  0  0  0
    7.0707  -15.9218   19.1069 C   0  0  0  0  0  0  0  0  0  0  0  0
    7.8850  -14.9460   18.6767 N   0  0  0  0  0  0  0  0  0  0  0  0
    7.8336  -13.8898   19.5051 C   0  0  0  0  0  0  0  0  0  0  0  0
    8.4889  -12.6613   19.4751 C   0  0  0  0  0  0  0  0  0  0  0  0
    8.2317  -11.7544   20.4809 C   0  0  0  0  0  0  0  0  0  0  0  0
    7.3457  -12.0586   21.4920 C   0  0  0  0  0  0  0  0  0  0  0  0
    6.6898  -13.2660   21.5378 C   0  0  0  0  0  0  0  0  0  0  0  0
    6.9446  -14.1779   20.5319 C   0  0  0  0  0  0  0  0  0  0  0  0
    6.8917  -16.4411   23.0483 C   0  0  0  0  0  0  0  0  0  0  0  0
    6.7656  -15.1975   23.1409 O   0  0  0  0  0  0  0  0  0  0  0  0
    7.7675  -17.1105   23.9197 N   0  0  0  0  0  0  0  0  0  0  0  0
    8.7096  -16.2982   24.7164 C   0  0  1  0  0  0  0  0  0  0  0  0
    7.9605  -15.9015   25.9364 C   0  0  0  0  0  0  0  0  0  0  0  0
    7.6294  -14.4845   26.0871 C   0  0  0  0  0  0  0  0  0  0  0  0
    6.3186  -14.0557   26.0611 C   0  0  0  0  0  0  0  0  0  0  0  0
    5.9702  -12.7360   26.2223 C   0  0  0  0  0  0  0  0  0  0  0  0
    6.9521  -11.7985   26.4172 C   0  0  0  0  0  0  0  0  0  0  0  0
    8.2822  -12.1834   26.4504 C   0  0  0  0  0  0  0  0  0  0  0  0
    8.5953  -13.5314   26.2830 C   0  0  0  0  0  0  0  0  0  0  0  0
    9.9222  -17.0723   24.8499 C   0  0  0  0  0  0  0  0  0  0  0  0
    9.8147  -18.3039   25.1930 O   0  0  0  0  0  0  0  0  0  0  0  0
   13.1203  -16.6174   22.3847 C   0  0  0  0  0  0  0  0  0  0  0  0
   13.5338  -17.0226   23.7812 C   0  0  2  0  0  0  0  0  0  0  0  0
   14.5933  -18.0970   23.6648 C   0  0  0  0  0  0  0  0  0  0  0  0
   12.3663  -17.5981   24.5612 C   0  0  2  0  0  0  0  0  0  0  0  0
   11.2674  -16.6634   24.6473 N   0  0  0  0  0  0  0  0  0  0  0  0
   12.8618  -17.8814   25.9231 C   0  0  0  0  0  0  0  0  0  0  0  0
   13.6099  -19.0013   26.2629 O   0  0  0  0  0  0  0  0  0  0  0  0
   12.6223  -17.0902   26.8895 O   0  0  0  0  0  0  0  0  0  0  0  0
  2  3  1  0
  2  1  1  1
  4  3  1  0
  5  4  2  0
  6  5  1  0
  7 12  2  0
  7  6  1  0
  8  7  1  0
  9  8  2  0
  9 10  1  0
 10 11  2  0
 11 12  1  0
 12  4  1  0
 13  2  1  0
 13 14  2  0
 15 13  1  0
 16 15  1  0
 16 17  1  1
 18 19  2  0
 18 17  1  0
 20 19  1  0
 21 20  2  0
 22 21  1  0
 22 23  2  0
 23 18  1  0
 24 16  1  0
 25 24  2  0
 27 28  1  6
 27 26  1  0
 29 27  1  0
 29 30  1  1
 30 24  1  0
 31 32  1  0
 31 29  1  0
 33 31  2  0
M  END
$$$$
