WFV.pdb
     RDKit          3D

 33 35  0  0  1  0  0  0  0  0999 V2000
    5.6705  -19.8962   21.6360 N   0  0  0  0  0  0  0  0  0  0  0  0
    5.9376  -19.6090   23.0314 C   0  0  1  0  0  0  0  0  0  0  0  0
    6.8922  -20.6138   23.6362 C   0  0  0  0  0  0  0  0  0  0  0  0
    6.6731  -20.8545   25.0722 C   0  0  0  0  0  0  0  0  0  0  0  0
    5.5345  -21.3450   25.6761 C   0  0  0  0  0  0  0  0  0  0  0  0
    5.7913  -21.3950   26.9921 N   0  0  0  0  0  0  0  0  0  0  0  0
    7.0364  -20.9598   27.2463 C   0  0  0  0  0  0  0  0  0  0  0  0
    7.7424  -20.8299   28.4397 C   0  0  0  0  0  0  0  0  0  0  0  0
    9.0321  -20.3453   28.3911 C   0  0  0  0  0  0  0  0  0  0  0  0
    9.6076  -19.9980   27.1878 C   0  0  0  0  0  0  0  0  0  0  0  0
    8.9259  -20.1196   26.0001 C   0  0  0  0  0  0  0  0  0  0  0  0
    7.6333  -20.6047   26.0441 C   0  0  0  0  0  0  0  0  0  0  0  0
    6.6009  -18.2813   23.1546 C   0  0  0  0  0  0  0  0  0  0  0  0
    7.3635  -17.8718   22.2481 O   0  0  0  0  0  0  0  0  0  0  0  0
    6.3806  -17.4755   24.2844 N   0  0  0  0  0  0  0  0  0  0  0  0
    7.0915  -16.1831   24.3647 C   0  0  1  0  0  0  0  0  0  0  0  0
    6.1912  -15.2798   25.1266 C   0  0  0  0  0  0  0  0  0  0  0  0
    6.7295  -13.9792   25.5253 C   0  0  0  0  0  0  0  0  0  0  0  0
    6.9542  -12.9883   24.5923 C   0  0  0  0  0  0  0  0  0  0  0  0
    7.4371  -11.7479   24.9344 C   0  0  0  0  0  0  0  0  0  0  0  0
    7.7105  -11.4701   26.2494 C   0  0  0  0  0  0  0  0  0  0  0  0
    7.5003  -12.4349   27.2206 C   0  0  0  0  0  0  0  0  0  0  0  0
    7.0094  -13.6809   26.8339 C   0  0  0  0  0  0  0  0  0  0  0  0
    8.4135  -16.4624   24.8765 C   0  0  0  0  0  0  0  0  0  0  0  0
    8.5144  -17.2529   25.8820 O   0  0  0  0  0  0  0  0  0  0  0  0
   11.7986  -16.4197   22.4538 C   0  0  0  0  0  0  0  0  0  0  0  0
   12.0641  -16.1090   23.9092 C   0  0  2  0  0  0  0  0  0  0  0  0
   13.3181  -16.8463   24.3264 C   0  0  0  0  0  0  0  0  0  0  0  0
   10.9260  -16.5818   24.7946 C   0  0  2  0  0  0  0  0  0  0  0  0
    9.6677  -15.9802   24.4158 N   0  0  0  0  0  0  0  0  0  0  0  0
   11.2583  -16.1689   26.1729 C   0  0  0  0  0  0  0  0  0  0  0  0
   11.9225  -16.9745   27.0889 O   0  0  0  0  0  0  0  0  0  0  0  0
   10.9439  -15.0167   26.6098 O   0  0  0  0  0  0  0  0  0  0  0  0
  2  3  1  0
  2  1  1  6
  4  3  1  0
  5  4  2  0
  6  5  1  0
  7 12  2  0
  7  6  1  0
  8  7  1  0
  9  8  2  0
  9 10  1  0
 10 11  2  0
 11 12  1  0
 12  4  1  0
 13  2  1  0
 13 14  2  0
 15 13  1  0
 16 15  1  0
 16 17  1  1
 18 19  2  0
 18 17  1  0
 20 19  1  0
 21 20  2  0
 22 21  1  0
 22 23  2  0
 23 18  1  0
 24 16  1  0
 25 24  2  0
 27 28  1  1
 27 26  1  0
 29 27  1  0
 29 30  1  6
 30 24  1  0
 31 32  1  0
 31 29  1  0
 33 31  2  0
M  END
$$$$
