WFV.pdb
     RDKit          3D

 33 35  0  0  1  0  0  0  0  0999 V2000
   11.0618  -15.5925   20.4055 N   0  0  0  0  0  0  0  0  0  0  0  0
    9.7413  -15.5104   20.9976 C   0  0  1  0  0  0  0  0  0  0  0  0
    8.8283  -16.5997   20.4813 C   0  0  0  0  0  0  0  0  0  0  0  0
    7.9147  -16.1560   19.4153 C   0  0  0  0  0  0  0  0  0  0  0  0
    6.9863  -16.9166   18.7361 C   0  0  0  0  0  0  0  0  0  0  0  0
    6.3872  -16.0959   17.8599 N   0  0  0  0  0  0  0  0  0  0  0  0
    6.8931  -14.8551   17.9544 C   0  0  0  0  0  0  0  0  0  0  0  0
    6.5951  -13.6826   17.2646 C   0  0  0  0  0  0  0  0  0  0  0  0
    7.2922  -12.5369   17.5838 C   0  0  0  0  0  0  0  0  0  0  0  0
    8.2614  -12.5539   18.5637 C   0  0  0  0  0  0  0  0  0  0  0  0
    8.5689  -13.7020   19.2548 C   0  0  0  0  0  0  0  0  0  0  0  0
    7.8728  -14.8523   18.9382 C   0  0  0  0  0  0  0  0  0  0  0  0
    9.8358  -15.7126   22.4700 C   0  0  0  0  0  0  0  0  0  0  0  0
   10.8189  -16.3155   22.9611 O   0  0  0  0  0  0  0  0  0  0  0  0
    8.8278  -15.2317   23.3227 N   0  0  0  0  0  0  0  0  0  0  0  0
    9.1674  -15.0096   24.7430 C   0  0  1  0  0  0  0  0  0  0  0  0
    8.1639  -14.0360   25.2451 C   0  0  0  0  0  0  0  0  0  0  0  0
    8.2141  -13.6966   26.6673 C   0  0  0  0  0  0  0  0  0  0  0  0
    7.1968  -14.0683   27.5216 C   0  0  0  0  0  0  0  0  0  0  0  0
    7.2221  -13.7863   28.8664 C   0  0  0  0  0  0  0  0  0  0  0  0
    8.2928  -13.1105   29.3936 C   0  0  0  0  0  0  0  0  0  0  0  0
    9.3373  -12.7175   28.5732 C   0  0  0  0  0  0  0  0  0  0  0  0
    9.2750  -13.0220   27.2144 C   0  0  0  0  0  0  0  0  0  0  0  0
    9.2614  -16.3123   25.3609 C   0  0  0  0  0  0  0  0  0  0  0  0
    8.2377  -17.0830   25.2975 O   0  0  0  0  0  0  0  0  0  0  0  0
   11.6767  -19.3212   24.8877 C   0  0  0  0  0  0  0  0  0  0  0  0
   11.5463  -19.0174   26.3628 C   0  0  2  0  0  0  0  0  0  0  0  0
   11.4343  -20.3312   27.1055 C   0  0  0  0  0  0  0  0  0  0  0  0
   10.2975  -18.2061   26.6544 C   0  0  2  0  0  0  0  0  0  0  0  0
   10.3582  -16.8944   26.0507 N   0  0  0  0  0  0  0  0  0  0  0  0
   10.2203  -18.0549   28.1213 C   0  0  0  0  0  0  0  0  0  0  0  0
   10.8249  -17.0254   28.8313 O   0  0  0  0  0  0  0  0  0  0  0  0
    9.5759  -18.8856   28.8367 O   0  0  0  0  0  0  0  0  0  0  0  0
  2  3  1  0
  2  1  1  6
  4  3  1  0
  5  4  2  0
  6  5  1  0
  7 12  2  0
  7  6  1  0
  8  7  1  0
  9  8  2  0
  9 10  1  0
 10 11  2  0
 11 12  1  0
 12  4  1  0
 13  2  1  0
 13 14  2  0
 15 13  1  0
 16 15  1  0
 16 17  1  1
 18 19  2  0
 18 17  1  0
 20 19  1  0
 21 20  2  0
 22 21  1  0
 22 23  2  0
 23 18  1  0
 24 16  1  0
 25 24  2  0
 27 28  1  1
 27 26  1  0
 29 27  1  0
 29 30  1  6
 30 24  1  0
 31 32  1  0
 31 29  1  0
 33 31  2  0
M  END
$$$$
