WFV.pdb
     RDKit          3D

 33 35  0  0  1  0  0  0  0  0999 V2000
    6.6004  -19.2719   25.5615 N   0  0  0  0  0  0  0  0  0  0  0  0
    6.7656  -17.9450   25.0020 C   0  0  1  0  0  0  0  0  0  0  0  0
    7.4268  -17.0031   25.9829 C   0  0  0  0  0  0  0  0  0  0  0  0
    6.6602  -15.7718   26.2360 C   0  0  0  0  0  0  0  0  0  0  0  0
    5.2932  -15.6475   26.3691 C   0  0  0  0  0  0  0  0  0  0  0  0
    5.0474  -14.3469   26.5891 N   0  0  0  0  0  0  0  0  0  0  0  0
    6.1932  -13.6460   26.6011 C   0  0  0  0  0  0  0  0  0  0  0  0
    6.4423  -12.2888   26.7893 C   0  0  0  0  0  0  0  0  0  0  0  0
    7.7480  -11.8484   26.7487 C   0  0  0  0  0  0  0  0  0  0  0  0
    8.7816  -12.7328   26.5268 C   0  0  0  0  0  0  0  0  0  0  0  0
    8.5546  -14.0757   26.3390 C   0  0  0  0  0  0  0  0  0  0  0  0
    7.2477  -14.5215   26.3789 C   0  0  0  0  0  0  0  0  0  0  0  0
    7.6647  -18.0065   23.8164 C   0  0  0  0  0  0  0  0  0  0  0  0
    8.5977  -18.8425   23.7762 O   0  0  0  0  0  0  0  0  0  0  0  0
    7.4783  -17.1311   22.7332 N   0  0  0  0  0  0  0  0  0  0  0  0
    8.3920  -17.2508   21.5786 C   0  0  1  0  0  0  0  0  0  0  0  0
    7.7819  -16.4302   20.5010 C   0  0  0  0  0  0  0  0  0  0  0  0
    7.9496  -14.9795   20.5882 C   0  0  0  0  0  0  0  0  0  0  0  0
    7.1701  -14.2252   21.4403 C   0  0  0  0  0  0  0  0  0  0  0  0
    7.3161  -12.8643   21.5645 C   0  0  0  0  0  0  0  0  0  0  0  0
    8.2689  -12.2178   20.8193 C   0  0  0  0  0  0  0  0  0  0  0  0
    9.0746  -12.9349   19.9503 C   0  0  0  0  0  0  0  0  0  0  0  0
    8.8959  -14.3138   19.8525 C   0  0  0  0  0  0  0  0  0  0  0  0
    9.7160  -16.9230   22.0553 C   0  0  0  0  0  0  0  0  0  0  0  0
   10.7004  -17.0729   21.2464 O   0  0  0  0  0  0  0  0  0  0  0  0
   11.0273  -13.9960   24.7889 C   0  0  0  0  0  0  0  0  0  0  0  0
   11.6062  -15.3818   24.9620 C   0  0  2  0  0  0  0  0  0  0  0  0
   13.0763  -15.2395   25.2920 C   0  0  0  0  0  0  0  0  0  0  0  0
   11.4888  -16.1960   23.6868 C   0  0  2  0  0  0  0  0  0  0  0  0
   10.1090  -16.4370   23.3309 N   0  0  0  0  0  0  0  0  0  0  0  0
   12.1497  -17.4909   23.9455 C   0  0  0  0  0  0  0  0  0  0  0  0
   11.4995  -18.7179   23.9123 O   0  0  0  0  0  0  0  0  0  0  0  0
   13.3894  -17.5547   24.2219 O   0  0  0  0  0  0  0  0  0  0  0  0
  2  3  1  0
  2  1  1  1
  4  3  1  0
  5  4  2  0
  6  5  1  0
  7 12  2  0
  7  6  1  0
  8  7  1  0
  9  8  2  0
  9 10  1  0
 10 11  2  0
 11 12  1  0
 12  4  1  0
 13  2  1  0
 13 14  2  0
 15 13  1  0
 16 15  1  0
 16 17  1  6
 18 19  2  0
 18 17  1  0
 20 19  1  0
 21 20  2  0
 22 21  1  0
 22 23  2  0
 23 18  1  0
 24 16  1  0
 25 24  2  0
 27 28  1  6
 27 26  1  0
 29 27  1  0
 29 30  1  1
 30 24  1  0
 31 32  1  0
 31 29  1  0
 33 31  2  0
M  END
$$$$
