WFV.pdb
     RDKit          3D

 33 35  0  0  1  0  0  0  0  0999 V2000
   10.8381  -15.4958   20.4851 N   0  0  0  0  0  0  0  0  0  0  0  0
    9.4651  -15.5231   20.9491 C   0  0  1  0  0  0  0  0  0  0  0  0
    8.6544  -16.5806   20.2343 C   0  0  0  0  0  0  0  0  0  0  0  0
    8.0036  -16.1018   19.0034 C   0  0  0  0  0  0  0  0  0  0  0  0
    7.2551  -16.8384   18.1095 C   0  0  0  0  0  0  0  0  0  0  0  0
    6.8667  -15.9896   17.1457 N   0  0  0  0  0  0  0  0  0  0  0  0
    7.3341  -14.7541   17.3893 C   0  0  0  0  0  0  0  0  0  0  0  0
    7.1957  -13.5603   16.6856 C   0  0  0  0  0  0  0  0  0  0  0  0
    7.7989  -12.4272   17.1883 C   0  0  0  0  0  0  0  0  0  0  0  0
    8.5219  -12.4771   18.3607 C   0  0  0  0  0  0  0  0  0  0  0  0
    8.6690  -13.6464   19.0686 C   0  0  0  0  0  0  0  0  0  0  0  0
    8.0663  -14.7843   18.5685 C   0  0  0  0  0  0  0  0  0  0  0  0
    9.4287  -15.8799   22.3945 C   0  0  0  0  0  0  0  0  0  0  0  0
   10.4309  -16.3980   22.9407 O   0  0  0  0  0  0  0  0  0  0  0  0
    8.2748  -15.6409   23.1599 N   0  0  0  0  0  0  0  0  0  0  0  0
    8.4484  -15.1809   24.5528 C   0  0  1  0  0  0  0  0  0  0  0  0
    7.3232  -14.2447   24.8064 C   0  0  0  0  0  0  0  0  0  0  0  0
    7.2709  -13.6016   26.1194 C   0  0  0  0  0  0  0  0  0  0  0  0
    8.2197  -13.8764   27.0822 C   0  0  0  0  0  0  0  0  0  0  0  0
    8.2142  -13.2738   28.3174 C   0  0  0  0  0  0  0  0  0  0  0  0
    7.2345  -12.3624   28.6185 C   0  0  0  0  0  0  0  0  0  0  0  0
    6.2610  -12.0555   27.6823 C   0  0  0  0  0  0  0  0  0  0  0  0
    6.3005  -12.6878   26.4407 C   0  0  0  0  0  0  0  0  0  0  0  0
    8.5844  -16.3636   25.3716 C   0  0  0  0  0  0  0  0  0  0  0  0
    7.5967  -17.1814   25.4153 O   0  0  0  0  0  0  0  0  0  0  0  0
   10.8339  -19.2108   24.8639 C   0  0  0  0  0  0  0  0  0  0  0  0
   10.9410  -18.8797   26.3350 C   0  0  2  0  0  0  0  0  0  0  0  0
   10.9600  -20.1796   27.1096 C   0  0  0  0  0  0  0  0  0  0  0  0
    9.7497  -18.0685   26.8098 C   0  0  2  0  0  0  0  0  0  0  0  0
    9.6890  -16.7776   26.1628 N   0  0  0  0  0  0  0  0  0  0  0  0
    9.9222  -17.8682   28.2627 C   0  0  0  0  0  0  0  0  0  0  0  0
    9.5584  -18.8001   29.2263 O   0  0  0  0  0  0  0  0  0  0  0  0
   10.4290  -16.7973   28.7249 O   0  0  0  0  0  0  0  0  0  0  0  0
  2  3  1  0
  2  1  1  6
  4  3  1  0
  5  4  2  0
  6  5  1  0
  7 12  2  0
  7  6  1  0
  8  7  1  0
  9  8  2  0
  9 10  1  0
 10 11  2  0
 11 12  1  0
 12  4  1  0
 13  2  1  0
 13 14  2  0
 15 13  1  0
 16 15  1  0
 16 17  1  1
 18 19  2  0
 18 17  1  0
 20 19  1  0
 21 20  2  0
 22 21  1  0
 22 23  2  0
 23 18  1  0
 24 16  1  0
 25 24  2  0
 27 28  1  1
 27 26  1  0
 29 27  1  0
 29 30  1  6
 30 24  1  0
 31 32  1  0
 31 29  1  0
 33 31  2  0
M  END
$$$$
