WFV.pdb
     RDKit          3D

 33 35  0  0  1  0  0  0  0  0999 V2000
    7.6363  -17.6475   22.0003 N   0  0  0  0  0  0  0  0  0  0  0  0
    8.0355  -16.2600   22.1292 C   0  0  1  0  0  0  0  0  0  0  0  0
    6.9102  -15.3183   21.7638 C   0  0  0  0  0  0  0  0  0  0  0  0
    6.9577  -14.8455   20.3702 C   0  0  0  0  0  0  0  0  0  0  0  0
    6.4686  -15.4850   19.2506 C   0  0  0  0  0  0  0  0  0  0  0  0
    6.7350  -14.6853   18.2067 N   0  0  0  0  0  0  0  0  0  0  0  0
    7.3681  -13.5730   18.6145 C   0  0  0  0  0  0  0  0  0  0  0  0
    7.8391  -12.4685   17.9090 C   0  0  0  0  0  0  0  0  0  0  0  0
    8.4607  -11.4571   18.6098 C   0  0  0  0  0  0  0  0  0  0  0  0
    8.6114  -11.5392   19.9774 C   0  0  0  0  0  0  0  0  0  0  0  0
    8.1528  -12.6217   20.6902 C   0  0  0  0  0  0  0  0  0  0  0  0
    7.5293  -13.6375   19.9920 C   0  0  0  0  0  0  0  0  0  0  0  0
    8.3789  -15.9643   23.5478 C   0  0  0  0  0  0  0  0  0  0  0  0
    8.6359  -14.7896   23.9019 O   0  0  0  0  0  0  0  0  0  0  0  0
    8.4189  -16.9947   24.5023 N   0  0  0  0  0  0  0  0  0  0  0  0
    8.8614  -16.6569   25.8706 C   0  0  1  0  0  0  0  0  0  0  0  0
    7.6548  -16.1343   26.5619 C   0  0  0  0  0  0  0  0  0  0  0  0
    7.4727  -14.6828   26.5847 C   0  0  0  0  0  0  0  0  0  0  0  0
    8.5087  -13.8434   26.9378 C   0  0  0  0  0  0  0  0  0  0  0  0
    8.3797  -12.4752   26.9480 C   0  0  0  0  0  0  0  0  0  0  0  0
    7.1813  -11.9084   26.5960 C   0  0  0  0  0  0  0  0  0  0  0  0
    6.1132  -12.7126   26.2342 C   0  0  0  0  0  0  0  0  0  0  0  0
    6.2835  -14.0960   26.2363 C   0  0  0  0  0  0  0  0  0  0  0  0
    9.5288  -17.8254   26.3964 C   0  0  0  0  0  0  0  0  0  0  0  0
    8.8040  -18.8216   26.7546 O   0  0  0  0  0  0  0  0  0  0  0  0
   13.1658  -19.3671   25.2182 C   0  0  0  0  0  0  0  0  0  0  0  0
   12.9277  -19.4523   26.7086 C   0  0  2  0  0  0  0  0  0  0  0  0
   13.3853  -20.8154   27.1808 C   0  0  0  0  0  0  0  0  0  0  0  0
   11.4548  -19.3099   27.0447 C   0  0  2  0  0  0  0  0  0  0  0  0
   10.9192  -18.0504   26.5805 N   0  0  0  0  0  0  0  0  0  0  0  0
   11.3464  -19.3628   28.5165 C   0  0  0  0  0  0  0  0  0  0  0  0
   10.9658  -18.2874   29.3089 O   0  0  0  0  0  0  0  0  0  0  0  0
   11.6043  -20.4298   29.1586 O   0  0  0  0  0  0  0  0  0  0  0  0
  2  3  1  0
  2  1  1  1
  4  3  1  0
  5  4  2  0
  6  5  1  0
  7 12  2  0
  7  6  1  0
  8  7  1  0
  9  8  2  0
  9 10  1  0
 10 11  2  0
 11 12  1  0
 12  4  1  0
 13  2  1  0
 13 14  2  0
 15 13  1  0
 16 15  1  0
 16 17  1  1
 18 19  2  0
 18 17  1  0
 20 19  1  0
 21 20  2  0
 22 21  1  0
 22 23  2  0
 23 18  1  0
 24 16  1  0
 25 24  2  0
 27 28  1  6
 27 26  1  0
 29 27  1  0
 29 30  1  1
 30 24  1  0
 31 32  1  0
 31 29  1  0
 33 31  2  0
M  END
$$$$
