WFV.pdb
     RDKit          3D

 33 35  0  0  1  0  0  0  0  0999 V2000
    6.3106  -19.4247   21.2420 N   0  0  0  0  0  0  0  0  0  0  0  0
    6.2759  -19.3023   22.6859 C   0  0  1  0  0  0  0  0  0  0  0  0
    6.9913  -20.4504   23.3616 C   0  0  0  0  0  0  0  0  0  0  0  0
    6.3571  -20.8932   24.6144 C   0  0  0  0  0  0  0  0  0  0  0  0
    5.1859  -21.6077   24.7546 C   0  0  0  0  0  0  0  0  0  0  0  0
    5.0000  -21.7822   26.0719 N   0  0  0  0  0  0  0  0  0  0  0  0
    5.9973  -21.2123   26.7682 C   0  0  0  0  0  0  0  0  0  0  0  0
    6.2378  -21.1324   28.1377 C   0  0  0  0  0  0  0  0  0  0  0  0
    7.3675  -20.4707   28.5692 C   0  0  0  0  0  0  0  0  0  0  0  0
    8.2378  -19.9020   27.6642 C   0  0  0  0  0  0  0  0  0  0  0  0
    8.0166  -19.9710   26.3090 C   0  0  0  0  0  0  0  0  0  0  0  0
    6.8857  -20.6331   25.8722 C   0  0  0  0  0  0  0  0  0  0  0  0
    6.9914  -18.0649   23.1041 C   0  0  0  0  0  0  0  0  0  0  0  0
    7.9878  -17.6646   22.4575 O   0  0  0  0  0  0  0  0  0  0  0  0
    6.5595  -17.3346   24.2241 N   0  0  0  0  0  0  0  0  0  0  0  0
    7.2577  -16.0720   24.5411 C   0  0  1  0  0  0  0  0  0  0  0  0
    6.2781  -15.2555   25.3031 C   0  0  0  0  0  0  0  0  0  0  0  0
    6.7581  -13.9988   25.8780 C   0  0  0  0  0  0  0  0  0  0  0  0
    5.9046  -13.1618   26.5663 C   0  0  0  0  0  0  0  0  0  0  0  0
    6.3263  -11.9856   27.1386 C   0  0  0  0  0  0  0  0  0  0  0  0
    7.6428  -11.6168   27.0296 C   0  0  0  0  0  0  0  0  0  0  0  0
    8.5358  -12.4264   26.3472 C   0  0  0  0  0  0  0  0  0  0  0  0
    8.0698  -13.6116   25.7806 C   0  0  0  0  0  0  0  0  0  0  0  0
    8.5137  -16.4306   25.1587 C   0  0  0  0  0  0  0  0  0  0  0  0
    8.4765  -17.1061   26.2488 O   0  0  0  0  0  0  0  0  0  0  0  0
   12.5443  -15.4909   23.7954 C   0  0  0  0  0  0  0  0  0  0  0  0
   12.1401  -16.8601   24.2927 C   0  0  2  0  0  0  0  0  0  0  0  0
   11.6587  -17.6679   23.1070 C   0  0  0  0  0  0  0  0  0  0  0  0
   11.0031  -16.7739   25.2939 C   0  0  2  0  0  0  0  0  0  0  0  0
    9.8349  -16.1420   24.7241 N   0  0  0  0  0  0  0  0  0  0  0  0
   11.4892  -15.9536   26.4214 C   0  0  0  0  0  0  0  0  0  0  0  0
   10.9891  -14.6986   26.7444 O   0  0  0  0  0  0  0  0  0  0  0  0
   12.4221  -16.3647   27.1817 O   0  0  0  0  0  0  0  0  0  0  0  0
  2  3  1  0
  2  1  1  6
  4  3  1  0
  5  4  2  0
  6  5  1  0
  7 12  2  0
  7  6  1  0
  8  7  1  0
  9  8  2  0
  9 10  1  0
 10 11  2  0
 11 12  1  0
 12  4  1  0
 13  2  1  0
 13 14  2  0
 15 13  1  0
 16 15  1  0
 16 17  1  1
 18 19  2  0
 18 17  1  0
 20 19  1  0
 21 20  2  0
 22 21  1  0
 22 23  2  0
 23 18  1  0
 24 16  1  0
 25 24  2  0
 27 28  1  6
 27 26  1  0
 29 27  1  0
 29 30  1  6
 30 24  1  0
 31 32  1  0
 31 29  1  0
 33 31  2  0
M  END
$$$$
