LKN.pdb
     RDKit          3D

 26 25  0  0  1  0  0  0  0  0999 V2000
   20.5911  -15.7550  -17.8684 C   0  0  0  0  0  0  0  0  0  0  0  0
   20.0138  -14.7604  -16.8863 C   0  0  1  0  0  0  0  0  0  0  0  0
   20.5886  -15.0865  -15.5201 C   0  0  0  0  0  0  0  0  0  0  0  0
   20.4199  -13.3313  -17.2711 C   0  0  0  0  0  0  0  0  0  0  0  0
   19.7019  -12.4197  -16.3108 C   0  0  2  0  0  0  0  0  0  0  0  0
   18.3099  -12.7012  -16.1884 N   0  0  0  0  0  0  0  0  0  0  0  0
   19.9126  -10.9924  -16.6056 C   0  0  0  0  0  0  0  0  0  0  0  0
   21.0823  -10.5905  -16.8157 O   0  0  0  0  0  0  0  0  0  0  0  0
   18.8664  -10.0338  -16.6677 N   0  0  0  0  0  0  0  0  0  0  0  0
   19.0233   -8.6741  -17.0815 C   0  0  1  0  0  0  0  0  0  0  0  0
   17.6956   -8.0851  -17.5849 C   0  0  0  0  0  0  0  0  0  0  0  0
   17.3920   -8.6158  -18.9775 C   0  0  0  0  0  0  0  0  0  0  0  0
   16.2644   -9.6033  -18.9483 C   0  0  0  0  0  0  0  0  0  0  0  0
   15.8756  -10.0629  -20.3379 C   0  0  0  0  0  0  0  0  0  0  0  0
   14.6978  -10.9289  -20.2625 N   0  0  0  0  0  0  0  0  0  0  0  0
   19.4588   -7.7855  -15.9760 C   0  0  0  0  0  0  0  0  0  0  0  0
   19.5043   -8.2128  -14.8002 O   0  0  0  0  0  0  0  0  0  0  0  0
   21.4537   -3.9527  -13.3607 N   0  0  0  0  0  0  0  0  0  0  0  0
   22.0324   -5.2604  -13.4585 C   0  0  0  0  0  0  0  0  0  0  0  0
   22.9748   -5.5732  -12.7106 O   0  0  0  0  0  0  0  0  0  0  0  0
   21.4790   -6.1849  -14.4511 C   0  0  0  0  0  0  0  0  0  0  0  0
   20.3527   -5.5589  -15.1911 C   0  0  2  0  0  0  0  0  0  0  0  0
   19.8355   -6.4314  -16.2117 N   0  0  0  0  0  0  0  0  0  0  0  0
   20.7595   -4.2651  -15.8158 C   0  0  0  0  0  0  0  0  0  0  0  0
   21.0921   -3.3001  -15.0939 O   0  0  0  0  0  0  0  0  0  0  0  0
   20.7686   -4.1340  -17.1867 O   0  0  0  0  0  0  0  0  0  0  0  0
  2  1  1  6
  3  2  1  0
  4  2  1  0
  5  7  1  0
  5  4  1  0
  5  6  1  6
  7  8  2  0
  9 10  1  0
  9  7  1  0
 10 11  1  1
 12 13  1  0
 12 11  1  0
 13 14  1  0
 14 15  1  0
 16 10  1  0
 17 16  2  0
 19 18  1  0
 19 20  2  0
 21 19  1  0
 22 21  1  6
 22 23  1  0
 23 16  1  0
 24 22  1  0
 24 26  1  0
 25 24  2  0
M  END
$$$$
