LKN.pdb
     RDKit          3D

 26 25  0  0  1  0  0  0  0  0999 V2000
   26.5382  -15.3216  -17.3263 C   0  0  0  0  0  0  0  0  0  0  0  0
   25.5949  -14.7537  -16.2895 C   0  0  1  0  0  0  0  0  0  0  0  0
   26.3872  -14.5696  -15.0083 C   0  0  0  0  0  0  0  0  0  0  0  0
   25.0575  -13.3903  -16.7450 C   0  0  0  0  0  0  0  0  0  0  0  0
   23.9620  -13.0280  -15.7768 C   0  0  2  0  0  0  0  0  0  0  0  0
   23.0956  -14.1151  -15.4617 N   0  0  0  0  0  0  0  0  0  0  0  0
   23.1798  -11.8562  -16.2051 C   0  0  0  0  0  0  0  0  0  0  0  0
   23.7925  -10.8618  -16.6629 O   0  0  0  0  0  0  0  0  0  0  0  0
   21.7634  -11.7800  -16.1322 N   0  0  0  0  0  0  0  0  0  0  0  0
   20.9803  -10.6561  -16.5424 C   0  0  1  0  0  0  0  0  0  0  0  0
   19.4970  -11.0315  -16.6917 C   0  0  0  0  0  0  0  0  0  0  0  0
   19.2987  -11.8537  -17.9558 C   0  0  0  0  0  0  0  0  0  0  0  0
   18.1846  -12.8430  -17.7907 C   0  0  0  0  0  0  0  0  0  0  0  0
   17.8754  -13.5711  -19.0822 C   0  0  0  0  0  0  0  0  0  0  0  0
   16.9024  -14.6355  -18.8308 N   0  0  0  0  0  0  0  0  0  0  0  0
   21.0124   -9.5458  -15.5587 C   0  0  0  0  0  0  0  0  0  0  0  0
   20.9157   -9.7823  -14.3331 O   0  0  0  0  0  0  0  0  0  0  0  0
   21.1551   -4.8363  -13.5903 N   0  0  0  0  0  0  0  0  0  0  0  0
   22.4087   -5.1809  -14.1941 C   0  0  0  0  0  0  0  0  0  0  0  0
   23.4164   -4.4940  -13.9536 O   0  0  0  0  0  0  0  0  0  0  0  0
   22.4472   -6.3457  -15.0818 C   0  0  0  0  0  0  0  0  0  0  0  0
   21.1531   -7.0755  -15.0582 C   0  0  2  0  0  0  0  0  0  0  0  0
   21.1525   -8.1885  -15.9701 N   0  0  0  0  0  0  0  0  0  0  0  0
   20.0096   -6.1738  -15.3884 C   0  0  0  0  0  0  0  0  0  0  0  0
   19.8001   -5.1523  -14.6988 O   0  0  0  0  0  0  0  0  0  0  0  0
   19.1855   -6.4667  -16.4522 O   0  0  0  0  0  0  0  0  0  0  0  0
  2  1  1  6
  3  2  1  0
  4  2  1  0
  5  7  1  0
  5  4  1  0
  5  6  1  6
  7  8  2  0
  9 10  1  0
  9  7  1  0
 10 11  1  1
 12 13  1  0
 12 11  1  0
 13 14  1  0
 14 15  1  0
 16 10  1  0
 17 16  2  0
 19 18  1  0
 19 20  2  0
 21 19  1  0
 22 21  1  6
 22 23  1  0
 23 16  1  0
 24 22  1  0
 24 26  1  0
 25 24  2  0
M  END
$$$$
