LKN.pdb
     RDKit          3D

 26 25  0  0  1  0  0  0  0  0999 V2000
   27.8041  -18.4812   -6.0557 C   0  0  0  0  0  0  0  0  0  0  0  0
   27.7146  -19.6514   -7.0095 C   0  0  1  0  0  0  0  0  0  0  0  0
   27.6003  -20.9115   -6.1715 C   0  0  0  0  0  0  0  0  0  0  0  0
   26.4677  -19.5254   -7.8952 C   0  0  0  0  0  0  0  0  0  0  0  0
   26.6289  -20.5456   -8.9916 C   0  0  2  0  0  0  0  0  0  0  0  0
   27.9847  -20.9101   -9.2378 N   0  0  0  0  0  0  0  0  0  0  0  0
   25.9679  -20.1506  -10.2468 C   0  0  0  0  0  0  0  0  0  0  0  0
   26.0142  -18.9462  -10.5949 O   0  0  0  0  0  0  0  0  0  0  0  0
   25.2755  -21.0547  -11.0957 N   0  0  0  0  0  0  0  0  0  0  0  0
   24.7022  -20.7160  -12.3610 C   0  0  1  0  0  0  0  0  0  0  0  0
   25.3549  -21.5121  -13.5027 C   0  0  0  0  0  0  0  0  0  0  0  0
   26.7676  -21.0028  -13.7435 C   0  0  0  0  0  0  0  0  0  0  0  0
   27.4259  -21.7402  -14.8706 C   0  0  0  0  0  0  0  0  0  0  0  0
   28.8075  -21.1990  -15.1733 C   0  0  0  0  0  0  0  0  0  0  0  0
   29.4588  -22.0374  -16.1811 N   0  0  0  0  0  0  0  0  0  0  0  0
   23.2537  -21.0286  -12.4358 C   0  0  0  0  0  0  0  0  0  0  0  0
   22.7173  -21.7570  -11.5704 O   0  0  0  0  0  0  0  0  0  0  0  0
   19.0979  -18.9751  -10.3670 N   0  0  0  0  0  0  0  0  0  0  0  0
   19.5173  -19.7523  -11.4961 C   0  0  0  0  0  0  0  0  0  0  0  0
   18.8346  -20.7249  -11.8608 O   0  0  0  0  0  0  0  0  0  0  0  0
   20.7514  -19.3596  -12.1809 C   0  0  0  0  0  0  0  0  0  0  0  0
   21.0263  -20.2532  -13.3359 C   0  0  2  0  0  0  0  0  0  0  0  0
   22.4332  -20.5167  -13.4826 N   0  0  0  0  0  0  0  0  0  0  0  0
   20.5023  -19.6780  -14.6104 C   0  0  0  0  0  0  0  0  0  0  0  0
   21.1127  -18.7419  -15.1709 O   0  0  0  0  0  0  0  0  0  0  0  0
   19.3470  -20.1780  -15.1688 O   0  0  0  0  0  0  0  0  0  0  0  0
  2  1  1  1
  3  2  1  0
  4  2  1  0
  5  7  1  0
  5  4  1  0
  5  6  1  6
  7  8  2  0
  9 10  1  0
  9  7  1  0
 10 11  1  6
 12 13  1  0
 12 11  1  0
 13 14  1  0
 14 15  1  0
 16 10  1  0
 17 16  2  0
 19 18  1  0
 19 20  2  0
 21 19  1  0
 22 21  1  1
 22 23  1  0
 23 16  1  0
 24 22  1  0
 24 26  1  0
 25 24  2  0
M  END
$$$$
