LKN.pdb
     RDKit          3D

 26 25  0  0  1  0  0  0  0  0999 V2000
   19.1864  -15.5894  -20.5221 C   0  0  0  0  0  0  0  0  0  0  0  0
   19.5487  -15.1506  -19.1209 C   0  0  1  0  0  0  0  0  0  0  0  0
   20.8954  -15.7658  -18.7873 C   0  0  0  0  0  0  0  0  0  0  0  0
   19.6670  -13.6220  -19.0529 C   0  0  0  0  0  0  0  0  0  0  0  0
   19.5884  -13.2611  -17.5927 C   0  0  2  0  0  0  0  0  0  0  0  0
   18.9732  -14.2646  -16.7886 N   0  0  0  0  0  0  0  0  0  0  0  0
   18.9532  -11.9538  -17.3564 C   0  0  0  0  0  0  0  0  0  0  0  0
   19.3412  -10.9689  -18.0297 O   0  0  0  0  0  0  0  0  0  0  0  0
   17.9201  -11.7355  -16.4064 N   0  0  0  0  0  0  0  0  0  0  0  0
   17.2037  -10.5092  -16.2411 C   0  0  1  0  0  0  0  0  0  0  0  0
   15.8650  -10.7354  -15.5200 C   0  0  0  0  0  0  0  0  0  0  0  0
   14.9996   -9.4903  -15.6381 C   0  0  0  0  0  0  0  0  0  0  0  0
   13.6923   -9.6681  -14.9262 C   0  0  0  0  0  0  0  0  0  0  0  0
   12.7560   -8.5005  -15.1577 C   0  0  0  0  0  0  0  0  0  0  0  0
   11.4079   -8.8486  -14.7057 N   0  0  0  0  0  0  0  0  0  0  0  0
   17.9398   -9.5228  -15.4125 C   0  0  0  0  0  0  0  0  0  0  0  0
   18.3511   -9.8348  -14.2720 O   0  0  0  0  0  0  0  0  0  0  0  0
   22.5303   -7.0631  -13.8936 N   0  0  0  0  0  0  0  0  0  0  0  0
   21.1458   -6.7752  -14.1278 C   0  0  0  0  0  0  0  0  0  0  0  0
   20.6612   -5.7080  -13.7139 O   0  0  0  0  0  0  0  0  0  0  0  0
   20.3508   -7.7672  -14.8560 C   0  0  0  0  0  0  0  0  0  0  0  0
   18.9937   -7.2429  -15.1587 C   0  0  2  0  0  0  0  0  0  0  0  0
   18.2008   -8.2022  -15.8807 N   0  0  0  0  0  0  0  0  0  0  0  0
   19.0591   -5.9745  -15.9438 C   0  0  0  0  0  0  0  0  0  0  0  0
   18.5281   -5.9110  -17.0738 O   0  0  0  0  0  0  0  0  0  0  0  0
   19.7040   -4.8743  -15.4239 O   0  0  0  0  0  0  0  0  0  0  0  0
  2  1  1  6
  3  2  1  0
  4  2  1  0
  5  7  1  0
  5  4  1  0
  5  6  1  1
  7  8  2  0
  9 10  1  0
  9  7  1  0
 10 11  1  1
 12 13  1  0
 12 11  1  0
 13 14  1  0
 14 15  1  0
 16 10  1  0
 17 16  2  0
 19 18  1  0
 19 20  2  0
 21 19  1  0
 22 21  1  6
 22 23  1  0
 23 16  1  0
 24 22  1  0
 24 26  1  0
 25 24  2  0
M  END
$$$$
