LKN.pdb
     RDKit          3D

 26 25  0  0  1  0  0  0  0  0999 V2000
   27.2547  -16.3863  -18.3901 C   0  0  0  0  0  0  0  0  0  0  0  0
   27.8264  -17.5764  -17.6526 C   0  0  1  0  0  0  0  0  0  0  0  0
   29.2626  -17.2408  -17.2948 C   0  0  0  0  0  0  0  0  0  0  0  0
   27.0374  -17.8354  -16.3620 C   0  0  0  0  0  0  0  0  0  0  0  0
   27.5695  -19.1270  -15.7987 C   0  0  2  0  0  0  0  0  0  0  0  0
   28.2405  -19.9364  -16.7612 N   0  0  0  0  0  0  0  0  0  0  0  0
   26.5434  -19.9132  -15.0933 C   0  0  0  0  0  0  0  0  0  0  0  0
   25.7828  -20.6479  -15.7682 O   0  0  0  0  0  0  0  0  0  0  0  0
   26.3590  -19.8922  -13.6852 N   0  0  0  0  0  0  0  0  0  0  0  0
   25.2658  -20.4997  -12.9921 C   0  0  1  0  0  0  0  0  0  0  0  0
   25.3706  -20.2755  -11.4748 C   0  0  0  0  0  0  0  0  0  0  0  0
   24.1910  -20.9322  -10.7745 C   0  0  0  0  0  0  0  0  0  0  0  0
   24.2259  -20.6776   -9.2976 C   0  0  0  0  0  0  0  0  0  0  0  0
   23.0532  -21.3161   -8.5832 C   0  0  0  0  0  0  0  0  0  0  0  0
   23.0374  -20.8950   -7.1813 N   0  0  0  0  0  0  0  0  0  0  0  0
   23.9519  -19.9353  -13.3876 C   0  0  0  0  0  0  0  0  0  0  0  0
   23.8557  -18.7357  -13.7325 O   0  0  0  0  0  0  0  0  0  0  0  0
   20.1894  -18.3849  -16.6213 N   0  0  0  0  0  0  0  0  0  0  0  0
   20.2907  -19.6340  -15.9253 C   0  0  0  0  0  0  0  0  0  0  0  0
   19.2835  -20.3518  -15.8007 O   0  0  0  0  0  0  0  0  0  0  0  0
   21.5972  -20.0151  -15.3831 C   0  0  0  0  0  0  0  0  0  0  0  0
   21.5099  -20.2836  -13.9242 C   0  0  2  0  0  0  0  0  0  0  0  0
   22.7686  -20.7296  -13.3884 N   0  0  0  0  0  0  0  0  0  0  0  0
   20.4609  -21.3007  -13.6163 C   0  0  0  0  0  0  0  0  0  0  0  0
   20.7886  -22.4826  -13.3737 O   0  0  0  0  0  0  0  0  0  0  0  0
   19.1325  -20.9378  -13.5993 O   0  0  0  0  0  0  0  0  0  0  0  0
  2  1  1  1
  3  2  1  0
  4  2  1  0
  5  7  1  0
  5  4  1  0
  5  6  1  6
  7  8  2  0
  9 10  1  0
  9  7  1  0
 10 11  1  1
 12 13  1  0
 12 11  1  0
 13 14  1  0
 14 15  1  0
 16 10  1  0
 17 16  2  0
 19 18  1  0
 19 20  2  0
 21 19  1  0
 22 21  1  6
 22 23  1  0
 23 16  1  0
 24 22  1  0
 24 26  1  0
 25 24  2  0
M  END
$$$$
