LKN.pdb
     RDKit          3D

 26 25  0  0  1  0  0  0  0  0999 V2000
   30.7083  -20.2829  -10.7526 C   0  0  0  0  0  0  0  0  0  0  0  0
   29.5774  -21.1085  -11.3238 C   0  0  1  0  0  0  0  0  0  0  0  0
   29.3912  -22.3111  -10.4170 C   0  0  0  0  0  0  0  0  0  0  0  0
   28.2775  -20.2930  -11.3453 C   0  0  0  0  0  0  0  0  0  0  0  0
   27.2561  -21.1525  -12.0429 C   0  0  2  0  0  0  0  0  0  0  0  0
   27.7710  -21.8442  -13.1779 N   0  0  0  0  0  0  0  0  0  0  0  0
   26.0331  -20.4155  -12.4027 C   0  0  0  0  0  0  0  0  0  0  0  0
   25.5053  -19.6732  -11.5399 O   0  0  0  0  0  0  0  0  0  0  0  0
   25.4078  -20.4925  -13.6757 N   0  0  0  0  0  0  0  0  0  0  0  0
   24.2245  -19.7836  -14.0524 C   0  0  1  0  0  0  0  0  0  0  0  0
   24.2682  -19.3670  -15.5315 C   0  0  0  0  0  0  0  0  0  0  0  0
   25.3533  -18.3219  -15.7403 C   0  0  0  0  0  0  0  0  0  0  0  0
   25.4501  -17.9200  -17.1813 C   0  0  0  0  0  0  0  0  0  0  0  0
   26.4683  -16.8199  -17.3971 C   0  0  0  0  0  0  0  0  0  0  0  0
   26.5063  -16.4500  -18.8129 N   0  0  0  0  0  0  0  0  0  0  0  0
   22.9955  -20.6017  -13.9059 C   0  0  0  0  0  0  0  0  0  0  0  0
   23.0398  -21.8439  -14.0551 O   0  0  0  0  0  0  0  0  0  0  0  0
   18.2248  -22.0514  -12.9739 N   0  0  0  0  0  0  0  0  0  0  0  0
   18.4490  -20.9150  -12.1296 C   0  0  0  0  0  0  0  0  0  0  0  0
   17.6021  -20.6090  -11.2727 O   0  0  0  0  0  0  0  0  0  0  0  0
   19.6858  -20.1525  -12.3169 C   0  0  0  0  0  0  0  0  0  0  0  0
   20.5334  -20.7647  -13.3728 C   0  0  2  0  0  0  0  0  0  0  0  0
   21.7375  -20.0088  -13.5942 N   0  0  0  0  0  0  0  0  0  0  0  0
   19.7935  -20.8926  -14.6634 C   0  0  0  0  0  0  0  0  0  0  0  0
   20.0881  -20.1544  -15.6284 O   0  0  0  0  0  0  0  0  0  0  0  0
   18.7864  -21.8233  -14.7916 O   0  0  0  0  0  0  0  0  0  0  0  0
  2  1  1  1
  3  2  1  0
  4  2  1  0
  5  7  1  0
  5  4  1  0
  5  6  1  6
  7  8  2  0
  9 10  1  0
  9  7  1  0
 10 11  1  6
 12 13  1  0
 12 11  1  0
 13 14  1  0
 14 15  1  0
 16 10  1  0
 17 16  2  0
 19 18  1  0
 19 20  2  0
 21 19  1  0
 22 21  1  1
 22 23  1  0
 23 16  1  0
 24 22  1  0
 24 26  1  0
 25 24  2  0
M  END
$$$$
