YGK.pdb
     RDKit          3D

 26 26  0  0  1  0  0  0  0  0999 V2000
    7.6118  -11.9687   18.0779 O   0  0  0  0  0  0  0  0  0  0  0  0
    7.7954  -12.8950   19.1160 C   0  0  0  0  0  0  0  0  0  0  0  0
    9.0453  -12.9454   19.6897 C   0  0  0  0  0  0  0  0  0  0  0  0
    9.2356  -13.8524   20.7107 C   0  0  0  0  0  0  0  0  0  0  0  0
    8.2149  -14.6786   21.1426 C   0  0  0  0  0  0  0  0  0  0  0  0
    8.5042  -15.6348   22.2259 C   0  0  0  0  0  0  0  0  0  0  0  0
    9.5360  -16.6232   21.7683 C   0  0  2  0  0  0  0  0  0  0  0  0
    8.9121  -17.4436   20.7312 N   0  0  0  0  0  0  0  0  0  0  0  0
   10.0063  -17.4322   22.8904 C   0  0  0  0  0  0  0  0  0  0  0  0
    9.4835  -18.5226   23.2160 O   0  0  0  0  0  0  0  0  0  0  0  0
    6.9901  -14.5930   20.5426 C   0  0  0  0  0  0  0  0  0  0  0  0
    6.7574  -13.6853   19.5033 C   0  0  0  0  0  0  0  0  0  0  0  0
   11.1189  -16.9751   23.6708 N   0  0  0  0  0  0  0  0  0  0  0  0
   11.0349  -15.8617   24.5445 C   0  0  0  0  0  0  0  0  0  0  0  0
   11.0891  -16.1693   25.9945 C   0  0  0  0  0  0  0  0  0  0  0  0
   12.1861  -16.6278   26.4928 O   0  0  0  0  0  0  0  0  0  0  0  0
   10.0429  -16.0104   26.9114 N   0  0  0  0  0  0  0  0  0  0  0  0
   10.2149  -15.3054   28.1802 C   0  0  1  0  0  0  0  0  0  0  0  0
    9.0702  -14.3754   28.4310 C   0  0  0  0  0  0  0  0  0  0  0  0
    8.6348  -13.6964   27.1676 C   0  0  0  0  0  0  0  0  0  0  0  0
    7.4039  -12.8239   27.4005 C   0  0  0  0  0  0  0  0  0  0  0  0
    6.9134  -12.1759   26.1443 C   0  0  0  0  0  0  0  0  0  0  0  0
    5.8066  -11.2961   26.3391 N   0  0  0  0  0  0  0  0  0  0  0  0
   10.4742  -16.2110   29.2806 C   0  0  0  0  0  0  0  0  0  0  0  0
   10.9816  -15.8644   30.4933 O   0  0  0  0  0  0  0  0  0  0  0  0
   10.2072  -17.4571   29.0998 O   0  0  0  0  0  0  0  0  0  0  0  0
  1  2  1  0
  2 12  2  0
  2  3  1  0
  3  4  2  0
  4  5  1  0
  5  6  1  0
  6  7  1  0
  7  8  1  6
  7  9  1  0
  9 10  2  0
 11  5  2  0
 12 11  1  0
 13  9  1  0
 13 14  1  0
 15 14  1  0
 15 17  1  0
 16 15  2  0
 18 17  1  0
 18 24  1  0
 18 19  1  1
 20 19  1  0
 21 20  1  0
 21 22  1  0
 23 22  1  0
 24 26  2  0
 24 25  1  0
M  END
$$$$
