YGK.pdb
     RDKit          3D

 26 26  0  0  1  0  0  0  0  0999 V2000
   10.1371  -14.2143   30.7738 O   0  0  0  0  0  0  0  0  0  0  0  0
    9.9864  -14.4334   29.3959 C   0  0  0  0  0  0  0  0  0  0  0  0
   10.5863  -15.5578   28.8764 C   0  0  0  0  0  0  0  0  0  0  0  0
   10.4438  -15.7819   27.5233 C   0  0  0  0  0  0  0  0  0  0  0  0
    9.7285  -14.9146   26.7189 C   0  0  0  0  0  0  0  0  0  0  0  0
    9.6394  -15.2140   25.2787 C   0  0  0  0  0  0  0  0  0  0  0  0
    8.2380  -15.6215   24.9308 C   0  0  2  0  0  0  0  0  0  0  0  0
    7.8956  -16.7532   25.7908 N   0  0  0  0  0  0  0  0  0  0  0  0
    8.1396  -15.9668   23.5145 C   0  0  0  0  0  0  0  0  0  0  0  0
    7.8771  -17.1216   23.1071 O   0  0  0  0  0  0  0  0  0  0  0  0
    9.1502  -13.8105   27.2793 C   0  0  0  0  0  0  0  0  0  0  0  0
    9.2720  -13.5485   28.6486 C   0  0  0  0  0  0  0  0  0  0  0  0
    8.3501  -14.9504   22.5254 N   0  0  0  0  0  0  0  0  0  0  0  0
    8.2799  -15.2108   21.1335 C   0  0  0  0  0  0  0  0  0  0  0  0
    9.2920  -16.1535   20.5979 C   0  0  0  0  0  0  0  0  0  0  0  0
   10.2694  -16.5145   21.3570 O   0  0  0  0  0  0  0  0  0  0  0  0
    9.3012  -16.7126   19.3142 N   0  0  0  0  0  0  0  0  0  0  0  0
   10.2462  -17.7565   18.9222 C   0  0  1  0  0  0  0  0  0  0  0  0
    9.8009  -18.4312   17.6635 C   0  0  0  0  0  0  0  0  0  0  0  0
    8.3377  -18.2155   17.4195 C   0  0  0  0  0  0  0  0  0  0  0  0
    7.8844  -18.8867   16.1254 C   0  0  0  0  0  0  0  0  0  0  0  0
    6.4108  -18.7613   15.8993 C   0  0  0  0  0  0  0  0  0  0  0  0
    5.9429  -19.4388   14.7335 N   0  0  0  0  0  0  0  0  0  0  0  0
   11.6093  -17.2695   18.8646 C   0  0  0  0  0  0  0  0  0  0  0  0
   11.9940  -15.9690   18.9610 O   0  0  0  0  0  0  0  0  0  0  0  0
   12.5443  -18.1391   18.7031 O   0  0  0  0  0  0  0  0  0  0  0  0
  1  2  1  0
  2 12  2  0
  2  3  1  0
  3  4  2  0
  4  5  1  0
  5  6  1  0
  6  7  1  0
  7  8  1  1
  7  9  1  0
  9 10  2  0
 11  5  2  0
 12 11  1  0
 13  9  1  0
 13 14  1  0
 15 14  1  0
 15 17  1  0
 16 15  2  0
 18 17  1  0
 18 24  1  0
 18 19  1  6
 20 19  1  0
 21 20  1  0
 21 22  1  0
 23 22  1  0
 24 26  2  0
 24 25  1  0
M  END
$$$$
