YGK.pdb
     RDKit          3D

 26 26  0  0  1  0  0  0  0  0999 V2000
    5.4944  -10.4096   27.4298 O   0  0  0  0  0  0  0  0  0  0  0  0
    6.2686  -11.5586   27.2070 C   0  0  0  0  0  0  0  0  0  0  0  0
    7.4056  -11.4039   26.4470 C   0  0  0  0  0  0  0  0  0  0  0  0
    8.1731  -12.5272   26.2226 C   0  0  0  0  0  0  0  0  0  0  0  0
    7.8178  -13.7597   26.7383 C   0  0  0  0  0  0  0  0  0  0  0  0
    8.6806  -14.9156   26.4366 C   0  0  0  0  0  0  0  0  0  0  0  0
    8.4290  -15.3842   25.0337 C   0  0  2  0  0  0  0  0  0  0  0  0
    7.1074  -16.0094   25.0220 N   0  0  0  0  0  0  0  0  0  0  0  0
    9.4728  -16.3135   24.6071 C   0  0  0  0  0  0  0  0  0  0  0  0
   10.6928  -16.0317   24.6303 O   0  0  0  0  0  0  0  0  0  0  0  0
    6.6797  -13.8650   27.4872 C   0  0  0  0  0  0  0  0  0  0  0  0
    5.8743  -12.7482   27.7374 C   0  0  0  0  0  0  0  0  0  0  0  0
    9.1057  -17.6167   24.1354 N   0  0  0  0  0  0  0  0  0  0  0  0
   10.0276  -18.4903   23.5052 C   0  0  0  0  0  0  0  0  0  0  0  0
   10.5616  -18.0365   22.1979 C   0  0  0  0  0  0  0  0  0  0  0  0
   11.1859  -18.8833   21.4529 O   0  0  0  0  0  0  0  0  0  0  0  0
   10.4577  -16.7447   21.6677 N   0  0  0  0  0  0  0  0  0  0  0  0
   10.5254  -16.4807   20.2317 C   0  0  1  0  0  0  0  0  0  0  0  0
    9.5438  -15.4222   19.8390 C   0  0  0  0  0  0  0  0  0  0  0  0
    9.6172  -15.1308   18.3705 C   0  0  0  0  0  0  0  0  0  0  0  0
    8.5837  -14.0855   17.9582 C   0  0  0  0  0  0  0  0  0  0  0  0
    8.5931  -13.8182   16.4862 C   0  0  0  0  0  0  0  0  0  0  0  0
    7.7253  -12.7592   16.0831 N   0  0  0  0  0  0  0  0  0  0  0  0
   11.8767  -16.2080   19.7867 C   0  0  0  0  0  0  0  0  0  0  0  0
   12.8959  -15.7604   20.5672 O   0  0  0  0  0  0  0  0  0  0  0  0
   12.1421  -16.3999   18.5420 O   0  0  0  0  0  0  0  0  0  0  0  0
  1  2  1  0
  2 12  2  0
  2  3  1  0
  3  4  2  0
  4  5  1  0
  5  6  1  0
  6  7  1  0
  7  8  1  1
  7  9  1  0
  9 10  2  0
 11  5  2  0
 12 11  1  0
 13  9  1  0
 13 14  1  0
 15 14  1  0
 15 17  1  0
 16 15  2  0
 18 17  1  0
 18 24  1  0
 18 19  1  1
 20 19  1  0
 21 20  1  0
 21 22  1  0
 23 22  1  0
 24 26  2  0
 24 25  1  0
M  END
$$$$
