YGK.pdb
     RDKit          3D

 26 26  0  0  1  0  0  0  0  0999 V2000
   10.9233  -14.8068   30.8508 O   0  0  0  0  0  0  0  0  0  0  0  0
   10.3724  -14.7610   29.5610 C   0  0  0  0  0  0  0  0  0  0  0  0
    9.6933  -13.6148   29.2159 C   0  0  0  0  0  0  0  0  0  0  0  0
    9.1483  -13.5602   27.9504 C   0  0  0  0  0  0  0  0  0  0  0  0
    9.2771  -14.6119   27.0625 C   0  0  0  0  0  0  0  0  0  0  0  0
    8.6488  -14.4838   25.7357 C   0  0  0  0  0  0  0  0  0  0  0  0
    7.7436  -15.6543   25.4876 C   0  0  2  0  0  0  0  0  0  0  0  0
    8.4801  -16.8552   25.8789 N   0  0  0  0  0  0  0  0  0  0  0  0
    7.3357  -15.7006   24.0853 C   0  0  0  0  0  0  0  0  0  0  0  0
    6.5580  -14.8653   23.5697 O   0  0  0  0  0  0  0  0  0  0  0  0
    9.9602  -15.7303   27.4497 C   0  0  0  0  0  0  0  0  0  0  0  0
   10.5278  -15.8239   28.7254 C   0  0  0  0  0  0  0  0  0  0  0  0
    7.8376  -16.7442   23.2399 N   0  0  0  0  0  0  0  0  0  0  0  0
    7.9504  -16.6022   21.8338 C   0  0  0  0  0  0  0  0  0  0  0  0
    8.6227  -17.7159   21.1211 C   0  0  0  0  0  0  0  0  0  0  0  0
    8.9071  -18.7906   21.7737 O   0  0  0  0  0  0  0  0  0  0  0  0
    8.9943  -17.7266   19.7712 N   0  0  0  0  0  0  0  0  0  0  0  0
   10.0559  -18.5908   19.2588 C   0  0  1  0  0  0  0  0  0  0  0  0
   10.1395  -18.5031   17.7677 C   0  0  0  0  0  0  0  0  0  0  0  0
    8.9563  -19.1548   17.1178 C   0  0  0  0  0  0  0  0  0  0  0  0
    8.2030  -18.1743   16.2224 C   0  0  0  0  0  0  0  0  0  0  0  0
    7.0683  -18.8196   15.4915 C   0  0  0  0  0  0  0  0  0  0  0  0
    6.3258  -17.9236   14.6652 N   0  0  0  0  0  0  0  0  0  0  0  0
   11.3222  -18.3570   19.9223 C   0  0  0  0  0  0  0  0  0  0  0  0
   12.2922  -19.2856   20.1346 O   0  0  0  0  0  0  0  0  0  0  0  0
   11.5546  -17.1678   20.3562 O   0  0  0  0  0  0  0  0  0  0  0  0
  1  2  1  0
  2 12  2  0
  2  3  1  0
  3  4  2  0
  4  5  1  0
  5  6  1  0
  6  7  1  0
  7  8  1  6
  7  9  1  0
  9 10  2  0
 11  5  2  0
 12 11  1  0
 13  9  1  0
 13 14  1  0
 15 14  1  0
 15 17  1  0
 16 15  2  0
 18 17  1  0
 18 24  1  0
 18 19  1  6
 20 19  1  0
 21 20  1  0
 21 22  1  0
 23 22  1  0
 24 26  2  0
 24 25  1  0
M  END
$$$$
