YGK.pdb
     RDKit          3D

 26 26  0  0  1  0  0  0  0  0999 V2000
    5.7506  -10.1216   26.9068 O   0  0  0  0  0  0  0  0  0  0  0  0
    6.2696  -11.3199   26.3929 C   0  0  0  0  0  0  0  0  0  0  0  0
    6.8010  -12.2068   27.3012 C   0  0  0  0  0  0  0  0  0  0  0  0
    7.3135  -13.3873   26.8059 C   0  0  0  0  0  0  0  0  0  0  0  0
    7.2958  -13.6711   25.4531 C   0  0  0  0  0  0  0  0  0  0  0  0
    7.8811  -14.9458   25.0014 C   0  0  0  0  0  0  0  0  0  0  0  0
    6.7924  -15.8680   24.5374 C   0  0  2  0  0  0  0  0  0  0  0  0
    5.8258  -15.9723   25.6294 N   0  0  0  0  0  0  0  0  0  0  0  0
    7.3432  -17.1717   24.1738 C   0  0  0  0  0  0  0  0  0  0  0  0
    8.1853  -17.3295   23.2605 O   0  0  0  0  0  0  0  0  0  0  0  0
    6.7578  -12.7597   24.5885 C   0  0  0  0  0  0  0  0  0  0  0  0
    6.2277  -11.5505   25.0523 C   0  0  0  0  0  0  0  0  0  0  0  0
    6.9130  -18.3408   24.8837 N   0  0  0  0  0  0  0  0  0  0  0  0
    7.3352  -19.6479   24.5325 C   0  0  0  0  0  0  0  0  0  0  0  0
    8.5580  -20.1395   25.2129 C   0  0  0  0  0  0  0  0  0  0  0  0
    8.5827  -21.3523   25.6489 O   0  0  0  0  0  0  0  0  0  0  0  0
    9.7277  -19.4042   25.4405 N   0  0  0  0  0  0  0  0  0  0  0  0
   10.8780  -19.9632   26.1483 C   0  0  1  0  0  0  0  0  0  0  0  0
   12.1587  -19.5180   25.5162 C   0  0  0  0  0  0  0  0  0  0  0  0
   12.1359  -19.7323   24.0328 C   0  0  0  0  0  0  0  0  0  0  0  0
   13.4343  -19.2611   23.3825 C   0  0  0  0  0  0  0  0  0  0  0  0
   13.4699  -19.5297   21.9112 C   0  0  0  0  0  0  0  0  0  0  0  0
   14.6595  -19.0750   21.2668 N   0  0  0  0  0  0  0  0  0  0  0  0
   10.8204  -19.7122   27.5738 C   0  0  0  0  0  0  0  0  0  0  0  0
    9.8884  -18.9548   28.2110 O   0  0  0  0  0  0  0  0  0  0  0  0
   11.7322  -20.2468   28.3082 O   0  0  0  0  0  0  0  0  0  0  0  0
  1  2  1  0
  2 12  2  0
  2  3  1  0
  3  4  2  0
  4  5  1  0
  5  6  1  0
  6  7  1  0
  7  8  1  1
  7  9  1  0
  9 10  2  0
 11  5  2  0
 12 11  1  0
 13  9  1  0
 13 14  1  0
 15 14  1  0
 15 17  1  0
 16 15  2  0
 18 17  1  0
 18 24  1  0
 18 19  1  6
 20 19  1  0
 21 20  1  0
 21 22  1  0
 23 22  1  0
 24 26  2  0
 24 25  1  0
M  END
$$$$
