YGK.pdb
     RDKit          3D

 26 26  0  0  1  0  0  0  0  0999 V2000
    6.2687  -12.7091   16.6301 O   0  0  0  0  0  0  0  0  0  0  0  0
    6.8222  -13.4808   17.6632 C   0  0  0  0  0  0  0  0  0  0  0  0
    6.8462  -12.9144   18.9173 C   0  0  0  0  0  0  0  0  0  0  0  0
    7.3882  -13.6650   19.9392 C   0  0  0  0  0  0  0  0  0  0  0  0
    7.8878  -14.9346   19.7164 C   0  0  0  0  0  0  0  0  0  0  0  0
    8.4686  -15.6644   20.8574 C   0  0  0  0  0  0  0  0  0  0  0  0
    8.9090  -17.0290   20.4158 C   0  0  2  0  0  0  0  0  0  0  0  0
    7.7027  -17.7711   20.0525 N   0  0  0  0  0  0  0  0  0  0  0  0
    9.6574  -17.6965   21.4784 C   0  0  0  0  0  0  0  0  0  0  0  0
    9.3351  -18.8121   21.9472 O   0  0  0  0  0  0  0  0  0  0  0  0
    7.8426  -15.4558   18.4540 C   0  0  0  0  0  0  0  0  0  0  0  0
    7.3004  -14.7254   17.3906 C   0  0  0  0  0  0  0  0  0  0  0  0
   10.8207  -17.0620   22.0262 N   0  0  0  0  0  0  0  0  0  0  0  0
   12.0637  -17.7300   22.1634 C   0  0  0  0  0  0  0  0  0  0  0  0
   13.1940  -16.9033   22.6521 C   0  0  0  0  0  0  0  0  0  0  0  0
   14.3956  -17.3510   22.5192 O   0  0  0  0  0  0  0  0  0  0  0  0
   13.0941  -15.6471   23.2626 N   0  0  0  0  0  0  0  0  0  0  0  0
   13.4048  -15.4369   24.6753 C   0  0  1  0  0  0  0  0  0  0  0  0
   12.1859  -15.6266   25.5216 C   0  0  0  0  0  0  0  0  0  0  0  0
   12.5121  -15.5048   26.9796 C   0  0  0  0  0  0  0  0  0  0  0  0
   11.2744  -15.7210   27.8468 C   0  0  0  0  0  0  0  0  0  0  0  0
   11.5632  -15.5709   29.3070 C   0  0  0  0  0  0  0  0  0  0  0  0
   10.4549  -15.8777   30.1523 N   0  0  0  0  0  0  0  0  0  0  0  0
   14.5384  -16.2262   25.1114 C   0  0  0  0  0  0  0  0  0  0  0  0
   15.7665  -15.7422   25.4370 O   0  0  0  0  0  0  0  0  0  0  0  0
   14.3775  -17.5004   25.1961 O   0  0  0  0  0  0  0  0  0  0  0  0
  1  2  1  0
  2 12  2  0
  2  3  1  0
  3  4  2  0
  4  5  1  0
  5  6  1  0
  6  7  1  0
  7  8  1  1
  7  9  1  0
  9 10  2  0
 11  5  2  0
 12 11  1  0
 13  9  1  0
 13 14  1  0
 15 14  1  0
 15 17  1  0
 16 15  2  0
 18 17  1  0
 18 24  1  0
 18 19  1  1
 20 19  1  0
 21 20  1  0
 21 22  1  0
 23 22  1  0
 24 26  2  0
 24 25  1  0
M  END
$$$$
