YGK.pdb
     RDKit          3D

 26 26  0  0  1  0  0  0  0  0999 V2000
    9.3057  -13.7260   27.9545 O   0  0  0  0  0  0  0  0  0  0  0  0
    8.7344  -13.6048   26.6785 C   0  0  0  0  0  0  0  0  0  0  0  0
    7.3599  -13.6133   26.6099 C   0  0  0  0  0  0  0  0  0  0  0  0
    6.7890  -13.4946   25.3604 C   0  0  0  0  0  0  0  0  0  0  0  0
    7.5627  -13.3720   24.2214 C   0  0  0  0  0  0  0  0  0  0  0  0
    6.8767  -13.2697   22.9212 C   0  0  0  0  0  0  0  0  0  0  0  0
    6.8379  -14.6161   22.2605 C   0  0  2  0  0  0  0  0  0  0  0  0
    6.3066  -15.5596   23.2430 N   0  0  0  0  0  0  0  0  0  0  0  0
    8.1705  -15.0025   21.8024 C   0  0  0  0  0  0  0  0  0  0  0  0
    8.8956  -14.2614   21.1002 O   0  0  0  0  0  0  0  0  0  0  0  0
    8.9242  -13.3685   24.3386 C   0  0  0  0  0  0  0  0  0  0  0  0
    9.5413  -13.4867   25.5891 C   0  0  0  0  0  0  0  0  0  0  0  0
    8.6937  -16.2880   22.1623 N   0  0  0  0  0  0  0  0  0  0  0  0
   10.0274  -16.6778   21.8802 C   0  0  0  0  0  0  0  0  0  0  0  0
   10.7749  -17.2932   23.0038 C   0  0  0  0  0  0  0  0  0  0  0  0
   10.3274  -18.3837   23.5257 O   0  0  0  0  0  0  0  0  0  0  0  0
   11.9534  -16.8015   23.5782 N   0  0  0  0  0  0  0  0  0  0  0  0
   12.3293  -17.0900   24.9610 C   0  0  1  0  0  0  0  0  0  0  0  0
   11.3201  -16.5315   25.9137 C   0  0  0  0  0  0  0  0  0  0  0  0
   11.6639  -16.8738   27.3320 C   0  0  0  0  0  0  0  0  0  0  0  0
   10.5999  -16.3643   28.3010 C   0  0  0  0  0  0  0  0  0  0  0  0
   10.9016  -16.7184   29.7230 C   0  0  0  0  0  0  0  0  0  0  0  0
    9.8883  -16.3231   30.6470 N   0  0  0  0  0  0  0  0  0  0  0  0
   12.6062  -18.4960   25.1727 C   0  0  0  0  0  0  0  0  0  0  0  0
   13.8300  -19.0386   25.4102 O   0  0  0  0  0  0  0  0  0  0  0  0
   11.6106  -19.3105   25.1288 O   0  0  0  0  0  0  0  0  0  0  0  0
  1  2  1  0
  2 12  2  0
  2  3  1  0
  3  4  2  0
  4  5  1  0
  5  6  1  0
  6  7  1  0
  7  8  1  1
  7  9  1  0
  9 10  2  0
 11  5  2  0
 12 11  1  0
 13  9  1  0
 13 14  1  0
 15 14  1  0
 15 17  1  0
 16 15  2  0
 18 17  1  0
 18 24  1  0
 18 19  1  1
 20 19  1  0
 21 20  1  0
 21 22  1  0
 23 22  1  0
 24 26  2  0
 24 25  1  0
M  END
$$$$
