YGK.pdb
     RDKit          3D

 26 26  0  0  1  0  0  0  0  0999 V2000
    7.9651  -12.1650   27.0117 O   0  0  0  0  0  0  0  0  0  0  0  0
    7.6314  -12.7572   25.7840 C   0  0  0  0  0  0  0  0  0  0  0  0
    6.6790  -13.7503   25.8118 C   0  0  0  0  0  0  0  0  0  0  0  0
    6.3441  -14.3383   24.6104 C   0  0  0  0  0  0  0  0  0  0  0  0
    6.9389  -13.9485   23.4248 C   0  0  0  0  0  0  0  0  0  0  0  0
    6.5406  -14.6398   22.1858 C   0  0  0  0  0  0  0  0  0  0  0  0
    7.2768  -15.9421   22.0722 C   0  0  2  0  0  0  0  0  0  0  0  0
    6.9069  -16.7456   23.2363 N   0  0  0  0  0  0  0  0  0  0  0  0
    8.7185  -15.7137   22.0063 C   0  0  0  0  0  0  0  0  0  0  0  0
    9.2717  -15.0901   21.0717 O   0  0  0  0  0  0  0  0  0  0  0  0
    7.8799  -12.9578   23.4462 C   0  0  0  0  0  0  0  0  0  0  0  0
    8.2467  -12.3366   24.6454 C   0  0  0  0  0  0  0  0  0  0  0  0
    9.5601  -16.2189   23.0513 N   0  0  0  0  0  0  0  0  0  0  0  0
   10.9720  -16.0929   23.0251 C   0  0  0  0  0  0  0  0  0  0  0  0
   11.6984  -16.6942   24.1700 C   0  0  0  0  0  0  0  0  0  0  0  0
   12.9767  -16.5449   24.2436 O   0  0  0  0  0  0  0  0  0  0  0  0
   11.1269  -17.4310   25.2146 N   0  0  0  0  0  0  0  0  0  0  0  0
   11.9038  -17.8902   26.3644 C   0  0  1  0  0  0  0  0  0  0  0  0
   11.2646  -17.4560   27.6454 C   0  0  0  0  0  0  0  0  0  0  0  0
   11.0275  -15.9760   27.6602 C   0  0  0  0  0  0  0  0  0  0  0  0
   10.3408  -15.5352   28.9505 C   0  0  0  0  0  0  0  0  0  0  0  0
   10.0260  -14.0727   28.9627 C   0  0  0  0  0  0  0  0  0  0  0  0
    9.2918  -13.6467   30.1100 N   0  0  0  0  0  0  0  0  0  0  0  0
   12.1780  -19.3115   26.3093 C   0  0  0  0  0  0  0  0  0  0  0  0
   11.6865  -20.1812   25.3872 O   0  0  0  0  0  0  0  0  0  0  0  0
   12.9514  -19.8026   27.2134 O   0  0  0  0  0  0  0  0  0  0  0  0
  1  2  1  0
  2 12  2  0
  2  3  1  0
  3  4  2  0
  4  5  1  0
  5  6  1  0
  6  7  1  0
  7  8  1  1
  7  9  1  0
  9 10  2  0
 11  5  2  0
 12 11  1  0
 13  9  1  0
 13 14  1  0
 15 14  1  0
 15 17  1  0
 16 15  2  0
 18 17  1  0
 18 24  1  0
 18 19  1  1
 20 19  1  0
 21 20  1  0
 21 22  1  0
 23 22  1  0
 24 26  2  0
 24 25  1  0
M  END
$$$$
