YGK.pdb
     RDKit          3D

 26 26  0  0  1  0  0  0  0  0999 V2000
    5.9115  -11.6725   27.2357 O   0  0  0  0  0  0  0  0  0  0  0  0
    6.5948  -12.5943   26.4278 C   0  0  0  0  0  0  0  0  0  0  0  0
    7.7252  -13.1699   26.9616 C   0  0  0  0  0  0  0  0  0  0  0  0
    8.4035  -14.0772   26.1754 C   0  0  0  0  0  0  0  0  0  0  0  0
    7.9686  -14.3976   24.9029 C   0  0  0  0  0  0  0  0  0  0  0  0
    8.7604  -15.3617   24.1186 C   0  0  0  0  0  0  0  0  0  0  0  0
    9.7664  -14.6294   23.2803 C   0  0  2  0  0  0  0  0  0  0  0  0
    9.0170  -13.7566   22.3778 N   0  0  0  0  0  0  0  0  0  0  0  0
   10.6092  -15.5720   22.5481 C   0  0  0  0  0  0  0  0  0  0  0  0
   11.3120  -16.4428   23.1103 O   0  0  0  0  0  0  0  0  0  0  0  0
    6.8405  -13.8004   24.4148 C   0  0  0  0  0  0  0  0  0  0  0  0
    6.1244  -12.8746   25.1819 C   0  0  0  0  0  0  0  0  0  0  0  0
   10.6491  -15.5157   21.1160 N   0  0  0  0  0  0  0  0  0  0  0  0
   11.5138  -16.3300   20.3419 C   0  0  0  0  0  0  0  0  0  0  0  0
   11.5958  -17.7552   20.7445 C   0  0  0  0  0  0  0  0  0  0  0  0
   12.1961  -18.0576   21.8445 O   0  0  0  0  0  0  0  0  0  0  0  0
   11.0744  -18.8442   20.0354 N   0  0  0  0  0  0  0  0  0  0  0  0
   10.4080  -19.9632   20.6989 C   0  0  1  0  0  0  0  0  0  0  0  0
    9.2914  -19.4772   21.5679 C   0  0  0  0  0  0  0  0  0  0  0  0
    8.7137  -20.5930   22.3853 C   0  0  0  0  0  0  0  0  0  0  0  0
    7.6458  -20.0817   23.3491 C   0  0  0  0  0  0  0  0  0  0  0  0
    7.0184  -21.1811   24.1465 C   0  0  0  0  0  0  0  0  0  0  0  0
    6.0670  -20.7292   25.1097 N   0  0  0  0  0  0  0  0  0  0  0  0
   10.0051  -20.9943   19.7647 C   0  0  0  0  0  0  0  0  0  0  0  0
    9.2179  -20.8132   18.6711 O   0  0  0  0  0  0  0  0  0  0  0  0
   10.4217  -22.1918   19.9860 O   0  0  0  0  0  0  0  0  0  0  0  0
  1  2  1  0
  2 12  2  0
  2  3  1  0
  3  4  2  0
  4  5  1  0
  5  6  1  0
  6  7  1  0
  7  8  1  6
  7  9  1  0
  9 10  2  0
 11  5  2  0
 12 11  1  0
 13  9  1  0
 13 14  1  0
 15 14  1  0
 15 17  1  0
 16 15  2  0
 18 17  1  0
 18 24  1  0
 18 19  1  6
 20 19  1  0
 21 20  1  0
 21 22  1  0
 23 22  1  0
 24 26  2  0
 24 25  1  0
M  END
$$$$
