VQQ.pdb
     RDKit          3D

 26 25  0  0  1  0  0  0  0  0999 V2000
   32.9209  -27.6057  -21.9849 C   0  0  0  0  0  0  0  0  0  0  0  0
   31.9527  -28.0352  -23.0699 C   0  0  1  0  0  0  0  0  0  0  0  0
   32.5310  -29.2960  -23.6931 C   0  0  0  0  0  0  0  0  0  0  0  0
   30.6076  -28.4144  -22.4931 C   0  0  2  0  0  0  0  0  0  0  0  0
   30.1031  -27.2586  -21.7748 N   0  0  0  0  0  0  0  0  0  0  0  0
   30.6968  -29.6008  -21.6079 C   0  0  0  0  0  0  0  0  0  0  0  0
   30.9524  -30.7167  -22.0685 O   0  0  0  0  0  0  0  0  0  0  0  0
   34.2361  -30.0776  -17.3622 N   0  0  0  0  0  0  0  0  0  0  0  0
   34.2527  -31.0044  -18.4354 C   0  0  0  0  0  0  0  0  0  0  0  0
   35.3169  -31.6155  -18.7404 O   0  0  0  0  0  0  0  0  0  0  0  0
   32.9829  -31.2245  -19.1771 C   0  0  0  0  0  0  0  0  0  0  0  0
   31.9305  -30.3483  -18.5674 C   0  0  0  0  0  0  0  0  0  0  0  0
   30.5916  -30.4848  -19.2497 C   0  0  2  0  0  0  0  0  0  0  0  0
   30.4849  -29.4334  -20.2328 N   0  0  0  0  0  0  0  0  0  0  0  0
   29.4691  -30.4813  -18.2926 C   0  0  0  0  0  0  0  0  0  0  0  0
   28.7054  -29.4793  -18.2822 O   0  0  0  0  0  0  0  0  0  0  0  0
   25.2068  -33.4347  -17.4919 N   0  0  0  0  0  0  0  0  0  0  0  0
   24.7059  -32.4388  -16.6103 C   0  0  0  0  0  0  0  0  0  0  0  0
   23.5824  -32.5808  -16.0726 O   0  0  0  0  0  0  0  0  0  0  0  0
   25.5527  -31.2406  -16.3542 C   0  0  0  0  0  0  0  0  0  0  0  0
   26.7852  -31.2458  -17.2249 C   0  0  0  0  0  0  0  0  0  0  0  0
   28.0440  -31.5884  -16.5119 C   0  0  2  0  0  0  0  0  0  0  0  0
   29.2074  -31.5432  -17.3882 N   0  0  0  0  0  0  0  0  0  0  0  0
   28.0132  -32.8349  -15.7268 C   0  0  0  0  0  0  0  0  0  0  0  0
   28.5141  -34.0537  -16.1042 O   0  0  0  0  0  0  0  0  0  0  0  0
   27.4612  -32.7715  -14.5742 O   0  0  0  0  0  0  0  0  0  0  0  0
  2  1  1  1
  2  4  1  0
  3  2  1  0
  4  6  1  0
  4  5  1  1
  6 14  1  0
  7  6  2  0
  9  8  1  0
  9 10  2  0
 11 12  1  0
 11  9  1  0
 13 12  1  1
 13 15  1  0
 14 13  1  0
 15 23  1  0
 15 16  2  0
 17 18  1  0
 18 20  1  0
 18 19  2  0
 20 21  1  0
 22 21  1  6
 22 24  1  0
 23 22  1  0
 24 26  2  0
 24 25  1  0
M  END
$$$$
