VQQ.pdb
     RDKit          3D

 26 25  0  0  1  0  0  0  0  0999 V2000
   17.6839  -15.3666  -16.5511 C   0  0  0  0  0  0  0  0  0  0  0  0
   18.5324  -14.2800  -15.9199 C   0  0  1  0  0  0  0  0  0  0  0  0
   19.9695  -14.5567  -16.3332 C   0  0  0  0  0  0  0  0  0  0  0  0
   18.1796  -12.9149  -16.4656 C   0  0  2  0  0  0  0  0  0  0  0  0
   18.2246  -13.0026  -17.9136 N   0  0  0  0  0  0  0  0  0  0  0  0
   19.0937  -11.8616  -15.9620 C   0  0  0  0  0  0  0  0  0  0  0  0
   19.1276  -11.5729  -14.7627 O   0  0  0  0  0  0  0  0  0  0  0  0
   23.4128  -12.6162  -18.2149 N   0  0  0  0  0  0  0  0  0  0  0  0
   23.8143  -12.3123  -16.8892 C   0  0  0  0  0  0  0  0  0  0  0  0
   24.6743  -13.0266  -16.2984 O   0  0  0  0  0  0  0  0  0  0  0  0
   23.1895  -11.1340  -16.2318 C   0  0  0  0  0  0  0  0  0  0  0  0
   22.1975  -10.5407  -17.1862 C   0  0  0  0  0  0  0  0  0  0  0  0
   20.8905  -10.1847  -16.5216 C   0  0  2  0  0  0  0  0  0  0  0  0
   19.9227  -11.1957  -16.8748 N   0  0  0  0  0  0  0  0  0  0  0  0
   20.4376   -8.8231  -16.8639 C   0  0  0  0  0  0  0  0  0  0  0  0
   19.7074   -8.6820  -17.8809 O   0  0  0  0  0  0  0  0  0  0  0  0
   16.0201   -6.3965  -16.3045 N   0  0  0  0  0  0  0  0  0  0  0  0
   16.6005   -5.1038  -16.4152 C   0  0  0  0  0  0  0  0  0  0  0  0
   15.8683   -4.0900  -16.5018 O   0  0  0  0  0  0  0  0  0  0  0  0
   18.0863   -5.0020  -16.4240 C   0  0  0  0  0  0  0  0  0  0  0  0
   18.7284   -6.3667  -16.3746 C   0  0  0  0  0  0  0  0  0  0  0  0
   20.2148   -6.3499  -16.3525 C   0  0  2  0  0  0  0  0  0  0  0  0
   20.7806   -7.6707  -16.1099 N   0  0  0  0  0  0  0  0  0  0  0  0
   20.8281   -5.3357  -15.4771 C   0  0  0  0  0  0  0  0  0  0  0  0
   20.8279   -3.9786  -15.6697 O   0  0  0  0  0  0  0  0  0  0  0  0
   21.4224   -5.7681  -14.4296 O   0  0  0  0  0  0  0  0  0  0  0  0
  2  1  1  6
  2  4  1  0
  3  2  1  0
  4  6  1  0
  4  5  1  6
  6 14  1  0
  7  6  2  0
  9  8  1  0
  9 10  2  0
 11 12  1  0
 11  9  1  0
 13 12  1  6
 13 15  1  0
 14 13  1  0
 15 23  1  0
 15 16  2  0
 17 18  1  0
 18 20  1  0
 18 19  2  0
 20 21  1  0
 22 21  1  1
 22 24  1  0
 23 22  1  0
 24 26  2  0
 24 25  1  0
M  END
$$$$
