VQQ.pdb
     RDKit          3D

 26 25  0  0  1  0  0  0  0  0999 V2000
   12.7582  -11.3996   -9.1177 C   0  0  0  0  0  0  0  0  0  0  0  0
   12.7717   -9.9910   -9.6787 C   0  0  1  0  0  0  0  0  0  0  0  0
   12.5879   -9.0517   -8.4970 C   0  0  0  0  0  0  0  0  0  0  0  0
   14.1099   -9.6539  -10.2963 C   0  0  2  0  0  0  0  0  0  0  0  0
   15.1370  -10.2025   -9.4301 N   0  0  0  0  0  0  0  0  0  0  0  0
   14.2852   -8.1930  -10.4800 C   0  0  0  0  0  0  0  0  0  0  0  0
   13.5195   -7.5491  -11.2024 O   0  0  0  0  0  0  0  0  0  0  0  0
   14.0691   -3.7416   -8.0966 N   0  0  0  0  0  0  0  0  0  0  0  0
   15.3356   -3.1850   -8.4083 C   0  0  0  0  0  0  0  0  0  0  0  0
   15.5189   -1.9350   -8.3555 O   0  0  0  0  0  0  0  0  0  0  0  0
   16.4247   -4.1208   -8.7948 C   0  0  0  0  0  0  0  0  0  0  0  0
   15.8939   -5.5191   -8.6934 C   0  0  0  0  0  0  0  0  0  0  0  0
   15.7422   -6.1838  -10.0395 C   0  0  2  0  0  0  0  0  0  0  0  0
   15.3401   -7.5519   -9.8164 N   0  0  0  0  0  0  0  0  0  0  0  0
   16.9637   -6.0791  -10.8599 C   0  0  0  0  0  0  0  0  0  0  0  0
   18.0398   -6.5205  -10.3754 O   0  0  0  0  0  0  0  0  0  0  0  0
   19.6174   -9.7074  -15.6733 N   0  0  0  0  0  0  0  0  0  0  0  0
   18.5205   -8.8336  -15.4420 C   0  0  0  0  0  0  0  0  0  0  0  0
   17.3551   -9.1962  -15.7286 O   0  0  0  0  0  0  0  0  0  0  0  0
   18.8040   -7.4940  -14.8564 C   0  0  0  0  0  0  0  0  0  0  0  0
   17.8392   -7.1686  -13.7427 C   0  0  0  0  0  0  0  0  0  0  0  0
   18.0085   -5.8137  -13.1546 C   0  0  2  0  0  0  0  0  0  0  0  0
   16.9881   -5.5098  -12.1596 N   0  0  0  0  0  0  0  0  0  0  0  0
   18.1576   -4.7126  -14.1222 C   0  0  0  0  0  0  0  0  0  0  0  0
   19.2331   -4.4796  -14.9394 O   0  0  0  0  0  0  0  0  0  0  0  0
   17.1817   -3.8893  -14.2067 O   0  0  0  0  0  0  0  0  0  0  0  0
  2  1  1  1
  2  4  1  0
  3  2  1  0
  4  6  1  0
  4  5  1  1
  6 14  1  0
  7  6  2  0
  9  8  1  0
  9 10  2  0
 11 12  1  0
 11  9  1  0
 13 12  1  1
 13 15  1  0
 14 13  1  0
 15 23  1  0
 15 16  2  0
 17 18  1  0
 18 20  1  0
 18 19  2  0
 20 21  1  0
 22 21  1  6
 22 24  1  0
 23 22  1  0
 24 26  2  0
 24 25  1  0
M  END
$$$$
