VQQ.pdb
     RDKit          3D

 26 25  0  0  1  0  0  0  0  0999 V2000
   18.6659  -16.0159  -18.2449 C   0  0  0  0  0  0  0  0  0  0  0  0
   19.2129  -15.2661  -17.0459 C   0  0  1  0  0  0  0  0  0  0  0  0
   20.5426  -15.9164  -16.6972 C   0  0  0  0  0  0  0  0  0  0  0  0
   19.5117  -13.8232  -17.3845 C   0  0  2  0  0  0  0  0  0  0  0  0
   20.0395  -13.7960  -18.7362 N   0  0  0  0  0  0  0  0  0  0  0  0
   20.4615  -13.2119  -16.4238 C   0  0  0  0  0  0  0  0  0  0  0  0
   20.1362  -13.0154  -15.2497 O   0  0  0  0  0  0  0  0  0  0  0  0
   26.4156  -13.5874  -17.3401 N   0  0  0  0  0  0  0  0  0  0  0  0
   26.5002  -12.6303  -16.2971 C   0  0  0  0  0  0  0  0  0  0  0  0
   27.6254  -12.2552  -15.8587 O   0  0  0  0  0  0  0  0  0  0  0  0
   25.2269  -12.0934  -15.7479 C   0  0  0  0  0  0  0  0  0  0  0  0
   24.0930  -12.7495  -16.4766 C   0  0  0  0  0  0  0  0  0  0  0  0
   22.7457  -12.2076  -16.0669 C   0  0  2  0  0  0  0  0  0  0  0  0
   21.7411  -12.8589  -16.8731 N   0  0  0  0  0  0  0  0  0  0  0  0
   22.6792  -10.7367  -16.1583 C   0  0  0  0  0  0  0  0  0  0  0  0
   22.9436  -10.2017  -17.2678 O   0  0  0  0  0  0  0  0  0  0  0  0
   20.1797   -7.5867  -18.6838 N   0  0  0  0  0  0  0  0  0  0  0  0
   19.7726   -6.6973  -17.6526 C   0  0  0  0  0  0  0  0  0  0  0  0
   19.1904   -5.6247  -17.9394 O   0  0  0  0  0  0  0  0  0  0  0  0
   20.0593   -7.0822  -16.2427 C   0  0  0  0  0  0  0  0  0  0  0  0
   20.7066   -8.4432  -16.1681 C   0  0  0  0  0  0  0  0  0  0  0  0
   21.8471   -8.5339  -15.2187 C   0  0  2  0  0  0  0  0  0  0  0  0
   22.3342   -9.8988  -15.0661 N   0  0  0  0  0  0  0  0  0  0  0  0
   21.6399   -7.8899  -13.9097 C   0  0  0  0  0  0  0  0  0  0  0  0
   21.6327   -8.5059  -12.6853 O   0  0  0  0  0  0  0  0  0  0  0  0
   21.4462   -6.6251  -13.9187 O   0  0  0  0  0  0  0  0  0  0  0  0
  2  1  1  6
  2  4  1  0
  3  2  1  0
  4  6  1  0
  4  5  1  6
  6 14  1  0
  7  6  2  0
  9  8  1  0
  9 10  2  0
 11 12  1  0
 11  9  1  0
 13 12  1  6
 13 15  1  0
 14 13  1  0
 15 23  1  0
 15 16  2  0
 17 18  1  0
 18 20  1  0
 18 19  2  0
 20 21  1  0
 22 21  1  1
 22 24  1  0
 23 22  1  0
 24 26  2  0
 24 25  1  0
M  END
$$$$
