VQQ.pdb
     RDKit          3D

 26 25  0  0  1  0  0  0  0  0999 V2000
   17.6806  -11.2970  -17.8076 C   0  0  0  0  0  0  0  0  0  0  0  0
   18.4550  -12.4649  -17.2284 C   0  0  1  0  0  0  0  0  0  0  0  0
   18.9063  -13.3134  -18.4069 C   0  0  0  0  0  0  0  0  0  0  0  0
   19.7090  -12.0019  -16.5221 C   0  0  2  0  0  0  0  0  0  0  0  0
   20.3713  -13.1821  -15.9976 N   0  0  0  0  0  0  0  0  0  0  0  0
   19.4126  -11.0277  -15.4442 C   0  0  0  0  0  0  0  0  0  0  0  0
   18.7134  -11.3453  -14.4783 O   0  0  0  0  0  0  0  0  0  0  0  0
   22.6268   -5.8194  -15.1914 N   0  0  0  0  0  0  0  0  0  0  0  0
   21.8210   -5.5754  -14.0503 C   0  0  0  0  0  0  0  0  0  0  0  0
   22.0278   -4.5624  -13.3222 O   0  0  0  0  0  0  0  0  0  0  0  0
   20.7370   -6.5480  -13.7499 C   0  0  0  0  0  0  0  0  0  0  0  0
   20.7870   -7.6334  -14.7825 C   0  0  0  0  0  0  0  0  0  0  0  0
   19.7186   -8.6796  -14.5805 C   0  0  2  0  0  0  0  0  0  0  0  0
   19.9420   -9.7338  -15.5407 N   0  0  0  0  0  0  0  0  0  0  0  0
   18.3573   -8.1172  -14.6632 C   0  0  0  0  0  0  0  0  0  0  0  0
   17.8740   -7.9072  -15.8077 O   0  0  0  0  0  0  0  0  0  0  0  0
   13.5641   -9.6454  -11.2987 N   0  0  0  0  0  0  0  0  0  0  0  0
   12.9337   -8.6829  -12.1332 C   0  0  0  0  0  0  0  0  0  0  0  0
   11.6836   -8.5913  -12.1559 O   0  0  0  0  0  0  0  0  0  0  0  0
   13.8005   -7.8028  -12.9651 C   0  0  0  0  0  0  0  0  0  0  0  0
   15.2479   -8.2208  -12.8783 C   0  0  0  0  0  0  0  0  0  0  0  0
   16.1926   -7.3308  -13.6034 C   0  0  2  0  0  0  0  0  0  0  0  0
   17.5691   -7.8028  -13.5258 N   0  0  0  0  0  0  0  0  0  0  0  0
   16.0986   -5.8977  -13.2745 C   0  0  0  0  0  0  0  0  0  0  0  0
   14.9630   -5.1300  -13.2722 O   0  0  0  0  0  0  0  0  0  0  0  0
   17.1908   -5.3103  -12.9592 O   0  0  0  0  0  0  0  0  0  0  0  0
  2  1  1  6
  2  4  1  0
  3  2  1  0
  4  6  1  0
  4  5  1  1
  6 14  1  0
  7  6  2  0
  9  8  1  0
  9 10  2  0
 11 12  1  0
 11  9  1  0
 13 12  1  6
 13 15  1  0
 14 13  1  0
 15 23  1  0
 15 16  2  0
 17 18  1  0
 18 20  1  0
 18 19  2  0
 20 21  1  0
 22 21  1  1
 22 24  1  0
 23 22  1  0
 24 26  2  0
 24 25  1  0
M  END
$$$$
