NIN.pdb
     RDKit          3D

 25 24  0  0  1  0  0  0  0  0999 V2000
    7.7046  -18.4980   14.3851 N   0  0  0  0  0  0  0  0  0  0  0  0
    9.0299  -18.0684   14.6562 C   0  0  0  0  0  0  0  0  0  0  0  0
    9.9384  -18.5296   13.9090 O   0  0  0  0  0  0  0  0  0  0  0  0
    9.3473  -17.1296   15.7539 C   0  0  0  0  0  0  0  0  0  0  0  0
    9.1474  -17.7714   17.1126 C   0  0  2  0  0  0  0  0  0  0  0  0
    7.7051  -18.0115   17.2314 N   0  0  0  0  0  0  0  0  0  0  0  0
    9.5429  -16.7900   18.1561 C   0  0  0  0  0  0  0  0  0  0  0  0
   10.7589  -16.4088   18.2061 O   0  0  0  0  0  0  0  0  0  0  0  0
    6.6211  -12.5488   19.9605 C   0  0  0  0  0  0  0  0  0  0  0  0
    7.7945  -13.3961   19.4639 C   0  0  0  0  0  0  0  0  0  0  0  0
    8.1417  -14.3455   20.5647 C   0  0  2  0  0  0  0  0  0  0  0  0
    8.5592  -13.6553   21.8446 C   0  0  0  0  0  0  0  0  0  0  0  0
    9.1325  -15.4120   20.1648 C   0  0  2  0  0  0  0  0  0  0  0  0
    8.6434  -16.2499   19.1040 N   0  0  0  0  0  0  0  0  0  0  0  0
    9.5386  -16.2071   21.3574 C   0  0  0  0  0  0  0  0  0  0  0  0
    8.7851  -17.1320   21.8180 O   0  0  0  0  0  0  0  0  0  0  0  0
   13.0440  -19.1268   22.5427 N   0  0  0  0  0  0  0  0  0  0  0  0
   13.1901  -17.7232   22.3424 C   0  0  0  0  0  0  0  0  0  0  0  0
   13.7496  -17.2436   21.3253 O   0  0  0  0  0  0  0  0  0  0  0  0
   12.6467  -16.8210   23.3996 C   0  0  0  0  0  0  0  0  0  0  0  0
   11.1459  -16.8019   23.2072 C   0  0  2  0  0  0  0  0  0  0  0  0
   10.7577  -16.0089   22.0587 N   0  0  0  0  0  0  0  0  0  0  0  0
   10.4514  -16.3685   24.4472 C   0  0  0  0  0  0  0  0  0  0  0  0
   10.4847  -15.1505   24.7429 O   0  0  0  0  0  0  0  0  0  0  0  0
    9.7929  -17.2604   25.2493 O   0  0  0  0  0  0  0  0  0  0  0  0
  1  2  1  0
  2  3  2  0
  4  5  1  0
  4  2  1  0
  5  6  1  1
  7  5  1  0
  8  7  2  0
  9 10  1  0
 10 11  1  0
 11 12  1  1
 13 11  1  0
 13 14  1  6
 14  7  1  0
 15 22  1  0
 15 13  1  0
 16 15  2  0
 18 17  1  0
 19 18  2  0
 20 18  1  0
 21 20  1  1
 21 22  1  0
 23 25  1  0
 23 21  1  0
 24 23  2  0
M  END
$$$$
