NIN.pdb
     RDKit          3D

 25 24  0  0  1  0  0  0  0  0999 V2000
    5.4075  -17.3660   19.8502 N   0  0  0  0  0  0  0  0  0  0  0  0
    6.8223  -17.2530   19.8525 C   0  0  0  0  0  0  0  0  0  0  0  0
    7.4191  -17.5950   18.7927 O   0  0  0  0  0  0  0  0  0  0  0  0
    7.5739  -16.7621   21.0278 C   0  0  0  0  0  0  0  0  0  0  0  0
    7.3206  -15.2884   21.2764 C   0  0  2  0  0  0  0  0  0  0  0  0
    7.9454  -14.5817   20.1529 N   0  0  0  0  0  0  0  0  0  0  0  0
    8.0278  -14.8963   22.5233 C   0  0  0  0  0  0  0  0  0  0  0  0
    9.2874  -14.7032   22.4758 O   0  0  0  0  0  0  0  0  0  0  0  0
    5.9590  -11.5758   26.2634 C   0  0  0  0  0  0  0  0  0  0  0  0
    6.9147  -12.2284   25.2622 C   0  0  0  0  0  0  0  0  0  0  0  0
    7.4044  -13.4934   25.8898 C   0  0  2  0  0  0  0  0  0  0  0  0
    8.1852  -13.2682   27.1659 C   0  0  0  0  0  0  0  0  0  0  0  0
    8.1491  -14.4004   24.9403 C   0  0  2  0  0  0  0  0  0  0  0  0
    7.3811  -14.7235   23.7688 N   0  0  0  0  0  0  0  0  0  0  0  0
    8.6105  -15.6230   25.6556 C   0  0  0  0  0  0  0  0  0  0  0  0
    7.7713  -16.4727   26.1129 O   0  0  0  0  0  0  0  0  0  0  0  0
   12.5643  -16.6477   23.8505 N   0  0  0  0  0  0  0  0  0  0  0  0
   11.7886  -17.6125   24.5570 C   0  0  0  0  0  0  0  0  0  0  0  0
   11.1033  -18.4855   23.9691 O   0  0  0  0  0  0  0  0  0  0  0  0
   11.8158  -17.5534   26.0479 C   0  0  0  0  0  0  0  0  0  0  0  0
   10.4149  -17.1793   26.4808 C   0  0  2  0  0  0  0  0  0  0  0  0
    9.9776  -15.9350   25.8816 N   0  0  0  0  0  0  0  0  0  0  0  0
   10.2986  -17.1585   27.9619 C   0  0  0  0  0  0  0  0  0  0  0  0
   10.3390  -16.0454   28.5379 O   0  0  0  0  0  0  0  0  0  0  0  0
   10.1518  -18.3104   28.6859 O   0  0  0  0  0  0  0  0  0  0  0  0
  1  2  1  0
  2  3  2  0
  4  5  1  0
  4  2  1  0
  5  6  1  6
  7  5  1  0
  8  7  2  0
  9 10  1  0
 10 11  1  0
 11 12  1  1
 13 11  1  0
 13 14  1  6
 14  7  1  0
 15 22  1  0
 15 13  1  0
 16 15  2  0
 18 17  1  0
 19 18  2  0
 20 18  1  0
 21 20  1  1
 21 22  1  0
 23 25  1  0
 23 21  1  0
 24 23  2  0
M  END
$$$$
