NIN.pdb
     RDKit          3D

 25 24  0  0  1  0  0  0  0  0999 V2000
   12.5445  -18.1137   14.7756 N   0  0  0  0  0  0  0  0  0  0  0  0
   11.2262  -17.8884   15.2507 C   0  0  0  0  0  0  0  0  0  0  0  0
   10.2977  -18.5078   14.6587 O   0  0  0  0  0  0  0  0  0  0  0  0
   10.9381  -16.9778   16.3799 C   0  0  0  0  0  0  0  0  0  0  0  0
   10.2875  -17.7110   17.5362 C   0  0  2  0  0  0  0  0  0  0  0  0
    8.8920  -17.9252   17.1374 N   0  0  0  0  0  0  0  0  0  0  0  0
   10.2999  -16.8169   18.7231 C   0  0  0  0  0  0  0  0  0  0  0  0
   11.4245  -16.4683   19.2131 O   0  0  0  0  0  0  0  0  0  0  0  0
    7.0787  -12.5594   19.4166 C   0  0  0  0  0  0  0  0  0  0  0  0
    8.2864  -13.4960   19.3420 C   0  0  0  0  0  0  0  0  0  0  0  0
    8.2201  -14.3871   20.5400 C   0  0  2  0  0  0  0  0  0  0  0  0
    8.2507  -13.6340   21.8518 C   0  0  0  0  0  0  0  0  0  0  0  0
    9.2287  -15.5103   20.5253 C   0  0  2  0  0  0  0  0  0  0  0  0
    9.1291  -16.3262   19.3458 N   0  0  0  0  0  0  0  0  0  0  0  0
    9.1129  -16.3193   21.7708 C   0  0  0  0  0  0  0  0  0  0  0  0
    8.2566  -17.2647   21.8629 O   0  0  0  0  0  0  0  0  0  0  0  0
   13.3915  -19.1790   23.6858 N   0  0  0  0  0  0  0  0  0  0  0  0
   11.9738  -19.1466   23.5419 C   0  0  0  0  0  0  0  0  0  0  0  0
   11.2224  -19.9879   24.0943 O   0  0  0  0  0  0  0  0  0  0  0  0
   11.3965  -18.0600   22.6976 C   0  0  0  0  0  0  0  0  0  0  0  0
   10.5775  -17.1926   23.6285 C   0  0  2  0  0  0  0  0  0  0  0  0
    9.9185  -16.1130   22.9222 N   0  0  0  0  0  0  0  0  0  0  0  0
   11.3993  -16.6991   24.7638 C   0  0  0  0  0  0  0  0  0  0  0  0
   11.8176  -17.5402   25.5943 O   0  0  0  0  0  0  0  0  0  0  0  0
   11.6970  -15.3714   24.9096 O   0  0  0  0  0  0  0  0  0  0  0  0
  1  2  1  0
  2  3  2  0
  4  5  1  0
  4  2  1  0
  5  6  1  6
  7  5  1  0
  8  7  2  0
  9 10  1  0
 10 11  1  0
 11 12  1  1
 13 11  1  0
 13 14  1  6
 14  7  1  0
 15 22  1  0
 15 13  1  0
 16 15  2  0
 18 17  1  0
 19 18  2  0
 20 18  1  0
 21 20  1  6
 21 22  1  0
 23 25  1  0
 23 21  1  0
 24 23  2  0
M  END
$$$$
