NIN.pdb
     RDKit          3D

 25 24  0  0  1  0  0  0  0  0999 V2000
    7.7052  -18.6731   19.3767 N   0  0  0  0  0  0  0  0  0  0  0  0
    7.0614  -17.7009   20.1859 C   0  0  0  0  0  0  0  0  0  0  0  0
    5.9213  -17.3122   19.8045 O   0  0  0  0  0  0  0  0  0  0  0  0
    7.6807  -17.1604   21.4153 C   0  0  0  0  0  0  0  0  0  0  0  0
    7.6466  -15.6451   21.4377 C   0  0  2  0  0  0  0  0  0  0  0  0
    8.5065  -15.2109   20.3313 N   0  0  0  0  0  0  0  0  0  0  0  0
    8.2579  -15.1824   22.7108 C   0  0  0  0  0  0  0  0  0  0  0  0
    9.5151  -15.3244   22.8714 O   0  0  0  0  0  0  0  0  0  0  0  0
    5.9647  -11.3547   25.9723 C   0  0  0  0  0  0  0  0  0  0  0  0
    7.0131  -12.0742   25.1211 C   0  0  0  0  0  0  0  0  0  0  0  0
    7.3895  -13.3199   25.8561 C   0  0  2  0  0  0  0  0  0  0  0  0
    8.0800  -13.0539   27.1757 C   0  0  0  0  0  0  0  0  0  0  0  0
    8.1591  -14.3152   25.0218 C   0  0  2  0  0  0  0  0  0  0  0  0
    7.5220  -14.5895   23.7626 N   0  0  0  0  0  0  0  0  0  0  0  0
    8.4016  -15.5600   25.8035 C   0  0  0  0  0  0  0  0  0  0  0  0
    7.5159  -16.4804   25.8647 O   0  0  0  0  0  0  0  0  0  0  0  0
   10.4738  -20.1250   25.9709 N   0  0  0  0  0  0  0  0  0  0  0  0
   11.3911  -19.0354   26.0264 C   0  0  0  0  0  0  0  0  0  0  0  0
   12.5787  -19.1751   26.4106 O   0  0  0  0  0  0  0  0  0  0  0  0
   10.8878  -17.6952   25.6053 C   0  0  0  0  0  0  0  0  0  0  0  0
   10.0951  -17.1554   26.7758 C   0  0  2  0  0  0  0  0  0  0  0  0
    9.5989  -15.8181   26.5225 N   0  0  0  0  0  0  0  0  0  0  0  0
   10.8791  -17.2321   28.0357 C   0  0  0  0  0  0  0  0  0  0  0  0
   11.6748  -16.2969   28.2894 O   0  0  0  0  0  0  0  0  0  0  0  0
   10.7460  -18.2847   28.9000 O   0  0  0  0  0  0  0  0  0  0  0  0
  1  2  1  0
  2  3  2  0
  4  5  1  0
  4  2  1  0
  5  6  1  6
  7  5  1  0
  8  7  2  0
  9 10  1  0
 10 11  1  0
 11 12  1  1
 13 11  1  0
 13 14  1  6
 14  7  1  0
 15 22  1  0
 15 13  1  0
 16 15  2  0
 18 17  1  0
 19 18  2  0
 20 18  1  0
 21 20  1  6
 21 22  1  0
 23 25  1  0
 23 21  1  0
 24 23  2  0
M  END
$$$$
