NIN.pdb
     RDKit          3D

 25 24  0  0  1  0  0  0  0  0999 V2000
    8.4040  -13.0015   17.8762 N   0  0  0  0  0  0  0  0  0  0  0  0
    7.8798  -13.8443   18.8907 C   0  0  0  0  0  0  0  0  0  0  0  0
    7.2174  -14.8490   18.5057 O   0  0  0  0  0  0  0  0  0  0  0  0
    8.0892  -13.5734   20.3294 C   0  0  0  0  0  0  0  0  0  0  0  0
    8.6330  -14.7893   21.0530 C   0  0  2  0  0  0  0  0  0  0  0  0
    7.5305  -15.7565   21.0908 N   0  0  0  0  0  0  0  0  0  0  0  0
    8.9553  -14.3970   22.4497 C   0  0  0  0  0  0  0  0  0  0  0  0
   10.0607  -13.8032   22.6773 O   0  0  0  0  0  0  0  0  0  0  0  0
    6.8398  -11.6385   27.1619 C   0  0  0  0  0  0  0  0  0  0  0  0
    7.8556  -12.7270   26.8088 C   0  0  0  0  0  0  0  0  0  0  0  0
    7.4497  -13.2871   25.4839 C   0  0  2  0  0  0  0  0  0  0  0  0
    6.0766  -13.9221   25.4949 C   0  0  0  0  0  0  0  0  0  0  0  0
    8.4767  -14.2046   24.8655 C   0  0  2  0  0  0  0  0  0  0  0  0
    8.1020  -14.6452   23.5494 N   0  0  0  0  0  0  0  0  0  0  0  0
    8.7542  -15.3506   25.7761 C   0  0  0  0  0  0  0  0  0  0  0  0
    9.1396  -15.1550   26.9797 O   0  0  0  0  0  0  0  0  0  0  0  0
   11.6278  -19.9540   24.7569 N   0  0  0  0  0  0  0  0  0  0  0  0
   11.7982  -18.6283   25.2517 C   0  0  0  0  0  0  0  0  0  0  0  0
   12.7212  -18.3204   26.0459 O   0  0  0  0  0  0  0  0  0  0  0  0
   10.8269  -17.5947   24.7878 C   0  0  0  0  0  0  0  0  0  0  0  0
    9.6172  -17.7184   25.6885 C   0  0  2  0  0  0  0  0  0  0  0  0
    8.6180  -16.7117   25.3938 N   0  0  0  0  0  0  0  0  0  0  0  0
   10.0120  -17.7125   27.1210 C   0  0  0  0  0  0  0  0  0  0  0  0
   10.4239  -16.6346   27.6115 O   0  0  0  0  0  0  0  0  0  0  0  0
    9.9332  -18.8409   27.8911 O   0  0  0  0  0  0  0  0  0  0  0  0
  1  2  1  0
  2  3  2  0
  4  5  1  0
  4  2  1  0
  5  6  1  1
  7  5  1  0
  8  7  2  0
  9 10  1  0
 10 11  1  0
 11 12  1  1
 13 11  1  0
 13 14  1  6
 14  7  1  0
 15 22  1  0
 15 13  1  0
 16 15  2  0
 18 17  1  0
 19 18  2  0
 20 18  1  0
 21 20  1  6
 21 22  1  0
 23 25  1  0
 23 21  1  0
 24 23  2  0
M  END
$$$$
