NIN.pdb
     RDKit          3D

 25 24  0  0  1  0  0  0  0  0999 V2000
   10.5817  -18.2780   19.0131 N   0  0  0  0  0  0  0  0  0  0  0  0
   10.2894  -16.8978   19.1684 C   0  0  0  0  0  0  0  0  0  0  0  0
    9.8466  -16.2950   18.1502 O   0  0  0  0  0  0  0  0  0  0  0  0
   10.4883  -16.1873   20.4501 C   0  0  0  0  0  0  0  0  0  0  0  0
    9.6756  -16.8124   21.5667 C   0  0  2  0  0  0  0  0  0  0  0  0
    8.2760  -16.7301   21.1350 N   0  0  0  0  0  0  0  0  0  0  0  0
    9.8361  -15.9777   22.7857 C   0  0  0  0  0  0  0  0  0  0  0  0
   11.0099  -15.7917   23.2480 O   0  0  0  0  0  0  0  0  0  0  0  0
    6.9554  -12.0739   26.5672 C   0  0  0  0  0  0  0  0  0  0  0  0
    8.1399  -13.0225   26.3702 C   0  0  0  0  0  0  0  0  0  0  0  0
    7.8524  -13.8283   25.1447 C   0  0  2  0  0  0  0  0  0  0  0  0
    6.5150  -14.5341   25.1896 C   0  0  0  0  0  0  0  0  0  0  0  0
    8.9630  -14.7752   24.7591 C   0  0  2  0  0  0  0  0  0  0  0  0
    8.7555  -15.3728   23.4682 N   0  0  0  0  0  0  0  0  0  0  0  0
    9.1529  -15.8020   25.8216 C   0  0  0  0  0  0  0  0  0  0  0  0
    8.3364  -16.7786   25.9450 O   0  0  0  0  0  0  0  0  0  0  0  0
    9.1000  -19.6998   29.1574 N   0  0  0  0  0  0  0  0  0  0  0  0
    9.5948  -18.3756   29.3399 C   0  0  0  0  0  0  0  0  0  0  0  0
   10.3434  -18.0637   30.2990 O   0  0  0  0  0  0  0  0  0  0  0  0
    9.1887  -17.3490   28.3360 C   0  0  0  0  0  0  0  0  0  0  0  0
   10.4683  -16.8522   27.6993 C   0  0  2  0  0  0  0  0  0  0  0  0
   10.2227  -15.7808   26.7556 N   0  0  0  0  0  0  0  0  0  0  0  0
   11.2335  -17.9705   27.0895 C   0  0  0  0  0  0  0  0  0  0  0  0
   10.6216  -18.7495   26.3209 O   0  0  0  0  0  0  0  0  0  0  0  0
   12.5641  -18.1551   27.3506 O   0  0  0  0  0  0  0  0  0  0  0  0
  1  2  1  0
  2  3  2  0
  4  5  1  0
  4  2  1  0
  5  6  1  6
  7  5  1  0
  8  7  2  0
  9 10  1  0
 10 11  1  0
 11 12  1  1
 13 11  1  0
 13 14  1  6
 14  7  1  0
 15 22  1  0
 15 13  1  0
 16 15  2  0
 18 17  1  0
 19 18  2  0
 20 18  1  0
 21 20  1  6
 21 22  1  0
 23 25  1  0
 23 21  1  0
 24 23  2  0
M  END
$$$$
