NIN.pdb
     RDKit          3D

 25 24  0  0  1  0  0  0  0  0999 V2000
    9.5797  -16.1857   18.1273 N   0  0  0  0  0  0  0  0  0  0  0  0
    8.4997  -15.7223   18.9232 C   0  0  0  0  0  0  0  0  0  0  0  0
    7.3422  -15.8410   18.4310 O   0  0  0  0  0  0  0  0  0  0  0  0
    8.7030  -15.1279   20.2621 C   0  0  0  0  0  0  0  0  0  0  0  0
    8.5599  -16.1633   21.3600 C   0  0  2  0  0  0  0  0  0  0  0  0
    7.1291  -16.4814   21.4234 N   0  0  0  0  0  0  0  0  0  0  0  0
    8.9543  -15.5363   22.6483 C   0  0  0  0  0  0  0  0  0  0  0  0
   10.1721  -15.1960   22.8139 O   0  0  0  0  0  0  0  0  0  0  0  0
    5.8680  -12.3225   25.8087 C   0  0  0  0  0  0  0  0  0  0  0  0
    6.9857  -12.9396   24.9653 C   0  0  0  0  0  0  0  0  0  0  0  0
    7.5732  -14.0536   25.7700 C   0  0  2  0  0  0  0  0  0  0  0  0
    8.1556  -13.5991   27.0903 C   0  0  0  0  0  0  0  0  0  0  0  0
    8.5482  -14.9150   25.0044 C   0  0  2  0  0  0  0  0  0  0  0  0
    8.0519  -15.2931   23.7093 N   0  0  0  0  0  0  0  0  0  0  0  0
    8.9329  -16.1014   25.8191 C   0  0  0  0  0  0  0  0  0  0  0  0
    8.0469  -16.9138   26.2557 O   0  0  0  0  0  0  0  0  0  0  0  0
   12.8673  -17.7133   24.2308 N   0  0  0  0  0  0  0  0  0  0  0  0
   11.8999  -18.3713   25.0449 C   0  0  0  0  0  0  0  0  0  0  0  0
   11.0088  -19.1138   24.5632 O   0  0  0  0  0  0  0  0  0  0  0  0
   11.9792  -18.1471   26.5181 C   0  0  0  0  0  0  0  0  0  0  0  0
   10.6339  -17.5926   26.9334 C   0  0  2  0  0  0  0  0  0  0  0  0
   10.2732  -16.4174   26.1670 N   0  0  0  0  0  0  0  0  0  0  0  0
   10.5853  -17.3427   28.3973 C   0  0  0  0  0  0  0  0  0  0  0  0
   10.6416  -16.1538   28.7916 O   0  0  0  0  0  0  0  0  0  0  0  0
   10.4825  -18.3688   29.2968 O   0  0  0  0  0  0  0  0  0  0  0  0
  1  2  1  0
  2  3  2  0
  4  5  1  0
  4  2  1  0
  5  6  1  1
  7  5  1  0
  8  7  2  0
  9 10  1  0
 10 11  1  0
 11 12  1  1
 13 11  1  0
 13 14  1  6
 14  7  1  0
 15 22  1  0
 15 13  1  0
 16 15  2  0
 18 17  1  0
 19 18  2  0
 20 18  1  0
 21 20  1  6
 21 22  1  0
 23 25  1  0
 23 21  1  0
 24 23  2  0
M  END
$$$$
