NIN.pdb
     RDKit          3D

 25 24  0  0  1  0  0  0  0  0999 V2000
    7.7908  -18.7053   18.9237 N   0  0  0  0  0  0  0  0  0  0  0  0
    7.1242  -17.8125   19.8030 C   0  0  0  0  0  0  0  0  0  0  0  0
    5.9366  -17.5035   19.5026 O   0  0  0  0  0  0  0  0  0  0  0  0
    7.7736  -17.2632   21.0129 C   0  0  0  0  0  0  0  0  0  0  0  0
    7.7539  -15.7474   21.0175 C   0  0  2  0  0  0  0  0  0  0  0  0
    8.6589  -15.3340   19.9394 N   0  0  0  0  0  0  0  0  0  0  0  0
    8.3218  -15.2763   22.3075 C   0  0  0  0  0  0  0  0  0  0  0  0
    9.5608  -15.4725   22.5369 O   0  0  0  0  0  0  0  0  0  0  0  0
    7.1261  -11.6738   27.1650 C   0  0  0  0  0  0  0  0  0  0  0  0
    8.0317  -12.7538   26.5690 C   0  0  0  0  0  0  0  0  0  0  0  0
    7.3719  -13.2313   25.3158 C   0  0  2  0  0  0  0  0  0  0  0  0
    5.9453  -13.6896   25.5246 C   0  0  0  0  0  0  0  0  0  0  0  0
    8.1747  -14.2571   24.5529 C   0  0  2  0  0  0  0  0  0  0  0  0
    7.5633  -14.6183   23.3030 N   0  0  0  0  0  0  0  0  0  0  0  0
    8.4303  -15.4484   25.4101 C   0  0  0  0  0  0  0  0  0  0  0  0
    7.5516  -16.3693   25.5341 O   0  0  0  0  0  0  0  0  0  0  0  0
   10.4610  -19.8603   26.0952 N   0  0  0  0  0  0  0  0  0  0  0  0
   11.4884  -18.8724   26.0849 C   0  0  0  0  0  0  0  0  0  0  0  0
   12.6553  -19.1117   26.4830 O   0  0  0  0  0  0  0  0  0  0  0  0
   11.1287  -17.5165   25.5760 C   0  0  0  0  0  0  0  0  0  0  0  0
   10.1004  -16.9637   26.5387 C   0  0  2  0  0  0  0  0  0  0  0  0
    9.6332  -15.6525   26.1372 N   0  0  0  0  0  0  0  0  0  0  0  0
   10.6120  -16.9726   27.9337 C   0  0  0  0  0  0  0  0  0  0  0  0
   10.8028  -15.8680   28.4955 O   0  0  0  0  0  0  0  0  0  0  0  0
   10.8706  -18.1423   28.5951 O   0  0  0  0  0  0  0  0  0  0  0  0
  1  2  1  0
  2  3  2  0
  4  5  1  0
  4  2  1  0
  5  6  1  6
  7  5  1  0
  8  7  2  0
  9 10  1  0
 10 11  1  0
 11 12  1  1
 13 11  1  0
 13 14  1  6
 14  7  1  0
 15 22  1  0
 15 13  1  0
 16 15  2  0
 18 17  1  0
 19 18  2  0
 20 18  1  0
 21 20  1  6
 21 22  1  0
 23 25  1  0
 23 21  1  0
 24 23  2  0
M  END
$$$$
