NIN.pdb
     RDKit          3D

 25 24  0  0  1  0  0  0  0  0999 V2000
    9.5808  -17.5502   19.1150 N   0  0  0  0  0  0  0  0  0  0  0  0
   10.5162  -16.5352   19.4455 C   0  0  0  0  0  0  0  0  0  0  0  0
   11.3223  -16.1904   18.5357 O   0  0  0  0  0  0  0  0  0  0  0  0
   10.5580  -15.9041   20.7823 C   0  0  0  0  0  0  0  0  0  0  0  0
    9.5977  -16.5731   21.7456 C   0  0  2  0  0  0  0  0  0  0  0  0
    8.2587  -16.3608   21.1852 N   0  0  0  0  0  0  0  0  0  0  0  0
    9.6738  -15.8643   23.0496 C   0  0  0  0  0  0  0  0  0  0  0  0
   10.8064  -15.7699   23.6280 O   0  0  0  0  0  0  0  0  0  0  0  0
    7.0630  -11.6598   26.5834 C   0  0  0  0  0  0  0  0  0  0  0  0
    8.0152  -12.8571   26.5464 C   0  0  0  0  0  0  0  0  0  0  0  0
    7.7617  -13.5746   25.2600 C   0  0  2  0  0  0  0  0  0  0  0  0
    6.3135  -13.9669   25.0659 C   0  0  0  0  0  0  0  0  0  0  0  0
    8.6867  -14.7424   25.0167 C   0  0  2  0  0  0  0  0  0  0  0  0
    8.5556  -15.2838   23.6915 N   0  0  0  0  0  0  0  0  0  0  0  0
    8.4845  -15.7829   26.0635 C   0  0  0  0  0  0  0  0  0  0  0  0
    7.3631  -16.3863   26.1821 O   0  0  0  0  0  0  0  0  0  0  0  0
   11.0026  -20.6355   26.5705 N   0  0  0  0  0  0  0  0  0  0  0  0
    9.8357  -19.8757   26.8750 C   0  0  0  0  0  0  0  0  0  0  0  0
    8.9221  -20.3146   27.6167 O   0  0  0  0  0  0  0  0  0  0  0  0
    9.7297  -18.5141   26.2737 C   0  0  0  0  0  0  0  0  0  0  0  0
    9.6574  -17.5452   27.4338 C   0  0  2  0  0  0  0  0  0  0  0  0
    9.4890  -16.1776   26.9868 N   0  0  0  0  0  0  0  0  0  0  0  0
   10.8284  -17.6992   28.3354 C   0  0  0  0  0  0  0  0  0  0  0  0
   10.6257  -18.1467   29.4890 O   0  0  0  0  0  0  0  0  0  0  0  0
   12.0928  -17.3667   27.9314 O   0  0  0  0  0  0  0  0  0  0  0  0
  1  2  1  0
  2  3  2  0
  4  5  1  0
  4  2  1  0
  5  6  1  6
  7  5  1  0
  8  7  2  0
  9 10  1  0
 10 11  1  0
 11 12  1  1
 13 11  1  0
 13 14  1  6
 14  7  1  0
 15 22  1  0
 15 13  1  0
 16 15  2  0
 18 17  1  0
 19 18  2  0
 20 18  1  0
 21 20  1  6
 21 22  1  0
 23 25  1  0
 23 21  1  0
 24 23  2  0
M  END
$$$$
