KRK.pdb
     RDKit          3D

 30 29  0  0  1  0  0  0  0  0999 V2000
   17.6529  -25.2658   -5.4745 N   0  0  0  0  0  0  0  0  0  0  0  0
   16.2430  -25.1795   -5.1814 C   0  0  1  0  0  0  0  0  0  0  0  0
   15.7741  -26.5854   -4.7791 C   0  0  0  0  0  0  0  0  0  0  0  0
   16.0032  -27.5546   -5.8984 C   0  0  0  0  0  0  0  0  0  0  0  0
   15.5834  -28.9462   -5.5202 C   0  0  0  0  0  0  0  0  0  0  0  0
   15.8384  -29.8780   -6.6729 C   0  0  0  0  0  0  0  0  0  0  0  0
   15.3840  -31.2281   -6.3504 N   0  0  0  0  0  0  0  0  0  0  0  0
   15.9564  -24.2730   -4.0449 C   0  0  0  0  0  0  0  0  0  0  0  0
   16.8762  -23.5717   -3.5087 O   0  0  0  0  0  0  0  0  0  0  0  0
    9.0961  -19.1837   -3.0156 N   0  0  0  0  0  0  0  0  0  0  0  0
    9.9870  -18.6085   -2.0817 C   0  0  0  0  0  0  0  0  0  0  0  0
    9.7388  -17.4860   -1.4823 N   0  0  0  0  0  0  0  0  0  0  0  0
   11.2183  -19.2961   -1.7845 N   0  0  0  0  0  0  0  0  0  0  0  0
   11.5316  -20.4723   -2.5570 C   0  0  0  0  0  0  0  0  0  0  0  0
   12.8294  -21.0852   -2.0741 C   0  0  0  0  0  0  0  0  0  0  0  0
   13.0961  -22.2942   -2.9448 C   0  0  0  0  0  0  0  0  0  0  0  0
   14.3722  -22.9921   -2.5693 C   0  0  2  0  0  0  0  0  0  0  0  0
   14.6674  -24.1088   -3.4668 N   0  0  0  0  0  0  0  0  0  0  0  0
   14.3485  -23.4492   -1.1539 C   0  0  0  0  0  0  0  0  0  0  0  0
   13.9971  -24.6399   -0.9133 O   0  0  0  0  0  0  0  0  0  0  0  0
   10.4194  -17.1103   -0.8131 N   0  0  0  0  0  0  0  0  0  0  0  0
   14.7058  -22.5906   -0.0910 C   0  0  2  0  0  0  0  0  0  0  0  0
   14.7199  -23.1043    1.3365 C   0  0  0  0  0  0  0  0  0  0  0  0
   15.3770  -22.0215    2.0841 C   0  0  0  0  0  0  0  0  0  0  0  0
   15.6719  -22.0269    3.4984 C   0  0  0  0  0  0  0  0  0  0  0  0
   16.3337  -20.9661    4.2510 C   0  0  0  0  0  0  0  0  0  0  0  0
   16.5037  -21.2398    5.7458 N   0  0  0  0  0  0  0  0  0  0  0  0
   17.1154  -20.1348    6.4288 C   0  0  0  0  0  0  0  0  0  0  0  0
   13.2270  -23.0853    1.6265 O   0  0  0  0  0  0  0  0  0  0  0  0
   12.7875  -23.8729    2.7245 O   0  0  0  0  0  0  0  0  0  0  0  0
  2  1  1  1
  3  2  1  0
  4  5  1  0
  4  3  1  0
  6  7  1  0
  6  5  1  0
  8  2  1  0
  9  8  2  0
 10 11  1  0
 11 12  2  0
 11 13  1  0
 13 14  1  0
 14 15  1  0
 15 16  1  0
 17 16  1  6
 17 19  1  0
 17 18  1  0
 18  8  1  0
 19 20  2  0
 21 22  1  0
 21 19  1  0
 22 28  1  0
 22 23  1  6
 24 23  1  0
 25 24  1  0
 26 25  1  0
 27 26  1  0
 28 30  2  0
 28 29  1  0
M  END
$$$$
