KRK.pdb
     RDKit          3D

 30 29  0  0  1  0  0  0  0  0999 V2000
   19.7847  -27.3499  -14.5043 N   0  0  0  0  0  0  0  0  0  0  0  0
   20.2899  -26.6724  -13.3352 C   0  0  1  0  0  0  0  0  0  0  0  0
   21.7962  -26.4607  -13.5462 C   0  0  0  0  0  0  0  0  0  0  0  0
   22.1033  -26.2963  -15.0034 C   0  0  0  0  0  0  0  0  0  0  0  0
   22.5882  -24.9092  -15.3138 C   0  0  0  0  0  0  0  0  0  0  0  0
   22.9286  -24.8120  -16.7755 C   0  0  0  0  0  0  0  0  0  0  0  0
   23.9697  -25.7751  -17.1243 N   0  0  0  0  0  0  0  0  0  0  0  0
   19.6755  -25.3375  -13.1457 C   0  0  0  0  0  0  0  0  0  0  0  0
   19.1790  -24.6916  -14.1264 O   0  0  0  0  0  0  0  0  0  0  0  0
   18.6168  -25.4372   -6.5245 N   0  0  0  0  0  0  0  0  0  0  0  0
   17.2688  -25.4893   -6.9452 C   0  0  0  0  0  0  0  0  0  0  0  0
   16.5437  -26.5577   -6.8291 N   0  0  0  0  0  0  0  0  0  0  0  0
   16.6780  -24.3096   -7.5252 N   0  0  0  0  0  0  0  0  0  0  0  0
   17.5434  -23.4171   -8.2551 C   0  0  0  0  0  0  0  0  0  0  0  0
   17.8198  -23.9701   -9.6374 C   0  0  0  0  0  0  0  0  0  0  0  0
   18.7282  -22.9800  -10.3342 C   0  0  0  0  0  0  0  0  0  0  0  0
   18.9774  -23.3519  -11.7681 C   0  0  2  0  0  0  0  0  0  0  0  0
   19.5870  -24.6760  -11.8899 N   0  0  0  0  0  0  0  0  0  0  0  0
   19.8042  -22.3282  -12.4620 C   0  0  0  0  0  0  0  0  0  0  0  0
   21.0585  -22.3625  -12.3052 O   0  0  0  0  0  0  0  0  0  0  0  0
   15.5812  -26.5551   -7.1838 N   0  0  0  0  0  0  0  0  0  0  0  0
   19.2223  -21.3346  -13.2797 C   0  0  2  0  0  0  0  0  0  0  0  0
   20.0960  -20.3091  -13.9775 C   0  0  0  0  0  0  0  0  0  0  0  0
   19.1853  -19.6890  -14.9519 C   0  0  0  0  0  0  0  0  0  0  0  0
   19.4861  -18.5472  -15.7845 C   0  0  0  0  0  0  0  0  0  0  0  0
   18.5955  -17.9248  -16.7587 C   0  0  0  0  0  0  0  0  0  0  0  0
   19.1734  -16.7075  -17.4814 N   0  0  0  0  0  0  0  0  0  0  0  0
   18.2102  -16.0894  -18.3485 C   0  0  0  0  0  0  0  0  0  0  0  0
   20.3300  -19.3484  -12.8218 O   0  0  0  0  0  0  0  0  0  0  0  0
   21.5052  -18.5526  -12.8910 O   0  0  0  0  0  0  0  0  0  0  0  0
  2  1  1  6
  3  2  1  0
  4  5  1  0
  4  3  1  0
  6  7  1  0
  6  5  1  0
  8  2  1  0
  9  8  2  0
 10 11  1  0
 11 12  2  0
 11 13  1  0
 13 14  1  0
 14 15  1  0
 15 16  1  0
 17 16  1  1
 17 19  1  0
 17 18  1  0
 18  8  1  0
 19 20  2  0
 21 22  1  0
 21 19  1  0
 22 28  1  0
 22 23  1  6
 24 23  1  0
 25 24  1  0
 26 25  1  0
 27 26  1  0
 28 30  2  0
 28 29  1  0
M  END
$$$$
