KRK.pdb
     RDKit          3D

 30 29  0  0  1  0  0  0  0  0999 V2000
   26.8906  -24.6437  -15.4463 N   0  0  0  0  0  0  0  0  0  0  0  0
   26.0093  -24.7823  -16.5799 C   0  0  1  0  0  0  0  0  0  0  0  0
   26.1305  -26.2301  -17.0772 C   0  0  0  0  0  0  0  0  0  0  0  0
   27.5595  -26.5619  -17.3816 C   0  0  0  0  0  0  0  0  0  0  0  0
   27.7005  -27.9547  -17.9257 C   0  0  0  0  0  0  0  0  0  0  0  0
   29.1502  -28.2391  -18.2072 C   0  0  0  0  0  0  0  0  0  0  0  0
   29.3169  -29.5997  -18.7113 N   0  0  0  0  0  0  0  0  0  0  0  0
   24.5896  -24.5518  -16.2237 C   0  0  0  0  0  0  0  0  0  0  0  0
   23.8310  -25.5134  -15.8699 O   0  0  0  0  0  0  0  0  0  0  0  0
   17.7923  -23.4377  -13.4539 N   0  0  0  0  0  0  0  0  0  0  0  0
   18.8484  -24.1494  -12.8417 C   0  0  0  0  0  0  0  0  0  0  0  0
   18.6488  -25.0217  -11.9036 N   0  0  0  0  0  0  0  0  0  0  0  0
   20.1988  -23.8955  -13.2769 N   0  0  0  0  0  0  0  0  0  0  0  0
   20.7511  -22.5892  -13.0184 C   0  0  0  0  0  0  0  0  0  0  0  0
   21.0038  -21.8606  -14.3215 C   0  0  0  0  0  0  0  0  0  0  0  0
   22.4477  -22.1171  -14.6965 C   0  0  0  0  0  0  0  0  0  0  0  0
   22.5736  -23.1015  -15.8243 C   0  0  2  0  0  0  0  0  0  0  0  0
   23.9640  -23.2748  -16.2441 N   0  0  0  0  0  0  0  0  0  0  0  0
   21.7204  -22.7184  -16.9812 C   0  0  0  0  0  0  0  0  0  0  0  0
   22.1121  -21.7782  -17.7306 O   0  0  0  0  0  0  0  0  0  0  0  0
   19.4331  -25.5930  -11.5709 N   0  0  0  0  0  0  0  0  0  0  0  0
   20.5003  -23.3756  -17.2529 C   0  0  2  0  0  0  0  0  0  0  0  0
   19.6604  -22.9671  -18.4486 C   0  0  0  0  0  0  0  0  0  0  0  0
   18.8134  -24.1448  -18.6911 C   0  0  0  0  0  0  0  0  0  0  0  0
   17.7787  -24.2516  -19.6938 C   0  0  0  0  0  0  0  0  0  0  0  0
   16.8875  -25.3880  -19.9036 C   0  0  0  0  0  0  0  0  0  0  0  0
   15.8334  -25.1934  -20.9940 N   0  0  0  0  0  0  0  0  0  0  0  0
   15.0969  -26.3988  -21.2516 C   0  0  0  0  0  0  0  0  0  0  0  0
   18.8268  -21.8680  -17.8081 O   0  0  0  0  0  0  0  0  0  0  0  0
   18.5091  -20.7553  -18.6327 O   0  0  0  0  0  0  0  0  0  0  0  0
  2  1  1  1
  3  2  1  0
  4  5  1  0
  4  3  1  0
  6  7  1  0
  6  5  1  0
  8  2  1  0
  9  8  2  0
 10 11  1  0
 11 12  2  0
 11 13  1  0
 13 14  1  0
 14 15  1  0
 15 16  1  0
 17 16  1  1
 17 19  1  0
 17 18  1  0
 18  8  1  0
 19 20  2  0
 21 22  1  0
 21 19  1  0
 22 28  1  0
 22 23  1  6
 24 23  1  0
 25 24  1  0
 26 25  1  0
 27 26  1  0
 28 30  2  0
 28 29  1  0
M  END
$$$$
