KRK.pdb
     RDKit          3D

 30 29  0  0  1  0  0  0  0  0999 V2000
   17.9334  -25.0499   -4.1469 N   0  0  0  0  0  0  0  0  0  0  0  0
   17.1292  -25.7456   -5.1218 C   0  0  1  0  0  0  0  0  0  0  0  0
   15.7353  -25.1017   -5.1061 C   0  0  0  0  0  0  0  0  0  0  0  0
   14.8464  -25.7997   -4.1226 C   0  0  0  0  0  0  0  0  0  0  0  0
   13.9734  -26.8213   -4.7934 C   0  0  0  0  0  0  0  0  0  0  0  0
   13.0660  -27.4531   -3.7739 C   0  0  0  0  0  0  0  0  0  0  0  0
   11.7490  -26.8223   -3.7995 N   0  0  0  0  0  0  0  0  0  0  0  0
   17.6656  -25.6113   -6.4965 C   0  0  0  0  0  0  0  0  0  0  0  0
   18.1096  -24.4970   -6.9284 O   0  0  0  0  0  0  0  0  0  0  0  0
   19.6481  -27.8523  -13.6446 N   0  0  0  0  0  0  0  0  0  0  0  0
   20.9886  -28.0879  -13.2648 C   0  0  0  0  0  0  0  0  0  0  0  0
   21.9911  -27.8072  -14.0374 N   0  0  0  0  0  0  0  0  0  0  0  0
   21.2510  -28.6620  -11.9691 N   0  0  0  0  0  0  0  0  0  0  0  0
   20.1287  -28.8661  -11.0875 C   0  0  0  0  0  0  0  0  0  0  0  0
   19.5493  -27.5337  -10.6609 C   0  0  0  0  0  0  0  0  0  0  0  0
   18.9487  -27.7347   -9.2862 C   0  0  0  0  0  0  0  0  0  0  0  0
   18.2842  -26.4899   -8.7709 C   0  0  2  0  0  0  0  0  0  0  0  0
   17.7313  -26.6818   -7.4304 N   0  0  0  0  0  0  0  0  0  0  0  0
   17.2346  -26.0040   -9.7064 C   0  0  0  0  0  0  0  0  0  0  0  0
   16.0880  -26.5344   -9.6500 O   0  0  0  0  0  0  0  0  0  0  0  0
   22.9473  -27.9148  -13.6822 N   0  0  0  0  0  0  0  0  0  0  0  0
   17.4918  -24.9774  -10.6415 C   0  0  2  0  0  0  0  0  0  0  0  0
   16.3919  -24.4914  -11.5667 C   0  0  0  0  0  0  0  0  0  0  0  0
   17.1074  -23.6488  -12.5370 C   0  0  0  0  0  0  0  0  0  0  0  0
   16.9919  -22.2140  -12.6597 C   0  0  0  0  0  0  0  0  0  0  0  0
   17.6974  -21.3649  -13.6142 C   0  0  0  0  0  0  0  0  0  0  0  0
   17.3103  -19.8861  -13.5771 N   0  0  0  0  0  0  0  0  0  0  0  0
   18.0920  -19.1024  -14.4918 C   0  0  0  0  0  0  0  0  0  0  0  0
   16.0138  -25.8098  -12.2240 O   0  0  0  0  0  0  0  0  0  0  0  0
   14.6481  -25.9666  -12.5838 O   0  0  0  0  0  0  0  0  0  0  0  0
  2  1  1  1
  3  2  1  0
  4  5  1  0
  4  3  1  0
  6  7  1  0
  6  5  1  0
  8  2  1  0
  9  8  2  0
 10 11  1  0
 11 12  2  0
 11 13  1  0
 13 14  1  0
 14 15  1  0
 15 16  1  0
 17 16  1  6
 17 19  1  0
 17 18  1  0
 18  8  1  0
 19 20  2  0
 21 22  1  0
 21 19  1  0
 22 28  1  0
 22 23  1  1
 24 23  1  0
 25 24  1  0
 26 25  1  0
 27 26  1  0
 28 30  2  0
 28 29  1  0
M  END
$$$$
