KRK.pdb
     RDKit          3D

 30 29  0  0  1  0  0  0  0  0999 V2000
   26.5277  -25.7304  -16.4087 N   0  0  0  0  0  0  0  0  0  0  0  0
   27.0016  -24.3812  -16.2183 C   0  0  1  0  0  0  0  0  0  0  0  0
   26.9833  -23.6936  -17.5913 C   0  0  0  0  0  0  0  0  0  0  0  0
   26.4648  -24.6300  -18.6397 C   0  0  0  0  0  0  0  0  0  0  0  0
   26.4490  -23.9872  -19.9970 C   0  0  0  0  0  0  0  0  0  0  0  0
   27.6936  -24.3714  -20.7487 C   0  0  0  0  0  0  0  0  0  0  0  0
   27.7400  -23.6951  -22.0424 N   0  0  0  0  0  0  0  0  0  0  0  0
   26.1263  -23.5966  -15.3163 C   0  0  0  0  0  0  0  0  0  0  0  0
   24.8898  -23.8777  -15.1836 O   0  0  0  0  0  0  0  0  0  0  0  0
   23.9376  -21.3566   -8.4679 N   0  0  0  0  0  0  0  0  0  0  0  0
   23.2304  -20.3628   -9.1813 C   0  0  0  0  0  0  0  0  0  0  0  0
   22.0392  -19.9778   -8.8441 N   0  0  0  0  0  0  0  0  0  0  0  0
   23.8576  -19.7542  -10.3275 N   0  0  0  0  0  0  0  0  0  0  0  0
   24.8601  -20.5185  -11.0267 C   0  0  0  0  0  0  0  0  0  0  0  0
   25.3851  -19.7339  -12.2106 C   0  0  0  0  0  0  0  0  0  0  0  0
   26.3526  -20.6380  -12.9439 C   0  0  0  0  0  0  0  0  0  0  0  0
   25.6461  -21.7119  -13.7211 C   0  0  2  0  0  0  0  0  0  0  0  0
   26.5733  -22.4917  -14.5406 N   0  0  0  0  0  0  0  0  0  0  0  0
   24.5519  -21.1501  -14.5579 C   0  0  0  0  0  0  0  0  0  0  0  0
   24.8565  -20.3388  -15.4787 O   0  0  0  0  0  0  0  0  0  0  0  0
   21.5506  -19.2852   -9.4217 N   0  0  0  0  0  0  0  0  0  0  0  0
   23.2006  -21.5013  -14.3454 C   0  0  2  0  0  0  0  0  0  0  0  0
   22.1021  -20.8477  -15.1628 C   0  0  0  0  0  0  0  0  0  0  0  0
   21.2988  -21.9874  -15.6309 C   0  0  0  0  0  0  0  0  0  0  0  0
   20.6544  -22.0967  -16.9194 C   0  0  0  0  0  0  0  0  0  0  0  0
   19.8671  -23.2262  -17.4030 C   0  0  0  0  0  0  0  0  0  0  0  0
   19.3442  -23.0878  -18.8332 N   0  0  0  0  0  0  0  0  0  0  0  0
   18.4325  -24.1426  -19.1770 C   0  0  0  0  0  0  0  0  0  0  0  0
   21.3558  -20.1257  -14.0515 O   0  0  0  0  0  0  0  0  0  0  0  0
   21.8410  -20.3274  -12.7312 O   0  0  0  0  0  0  0  0  0  0  0  0
  2  1  1  6
  3  2  1  0
  4  5  1  0
  4  3  1  0
  6  7  1  0
  6  5  1  0
  8  2  1  0
  9  8  2  0
 10 11  1  0
 11 12  2  0
 11 13  1  0
 13 14  1  0
 14 15  1  0
 15 16  1  0
 17 16  1  6
 17 19  1  0
 17 18  1  0
 18  8  1  0
 19 20  2  0
 21 22  1  0
 21 19  1  0
 22 28  1  0
 22 23  1  1
 24 23  1  0
 25 24  1  0
 26 25  1  0
 27 26  1  0
 28 30  2  0
 28 29  1  0
M  END
$$$$
