KRK.pdb
     RDKit          3D

 30 29  0  0  1  0  0  0  0  0999 V2000
   25.4118  -21.1213  -20.0061 N   0  0  0  0  0  0  0  0  0  0  0  0
   24.9914  -19.9471  -19.2812 C   0  0  1  0  0  0  0  0  0  0  0  0
   23.7379  -19.4032  -19.9819 C   0  0  0  0  0  0  0  0  0  0  0  0
   23.8573  -19.5613  -21.4670 C   0  0  0  0  0  0  0  0  0  0  0  0
   23.7258  -18.2440  -22.1763 C   0  0  0  0  0  0  0  0  0  0  0  0
   23.7517  -18.4697  -23.6630 C   0  0  0  0  0  0  0  0  0  0  0  0
   23.5668  -17.2086  -24.3760 N   0  0  0  0  0  0  0  0  0  0  0  0
   24.6205  -20.2509  -17.8792 C   0  0  0  0  0  0  0  0  0  0  0  0
   23.7170  -21.1072  -17.6037 O   0  0  0  0  0  0  0  0  0  0  0  0
   26.9852  -21.6950  -10.3327 N   0  0  0  0  0  0  0  0  0  0  0  0
   25.7283  -21.1629   -9.9670 C   0  0  0  0  0  0  0  0  0  0  0  0
   25.1588  -21.4363   -8.8348 N   0  0  0  0  0  0  0  0  0  0  0  0
   25.0540  -20.2827  -10.8878 N   0  0  0  0  0  0  0  0  0  0  0  0
   25.6456  -20.0944  -12.1889 C   0  0  0  0  0  0  0  0  0  0  0  0
   24.8207  -19.1196  -13.0028 C   0  0  0  0  0  0  0  0  0  0  0  0
   25.4556  -19.0438  -14.3747 C   0  0  0  0  0  0  0  0  0  0  0  0
   24.6767  -19.8142  -15.4026 C   0  0  2  0  0  0  0  0  0  0  0  0
   25.2211  -19.6327  -16.7480 N   0  0  0  0  0  0  0  0  0  0  0  0
   23.2318  -19.4619  -15.3697 C   0  0  0  0  0  0  0  0  0  0  0  0
   22.8733  -18.3519  -15.8580 O   0  0  0  0  0  0  0  0  0  0  0  0
   24.2134  -21.0851   -8.6479 N   0  0  0  0  0  0  0  0  0  0  0  0
   22.2689  -20.3312  -14.8116 C   0  0  2  0  0  0  0  0  0  0  0  0
   20.8136  -19.9099  -14.7289 C   0  0  0  0  0  0  0  0  0  0  0  0
   20.0866  -21.1884  -14.7177 C   0  0  0  0  0  0  0  0  0  0  0  0
   18.6631  -21.3514  -14.5324 C   0  0  0  0  0  0  0  0  0  0  0  0
   17.9281  -22.6121  -14.5209 C   0  0  0  0  0  0  0  0  0  0  0  0
   16.4194  -22.4817  -14.3089 N   0  0  0  0  0  0  0  0  0  0  0  0
   15.7616  -23.7580  -14.3260 C   0  0  0  0  0  0  0  0  0  0  0  0
   20.8033  -19.3101  -13.3313 O   0  0  0  0  0  0  0  0  0  0  0  0
   19.6884  -18.4923  -13.0039 O   0  0  0  0  0  0  0  0  0  0  0  0
  2  1  1  6
  3  2  1  0
  4  5  1  0
  4  3  1  0
  6  7  1  0
  6  5  1  0
  8  2  1  0
  9  8  2  0
 10 11  1  0
 11 12  2  0
 11 13  1  0
 13 14  1  0
 14 15  1  0
 15 16  1  0
 17 16  1  1
 17 19  1  0
 17 18  1  0
 18  8  1  0
 19 20  2  0
 21 22  1  0
 21 19  1  0
 22 28  1  0
 22 23  1  6
 24 23  1  0
 25 24  1  0
 26 25  1  0
 27 26  1  0
 28 30  2  0
 28 29  1  0
M  END
$$$$
