KRK.pdb
     RDKit          3D

 30 29  0  0  1  0  0  0  0  0999 V2000
   30.4072  -24.5342  -16.2946 N   0  0  0  0  0  0  0  0  0  0  0  0
   29.7579  -25.3590  -17.2841 C   0  0  1  0  0  0  0  0  0  0  0  0
   30.6562  -26.5823  -17.5183 C   0  0  0  0  0  0  0  0  0  0  0  0
   31.3139  -26.5001  -18.8620 C   0  0  0  0  0  0  0  0  0  0  0  0
   32.3348  -27.5862  -19.0459 C   0  0  0  0  0  0  0  0  0  0  0  0
   32.9970  -27.4305  -20.3872 C   0  0  0  0  0  0  0  0  0  0  0  0
   34.0888  -28.3895  -20.5339 N   0  0  0  0  0  0  0  0  0  0  0  0
   28.4389  -25.8567  -16.8279 C   0  0  0  0  0  0  0  0  0  0  0  0
   28.3209  -26.9878  -16.2518 O   0  0  0  0  0  0  0  0  0  0  0  0
   20.4085  -25.1665  -14.8640 N   0  0  0  0  0  0  0  0  0  0  0  0
   21.3461  -25.0156  -13.8175 C   0  0  0  0  0  0  0  0  0  0  0  0
   21.1918  -24.1516  -12.8633 N   0  0  0  0  0  0  0  0  0  0  0  0
   22.5182  -25.8542  -13.8111 N   0  0  0  0  0  0  0  0  0  0  0  0
   23.7306  -25.3147  -14.3744 C   0  0  0  0  0  0  0  0  0  0  0  0
   23.5851  -25.1541  -15.8731 C   0  0  0  0  0  0  0  0  0  0  0  0
   24.8997  -24.6076  -16.3870 C   0  0  0  0  0  0  0  0  0  0  0  0
   25.9521  -25.6740  -16.4969 C   0  0  2  0  0  0  0  0  0  0  0  0
   27.2218  -25.1385  -16.9873 N   0  0  0  0  0  0  0  0  0  0  0  0
   25.4962  -26.8053  -17.3485 C   0  0  0  0  0  0  0  0  0  0  0  0
   25.4515  -26.6342  -18.6006 O   0  0  0  0  0  0  0  0  0  0  0  0
   21.9327  -24.0354  -12.1634 N   0  0  0  0  0  0  0  0  0  0  0  0
   25.1185  -28.0473  -16.7922 C   0  0  2  0  0  0  0  0  0  0  0  0
   24.7196  -29.2004  -17.6939 C   0  0  0  0  0  0  0  0  0  0  0  0
   25.1160  -30.3899  -16.9250 C   0  0  0  0  0  0  0  0  0  0  0  0
   26.4525  -30.9302  -16.8302 C   0  0  0  0  0  0  0  0  0  0  0  0
   26.8683  -32.0837  -16.0389 C   0  0  0  0  0  0  0  0  0  0  0  0
   28.3670  -32.3851  -16.0687 N   0  0  0  0  0  0  0  0  0  0  0  0
   28.6968  -33.5509  -15.2981 C   0  0  0  0  0  0  0  0  0  0  0  0
   23.2072  -29.0477  -17.6451 O   0  0  0  0  0  0  0  0  0  0  0  0
   22.4865  -29.5439  -18.7647 O   0  0  0  0  0  0  0  0  0  0  0  0
  2  1  1  1
  3  2  1  0
  4  5  1  0
  4  3  1  0
  6  7  1  0
  6  5  1  0
  8  2  1  0
  9  8  2  0
 10 11  1  0
 11 12  2  0
 11 13  1  0
 13 14  1  0
 14 15  1  0
 15 16  1  0
 17 16  1  6
 17 19  1  0
 17 18  1  0
 18  8  1  0
 19 20  2  0
 21 22  1  0
 21 19  1  0
 22 28  1  0
 22 23  1  1
 24 23  1  0
 25 24  1  0
 26 25  1  0
 27 26  1  0
 28 30  2  0
 28 29  1  0
M  END
$$$$
