KRK.pdb
     RDKit          3D

 30 29  0  0  1  0  0  0  0  0999 V2000
   19.1491  -32.0966  -10.4076 N   0  0  0  0  0  0  0  0  0  0  0  0
   19.9605  -31.0460   -9.8428 C   0  0  1  0  0  0  0  0  0  0  0  0
   21.2000  -30.8966  -10.7368 C   0  0  0  0  0  0  0  0  0  0  0  0
   22.1863  -31.9879  -10.4521 C   0  0  0  0  0  0  0  0  0  0  0  0
   23.4054  -31.4628   -9.7493 C   0  0  0  0  0  0  0  0  0  0  0  0
   24.3993  -32.5769   -9.5685 C   0  0  0  0  0  0  0  0  0  0  0  0
   25.5854  -32.0961   -8.8647 N   0  0  0  0  0  0  0  0  0  0  0  0
   19.2627  -29.7390   -9.8280 C   0  0  0  0  0  0  0  0  0  0  0  0
   18.5652  -29.3492  -10.8215 O   0  0  0  0  0  0  0  0  0  0  0  0
   14.9302  -23.9989   -6.1639 N   0  0  0  0  0  0  0  0  0  0  0  0
   15.1716  -25.0588   -5.2611 C   0  0  0  0  0  0  0  0  0  0  0  0
   14.3412  -25.3715   -4.3159 N   0  0  0  0  0  0  0  0  0  0  0  0
   16.3874  -25.8210   -5.3965 N   0  0  0  0  0  0  0  0  0  0  0  0
   17.5124  -25.1800   -6.0302 C   0  0  0  0  0  0  0  0  0  0  0  0
   17.6461  -25.6534   -7.4624 C   0  0  0  0  0  0  0  0  0  0  0  0
   18.3068  -27.0144   -7.4163 C   0  0  0  0  0  0  0  0  0  0  0  0
   18.6122  -27.5424   -8.7891 C   0  0  2  0  0  0  0  0  0  0  0  0
   19.3073  -28.8283   -8.7366 N   0  0  0  0  0  0  0  0  0  0  0  0
   19.3882  -26.5594   -9.5920 C   0  0  0  0  0  0  0  0  0  0  0  0
   20.5415  -26.2324   -9.1893 O   0  0  0  0  0  0  0  0  0  0  0  0
   14.5847  -26.1194   -3.6575 N   0  0  0  0  0  0  0  0  0  0  0  0
   18.8680  -25.9940  -10.7770 C   0  0  2  0  0  0  0  0  0  0  0  0
   19.6556  -24.9396  -11.5320 C   0  0  0  0  0  0  0  0  0  0  0  0
   19.5109  -25.3453  -12.9384 C   0  0  0  0  0  0  0  0  0  0  0  0
   20.4237  -25.0228  -14.0108 C   0  0  0  0  0  0  0  0  0  0  0  0
   20.0972  -24.3172  -15.2458 C   0  0  0  0  0  0  0  0  0  0  0  0
   21.2221  -24.2648  -16.2801 N   0  0  0  0  0  0  0  0  0  0  0  0
   20.8720  -23.4580  -17.4151 C   0  0  0  0  0  0  0  0  0  0  0  0
   18.7775  -23.7274  -11.2626 O   0  0  0  0  0  0  0  0  0  0  0  0
   17.5188  -23.9826  -10.6545 O   0  0  0  0  0  0  0  0  0  0  0  0
  2  1  1  6
  3  2  1  0
  4  5  1  0
  4  3  1  0
  6  7  1  0
  6  5  1  0
  8  2  1  0
  9  8  2  0
 10 11  1  0
 11 12  2  0
 11 13  1  0
 13 14  1  0
 14 15  1  0
 15 16  1  0
 17 16  1  1
 17 19  1  0
 17 18  1  0
 18  8  1  0
 19 20  2  0
 21 22  1  0
 21 19  1  0
 22 28  1  0
 22 23  1  6
 24 23  1  0
 25 24  1  0
 26 25  1  0
 27 26  1  0
 28 30  2  0
 28 29  1  0
M  END
$$$$
