MYI.pdb
     RDKit          3D

 29 29  0  0  1  0  0  0  0  0999 V2000
   11.7132  -11.0310  -17.4700 C   0  0  0  0  0  0  0  0  0  0  0  0
   12.6240  -10.9650  -15.8952 S   0  0  0  0  0  0  0  0  0  0  0  0
   14.4014  -10.7859  -16.1844 C   0  0  0  0  0  0  0  0  0  0  0  0
   15.0988  -10.4471  -14.9005 C   0  0  0  0  0  0  0  0  0  0  0  0
   16.5775  -10.2363  -15.0971 C   0  0  2  0  0  0  0  0  0  0  0  0
   17.2208  -11.5326  -15.2005 N   0  0  0  0  0  0  0  0  0  0  0  0
   17.1506   -9.5436  -13.9040 C   0  0  0  0  0  0  0  0  0  0  0  0
   17.5411  -10.1931  -12.8795 O   0  0  0  0  0  0  0  0  0  0  0  0
   23.3615   -9.8640  -14.7028 O   0  0  0  0  0  0  0  0  0  0  0  0
   22.3069   -9.0903  -14.2521 C   0  0  0  0  0  0  0  0  0  0  0  0
   22.0593   -8.9706  -12.9152 C   0  0  0  0  0  0  0  0  0  0  0  0
   20.9843   -8.1805  -12.4817 C   0  0  0  0  0  0  0  0  0  0  0  0
   20.1752   -7.5244  -13.3735 C   0  0  0  0  0  0  0  0  0  0  0  0
   19.0611   -6.6992  -12.9325 C   0  0  0  0  0  0  0  0  0  0  0  0
   17.7894   -7.4283  -12.6714 C   0  0  2  0  0  0  0  0  0  0  0  0
   17.2942   -8.1317  -13.8380 N   0  0  0  0  0  0  0  0  0  0  0  0
   16.7089   -6.6220  -12.0593 C   0  0  0  0  0  0  0  0  0  0  0  0
   15.8254   -6.0748  -12.8073 O   0  0  0  0  0  0  0  0  0  0  0  0
   20.4509   -7.6651  -14.7139 C   0  0  0  0  0  0  0  0  0  0  0  0
   21.5179   -8.4487  -15.1588 C   0  0  0  0  0  0  0  0  0  0  0  0
   12.5338   -6.3311   -7.8329 C   0  0  0  0  0  0  0  0  0  0  0  0
   13.5162   -5.5068   -8.6492 C   0  0  0  0  0  0  0  0  0  0  0  0
   14.6296   -6.3392   -9.1832 C   0  0  2  0  0  0  0  0  0  0  0  0
   15.4263   -7.0385   -8.1324 C   0  0  0  0  0  0  0  0  0  0  0  0
   15.4858   -5.5341  -10.1246 C   0  0  2  0  0  0  0  0  0  0  0  0
   16.5475   -6.3905  -10.6844 N   0  0  0  0  0  0  0  0  0  0  0  0
   16.0277   -4.2956   -9.5771 C   0  0  0  0  0  0  0  0  0  0  0  0
   15.2915   -3.3195   -9.3180 O   0  0  0  0  0  0  0  0  0  0  0  0
   17.3864   -4.1082   -9.3041 O   0  0  0  0  0  0  0  0  0  0  0  0
  2  1  1  0
  3  2  1  0
  4  3  1  0
  4  5  1  0
  5  7  1  0
  5  6  1  1
  7  8  2  0
  9 10  1  0
 10 20  2  0
 10 11  1  0
 11 12  2  0
 12 13  1  0
 13 14  1  0
 15 14  1  6
 16 15  1  0
 16  7  1  0
 17 15  1  0
 18 17  2  0
 19 13  2  0
 20 19  1  0
 22 21  1  0
 23 24  1  1
 23 22  1  0
 25 23  1  0
 25 26  1  1
 26 17  1  0
 27 29  1  0
 27 25  1  0
 28 27  2  0
M  END
$$$$
