MYI.pdb
     RDKit          3D

 29 29  0  0  1  0  0  0  0  0999 V2000
   30.6659  -23.4494  -16.2388 C   0  0  0  0  0  0  0  0  0  0  0  0
   29.2892  -22.4577  -15.5796 S   0  0  0  0  0  0  0  0  0  0  0  0
   29.3819  -20.7502  -16.1720 C   0  0  0  0  0  0  0  0  0  0  0  0
   28.3893  -19.8978  -15.4386 C   0  0  0  0  0  0  0  0  0  0  0  0
   26.9806  -20.4097  -15.5909 C   0  0  2  0  0  0  0  0  0  0  0  0
   26.4011  -19.8241  -16.7850 N   0  0  0  0  0  0  0  0  0  0  0  0
   26.1552  -19.9673  -14.4269 C   0  0  0  0  0  0  0  0  0  0  0  0
   25.8888  -18.7372  -14.2275 O   0  0  0  0  0  0  0  0  0  0  0  0
   21.0775  -17.9256  -16.9602 O   0  0  0  0  0  0  0  0  0  0  0  0
   21.6321  -18.6380  -15.9120 C   0  0  0  0  0  0  0  0  0  0  0  0
   22.2466  -19.8355  -16.1387 C   0  0  0  0  0  0  0  0  0  0  0  0
   22.8019  -20.5400  -15.0602 C   0  0  0  0  0  0  0  0  0  0  0  0
   22.7409  -20.0509  -13.7806 C   0  0  0  0  0  0  0  0  0  0  0  0
   23.3182  -20.7726  -12.6570 C   0  0  0  0  0  0  0  0  0  0  0  0
   24.7547  -20.4899  -12.3856 C   0  0  2  0  0  0  0  0  0  0  0  0
   25.6217  -20.8814  -13.4792 N   0  0  0  0  0  0  0  0  0  0  0  0
   25.2744  -21.0162  -11.1029 C   0  0  0  0  0  0  0  0  0  0  0  0
   25.5372  -22.2642  -10.9901 O   0  0  0  0  0  0  0  0  0  0  0  0
   22.1151  -18.8415  -13.5851 C   0  0  0  0  0  0  0  0  0  0  0  0
   21.5580  -18.1300  -14.6500 C   0  0  0  0  0  0  0  0  0  0  0  0
   28.4957  -18.5454   -7.5226 C   0  0  0  0  0  0  0  0  0  0  0  0
   27.7225  -19.5681   -8.3393 C   0  0  0  0  0  0  0  0  0  0  0  0
   26.4145  -19.9049   -7.7121 C   0  0  2  0  0  0  0  0  0  0  0  0
   26.5211  -20.4015   -6.3086 C   0  0  0  0  0  0  0  0  0  0  0  0
   25.6265  -20.8313   -8.6000 C   0  0  2  0  0  0  0  0  0  0  0  0
   25.5211  -20.2519   -9.9518 N   0  0  0  0  0  0  0  0  0  0  0  0
   24.3230  -21.2359   -8.0860 C   0  0  0  0  0  0  0  0  0  0  0  0
   23.2862  -20.5928   -8.3570 O   0  0  0  0  0  0  0  0  0  0  0  0
   24.1355  -22.3536   -7.2666 O   0  0  0  0  0  0  0  0  0  0  0  0
  2  1  1  0
  3  2  1  0
  4  3  1  0
  4  5  1  0
  5  7  1  0
  5  6  1  6
  7  8  2  0
  9 10  1  0
 10 20  2  0
 10 11  1  0
 11 12  2  0
 12 13  1  0
 13 14  1  0
 15 14  1  6
 16 15  1  0
 16  7  1  0
 17 15  1  0
 18 17  2  0
 19 13  2  0
 20 19  1  0
 22 21  1  0
 23 24  1  1
 23 22  1  0
 25 23  1  0
 25 26  1  6
 26 17  1  0
 27 29  1  0
 27 25  1  0
 28 27  2  0
M  END
$$$$
