MYI.pdb
     RDKit          3D

 29 29  0  0  1  0  0  0  0  0999 V2000
   25.7209  -19.6402  -20.8518 C   0  0  0  0  0  0  0  0  0  0  0  0
   27.4469  -19.2006  -20.4757 S   0  0  0  0  0  0  0  0  0  0  0  0
   28.2187  -20.4560  -19.4255 C   0  0  0  0  0  0  0  0  0  0  0  0
   27.3826  -20.6863  -18.2017 C   0  0  0  0  0  0  0  0  0  0  0  0
   28.0590  -21.6048  -17.2176 C   0  0  2  0  0  0  0  0  0  0  0  0
   28.1089  -22.9383  -17.7870 N   0  0  0  0  0  0  0  0  0  0  0  0
   27.2516  -21.6814  -15.9629 C   0  0  0  0  0  0  0  0  0  0  0  0
   26.1979  -22.3943  -15.8905 O   0  0  0  0  0  0  0  0  0  0  0  0
   24.6710  -20.2609   -7.5698 O   0  0  0  0  0  0  0  0  0  0  0  0
   25.3844  -20.3424   -8.7524 C   0  0  0  0  0  0  0  0  0  0  0  0
   25.5086  -21.5354   -9.4038 C   0  0  0  0  0  0  0  0  0  0  0  0
   26.2367  -21.5938  -10.6015 C   0  0  0  0  0  0  0  0  0  0  0  0
   26.8274  -20.4763  -11.1331 C   0  0  0  0  0  0  0  0  0  0  0  0
   27.5803  -20.5269  -12.3770 C   0  0  0  0  0  0  0  0  0  0  0  0
   26.8167  -20.9903  -13.5682 C   0  0  2  0  0  0  0  0  0  0  0  0
   27.6049  -20.9709  -14.7845 N   0  0  0  0  0  0  0  0  0  0  0  0
   25.5145  -20.3207  -13.7879 C   0  0  0  0  0  0  0  0  0  0  0  0
   25.4767  -19.1897  -14.3869 O   0  0  0  0  0  0  0  0  0  0  0  0
   26.6839  -19.2893  -10.4527 C   0  0  0  0  0  0  0  0  0  0  0  0
   25.9618  -19.2174   -9.2595 C   0  0  0  0  0  0  0  0  0  0  0  0
   21.3308  -18.8971  -16.8506 C   0  0  0  0  0  0  0  0  0  0  0  0
   21.5652  -19.1145  -15.3644 C   0  0  0  0  0  0  0  0  0  0  0  0
   22.7933  -19.9167  -15.1078 C   0  0  2  0  0  0  0  0  0  0  0  0
   22.8597  -21.1935  -15.8781 C   0  0  0  0  0  0  0  0  0  0  0  0
   22.9934  -20.1170  -13.6289 C   0  0  2  0  0  0  0  0  0  0  0  0
   24.2655  -20.8239  -13.3918 N   0  0  0  0  0  0  0  0  0  0  0  0
   21.8858  -20.7545  -12.9260 C   0  0  0  0  0  0  0  0  0  0  0  0
   21.9038  -21.9729  -12.6484 O   0  0  0  0  0  0  0  0  0  0  0  0
   20.7404  -20.0651  -12.5153 O   0  0  0  0  0  0  0  0  0  0  0  0
  2  1  1  0
  3  2  1  0
  4  3  1  0
  4  5  1  0
  5  7  1  0
  5  6  1  6
  7  8  2  0
  9 10  1  0
 10 20  2  0
 10 11  1  0
 11 12  2  0
 12 13  1  0
 13 14  1  0
 15 14  1  1
 16 15  1  0
 16  7  1  0
 17 15  1  0
 18 17  2  0
 19 13  2  0
 20 19  1  0
 22 21  1  0
 23 24  1  6
 23 22  1  0
 25 23  1  0
 25 26  1  6
 26 17  1  0
 27 29  1  0
 27 25  1  0
 28 27  2  0
M  END
$$$$
