MYI.pdb
     RDKit          3D

 29 29  0  0  1  0  0  0  0  0999 V2000
   28.8952  -23.0246  -18.0301 C   0  0  0  0  0  0  0  0  0  0  0  0
   29.2104  -21.7232  -19.2632 S   0  0  0  0  0  0  0  0  0  0  0  0
   29.9305  -20.2568  -18.4847 C   0  0  0  0  0  0  0  0  0  0  0  0
   28.9209  -19.6037  -17.5880 C   0  0  0  0  0  0  0  0  0  0  0  0
   27.7417  -19.0681  -18.3576 C   0  0  2  0  0  0  0  0  0  0  0  0
   28.1234  -17.8125  -18.9761 N   0  0  0  0  0  0  0  0  0  0  0  0
   26.6150  -18.7829  -17.4189 C   0  0  0  0  0  0  0  0  0  0  0  0
   26.6227  -17.7598  -16.6592 O   0  0  0  0  0  0  0  0  0  0  0  0
   18.4782  -18.3027  -14.0996 O   0  0  0  0  0  0  0  0  0  0  0  0
   19.6116  -18.4938  -14.8695 C   0  0  0  0  0  0  0  0  0  0  0  0
   20.3852  -17.4308  -15.2364 C   0  0  0  0  0  0  0  0  0  0  0  0
   21.5300  -17.6489  -16.0173 C   0  0  0  0  0  0  0  0  0  0  0  0
   21.8897  -18.9092  -16.4206 C   0  0  0  0  0  0  0  0  0  0  0  0
   23.0778  -19.1449  -17.2265 C   0  0  0  0  0  0  0  0  0  0  0  0
   24.3404  -19.3413  -16.4620 C   0  0  2  0  0  0  0  0  0  0  0  0
   25.4766  -19.6265  -17.3156 N   0  0  0  0  0  0  0  0  0  0  0  0
   24.2674  -20.3238  -15.3567 C   0  0  0  0  0  0  0  0  0  0  0  0
   24.3032  -21.5766  -15.6192 O   0  0  0  0  0  0  0  0  0  0  0  0
   21.0894  -19.9594  -16.0344 C   0  0  0  0  0  0  0  0  0  0  0  0
   19.9470  -19.7561  -15.2572 C   0  0  0  0  0  0  0  0  0  0  0  0
   27.5719  -20.3066  -11.4536 C   0  0  0  0  0  0  0  0  0  0  0  0
   26.5039  -20.6299  -12.4860 C   0  0  0  0  0  0  0  0  0  0  0  0
   25.1470  -20.7021  -11.8769 C   0  0  2  0  0  0  0  0  0  0  0  0
   25.0596  -21.5994  -10.6873 C   0  0  0  0  0  0  0  0  0  0  0  0
   24.1142  -21.0215  -12.9252 C   0  0  2  0  0  0  0  0  0  0  0  0
   24.1619  -20.0065  -13.9936 N   0  0  0  0  0  0  0  0  0  0  0  0
   22.7563  -21.2166  -12.4300 C   0  0  0  0  0  0  0  0  0  0  0  0
   22.2048  -22.3376  -12.4617 O   0  0  0  0  0  0  0  0  0  0  0  0
   21.9814  -20.1846  -11.8909 O   0  0  0  0  0  0  0  0  0  0  0  0
  2  1  1  0
  3  2  1  0
  4  3  1  0
  4  5  1  0
  5  7  1  0
  5  6  1  1
  7  8  2  0
  9 10  1  0
 10 20  2  0
 10 11  1  0
 11 12  2  0
 12 13  1  0
 13 14  1  0
 15 14  1  6
 16 15  1  0
 16  7  1  0
 17 15  1  0
 18 17  2  0
 19 13  2  0
 20 19  1  0
 22 21  1  0
 23 24  1  1
 23 22  1  0
 25 23  1  0
 25 26  1  6
 26 17  1  0
 27 29  1  0
 27 25  1  0
 28 27  2  0
M  END
$$$$
