MYI.pdb
     RDKit          3D

 29 29  0  0  1  0  0  0  0  0999 V2000
   25.2836  -21.7053  -20.6641 C   0  0  0  0  0  0  0  0  0  0  0  0
   26.8408  -20.7957  -20.9120 S   0  0  0  0  0  0  0  0  0  0  0  0
   27.6551  -20.4667  -19.3297 C   0  0  0  0  0  0  0  0  0  0  0  0
   26.7817  -20.9218  -18.1984 C   0  0  0  0  0  0  0  0  0  0  0  0
   27.4982  -21.8739  -17.2767 C   0  0  2  0  0  0  0  0  0  0  0  0
   27.4481  -23.2039  -17.8541 N   0  0  0  0  0  0  0  0  0  0  0  0
   26.7929  -21.9279  -15.9608 C   0  0  0  0  0  0  0  0  0  0  0  0
   25.8113  -22.7159  -15.7622 O   0  0  0  0  0  0  0  0  0  0  0  0
   24.7293  -20.2667   -7.4816 O   0  0  0  0  0  0  0  0  0  0  0  0
   25.3614  -20.3366   -8.7102 C   0  0  0  0  0  0  0  0  0  0  0  0
   25.5490  -19.2091   -9.4562 C   0  0  0  0  0  0  0  0  0  0  0  0
   26.1927  -19.3046  -10.6990 C   0  0  0  0  0  0  0  0  0  0  0  0
   26.6386  -20.5081  -11.1816 C   0  0  0  0  0  0  0  0  0  0  0  0
   27.3112  -20.6155  -12.4672 C   0  0  0  0  0  0  0  0  0  0  0  0
   26.4651  -21.0985  -13.5932 C   0  0  2  0  0  0  0  0  0  0  0  0
   27.1688  -21.1120  -14.8603 N   0  0  0  0  0  0  0  0  0  0  0  0
   25.1555  -20.4231  -13.7388 C   0  0  0  0  0  0  0  0  0  0  0  0
   25.0865  -19.2992  -14.3483 O   0  0  0  0  0  0  0  0  0  0  0  0
   26.4344  -21.6259  -10.4060 C   0  0  0  0  0  0  0  0  0  0  0  0
   25.7950  -21.5448   -9.1670 C   0  0  0  0  0  0  0  0  0  0  0  0
   20.7893  -19.0660  -16.5720 C   0  0  0  0  0  0  0  0  0  0  0  0
   21.1092  -19.2547  -15.0979 C   0  0  0  0  0  0  0  0  0  0  0  0
   22.3307  -20.0823  -14.8966 C   0  0  2  0  0  0  0  0  0  0  0  0
   22.2942  -21.4025  -15.5919 C   0  0  0  0  0  0  0  0  0  0  0  0
   22.6497  -20.2044  -13.4300 C   0  0  2  0  0  0  0  0  0  0  0  0
   23.9311  -20.9133  -13.2586 N   0  0  0  0  0  0  0  0  0  0  0  0
   21.5982  -20.7888  -12.6053 C   0  0  0  0  0  0  0  0  0  0  0  0
   21.6182  -21.9955  -12.2806 O   0  0  0  0  0  0  0  0  0  0  0  0
   20.5078  -20.0583  -12.1224 O   0  0  0  0  0  0  0  0  0  0  0  0
  2  1  1  0
  3  2  1  0
  4  3  1  0
  4  5  1  0
  5  7  1  0
  5  6  1  6
  7  8  2  0
  9 10  1  0
 10 20  2  0
 10 11  1  0
 11 12  2  0
 12 13  1  0
 13 14  1  0
 15 14  1  1
 16 15  1  0
 16  7  1  0
 17 15  1  0
 18 17  2  0
 19 13  2  0
 20 19  1  0
 22 21  1  0
 23 24  1  1
 23 22  1  0
 25 23  1  0
 25 26  1  6
 26 17  1  0
 27 29  1  0
 27 25  1  0
 28 27  2  0
M  END
$$$$
