MYI.pdb
     RDKit          3D

 29 29  0  0  1  0  0  0  0  0999 V2000
   31.1540  -21.5854  -12.2900 C   0  0  0  0  0  0  0  0  0  0  0  0
   30.5210  -21.9527  -13.9568 S   0  0  0  0  0  0  0  0  0  0  0  0
   29.3975  -20.6514  -14.5219 C   0  0  0  0  0  0  0  0  0  0  0  0
   28.7132  -20.0180  -13.3471 C   0  0  0  0  0  0  0  0  0  0  0  0
   27.2290  -20.2760  -13.3487 C   0  0  2  0  0  0  0  0  0  0  0  0
   26.6069  -19.3974  -14.3213 N   0  0  0  0  0  0  0  0  0  0  0  0
   26.6579  -19.9407  -12.0096 C   0  0  0  0  0  0  0  0  0  0  0  0
   26.3432  -18.7455  -11.6991 O   0  0  0  0  0  0  0  0  0  0  0  0
   20.2254  -19.5334  -12.5109 O   0  0  0  0  0  0  0  0  0  0  0  0
   21.2950  -19.9632  -11.7460 C   0  0  0  0  0  0  0  0  0  0  0  0
   21.4932  -19.4626  -10.4918 C   0  0  0  0  0  0  0  0  0  0  0  0
   22.5846  -19.9135   -9.7346 C   0  0  0  0  0  0  0  0  0  0  0  0
   23.4584  -20.8482  -10.2278 C   0  0  0  0  0  0  0  0  0  0  0  0
   24.5901  -21.3248   -9.4477 C   0  0  0  0  0  0  0  0  0  0  0  0
   25.8809  -20.6275   -9.7018 C   0  0  2  0  0  0  0  0  0  0  0  0
   26.4328  -20.9237  -11.0089 N   0  0  0  0  0  0  0  0  0  0  0  0
   26.9139  -20.8018   -8.6553 C   0  0  0  0  0  0  0  0  0  0  0  0
   27.7454  -21.7716   -8.7412 O   0  0  0  0  0  0  0  0  0  0  0  0
   23.2313  -21.3332  -11.4950 C   0  0  0  0  0  0  0  0  0  0  0  0
   22.1486  -20.8927  -12.2594 C   0  0  0  0  0  0  0  0  0  0  0  0
   30.2868  -18.0559   -5.5936 C   0  0  0  0  0  0  0  0  0  0  0  0
   29.4745  -19.1679   -6.2373 C   0  0  0  0  0  0  0  0  0  0  0  0
   28.2495  -19.4860   -5.4526 C   0  0  2  0  0  0  0  0  0  0  0  0
   28.5170  -19.8830   -4.0388 C   0  0  0  0  0  0  0  0  0  0  0  0
   27.3967  -20.4860   -6.1876 C   0  0  2  0  0  0  0  0  0  0  0  0
   27.0818  -19.9744   -7.5341 N   0  0  0  0  0  0  0  0  0  0  0  0
   26.1960  -20.9240   -5.4851 C   0  0  0  0  0  0  0  0  0  0  0  0
   25.0973  -20.3520   -5.6515 O   0  0  0  0  0  0  0  0  0  0  0  0
   26.1809  -21.9977   -4.5891 O   0  0  0  0  0  0  0  0  0  0  0  0
  2  1  1  0
  3  2  1  0
  4  3  1  0
  4  5  1  0
  5  7  1  0
  5  6  1  6
  7  8  2  0
  9 10  1  0
 10 20  2  0
 10 11  1  0
 11 12  2  0
 12 13  1  0
 13 14  1  0
 15 14  1  1
 16 15  1  0
 16  7  1  0
 17 15  1  0
 18 17  2  0
 19 13  2  0
 20 19  1  0
 22 21  1  0
 23 24  1  1
 23 22  1  0
 25 23  1  0
 25 26  1  6
 26 17  1  0
 27 29  1  0
 27 25  1  0
 28 27  2  0
M  END
$$$$
