MYI.pdb
     RDKit          3D

 29 29  0  0  1  0  0  0  0  0999 V2000
   26.3639  -26.6983  -16.3995 C   0  0  0  0  0  0  0  0  0  0  0  0
   25.2370  -25.7988  -17.5107 S   0  0  0  0  0  0  0  0  0  0  0  0
   25.8960  -24.1617  -17.9115 C   0  0  0  0  0  0  0  0  0  0  0  0
   26.6120  -23.5915  -16.7232 C   0  0  0  0  0  0  0  0  0  0  0  0
   27.0093  -22.1542  -16.9368 C   0  0  2  0  0  0  0  0  0  0  0  0
   28.0818  -22.1099  -17.9130 N   0  0  0  0  0  0  0  0  0  0  0  0
   27.5378  -21.5828  -15.6617 C   0  0  0  0  0  0  0  0  0  0  0  0
   28.7100  -21.8566  -15.2435 O   0  0  0  0  0  0  0  0  0  0  0  0
   25.9886  -16.0629  -18.3074 O   0  0  0  0  0  0  0  0  0  0  0  0
   26.3765  -16.7244  -17.1560 C   0  0  0  0  0  0  0  0  0  0  0  0
   27.6052  -17.3136  -17.0779 C   0  0  0  0  0  0  0  0  0  0  0  0
   27.9766  -17.9788  -15.9000 C   0  0  0  0  0  0  0  0  0  0  0  0
   27.1307  -18.0501  -14.8232 C   0  0  0  0  0  0  0  0  0  0  0  0
   27.5096  -18.7339  -13.5962 C   0  0  0  0  0  0  0  0  0  0  0  0
   27.2320  -20.1965  -13.5674 C   0  0  2  0  0  0  0  0  0  0  0  0
   26.7738  -20.7076  -14.8440 N   0  0  0  0  0  0  0  0  0  0  0  0
   26.3371  -20.6520  -12.4793 C   0  0  0  0  0  0  0  0  0  0  0  0
   25.2503  -21.2645  -12.7675 O   0  0  0  0  0  0  0  0  0  0  0  0
   25.8995  -17.4464  -14.9333 C   0  0  0  0  0  0  0  0  0  0  0  0
   25.5172  -16.7810  -16.1002 C   0  0  0  0  0  0  0  0  0  0  0  0
   28.1997  -20.6950   -7.2974 C   0  0  0  0  0  0  0  0  0  0  0  0
   27.4770  -21.1573   -8.5523 C   0  0  0  0  0  0  0  0  0  0  0  0
   26.1533  -20.4929   -8.7070 C   0  0  2  0  0  0  0  0  0  0  0  0
   25.1955  -20.7763   -7.5979 C   0  0  0  0  0  0  0  0  0  0  0  0
   25.5734  -20.7819  -10.0663 C   0  0  2  0  0  0  0  0  0  0  0  0
   26.5719  -20.4750  -11.1069 N   0  0  0  0  0  0  0  0  0  0  0  0
   24.2906  -20.1483  -10.3494 C   0  0  0  0  0  0  0  0  0  0  0  0
   24.2222  -18.9781  -10.7828 O   0  0  0  0  0  0  0  0  0  0  0  0
   23.0615  -20.7888  -10.1625 O   0  0  0  0  0  0  0  0  0  0  0  0
  2  1  1  0
  3  2  1  0
  4  3  1  0
  4  5  1  0
  5  7  1  0
  5  6  1  6
  7  8  2  0
  9 10  1  0
 10 20  2  0
 10 11  1  0
 11 12  2  0
 12 13  1  0
 13 14  1  0
 15 14  1  6
 16 15  1  0
 16  7  1  0
 17 15  1  0
 18 17  2  0
 19 13  2  0
 20 19  1  0
 22 21  1  0
 23 24  1  1
 23 22  1  0
 25 23  1  0
 25 26  1  6
 26 17  1  0
 27 29  1  0
 27 25  1  0
 28 27  2  0
M  END
$$$$
