MYI.pdb
     RDKit          3D

 29 29  0  0  1  0  0  0  0  0999 V2000
   29.9112  -19.8876  -20.3747 C   0  0  0  0  0  0  0  0  0  0  0  0
   29.0842  -20.9532  -19.1524 S   0  0  0  0  0  0  0  0  0  0  0  0
   27.3028  -21.0291  -19.4623 C   0  0  0  0  0  0  0  0  0  0  0  0
   26.6426  -21.9149  -18.4478 C   0  0  0  0  0  0  0  0  0  0  0  0
   27.4285  -21.9914  -17.1649 C   0  0  2  0  0  0  0  0  0  0  0  0
   28.2543  -23.1838  -17.1976 N   0  0  0  0  0  0  0  0  0  0  0  0
   26.4927  -22.1239  -16.0079 C   0  0  0  0  0  0  0  0  0  0  0  0
   25.8835  -23.2164  -15.7647 O   0  0  0  0  0  0  0  0  0  0  0  0
   22.5530  -20.7057   -8.2178 O   0  0  0  0  0  0  0  0  0  0  0  0
   23.3315  -20.6074   -9.3572 C   0  0  0  0  0  0  0  0  0  0  0  0
   22.8748  -19.9289  -10.4499 C   0  0  0  0  0  0  0  0  0  0  0  0
   23.6819  -19.8425  -11.5941 C   0  0  0  0  0  0  0  0  0  0  0  0
   24.9221  -20.4258  -11.6387 C   0  0  0  0  0  0  0  0  0  0  0  0
   25.7676  -20.3372  -12.8194 C   0  0  0  0  0  0  0  0  0  0  0  0
   25.3250  -21.1508  -13.9853 C   0  0  2  0  0  0  0  0  0  0  0  0
   26.2264  -21.0506  -15.1160 N   0  0  0  0  0  0  0  0  0  0  0  0
   23.9270  -20.9298  -14.4201 C   0  0  0  0  0  0  0  0  0  0  0  0
   23.6236  -19.8631  -15.0600 O   0  0  0  0  0  0  0  0  0  0  0  0
   25.3535  -21.1025  -10.5213 C   0  0  0  0  0  0  0  0  0  0  0  0
   24.5600  -21.1961   -9.3759 C   0  0  0  0  0  0  0  0  0  0  0  0
   21.4630  -23.2005  -17.9858 C   0  0  0  0  0  0  0  0  0  0  0  0
   21.8384  -22.2260  -16.8812 C   0  0  0  0  0  0  0  0  0  0  0  0
   21.0109  -22.4264  -15.6595 C   0  0  2  0  0  0  0  0  0  0  0  0
   19.5397  -22.3606  -15.9019 C   0  0  0  0  0  0  0  0  0  0  0  0
   21.4623  -21.5029  -14.5590 C   0  0  2  0  0  0  0  0  0  0  0  0
   22.8576  -21.8104  -14.1948 N   0  0  0  0  0  0  0  0  0  0  0  0
   20.5986  -21.4560  -13.3848 C   0  0  0  0  0  0  0  0  0  0  0  0
   19.8110  -20.5052  -13.1914 O   0  0  0  0  0  0  0  0  0  0  0  0
   20.5842  -22.4526  -12.4036 O   0  0  0  0  0  0  0  0  0  0  0  0
  2  1  1  0
  3  2  1  0
  4  3  1  0
  4  5  1  0
  5  7  1  0
  5  6  1  6
  7  8  2  0
  9 10  1  0
 10 20  2  0
 10 11  1  0
 11 12  2  0
 12 13  1  0
 13 14  1  0
 15 14  1  1
 16 15  1  0
 16  7  1  0
 17 15  1  0
 18 17  2  0
 19 13  2  0
 20 19  1  0
 22 21  1  0
 23 24  1  6
 23 22  1  0
 25 23  1  0
 25 26  1  1
 26 17  1  0
 27 29  1  0
 27 25  1  0
 28 27  2  0
M  END
$$$$
