MYI.pdb
     RDKit          3D

 29 29  0  0  1  0  0  0  0  0999 V2000
   29.2869  -19.4682  -17.9318 C   0  0  0  0  0  0  0  0  0  0  0  0
   29.9438  -21.1234  -17.5543 S   0  0  0  0  0  0  0  0  0  0  0  0
   29.2941  -21.7319  -15.9786 C   0  0  0  0  0  0  0  0  0  0  0  0
   28.3310  -20.7371  -15.4020 C   0  0  0  0  0  0  0  0  0  0  0  0
   26.9812  -21.3477  -15.1287 C   0  0  2  0  0  0  0  0  0  0  0  0
   26.1112  -21.0731  -16.2568 N   0  0  0  0  0  0  0  0  0  0  0  0
   26.3725  -20.7060  -13.9246 C   0  0  0  0  0  0  0  0  0  0  0  0
   26.2361  -19.4419  -13.8398 O   0  0  0  0  0  0  0  0  0  0  0  0
   21.0272  -18.8859  -16.1120 O   0  0  0  0  0  0  0  0  0  0  0  0
   21.6949  -19.4541  -15.0418 C   0  0  0  0  0  0  0  0  0  0  0  0
   22.1449  -20.7408  -15.1123 C   0  0  0  0  0  0  0  0  0  0  0  0
   22.8194  -21.2957  -14.0146 C   0  0  0  0  0  0  0  0  0  0  0  0
   23.0371  -20.5723  -12.8702 C   0  0  0  0  0  0  0  0  0  0  0  0
   23.7398  -21.1384  -11.7289 C   0  0  0  0  0  0  0  0  0  0  0  0
   25.2051  -20.8774  -11.6865 C   0  0  2  0  0  0  0  0  0  0  0  0
   25.9129  -21.4579  -12.8103 N   0  0  0  0  0  0  0  0  0  0  0  0
   25.8771  -21.2324  -10.4158 C   0  0  0  0  0  0  0  0  0  0  0  0
   26.3534  -22.4105  -10.2587 O   0  0  0  0  0  0  0  0  0  0  0  0
   22.5713  -19.2785  -12.8305 C   0  0  0  0  0  0  0  0  0  0  0  0
   21.8982  -18.7140  -13.9162 C   0  0  0  0  0  0  0  0  0  0  0  0
   29.1168  -18.5656   -7.0495 C   0  0  0  0  0  0  0  0  0  0  0  0
   28.2979  -19.6101   -7.7907 C   0  0  0  0  0  0  0  0  0  0  0  0
   26.9862  -19.8577   -7.1307 C   0  0  2  0  0  0  0  0  0  0  0  0
   27.0898  -20.2303   -5.6890 C   0  0  0  0  0  0  0  0  0  0  0  0
   26.1706  -20.8397   -7.9294 C   0  0  2  0  0  0  0  0  0  0  0  0
   26.0545  -20.3705   -9.3225 N   0  0  0  0  0  0  0  0  0  0  0  0
   24.8684  -21.1787   -7.3668 C   0  0  0  0  0  0  0  0  0  0  0  0
   23.8243  -20.6066   -7.7467 O   0  0  0  0  0  0  0  0  0  0  0  0
   24.6905  -22.1520   -6.3783 O   0  0  0  0  0  0  0  0  0  0  0  0
  2  1  1  0
  3  2  1  0
  4  3  1  0
  4  5  1  0
  5  7  1  0
  5  6  1  6
  7  8  2  0
  9 10  1  0
 10 20  2  0
 10 11  1  0
 11 12  2  0
 12 13  1  0
 13 14  1  0
 15 14  1  1
 16 15  1  0
 16  7  1  0
 17 15  1  0
 18 17  2  0
 19 13  2  0
 20 19  1  0
 22 21  1  0
 23 24  1  1
 23 22  1  0
 25 23  1  0
 25 26  1  6
 26 17  1  0
 27 29  1  0
 27 25  1  0
 28 27  2  0
M  END
$$$$
