MYI.pdb
     RDKit          3D

 29 29  0  0  1  0  0  0  0  0999 V2000
   16.0817  -11.5646  -22.2764 C   0  0  0  0  0  0  0  0  0  0  0  0
   16.2079  -11.0708  -20.5289 S   0  0  0  0  0  0  0  0  0  0  0  0
   17.0932   -9.5011  -20.3638 C   0  0  0  0  0  0  0  0  0  0  0  0
   17.1408   -9.0877  -18.9228 C   0  0  0  0  0  0  0  0  0  0  0  0
   18.5383   -9.1430  -18.3631 C   0  0  2  0  0  0  0  0  0  0  0  0
   18.7560  -10.4575  -17.7890 N   0  0  0  0  0  0  0  0  0  0  0  0
   18.6804   -8.1424  -17.2628 C   0  0  0  0  0  0  0  0  0  0  0  0
   18.1978   -8.3541  -16.1026 O   0  0  0  0  0  0  0  0  0  0  0  0
   22.9009  -10.5757  -13.4728 O   0  0  0  0  0  0  0  0  0  0  0  0
   22.4368   -9.4268  -14.0880 C   0  0  0  0  0  0  0  0  0  0  0  0
   22.7091   -9.1893  -15.4042 C   0  0  0  0  0  0  0  0  0  0  0  0
   22.2280   -8.0173  -16.0067 C   0  0  0  0  0  0  0  0  0  0  0  0
   21.4885   -7.1034  -15.3008 C   0  0  0  0  0  0  0  0  0  0  0  0
   20.9816   -5.8878  -15.9189 C   0  0  0  0  0  0  0  0  0  0  0  0
   19.5653   -5.9448  -16.3747 C   0  0  2  0  0  0  0  0  0  0  0  0
   19.3552   -6.9050  -17.4401 N   0  0  0  0  0  0  0  0  0  0  0  0
   18.9591   -4.6414  -16.7295 C   0  0  0  0  0  0  0  0  0  0  0  0
   19.2102   -4.1152  -17.8695 O   0  0  0  0  0  0  0  0  0  0  0  0
   21.2312   -7.3717  -13.9763 C   0  0  0  0  0  0  0  0  0  0  0  0
   21.7043   -8.5346  -13.3643 C   0  0  0  0  0  0  0  0  0  0  0  0
   13.9998   -3.7340  -17.0966 C   0  0  0  0  0  0  0  0  0  0  0  0
   15.5156   -3.6409  -17.1642 C   0  0  0  0  0  0  0  0  0  0  0  0
   16.0509   -2.6150  -16.2269 C   0  0  2  0  0  0  0  0  0  0  0  0
   15.4332   -1.2652  -16.3828 C   0  0  0  0  0  0  0  0  0  0  0  0
   17.5551   -2.5784  -16.2876 C   0  0  2  0  0  0  0  0  0  0  0  0
   18.0989   -3.8955  -15.9088 N   0  0  0  0  0  0  0  0  0  0  0  0
   18.1878   -1.5000  -15.5367 C   0  0  0  0  0  0  0  0  0  0  0  0
   18.5191   -1.6448  -14.3404 O   0  0  0  0  0  0  0  0  0  0  0  0
   18.4682   -0.2450  -16.0865 O   0  0  0  0  0  0  0  0  0  0  0  0
  2  1  1  0
  3  2  1  0
  4  3  1  0
  4  5  1  0
  5  7  1  0
  5  6  1  1
  7  8  2  0
  9 10  1  0
 10 20  2  0
 10 11  1  0
 11 12  2  0
 12 13  1  0
 13 14  1  0
 15 14  1  6
 16 15  1  0
 16  7  1  0
 17 15  1  0
 18 17  2  0
 19 13  2  0
 20 19  1  0
 22 21  1  0
 23 24  1  6
 23 22  1  0
 25 23  1  0
 25 26  1  1
 26 17  1  0
 27 29  1  0
 27 25  1  0
 28 27  2  0
M  END
$$$$
