NGF.pdb
     RDKit          3D

 24 24  0  0  1  0  0  0  0  0999 V2000
    6.2435  -19.4745   17.2321 N   0  0  0  0  0  0  0  0  0  0  0  0
    6.0067  -20.3629   18.2957 C   0  0  0  0  0  0  0  0  0  0  0  0
    6.0967  -21.6132   18.0844 O   0  0  0  0  0  0  0  0  0  0  0  0
    5.6549  -19.8981   19.6598 C   0  0  0  0  0  0  0  0  0  0  0  0
    6.9061  -19.7740   20.4756 C   0  0  2  0  0  0  0  0  0  0  0  0
    7.1218  -21.0338   21.1502 N   0  0  0  0  0  0  0  0  0  0  0  0
    6.7973  -18.6403   21.4513 C   0  0  0  0  0  0  0  0  0  0  0  0
    7.1180  -17.4678   21.1101 O   0  0  0  0  0  0  0  0  0  0  0  0
    6.3356  -18.8761   22.7580 N   0  0  0  0  0  0  0  0  0  0  0  0
    6.2955  -17.8403   23.7579 C   0  0  0  0  0  0  0  0  0  0  0  0
    7.5858  -17.2423   24.0936 C   0  0  0  0  0  0  0  0  0  0  0  0
    8.6689  -17.7758   23.6651 O   0  0  0  0  0  0  0  0  0  0  0  0
    7.7937  -16.0761   24.8786 N   0  0  0  0  0  0  0  0  0  0  0  0
    9.1117  -15.5443   25.1705 C   0  0  1  0  0  0  0  0  0  0  0  0
    9.0857  -14.0878   24.8199 C   0  0  0  0  0  0  0  0  0  0  0  0
    8.0865  -13.2962   25.5653 C   0  0  0  0  0  0  0  0  0  0  0  0
    8.4322  -12.5313   26.6604 C   0  0  0  0  0  0  0  0  0  0  0  0
    7.4780  -11.8005   27.3359 C   0  0  0  0  0  0  0  0  0  0  0  0
    6.1506  -11.7994   26.9542 C   0  0  0  0  0  0  0  0  0  0  0  0
    5.8306  -12.5719   25.8566 C   0  0  0  0  0  0  0  0  0  0  0  0
    6.7642  -13.3092   25.1666 C   0  0  0  0  0  0  0  0  0  0  0  0
    9.5183  -15.8204   26.5601 C   0  0  0  0  0  0  0  0  0  0  0  0
    8.6657  -16.2179   27.3916 O   0  0  0  0  0  0  0  0  0  0  0  0
   10.8197  -15.6598   27.0017 O   0  0  0  0  0  0  0  0  0  0  0  0
  1  2  1  0
  2  3  2  0
  4  2  1  0
  5  4  1  0
  5  6  1  1
  7  9  1  0
  7  5  1  0
  8  7  2  0
 10  9  1  0
 10 11  1  0
 11 13  1  0
 12 11  2  0
 13 14  1  0
 14 22  1  0
 14 15  1  1
 15 16  1  0
 16 17  2  0
 17 18  1  0
 19 18  2  0
 20 19  1  0
 21 16  1  0
 21 20  2  0
 22 23  2  0
 22 24  1  0
M  END
$$$$
