NGF.pdb
     RDKit          3D

 24 24  0  0  1  0  0  0  0  0999 V2000
    8.1895  -12.5508   16.8796 N   0  0  0  0  0  0  0  0  0  0  0  0
    7.7664  -13.8532   16.5614 C   0  0  0  0  0  0  0  0  0  0  0  0
    7.9716  -14.2971   15.3881 O   0  0  0  0  0  0  0  0  0  0  0  0
    7.0875  -14.7336   17.5436 C   0  0  0  0  0  0  0  0  0  0  0  0
    8.1173  -15.5375   18.2783 C   0  0  2  0  0  0  0  0  0  0  0  0
    8.7089  -16.4634   17.3396 N   0  0  0  0  0  0  0  0  0  0  0  0
    7.5035  -16.2544   19.4438 C   0  0  0  0  0  0  0  0  0  0  0  0
    6.7878  -17.2785   19.2619 O   0  0  0  0  0  0  0  0  0  0  0  0
    7.7214  -15.7893   20.7524 N   0  0  0  0  0  0  0  0  0  0  0  0
    7.1012  -16.4013   21.8992 C   0  0  0  0  0  0  0  0  0  0  0  0
    7.9582  -16.5445   23.0740 C   0  0  0  0  0  0  0  0  0  0  0  0
    9.0921  -17.1319   22.9708 O   0  0  0  0  0  0  0  0  0  0  0  0
    7.6698  -16.0834   24.3868 N   0  0  0  0  0  0  0  0  0  0  0  0
    8.5715  -16.2739   25.5075 C   0  0  1  0  0  0  0  0  0  0  0  0
    9.1237  -14.9267   25.8615 C   0  0  0  0  0  0  0  0  0  0  0  0
    8.1023  -13.8784   26.0572 C   0  0  0  0  0  0  0  0  0  0  0  0
    7.7335  -13.4455   27.3143 C   0  0  0  0  0  0  0  0  0  0  0  0
    6.7781  -12.4633   27.4665 C   0  0  0  0  0  0  0  0  0  0  0  0
    6.1541  -11.8747   26.3840 C   0  0  0  0  0  0  0  0  0  0  0  0
    6.5402  -12.3247   25.1382 C   0  0  0  0  0  0  0  0  0  0  0  0
    7.4905  -13.3028   24.9607 C   0  0  0  0  0  0  0  0  0  0  0  0
    7.9124  -16.9665   26.6293 C   0  0  0  0  0  0  0  0  0  0  0  0
    6.6755  -17.1783   26.5906 O   0  0  0  0  0  0  0  0  0  0  0  0
    8.6042  -17.4036   27.7450 O   0  0  0  0  0  0  0  0  0  0  0  0
  1  2  1  0
  2  3  2  0
  4  2  1  0
  5  4  1  0
  5  6  1  6
  7  9  1  0
  7  5  1  0
  8  7  2  0
 10  9  1  0
 10 11  1  0
 11 13  1  0
 12 11  2  0
 13 14  1  0
 14 22  1  0
 14 15  1  1
 15 16  1  0
 16 17  2  0
 17 18  1  0
 19 18  2  0
 20 19  1  0
 21 16  1  0
 21 20  2  0
 22 23  2  0
 22 24  1  0
M  END
$$$$
