NGF.pdb
     RDKit          3D

 24 24  0  0  1  0  0  0  0  0999 V2000
    5.8355  -20.2890   19.3523 N   0  0  0  0  0  0  0  0  0  0  0  0
    5.6276  -18.9564   18.9554 C   0  0  0  0  0  0  0  0  0  0  0  0
    4.9253  -18.7251   17.9214 O   0  0  0  0  0  0  0  0  0  0  0  0
    6.1970  -17.8050   19.6976 C   0  0  0  0  0  0  0  0  0  0  0  0
    7.0591  -18.3157   20.8123 C   0  0  2  0  0  0  0  0  0  0  0  0
    6.2097  -18.5494   21.9578 N   0  0  0  0  0  0  0  0  0  0  0  0
    8.1538  -17.3412   21.1302 C   0  0  0  0  0  0  0  0  0  0  0  0
    9.3601  -17.7138   21.1435 O   0  0  0  0  0  0  0  0  0  0  0  0
    7.8433  -16.0004   21.4168 N   0  0  0  0  0  0  0  0  0  0  0  0
    8.8532  -15.0354   21.7680 C   0  0  0  0  0  0  0  0  0  0  0  0
    9.2814  -15.0557   23.1649 C   0  0  0  0  0  0  0  0  0  0  0  0
   10.3155  -14.3915   23.5267 O   0  0  0  0  0  0  0  0  0  0  0  0
    8.6529  -15.7599   24.2272 N   0  0  0  0  0  0  0  0  0  0  0  0
    9.1790  -15.7853   25.5791 C   0  0  1  0  0  0  0  0  0  0  0  0
    8.0333  -15.5014   26.5021 C   0  0  0  0  0  0  0  0  0  0  0  0
    7.5243  -14.1167   26.4386 C   0  0  0  0  0  0  0  0  0  0  0  0
    6.1978  -13.8389   26.1799 C   0  0  0  0  0  0  0  0  0  0  0  0
    5.7503  -12.5358   26.1287 C   0  0  0  0  0  0  0  0  0  0  0  0
    6.5960  -11.4627   26.3309 C   0  0  0  0  0  0  0  0  0  0  0  0
    7.9171  -11.7668   26.5879 C   0  0  0  0  0  0  0  0  0  0  0  0
    8.3872  -13.0579   26.6440 C   0  0  0  0  0  0  0  0  0  0  0  0
    9.8852  -17.0463   25.8686 C   0  0  0  0  0  0  0  0  0  0  0  0
   10.4086  -17.2227   26.9962 O   0  0  0  0  0  0  0  0  0  0  0  0
   10.0014  -18.0654   24.9400 O   0  0  0  0  0  0  0  0  0  0  0  0
  1  2  1  0
  2  3  2  0
  4  2  1  0
  5  4  1  0
  5  6  1  1
  7  9  1  0
  7  5  1  0
  8  7  2  0
 10  9  1  0
 10 11  1  0
 11 13  1  0
 12 11  2  0
 13 14  1  0
 14 22  1  0
 14 15  1  1
 15 16  1  0
 16 17  2  0
 17 18  1  0
 19 18  2  0
 20 19  1  0
 21 16  1  0
 21 20  2  0
 22 23  2  0
 22 24  1  0
M  END
$$$$
