NGF.pdb
     RDKit          3D

 24 24  0  0  1  0  0  0  0  0999 V2000
    7.8544  -12.1580   17.7595 N   0  0  0  0  0  0  0  0  0  0  0  0
    8.1095  -13.4839   17.3678 C   0  0  0  0  0  0  0  0  0  0  0  0
    8.6076  -13.7007   16.2185 O   0  0  0  0  0  0  0  0  0  0  0  0
    7.8197  -14.6445   18.2450 C   0  0  0  0  0  0  0  0  0  0  0  0
    7.1438  -14.1618   19.4927 C   0  0  2  0  0  0  0  0  0  0  0  0
    8.0529  -13.2661   20.1707 N   0  0  0  0  0  0  0  0  0  0  0  0
    6.7535  -15.3147   20.3689 C   0  0  0  0  0  0  0  0  0  0  0  0
    6.0145  -16.2366   19.9241 O   0  0  0  0  0  0  0  0  0  0  0  0
    7.2097  -15.3772   21.6972 N   0  0  0  0  0  0  0  0  0  0  0  0
    6.7570  -16.3871   22.6189 C   0  0  0  0  0  0  0  0  0  0  0  0
    7.3788  -16.3539   23.9408 C   0  0  0  0  0  0  0  0  0  0  0  0
    6.9204  -17.0923   24.8821 O   0  0  0  0  0  0  0  0  0  0  0  0
    8.4922  -15.5598   24.3269 N   0  0  0  0  0  0  0  0  0  0  0  0
    9.0342  -15.5595   25.6728 C   0  0  1  0  0  0  0  0  0  0  0  0
    7.9344  -15.1176   26.5896 C   0  0  0  0  0  0  0  0  0  0  0  0
    7.4060  -13.7681   26.3061 C   0  0  0  0  0  0  0  0  0  0  0  0
    8.1378  -12.8311   25.6060 C   0  0  0  0  0  0  0  0  0  0  0  0
    7.6178  -11.5793   25.3543 C   0  0  0  0  0  0  0  0  0  0  0  0
    6.3585  -11.2093   25.7845 C   0  0  0  0  0  0  0  0  0  0  0  0
    5.6471  -12.1638   26.4820 C   0  0  0  0  0  0  0  0  0  0  0  0
    6.1440  -13.4188   26.7455 C   0  0  0  0  0  0  0  0  0  0  0  0
    9.6231  -16.8636   26.0265 C   0  0  0  0  0  0  0  0  0  0  0  0
   10.0631  -17.0546   27.1868 O   0  0  0  0  0  0  0  0  0  0  0  0
    9.7164  -17.9084   25.1242 O   0  0  0  0  0  0  0  0  0  0  0  0
  1  2  1  0
  2  3  2  0
  4  2  1  0
  5  4  1  0
  5  6  1  1
  7  9  1  0
  7  5  1  0
  8  7  2  0
 10  9  1  0
 10 11  1  0
 11 13  1  0
 12 11  2  0
 13 14  1  0
 14 22  1  0
 14 15  1  1
 15 16  1  0
 16 17  2  0
 17 18  1  0
 19 18  2  0
 20 19  1  0
 21 16  1  0
 21 20  2  0
 22 23  2  0
 22 24  1  0
M  END
$$$$
