NGF.pdb
     RDKit          3D

 24 24  0  0  1  0  0  0  0  0999 V2000
    8.6488  -12.3365   17.0481 N   0  0  0  0  0  0  0  0  0  0  0  0
    8.0238  -13.5941   17.1149 C   0  0  0  0  0  0  0  0  0  0  0  0
    7.9643  -14.3079   16.0647 O   0  0  0  0  0  0  0  0  0  0  0  0
    7.4289  -14.1235   18.3665 C   0  0  0  0  0  0  0  0  0  0  0  0
    8.5172  -14.6888   19.2282 C   0  0  2  0  0  0  0  0  0  0  0  0
    8.9792  -15.9120   18.6127 N   0  0  0  0  0  0  0  0  0  0  0  0
    8.0232  -14.9289   20.6236 C   0  0  0  0  0  0  0  0  0  0  0  0
    7.6573  -13.9628   21.3494 O   0  0  0  0  0  0  0  0  0  0  0  0
    7.9636  -16.2369   21.1356 N   0  0  0  0  0  0  0  0  0  0  0  0
    7.4460  -16.5260   22.4481 C   0  0  0  0  0  0  0  0  0  0  0  0
    8.3313  -16.1872   23.5601 C   0  0  0  0  0  0  0  0  0  0  0  0
    9.5377  -15.8227   23.3292 O   0  0  0  0  0  0  0  0  0  0  0  0
    7.9954  -16.2126   24.9406 N   0  0  0  0  0  0  0  0  0  0  0  0
    8.9212  -15.8210   25.9869 C   0  0  1  0  0  0  0  0  0  0  0  0
    8.1240  -15.1050   27.0342 C   0  0  0  0  0  0  0  0  0  0  0  0
    7.5086  -13.8423   26.5787 C   0  0  0  0  0  0  0  0  0  0  0  0
    8.2045  -12.6509   26.5785 C   0  0  0  0  0  0  0  0  0  0  0  0
    7.6047  -11.4875   26.1454 C   0  0  0  0  0  0  0  0  0  0  0  0
    6.2982  -11.4598   25.6979 C   0  0  0  0  0  0  0  0  0  0  0  0
    5.6242  -12.6636   25.7079 C   0  0  0  0  0  0  0  0  0  0  0  0
    6.2006  -13.8369   26.1350 C   0  0  0  0  0  0  0  0  0  0  0  0
    9.6884  -16.9711   26.4980 C   0  0  0  0  0  0  0  0  0  0  0  0
    9.2854  -18.1387   26.2729 O   0  0  0  0  0  0  0  0  0  0  0  0
   10.8545  -16.8238   27.2281 O   0  0  0  0  0  0  0  0  0  0  0  0
  1  2  1  0
  2  3  2  0
  4  2  1  0
  5  4  1  0
  5  6  1  6
  7  9  1  0
  7  5  1  0
  8  7  2  0
 10  9  1  0
 10 11  1  0
 11 13  1  0
 12 11  2  0
 13 14  1  0
 14 22  1  0
 14 15  1  1
 15 16  1  0
 16 17  2  0
 17 18  1  0
 19 18  2  0
 20 19  1  0
 21 16  1  0
 21 20  2  0
 22 23  2  0
 22 24  1  0
M  END
$$$$
