HYP.pdb
     RDKit          3D

 30 32  0  0  1  0  0  0  0  0999 V2000
   19.4351  -15.9888  -16.0888 N   0  0  0  0  0  0  0  0  0  0  0  0
   19.1020  -14.6397  -16.4479 C   0  0  1  0  0  0  0  0  0  0  0  0
   17.7012  -14.3282  -16.0070 C   0  0  0  0  0  0  0  0  0  0  0  0
   16.7792  -15.0814  -16.9115 C   0  0  0  0  0  0  0  0  0  0  0  0
   17.0960  -15.6077  -18.1687 C   0  0  0  0  0  0  0  0  0  0  0  0
   16.0092  -16.2161  -18.6767 N   0  0  0  0  0  0  0  0  0  0  0  0
   15.0152  -16.0940  -17.7863 C   0  0  0  0  0  0  0  0  0  0  0  0
   15.4894  -15.4072  -16.7231 N   0  0  0  0  0  0  0  0  0  0  0  0
   20.1104  -13.7206  -15.8797 C   0  0  0  0  0  0  0  0  0  0  0  0
   20.5172  -13.9465  -14.7054 O   0  0  0  0  0  0  0  0  0  0  0  0
   25.9269  -16.3569  -16.8837 O   0  0  0  0  0  0  0  0  0  0  0  0
   25.1843  -15.1940  -16.8253 C   0  0  0  0  0  0  0  0  0  0  0  0
   25.2761  -14.3408  -15.7426 C   0  0  0  0  0  0  0  0  0  0  0  0
   24.5144  -13.1876  -15.7260 C   0  0  0  0  0  0  0  0  0  0  0  0
   23.6615  -12.8373  -16.7361 C   0  0  0  0  0  0  0  0  0  0  0  0
   22.8359  -11.6004  -16.7389 C   0  0  0  0  0  0  0  0  0  0  0  0
   21.6137  -11.7655  -15.8375 C   0  0  2  0  0  0  0  0  0  0  0  0
   20.6431  -12.6205  -16.5527 N   0  0  0  0  0  0  0  0  0  0  0  0
   20.9762  -10.4343  -15.7129 C   0  0  0  0  0  0  0  0  0  0  0  0
   20.1304  -10.0986  -16.6316 O   0  0  0  0  0  0  0  0  0  0  0  0
   23.5678  -13.6852  -17.8162 C   0  0  0  0  0  0  0  0  0  0  0  0
   24.3261  -14.8526  -17.8538 C   0  0  0  0  0  0  0  0  0  0  0  0
   21.1839   -9.4821  -14.6980 N   0  0  0  0  0  0  0  0  0  0  0  0
   22.0276   -9.7216  -13.5129 C   0  0  0  0  0  0  0  0  0  0  0  0
   21.3020   -8.8641  -12.4801 C   0  0  0  0  0  0  0  0  0  0  0  0
   21.1538   -7.5843  -13.2762 C   0  0  0  0  0  0  0  0  0  0  0  0
   20.6417   -8.1551  -14.6206 C   0  0  1  0  0  0  0  0  0  0  0  0
   21.1929   -7.2497  -15.6499 C   0  0  0  0  0  0  0  0  0  0  0  0
   20.6072   -6.0310  -15.9118 O   0  0  0  0  0  0  0  0  0  0  0  0
   22.2040   -7.5938  -16.2917 O   0  0  0  0  0  0  0  0  0  0  0  0
  2  1  1  1
  2  3  1  0
  3  4  1  0
  4  8  1  0
  5  4  2  0
  5  6  1  0
  6  7  1  0
  8  7  2  0
  9 18  1  0
  9  2  1  0
 10  9  2  0
 12 11  1  0
 13 12  2  0
 14 13  1  0
 15 14  2  0
 15 21  1  0
 17 16  1  6
 16 15  1  0
 17 18  1  0
 19 17  1  0
 20 19  2  0
 21 22  2  0
 22 12  1  0
 23 27  1  0
 23 19  1  0
 24 23  1  0
 25 26  1  0
 25 24  1  0
 26 27  1  0
 27 28  1  6
 28 30  2  0
 28 29  1  0
M  END
$$$$
