HYP.pdb
     RDKit          3D

 30 32  0  0  1  0  0  0  0  0999 V2000
   25.9635  -20.5322  -13.4466 N   0  0  0  0  0  0  0  0  0  0  0  0
   27.1311  -20.1907  -12.6851 C   0  0  1  0  0  0  0  0  0  0  0  0
   27.8601  -19.0609  -13.3528 C   0  0  0  0  0  0  0  0  0  0  0  0
   28.2142  -19.5211  -14.7307 C   0  0  0  0  0  0  0  0  0  0  0  0
   29.0617  -20.5851  -15.0585 C   0  0  0  0  0  0  0  0  0  0  0  0
   29.1340  -20.6926  -16.3973 N   0  0  0  0  0  0  0  0  0  0  0  0
   28.3626  -19.7346  -16.9294 C   0  0  0  0  0  0  0  0  0  0  0  0
   27.8109  -19.0318  -15.9151 N   0  0  0  0  0  0  0  0  0  0  0  0
   26.7348  -19.8878  -11.2938 C   0  0  0  0  0  0  0  0  0  0  0  0
   26.1680  -18.7811  -11.0711 O   0  0  0  0  0  0  0  0  0  0  0  0
   20.5108  -19.9255  -11.4168 O   0  0  0  0  0  0  0  0  0  0  0  0
   21.6659  -20.2917  -10.7542 C   0  0  0  0  0  0  0  0  0  0  0  0
   22.5816  -21.1484  -11.3340 C   0  0  0  0  0  0  0  0  0  0  0  0
   23.7242  -21.4882  -10.6347 C   0  0  0  0  0  0  0  0  0  0  0  0
   24.0047  -21.0174   -9.3816 C   0  0  0  0  0  0  0  0  0  0  0  0
   25.2290  -21.3683   -8.6138 C   0  0  0  0  0  0  0  0  0  0  0  0
   26.3524  -20.3753   -8.9063 C   0  0  2  0  0  0  0  0  0  0  0  0
   26.9442  -20.7415  -10.2102 N   0  0  0  0  0  0  0  0  0  0  0  0
   27.4117  -20.5997   -7.8957 C   0  0  0  0  0  0  0  0  0  0  0  0
   28.1326  -21.6654   -8.0255 O   0  0  0  0  0  0  0  0  0  0  0  0
   23.0943  -20.1637   -8.8012 C   0  0  0  0  0  0  0  0  0  0  0  0
   21.9363  -19.8080   -9.4879 C   0  0  0  0  0  0  0  0  0  0  0  0
   27.7310  -19.7775   -6.7995 N   0  0  0  0  0  0  0  0  0  0  0  0
   27.1536  -18.4376   -6.5874 C   0  0  0  0  0  0  0  0  0  0  0  0
   28.3160  -17.7451   -5.8818 C   0  0  0  0  0  0  0  0  0  0  0  0
   28.6399  -18.7965   -4.8409 C   0  0  0  0  0  0  0  0  0  0  0  0
   28.6374  -20.0672   -5.7245 C   0  0  1  0  0  0  0  0  0  0  0  0
   28.1491  -21.1432   -4.8374 C   0  0  0  0  0  0  0  0  0  0  0  0
   26.8911  -21.6806   -4.9977 O   0  0  0  0  0  0  0  0  0  0  0  0
   28.8870  -21.5718   -3.9293 O   0  0  0  0  0  0  0  0  0  0  0  0
  2  1  1  6
  2  3  1  0
  3  4  1  0
  4  8  1  0
  5  4  2  0
  5  6  1  0
  6  7  1  0
  8  7  2  0
  9 18  1  0
  9  2  1  0
 10  9  2  0
 12 11  1  0
 13 12  2  0
 14 13  1  0
 15 14  2  0
 15 21  1  0
 17 16  1  1
 16 15  1  0
 17 18  1  0
 19 17  1  0
 20 19  2  0
 21 22  2  0
 22 12  1  0
 23 27  1  0
 23 19  1  0
 24 23  1  0
 25 26  1  0
 25 24  1  0
 26 27  1  0
 27 28  1  1
 28 30  2  0
 28 29  1  0
M  END
$$$$
