HYP.pdb
     RDKit          3D

 30 32  0  0  1  0  0  0  0  0999 V2000
   22.7600   -6.4943  -16.8451 N   0  0  0  0  0  0  0  0  0  0  0  0
   22.3347   -7.8139  -17.2159 C   0  0  1  0  0  0  0  0  0  0  0  0
   23.3924   -8.8118  -16.8424 C   0  0  0  0  0  0  0  0  0  0  0  0
   24.5044   -8.6627  -17.8308 C   0  0  0  0  0  0  0  0  0  0  0  0
   24.6793   -9.4074  -19.0024 C   0  0  0  0  0  0  0  0  0  0  0  0
   25.7917   -8.9848  -19.6295 N   0  0  0  0  0  0  0  0  0  0  0  0
   26.3278   -7.9989  -18.8970 C   0  0  0  0  0  0  0  0  0  0  0  0
   25.5434   -7.8111  -17.8124 N   0  0  0  0  0  0  0  0  0  0  0  0
   21.0225   -8.0955  -16.5969 C   0  0  0  0  0  0  0  0  0  0  0  0
   20.8759   -7.8136  -15.3744 O   0  0  0  0  0  0  0  0  0  0  0  0
   17.8188   -2.4690  -16.3063 O   0  0  0  0  0  0  0  0  0  0  0  0
   17.7772   -3.8215  -16.5825 C   0  0  0  0  0  0  0  0  0  0  0  0
   18.4414   -4.3492  -17.6729 C   0  0  0  0  0  0  0  0  0  0  0  0
   18.3725   -5.7088  -17.9115 C   0  0  0  0  0  0  0  0  0  0  0  0
   17.6733   -6.5754  -17.1173 C   0  0  0  0  0  0  0  0  0  0  0  0
   17.5891   -8.0410  -17.3549 C   0  0  0  0  0  0  0  0  0  0  0  0
   18.6536   -8.7807  -16.5466 C   0  0  2  0  0  0  0  0  0  0  0  0
   19.9351   -8.6516  -17.2715 N   0  0  0  0  0  0  0  0  0  0  0  0
   18.3068  -10.2204  -16.5765 C   0  0  0  0  0  0  0  0  0  0  0  0
   18.6867  -10.8958  -17.6117 O   0  0  0  0  0  0  0  0  0  0  0  0
   17.0105   -6.0527  -16.0302 C   0  0  0  0  0  0  0  0  0  0  0  0
   17.0664   -4.6857  -15.7709 C   0  0  0  0  0  0  0  0  0  0  0  0
   17.6064  -10.9483  -15.5971 N   0  0  0  0  0  0  0  0  0  0  0  0
   17.1641  -10.3747  -14.3130 C   0  0  0  0  0  0  0  0  0  0  0  0
   17.2508  -11.6064  -13.4164 C   0  0  0  0  0  0  0  0  0  0  0  0
   16.5230  -12.6054  -14.2915 C   0  0  0  0  0  0  0  0  0  0  0  0
   17.2042  -12.3254  -15.6527 C   0  0  1  0  0  0  0  0  0  0  0  0
   16.1525  -12.5751  -16.6600 C   0  0  0  0  0  0  0  0  0  0  0  0
   15.7945  -13.8580  -17.0107 O   0  0  0  0  0  0  0  0  0  0  0  0
   15.5798  -11.6099  -17.2013 O   0  0  0  0  0  0  0  0  0  0  0  0
  2  1  1  1
  2  3  1  0
  3  4  1  0
  4  8  1  0
  5  4  2  0
  5  6  1  0
  6  7  1  0
  8  7  2  0
  9 18  1  0
  9  2  1  0
 10  9  2  0
 12 11  1  0
 13 12  2  0
 14 13  1  0
 15 14  2  0
 15 21  1  0
 17 16  1  6
 16 15  1  0
 17 18  1  0
 19 17  1  0
 20 19  2  0
 21 22  2  0
 22 12  1  0
 23 27  1  0
 23 19  1  0
 24 23  1  0
 25 26  1  0
 25 24  1  0
 26 27  1  0
 27 28  1  6
 28 30  2  0
 28 29  1  0
M  END
$$$$
