HYP.pdb
     RDKit          3D

 30 32  0  0  1  0  0  0  0  0999 V2000
   20.4831  -20.4431  -12.8158 N   0  0  0  0  0  0  0  0  0  0  0  0
   21.6411  -21.0929  -13.3605 C   0  0  1  0  0  0  0  0  0  0  0  0
   21.7029  -20.8616  -14.8426 C   0  0  0  0  0  0  0  0  0  0  0  0
   20.7304  -21.8054  -15.4744 C   0  0  0  0  0  0  0  0  0  0  0  0
   20.8276  -23.2009  -15.5044 C   0  0  0  0  0  0  0  0  0  0  0  0
   19.7657  -23.7012  -16.1612 N   0  0  0  0  0  0  0  0  0  0  0  0
   18.9991  -22.6724  -16.5484 C   0  0  0  0  0  0  0  0  0  0  0  0
   19.5897  -21.5311  -16.1291 N   0  0  0  0  0  0  0  0  0  0  0  0
   22.8460  -20.6219  -12.6459 C   0  0  0  0  0  0  0  0  0  0  0  0
   23.1618  -19.4045  -12.7637 O   0  0  0  0  0  0  0  0  0  0  0  0
   29.0799  -18.8252   -6.9257 O   0  0  0  0  0  0  0  0  0  0  0  0
   28.1354  -19.4953   -7.6782 C   0  0  0  0  0  0  0  0  0  0  0  0
   26.8089  -19.1094   -7.6689 C   0  0  0  0  0  0  0  0  0  0  0  0
   25.8976  -19.8087   -8.4373 C   0  0  0  0  0  0  0  0  0  0  0  0
   26.2392  -20.8780   -9.2187 C   0  0  0  0  0  0  0  0  0  0  0  0
   25.2750  -21.6416  -10.0545 C   0  0  0  0  0  0  0  0  0  0  0  0
   24.9065  -20.8530  -11.3099 C   0  0  2  0  0  0  0  0  0  0  0  0
   23.6580  -21.4308  -11.8502 N   0  0  0  0  0  0  0  0  0  0  0  0
   25.9554  -21.1207  -12.3209 C   0  0  0  0  0  0  0  0  0  0  0  0
   26.1227  -22.3505  -12.6838 O   0  0  0  0  0  0  0  0  0  0  0  0
   27.5599  -21.2649   -9.2300 C   0  0  0  0  0  0  0  0  0  0  0  0
   28.4952  -20.5745   -8.4634 C   0  0  0  0  0  0  0  0  0  0  0  0
   26.7991  -20.1816  -12.9421 N   0  0  0  0  0  0  0  0  0  0  0  0
   26.8513  -18.7565  -12.5678 C   0  0  0  0  0  0  0  0  0  0  0  0
   27.1917  -18.1295  -13.9167 C   0  0  0  0  0  0  0  0  0  0  0  0
   28.3391  -19.0281  -14.3287 C   0  0  0  0  0  0  0  0  0  0  0  0
   27.7295  -20.4147  -14.0103 C   0  0  1  0  0  0  0  0  0  0  0  0
   28.8787  -21.2469  -13.5980 C   0  0  0  0  0  0  0  0  0  0  0  0
   29.1101  -21.5316  -12.2704 O   0  0  0  0  0  0  0  0  0  0  0  0
   29.6514  -21.6987  -14.4649 O   0  0  0  0  0  0  0  0  0  0  0  0
  2  1  1  1
  2  3  1  0
  3  4  1  0
  4  8  1  0
  5  4  2  0
  5  6  1  0
  6  7  1  0
  8  7  2  0
  9 18  1  0
  9  2  1  0
 10  9  2  0
 12 11  1  0
 13 12  2  0
 14 13  1  0
 15 14  2  0
 15 21  1  0
 17 16  1  1
 16 15  1  0
 17 18  1  0
 19 17  1  0
 20 19  2  0
 21 22  2  0
 22 12  1  0
 23 27  1  0
 23 19  1  0
 24 23  1  0
 25 26  1  0
 25 24  1  0
 26 27  1  0
 27 28  1  1
 28 30  2  0
 28 29  1  0
M  END
$$$$
