HYP.pdb
     RDKit          3D

 30 32  0  0  1  0  0  0  0  0999 V2000
   20.1626  -20.7831  -12.2752 N   0  0  0  0  0  0  0  0  0  0  0  0
   21.0454  -20.8788  -13.4028 C   0  0  1  0  0  0  0  0  0  0  0  0
   20.5641  -19.9768  -14.5022 C   0  0  0  0  0  0  0  0  0  0  0  0
   19.4027  -20.6587  -15.1518 C   0  0  0  0  0  0  0  0  0  0  0  0
   19.3532  -21.9913  -15.5754 C   0  0  0  0  0  0  0  0  0  0  0  0
   18.1440  -22.2374  -16.1108 N   0  0  0  0  0  0  0  0  0  0  0  0
   17.4257  -21.1081  -16.0415 C   0  0  0  0  0  0  0  0  0  0  0  0
   18.1941  -20.1599  -15.4608 N   0  0  0  0  0  0  0  0  0  0  0  0
   22.4264  -20.5823  -12.9677 C   0  0  0  0  0  0  0  0  0  0  0  0
   22.6551  -19.4440  -12.4700 O   0  0  0  0  0  0  0  0  0  0  0  0
   27.6794  -19.3719   -7.1949 O   0  0  0  0  0  0  0  0  0  0  0  0
   27.1432  -20.0252   -8.2872 C   0  0  0  0  0  0  0  0  0  0  0  0
   27.9531  -20.6587   -9.2097 C   0  0  0  0  0  0  0  0  0  0  0  0
   27.3736  -21.3004  -10.2879 C   0  0  0  0  0  0  0  0  0  0  0  0
   26.0227  -21.3447  -10.4972 C   0  0  0  0  0  0  0  0  0  0  0  0
   25.3795  -22.0317  -11.6485 C   0  0  0  0  0  0  0  0  0  0  0  0
   24.8338  -21.0136  -12.6481 C   0  0  2  0  0  0  0  0  0  0  0  0
   23.4942  -21.4745  -13.0695 N   0  0  0  0  0  0  0  0  0  0  0  0
   25.6904  -21.0796  -13.8548 C   0  0  0  0  0  0  0  0  0  0  0  0
   25.5147  -22.0866  -14.6468 O   0  0  0  0  0  0  0  0  0  0  0  0
   25.2131  -20.7144   -9.5798 C   0  0  0  0  0  0  0  0  0  0  0  0
   25.7757  -20.0618   -8.4859 C   0  0  0  0  0  0  0  0  0  0  0  0
   26.6827  -20.1622  -14.2461 N   0  0  0  0  0  0  0  0  0  0  0  0
   27.0967  -19.0076  -13.4279 C   0  0  0  0  0  0  0  0  0  0  0  0
   27.4737  -18.0145  -14.5234 C   0  0  0  0  0  0  0  0  0  0  0  0
   28.3433  -18.9077  -15.3834 C   0  0  0  0  0  0  0  0  0  0  0  0
   27.4500  -20.1694  -15.4595 C   0  0  1  0  0  0  0  0  0  0  0  0
   28.3984  -21.3001  -15.5313 C   0  0  0  0  0  0  0  0  0  0  0  0
   28.7035  -22.0439  -14.4130 O   0  0  0  0  0  0  0  0  0  0  0  0
   28.9310  -21.5858  -16.6209 O   0  0  0  0  0  0  0  0  0  0  0  0
  2  1  1  1
  2  3  1  0
  3  4  1  0
  4  8  1  0
  5  4  2  0
  5  6  1  0
  6  7  1  0
  8  7  2  0
  9 18  1  0
  9  2  1  0
 10  9  2  0
 12 11  1  0
 13 12  2  0
 14 13  1  0
 15 14  2  0
 15 21  1  0
 17 16  1  1
 16 15  1  0
 17 18  1  0
 19 17  1  0
 20 19  2  0
 21 22  2  0
 22 12  1  0
 23 27  1  0
 23 19  1  0
 24 23  1  0
 25 26  1  0
 25 24  1  0
 26 27  1  0
 27 28  1  1
 28 30  2  0
 28 29  1  0
M  END
$$$$
