HYP.pdb
     RDKit          3D

 30 32  0  0  1  0  0  0  0  0999 V2000
   25.9742  -20.5789  -13.5371 N   0  0  0  0  0  0  0  0  0  0  0  0
   27.1764  -20.2961  -12.8061 C   0  0  1  0  0  0  0  0  0  0  0  0
   27.9681  -19.2393  -13.5204 C   0  0  0  0  0  0  0  0  0  0  0  0
   28.2847  -19.7732  -14.8807 C   0  0  0  0  0  0  0  0  0  0  0  0
   29.1301  -20.8487  -15.1744 C   0  0  0  0  0  0  0  0  0  0  0  0
   29.1636  -21.0299  -16.5069 N   0  0  0  0  0  0  0  0  0  0  0  0
   28.3696  -20.1074  -17.0678 C   0  0  0  0  0  0  0  0  0  0  0  0
   27.8429  -19.3528  -16.0778 N   0  0  0  0  0  0  0  0  0  0  0  0
   26.8278  -19.9256  -11.4184 C   0  0  0  0  0  0  0  0  0  0  0  0
   26.3998  -18.7552  -11.2116 O   0  0  0  0  0  0  0  0  0  0  0  0
   20.6252  -20.1105  -11.7943 O   0  0  0  0  0  0  0  0  0  0  0  0
   21.7370  -20.3794  -11.0204 C   0  0  0  0  0  0  0  0  0  0  0  0
   21.9502  -19.7236   -9.8233 C   0  0  0  0  0  0  0  0  0  0  0  0
   23.0765  -20.0240   -9.0808 C   0  0  0  0  0  0  0  0  0  0  0  0
   24.0069  -20.9481   -9.4696 C   0  0  0  0  0  0  0  0  0  0  0  0
   25.2232  -21.2879   -8.6843 C   0  0  0  0  0  0  0  0  0  0  0  0
   26.3708  -20.3409   -9.0304 C   0  0  2  0  0  0  0  0  0  0  0  0
   26.9394  -20.7809  -10.3218 N   0  0  0  0  0  0  0  0  0  0  0  0
   27.4334  -20.5501   -8.0200 C   0  0  0  0  0  0  0  0  0  0  0  0
   28.2247  -21.5573   -8.1979 O   0  0  0  0  0  0  0  0  0  0  0  0
   23.7973  -21.6032  -10.6617 C   0  0  0  0  0  0  0  0  0  0  0  0
   22.6691  -21.3161  -11.4259 C   0  0  0  0  0  0  0  0  0  0  0  0
   27.6873  -19.7700   -6.8769 N   0  0  0  0  0  0  0  0  0  0  0  0
   27.0364  -18.4742   -6.6107 C   0  0  0  0  0  0  0  0  0  0  0  0
   28.1466  -17.7601   -5.8452 C   0  0  0  0  0  0  0  0  0  0  0  0
   28.5044  -18.8455   -4.8515 C   0  0  0  0  0  0  0  0  0  0  0  0
   28.5861  -20.0677   -5.7977 C   0  0  1  0  0  0  0  0  0  0  0  0
   28.1374  -21.2114   -4.9770 C   0  0  0  0  0  0  0  0  0  0  0  0
   28.9364  -21.7287   -3.9815 O   0  0  0  0  0  0  0  0  0  0  0  0
   27.0181  -21.7166   -5.1884 O   0  0  0  0  0  0  0  0  0  0  0  0
  2  1  1  6
  2  3  1  0
  3  4  1  0
  4  8  1  0
  5  4  2  0
  5  6  1  0
  6  7  1  0
  8  7  2  0
  9 18  1  0
  9  2  1  0
 10  9  2  0
 12 11  1  0
 13 12  2  0
 14 13  1  0
 15 14  2  0
 15 21  1  0
 17 16  1  1
 16 15  1  0
 17 18  1  0
 19 17  1  0
 20 19  2  0
 21 22  2  0
 22 12  1  0
 23 27  1  0
 23 19  1  0
 24 23  1  0
 25 26  1  0
 25 24  1  0
 26 27  1  0
 27 28  1  1
 28 30  2  0
 28 29  1  0
M  END
$$$$
