QWP.pdb
     RDKit          3D

 31 33  0  0  1  0  0  0  0  0999 V2000
    8.5942  -12.7947   18.3783 N   0  0  0  0  0  0  0  0  0  0  0  0
    8.6325  -14.1958   18.0612 C   0  0  0  0  0  0  0  0  0  0  0  0
    8.3974  -14.4826   16.8687 O   0  0  0  0  0  0  0  0  0  0  0  0
    8.9223  -15.2208   19.0626 C   0  0  0  0  0  0  0  0  0  0  0  0
    9.1778  -14.7369   20.4550 C   0  0  0  0  0  0  0  0  0  0  0  0
    9.5525  -15.8515   21.3596 C   0  0  2  0  0  0  0  0  0  0  0  0
    8.7868  -17.0401   21.2814 N   0  0  0  0  0  0  0  0  0  0  0  0
    9.6482  -15.4127   22.7826 C   0  0  0  0  0  0  0  0  0  0  0  0
   10.2786  -14.3577   23.0237 O   0  0  0  0  0  0  0  0  0  0  0  0
    9.0569  -16.1457   23.8328 N   0  0  0  0  0  0  0  0  0  0  0  0
    9.1467  -15.5770   25.2219 C   0  0  1  0  0  0  0  0  0  0  0  0
    7.8522  -15.9489   25.9011 C   0  0  0  0  0  0  0  0  0  0  0  0
    6.7368  -15.0358   25.7091 C   0  0  0  0  0  0  0  0  0  0  0  0
    5.4167  -15.3108   25.3820 C   0  0  0  0  0  0  0  0  0  0  0  0
    4.7270  -14.1672   25.2898 N   0  0  0  0  0  0  0  0  0  0  0  0
    5.5311  -13.1042   25.5442 C   0  0  0  0  0  0  0  0  0  0  0  0
    5.2983  -11.7485   25.5725 C   0  0  0  0  0  0  0  0  0  0  0  0
    6.3518  -10.9188   25.8712 C   0  0  0  0  0  0  0  0  0  0  0  0
    7.6230  -11.4137   26.1399 C   0  0  0  0  0  0  0  0  0  0  0  0
    7.8257  -12.7710   26.1043 C   0  0  0  0  0  0  0  0  0  0  0  0
    6.7865  -13.6385   25.8067 C   0  0  0  0  0  0  0  0  0  0  0  0
   10.2816  -16.2554   25.8699 C   0  0  0  0  0  0  0  0  0  0  0  0
   10.9897  -17.0521   25.1204 O   0  0  0  0  0  0  0  0  0  0  0  0
   10.7250  -16.1676   27.1896 N   0  0  0  0  0  0  0  0  0  0  0  0
   10.0516  -15.4190   28.2680 C   0  0  0  0  0  0  0  0  0  0  0  0
   11.0849  -15.1593   29.3227 C   0  0  0  0  0  0  0  0  0  0  0  0
   12.3735  -15.7589   28.8012 C   0  0  0  0  0  0  0  0  0  0  0  0
   11.8379  -16.7907   27.8268 C   0  0  1  0  0  0  0  0  0  0  0  0
   11.4041  -17.9451   28.6846 C   0  0  0  0  0  0  0  0  0  0  0  0
   10.2048  -18.2574   28.8319 O   0  0  0  0  0  0  0  0  0  0  0  0
   12.3894  -18.6757   29.3264 O   0  0  0  0  0  0  0  0  0  0  0  0
  2  1  1  0
  3  2  2  0
  4  2  1  0
  5  4  1  0
  6  5  1  0
  6  7  1  1
  8  6  1  0
  8  9  2  0
 10  8  1  0
 11 10  1  0
 11 12  1  1
 13 12  1  0
 13 14  2  0
 15 14  1  0
 16 21  2  0
 16 15  1  0
 17 16  1  0
 18 19  1  0
 18 17  2  0
 19 20  2  0
 20 21  1  0
 21 13  1  0
 22 11  1  0
 23 22  2  0
 24 22  1  0
 24 25  1  0
 26 25  1  0
 27 28  1  0
 27 26  1  0
 28 24  1  0
 28 29  1  1
 30 29  2  0
 31 29  1  0
M  END
$$$$
