QWP.pdb
     RDKit          3D

 31 33  0  0  1  0  0  0  0  0999 V2000
   13.9660  -18.3933   18.8502 N   0  0  0  0  0  0  0  0  0  0  0  0
   12.7298  -18.9694   18.3973 C   0  0  0  0  0  0  0  0  0  0  0  0
   12.8324  -19.7979   17.4685 O   0  0  0  0  0  0  0  0  0  0  0  0
   11.4365  -18.6113   18.9774 C   0  0  0  0  0  0  0  0  0  0  0  0
   11.4519  -17.5528   20.0346 C   0  0  0  0  0  0  0  0  0  0  0  0
   10.9612  -18.0730   21.3344 C   0  0  2  0  0  0  0  0  0  0  0  0
    9.8913  -19.0001   21.3034 N   0  0  0  0  0  0  0  0  0  0  0  0
   10.6430  -16.9763   22.2949 C   0  0  0  0  0  0  0  0  0  0  0  0
   11.4201  -15.9948   22.3335 O   0  0  0  0  0  0  0  0  0  0  0  0
    9.5128  -17.0243   23.1376 N   0  0  0  0  0  0  0  0  0  0  0  0
    9.3749  -15.9564   24.1871 C   0  0  1  0  0  0  0  0  0  0  0  0
    7.9143  -15.5800   24.1989 C   0  0  0  0  0  0  0  0  0  0  0  0
    7.6142  -14.1573   24.2229 C   0  0  0  0  0  0  0  0  0  0  0  0
    7.8068  -13.1976   23.2396 C   0  0  0  0  0  0  0  0  0  0  0  0
    7.4023  -12.0033   23.6893 N   0  0  0  0  0  0  0  0  0  0  0  0
    6.9335  -12.1061   24.9585 C   0  0  0  0  0  0  0  0  0  0  0  0
    6.4164  -11.1812   25.8361 C   0  0  0  0  0  0  0  0  0  0  0  0
    6.0232  -11.6189   27.0775 C   0  0  0  0  0  0  0  0  0  0  0  0
    6.1357  -12.9521   27.4558 C   0  0  0  0  0  0  0  0  0  0  0  0
    6.6553  -13.8525   26.5593 C   0  0  0  0  0  0  0  0  0  0  0  0
    7.0625  -13.4472   25.2980 C   0  0  0  0  0  0  0  0  0  0  0  0
    9.7552  -16.5846   25.4634 C   0  0  0  0  0  0  0  0  0  0  0  0
    9.8010  -17.8867   25.4815 O   0  0  0  0  0  0  0  0  0  0  0  0
   10.0858  -15.9839   26.6782 N   0  0  0  0  0  0  0  0  0  0  0  0
    9.4983  -14.7353   27.2005 C   0  0  0  0  0  0  0  0  0  0  0  0
   10.4636  -14.1949   28.2122 C   0  0  0  0  0  0  0  0  0  0  0  0
   11.6310  -15.1587   28.2316 C   0  0  0  0  0  0  0  0  0  0  0  0
   10.9726  -16.4200   27.7059 C   0  0  1  0  0  0  0  0  0  0  0  0
   10.2203  -16.9818   28.8786 C   0  0  0  0  0  0  0  0  0  0  0  0
    8.9736  -16.9872   28.9351 O   0  0  0  0  0  0  0  0  0  0  0  0
   10.9590  -17.5080   29.9246 O   0  0  0  0  0  0  0  0  0  0  0  0
  2  1  1  0
  3  2  2  0
  4  2  1  0
  5  4  1  0
  6  5  1  0
  6  7  1  6
  8  6  1  0
  8  9  2  0
 10  8  1  0
 11 10  1  0
 11 12  1  1
 13 12  1  0
 13 14  2  0
 15 14  1  0
 16 21  2  0
 16 15  1  0
 17 16  1  0
 18 19  1  0
 18 17  2  0
 19 20  2  0
 20 21  1  0
 21 13  1  0
 22 11  1  0
 23 22  2  0
 24 22  1  0
 24 25  1  0
 26 25  1  0
 27 28  1  0
 27 26  1  0
 28 24  1  0
 28 29  1  1
 30 29  2  0
 31 29  1  0
M  END
$$$$
