QWP.pdb
     RDKit          3D

 31 33  0  0  1  0  0  0  0  0999 V2000
   11.3026  -16.6344   16.0498 N   0  0  0  0  0  0  0  0  0  0  0  0
   10.4495  -17.1129   17.1027 C   0  0  0  0  0  0  0  0  0  0  0  0
   10.1538  -18.3248   17.0446 O   0  0  0  0  0  0  0  0  0  0  0  0
    9.9549  -16.2444   18.1696 C   0  0  0  0  0  0  0  0  0  0  0  0
   10.9720  -15.7471   19.1477 C   0  0  0  0  0  0  0  0  0  0  0  0
   10.9839  -16.5649   20.3853 C   0  0  2  0  0  0  0  0  0  0  0  0
   10.3544  -17.8323   20.3353 N   0  0  0  0  0  0  0  0  0  0  0  0
   10.4807  -15.8045   21.5665 C   0  0  0  0  0  0  0  0  0  0  0  0
   10.9022  -14.6362   21.7274 O   0  0  0  0  0  0  0  0  0  0  0  0
    9.5631  -16.3635   22.4805 N   0  0  0  0  0  0  0  0  0  0  0  0
    9.2025  -15.5543   23.6955 C   0  0  1  0  0  0  0  0  0  0  0  0
    7.6975  -15.5995   23.7858 C   0  0  0  0  0  0  0  0  0  0  0  0
    7.1047  -15.0219   24.9813 C   0  0  0  0  0  0  0  0  0  0  0  0
    6.4715  -15.6494   26.0446 C   0  0  0  0  0  0  0  0  0  0  0  0
    6.0602  -14.7329   26.9295 N   0  0  0  0  0  0  0  0  0  0  0  0
    6.3901  -13.4851   26.5110 C   0  0  0  0  0  0  0  0  0  0  0  0
    6.1907  -12.2383   27.0577 C   0  0  0  0  0  0  0  0  0  0  0  0
    6.6581  -11.1477   26.3653 C   0  0  0  0  0  0  0  0  0  0  0  0
    7.3154  -11.2777   25.1470 C   0  0  0  0  0  0  0  0  0  0  0  0
    7.5001  -12.5342   24.6257 C   0  0  0  0  0  0  0  0  0  0  0  0
    7.0422  -13.6575   25.2962 C   0  0  0  0  0  0  0  0  0  0  0  0
    9.8085  -16.2479   24.8444 C   0  0  0  0  0  0  0  0  0  0  0  0
   10.2160  -17.4685   24.6398 O   0  0  0  0  0  0  0  0  0  0  0  0
   10.0213  -15.7840   26.1426 N   0  0  0  0  0  0  0  0  0  0  0  0
    9.3935  -14.5873   26.7349 C   0  0  0  0  0  0  0  0  0  0  0  0
   10.2576  -14.1730   27.8877 C   0  0  0  0  0  0  0  0  0  0  0  0
   11.4108  -15.1533   27.9184 C   0  0  0  0  0  0  0  0  0  0  0  0
   10.7991  -16.3409   27.1998 C   0  0  1  0  0  0  0  0  0  0  0  0
    9.9308  -17.0099   28.2271 C   0  0  0  0  0  0  0  0  0  0  0  0
    8.6867  -17.0432   28.1340 O   0  0  0  0  0  0  0  0  0  0  0  0
   10.5563  -17.6052   29.3091 O   0  0  0  0  0  0  0  0  0  0  0  0
  2  1  1  0
  3  2  2  0
  4  2  1  0
  5  4  1  0
  6  5  1  0
  6  7  1  6
  8  6  1  0
  8  9  2  0
 10  8  1  0
 11 10  1  0
 11 12  1  1
 13 12  1  0
 13 14  2  0
 15 14  1  0
 16 21  2  0
 16 15  1  0
 17 16  1  0
 18 19  1  0
 18 17  2  0
 19 20  2  0
 20 21  1  0
 21 13  1  0
 22 11  1  0
 23 22  2  0
 24 22  1  0
 24 25  1  0
 26 25  1  0
 27 28  1  0
 27 26  1  0
 28 24  1  0
 28 29  1  1
 30 29  2  0
 31 29  1  0
M  END
$$$$
