QWP.pdb
     RDKit          3D

 31 33  0  0  1  0  0  0  0  0999 V2000
    7.7754  -13.0840   17.9359 N   0  0  0  0  0  0  0  0  0  0  0  0
    8.9061  -13.9125   17.6191 C   0  0  0  0  0  0  0  0  0  0  0  0
    9.1972  -13.9822   16.4067 O   0  0  0  0  0  0  0  0  0  0  0  0
    9.6655  -14.6306   18.6414 C   0  0  0  0  0  0  0  0  0  0  0  0
    9.1659  -14.5125   20.0466 C   0  0  0  0  0  0  0  0  0  0  0  0
    9.7524  -15.5556   20.9235 C   0  0  2  0  0  0  0  0  0  0  0  0
    9.2831  -16.8818   20.7625 N   0  0  0  0  0  0  0  0  0  0  0  0
    9.6920  -15.1769   22.3656 C   0  0  0  0  0  0  0  0  0  0  0  0
   10.2030  -14.0836   22.7006 O   0  0  0  0  0  0  0  0  0  0  0  0
    9.0858  -16.0064   23.3321 N   0  0  0  0  0  0  0  0  0  0  0  0
    9.0016  -15.4932   24.7430 C   0  0  1  0  0  0  0  0  0  0  0  0
    7.7137  -16.0438   25.3028 C   0  0  0  0  0  0  0  0  0  0  0  0
    6.6664  -15.0754   25.5857 C   0  0  0  0  0  0  0  0  0  0  0  0
    5.3011  -15.2704   25.7378 C   0  0  0  0  0  0  0  0  0  0  0  0
    4.7015  -14.0974   25.9758 N   0  0  0  0  0  0  0  0  0  0  0  0
    5.6123  -13.0918   25.9937 C   0  0  0  0  0  0  0  0  0  0  0  0
    5.4956  -11.7355   26.1935 C   0  0  0  0  0  0  0  0  0  0  0  0
    6.6392  -10.9757   26.1474 C   0  0  0  0  0  0  0  0  0  0  0  0
    7.8870  -11.5403   25.9075 C   0  0  0  0  0  0  0  0  0  0  0  0
    7.9729  -12.8964   25.7117 C   0  0  0  0  0  0  0  0  0  0  0  0
    6.8406  -13.6945   25.7511 C   0  0  0  0  0  0  0  0  0  0  0  0
   10.1578  -16.0619   25.4556 C   0  0  0  0  0  0  0  0  0  0  0  0
   10.9902  -16.7692   24.7452 O   0  0  0  0  0  0  0  0  0  0  0  0
   10.5060  -15.9507   26.8018 N   0  0  0  0  0  0  0  0  0  0  0  0
    9.6889  -15.2996   27.8437 C   0  0  0  0  0  0  0  0  0  0  0  0
   10.6200  -14.9486   28.9650 C   0  0  0  0  0  0  0  0  0  0  0  0
   11.9964  -15.3951   28.5199 C   0  0  0  0  0  0  0  0  0  0  0  0
   11.6388  -16.4608   27.5015 C   0  0  1  0  0  0  0  0  0  0  0  0
   11.2816  -17.6711   28.3166 C   0  0  0  0  0  0  0  0  0  0  0  0
   12.1221  -18.2914   28.9995 O   0  0  0  0  0  0  0  0  0  0  0  0
    9.9642  -18.0960   28.2942 O   0  0  0  0  0  0  0  0  0  0  0  0
  2  1  1  0
  3  2  2  0
  4  2  1  0
  5  4  1  0
  6  5  1  0
  6  7  1  1
  8  6  1  0
  8  9  2  0
 10  8  1  0
 11 10  1  0
 11 12  1  1
 13 12  1  0
 13 14  2  0
 15 14  1  0
 16 21  2  0
 16 15  1  0
 17 16  1  0
 18 19  1  0
 18 17  2  0
 19 20  2  0
 20 21  1  0
 21 13  1  0
 22 11  1  0
 23 22  2  0
 24 22  1  0
 24 25  1  0
 26 25  1  0
 27 28  1  0
 27 26  1  0
 28 24  1  0
 28 29  1  1
 30 29  2  0
 31 29  1  0
M  END
$$$$
