QWP.pdb
     RDKit          3D

 31 33  0  0  1  0  0  0  0  0999 V2000
    8.7549  -12.5190   17.7884 N   0  0  0  0  0  0  0  0  0  0  0  0
    8.6813  -13.9505   17.6847 C   0  0  0  0  0  0  0  0  0  0  0  0
    8.2803  -14.3890   16.5863 O   0  0  0  0  0  0  0  0  0  0  0  0
    9.0456  -14.8383   18.7876 C   0  0  0  0  0  0  0  0  0  0  0  0
   10.5033  -14.9350   19.1099 C   0  0  0  0  0  0  0  0  0  0  0  0
   10.7506  -15.8548   20.2473 C   0  0  2  0  0  0  0  0  0  0  0  0
   10.2644  -17.1797   20.1317 N   0  0  0  0  0  0  0  0  0  0  0  0
   10.3072  -15.2727   21.5478 C   0  0  0  0  0  0  0  0  0  0  0  0
   10.6671  -14.1027   21.8129 O   0  0  0  0  0  0  0  0  0  0  0  0
    9.5114  -15.9975   22.4593 N   0  0  0  0  0  0  0  0  0  0  0  0
    9.1187  -15.3180   23.7419 C   0  0  1  0  0  0  0  0  0  0  0  0
    7.6136  -15.3963   23.8028 C   0  0  0  0  0  0  0  0  0  0  0  0
    6.9938  -14.9590   25.0434 C   0  0  0  0  0  0  0  0  0  0  0  0
    6.4139  -15.7120   26.0542 C   0  0  0  0  0  0  0  0  0  0  0  0
    5.9497  -14.9002   27.0121 N   0  0  0  0  0  0  0  0  0  0  0  0
    6.1910  -13.6030   26.6954 C   0  0  0  0  0  0  0  0  0  0  0  0
    5.9129  -12.4211   27.3424 C   0  0  0  0  0  0  0  0  0  0  0  0
    6.2994  -11.2488   26.7394 C   0  0  0  0  0  0  0  0  0  0  0  0
    6.9532  -11.2348   25.5124 C   0  0  0  0  0  0  0  0  0  0  0  0
    7.2175  -12.4296   24.8900 C   0  0  0  0  0  0  0  0  0  0  0  0
    6.8423  -13.6319   25.4684 C   0  0  0  0  0  0  0  0  0  0  0  0
    9.7201  -16.1113   24.8268 C   0  0  0  0  0  0  0  0  0  0  0  0
   10.1606  -17.2955   24.5080 O   0  0  0  0  0  0  0  0  0  0  0  0
    9.8979  -15.7775   26.1695 N   0  0  0  0  0  0  0  0  0  0  0  0
    9.1048  -14.7800   26.9131 C   0  0  0  0  0  0  0  0  0  0  0  0
    9.9281  -14.3702   28.0970 C   0  0  0  0  0  0  0  0  0  0  0  0
   11.2250  -15.1441   27.9914 C   0  0  0  0  0  0  0  0  0  0  0  0
   10.7899  -16.3215   27.1397 C   0  0  1  0  0  0  0  0  0  0  0  0
   10.0754  -17.2421   28.0877 C   0  0  0  0  0  0  0  0  0  0  0  0
   10.6492  -17.7882   29.0522 O   0  0  0  0  0  0  0  0  0  0  0  0
    8.7301  -17.4789   27.8632 O   0  0  0  0  0  0  0  0  0  0  0  0
  2  1  1  0
  3  2  2  0
  4  2  1  0
  5  4  1  0
  6  5  1  0
  6  7  1  6
  8  6  1  0
  8  9  2  0
 10  8  1  0
 11 10  1  0
 11 12  1  1
 13 12  1  0
 13 14  2  0
 15 14  1  0
 16 21  2  0
 16 15  1  0
 17 16  1  0
 18 19  1  0
 18 17  2  0
 19 20  2  0
 20 21  1  0
 21 13  1  0
 22 11  1  0
 23 22  2  0
 24 22  1  0
 24 25  1  0
 26 25  1  0
 27 28  1  0
 27 26  1  0
 28 24  1  0
 28 29  1  1
 30 29  2  0
 31 29  1  0
M  END
$$$$
