QWP.pdb
     RDKit          3D

 31 33  0  0  1  0  0  0  0  0999 V2000
    9.4414  -12.9119   18.1004 N   0  0  0  0  0  0  0  0  0  0  0  0
    8.9859  -14.2579   17.8862 C   0  0  0  0  0  0  0  0  0  0  0  0
    8.8032  -14.5790   16.6933 O   0  0  0  0  0  0  0  0  0  0  0  0
    8.7470  -15.1914   18.9857 C   0  0  0  0  0  0  0  0  0  0  0  0
    8.9673  -14.6618   20.3675 C   0  0  0  0  0  0  0  0  0  0  0  0
    9.5321  -15.6990   21.2655 C   0  0  2  0  0  0  0  0  0  0  0  0
    8.9717  -16.9975   21.1951 N   0  0  0  0  0  0  0  0  0  0  0  0
    9.5724  -15.2496   22.6878 C   0  0  0  0  0  0  0  0  0  0  0  0
   10.1580  -14.1716   22.9397 O   0  0  0  0  0  0  0  0  0  0  0  0
    8.9786  -15.9978   23.7258 N   0  0  0  0  0  0  0  0  0  0  0  0
    9.0705  -15.4526   25.1241 C   0  0  1  0  0  0  0  0  0  0  0  0
    7.7898  -15.8616   25.8081 C   0  0  0  0  0  0  0  0  0  0  0  0
    6.6807  -14.9259   25.7151 C   0  0  0  0  0  0  0  0  0  0  0  0
    5.3374  -15.1704   25.4685 C   0  0  0  0  0  0  0  0  0  0  0  0
    4.6635  -14.0137   25.4531 N   0  0  0  0  0  0  0  0  0  0  0  0
    5.5014  -12.9713   25.6824 C   0  0  0  0  0  0  0  0  0  0  0  0
    5.2951  -11.6133   25.7628 C   0  0  0  0  0  0  0  0  0  0  0  0
    6.3806  -10.8094   26.0135 C   0  0  0  0  0  0  0  0  0  0  0  0
    7.6577  -11.3320   26.1841 C   0  0  0  0  0  0  0  0  0  0  0  0
    7.8334  -12.6908   26.0985 C   0  0  0  0  0  0  0  0  0  0  0  0
    6.7617  -13.5327   25.8469 C   0  0  0  0  0  0  0  0  0  0  0  0
   10.2243  -16.1204   25.7493 C   0  0  0  0  0  0  0  0  0  0  0  0
   10.9398  -16.8905   24.9793 O   0  0  0  0  0  0  0  0  0  0  0  0
   10.6790  -16.0470   27.0660 N   0  0  0  0  0  0  0  0  0  0  0  0
    9.9917  -15.3475   28.1684 C   0  0  0  0  0  0  0  0  0  0  0  0
   11.0269  -15.0753   29.2181 C   0  0  0  0  0  0  0  0  0  0  0  0
   12.3299  -15.6168   28.6696 C   0  0  0  0  0  0  0  0  0  0  0  0
   11.8203  -16.6445   27.6771 C   0  0  1  0  0  0  0  0  0  0  0  0
   11.4370  -17.8328   28.5125 C   0  0  0  0  0  0  0  0  0  0  0  0
   10.2497  -18.1771   28.6836 O   0  0  0  0  0  0  0  0  0  0  0  0
   12.4563  -18.5583   29.1050 O   0  0  0  0  0  0  0  0  0  0  0  0
  2  1  1  0
  3  2  2  0
  4  2  1  0
  5  4  1  0
  6  5  1  0
  6  7  1  1
  8  6  1  0
  8  9  2  0
 10  8  1  0
 11 10  1  0
 11 12  1  1
 13 12  1  0
 13 14  2  0
 15 14  1  0
 16 21  2  0
 16 15  1  0
 17 16  1  0
 18 19  1  0
 18 17  2  0
 19 20  2  0
 20 21  1  0
 21 13  1  0
 22 11  1  0
 23 22  2  0
 24 22  1  0
 24 25  1  0
 26 25  1  0
 27 28  1  0
 27 26  1  0
 28 24  1  0
 28 29  1  1
 30 29  2  0
 31 29  1  0
M  END
$$$$
