QWP.pdb
     RDKit          3D

 31 33  0  0  1  0  0  0  0  0999 V2000
    7.7919  -12.7584   18.0403 N   0  0  0  0  0  0  0  0  0  0  0  0
    8.2334  -14.1253   18.0840 C   0  0  0  0  0  0  0  0  0  0  0  0
    7.6729  -14.8962   17.2770 O   0  0  0  0  0  0  0  0  0  0  0  0
    9.2649  -14.5891   19.0104 C   0  0  0  0  0  0  0  0  0  0  0  0
    8.9349  -14.5093   20.4674 C   0  0  0  0  0  0  0  0  0  0  0  0
    9.5705  -15.6105   21.2317 C   0  0  2  0  0  0  0  0  0  0  0  0
    9.0437  -16.9133   21.0581 N   0  0  0  0  0  0  0  0  0  0  0  0
    9.6665  -15.3014   22.6884 C   0  0  0  0  0  0  0  0  0  0  0  0
   10.3379  -14.2996   23.0263 O   0  0  0  0  0  0  0  0  0  0  0  0
    9.0315  -16.0965   23.6652 N   0  0  0  0  0  0  0  0  0  0  0  0
    9.0314  -15.5976   25.0837 C   0  0  1  0  0  0  0  0  0  0  0  0
    7.7505  -16.1065   25.6967 C   0  0  0  0  0  0  0  0  0  0  0  0
    6.6449  -15.1640   25.7579 C   0  0  0  0  0  0  0  0  0  0  0  0
    5.2822  -15.3919   25.6303 C   0  0  0  0  0  0  0  0  0  0  0  0
    4.6190  -14.2340   25.7376 N   0  0  0  0  0  0  0  0  0  0  0  0
    5.4830  -13.2069   25.9367 C   0  0  0  0  0  0  0  0  0  0  0  0
    5.2960  -11.8541   26.1042 C   0  0  0  0  0  0  0  0  0  0  0  0
    6.4067  -11.0670   26.2887 C   0  0  0  0  0  0  0  0  0  0  0  0
    7.6902  -11.6012   26.3090 C   0  0  0  0  0  0  0  0  0  0  0  0
    7.8464  -12.9545   26.1393 C   0  0  0  0  0  0  0  0  0  0  0  0
    6.7489  -13.7796   25.9506 C   0  0  0  0  0  0  0  0  0  0  0  0
   10.1966  -16.2176   25.7363 C   0  0  0  0  0  0  0  0  0  0  0  0
   10.9633  -16.9542   24.9830 O   0  0  0  0  0  0  0  0  0  0  0  0
   10.6147  -16.1290   27.0642 N   0  0  0  0  0  0  0  0  0  0  0  0
    9.8499  -15.5029   28.1596 C   0  0  0  0  0  0  0  0  0  0  0  0
   10.8367  -15.1663   29.2368 C   0  0  0  0  0  0  0  0  0  0  0  0
   12.1903  -15.5950   28.7116 C   0  0  0  0  0  0  0  0  0  0  0  0
   11.7858  -16.6442   27.6936 C   0  0  1  0  0  0  0  0  0  0  0  0
   11.4792  -17.8717   28.5035 C   0  0  0  0  0  0  0  0  0  0  0  0
   12.3563  -18.4921   29.1387 O   0  0  0  0  0  0  0  0  0  0  0  0
   10.1674  -18.3129   28.5315 O   0  0  0  0  0  0  0  0  0  0  0  0
  2  1  1  0
  3  2  2  0
  4  2  1  0
  5  4  1  0
  6  5  1  0
  6  7  1  1
  8  6  1  0
  8  9  2  0
 10  8  1  0
 11 10  1  0
 11 12  1  1
 13 12  1  0
 13 14  2  0
 15 14  1  0
 16 21  2  0
 16 15  1  0
 17 16  1  0
 18 19  1  0
 18 17  2  0
 19 20  2  0
 20 21  1  0
 21 13  1  0
 22 11  1  0
 23 22  2  0
 24 22  1  0
 24 25  1  0
 26 25  1  0
 27 28  1  0
 27 26  1  0
 28 24  1  0
 28 29  1  1
 30 29  2  0
 31 29  1  0
M  END
$$$$
