QWP.pdb
     RDKit          3D

 31 33  0  0  1  0  0  0  0  0999 V2000
    8.5659  -12.9096   17.7528 N   0  0  0  0  0  0  0  0  0  0  0  0
    8.6441  -14.2935   17.3734 C   0  0  0  0  0  0  0  0  0  0  0  0
    7.8355  -14.6550   16.4930 O   0  0  0  0  0  0  0  0  0  0  0  0
    9.6000  -15.2210   17.9761 C   0  0  0  0  0  0  0  0  0  0  0  0
   10.5164  -14.6515   19.0125 C   0  0  0  0  0  0  0  0  0  0  0  0
   10.7723  -15.6207   20.1062 C   0  0  2  0  0  0  0  0  0  0  0  0
   10.2448  -16.9263   19.9568 N   0  0  0  0  0  0  0  0  0  0  0  0
   10.3864  -15.0767   21.4411 C   0  0  0  0  0  0  0  0  0  0  0  0
   10.7600  -13.9155   21.7249 O   0  0  0  0  0  0  0  0  0  0  0  0
    9.6286  -15.8274   22.3641 N   0  0  0  0  0  0  0  0  0  0  0  0
    9.2591  -15.1713   23.6657 C   0  0  1  0  0  0  0  0  0  0  0  0
    7.7515  -15.1293   23.6896 C   0  0  0  0  0  0  0  0  0  0  0  0
    7.1370  -14.7039   24.9370 C   0  0  0  0  0  0  0  0  0  0  0  0
    6.6103  -15.4689   25.9677 C   0  0  0  0  0  0  0  0  0  0  0  0
    6.1292  -14.6662   26.9251 N   0  0  0  0  0  0  0  0  0  0  0  0
    6.3071  -13.3638   26.5885 C   0  0  0  0  0  0  0  0  0  0  0  0
    5.9898  -12.1871   27.2270 C   0  0  0  0  0  0  0  0  0  0  0  0
    6.3128  -11.0067   26.6029 C   0  0  0  0  0  0  0  0  0  0  0  0
    6.9416  -10.9796   25.3631 C   0  0  0  0  0  0  0  0  0  0  0  0
    7.2462  -12.1693   24.7496 C   0  0  0  0  0  0  0  0  0  0  0  0
    6.9354  -13.3795   25.3493 C   0  0  0  0  0  0  0  0  0  0  0  0
    9.7666  -16.0549   24.7286 C   0  0  0  0  0  0  0  0  0  0  0  0
   10.1042  -17.2618   24.3718 O   0  0  0  0  0  0  0  0  0  0  0  0
    9.9493  -15.7876   26.0855 N   0  0  0  0  0  0  0  0  0  0  0  0
    9.1915  -14.7932   26.8689 C   0  0  0  0  0  0  0  0  0  0  0  0
   10.0232  -14.4685   28.0732 C   0  0  0  0  0  0  0  0  0  0  0  0
   11.2893  -15.2875   27.9391 C   0  0  0  0  0  0  0  0  0  0  0  0
   10.8136  -16.4083   27.0345 C   0  0  1  0  0  0  0  0  0  0  0  0
   10.0580  -17.3409   27.9379 C   0  0  0  0  0  0  0  0  0  0  0  0
   10.5925  -17.9118   28.9105 O   0  0  0  0  0  0  0  0  0  0  0  0
    8.7193  -17.5600   27.6617 O   0  0  0  0  0  0  0  0  0  0  0  0
  2  1  1  0
  3  2  2  0
  4  2  1  0
  5  4  1  0
  6  5  1  0
  6  7  1  6
  8  6  1  0
  8  9  2  0
 10  8  1  0
 11 10  1  0
 11 12  1  1
 13 12  1  0
 13 14  2  0
 15 14  1  0
 16 21  2  0
 16 15  1  0
 17 16  1  0
 18 19  1  0
 18 17  2  0
 19 20  2  0
 20 21  1  0
 21 13  1  0
 22 11  1  0
 23 22  2  0
 24 22  1  0
 24 25  1  0
 26 25  1  0
 27 28  1  0
 27 26  1  0
 28 24  1  0
 28 29  1  1
 30 29  2  0
 31 29  1  0
M  END
$$$$
