QWP.pdb
     RDKit          3D

 31 33  0  0  1  0  0  0  0  0999 V2000
    8.6782  -12.7875   17.0186 N   0  0  0  0  0  0  0  0  0  0  0  0
    8.6502  -14.2223   16.9419 C   0  0  0  0  0  0  0  0  0  0  0  0
    8.0560  -14.6951   15.9505 O   0  0  0  0  0  0  0  0  0  0  0  0
    9.2695  -15.0759   17.9544 C   0  0  0  0  0  0  0  0  0  0  0  0
    9.9439  -14.3764   19.0920 C   0  0  0  0  0  0  0  0  0  0  0  0
   10.4429  -15.3385   20.1051 C   0  0  2  0  0  0  0  0  0  0  0  0
   10.0894  -16.6998   19.9409 N   0  0  0  0  0  0  0  0  0  0  0  0
   10.1244  -14.9050   21.4969 C   0  0  0  0  0  0  0  0  0  0  0  0
   10.4385  -13.7386   21.8279 O   0  0  0  0  0  0  0  0  0  0  0  0
    9.4929  -15.7628   22.4216 N   0  0  0  0  0  0  0  0  0  0  0  0
    9.1062  -15.1910   23.7575 C   0  0  1  0  0  0  0  0  0  0  0  0
    7.6141  -15.3821   23.8684 C   0  0  0  0  0  0  0  0  0  0  0  0
    6.9958  -14.9334   25.1057 C   0  0  0  0  0  0  0  0  0  0  0  0
    6.3805  -15.6741   26.1046 C   0  0  0  0  0  0  0  0  0  0  0  0
    5.9330  -14.8543   27.0637 N   0  0  0  0  0  0  0  0  0  0  0  0
    6.2205  -13.5636   26.7594 C   0  0  0  0  0  0  0  0  0  0  0  0
    5.9746  -12.3778   27.4124 C   0  0  0  0  0  0  0  0  0  0  0  0
    6.4062  -11.2146   26.8224 C   0  0  0  0  0  0  0  0  0  0  0  0
    7.0732  -11.2135   25.6025 C   0  0  0  0  0  0  0  0  0  0  0  0
    7.3045  -12.4118   24.9739 C   0  0  0  0  0  0  0  0  0  0  0  0
    6.8837  -13.6051   25.5391 C   0  0  0  0  0  0  0  0  0  0  0  0
    9.8059  -16.0016   24.7682 C   0  0  0  0  0  0  0  0  0  0  0  0
   10.3270  -17.1230   24.3574 O   0  0  0  0  0  0  0  0  0  0  0  0
   10.0035  -15.7421   26.1245 N   0  0  0  0  0  0  0  0  0  0  0  0
    9.2716  -14.7348   26.9161 C   0  0  0  0  0  0  0  0  0  0  0  0
   10.1183  -14.4308   28.1154 C   0  0  0  0  0  0  0  0  0  0  0  0
   11.3665  -15.2750   27.9700 C   0  0  0  0  0  0  0  0  0  0  0  0
   10.8616  -16.3832   27.0656 C   0  0  1  0  0  0  0  0  0  0  0  0
   10.0935  -17.3028   27.9717 C   0  0  0  0  0  0  0  0  0  0  0  0
   10.6115  -17.8510   28.9660 O   0  0  0  0  0  0  0  0  0  0  0  0
    8.7621  -17.5363   27.6727 O   0  0  0  0  0  0  0  0  0  0  0  0
  2  1  1  0
  3  2  2  0
  4  2  1  0
  5  4  1  0
  6  5  1  0
  6  7  1  6
  8  6  1  0
  8  9  2  0
 10  8  1  0
 11 10  1  0
 11 12  1  1
 13 12  1  0
 13 14  2  0
 15 14  1  0
 16 21  2  0
 16 15  1  0
 17 16  1  0
 18 19  1  0
 18 17  2  0
 19 20  2  0
 20 21  1  0
 21 13  1  0
 22 11  1  0
 23 22  2  0
 24 22  1  0
 24 25  1  0
 26 25  1  0
 27 28  1  0
 27 26  1  0
 28 24  1  0
 28 29  1  1
 30 29  2  0
 31 29  1  0
M  END
$$$$
