QWP.pdb
     RDKit          3D

 31 33  0  0  1  0  0  0  0  0999 V2000
    8.9932  -12.7989   17.5851 N   0  0  0  0  0  0  0  0  0  0  0  0
    8.7827  -14.2130   17.4392 C   0  0  0  0  0  0  0  0  0  0  0  0
    8.3653  -14.5807   16.3210 O   0  0  0  0  0  0  0  0  0  0  0  0
    9.0340  -15.1612   18.5231 C   0  0  0  0  0  0  0  0  0  0  0  0
    9.5139  -14.5814   19.8161 C   0  0  0  0  0  0  0  0  0  0  0  0
    9.9283  -15.6407   20.7684 C   0  0  2  0  0  0  0  0  0  0  0  0
    9.3776  -16.9325   20.5866 N   0  0  0  0  0  0  0  0  0  0  0  0
    9.7531  -15.2194   22.1892 C   0  0  0  0  0  0  0  0  0  0  0  0
   10.3198  -14.1644   22.5560 O   0  0  0  0  0  0  0  0  0  0  0  0
    8.9812  -15.9683   23.1018 N   0  0  0  0  0  0  0  0  0  0  0  0
    8.8419  -15.4388   24.5022 C   0  0  1  0  0  0  0  0  0  0  0  0
    7.5493  -16.0101   25.0294 C   0  0  0  0  0  0  0  0  0  0  0  0
    6.6010  -15.0575   25.5842 C   0  0  0  0  0  0  0  0  0  0  0  0
    5.3095  -15.2648   26.0470 C   0  0  0  0  0  0  0  0  0  0  0  0
    4.7862  -14.1037   26.4597 N   0  0  0  0  0  0  0  0  0  0  0  0
    5.6786  -13.0945   26.2970 C   0  0  0  0  0  0  0  0  0  0  0  0
    5.6162  -11.7465   26.5651 C   0  0  0  0  0  0  0  0  0  0  0  0
    6.7190  -10.9795   26.2770 C   0  0  0  0  0  0  0  0  0  0  0  0
    7.8734  -11.5290   25.7305 C   0  0  0  0  0  0  0  0  0  0  0  0
    7.9068  -12.8772   25.4736 C   0  0  0  0  0  0  0  0  0  0  0  0
    6.8133  -13.6821   25.7512 C   0  0  0  0  0  0  0  0  0  0  0  0
    9.9872  -15.9728   25.2581 C   0  0  0  0  0  0  0  0  0  0  0  0
   10.8103  -16.7419   24.6033 O   0  0  0  0  0  0  0  0  0  0  0  0
   10.3336  -15.7709   26.5941 N   0  0  0  0  0  0  0  0  0  0  0  0
    9.5389  -15.0082   27.5759 C   0  0  0  0  0  0  0  0  0  0  0  0
   10.4784  -14.6082   28.6735 C   0  0  0  0  0  0  0  0  0  0  0  0
   11.8376  -15.1429   28.2751 C   0  0  0  0  0  0  0  0  0  0  0  0
   11.4416  -16.2697   27.3400 C   0  0  1  0  0  0  0  0  0  0  0  0
   11.0321  -17.3973   28.2442 C   0  0  0  0  0  0  0  0  0  0  0  0
    9.8398  -17.7302   28.4029 O   0  0  0  0  0  0  0  0  0  0  0  0
   12.0322  -18.0787   28.9164 O   0  0  0  0  0  0  0  0  0  0  0  0
  2  1  1  0
  3  2  2  0
  4  2  1  0
  5  4  1  0
  6  5  1  0
  6  7  1  6
  8  6  1  0
  8  9  2  0
 10  8  1  0
 11 10  1  0
 11 12  1  1
 13 12  1  0
 13 14  2  0
 15 14  1  0
 16 21  2  0
 16 15  1  0
 17 16  1  0
 18 19  1  0
 18 17  2  0
 19 20  2  0
 20 21  1  0
 21 13  1  0
 22 11  1  0
 23 22  2  0
 24 22  1  0
 24 25  1  0
 26 25  1  0
 27 28  1  0
 27 26  1  0
 28 24  1  0
 28 29  1  1
 30 29  2  0
 31 29  1  0
M  END
$$$$
