CRK.pdb
     RDKit          3D

 27 26  0  0  1  0  0  0  0  0999 V2000
    6.4440  -19.6290   26.1640 N   0  0  0  0  0  0  0  0  0  0  0  0
    6.9015  -18.2574   26.2044 C   0  0  1  0  0  0  0  0  0  0  0  0
    7.9793  -18.1642   27.2722 C   0  0  0  0  0  0  0  0  0  0  0  0
    8.4046  -16.4147   27.5129 S   0  0  0  0  0  0  0  0  0  0  0  0
    7.4699  -17.8591   24.9035 C   0  0  0  0  0  0  0  0  0  0  0  0
    8.2135  -18.6442   24.2818 O   0  0  0  0  0  0  0  0  0  0  0  0
    7.6730  -12.0085   19.3913 N   0  0  0  0  0  0  0  0  0  0  0  0
    8.3343  -13.1359   18.8555 C   0  0  0  0  0  0  0  0  0  0  0  0
    9.4117  -13.0456   18.1214 N   0  0  0  0  0  0  0  0  0  0  0  0
    7.8203  -14.4493   19.1140 N   0  0  0  0  0  0  0  0  0  0  0  0
    7.0094  -14.7483   20.2611 C   0  0  0  0  0  0  0  0  0  0  0  0
    7.7593  -14.3405   21.5017 C   0  0  0  0  0  0  0  0  0  0  0  0
    7.0792  -14.8155   22.7683 C   0  0  0  0  0  0  0  0  0  0  0  0
    7.7708  -16.1296   23.1488 C   0  0  2  0  0  0  0  0  0  0  0  0
    7.1628  -16.5809   24.3713 N   0  0  0  0  0  0  0  0  0  0  0  0
    9.2128  -15.9090   23.3545 C   0  0  0  0  0  0  0  0  0  0  0  0
    9.5654  -15.1534   24.3062 O   0  0  0  0  0  0  0  0  0  0  0  0
    9.8440  -13.9118   17.7295 N   0  0  0  0  0  0  0  0  0  0  0  0
   10.2212  -16.4706   22.5788 C   0  0  2  0  0  0  0  0  0  0  0  0
   11.6907  -16.3069   22.9126 C   0  0  0  0  0  0  0  0  0  0  0  0
   12.1453  -17.5808   23.4743 C   0  0  0  0  0  0  0  0  0  0  0  0
   12.9101  -17.7090   24.6911 C   0  0  0  0  0  0  0  0  0  0  0  0
   13.2923  -19.0177   25.2800 C   0  0  0  0  0  0  0  0  0  0  0  0
   14.0997  -18.9346   26.5515 N   0  0  0  0  0  0  0  0  0  0  0  0
   14.3071  -20.2254   27.1267 C   0  0  0  0  0  0  0  0  0  0  0  0
   12.3222  -15.7010   21.7545 O   0  0  0  0  0  0  0  0  0  0  0  0
   11.7118  -15.7168   20.6057 O   0  0  0  0  0  0  0  0  0  0  0  0
  2  5  1  0
  2  1  1  6
  3  2  1  0
  4  3  1  0
  5  6  2  0
  8 10  1  0
  8  7  1  0
  9  8  2  0
 11 10  1  0
 11 12  1  0
 13 12  1  0
 14 13  1  1
 15 14  1  0
 15  5  1  0
 16 17  2  0
 16 14  1  0
 18 16  1  0
 19 18  1  0
 19 25  1  0
 19 20  1  6
 21 20  1  0
 22 21  1  0
 23 22  1  0
 23 24  1  0
 25 27  1  0
 26 25  2  0
M  END
$$$$
