CRK.pdb
     RDKit          3D

 27 26  0  0  1  0  0  0  0  0999 V2000
   10.3123  -21.1447   17.8604 N   0  0  0  0  0  0  0  0  0  0  0  0
   11.1732  -21.7187   18.8711 C   0  0  1  0  0  0  0  0  0  0  0  0
   11.8549  -20.5716   19.5991 C   0  0  0  0  0  0  0  0  0  0  0  0
   13.0304  -19.7823   18.4613 S   0  0  0  0  0  0  0  0  0  0  0  0
   10.3878  -22.5092   19.8368 C   0  0  0  0  0  0  0  0  0  0  0  0
    9.4841  -21.9629   20.5006 O   0  0  0  0  0  0  0  0  0  0  0  0
    5.7566  -27.3748   20.9272 N   0  0  0  0  0  0  0  0  0  0  0  0
    6.2316  -28.3419   21.8409 C   0  0  0  0  0  0  0  0  0  0  0  0
    5.4839  -28.8619   22.7781 N   0  0  0  0  0  0  0  0  0  0  0  0
    7.5912  -28.7896   21.7572 N   0  0  0  0  0  0  0  0  0  0  0  0
    8.5437  -28.1996   20.8586 C   0  0  0  0  0  0  0  0  0  0  0  0
    8.7794  -26.7716   21.2748 C   0  0  0  0  0  0  0  0  0  0  0  0
    9.7862  -26.0714   20.3868 C   0  0  0  0  0  0  0  0  0  0  0  0
    9.9690  -24.6709   20.9825 C   0  0  2  0  0  0  0  0  0  0  0  0
   10.6707  -23.8893   20.0005 N   0  0  0  0  0  0  0  0  0  0  0  0
   10.7555  -24.7416   22.2262 C   0  0  0  0  0  0  0  0  0  0  0  0
   12.0014  -24.9390   22.1273 O   0  0  0  0  0  0  0  0  0  0  0  0
    5.8814  -29.5917   23.4107 N   0  0  0  0  0  0  0  0  0  0  0  0
   10.2307  -24.6073   23.5071 C   0  0  2  0  0  0  0  0  0  0  0  0
   11.0873  -24.7179   24.7527 C   0  0  0  0  0  0  0  0  0  0  0  0
   11.4146  -23.3521   25.1683 C   0  0  0  0  0  0  0  0  0  0  0  0
   12.7171  -22.7472   25.0287 C   0  0  0  0  0  0  0  0  0  0  0  0
   13.0057  -21.3381   25.3987 C   0  0  0  0  0  0  0  0  0  0  0  0
   14.4310  -20.8981   25.1748 N   0  0  0  0  0  0  0  0  0  0  0  0
   14.6237  -19.5332   25.5492 C   0  0  0  0  0  0  0  0  0  0  0  0
   10.4269  -25.6601   25.6375 O   0  0  0  0  0  0  0  0  0  0  0  0
   11.1019  -26.2281   26.5937 O   0  0  0  0  0  0  0  0  0  0  0  0
  2  5  1  0
  2  1  1  6
  3  2  1  0
  4  3  1  0
  5  6  2  0
  8 10  1  0
  8  7  1  0
  9  8  2  0
 11 10  1  0
 11 12  1  0
 13 12  1  0
 14 13  1  6
 15 14  1  0
 15  5  1  0
 16 17  2  0
 16 14  1  0
 18 16  1  0
 19 18  1  0
 19 25  1  0
 19 20  1  6
 21 20  1  0
 22 21  1  0
 23 22  1  0
 23 24  1  0
 25 27  1  0
 26 25  2  0
M  END
$$$$
