CRK.pdb
     RDKit          3D

 27 26  0  0  1  0  0  0  0  0999 V2000
    7.5621  -14.5912   17.8127 N   0  0  0  0  0  0  0  0  0  0  0  0
    8.5694  -14.3713   18.8272 C   0  0  1  0  0  0  0  0  0  0  0  0
    8.4450  -12.9298   19.2930 C   0  0  0  0  0  0  0  0  0  0  0  0
    9.1192  -11.8449   18.0015 S   0  0  0  0  0  0  0  0  0  0  0  0
    8.3587  -15.2730   19.9748 C   0  0  0  0  0  0  0  0  0  0  0  0
    7.2002  -15.5641   20.3340 O   0  0  0  0  0  0  0  0  0  0  0  0
   12.8187  -19.3575   20.6328 N   0  0  0  0  0  0  0  0  0  0  0  0
   13.0635  -20.0089   21.8622 C   0  0  0  0  0  0  0  0  0  0  0  0
   14.2652  -20.2988   22.2859 N   0  0  0  0  0  0  0  0  0  0  0  0
   11.9610  -20.3792   22.7010 N   0  0  0  0  0  0  0  0  0  0  0  0
   10.5933  -20.2139   22.2949 C   0  0  0  0  0  0  0  0  0  0  0  0
   10.1437  -18.8257   22.6671 C   0  0  0  0  0  0  0  0  0  0  0  0
   10.3735  -17.8274   21.5522 C   0  0  0  0  0  0  0  0  0  0  0  0
    9.3100  -16.7390   21.7373 C   0  0  2  0  0  0  0  0  0  0  0  0
    9.4819  -15.8018   20.6604 N   0  0  0  0  0  0  0  0  0  0  0  0
    9.4926  -16.0589   23.0313 C   0  0  0  0  0  0  0  0  0  0  0  0
   10.6676  -15.7279   23.3646 O   0  0  0  0  0  0  0  0  0  0  0  0
   14.3845  -20.8384   23.1722 N   0  0  0  0  0  0  0  0  0  0  0  0
    8.4673  -15.7513   23.9191 C   0  0  1  0  0  0  0  0  0  0  0  0
    8.7193  -15.0619   25.2453 C   0  0  0  0  0  0  0  0  0  0  0  0
    7.5015  -14.3197   25.5787 C   0  0  0  0  0  0  0  0  0  0  0  0
    7.4847  -13.0038   26.1705 C   0  0  0  0  0  0  0  0  0  0  0  0
    6.2345  -12.2594   26.4680 C   0  0  0  0  0  0  0  0  0  0  0  0
    6.4345  -10.8676   27.0142 N   0  0  0  0  0  0  0  0  0  0  0  0
    5.1916  -10.1808   27.1682 C   0  0  0  0  0  0  0  0  0  0  0  0
    9.2899  -16.0555   26.1364 O   0  0  0  0  0  0  0  0  0  0  0  0
   10.0866  -15.6805   27.0941 O   0  0  0  0  0  0  0  0  0  0  0  0
  2  5  1  0
  2  1  1  6
  3  2  1  0
  4  3  1  0
  5  6  2  0
  8 10  1  0
  8  7  1  0
  9  8  2  0
 11 10  1  0
 11 12  1  0
 13 12  1  0
 14 13  1  6
 15 14  1  0
 15  5  1  0
 16 17  2  0
 16 14  1  0
 18 16  1  0
 19 18  1  0
 19 25  1  0
 19 20  1  1
 21 20  1  0
 22 21  1  0
 23 22  1  0
 23 24  1  0
 25 27  1  0
 26 25  2  0
M  END
$$$$
