CRK.pdb
     RDKit          3D

 27 26  0  0  1  0  0  0  0  0999 V2000
    7.1011  -19.0883   26.0989 N   0  0  0  0  0  0  0  0  0  0  0  0
    6.7472  -17.7743   25.6086 C   0  0  1  0  0  0  0  0  0  0  0  0
    7.2367  -16.7572   26.6266 C   0  0  0  0  0  0  0  0  0  0  0  0
    9.0298  -16.9624   26.8324 S   0  0  0  0  0  0  0  0  0  0  0  0
    7.3931  -17.5116   24.3093 C   0  0  0  0  0  0  0  0  0  0  0  0
    8.0722  -18.4019   23.7597 O   0  0  0  0  0  0  0  0  0  0  0  0
    7.9827  -14.1612   16.2443 N   0  0  0  0  0  0  0  0  0  0  0  0
    7.9826  -13.3542   17.4037 C   0  0  0  0  0  0  0  0  0  0  0  0
    8.7681  -12.3202   17.5501 N   0  0  0  0  0  0  0  0  0  0  0  0
    7.0899  -13.6625   18.4827 N   0  0  0  0  0  0  0  0  0  0  0  0
    7.3400  -13.2453   19.8341 C   0  0  0  0  0  0  0  0  0  0  0  0
    7.9580  -14.3937   20.5871 C   0  0  0  0  0  0  0  0  0  0  0  0
    7.2043  -14.7209   21.8588 C   0  0  0  0  0  0  0  0  0  0  0  0
    7.9244  -15.9254   22.4756 C   0  0  2  0  0  0  0  0  0  0  0  0
    7.2338  -16.2427   23.6963 N   0  0  0  0  0  0  0  0  0  0  0  0
    9.3296  -15.5899   22.7640 C   0  0  0  0  0  0  0  0  0  0  0  0
    9.5775  -14.9423   23.8225 O   0  0  0  0  0  0  0  0  0  0  0  0
    8.8164  -11.8346   18.4735 N   0  0  0  0  0  0  0  0  0  0  0  0
   10.4099  -15.9321   21.9579 C   0  0  1  0  0  0  0  0  0  0  0  0
   11.7954  -16.1842   22.5186 C   0  0  0  0  0  0  0  0  0  0  0  0
   11.6601  -17.2273   23.5378 C   0  0  0  0  0  0  0  0  0  0  0  0
   12.7027  -17.6060   24.4606 C   0  0  0  0  0  0  0  0  0  0  0  0
   12.5371  -18.6655   25.4880 C   0  0  0  0  0  0  0  0  0  0  0  0
   13.6996  -18.8230   26.4363 N   0  0  0  0  0  0  0  0  0  0  0  0
   13.3663  -19.6669   27.5394 C   0  0  0  0  0  0  0  0  0  0  0  0
   12.6918  -16.3197   21.3851 O   0  0  0  0  0  0  0  0  0  0  0  0
   12.2231  -16.7096   20.2358 O   0  0  0  0  0  0  0  0  0  0  0  0
  2  5  1  0
  2  1  1  1
  3  2  1  0
  4  3  1  0
  5  6  2  0
  8 10  1  0
  8  7  1  0
  9  8  2  0
 11 10  1  0
 11 12  1  0
 13 12  1  0
 14 13  1  1
 15 14  1  0
 15  5  1  0
 16 17  2  0
 16 14  1  0
 18 16  1  0
 19 18  1  0
 19 25  1  0
 19 20  1  6
 21 20  1  0
 22 21  1  0
 23 22  1  0
 23 24  1  0
 25 27  1  0
 26 25  2  0
M  END
$$$$
