CRK.pdb
     RDKit          3D

 27 26  0  0  1  0  0  0  0  0999 V2000
    7.5371  -15.8932   18.3158 N   0  0  0  0  0  0  0  0  0  0  0  0
    8.2623  -15.3123   19.4244 C   0  0  1  0  0  0  0  0  0  0  0  0
    8.0118  -13.8133   19.4019 C   0  0  0  0  0  0  0  0  0  0  0  0
    8.6425  -13.1453   17.8350 S   0  0  0  0  0  0  0  0  0  0  0  0
    7.7863  -15.8658   20.7055 C   0  0  0  0  0  0  0  0  0  0  0  0
    6.8195  -16.6537   20.7231 O   0  0  0  0  0  0  0  0  0  0  0  0
    7.6433  -22.3108   23.6836 N   0  0  0  0  0  0  0  0  0  0  0  0
    6.3911  -21.7018   23.4454 C   0  0  0  0  0  0  0  0  0  0  0  0
    5.3163  -22.3811   23.1434 N   0  0  0  0  0  0  0  0  0  0  0  0
    6.2674  -20.2759   23.5328 N   0  0  0  0  0  0  0  0  0  0  0  0
    7.3967  -19.4156   23.7510 C   0  0  0  0  0  0  0  0  0  0  0  0
    7.6211  -18.5902   22.5117 C   0  0  0  0  0  0  0  0  0  0  0  0
    8.8667  -17.7347   22.6070 C   0  0  0  0  0  0  0  0  0  0  0  0
    8.3915  -16.3506   23.0634 C   0  0  2  0  0  0  0  0  0  0  0  0
    8.4369  -15.4937   21.9095 N   0  0  0  0  0  0  0  0  0  0  0  0
    9.2784  -15.8257   24.1162 C   0  0  0  0  0  0  0  0  0  0  0  0
   10.0380  -16.6440   24.7115 O   0  0  0  0  0  0  0  0  0  0  0  0
    4.4158  -21.8779   22.9805 N   0  0  0  0  0  0  0  0  0  0  0  0
    9.3449  -14.4929   24.5077 C   0  0  2  0  0  0  0  0  0  0  0  0
    8.8565  -14.0176   25.8616 C   0  0  0  0  0  0  0  0  0  0  0  0
    7.6550  -13.2145   25.6241 C   0  0  0  0  0  0  0  0  0  0  0  0
    6.8745  -12.5876   26.6632 C   0  0  0  0  0  0  0  0  0  0  0  0
    6.3332  -11.2087   26.5571 C   0  0  0  0  0  0  0  0  0  0  0  0
    5.5484  -10.7366   27.7558 N   0  0  0  0  0  0  0  0  0  0  0  0
    4.9959   -9.4369   27.5425 C   0  0  0  0  0  0  0  0  0  0  0  0
    8.8552  -15.1732   26.7399 O   0  0  0  0  0  0  0  0  0  0  0  0
    8.1911  -16.2394   26.4012 O   0  0  0  0  0  0  0  0  0  0  0  0
  2  5  1  0
  2  1  1  6
  3  2  1  0
  4  3  1  0
  5  6  2  0
  8 10  1  0
  8  7  1  0
  9  8  2  0
 11 10  1  0
 11 12  1  0
 13 12  1  0
 14 13  1  6
 15 14  1  0
 15  5  1  0
 16 17  2  0
 16 14  1  0
 18 16  1  0
 19 18  1  0
 19 25  1  0
 19 20  1  6
 21 20  1  0
 22 21  1  0
 23 22  1  0
 23 24  1  0
 25 27  1  0
 26 25  2  0
M  END
$$$$
