CRK.pdb
     RDKit          3D

 27 26  0  0  1  0  0  0  0  0999 V2000
    5.0262  -12.2989   26.3338 N   0  0  0  0  0  0  0  0  0  0  0  0
    6.3832  -12.5019   25.8762 C   0  0  1  0  0  0  0  0  0  0  0  0
    7.3070  -12.2683   27.0605 C   0  0  0  0  0  0  0  0  0  0  0  0
    8.9975  -12.7193   26.5727 S   0  0  0  0  0  0  0  0  0  0  0  0
    6.5657  -13.8789   25.3813 C   0  0  0  0  0  0  0  0  0  0  0  0
    6.0414  -14.8339   25.9887 O   0  0  0  0  0  0  0  0  0  0  0  0
    8.8046  -13.4684   16.9254 N   0  0  0  0  0  0  0  0  0  0  0  0
    8.5759  -13.3532   18.3146 C   0  0  0  0  0  0  0  0  0  0  0  0
    8.3602  -12.2085   18.9069 N   0  0  0  0  0  0  0  0  0  0  0  0
    8.5755  -14.5303   19.1336 N   0  0  0  0  0  0  0  0  0  0  0  0
    7.4747  -14.8739   19.9898 C   0  0  0  0  0  0  0  0  0  0  0  0
    7.9507  -14.8565   21.4183 C   0  0  0  0  0  0  0  0  0  0  0  0
    6.9884  -15.5562   22.3548 C   0  0  0  0  0  0  0  0  0  0  0  0
    7.6039  -15.4390   23.7538 C   0  0  2  0  0  0  0  0  0  0  0  0
    7.3395  -14.1026   24.2141 N   0  0  0  0  0  0  0  0  0  0  0  0
    9.0571  -15.6738   23.6957 C   0  0  0  0  0  0  0  0  0  0  0  0
    9.8162  -14.6647   23.6144 O   0  0  0  0  0  0  0  0  0  0  0  0
    8.1711  -12.1856   19.9338 N   0  0  0  0  0  0  0  0  0  0  0  0
    9.6616  -16.9259   23.7234 C   0  0  1  0  0  0  0  0  0  0  0  0
   10.9314  -17.1990   24.5048 C   0  0  0  0  0  0  0  0  0  0  0  0
   10.5443  -17.9556   25.6975 C   0  0  0  0  0  0  0  0  0  0  0  0
   11.2794  -17.9531   26.9391 C   0  0  0  0  0  0  0  0  0  0  0  0
   10.8825  -18.7565   28.1234 C   0  0  0  0  0  0  0  0  0  0  0  0
   11.7625  -18.5840   29.3364 N   0  0  0  0  0  0  0  0  0  0  0  0
   11.2231  -19.2554   30.4758 C   0  0  0  0  0  0  0  0  0  0  0  0
   11.9125  -17.6947   23.5569 O   0  0  0  0  0  0  0  0  0  0  0  0
   11.5195  -18.1659   22.4097 O   0  0  0  0  0  0  0  0  0  0  0  0
  2  5  1  0
  2  1  1  1
  3  2  1  0
  4  3  1  0
  5  6  2  0
  8 10  1  0
  8  7  1  0
  9  8  2  0
 11 10  1  0
 11 12  1  0
 13 12  1  0
 14 13  1  6
 15 14  1  0
 15  5  1  0
 16 17  2  0
 16 14  1  0
 18 16  1  0
 19 18  1  0
 19 25  1  0
 19 20  1  6
 21 20  1  0
 22 21  1  0
 23 22  1  0
 23 24  1  0
 25 27  1  0
 26 25  2  0
M  END
$$$$
