RDT.pdb
     RDKit          3D

 27 26  0  0  1  0  0  0  0  0999 V2000
162293.5469-71964.085910456.2344 N   0  0  0  0  0  0  0  0  0  0  0  0
162292.6719-71962.968810456.3066 C   0  0  0  0  0  0  0  0  0  0  0  0
162293.1562-71961.828110456.6924 N   0  0  0  0  0  0  0  0  0  0  0  0
162291.3125-71963.085910455.9336 N   0  0  0  0  0  0  0  0  0  0  0  0
162290.2031-71963.320310456.8809 C   0  0  0  0  0  0  0  0  0  0  0  0
162290.7188-71963.773410458.2197 C   0  0  0  0  0  0  0  0  0  0  0  0
162290.1094-71965.015610458.7168 C   0  0  0  0  0  0  0  0  0  0  0  0
162289.0312-71964.843810459.7949 C   0  0  2  0  0  0  0  0  0  0  0  0
162288.0469-71965.921910459.5498 N   0  0  0  0  0  0  0  0  0  0  0  0
162288.3125-71963.507810459.4756 C   0  0  0  0  0  0  0  0  0  0  0  0
162287.0781-71963.554710459.2285 O   0  0  0  0  0  0  0  0  0  0  0  0
162289.0312-71962.250010459.4844 N   0  0  0  0  0  0  0  0  0  0  0  0
162290.3281-71962.031210458.8633 C   0  0  1  0  0  0  0  0  0  0  0  0
162290.1250-71961.921910457.3828 C   0  0  0  0  0  0  0  0  0  0  0  0
162288.9062-71961.179710457.0723 C   0  0  0  0  0  0  0  0  0  0  0  0
162288.2812-71960.546910457.9795 O   0  0  0  0  0  0  0  0  0  0  0  0
162290.9062-71960.757810459.4092 C   0  0  0  0  0  0  0  0  0  0  0  0
162290.4375-71959.625010459.1582 O   0  0  0  0  0  0  0  0  0  0  0  0
162288.3594-71961.109410455.7627 O   0  0  0  0  0  0  0  0  0  0  0  0
162294.5156-71961.148410460.8604 C   0  0  0  0  0  0  0  0  0  0  0  0
162293.9219-71959.968810461.6240 C   0  0  1  0  0  0  0  0  0  0  0  0
162294.7031-71958.867210461.5146 O   0  0  0  0  0  0  0  0  0  0  0  0
162292.5625-71959.609410460.9824 C   0  0  2  0  0  0  0  0  0  0  0  0
162292.0469-71960.804710460.2334 N   0  0  0  0  0  0  0  0  0  0  0  0
162292.6406-71958.445310460.1416 C   0  0  0  0  0  0  0  0  0  0  0  0
162292.0781-71957.234410460.5400 O   0  0  0  0  0  0  0  0  0  0  0  0
162293.2656-71958.445310459.0410 O   0  0  0  0  0  0  0  0  0  0  0  0
  2  3  2  0
  2  1  1  0
  4  2  1  0
  5  4  1  0
  6  5  1  0
  7  6  1  0
  8  7  1  0
  8  9  1  6
 10 12  1  0
 10  8  1  0
 11 10  2  0
 13 12  1  0
 13 14  1  6
 15 19  1  0
 15 14  1  0
 16 15  2  0
 17 24  1  0
 17 13  1  0
 18 17  2  0
 21 20  1  6
 22 21  1  0
 23 25  1  0
 23 21  1  0
 23 24  1  6
 25 26  1  0
 27 25  2  0
M  END
$$$$
