RDT.pdb
     RDKit          3D

 27 26  0  0  1  0  0  0  0  0999 V2000
   14.6292  -14.6907  -16.7293 N   0  0  0  0  0  0  0  0  0  0  0  0
   14.8236  -14.8939  -18.1283 C   0  0  0  0  0  0  0  0  0  0  0  0
   14.0255  -15.6751  -18.7484 N   0  0  0  0  0  0  0  0  0  0  0  0
   15.8672  -14.2500  -18.8409 N   0  0  0  0  0  0  0  0  0  0  0  0
   16.6799  -13.1932  -18.3009 C   0  0  0  0  0  0  0  0  0  0  0  0
   15.9868  -11.8805  -18.2028 C   0  0  0  0  0  0  0  0  0  0  0  0
   16.7331  -10.7543  -17.5927 C   0  0  0  0  0  0  0  0  0  0  0  0
   18.2163  -10.9476  -17.4758 C   0  0  2  0  0  0  0  0  0  0  0  0
   18.4056  -12.3375  -16.9979 N   0  0  0  0  0  0  0  0  0  0  0  0
   18.7080  -10.0267  -16.3837 C   0  0  0  0  0  0  0  0  0  0  0  0
   18.0747  -10.0164  -15.3088 O   0  0  0  0  0  0  0  0  0  0  0  0
   19.8442   -9.1942  -16.5465 N   0  0  0  0  0  0  0  0  0  0  0  0
   20.3708   -8.3290  -15.5211 C   0  0  1  0  0  0  0  0  0  0  0  0
   21.7283   -8.8351  -15.1078 C   0  0  0  0  0  0  0  0  0  0  0  0
   22.2890   -8.0102  -14.0418 C   0  0  0  0  0  0  0  0  0  0  0  0
   23.2004   -7.1903  -14.3042 O   0  0  0  0  0  0  0  0  0  0  0  0
   20.4580   -6.9113  -16.0128 C   0  0  0  0  0  0  0  0  0  0  0  0
   20.8140   -6.6316  -17.1960 O   0  0  0  0  0  0  0  0  0  0  0  0
   21.8379   -8.1075  -12.7294 O   0  0  0  0  0  0  0  0  0  0  0  0
   19.3373   -2.1859  -15.5749 C   0  0  0  0  0  0  0  0  0  0  0  0
   19.0826   -3.6327  -15.2147 C   0  0  1  0  0  0  0  0  0  0  0  0
   18.0096   -4.1261  -15.9423 O   0  0  0  0  0  0  0  0  0  0  0  0
   20.3412   -4.4384  -15.5616 C   0  0  2  0  0  0  0  0  0  0  0  0
   20.1443   -5.8114  -15.1713 N   0  0  0  0  0  0  0  0  0  0  0  0
   21.5315   -3.8223  -14.9516 C   0  0  0  0  0  0  0  0  0  0  0  0
   21.8720   -4.1271  -13.6525 O   0  0  0  0  0  0  0  0  0  0  0  0
   22.2260   -3.0279  -15.6125 O   0  0  0  0  0  0  0  0  0  0  0  0
  2  3  2  0
  2  1  1  0
  4  2  1  0
  5  4  1  0
  6  5  1  0
  7  6  1  0
  8  7  1  0
  8  9  1  1
 10 12  1  0
 10  8  1  0
 11 10  2  0
 13 12  1  0
 13 14  1  6
 15 19  1  0
 15 14  1  0
 16 15  2  0
 17 24  1  0
 17 13  1  0
 18 17  2  0
 21 20  1  6
 22 21  1  0
 23 25  1  0
 23 21  1  0
 23 24  1  1
 25 26  1  0
 27 25  2  0
M  END
$$$$
