RDT.pdb
     RDKit          3D

 27 26  0  0  1  0  0  0  0  0999 V2000
   27.6090  -23.0527  -15.8696 N   0  0  0  0  0  0  0  0  0  0  0  0
   28.5295  -22.4615  -16.7858 C   0  0  0  0  0  0  0  0  0  0  0  0
   29.7402  -22.8686  -16.7829 N   0  0  0  0  0  0  0  0  0  0  0  0
   28.1342  -21.4477  -17.6955 N   0  0  0  0  0  0  0  0  0  0  0  0
   26.9673  -20.6237  -17.5276 C   0  0  0  0  0  0  0  0  0  0  0  0
   26.8020  -20.0731  -16.1555 C   0  0  0  0  0  0  0  0  0  0  0  0
   25.6111  -19.2303  -15.8930 C   0  0  0  0  0  0  0  0  0  0  0  0
   24.3602  -19.6328  -16.6169 C   0  0  2  0  0  0  0  0  0  0  0  0
   24.6179  -19.3594  -18.0504 N   0  0  0  0  0  0  0  0  0  0  0  0
   23.2595  -18.6981  -16.1726 C   0  0  0  0  0  0  0  0  0  0  0  0
   22.9832  -18.6687  -14.9563 O   0  0  0  0  0  0  0  0  0  0  0  0
   22.5503  -17.8734  -17.0821 N   0  0  0  0  0  0  0  0  0  0  0  0
   21.4638  -17.0020  -16.7109 C   0  0  1  0  0  0  0  0  0  0  0  0
   21.4919  -15.7848  -17.5980 C   0  0  0  0  0  0  0  0  0  0  0  0
   22.6451  -14.9438  -17.2917 C   0  0  0  0  0  0  0  0  0  0  0  0
   22.9507  -14.7188  -16.0968 O   0  0  0  0  0  0  0  0  0  0  0  0
   20.1455  -17.7148  -16.8263 C   0  0  0  0  0  0  0  0  0  0  0  0
   19.0410  -17.0970  -16.7701 O   0  0  0  0  0  0  0  0  0  0  0  0
   23.4237  -14.3782  -18.2963 O   0  0  0  0  0  0  0  0  0  0  0  0
   17.7314  -21.9158  -17.8229 C   0  0  0  0  0  0  0  0  0  0  0  0
   19.0529  -21.1816  -17.7737 C   0  0  1  0  0  0  0  0  0  0  0  0
   19.5099  -20.9302  -19.0590 O   0  0  0  0  0  0  0  0  0  0  0  0
   18.8303  -19.8488  -17.0472 C   0  0  2  0  0  0  0  0  0  0  0  0
   20.0735  -19.1217  -17.0048 N   0  0  0  0  0  0  0  0  0  0  0  0
   18.2423  -20.0792  -15.7169 C   0  0  0  0  0  0  0  0  0  0  0  0
   16.8899  -19.9043  -15.5252 O   0  0  0  0  0  0  0  0  0  0  0  0
   18.9701  -20.4315  -14.7700 O   0  0  0  0  0  0  0  0  0  0  0  0
  2  3  2  0
  2  1  1  0
  4  2  1  0
  5  4  1  0
  6  5  1  0
  7  6  1  0
  8  7  1  0
  8  9  1  6
 10 12  1  0
 10  8  1  0
 11 10  2  0
 13 12  1  0
 13 14  1  6
 15 19  1  0
 15 14  1  0
 16 15  2  0
 17 24  1  0
 17 13  1  0
 18 17  2  0
 21 20  1  6
 22 21  1  0
 23 25  1  0
 23 21  1  0
 23 24  1  1
 25 26  1  0
 27 25  2  0
M  END
$$$$
