RDT.pdb
     RDKit          3D

 27 26  0  0  1  0  0  0  0  0999 V2000
   14.4875  -14.2804  -18.5447 N   0  0  0  0  0  0  0  0  0  0  0  0
   14.6869  -15.3279  -17.5963 C   0  0  0  0  0  0  0  0  0  0  0  0
   14.3037  -16.5078  -17.9004 N   0  0  0  0  0  0  0  0  0  0  0  0
   15.3008  -15.0934  -16.3395 N   0  0  0  0  0  0  0  0  0  0  0  0
   15.7089  -13.7964  -15.8706 C   0  0  0  0  0  0  0  0  0  0  0  0
   16.9903  -13.3133  -16.4520 C   0  0  0  0  0  0  0  0  0  0  0  0
   17.4903  -11.9907  -16.0072 C   0  0  0  0  0  0  0  0  0  0  0  0
   18.7782  -11.5412  -16.6318 C   0  0  2  0  0  0  0  0  0  0  0  0
   19.7416  -12.6449  -16.4085 N   0  0  0  0  0  0  0  0  0  0  0  0
   19.2711  -10.3493  -15.8451 C   0  0  0  0  0  0  0  0  0  0  0  0
   19.1915  -10.4057  -14.6013 O   0  0  0  0  0  0  0  0  0  0  0  0
   19.8090   -9.1962  -16.4707 N   0  0  0  0  0  0  0  0  0  0  0  0
   20.2002   -7.9994  -15.7691 C   0  0  1  0  0  0  0  0  0  0  0  0
   21.7036   -7.9021  -15.7746 C   0  0  0  0  0  0  0  0  0  0  0  0
   22.2886   -8.8273  -14.8087 C   0  0  0  0  0  0  0  0  0  0  0  0
   21.9295   -8.7825  -13.6084 O   0  0  0  0  0  0  0  0  0  0  0  0
   19.5857   -6.7839  -16.4047 C   0  0  0  0  0  0  0  0  0  0  0  0
   19.8270   -6.4593  -17.6053 O   0  0  0  0  0  0  0  0  0  0  0  0
   23.2431   -9.7674  -15.1838 O   0  0  0  0  0  0  0  0  0  0  0  0
   15.9545   -5.9846  -16.6590 C   0  0  0  0  0  0  0  0  0  0  0  0
   16.5722   -4.8045  -15.9423 C   0  0  1  0  0  0  0  0  0  0  0  0
   16.4074   -4.9363  -14.5713 O   0  0  0  0  0  0  0  0  0  0  0  0
   18.0706   -4.7791  -16.2706 C   0  0  2  0  0  0  0  0  0  0  0  0
   18.7006   -5.9363  -15.6874 N   0  0  0  0  0  0  0  0  0  0  0  0
   18.6712   -3.5062  -15.8377 C   0  0  0  0  0  0  0  0  0  0  0  0
   18.2739   -2.3257  -16.4250 O   0  0  0  0  0  0  0  0  0  0  0  0
   19.5361   -3.5017  -14.9421 O   0  0  0  0  0  0  0  0  0  0  0  0
  2  3  2  0
  2  1  1  0
  4  2  1  0
  5  4  1  0
  6  5  1  0
  7  6  1  0
  8  7  1  0
  8  9  1  1
 10 12  1  0
 10  8  1  0
 11 10  2  0
 13 12  1  0
 13 14  1  6
 15 19  1  0
 15 14  1  0
 16 15  2  0
 17 24  1  0
 17 13  1  0
 18 17  2  0
 21 20  1  6
 22 21  1  0
 23 25  1  0
 23 21  1  0
 23 24  1  1
 25 26  1  0
 27 25  2  0
M  END
$$$$
