RDT.pdb
     RDKit          3D

 27 26  0  0  1  0  0  0  0  0999 V2000
   18.5564  -17.0538  -15.0396 N   0  0  0  0  0  0  0  0  0  0  0  0
   17.4186  -16.6493  -15.8000 C   0  0  0  0  0  0  0  0  0  0  0  0
   17.2315  -17.1785  -16.9473 N   0  0  0  0  0  0  0  0  0  0  0  0
   16.4959  -15.6881  -15.3137 N   0  0  0  0  0  0  0  0  0  0  0  0
   16.8648  -14.3756  -14.8554 C   0  0  0  0  0  0  0  0  0  0  0  0
   16.2325  -13.2642  -15.6158 C   0  0  0  0  0  0  0  0  0  0  0  0
   16.5269  -11.8788  -15.1783 C   0  0  0  0  0  0  0  0  0  0  0  0
   17.2403  -11.0205  -16.1810 C   0  0  2  0  0  0  0  0  0  0  0  0
   18.4574  -11.7743  -16.5639 N   0  0  0  0  0  0  0  0  0  0  0  0
   17.6937   -9.7698  -15.4649 C   0  0  0  0  0  0  0  0  0  0  0  0
   17.1739   -9.5172  -14.3592 O   0  0  0  0  0  0  0  0  0  0  0  0
   18.6720   -8.8975  -16.0056 N   0  0  0  0  0  0  0  0  0  0  0  0
   19.1272   -7.6900  -15.3636 C   0  0  1  0  0  0  0  0  0  0  0  0
   20.6172   -7.5712  -15.5517 C   0  0  0  0  0  0  0  0  0  0  0  0
   21.3277   -8.5047  -14.6828 C   0  0  0  0  0  0  0  0  0  0  0  0
   21.0036   -8.5998  -13.4754 O   0  0  0  0  0  0  0  0  0  0  0  0
   18.4219   -6.4882  -15.9272 C   0  0  0  0  0  0  0  0  0  0  0  0
   18.4468   -6.2136  -17.1636 O   0  0  0  0  0  0  0  0  0  0  0  0
   22.3647   -9.3004  -15.1588 O   0  0  0  0  0  0  0  0  0  0  0  0
   15.1215   -2.8859  -15.1912 C   0  0  0  0  0  0  0  0  0  0  0  0
   15.8576   -4.0818  -14.6292 C   0  0  1  0  0  0  0  0  0  0  0  0
   14.9945   -5.1604  -14.5033 O   0  0  0  0  0  0  0  0  0  0  0  0
   16.9848   -4.4480  -15.6034 C   0  0  2  0  0  0  0  0  0  0  0  0
   17.6900   -5.5981  -15.0975 N   0  0  0  0  0  0  0  0  0  0  0  0
   17.8571   -3.2859  -15.8421 C   0  0  0  0  0  0  0  0  0  0  0  0
   19.0115   -3.1324  -15.1071 O   0  0  0  0  0  0  0  0  0  0  0  0
   17.5478   -2.4459  -16.7076 O   0  0  0  0  0  0  0  0  0  0  0  0
  2  3  2  0
  2  1  1  0
  4  2  1  0
  5  4  1  0
  6  5  1  0
  7  6  1  0
  8  7  1  0
  8  9  1  1
 10 12  1  0
 10  8  1  0
 11 10  2  0
 13 12  1  0
 13 14  1  6
 15 19  1  0
 15 14  1  0
 16 15  2  0
 17 24  1  0
 17 13  1  0
 18 17  2  0
 21 20  1  6
 22 21  1  0
 23 25  1  0
 23 21  1  0
 23 24  1  1
 25 26  1  0
 27 25  2  0
M  END
$$$$
