RDT.pdb
     RDKit          3D

 27 26  0  0  1  0  0  0  0  0999 V2000
   24.7240  -21.3040  -11.5800 N   0  0  0  0  0  0  0  0  0  0  0  0
   25.4966  -20.6319  -10.5861 C   0  0  0  0  0  0  0  0  0  0  0  0
   24.9649  -20.4105   -9.4460 N   0  0  0  0  0  0  0  0  0  0  0  0
   26.8300  -20.2145  -10.8295 N   0  0  0  0  0  0  0  0  0  0  0  0
   27.5024  -20.3585  -12.0928 C   0  0  0  0  0  0  0  0  0  0  0  0
   27.6067  -19.0976  -12.8753 C   0  0  0  0  0  0  0  0  0  0  0  0
   26.8977  -19.0362  -14.1756 C   0  0  0  0  0  0  0  0  0  0  0  0
   26.1404  -20.2731  -14.5598 C   0  0  2  0  0  0  0  0  0  0  0  0
   27.0742  -21.0791  -15.3810 N   0  0  0  0  0  0  0  0  0  0  0  0
   25.0043  -19.8469  -15.4600 C   0  0  0  0  0  0  0  0  0  0  0  0
   25.1885  -19.9127  -16.6922 O   0  0  0  0  0  0  0  0  0  0  0  0
   23.7641  -19.3853  -14.9509 N   0  0  0  0  0  0  0  0  0  0  0  0
   22.6041  -19.1130  -15.7619 C   0  0  1  0  0  0  0  0  0  0  0  0
   21.3675  -19.3186  -14.9263 C   0  0  0  0  0  0  0  0  0  0  0  0
   21.1863  -20.7307  -14.6032 C   0  0  0  0  0  0  0  0  0  0  0  0
   21.0909  -21.5726  -15.5272 O   0  0  0  0  0  0  0  0  0  0  0  0
   22.6516  -17.7132  -16.3072 C   0  0  0  0  0  0  0  0  0  0  0  0
   22.9036  -16.7137  -15.5706 O   0  0  0  0  0  0  0  0  0  0  0  0
   21.1154  -21.1752  -13.2869 O   0  0  0  0  0  0  0  0  0  0  0  0
   23.1108  -14.8436  -20.2750 C   0  0  0  0  0  0  0  0  0  0  0  0
   22.9898  -16.2400  -19.7063 C   0  0  1  0  0  0  0  0  0  0  0  0
   24.2215  -16.8774  -19.7340 O   0  0  0  0  0  0  0  0  0  0  0  0
   22.5146  -16.1225  -18.2523 C   0  0  2  0  0  0  0  0  0  0  0  0
   22.4154  -17.4414  -17.6808 N   0  0  0  0  0  0  0  0  0  0  0  0
   21.2577  -15.3586  -18.1814 C   0  0  0  0  0  0  0  0  0  0  0  0
   21.2778  -14.0402  -17.7842 O   0  0  0  0  0  0  0  0  0  0  0  0
   20.1809  -15.9075  -18.4809 O   0  0  0  0  0  0  0  0  0  0  0  0
  2  3  2  0
  2  1  1  0
  4  2  1  0
  5  4  1  0
  6  5  1  0
  7  6  1  0
  8  7  1  0
  8  9  1  6
 10 12  1  0
 10  8  1  0
 11 10  2  0
 13 12  1  0
 13 14  1  1
 15 19  1  0
 15 14  1  0
 16 15  2  0
 17 24  1  0
 17 13  1  0
 18 17  2  0
 21 20  1  1
 22 21  1  0
 23 25  1  0
 23 21  1  0
 23 24  1  6
 25 26  1  0
 27 25  2  0
M  END
$$$$
