EGA.pdb
     RDKit          3D

 19 18  0  0  1  0  0  0  0  0999 V2000
   19.4607  -12.1915  -16.7824 N   0  0  0  0  0  0  0  0  0  0  0  0
   20.8239  -11.9846  -17.3064 C   0  0  1  0  0  0  0  0  0  0  0  0
   20.8766  -12.4918  -18.7426 C   0  0  0  0  0  0  0  0  0  0  0  0
   19.6154  -12.3309  -19.5101 C   0  0  0  0  0  0  0  0  0  0  0  0
   19.8894  -12.8887  -20.8877 C   0  0  0  0  0  0  0  0  0  0  0  0
   19.4321  -12.3050  -21.9160 O   0  0  0  0  0  0  0  0  0  0  0  0
   21.0128  -10.5021  -17.4450 C   0  0  0  0  0  0  0  0  0  0  0  0
   22.1440  -10.0915  -17.7928 O   0  0  0  0  0  0  0  0  0  0  0  0
   20.6335  -14.0339  -21.0792 O   0  0  0  0  0  0  0  0  0  0  0  0
   20.0183   -9.5429  -17.2130 N   0  0  0  0  0  0  0  0  0  0  0  0
   20.1807   -8.1308  -17.4491 C   0  0  0  0  0  0  0  0  0  0  0  0
   20.9784   -7.5463  -16.3488 C   0  0  0  0  0  0  0  0  0  0  0  0
   21.0123   -8.1469  -15.2127 O   0  0  0  0  0  0  0  0  0  0  0  0
   23.3959   -4.6864  -15.8171 C   0  0  0  0  0  0  0  0  0  0  0  0
   22.5461   -5.8559  -15.3858 C   0  0  2  0  0  0  0  0  0  0  0  0
   21.7209   -6.3684  -16.4377 N   0  0  0  0  0  0  0  0  0  0  0  0
   21.7231   -5.4522  -14.2332 C   0  0  0  0  0  0  0  0  0  0  0  0
   22.2649   -5.2716  -13.1225 O   0  0  0  0  0  0  0  0  0  0  0  0
   20.3630   -5.2655  -14.3327 O   0  0  0  0  0  0  0  0  0  0  0  0
  2  1  1  6
  2  7  1  0
  3  2  1  0
  4  3  1  0
  5  4  1  0
  5  6  2  0
  7  8  2  0
  9  5  1  0
 10 11  1  0
 10  7  1  0
 12 13  2  0
 12 11  1  0
 15 14  1  6
 15 16  1  0
 15 17  1  0
 16 12  1  0
 17 19  1  0
 18 17  2  0
M  END
$$$$
