EGA.pdb
     RDKit          3D

 19 18  0  0  1  0  0  0  0  0999 V2000
   21.6933  -10.4471  -16.9747 N   0  0  0  0  0  0  0  0  0  0  0  0
   21.6857  -10.0673  -18.4000 C   0  0  1  0  0  0  0  0  0  0  0  0
   20.2944   -9.5619  -18.7626 C   0  0  0  0  0  0  0  0  0  0  0  0
   19.2747   -9.7138  -17.6937 C   0  0  0  0  0  0  0  0  0  0  0  0
   18.0029   -9.1060  -18.2387 C   0  0  0  0  0  0  0  0  0  0  0  0
   17.3101   -9.7342  -19.0947 O   0  0  0  0  0  0  0  0  0  0  0  0
   22.5518   -8.8481  -18.5266 C   0  0  0  0  0  0  0  0  0  0  0  0
   22.7299   -8.3798  -19.6746 O   0  0  0  0  0  0  0  0  0  0  0  0
   17.5526   -7.8664  -17.8355 O   0  0  0  0  0  0  0  0  0  0  0  0
   23.1771   -8.1954  -17.4562 N   0  0  0  0  0  0  0  0  0  0  0  0
   24.0126   -7.0293  -17.5920 C   0  0  0  0  0  0  0  0  0  0  0  0
   23.4031   -5.9091  -16.8419 C   0  0  0  0  0  0  0  0  0  0  0  0
   24.0518   -4.8049  -16.7292 O   0  0  0  0  0  0  0  0  0  0  0  0
   20.0409   -4.7984  -15.7209 C   0  0  0  0  0  0  0  0  0  0  0  0
   21.5422   -4.8260  -15.5747 C   0  0  2  0  0  0  0  0  0  0  0  0
   22.1495   -5.9445  -16.2305 N   0  0  0  0  0  0  0  0  0  0  0  0
   21.8854   -4.8174  -14.1425 C   0  0  0  0  0  0  0  0  0  0  0  0
   21.5696   -3.8348  -13.4393 O   0  0  0  0  0  0  0  0  0  0  0  0
   22.5503   -5.8620  -13.5415 O   0  0  0  0  0  0  0  0  0  0  0  0
  2  1  1  1
  2  7  1  0
  3  2  1  0
  4  3  1  0
  5  4  1  0
  5  6  2  0
  7  8  2  0
  9  5  1  0
 10 11  1  0
 10  7  1  0
 12 13  2  0
 12 11  1  0
 15 14  1  1
 15 16  1  0
 15 17  1  0
 16 12  1  0
 17 19  1  0
 18 17  2  0
M  END
$$$$
