EGA.pdb
     RDKit          3D

 19 18  0  0  1  0  0  0  0  0999 V2000
   20.6253  -20.0232  -15.9011 N   0  0  0  0  0  0  0  0  0  0  0  0
   20.7497  -19.3941  -14.5727 C   0  0  1  0  0  0  0  0  0  0  0  0
   20.1738  -20.3425  -13.5281 C   0  0  0  0  0  0  0  0  0  0  0  0
   19.9308  -21.7275  -14.0059 C   0  0  0  0  0  0  0  0  0  0  0  0
   19.2265  -22.4428  -12.8762 C   0  0  0  0  0  0  0  0  0  0  0  0
   18.9184  -23.6674  -12.9889 O   0  0  0  0  0  0  0  0  0  0  0  0
   22.2148  -19.3548  -14.2492 C   0  0  0  0  0  0  0  0  0  0  0  0
   22.5577  -18.8025  -13.1784 O   0  0  0  0  0  0  0  0  0  0  0  0
   18.8958  -21.8050  -11.6991 O   0  0  0  0  0  0  0  0  0  0  0  0
   23.2278  -19.8889  -15.0563 N   0  0  0  0  0  0  0  0  0  0  0  0
   24.6373  -19.7130  -14.8140 C   0  0  0  0  0  0  0  0  0  0  0  0
   25.1250  -18.5679  -15.6138 C   0  0  0  0  0  0  0  0  0  0  0  0
   24.3201  -17.9868  -16.4306 O   0  0  0  0  0  0  0  0  0  0  0  0
   28.1784  -16.3708  -15.8950 C   0  0  0  0  0  0  0  0  0  0  0  0
   26.8957  -16.9879  -16.3951 C   0  0  2  0  0  0  0  0  0  0  0  0
   26.4175  -18.0456  -15.5568 N   0  0  0  0  0  0  0  0  0  0  0  0
   27.0999  -17.4709  -17.7713 C   0  0  0  0  0  0  0  0  0  0  0  0
   27.0577  -18.6967  -18.0065 O   0  0  0  0  0  0  0  0  0  0  0  0
   27.3401  -16.6138  -18.8212 O   0  0  0  0  0  0  0  0  0  0  0  0
  2  1  1  6
  2  7  1  0
  3  2  1  0
  4  3  1  0
  5  4  1  0
  5  6  2  0
  7  8  2  0
  9  5  1  0
 10 11  1  0
 10  7  1  0
 12 13  2  0
 12 11  1  0
 15 14  1  1
 15 16  1  0
 15 17  1  0
 16 12  1  0
 17 19  1  0
 18 17  2  0
M  END
$$$$
