EGA.pdb
     RDKit          3D

 19 18  0  0  1  0  0  0  0  0999 V2000
   18.5507  -22.1330  -11.9987 N   0  0  0  0  0  0  0  0  0  0  0  0
   19.4201  -21.8449  -10.8424 C   0  0  1  0  0  0  0  0  0  0  0  0
   19.7367  -23.1554  -10.1318 C   0  0  0  0  0  0  0  0  0  0  0  0
   19.3353  -24.3805  -10.8691 C   0  0  0  0  0  0  0  0  0  0  0  0
   18.3476  -25.0998   -9.9799 C   0  0  0  0  0  0  0  0  0  0  0  0
   17.7347  -26.1254  -10.4043 O   0  0  0  0  0  0  0  0  0  0  0  0
   20.7456  -21.4107  -11.3964 C   0  0  0  0  0  0  0  0  0  0  0  0
   21.6676  -21.1794  -10.5806 O   0  0  0  0  0  0  0  0  0  0  0  0
   18.0770  -24.6782   -8.6950 O   0  0  0  0  0  0  0  0  0  0  0  0
   21.0284  -21.2436  -12.7584 N   0  0  0  0  0  0  0  0  0  0  0  0
   22.3260  -20.9010  -13.2827 C   0  0  0  0  0  0  0  0  0  0  0  0
   22.1749  -19.8082  -14.2685 C   0  0  0  0  0  0  0  0  0  0  0  0
   20.9940  -19.4273  -14.6046 O   0  0  0  0  0  0  0  0  0  0  0  0
   24.3790  -17.4261  -16.2189 C   0  0  0  0  0  0  0  0  0  0  0  0
   23.0676  -18.0200  -15.7677 C   0  0  2  0  0  0  0  0  0  0  0  0
   23.2306  -19.1329  -14.8817 N   0  0  0  0  0  0  0  0  0  0  0  0
   22.2854  -18.4123  -16.9522 C   0  0  0  0  0  0  0  0  0  0  0  0
   22.3159  -19.5972  -17.3458 O   0  0  0  0  0  0  0  0  0  0  0  0
   21.5138  -17.5128  -17.6524 O   0  0  0  0  0  0  0  0  0  0  0  0
  2  1  1  6
  2  7  1  0
  3  2  1  0
  4  3  1  0
  5  4  1  0
  5  6  2  0
  7  8  2  0
  9  5  1  0
 10 11  1  0
 10  7  1  0
 12 13  2  0
 12 11  1  0
 15 14  1  6
 15 16  1  0
 15 17  1  0
 16 12  1  0
 17 19  1  0
 18 17  2  0
M  END
$$$$
