EGA.pdb
     RDKit          3D

 19 18  0  0  1  0  0  0  0  0999 V2000
   20.3369   -7.7403  -16.2871 N   0  0  0  0  0  0  0  0  0  0  0  0
   19.8066   -7.8492  -17.6593 C   0  0  1  0  0  0  0  0  0  0  0  0
   18.3620   -8.3294  -17.5872 C   0  0  0  0  0  0  0  0  0  0  0  0
   18.1857   -9.7079  -17.0636 C   0  0  0  0  0  0  0  0  0  0  0  0
   16.7038   -9.9959  -17.1328 C   0  0  0  0  0  0  0  0  0  0  0  0
   16.2078  -10.5499  -18.1597 O   0  0  0  0  0  0  0  0  0  0  0  0
   19.6909   -6.4499  -18.1898 C   0  0  0  0  0  0  0  0  0  0  0  0
   19.3411   -6.3096  -19.3844 O   0  0  0  0  0  0  0  0  0  0  0  0
   15.8463   -9.6736  -16.1019 O   0  0  0  0  0  0  0  0  0  0  0  0
   19.9463   -5.2888  -17.4485 N   0  0  0  0  0  0  0  0  0  0  0  0
   19.8484   -3.9510  -17.9749 C   0  0  0  0  0  0  0  0  0  0  0  0
   20.3701   -2.9981  -16.9705 C   0  0  0  0  0  0  0  0  0  0  0  0
   20.7451   -3.4407  -15.8233 O   0  0  0  0  0  0  0  0  0  0  0  0
   21.1700    0.6894  -16.6916 C   0  0  0  0  0  0  0  0  0  0  0  0
   20.9599   -0.7082  -16.1639 C   0  0  2  0  0  0  0  0  0  0  0  0
   20.4974   -1.6223  -17.1642 N   0  0  0  0  0  0  0  0  0  0  0  0
   20.0170   -0.6580  -15.0337 C   0  0  0  0  0  0  0  0  0  0  0  0
   18.8379   -1.0356  -15.1980 O   0  0  0  0  0  0  0  0  0  0  0  0
   20.3883   -0.2040  -13.7885 O   0  0  0  0  0  0  0  0  0  0  0  0
  2  1  1  1
  2  7  1  0
  3  2  1  0
  4  3  1  0
  5  4  1  0
  5  6  2  0
  7  8  2  0
  9  5  1  0
 10 11  1  0
 10  7  1  0
 12 13  2  0
 12 11  1  0
 15 14  1  6
 15 16  1  0
 15 17  1  0
 16 12  1  0
 17 19  1  0
 18 17  2  0
M  END
$$$$
