EGA.pdb
     RDKit          3D

 19 18  0  0  1  0  0  0  0  0999 V2000
   32.5247    0.8255  -15.7542 N   0  0  0  0  0  0  0  0  0  0  0  0
   31.9464    1.8566  -16.6363 C   0  0  1  0  0  0  0  0  0  0  0  0
   30.7159    1.2766  -17.3232 C   0  0  0  0  0  0  0  0  0  0  0  0
   30.4048   -0.1311  -16.9665 C   0  0  0  0  0  0  0  0  0  0  0  0
   29.2365   -0.5350  -17.8358 C   0  0  0  0  0  0  0  0  0  0  0  0
   28.7819    0.2654  -18.7077 O   0  0  0  0  0  0  0  0  0  0  0  0
   31.3857    2.9243  -15.7427 C   0  0  0  0  0  0  0  0  0  0  0  0
   30.8814    3.9323  -16.2893 O   0  0  0  0  0  0  0  0  0  0  0  0
   28.6280   -1.7670  -17.7184 O   0  0  0  0  0  0  0  0  0  0  0  0
   31.3852    2.8779  -14.3425 N   0  0  0  0  0  0  0  0  0  0  0  0
   30.8105    3.8926  -13.4962 C   0  0  0  0  0  0  0  0  0  0  0  0
   30.2150    3.2473  -12.3054 C   0  0  0  0  0  0  0  0  0  0  0  0
   30.1341    1.9650  -12.2631 O   0  0  0  0  0  0  0  0  0  0  0  0
   28.9441    4.2067   -8.8807 C   0  0  0  0  0  0  0  0  0  0  0  0
   29.1096    3.2871  -10.0652 C   0  0  2  0  0  0  0  0  0  0  0  0
   29.7214    3.9262  -11.1909 N   0  0  0  0  0  0  0  0  0  0  0  0
   27.7938    2.7382  -10.4344 C   0  0  0  0  0  0  0  0  0  0  0  0
   27.2511    3.1021  -11.4988 O   0  0  0  0  0  0  0  0  0  0  0  0
   27.1294    1.8300   -9.6417 O   0  0  0  0  0  0  0  0  0  0  0  0
  2  1  1  1
  2  7  1  0
  3  2  1  0
  4  3  1  0
  5  4  1  0
  5  6  2  0
  7  8  2  0
  9  5  1  0
 10 11  1  0
 10  7  1  0
 12 13  2  0
 12 11  1  0
 15 14  1  1
 15 16  1  0
 15 17  1  0
 16 12  1  0
 17 19  1  0
 18 17  2  0
M  END
$$$$
