VSR.pdb
     RDKit          3D

 25 24  0  0  1  0  0  0  0  0999 V2000
    7.5207  -12.6672   19.6705 C   0  0  0  0  0  0  0  0  0  0  0  0
    8.5179  -13.2321   18.6464 C   0  0  2  0  0  0  0  0  0  0  0  0
    7.7367  -13.3310   17.3543 C   0  0  0  0  0  0  0  0  0  0  0  0
    8.8412  -14.6371   19.1147 C   0  0  2  0  0  0  0  0  0  0  0  0
    7.5331  -15.3329   19.1225 N   0  0  0  0  0  0  0  0  0  0  0  0
    9.3581  -14.6964   20.4965 C   0  0  0  0  0  0  0  0  0  0  0  0
   10.5888  -14.4868   20.6904 O   0  0  0  0  0  0  0  0  0  0  0  0
    7.0630  -15.9226   23.7737 O   0  0  0  0  0  0  0  0  0  0  0  0
    8.0162  -14.9224   23.9580 C   0  0  0  0  0  0  0  0  0  0  0  0
    9.1921  -15.0924   22.9760 C   0  0  2  0  0  0  0  0  0  0  0  0
    8.6033  -14.9681   21.6601 N   0  0  0  0  0  0  0  0  0  0  0  0
    9.9100  -16.3393   23.2218 C   0  0  0  0  0  0  0  0  0  0  0  0
    9.4924  -17.3950   22.6318 O   0  0  0  0  0  0  0  0  0  0  0  0
   17.8901  -17.9994   21.3129 N   0  0  0  0  0  0  0  0  0  0  0  0
   16.9373  -18.9960   20.8984 C   0  0  0  0  0  0  0  0  0  0  0  0
   17.3344  -19.8693   20.0547 N   0  0  0  0  0  0  0  0  0  0  0  0
   15.6314  -19.0185   21.3875 N   0  0  0  0  0  0  0  0  0  0  0  0
   15.1793  -17.9725   22.3299 C   0  0  0  0  0  0  0  0  0  0  0  0
   13.8127  -18.3956   22.7523 C   0  0  0  0  0  0  0  0  0  0  0  0
   13.0729  -17.5663   23.6863 C   0  0  0  0  0  0  0  0  0  0  0  0
   11.7187  -17.8434   24.1899 C   0  0  2  0  0  0  0  0  0  0  0  0
   11.0361  -16.4957   24.0580 N   0  0  0  0  0  0  0  0  0  0  0  0
   11.4735  -18.3429   25.5187 C   0  0  0  0  0  0  0  0  0  0  0  0
   10.9570  -17.6005   26.4491 O   0  0  0  0  0  0  0  0  0  0  0  0
   11.7381  -19.6277   25.9448 O   0  0  0  0  0  0  0  0  0  0  0  0
  2  1  1  1
  2  3  1  0
  4  2  1  0
  4  5  1  1
  4  6  1  0
  6  7  2  0
 10  9  1  1
  9  8  1  0
 10 12  1  0
 11  6  1  0
 11 10  1  0
 12 13  2  0
 15 14  1  0
 16 15  2  0
 17 15  1  0
 18 17  1  0
 19 18  1  0
 20 19  1  0
 21 20  1  1
 21 23  1  0
 22 21  1  0
 22 12  1  0
 23 25  1  0
 24 23  2  0
M  END
$$$$
