VSR.pdb
     RDKit          3D

 25 24  0  0  1  0  0  0  0  0999 V2000
    9.5533  -14.9080   16.3081 C   0  0  0  0  0  0  0  0  0  0  0  0
    8.1002  -15.3810   16.4725 C   0  0  2  0  0  0  0  0  0  0  0  0
    7.4928  -15.2644   15.0916 C   0  0  0  0  0  0  0  0  0  0  0  0
    7.4319  -14.3608   17.3730 C   0  0  2  0  0  0  0  0  0  0  0  0
    7.6932  -13.0601   16.7132 N   0  0  0  0  0  0  0  0  0  0  0  0
    8.0308  -14.2777   18.7200 C   0  0  0  0  0  0  0  0  0  0  0  0
    9.1464  -13.6991   18.8502 O   0  0  0  0  0  0  0  0  0  0  0  0
    6.8676  -16.6408   21.9731 O   0  0  0  0  0  0  0  0  0  0  0  0
    7.1415  -15.2944   22.2082 C   0  0  0  0  0  0  0  0  0  0  0  0
    8.1616  -14.7520   21.1878 C   0  0  2  0  0  0  0  0  0  0  0  0
    7.4746  -14.7880   19.9148 N   0  0  0  0  0  0  0  0  0  0  0  0
    9.4128  -15.5016   21.2417 C   0  0  0  0  0  0  0  0  0  0  0  0
    9.5581  -16.4802   20.4303 O   0  0  0  0  0  0  0  0  0  0  0  0
   16.0619  -13.1932   17.5232 N   0  0  0  0  0  0  0  0  0  0  0  0
   16.4617  -14.4322   18.1379 C   0  0  0  0  0  0  0  0  0  0  0  0
   17.5585  -14.9540   17.7417 N   0  0  0  0  0  0  0  0  0  0  0  0
   15.6932  -15.0495   19.1245 N   0  0  0  0  0  0  0  0  0  0  0  0
   14.4206  -14.4348   19.5595 C   0  0  0  0  0  0  0  0  0  0  0  0
   13.9648  -15.2627   20.7136 C   0  0  0  0  0  0  0  0  0  0  0  0
   12.6648  -14.9988   21.3032 C   0  0  0  0  0  0  0  0  0  0  0  0
   11.8034  -15.9960   21.9574 C   0  0  2  0  0  0  0  0  0  0  0  0
   10.4934  -15.2480   22.1133 N   0  0  0  0  0  0  0  0  0  0  0  0
   12.1341  -16.5920   23.2264 C   0  0  0  0  0  0  0  0  0  0  0  0
   13.1679  -17.3616   23.3773 O   0  0  0  0  0  0  0  0  0  0  0  0
   11.4241  -16.4146   24.3955 O   0  0  0  0  0  0  0  0  0  0  0  0
  2  1  1  6
  2  3  1  0
  4  2  1  0
  4  5  1  6
  4  6  1  0
  6  7  2  0
 10  9  1  1
  9  8  1  0
 10 12  1  0
 11  6  1  0
 11 10  1  0
 12 13  2  0
 15 14  1  0
 16 15  2  0
 17 15  1  0
 18 17  1  0
 19 18  1  0
 20 19  1  0
 21 20  1  1
 21 23  1  0
 22 21  1  0
 22 12  1  0
 23 25  1  0
 24 23  2  0
M  END
$$$$
