VSR.pdb
     RDKit          3D

 25 24  0  0  1  0  0  0  0  0999 V2000
    6.9025  -12.9394   19.9968 C   0  0  0  0  0  0  0  0  0  0  0  0
    8.0416  -12.9163   18.9651 C   0  0  2  0  0  0  0  0  0  0  0  0
    7.3545  -13.0330   17.6221 C   0  0  0  0  0  0  0  0  0  0  0  0
    8.8402  -14.1829   19.2017 C   0  0  2  0  0  0  0  0  0  0  0  0
    7.8690  -15.2785   18.9744 N   0  0  0  0  0  0  0  0  0  0  0  0
    9.3221  -14.3284   20.5898 C   0  0  0  0  0  0  0  0  0  0  0  0
   10.3100  -13.6345   20.9620 O   0  0  0  0  0  0  0  0  0  0  0  0
    8.7479  -16.2654   25.0333 O   0  0  0  0  0  0  0  0  0  0  0  0
    8.3005  -16.0546   23.7301 C   0  0  0  0  0  0  0  0  0  0  0  0
    9.3920  -15.3837   22.8731 C   0  0  2  0  0  0  0  0  0  0  0  0
    8.7811  -15.1831   21.5769 N   0  0  0  0  0  0  0  0  0  0  0  0
   10.6195  -16.1735   22.8676 C   0  0  0  0  0  0  0  0  0  0  0  0
   10.5864  -17.3246   22.3101 O   0  0  0  0  0  0  0  0  0  0  0  0
   16.0061  -14.7098   17.9220 N   0  0  0  0  0  0  0  0  0  0  0  0
   16.1929  -14.2581   19.2761 C   0  0  0  0  0  0  0  0  0  0  0  0
   17.3501  -13.8174   19.5910 N   0  0  0  0  0  0  0  0  0  0  0  0
   15.1636  -14.2956   20.2165 N   0  0  0  0  0  0  0  0  0  0  0  0
   13.8377  -14.8291   19.8367 C   0  0  0  0  0  0  0  0  0  0  0  0
   13.6255  -16.0085   20.7248 C   0  0  0  0  0  0  0  0  0  0  0  0
   13.8113  -15.8579   22.1567 C   0  0  0  0  0  0  0  0  0  0  0  0
   13.1023  -16.6197   23.1965 C   0  0  2  0  0  0  0  0  0  0  0  0
   11.8568  -15.7851   23.4246 N   0  0  0  0  0  0  0  0  0  0  0  0
   13.6891  -16.9107   24.4795 C   0  0  0  0  0  0  0  0  0  0  0  0
   13.2542  -16.3678   25.5748 O   0  0  0  0  0  0  0  0  0  0  0  0
   14.7394  -17.7788   24.6931 O   0  0  0  0  0  0  0  0  0  0  0  0
  2  1  1  1
  2  3  1  0
  4  2  1  0
  4  5  1  1
  4  6  1  0
  6  7  2  0
 10  9  1  1
  9  8  1  0
 10 12  1  0
 11  6  1  0
 11 10  1  0
 12 13  2  0
 15 14  1  0
 16 15  2  0
 17 15  1  0
 18 17  1  0
 19 18  1  0
 20 19  1  0
 21 20  1  6
 21 23  1  0
 22 21  1  0
 22 12  1  0
 23 25  1  0
 24 23  2  0
M  END
$$$$
