VSR.pdb
     RDKit          3D

 25 24  0  0  1  0  0  0  0  0999 V2000
    9.3800  -12.3983   19.0829 C   0  0  0  0  0  0  0  0  0  0  0  0
    8.0674  -13.1657   18.8578 C   0  0  2  0  0  0  0  0  0  0  0  0
    7.0904  -12.5666   19.8456 C   0  0  0  0  0  0  0  0  0  0  0  0
    8.3473  -14.5960   19.2746 C   0  0  2  0  0  0  0  0  0  0  0  0
    7.0894  -15.3197   18.9754 N   0  0  0  0  0  0  0  0  0  0  0  0
    8.5899  -14.7541   20.7225 C   0  0  0  0  0  0  0  0  0  0  0  0
    8.4488  -13.7469   21.4720 O   0  0  0  0  0  0  0  0  0  0  0  0
    8.0584  -18.0331   22.8050 O   0  0  0  0  0  0  0  0  0  0  0  0
    8.2600  -16.8227   23.4662 C   0  0  0  0  0  0  0  0  0  0  0  0
    9.3586  -15.9917   22.7742 C   0  0  2  0  0  0  0  0  0  0  0  0
    8.9722  -15.9450   21.3806 N   0  0  0  0  0  0  0  0  0  0  0  0
   10.6835  -16.5458   23.0349 C   0  0  0  0  0  0  0  0  0  0  0  0
   11.3150  -17.0705   22.0535 O   0  0  0  0  0  0  0  0  0  0  0  0
   18.2346  -17.6238   23.3041 N   0  0  0  0  0  0  0  0  0  0  0  0
   18.1806  -16.2621   22.8397 C   0  0  0  0  0  0  0  0  0  0  0  0
   19.2748  -15.7367   22.4410 N   0  0  0  0  0  0  0  0  0  0  0  0
   16.9913  -15.5339   22.8217 N   0  0  0  0  0  0  0  0  0  0  0  0
   16.0795  -15.5832   23.9849 C   0  0  0  0  0  0  0  0  0  0  0  0
   15.0158  -16.5565   23.6027 C   0  0  0  0  0  0  0  0  0  0  0  0
   13.6403  -16.2843   23.9786 C   0  0  0  0  0  0  0  0  0  0  0  0
   12.6671  -17.2836   24.4463 C   0  0  2  0  0  0  0  0  0  0  0  0
   11.3455  -16.5585   24.2813 N   0  0  0  0  0  0  0  0  0  0  0  0
   12.7093  -17.8442   25.7726 C   0  0  0  0  0  0  0  0  0  0  0  0
   13.5592  -18.7672   26.1035 O   0  0  0  0  0  0  0  0  0  0  0  0
   11.8885  -17.4736   26.8173 O   0  0  0  0  0  0  0  0  0  0  0  0
  2  1  1  1
  2  3  1  0
  4  2  1  0
  4  5  1  1
  4  6  1  0
  6  7  2  0
 10  9  1  1
  9  8  1  0
 10 12  1  0
 11  6  1  0
 11 10  1  0
 12 13  2  0
 15 14  1  0
 16 15  2  0
 17 15  1  0
 18 17  1  0
 19 18  1  0
 20 19  1  0
 21 20  1  1
 21 23  1  0
 22 21  1  0
 22 12  1  0
 23 25  1  0
 24 23  2  0
M  END
$$$$
