VSR.pdb
     RDKit          3D

 25 24  0  0  1  0  0  0  0  0999 V2000
    8.5531  -19.5958   16.5817 C   0  0  0  0  0  0  0  0  0  0  0  0
    8.8286  -18.7788   17.8541 C   0  0  2  0  0  0  0  0  0  0  0  0
    7.5511  -18.8684   18.6599 C   0  0  0  0  0  0  0  0  0  0  0  0
    9.0015  -17.3442   17.3958 C   0  0  2  0  0  0  0  0  0  0  0  0
   10.2650  -17.3545   16.6219 N   0  0  0  0  0  0  0  0  0  0  0  0
    9.1941  -16.3877   18.5040 C   0  0  0  0  0  0  0  0  0  0  0  0
   10.1971  -16.5318   19.2586 O   0  0  0  0  0  0  0  0  0  0  0  0
    6.2717  -13.7160   19.7018 O   0  0  0  0  0  0  0  0  0  0  0  0
    7.5882  -13.2641   19.7760 C   0  0  0  0  0  0  0  0  0  0  0  0
    8.5658  -14.4402   19.9685 C   0  0  2  0  0  0  0  0  0  0  0  0
    8.3550  -15.2953   18.8204 N   0  0  0  0  0  0  0  0  0  0  0  0
    8.3732  -15.0807   21.2658 C   0  0  0  0  0  0  0  0  0  0  0  0
    7.5062  -16.0182   21.3461 O   0  0  0  0  0  0  0  0  0  0  0  0
   13.3591  -19.4964   26.5715 N   0  0  0  0  0  0  0  0  0  0  0  0
   11.9556  -19.5391   26.8896 C   0  0  0  0  0  0  0  0  0  0  0  0
   11.6383  -19.7874   28.1019 N   0  0  0  0  0  0  0  0  0  0  0  0
   10.9722  -19.3224   25.9247 N   0  0  0  0  0  0  0  0  0  0  0  0
   11.1981  -18.3297   24.8522 C   0  0  0  0  0  0  0  0  0  0  0  0
   10.0137  -17.4247   24.9059 C   0  0  0  0  0  0  0  0  0  0  0  0
    9.9118  -16.3361   23.9509 C   0  0  0  0  0  0  0  0  0  0  0  0
    8.7326  -15.4792   23.7525 C   0  0  2  0  0  0  0  0  0  0  0  0
    9.0605  -14.7626   22.4568 N   0  0  0  0  0  0  0  0  0  0  0  0
    8.3198  -14.4937   24.7187 C   0  0  0  0  0  0  0  0  0  0  0  0
    8.6073  -13.2354   24.5849 O   0  0  0  0  0  0  0  0  0  0  0  0
    7.5858  -14.7567   25.8564 O   0  0  0  0  0  0  0  0  0  0  0  0
  2  1  1  6
  2  3  1  0
  4  2  1  0
  4  5  1  6
  4  6  1  0
  6  7  2  0
 10  9  1  6
  9  8  1  0
 10 12  1  0
 11  6  1  0
 11 10  1  0
 12 13  2  0
 15 14  1  0
 16 15  2  0
 17 15  1  0
 18 17  1  0
 19 18  1  0
 20 19  1  0
 21 20  1  1
 21 23  1  0
 22 21  1  0
 22 12  1  0
 23 25  1  0
 24 23  2  0
M  END
$$$$
