VSR.pdb
     RDKit          3D

 25 24  0  0  1  0  0  0  0  0999 V2000
    9.5300  -13.5863   19.2946 C   0  0  0  0  0  0  0  0  0  0  0  0
    8.0072  -13.7655   19.4009 C   0  0  2  0  0  0  0  0  0  0  0  0
    7.4434  -12.3629   19.3358 C   0  0  0  0  0  0  0  0  0  0  0  0
    7.7510  -14.3164   20.7898 C   0  0  2  0  0  0  0  0  0  0  0  0
    8.4131  -13.3501   21.6971 N   0  0  0  0  0  0  0  0  0  0  0  0
    8.3866  -15.6266   21.0336 C   0  0  0  0  0  0  0  0  0  0  0  0
    7.9157  -16.6440   20.4510 O   0  0  0  0  0  0  0  0  0  0  0  0
   12.2297  -16.3068   22.4562 O   0  0  0  0  0  0  0  0  0  0  0  0
   11.4692  -17.1794   21.6795 C   0  0  0  0  0  0  0  0  0  0  0  0
   10.0014  -17.2009   22.1498 C   0  0  2  0  0  0  0  0  0  0  0  0
    9.4983  -15.8733   21.8706 N   0  0  0  0  0  0  0  0  0  0  0  0
    9.8988  -17.6258   23.5424 C   0  0  0  0  0  0  0  0  0  0  0  0
   10.0257  -16.7329   24.4500 O   0  0  0  0  0  0  0  0  0  0  0  0
    4.9921  -24.1559   24.8582 N   0  0  0  0  0  0  0  0  0  0  0  0
    4.6108  -22.8116   24.5115 C   0  0  0  0  0  0  0  0  0  0  0  0
    3.4184  -22.6326   24.0892 N   0  0  0  0  0  0  0  0  0  0  0  0
    5.4959  -21.7397   24.6249 N   0  0  0  0  0  0  0  0  0  0  0  0
    6.8576  -21.9617   25.1569 C   0  0  0  0  0  0  0  0  0  0  0  0
    7.5120  -20.6218   25.1186 C   0  0  0  0  0  0  0  0  0  0  0  0
    8.8935  -20.4972   25.5466 C   0  0  0  0  0  0  0  0  0  0  0  0
    9.7057  -19.2729   25.4714 C   0  0  2  0  0  0  0  0  0  0  0  0
    9.6692  -18.9439   23.9915 N   0  0  0  0  0  0  0  0  0  0  0  0
   11.0775  -19.2252   25.9084 C   0  0  0  0  0  0  0  0  0  0  0  0
   12.0687  -19.2767   25.0727 O   0  0  0  0  0  0  0  0  0  0  0  0
   11.4890  -19.1118   27.2200 O   0  0  0  0  0  0  0  0  0  0  0  0
  2  1  1  1
  2  3  1  0
  4  2  1  0
  4  5  1  1
  4  6  1  0
  6  7  2  0
 10  9  1  1
  9  8  1  0
 10 12  1  0
 11  6  1  0
 11 10  1  0
 12 13  2  0
 15 14  1  0
 16 15  2  0
 17 15  1  0
 18 17  1  0
 19 18  1  0
 20 19  1  0
 21 20  1  6
 21 23  1  0
 22 21  1  0
 22 12  1  0
 23 25  1  0
 24 23  2  0
M  END
$$$$
