QQY.pdb
     RDKit          3D

 31 31  0  0  1  0  0  0  0  0999 V2000
    3.3048  -20.3438   23.2719 N   0  0  0  0  0  0  0  0  0  0  0  0
    2.6566  -19.5201   22.3012 C   0  0  0  0  0  0  0  0  0  0  0  0
    1.4205  -19.3857   22.4176 O   0  0  0  0  0  0  0  0  0  0  0  0
    3.4308  -18.8804   21.2382 C   0  0  0  0  0  0  0  0  0  0  0  0
    4.9153  -19.0055   21.3888 C   0  0  0  0  0  0  0  0  0  0  0  0
    5.7130  -18.5640   20.2092 C   0  0  2  0  0  0  0  0  0  0  0  0
    5.9626  -19.7178   19.3620 N   0  0  0  0  0  0  0  0  0  0  0  0
    7.0108  -17.9313   20.6269 C   0  0  0  0  0  0  0  0  0  0  0  0
    7.8988  -18.6794   21.0682 O   0  0  0  0  0  0  0  0  0  0  0  0
    8.5636  -11.9770   18.7714 N   0  0  0  0  0  0  0  0  0  0  0  0
    9.7075  -12.4552   19.4480 C   0  0  0  0  0  0  0  0  0  0  0  0
   10.7678  -11.8090   19.3393 O   0  0  0  0  0  0  0  0  0  0  0  0
    9.6795  -13.6987   20.2832 C   0  0  0  0  0  0  0  0  0  0  0  0
    8.3978  -14.4277   20.1287 C   0  0  0  0  0  0  0  0  0  0  0  0
    8.3330  -15.7968   20.7674 C   0  0  2  0  0  0  0  0  0  0  0  0
    7.1501  -16.5417   20.4976 N   0  0  0  0  0  0  0  0  0  0  0  0
    8.6292  -15.6832   22.2017 C   0  0  0  0  0  0  0  0  0  0  0  0
    9.8356  -15.7382   22.6397 O   0  0  0  0  0  0  0  0  0  0  0  0
    7.9757  -20.5604   29.1290 O   0  0  0  0  0  0  0  0  0  0  0  0
    7.7688  -19.8222   27.9713 C   0  0  0  0  0  0  0  0  0  0  0  0
    6.8060  -18.8620   27.8522 C   0  0  0  0  0  0  0  0  0  0  0  0
    6.5859  -18.1235   26.7208 C   0  0  0  0  0  0  0  0  0  0  0  0
    7.3994  -18.3659   25.6108 C   0  0  0  0  0  0  0  0  0  0  0  0
    7.1746  -17.6017   24.3700 C   0  0  0  0  0  0  0  0  0  0  0  0
    7.7345  -16.2277   24.4957 C   0  0  2  0  0  0  0  0  0  0  0  0
    7.6416  -15.5070   23.2061 N   0  0  0  0  0  0  0  0  0  0  0  0
    9.1311  -16.1800   24.9431 C   0  0  0  0  0  0  0  0  0  0  0  0
   10.1524  -16.0787   24.0204 O   0  0  0  0  0  0  0  0  0  0  0  0
    8.3723  -19.3282   25.7138 C   0  0  0  0  0  0  0  0  0  0  0  0
    8.5839  -20.0684   26.8660 C   0  0  0  0  0  0  0  0  0  0  0  0
    9.4020  -16.2308   26.1592 O   0  0  0  0  0  0  0  0  0  0  0  0
  2  3  2  0
  2  1  1  0
  4  2  1  0
  5  4  1  0
  6  5  1  0
  6  7  1  6
  8  9  2  0
  8  6  1  0
 11 10  1  0
 11 12  2  0
 13 11  1  0
 14 13  1  0
 15 14  1  1
 15 16  1  0
 16  8  1  0
 17 15  1  0
 17 18  2  0
 19 20  1  0
 20 21  2  0
 21 22  1  0
 23 22  2  0
 23 24  1  0
 25 24  1  6
 25 26  1  0
 26 17  1  0
 27 25  1  0
 28 27  1  0
 29 23  1  0
 30 20  1  0
 30 29  2  0
 31 27  2  0
M  END
$$$$
