QQY.pdb
     RDKit          3D

 31 31  0  0  1  0  0  0  0  0999 V2000
    9.4670  -19.4660   16.0108 N   0  0  0  0  0  0  0  0  0  0  0  0
    9.7019  -18.0574   16.0472 C   0  0  0  0  0  0  0  0  0  0  0  0
    9.9581  -17.5048   14.9570 O   0  0  0  0  0  0  0  0  0  0  0  0
    9.6372  -17.3291   17.3138 C   0  0  0  0  0  0  0  0  0  0  0  0
   10.6118  -17.7963   18.3501 C   0  0  0  0  0  0  0  0  0  0  0  0
   10.0870  -17.8328   19.7450 C   0  0  2  0  0  0  0  0  0  0  0  0
    8.7409  -18.3792   19.7183 N   0  0  0  0  0  0  0  0  0  0  0  0
   10.0841  -16.4654   20.3690 C   0  0  0  0  0  0  0  0  0  0  0  0
   11.1816  -15.9082   20.5368 O   0  0  0  0  0  0  0  0  0  0  0  0
    8.4363  -12.3209   18.9487 N   0  0  0  0  0  0  0  0  0  0  0  0
    7.7249  -13.5321   18.8008 C   0  0  0  0  0  0  0  0  0  0  0  0
    7.9639  -14.2358   17.8002 O   0  0  0  0  0  0  0  0  0  0  0  0
    6.7076  -13.9879   19.8017 C   0  0  0  0  0  0  0  0  0  0  0  0
    7.2748  -14.0320   21.1708 C   0  0  0  0  0  0  0  0  0  0  0  0
    8.6702  -14.6018   21.2919 C   0  0  2  0  0  0  0  0  0  0  0  0
    8.8534  -15.8952   20.7258 N   0  0  0  0  0  0  0  0  0  0  0  0
    9.1160  -14.5146   22.6888 C   0  0  0  0  0  0  0  0  0  0  0  0
    8.6171  -13.6476   23.4949 O   0  0  0  0  0  0  0  0  0  0  0  0
   10.7506  -15.2539   31.0098 O   0  0  0  0  0  0  0  0  0  0  0  0
   10.3787  -15.2895   29.6724 C   0  0  0  0  0  0  0  0  0  0  0  0
   10.1154  -16.4446   28.9944 C   0  0  0  0  0  0  0  0  0  0  0  0
    9.7476  -16.5015   27.6771 C   0  0  0  0  0  0  0  0  0  0  0  0
    9.6329  -15.2983   26.9757 C   0  0  0  0  0  0  0  0  0  0  0  0
    9.2585  -15.3266   25.5498 C   0  0  0  0  0  0  0  0  0  0  0  0
   10.4711  -15.2325   24.6908 C   0  0  2  0  0  0  0  0  0  0  0  0
   10.1078  -15.3538   23.2610 N   0  0  0  0  0  0  0  0  0  0  0  0
   11.5018  -16.2349   24.9840 C   0  0  0  0  0  0  0  0  0  0  0  0
   11.4170  -17.4985   24.4356 O   0  0  0  0  0  0  0  0  0  0  0  0
    9.8943  -14.1279   27.6426 C   0  0  0  0  0  0  0  0  0  0  0  0
   10.2658  -14.0853   28.9770 C   0  0  0  0  0  0  0  0  0  0  0  0
   12.4594  -15.9498   25.7302 O   0  0  0  0  0  0  0  0  0  0  0  0
  2  3  2  0
  2  1  1  0
  4  2  1  0
  5  4  1  0
  6  5  1  0
  6  7  1  6
  8  9  2  0
  8  6  1  0
 11 10  1  0
 11 12  2  0
 13 11  1  0
 14 13  1  0
 15 14  1  1
 15 16  1  0
 16  8  1  0
 17 15  1  0
 17 18  2  0
 19 20  1  0
 20 21  2  0
 21 22  1  0
 23 22  2  0
 23 24  1  0
 25 24  1  1
 25 26  1  0
 26 17  1  0
 27 25  1  0
 28 27  1  0
 29 23  1  0
 30 20  1  0
 30 29  2  0
 31 27  2  0
M  END
$$$$
