QQY.pdb
     RDKit          3D

 31 31  0  0  1  0  0  0  0  0999 V2000
    8.7319  -19.5950   16.2221 N   0  0  0  0  0  0  0  0  0  0  0  0
    8.0170  -20.2048   17.2982 C   0  0  0  0  0  0  0  0  0  0  0  0
    7.0867  -20.9769   16.9851 O   0  0  0  0  0  0  0  0  0  0  0  0
    8.3821  -19.9186   18.6850 C   0  0  0  0  0  0  0  0  0  0  0  0
    9.5383  -18.9803   18.8426 C   0  0  0  0  0  0  0  0  0  0  0  0
    9.9472  -18.7068   20.2499 C   0  0  2  0  0  0  0  0  0  0  0  0
    8.8170  -18.9806   21.1212 N   0  0  0  0  0  0  0  0  0  0  0  0
   10.4097  -17.2873   20.4237 C   0  0  0  0  0  0  0  0  0  0  0  0
   11.4070  -16.9249   19.7780 O   0  0  0  0  0  0  0  0  0  0  0  0
    7.3834  -12.1667   19.9367 N   0  0  0  0  0  0  0  0  0  0  0  0
    7.8098  -13.2324   19.1135 C   0  0  0  0  0  0  0  0  0  0  0  0
    7.3516  -13.3011   17.9565 O   0  0  0  0  0  0  0  0  0  0  0  0
    8.7863  -14.2654   19.5867 C   0  0  0  0  0  0  0  0  0  0  0  0
    9.1634  -14.0473   21.0039 C   0  0  0  0  0  0  0  0  0  0  0  0
   10.0380  -15.1112   21.6282 C   0  0  2  0  0  0  0  0  0  0  0  0
    9.6972  -16.4536   21.2981 N   0  0  0  0  0  0  0  0  0  0  0  0
   10.1346  -14.8794   23.0755 C   0  0  0  0  0  0  0  0  0  0  0  0
    9.8873  -13.7258   23.5838 O   0  0  0  0  0  0  0  0  0  0  0  0
    6.0604  -11.2073   27.1315 O   0  0  0  0  0  0  0  0  0  0  0  0
    6.5917  -12.3839   26.6202 C   0  0  0  0  0  0  0  0  0  0  0  0
    5.8387  -13.4818   26.3189 C   0  0  0  0  0  0  0  0  0  0  0  0
    6.3425  -14.6504   25.8145 C   0  0  0  0  0  0  0  0  0  0  0  0
    7.7197  -14.7287   25.5914 C   0  0  0  0  0  0  0  0  0  0  0  0
    8.2965  -15.9807   25.0679 C   0  0  0  0  0  0  0  0  0  0  0  0
    9.7673  -16.0129   25.2980 C   0  0  2  0  0  0  0  0  0  0  0  0
   10.4982  -15.8766   24.0181 N   0  0  0  0  0  0  0  0  0  0  0  0
   10.2501  -17.2247   25.9699 C   0  0  0  0  0  0  0  0  0  0  0  0
   10.8850  -18.2135   25.2461 O   0  0  0  0  0  0  0  0  0  0  0  0
    8.4912  -13.6336   25.8891 C   0  0  0  0  0  0  0  0  0  0  0  0
    7.9674  -12.4566   26.3995 C   0  0  0  0  0  0  0  0  0  0  0  0
   10.0890  -17.3671   27.1982 O   0  0  0  0  0  0  0  0  0  0  0  0
  2  3  2  0
  2  1  1  0
  4  2  1  0
  5  4  1  0
  6  5  1  0
  6  7  1  1
  8  9  2  0
  8  6  1  0
 11 10  1  0
 11 12  2  0
 13 11  1  0
 14 13  1  0
 15 14  1  1
 15 16  1  0
 16  8  1  0
 17 15  1  0
 17 18  2  0
 19 20  1  0
 20 21  2  0
 21 22  1  0
 23 22  2  0
 23 24  1  0
 25 24  1  6
 25 26  1  0
 26 17  1  0
 27 25  1  0
 28 27  1  0
 29 23  1  0
 30 20  1  0
 30 29  2  0
 31 27  2  0
M  END
$$$$
