QQY.pdb
     RDKit          3D

 31 31  0  0  1  0  0  0  0  0999 V2000
    6.9360  -15.2449   15.0821 N   0  0  0  0  0  0  0  0  0  0  0  0
    8.1311  -14.4982   15.3166 C   0  0  0  0  0  0  0  0  0  0  0  0
    8.8359  -14.2426   14.3178 O   0  0  0  0  0  0  0  0  0  0  0  0
    8.4819  -14.0694   16.6700 C   0  0  0  0  0  0  0  0  0  0  0  0
    7.5075  -14.4880   17.7270 C   0  0  0  0  0  0  0  0  0  0  0  0
    7.8965  -14.1399   19.1235 C   0  0  2  0  0  0  0  0  0  0  0  0
    8.3736  -12.7674   19.1418 N   0  0  0  0  0  0  0  0  0  0  0  0
    8.9551  -15.0686   19.6487 C   0  0  0  0  0  0  0  0  0  0  0  0
    8.7116  -16.2866   19.6298 O   0  0  0  0  0  0  0  0  0  0  0  0
   15.2423  -14.6068   19.3729 N   0  0  0  0  0  0  0  0  0  0  0  0
   14.2569  -14.9750   18.4303 C   0  0  0  0  0  0  0  0  0  0  0  0
   14.5846  -15.0318   17.2291 O   0  0  0  0  0  0  0  0  0  0  0  0
   12.8497  -15.2972   18.8309 C   0  0  0  0  0  0  0  0  0  0  0  0
   12.5941  -14.9437   20.2479 C   0  0  0  0  0  0  0  0  0  0  0  0
   11.2031  -15.2366   20.7634 C   0  0  2  0  0  0  0  0  0  0  0  0
   10.1518  -14.5164   20.1284 N   0  0  0  0  0  0  0  0  0  0  0  0
   11.1862  -15.1120   22.2269 C   0  0  0  0  0  0  0  0  0  0  0  0
   11.8601  -14.1970   22.8259 O   0  0  0  0  0  0  0  0  0  0  0  0
    5.5673  -12.3512   27.9545 O   0  0  0  0  0  0  0  0  0  0  0  0
    6.3363  -12.8332   26.9036 C   0  0  0  0  0  0  0  0  0  0  0  0
    5.8148  -13.5003   25.8329 C   0  0  0  0  0  0  0  0  0  0  0  0
    6.5548  -13.9831   24.7874 C   0  0  0  0  0  0  0  0  0  0  0  0
    7.9374  -13.7815   24.8140 C   0  0  0  0  0  0  0  0  0  0  0  0
    8.7652  -14.3073   23.7130 C   0  0  0  0  0  0  0  0  0  0  0  0
    9.6442  -15.4057   24.2007 C   0  0  2  0  0  0  0  0  0  0  0  0
   10.4468  -15.9637   23.0891 N   0  0  0  0  0  0  0  0  0  0  0  0
    8.9302  -16.5134   24.8458 C   0  0  0  0  0  0  0  0  0  0  0  0
    8.8014  -16.5497   26.2194 O   0  0  0  0  0  0  0  0  0  0  0  0
    8.4777  -13.1127   25.8835 C   0  0  0  0  0  0  0  0  0  0  0  0
    7.7161  -12.6291   26.9354 C   0  0  0  0  0  0  0  0  0  0  0  0
    8.4362  -17.4273   24.1561 O   0  0  0  0  0  0  0  0  0  0  0  0
  2  3  2  0
  2  1  1  0
  4  2  1  0
  5  4  1  0
  6  5  1  0
  6  7  1  6
  8  9  2  0
  8  6  1  0
 11 10  1  0
 11 12  2  0
 13 11  1  0
 14 13  1  0
 15 14  1  6
 15 16  1  0
 16  8  1  0
 17 15  1  0
 17 18  2  0
 19 20  1  0
 20 21  2  0
 21 22  1  0
 23 22  2  0
 23 24  1  0
 25 24  1  6
 25 26  1  0
 26 17  1  0
 27 25  1  0
 28 27  1  0
 29 23  1  0
 30 20  1  0
 30 29  2  0
 31 27  2  0
M  END
$$$$
