QQY.pdb
     RDKit          3D

 31 31  0  0  1  0  0  0  0  0999 V2000
    7.4784  -12.4338   19.7505 N   0  0  0  0  0  0  0  0  0  0  0  0
    7.9173  -13.2940   18.6978 C   0  0  0  0  0  0  0  0  0  0  0  0
    7.7303  -12.8902   17.5309 O   0  0  0  0  0  0  0  0  0  0  0  0
    8.5508  -14.5757   19.0053 C   0  0  0  0  0  0  0  0  0  0  0  0
    8.5786  -14.9219   20.4618 C   0  0  0  0  0  0  0  0  0  0  0  0
    9.3731  -16.1339   20.8117 C   0  0  2  0  0  0  0  0  0  0  0  0
    9.2618  -17.0897   19.7229 N   0  0  0  0  0  0  0  0  0  0  0  0
    8.9011  -16.7500   22.0988 C   0  0  0  0  0  0  0  0  0  0  0  0
    7.9731  -17.5732   22.0352 O   0  0  0  0  0  0  0  0  0  0  0  0
   12.9629  -20.1123   23.7943 N   0  0  0  0  0  0  0  0  0  0  0  0
   12.4065  -19.9008   25.0752 C   0  0  0  0  0  0  0  0  0  0  0  0
   13.0554  -20.2827   26.0684 O   0  0  0  0  0  0  0  0  0  0  0  0
   11.0776  -19.2365   25.2687 C   0  0  0  0  0  0  0  0  0  0  0  0
   10.7233  -18.3831   24.1092 C   0  0  0  0  0  0  0  0  0  0  0  0
    9.8009  -17.2206   24.3994 C   0  0  2  0  0  0  0  0  0  0  0  0
    9.5276  -16.3665   23.2936 N   0  0  0  0  0  0  0  0  0  0  0  0
   10.2824  -16.4963   25.5831 C   0  0  0  0  0  0  0  0  0  0  0  0
   11.4518  -15.9651   25.6096 O   0  0  0  0  0  0  0  0  0  0  0  0
    6.5775  -11.8403   24.1738 O   0  0  0  0  0  0  0  0  0  0  0  0
    7.1973  -12.5058   25.2232 C   0  0  0  0  0  0  0  0  0  0  0  0
    8.4559  -12.2123   25.6625 C   0  0  0  0  0  0  0  0  0  0  0  0
    9.0845  -12.8556   26.6944 C   0  0  0  0  0  0  0  0  0  0  0  0
    8.3948  -13.8826   27.3444 C   0  0  0  0  0  0  0  0  0  0  0  0
    9.0519  -14.6091   28.4464 C   0  0  0  0  0  0  0  0  0  0  0  0
   10.0716  -15.5539   27.9127 C   0  0  2  0  0  0  0  0  0  0  0  0
    9.5247  -16.3204   26.7707 N   0  0  0  0  0  0  0  0  0  0  0  0
   10.5860  -16.5118   28.8980 C   0  0  0  0  0  0  0  0  0  0  0  0
   10.4920  -17.8682   28.6618 O   0  0  0  0  0  0  0  0  0  0  0  0
    7.1284  -14.1903   26.9149 C   0  0  0  0  0  0  0  0  0  0  0  0
    6.5041  -13.5303   25.8685 C   0  0  0  0  0  0  0  0  0  0  0  0
   11.1106  -16.1048   29.9535 O   0  0  0  0  0  0  0  0  0  0  0  0
  2  3  2  0
  2  1  1  0
  4  2  1  0
  5  4  1  0
  6  5  1  0
  6  7  1  6
  8  9  2  0
  8  6  1  0
 11 10  1  0
 11 12  2  0
 13 11  1  0
 14 13  1  0
 15 14  1  6
 15 16  1  0
 16  8  1  0
 17 15  1  0
 17 18  2  0
 19 20  1  0
 20 21  2  0
 21 22  1  0
 23 22  2  0
 23 24  1  0
 25 24  1  1
 25 26  1  0
 26 17  1  0
 27 25  1  0
 28 27  1  0
 29 23  1  0
 30 20  1  0
 30 29  2  0
 31 27  2  0
M  END
$$$$
