QQY.pdb
     RDKit          3D

 31 31  0  0  1  0  0  0  0  0999 V2000
    9.8236  -13.8545   18.3918 N   0  0  0  0  0  0  0  0  0  0  0  0
    8.6219  -13.0976   18.2372 C   0  0  0  0  0  0  0  0  0  0  0  0
    8.4579  -12.5269   17.1386 O   0  0  0  0  0  0  0  0  0  0  0  0
    7.6532  -13.0162   19.3297 C   0  0  0  0  0  0  0  0  0  0  0  0
    8.0278  -13.7954   20.5522 C   0  0  0  0  0  0  0  0  0  0  0  0
    7.8693  -15.2733   20.4369 C   0  0  2  0  0  0  0  0  0  0  0  0
    6.5178  -15.5595   19.9863 N   0  0  0  0  0  0  0  0  0  0  0  0
    8.1408  -15.9607   21.7457 C   0  0  0  0  0  0  0  0  0  0  0  0
    7.1665  -16.2207   22.4710 O   0  0  0  0  0  0  0  0  0  0  0  0
   13.5126  -19.2907   21.3581 N   0  0  0  0  0  0  0  0  0  0  0  0
   12.9269  -19.7292   22.5662 C   0  0  0  0  0  0  0  0  0  0  0  0
   13.6076  -20.4494   23.3221 O   0  0  0  0  0  0  0  0  0  0  0  0
   11.5304  -19.3544   22.9585 C   0  0  0  0  0  0  0  0  0  0  0  0
   11.0465  -18.1824   22.1901 C   0  0  0  0  0  0  0  0  0  0  0  0
    9.8975  -17.4154   22.8049 C   0  0  2  0  0  0  0  0  0  0  0  0
    9.4682  -16.2699   22.0766 N   0  0  0  0  0  0  0  0  0  0  0  0
   10.1995  -17.1247   24.2127 C   0  0  0  0  0  0  0  0  0  0  0  0
   10.5274  -18.0591   25.0309 O   0  0  0  0  0  0  0  0  0  0  0  0
    6.1344  -10.3767   26.1628 O   0  0  0  0  0  0  0  0  0  0  0  0
    6.6362  -11.6714   26.1728 C   0  0  0  0  0  0  0  0  0  0  0  0
    6.0283  -12.7195   25.5443 C   0  0  0  0  0  0  0  0  0  0  0  0
    6.5060  -14.0023   25.5419 C   0  0  0  0  0  0  0  0  0  0  0  0
    7.6958  -14.2604   26.2279 C   0  0  0  0  0  0  0  0  0  0  0  0
    8.2262  -15.6358   26.2617 C   0  0  0  0  0  0  0  0  0  0  0  0
    9.7128  -15.6231   26.1794 C   0  0  2  0  0  0  0  0  0  0  0  0
   10.1593  -15.8251   24.7827 N   0  0  0  0  0  0  0  0  0  0  0  0
   10.3758  -16.6282   27.0180 C   0  0  0  0  0  0  0  0  0  0  0  0
   10.3118  -16.5360   28.3935 O   0  0  0  0  0  0  0  0  0  0  0  0
    8.3196  -13.2176   26.8653 C   0  0  0  0  0  0  0  0  0  0  0  0
    7.8244  -11.9233   26.8593 C   0  0  0  0  0  0  0  0  0  0  0  0
   11.0001  -17.5707   26.4919 O   0  0  0  0  0  0  0  0  0  0  0  0
  2  3  2  0
  2  1  1  0
  4  2  1  0
  5  4  1  0
  6  5  1  0
  6  7  1  1
  8  9  2  0
  8  6  1  0
 11 10  1  0
 11 12  2  0
 13 11  1  0
 14 13  1  0
 15 14  1  6
 15 16  1  0
 16  8  1  0
 17 15  1  0
 17 18  2  0
 19 20  1  0
 20 21  2  0
 21 22  1  0
 23 22  2  0
 23 24  1  0
 25 24  1  6
 25 26  1  0
 26 17  1  0
 27 25  1  0
 28 27  1  0
 29 23  1  0
 30 20  1  0
 30 29  2  0
 31 27  2  0
M  END
$$$$
