QQY.pdb
     RDKit          3D

 31 31  0  0  1  0  0  0  0  0999 V2000
   10.3199  -18.2227   19.3429 N   0  0  0  0  0  0  0  0  0  0  0  0
    9.7317  -18.7387   18.1476 C   0  0  0  0  0  0  0  0  0  0  0  0
   10.5155  -19.2060   17.2951 O   0  0  0  0  0  0  0  0  0  0  0  0
    8.2812  -18.7067   17.9634 C   0  0  0  0  0  0  0  0  0  0  0  0
    7.5242  -18.0857   19.0962 C   0  0  0  0  0  0  0  0  0  0  0  0
    6.6336  -19.0141   19.8497 C   0  0  2  0  0  0  0  0  0  0  0  0
    5.3810  -19.1431   19.1247 N   0  0  0  0  0  0  0  0  0  0  0  0
    6.3807  -18.5224   21.2474 C   0  0  0  0  0  0  0  0  0  0  0  0
    5.5733  -17.5894   21.3908 O   0  0  0  0  0  0  0  0  0  0  0  0
    7.9418  -21.7553   26.5724 N   0  0  0  0  0  0  0  0  0  0  0  0
    7.5184  -20.4920   27.0414 C   0  0  0  0  0  0  0  0  0  0  0  0
    7.4687  -20.3086   28.2732 O   0  0  0  0  0  0  0  0  0  0  0  0
    7.1361  -19.3819   26.1107 C   0  0  0  0  0  0  0  0  0  0  0  0
    7.2614  -19.7952   24.6923 C   0  0  0  0  0  0  0  0  0  0  0  0
    7.0517  -18.7066   23.6639 C   0  0  2  0  0  0  0  0  0  0  0  0
    7.0635  -19.1374   22.3070 N   0  0  0  0  0  0  0  0  0  0  0  0
    7.9803  -17.5990   23.9261 C   0  0  0  0  0  0  0  0  0  0  0  0
    9.2354  -17.7078   23.6750 O   0  0  0  0  0  0  0  0  0  0  0  0
    7.4589  -13.0429   18.8703 O   0  0  0  0  0  0  0  0  0  0  0  0
    7.5753  -13.2707   20.2351 C   0  0  0  0  0  0  0  0  0  0  0  0
    6.5193  -13.5936   21.0375 C   0  0  0  0  0  0  0  0  0  0  0  0
    6.6126  -13.8220   22.3840 C   0  0  0  0  0  0  0  0  0  0  0  0
    7.8718  -13.7185   22.9811 C   0  0  0  0  0  0  0  0  0  0  0  0
    8.0027  -13.9384   24.4333 C   0  0  0  0  0  0  0  0  0  0  0  0
    8.5891  -15.2795   24.7064 C   0  0  2  0  0  0  0  0  0  0  0  0
    7.5901  -16.3445   24.4638 N   0  0  0  0  0  0  0  0  0  0  0  0
    9.1111  -15.4480   26.0673 C   0  0  0  0  0  0  0  0  0  0  0  0
   10.1597  -14.6675   26.5100 O   0  0  0  0  0  0  0  0  0  0  0  0
    8.9440  -13.3945   22.1885 C   0  0  0  0  0  0  0  0  0  0  0  0
    8.8348  -13.1660   20.8261 C   0  0  0  0  0  0  0  0  0  0  0  0
    8.6098  -16.2972   26.8305 O   0  0  0  0  0  0  0  0  0  0  0  0
  2  3  2  0
  2  1  1  0
  4  2  1  0
  5  4  1  0
  6  5  1  0
  6  7  1  6
  8  9  2  0
  8  6  1  0
 11 10  1  0
 11 12  2  0
 13 11  1  0
 14 13  1  0
 15 14  1  1
 15 16  1  0
 16  8  1  0
 17 15  1  0
 17 18  2  0
 19 20  1  0
 20 21  2  0
 21 22  1  0
 23 22  2  0
 23 24  1  0
 25 24  1  1
 25 26  1  0
 26 17  1  0
 27 25  1  0
 28 27  1  0
 29 23  1  0
 30 20  1  0
 30 29  2  0
 31 27  2  0
M  END
$$$$
