TFF.pdb
     RDKit          3D

 30 31  0  0  1  0  0  0  0  0999 V2000
    9.3791  -19.5596   19.2345 C   0  0  0  0  0  0  0  0  0  0  0  0
    9.4667  -18.6319   20.4219 C   0  0  1  0  0  0  0  0  0  0  0  0
   10.4415  -19.0408   21.3296 O   0  0  0  0  0  0  0  0  0  0  0  0
    9.5833  -17.1858   20.0585 C   0  0  2  0  0  0  0  0  0  0  0  0
   10.7337  -17.0154   19.2037 N   0  0  0  0  0  0  0  0  0  0  0  0
    9.5502  -16.2525   21.1870 C   0  0  0  0  0  0  0  0  0  0  0  0
   10.6649  -15.7321   21.5371 O   0  0  0  0  0  0  0  0  0  0  0  0
    8.4206  -15.8638   21.9334 N   0  0  0  0  0  0  0  0  0  0  0  0
    8.4997  -14.9022   23.0458 C   0  0  1  0  0  0  0  0  0  0  0  0
    7.1229  -14.3751   23.2425 C   0  0  0  0  0  0  0  0  0  0  0  0
    6.9304  -13.4634   24.3677 C   0  0  0  0  0  0  0  0  0  0  0  0
    6.3494  -13.9980   25.5242 C   0  0  0  0  0  0  0  0  0  0  0  0
    6.1139  -13.2530   26.6381 C   0  0  0  0  0  0  0  0  0  0  0  0
    6.4627  -11.9178   26.6248 C   0  0  0  0  0  0  0  0  0  0  0  0
    7.0344  -11.3613   25.5073 C   0  0  0  0  0  0  0  0  0  0  0  0
    7.2576  -12.1376   24.4040 C   0  0  0  0  0  0  0  0  0  0  0  0
    9.0944  -15.5226   24.2423 C   0  0  0  0  0  0  0  0  0  0  0  0
    8.6684  -15.1465   25.3638 O   0  0  0  0  0  0  0  0  0  0  0  0
   10.1067  -16.5085   24.2261 N   0  0  0  0  0  0  0  0  0  0  0  0
   10.9634  -16.7394   25.3805 C   0  0  1  0  0  0  0  0  0  0  0  0
   10.1570  -16.9491   26.6310 C   0  0  0  0  0  0  0  0  0  0  0  0
   10.2272  -15.8487   27.5943 C   0  0  0  0  0  0  0  0  0  0  0  0
   10.7135  -16.0785   28.8620 C   0  0  0  0  0  0  0  0  0  0  0  0
   10.7840  -15.0464   29.7839 C   0  0  0  0  0  0  0  0  0  0  0  0
   10.3667  -13.7820   29.4359 C   0  0  0  0  0  0  0  0  0  0  0  0
    9.8833  -13.5776   28.1593 C   0  0  0  0  0  0  0  0  0  0  0  0
    9.8031  -14.5890   27.2227 C   0  0  0  0  0  0  0  0  0  0  0  0
   11.9436  -17.8117   25.1071 C   0  0  0  0  0  0  0  0  0  0  0  0
   13.0478  -18.0738   25.8803 O   0  0  0  0  0  0  0  0  0  0  0  0
   11.7601  -18.5383   24.0977 O   0  0  0  0  0  0  0  0  0  0  0  0
  2  1  1  6
  3  2  1  0
  4  5  1  1
  4  2  1  0
  6  4  1  0
  7  6  2  0
  8  6  1  0
  9  8  1  0
  9 10  1  1
 10 11  1  0
 11 16  1  0
 12 11  2  0
 12 13  1  0
 13 14  2  0
 14 15  1  0
 16 15  2  0
 17 18  2  0
 17  9  1  0
 19 17  1  0
 20 19  1  0
 20 21  1  1
 21 22  1  0
 22 27  1  0
 22 23  2  0
 23 24  1  0
 24 25  2  0
 26 25  1  0
 27 26  2  0
 28 20  1  0
 29 28  1  0
 30 28  2  0
M  END
$$$$
