TFF.pdb
     RDKit          3D

 30 31  0  0  1  0  0  0  0  0999 V2000
   10.1575  -19.7715   21.9869 C   0  0  0  0  0  0  0  0  0  0  0  0
   10.5803  -19.1867   20.6612 C   0  0  1  0  0  0  0  0  0  0  0  0
   10.7509  -20.1712   19.6901 O   0  0  0  0  0  0  0  0  0  0  0  0
    9.7234  -18.0536   20.1934 C   0  0  2  0  0  0  0  0  0  0  0  0
   10.0603  -17.7551   18.8221 N   0  0  0  0  0  0  0  0  0  0  0  0
    9.7152  -16.8751   21.0631 C   0  0  0  0  0  0  0  0  0  0  0  0
   10.7218  -16.0903   20.9797 O   0  0  0  0  0  0  0  0  0  0  0  0
    8.7164  -16.5093   21.9866 N   0  0  0  0  0  0  0  0  0  0  0  0
    8.8585  -15.3556   22.8906 C   0  0  1  0  0  0  0  0  0  0  0  0
    7.4830  -14.9901   23.3226 C   0  0  0  0  0  0  0  0  0  0  0  0
    7.3719  -13.8851   24.2719 C   0  0  0  0  0  0  0  0  0  0  0  0
    6.7807  -14.1697   25.5090 C   0  0  0  0  0  0  0  0  0  0  0  0
    6.6158  -13.2276   26.4768 C   0  0  0  0  0  0  0  0  0  0  0  0
    7.0494  -11.9415   26.2265 C   0  0  0  0  0  0  0  0  0  0  0  0
    7.6334  -11.6281   25.0239 C   0  0  0  0  0  0  0  0  0  0  0  0
    7.7843  -12.5982   24.0722 C   0  0  0  0  0  0  0  0  0  0  0  0
    9.7868  -15.6573   23.9940 C   0  0  0  0  0  0  0  0  0  0  0  0
   10.2171  -14.6897   24.6716 O   0  0  0  0  0  0  0  0  0  0  0  0
   10.2303  -16.9511   24.3495 N   0  0  0  0  0  0  0  0  0  0  0  0
   10.9856  -17.1883   25.5715 C   0  0  1  0  0  0  0  0  0  0  0  0
   10.0758  -17.3935   26.7496 C   0  0  0  0  0  0  0  0  0  0  0  0
    9.6690  -16.1617   27.4286 C   0  0  0  0  0  0  0  0  0  0  0  0
    8.3323  -15.9029   27.6346 C   0  0  0  0  0  0  0  0  0  0  0  0
    7.9335  -14.7403   28.2745 C   0  0  0  0  0  0  0  0  0  0  0  0
    8.8749  -13.8351   28.7086 C   0  0  0  0  0  0  0  0  0  0  0  0
   10.2081  -14.1176   28.4900 C   0  0  0  0  0  0  0  0  0  0  0  0
   10.6310  -15.2687   27.8553 C   0  0  0  0  0  0  0  0  0  0  0  0
   11.9784  -18.2667   25.3800 C   0  0  0  0  0  0  0  0  0  0  0  0
   12.9752  -18.5757   26.2726 O   0  0  0  0  0  0  0  0  0  0  0  0
   11.9119  -18.9530   24.3287 O   0  0  0  0  0  0  0  0  0  0  0  0
  2  1  1  1
  3  2  1  0
  4  5  1  6
  4  2  1  0
  6  4  1  0
  7  6  2  0
  8  6  1  0
  9  8  1  0
  9 10  1  1
 10 11  1  0
 11 16  1  0
 12 11  2  0
 12 13  1  0
 13 14  2  0
 14 15  1  0
 16 15  2  0
 17 18  2  0
 17  9  1  0
 19 17  1  0
 20 19  1  0
 20 21  1  1
 21 22  1  0
 22 27  1  0
 22 23  2  0
 23 24  1  0
 24 25  2  0
 26 25  1  0
 27 26  2  0
 28 20  1  0
 29 28  1  0
 30 28  2  0
M  END
$$$$
