TFF.pdb
     RDKit          3D

 30 31  0  0  1  0  0  0  0  0999 V2000
    9.1433  -20.0989   19.7512 C   0  0  0  0  0  0  0  0  0  0  0  0
    9.3983  -19.0564   20.8125 C   0  0  1  0  0  0  0  0  0  0  0  0
   10.5880  -19.2933   21.4980 O   0  0  0  0  0  0  0  0  0  0  0  0
    9.2815  -17.6477   20.3239 C   0  0  2  0  0  0  0  0  0  0  0  0
   10.2077  -17.4587   19.2332 N   0  0  0  0  0  0  0  0  0  0  0  0
    9.3795  -16.6163   21.3593 C   0  0  0  0  0  0  0  0  0  0  0  0
   10.4476  -15.9127   21.3726 O   0  0  0  0  0  0  0  0  0  0  0  0
    8.4227  -16.3129   22.3477 N   0  0  0  0  0  0  0  0  0  0  0  0
    8.5477  -15.1475   23.2390 C   0  0  1  0  0  0  0  0  0  0  0  0
    7.1637  -14.7700   23.6315 C   0  0  0  0  0  0  0  0  0  0  0  0
    7.0377  -13.7802   24.6987 C   0  0  0  0  0  0  0  0  0  0  0  0
    7.4849  -12.4837   24.4164 C   0  0  0  0  0  0  0  0  0  0  0  0
    7.4257  -11.4734   25.3259 C   0  0  0  0  0  0  0  0  0  0  0  0
    6.9036  -11.7400   26.5753 C   0  0  0  0  0  0  0  0  0  0  0  0
    6.4559  -13.0005   26.8854 C   0  0  0  0  0  0  0  0  0  0  0  0
    6.5296  -13.9938   25.9487 C   0  0  0  0  0  0  0  0  0  0  0  0
    9.4468  -15.4379   24.3693 C   0  0  0  0  0  0  0  0  0  0  0  0
    9.5296  -14.5767   25.2814 O   0  0  0  0  0  0  0  0  0  0  0  0
   10.2231  -16.6107   24.5070 N   0  0  0  0  0  0  0  0  0  0  0  0
   11.5024  -16.6000   25.2022 C   0  0  1  0  0  0  0  0  0  0  0  0
   11.3510  -17.0115   26.6394 C   0  0  0  0  0  0  0  0  0  0  0  0
   10.6755  -16.0281   27.4881 C   0  0  0  0  0  0  0  0  0  0  0  0
    9.9529  -16.4492   28.5821 C   0  0  0  0  0  0  0  0  0  0  0  0
    9.3076  -15.5291   29.3927 C   0  0  0  0  0  0  0  0  0  0  0  0
    9.3857  -14.1852   29.1073 C   0  0  0  0  0  0  0  0  0  0  0  0
   10.1159  -13.7887   28.0053 C   0  0  0  0  0  0  0  0  0  0  0  0
   10.7680  -14.6854   27.1823 C   0  0  0  0  0  0  0  0  0  0  0  0
   12.5175  -17.3734   24.4561 C   0  0  0  0  0  0  0  0  0  0  0  0
   12.2663  -18.0867   23.3099 O   0  0  0  0  0  0  0  0  0  0  0  0
   13.6952  -17.3838   24.8960 O   0  0  0  0  0  0  0  0  0  0  0  0
  2  1  1  6
  3  2  1  0
  4  5  1  6
  4  2  1  0
  6  4  1  0
  7  6  2  0
  8  6  1  0
  9  8  1  0
  9 10  1  1
 10 11  1  0
 11 16  1  0
 12 11  2  0
 12 13  1  0
 13 14  2  0
 14 15  1  0
 16 15  2  0
 17 18  2  0
 17  9  1  0
 19 17  1  0
 20 19  1  0
 20 21  1  1
 21 22  1  0
 22 27  1  0
 22 23  2  0
 23 24  1  0
 24 25  2  0
 26 25  1  0
 27 26  2  0
 28 20  1  0
 29 28  1  0
 30 28  2  0
M  END
$$$$
