TFF.pdb
     RDKit          3D

 30 31  0  0  1  0  0  0  0  0999 V2000
    9.8960  -20.8246   22.5328 C   0  0  0  0  0  0  0  0  0  0  0  0
   10.6578  -20.8020   21.2299 C   0  0  1  0  0  0  0  0  0  0  0  0
   10.8756  -22.0854   20.7333 O   0  0  0  0  0  0  0  0  0  0  0  0
   10.0869  -19.8734   20.2058 C   0  0  2  0  0  0  0  0  0  0  0  0
   10.8030  -20.0563   18.9661 N   0  0  0  0  0  0  0  0  0  0  0  0
    9.9838  -18.4723   20.6201 C   0  0  0  0  0  0  0  0  0  0  0  0
   11.0773  -17.8139   20.7027 O   0  0  0  0  0  0  0  0  0  0  0  0
    8.8074  -17.7667   20.9400 N   0  0  0  0  0  0  0  0  0  0  0  0
    8.8285  -16.4015   21.4916 C   0  0  1  0  0  0  0  0  0  0  0  0
    7.6250  -15.7134   20.9528 C   0  0  0  0  0  0  0  0  0  0  0  0
    7.4709  -14.3035   21.3032 C   0  0  0  0  0  0  0  0  0  0  0  0
    8.0558  -13.3685   20.4403 C   0  0  0  0  0  0  0  0  0  0  0  0
    7.9865  -12.0270   20.6570 C   0  0  0  0  0  0  0  0  0  0  0  0
    7.3123  -11.5727   21.7722 C   0  0  0  0  0  0  0  0  0  0  0  0
    6.7270  -12.4623   22.6392 C   0  0  0  0  0  0  0  0  0  0  0  0
    6.8151  -13.8043   22.3927 C   0  0  0  0  0  0  0  0  0  0  0  0
    8.9134  -16.4247   22.9621 C   0  0  0  0  0  0  0  0  0  0  0  0
    8.1999  -17.2613   23.5717 O   0  0  0  0  0  0  0  0  0  0  0  0
    9.7357  -15.5787   23.7401 N   0  0  0  0  0  0  0  0  0  0  0  0
    9.7865  -15.6902   25.1909 C   0  0  1  0  0  0  0  0  0  0  0  0
    8.4085  -15.7609   25.7859 C   0  0  0  0  0  0  0  0  0  0  0  0
    7.7720  -14.4611   26.0080 C   0  0  0  0  0  0  0  0  0  0  0  0
    6.4011  -14.3497   25.9412 C   0  0  0  0  0  0  0  0  0  0  0  0
    5.7861  -13.1253   26.1479 C   0  0  0  0  0  0  0  0  0  0  0  0
    6.5451  -12.0105   26.4215 C   0  0  0  0  0  0  0  0  0  0  0  0
    7.9170  -12.1483   26.4829 C   0  0  0  0  0  0  0  0  0  0  0  0
    8.5537  -13.3569   26.2811 C   0  0  0  0  0  0  0  0  0  0  0  0
   10.6812  -16.7910   25.6069 C   0  0  0  0  0  0  0  0  0  0  0  0
   11.0083  -17.0795   26.9090 O   0  0  0  0  0  0  0  0  0  0  0  0
   11.1814  -17.5179   24.7114 O   0  0  0  0  0  0  0  0  0  0  0  0
  2  1  1  1
  3  2  1  0
  4  5  1  6
  4  2  1  0
  6  4  1  0
  7  6  2  0
  8  6  1  0
  9  8  1  0
  9 10  1  1
 10 11  1  0
 11 16  1  0
 12 11  2  0
 12 13  1  0
 13 14  2  0
 14 15  1  0
 16 15  2  0
 17 18  2  0
 17  9  1  0
 19 17  1  0
 20 19  1  0
 20 21  1  6
 21 22  1  0
 22 27  1  0
 22 23  2  0
 23 24  1  0
 24 25  2  0
 26 25  1  0
 27 26  2  0
 28 20  1  0
 29 28  1  0
 30 28  2  0
M  END
$$$$
