TFF.pdb
     RDKit          3D

 30 31  0  0  1  0  0  0  0  0999 V2000
   10.2339  -18.9118   18.5889 C   0  0  0  0  0  0  0  0  0  0  0  0
   10.0003  -18.3354   19.9642 C   0  0  1  0  0  0  0  0  0  0  0  0
   10.4467  -19.1915   20.9688 O   0  0  0  0  0  0  0  0  0  0  0  0
   10.4995  -16.9355   20.1314 C   0  0  2  0  0  0  0  0  0  0  0  0
   11.9145  -16.9126   19.8479 N   0  0  0  0  0  0  0  0  0  0  0  0
   10.1469  -16.2929   21.3996 C   0  0  0  0  0  0  0  0  0  0  0  0
   11.0520  -16.2658   22.3030 O   0  0  0  0  0  0  0  0  0  0  0  0
    8.9145  -15.6995   21.7360 N   0  0  0  0  0  0  0  0  0  0  0  0
    8.6201  -15.1993   23.0894 C   0  0  1  0  0  0  0  0  0  0  0  0
    7.4078  -14.3466   22.9663 C   0  0  0  0  0  0  0  0  0  0  0  0
    6.9237  -13.7235   24.1959 C   0  0  0  0  0  0  0  0  0  0  0  0
    7.4863  -12.4897   24.5450 C   0  0  0  0  0  0  0  0  0  0  0  0
    7.1239  -11.8096   25.6663 C   0  0  0  0  0  0  0  0  0  0  0  0
    6.1633  -12.3599   26.4904 C   0  0  0  0  0  0  0  0  0  0  0  0
    5.5910  -13.5683   26.1778 C   0  0  0  0  0  0  0  0  0  0  0  0
    5.9776  -14.2265   25.0434 C   0  0  0  0  0  0  0  0  0  0  0  0
    8.4928  -16.3095   24.0493 C   0  0  0  0  0  0  0  0  0  0  0  0
    7.8234  -17.3120   23.6921 O   0  0  0  0  0  0  0  0  0  0  0  0
    9.0658  -16.3342   25.3409 N   0  0  0  0  0  0  0  0  0  0  0  0
    9.0054  -17.5238   26.1782 C   0  0  1  0  0  0  0  0  0  0  0  0
    9.4110  -17.2219   27.5932 C   0  0  0  0  0  0  0  0  0  0  0  0
    9.9725  -15.8849   27.7952 C   0  0  0  0  0  0  0  0  0  0  0  0
   10.3803  -15.4962   29.0518 C   0  0  0  0  0  0  0  0  0  0  0  0
   10.9120  -14.2332   29.2571 C   0  0  0  0  0  0  0  0  0  0  0  0
   11.0353  -13.3578   28.2025 C   0  0  0  0  0  0  0  0  0  0  0  0
   10.6193  -13.7711   26.9531 C   0  0  0  0  0  0  0  0  0  0  0  0
   10.0866  -15.0240   26.7225 C   0  0  0  0  0  0  0  0  0  0  0  0
    7.6924  -18.1920   26.0557 C   0  0  0  0  0  0  0  0  0  0  0  0
    7.4034  -19.4391   26.5526 O   0  0  0  0  0  0  0  0  0  0  0  0
    6.7713  -17.5819   25.4558 O   0  0  0  0  0  0  0  0  0  0  0  0
  2  1  1  6
  3  2  1  0
  4  5  1  1
  4  2  1  0
  6  4  1  0
  7  6  2  0
  8  6  1  0
  9  8  1  0
  9 10  1  6
 10 11  1  0
 11 16  1  0
 12 11  2  0
 12 13  1  0
 13 14  2  0
 14 15  1  0
 16 15  2  0
 17 18  2  0
 17  9  1  0
 19 17  1  0
 20 19  1  0
 20 21  1  1
 21 22  1  0
 22 27  1  0
 22 23  2  0
 23 24  1  0
 24 25  2  0
 26 25  1  0
 27 26  2  0
 28 20  1  0
 29 28  1  0
 30 28  2  0
M  END
$$$$
