TFF.pdb
     RDKit          3D

 30 31  0  0  1  0  0  0  0  0999 V2000
    6.1921  -20.3308   21.2959 C   0  0  0  0  0  0  0  0  0  0  0  0
    7.2072  -19.3395   21.8111 C   0  0  1  0  0  0  0  0  0  0  0  0
    8.3075  -19.9735   22.3844 O   0  0  0  0  0  0  0  0  0  0  0  0
    7.5949  -18.2915   20.8172 C   0  0  2  0  0  0  0  0  0  0  0  0
    8.0715  -18.9431   19.6207 N   0  0  0  0  0  0  0  0  0  0  0  0
    8.5019  -17.2572   21.3202 C   0  0  0  0  0  0  0  0  0  0  0  0
    9.7325  -17.3579   20.9862 O   0  0  0  0  0  0  0  0  0  0  0  0
    8.1668  -16.1589   22.1362 N   0  0  0  0  0  0  0  0  0  0  0  0
    9.1777  -15.2266   22.6627 C   0  0  1  0  0  0  0  0  0  0  0  0
    8.6310  -13.8582   22.4608 C   0  0  0  0  0  0  0  0  0  0  0  0
    8.1207  -13.5524   21.1264 C   0  0  0  0  0  0  0  0  0  0  0  0
    8.9924  -12.8941   20.2503 C   0  0  0  0  0  0  0  0  0  0  0  0
    8.6367  -12.5507   18.9826 C   0  0  0  0  0  0  0  0  0  0  0  0
    7.3659  -12.8651   18.5458 C   0  0  0  0  0  0  0  0  0  0  0  0
    6.4858  -13.5104   19.3790 C   0  0  0  0  0  0  0  0  0  0  0  0
    6.8744  -13.8416   20.6475 C   0  0  0  0  0  0  0  0  0  0  0  0
    9.5208  -15.5489   24.0586 C   0  0  0  0  0  0  0  0  0  0  0  0
   10.5595  -15.0262   24.5367 O   0  0  0  0  0  0  0  0  0  0  0  0
    8.7715  -16.4002   24.9018 N   0  0  0  0  0  0  0  0  0  0  0  0
    9.1042  -16.5626   26.3099 C   0  0  1  0  0  0  0  0  0  0  0  0
    8.0176  -16.0247   27.1976 C   0  0  0  0  0  0  0  0  0  0  0  0
    7.7227  -14.6031   27.0086 C   0  0  0  0  0  0  0  0  0  0  0  0
    6.5097  -14.2197   26.4815 C   0  0  0  0  0  0  0  0  0  0  0  0
    6.2183  -12.8777   26.2961 C   0  0  0  0  0  0  0  0  0  0  0  0
    7.1432  -11.9181   26.6387 C   0  0  0  0  0  0  0  0  0  0  0  0
    8.3515  -12.3281   27.1650 C   0  0  0  0  0  0  0  0  0  0  0  0
    8.6658  -13.6585   27.3597 C   0  0  0  0  0  0  0  0  0  0  0  0
    9.4901  -17.9586   26.6057 C   0  0  0  0  0  0  0  0  0  0  0  0
    9.5158  -18.9727   25.6802 O   0  0  0  0  0  0  0  0  0  0  0  0
    9.8186  -18.2449   27.7850 O   0  0  0  0  0  0  0  0  0  0  0  0
  2  1  1  6
  3  2  1  0
  4  5  1  6
  4  2  1  0
  6  4  1  0
  7  6  2  0
  8  6  1  0
  9  8  1  0
  9 10  1  1
 10 11  1  0
 11 16  1  0
 12 11  2  0
 12 13  1  0
 13 14  2  0
 14 15  1  0
 16 15  2  0
 17 18  2  0
 17  9  1  0
 19 17  1  0
 20 19  1  0
 20 21  1  1
 21 22  1  0
 22 27  1  0
 22 23  2  0
 23 24  1  0
 24 25  2  0
 26 25  1  0
 27 26  2  0
 28 20  1  0
 29 28  1  0
 30 28  2  0
M  END
$$$$
