TFF.pdb
     RDKit          3D

 30 31  0  0  1  0  0  0  0  0999 V2000
    9.4058  -19.7218   18.2955 C   0  0  0  0  0  0  0  0  0  0  0  0
    9.6132  -18.8774   19.5294 C   0  0  1  0  0  0  0  0  0  0  0  0
   10.7174  -19.2987   20.2674 O   0  0  0  0  0  0  0  0  0  0  0  0
    9.6191  -17.4051   19.2668 C   0  0  2  0  0  0  0  0  0  0  0  0
   10.6852  -17.1051   18.3412 N   0  0  0  0  0  0  0  0  0  0  0  0
    9.6257  -16.5567   20.4608 C   0  0  0  0  0  0  0  0  0  0  0  0
   10.7634  -16.1244   20.8543 O   0  0  0  0  0  0  0  0  0  0  0  0
    8.5117  -16.1632   21.2279 N   0  0  0  0  0  0  0  0  0  0  0  0
    8.6447  -15.4359   22.5014 C   0  0  1  0  0  0  0  0  0  0  0  0
    7.3119  -14.8396   22.7844 C   0  0  0  0  0  0  0  0  0  0  0  0
    7.1733  -14.1306   24.0542 C   0  0  0  0  0  0  0  0  0  0  0  0
    6.4706  -14.7862   25.0726 C   0  0  0  0  0  0  0  0  0  0  0  0
    6.2696  -14.2320   26.2989 C   0  0  0  0  0  0  0  0  0  0  0  0
    6.7798  -12.9737   26.5460 C   0  0  0  0  0  0  0  0  0  0  0  0
    7.4739  -12.3027   25.5696 C   0  0  0  0  0  0  0  0  0  0  0  0
    7.6583  -12.8876   24.3475 C   0  0  0  0  0  0  0  0  0  0  0  0
    9.1594  -16.3167   23.5641 C   0  0  0  0  0  0  0  0  0  0  0  0
    8.6914  -17.4817   23.6300 O   0  0  0  0  0  0  0  0  0  0  0  0
   10.1393  -15.9525   24.5151 N   0  0  0  0  0  0  0  0  0  0  0  0
   10.6359  -16.9036   25.4993 C   0  0  1  0  0  0  0  0  0  0  0  0
   11.6332  -16.2668   26.4255 C   0  0  0  0  0  0  0  0  0  0  0  0
   11.0567  -15.3330   27.3947 C   0  0  0  0  0  0  0  0  0  0  0  0
   10.8791  -15.7264   28.7024 C   0  0  0  0  0  0  0  0  0  0  0  0
   10.3333  -14.8530   29.6294 C   0  0  0  0  0  0  0  0  0  0  0  0
    9.9644  -13.5838   29.2464 C   0  0  0  0  0  0  0  0  0  0  0  0
   10.1525  -13.2138   27.9301 C   0  0  0  0  0  0  0  0  0  0  0  0
   10.6943  -14.0650   26.9875 C   0  0  0  0  0  0  0  0  0  0  0  0
    9.5194  -17.5837   26.1894 C   0  0  0  0  0  0  0  0  0  0  0  0
    9.6489  -18.7224   26.9460 O   0  0  0  0  0  0  0  0  0  0  0  0
    8.3679  -17.0912   26.0801 O   0  0  0  0  0  0  0  0  0  0  0  0
  2  1  1  6
  3  2  1  0
  4  5  1  6
  4  2  1  0
  6  4  1  0
  7  6  2  0
  8  6  1  0
  9  8  1  0
  9 10  1  1
 10 11  1  0
 11 16  1  0
 12 11  2  0
 12 13  1  0
 13 14  2  0
 14 15  1  0
 16 15  2  0
 17 18  2  0
 17  9  1  0
 19 17  1  0
 20 19  1  0
 20 21  1  1
 21 22  1  0
 22 27  1  0
 22 23  2  0
 23 24  1  0
 24 25  2  0
 26 25  1  0
 27 26  2  0
 28 20  1  0
 29 28  1  0
 30 28  2  0
M  END
$$$$
