GRG.pdb
     RDKit          3D

 20 19  0  0  1  0  0  0  0  0999 V2000
   28.3086  -23.2709  -16.9970 N   0  0  0  0  0  0  0  0  0  0  0  0
   27.9912  -22.0066  -16.3745 C   0  0  0  0  0  0  0  0  0  0  0  0
   26.5241  -21.9019  -16.0475 C   0  0  0  0  0  0  0  0  0  0  0  0
   25.6751  -22.5088  -16.7429 O   0  0  0  0  0  0  0  0  0  0  0  0
   26.1864  -19.4857   -8.9630 N   0  0  0  0  0  0  0  0  0  0  0  0
   25.3769  -20.6409   -9.0630 C   0  0  0  0  0  0  0  0  0  0  0  0
   24.3605  -20.7823   -8.2705 N   0  0  0  0  0  0  0  0  0  0  0  0
   25.6830  -21.6354  -10.0299 N   0  0  0  0  0  0  0  0  0  0  0  0
   26.2858  -21.2962  -11.3000 C   0  0  0  0  0  0  0  0  0  0  0  0
   25.5581  -22.0969  -12.3986 C   0  0  0  0  0  0  0  0  0  0  0  0
   24.5358  -21.2518  -13.0724 C   0  0  0  0  0  0  0  0  0  0  0  0
   24.6947  -21.0362  -14.4909 C   0  0  2  0  0  0  0  0  0  0  0  0
   26.0746  -21.1287  -14.9636 N   0  0  0  0  0  0  0  0  0  0  0  0
   23.9295  -20.1617  -15.3209 C   0  0  0  0  0  0  0  0  0  0  0  0
   24.5609  -19.1147  -15.7733 O   0  0  0  0  0  0  0  0  0  0  0  0
   23.7467  -21.6200   -8.2940 N   0  0  0  0  0  0  0  0  0  0  0  0
   22.5941  -20.2337  -15.7410 C   0  0  0  0  0  0  0  0  0  0  0  0
   21.9993  -19.2086  -16.6239 C   0  0  0  0  0  0  0  0  0  0  0  0
   21.9788  -19.6400  -18.0377 O   0  0  0  0  0  0  0  0  0  0  0  0
   22.0841  -18.7456  -19.0723 O   0  0  0  0  0  0  0  0  0  0  0  0
  1  2  1  0
  2  3  1  0
  3 13  1  0
  4  3  2  0
  5  6  1  0
  6  8  1  0
  7  6  2  0
  9  8  1  0
 10  9  1  0
 12 11  1  1
 11 10  1  0
 12 14  1  0
 13 12  1  0
 14 16  1  0
 14 15  2  0
 16 17  1  0
 17 18  1  0
 18 19  1  0
 20 18  2  0
M  END
$$$$
