GRG.pdb
     RDKit          3D

 20 19  0  0  1  0  0  0  0  0999 V2000
   26.2312  -25.2861  -16.9592 N   0  0  0  0  0  0  0  0  0  0  0  0
   26.4419  -24.3965  -15.8408 C   0  0  0  0  0  0  0  0  0  0  0  0
   25.4436  -23.2679  -15.8338 C   0  0  0  0  0  0  0  0  0  0  0  0
   24.6517  -23.1166  -16.7944 O   0  0  0  0  0  0  0  0  0  0  0  0
   18.6986  -22.0735  -11.5280 N   0  0  0  0  0  0  0  0  0  0  0  0
   18.9303  -22.1428  -12.9213 C   0  0  0  0  0  0  0  0  0  0  0  0
   18.0355  -22.6744  -13.6945 N   0  0  0  0  0  0  0  0  0  0  0  0
   20.1395  -21.6296  -13.4619 N   0  0  0  0  0  0  0  0  0  0  0  0
   21.1554  -21.0398  -12.6184 C   0  0  0  0  0  0  0  0  0  0  0  0
   22.2861  -20.5222  -13.5300 C   0  0  0  0  0  0  0  0  0  0  0  0
   23.3773  -21.5280  -13.6336 C   0  0  0  0  0  0  0  0  0  0  0  0
   24.4081  -21.2788  -14.6130 C   0  0  2  0  0  0  0  0  0  0  0  0
   25.3752  -22.3649  -14.7594 N   0  0  0  0  0  0  0  0  0  0  0  0
   25.0008  -20.0216  -14.9398 C   0  0  0  0  0  0  0  0  0  0  0  0
   26.0262  -19.6736  -14.2138 O   0  0  0  0  0  0  0  0  0  0  0  0
   18.1416  -22.7123  -14.7272 N   0  0  0  0  0  0  0  0  0  0  0  0
   24.6662  -19.0792  -15.9222 C   0  0  0  0  0  0  0  0  0  0  0  0
   25.3472  -17.7706  -16.0098 C   0  0  0  0  0  0  0  0  0  0  0  0
   26.2383  -17.6879  -17.1865 O   0  0  0  0  0  0  0  0  0  0  0  0
   26.9140  -16.5382  -17.5074 O   0  0  0  0  0  0  0  0  0  0  0  0
  1  2  1  0
  2  3  1  0
  3 13  1  0
  4  3  2  0
  5  6  1  0
  6  8  1  0
  7  6  2  0
  9  8  1  0
 10  9  1  0
 12 11  1  1
 11 10  1  0
 12 14  1  0
 13 12  1  0
 14 16  1  0
 14 15  2  0
 16 17  1  0
 17 18  1  0
 18 19  1  0
 20 18  2  0
M  END
$$$$
