GRG.pdb
     RDKit          3D

 20 19  0  0  1  0  0  0  0  0999 V2000
   25.2737  -20.1436  -18.0770 N   0  0  0  0  0  0  0  0  0  0  0  0
   24.9830  -19.3117  -16.9323 C   0  0  0  0  0  0  0  0  0  0  0  0
   24.5051  -20.1286  -15.7598 C   0  0  0  0  0  0  0  0  0  0  0  0
   23.8167  -21.1603  -15.9450 O   0  0  0  0  0  0  0  0  0  0  0  0
   29.4833  -20.7539   -9.1574 N   0  0  0  0  0  0  0  0  0  0  0  0
   29.5741  -21.5229  -10.3408 C   0  0  0  0  0  0  0  0  0  0  0  0
   30.7365  -21.7607  -10.8635 N   0  0  0  0  0  0  0  0  0  0  0  0
   28.3926  -22.0284  -10.9460 N   0  0  0  0  0  0  0  0  0  0  0  0
   27.1183  -21.3622  -10.7914 C   0  0  0  0  0  0  0  0  0  0  0  0
   26.5654  -21.0647  -12.1997 C   0  0  0  0  0  0  0  0  0  0  0  0
   25.2780  -20.3244  -12.1112 C   0  0  0  0  0  0  0  0  0  0  0  0
   24.3735  -20.4458  -13.2298 C   0  0  2  0  0  0  0  0  0  0  0  0
   24.8171  -19.7581  -14.4407 N   0  0  0  0  0  0  0  0  0  0  0  0
   22.9485  -20.5239  -13.1814 C   0  0  0  0  0  0  0  0  0  0  0  0
   22.3166  -19.3862  -13.2565 O   0  0  0  0  0  0  0  0  0  0  0  0
   30.8544  -22.3185  -11.7319 N   0  0  0  0  0  0  0  0  0  0  0  0
   22.0956  -21.6303  -13.0648 C   0  0  0  0  0  0  0  0  0  0  0  0
   20.6301  -21.4752  -12.9534 C   0  0  0  0  0  0  0  0  0  0  0  0
   19.9707  -21.4803  -14.2765 O   0  0  0  0  0  0  0  0  0  0  0  0
   18.6057  -21.4532  -14.4086 O   0  0  0  0  0  0  0  0  0  0  0  0
  1  2  1  0
  2  3  1  0
  3 13  1  0
  4  3  2  0
  5  6  1  0
  6  8  1  0
  7  6  2  0
  9  8  1  0
 10  9  1  0
 12 11  1  1
 11 10  1  0
 12 14  1  0
 13 12  1  0
 14 16  1  0
 14 15  2  0
 16 17  1  0
 17 18  1  0
 18 19  1  0
 20 18  2  0
M  END
$$$$
