GRG.pdb
     RDKit          3D

 20 19  0  0  1  0  0  0  0  0999 V2000
   26.5004  -21.8307  -16.7923 N   0  0  0  0  0  0  0  0  0  0  0  0
   27.0032  -20.9289  -15.7820 C   0  0  0  0  0  0  0  0  0  0  0  0
   26.4435  -21.2527  -14.4210 C   0  0  0  0  0  0  0  0  0  0  0  0
   25.4519  -22.0121  -14.3080 O   0  0  0  0  0  0  0  0  0  0  0  0
   31.3118  -22.1337   -7.7254 N   0  0  0  0  0  0  0  0  0  0  0  0
   31.7108  -22.3854   -9.0585 C   0  0  0  0  0  0  0  0  0  0  0  0
   32.7257  -23.1587   -9.2891 N   0  0  0  0  0  0  0  0  0  0  0  0
   30.9970  -21.7904  -10.1329 N   0  0  0  0  0  0  0  0  0  0  0  0
   29.7731  -21.0524   -9.9118 C   0  0  0  0  0  0  0  0  0  0  0  0
   28.7638  -21.4724  -10.9992 C   0  0  0  0  0  0  0  0  0  0  0  0
   27.4960  -20.7062  -10.8610 C   0  0  0  0  0  0  0  0  0  0  0  0
   26.5049  -20.8863  -11.8949 C   0  0  2  0  0  0  0  0  0  0  0  0
   27.0145  -20.7168  -13.2542 N   0  0  0  0  0  0  0  0  0  0  0  0
   25.1176  -20.5552  -11.8261 C   0  0  0  0  0  0  0  0  0  0  0  0
   24.7711  -19.4446  -12.4143 O   0  0  0  0  0  0  0  0  0  0  0  0
   33.0456  -23.3881  -10.2504 N   0  0  0  0  0  0  0  0  0  0  0  0
   24.0444  -21.2278  -11.2254 C   0  0  0  0  0  0  0  0  0  0  0  0
   22.7038  -20.6152  -11.1177 C   0  0  0  0  0  0  0  0  0  0  0  0
   21.8007  -21.0659  -12.1979 O   0  0  0  0  0  0  0  0  0  0  0  0
   20.4701  -20.7339  -12.2191 O   0  0  0  0  0  0  0  0  0  0  0  0
  1  2  1  0
  2  3  1  0
  3 13  1  0
  4  3  2  0
  5  6  1  0
  6  8  1  0
  7  6  2  0
  9  8  1  0
 10  9  1  0
 12 11  1  1
 11 10  1  0
 12 14  1  0
 13 12  1  0
 14 16  1  0
 14 15  2  0
 16 17  1  0
 17 18  1  0
 18 19  1  0
 20 18  2  0
M  END
$$$$
