GRG.pdb
     RDKit          3D

 20 19  0  0  1  0  0  0  0  0999 V2000
   26.2913  -24.6619  -16.1147 N   0  0  0  0  0  0  0  0  0  0  0  0
   26.5405  -23.3447  -15.5766 C   0  0  0  0  0  0  0  0  0  0  0  0
   25.4422  -22.9107  -14.6407 C   0  0  0  0  0  0  0  0  0  0  0  0
   24.3359  -23.5013  -14.6451 O   0  0  0  0  0  0  0  0  0  0  0  0
   22.8956  -22.1322   -6.9846 N   0  0  0  0  0  0  0  0  0  0  0  0
   22.1150  -21.2547   -7.7723 C   0  0  0  0  0  0  0  0  0  0  0  0
   20.8493  -21.1238   -7.5234 N   0  0  0  0  0  0  0  0  0  0  0  0
   22.7231  -20.5243   -8.8280 N   0  0  0  0  0  0  0  0  0  0  0  0
   23.6841  -21.1380   -9.7176 C   0  0  0  0  0  0  0  0  0  0  0  0
   24.1455  -20.0680  -10.7274 C   0  0  0  0  0  0  0  0  0  0  0  0
   25.1339  -20.6396  -11.6811 C   0  0  0  0  0  0  0  0  0  0  0  0
   24.6098  -21.2725  -12.8680 C   0  0  2  0  0  0  0  0  0  0  0  0
   25.6291  -21.8429  -13.7466 N   0  0  0  0  0  0  0  0  0  0  0  0
   23.4542  -20.8860  -13.6122 C   0  0  0  0  0  0  0  0  0  0  0  0
   23.6312  -19.9226  -14.4724 O   0  0  0  0  0  0  0  0  0  0  0  0
   20.2251  -20.5290   -8.1028 N   0  0  0  0  0  0  0  0  0  0  0  0
   22.1390  -21.3701  -13.5783 C   0  0  0  0  0  0  0  0  0  0  0  0
   21.0004  -20.5657  -14.0687 C   0  0  0  0  0  0  0  0  0  0  0  0
   20.7938  -20.7280  -15.5235 O   0  0  0  0  0  0  0  0  0  0  0  0
   20.2774  -19.7229  -16.3011 O   0  0  0  0  0  0  0  0  0  0  0  0
  1  2  1  0
  2  3  1  0
  3 13  1  0
  4  3  2  0
  5  6  1  0
  6  8  1  0
  7  6  2  0
  9  8  1  0
 10  9  1  0
 12 11  1  6
 11 10  1  0
 12 14  1  0
 13 12  1  0
 14 16  1  0
 14 15  2  0
 16 17  1  0
 17 18  1  0
 18 19  1  0
 20 18  2  0
M  END
$$$$
