GRG.pdb
     RDKit          3D

 20 19  0  0  1  0  0  0  0  0999 V2000
   23.9235  -25.7004  -15.5779 N   0  0  0  0  0  0  0  0  0  0  0  0
   25.0006  -24.7518  -15.7412 C   0  0  0  0  0  0  0  0  0  0  0  0
   24.6847  -23.4345  -15.0816 C   0  0  0  0  0  0  0  0  0  0  0  0
   23.5087  -22.9989  -15.0676 O   0  0  0  0  0  0  0  0  0  0  0  0
   25.8286  -20.6170   -8.2966 N   0  0  0  0  0  0  0  0  0  0  0  0
   24.4890  -20.7720   -8.7224 C   0  0  0  0  0  0  0  0  0  0  0  0
   23.6060  -21.2485   -7.9012 N   0  0  0  0  0  0  0  0  0  0  0  0
   24.1219  -20.4043  -10.0445 N   0  0  0  0  0  0  0  0  0  0  0  0
   24.6503  -21.0988  -11.1977 C   0  0  0  0  0  0  0  0  0  0  0  0
   25.9138  -20.3484  -11.6647 C   0  0  0  0  0  0  0  0  0  0  0  0
   26.4709  -20.9751  -12.8936 C   0  0  0  0  0  0  0  0  0  0  0  0
   25.5348  -21.3157  -13.9383 C   0  0  2  0  0  0  0  0  0  0  0  0
   25.6913  -22.6680  -14.4702 N   0  0  0  0  0  0  0  0  0  0  0  0
   24.9886  -20.4402  -14.9253 C   0  0  0  0  0  0  0  0  0  0  0  0
   25.6055  -20.4272  -16.0737 O   0  0  0  0  0  0  0  0  0  0  0  0
   22.5998  -21.3269   -8.1473 N   0  0  0  0  0  0  0  0  0  0  0  0
   23.8856  -19.5766  -14.8737 C   0  0  0  0  0  0  0  0  0  0  0  0
   23.5488  -18.6759  -15.9959 C   0  0  0  0  0  0  0  0  0  0  0  0
   22.4205  -19.1913  -16.8001 O   0  0  0  0  0  0  0  0  0  0  0  0
   21.8546  -20.4168  -16.5570 O   0  0  0  0  0  0  0  0  0  0  0  0
  1  2  1  0
  2  3  1  0
  3 13  1  0
  4  3  2  0
  5  6  1  0
  6  8  1  0
  7  6  2  0
  9  8  1  0
 10  9  1  0
 12 11  1  6
 11 10  1  0
 12 14  1  0
 13 12  1  0
 14 16  1  0
 14 15  2  0
 16 17  1  0
 17 18  1  0
 18 19  1  0
 20 18  2  0
M  END
$$$$
