DHY.pdb
     RDKit          3D

 31 32  0  0  1  0  0  0  0  0999 V2000
   16.9426  -12.6330  -15.8721 N   0  0  0  0  0  0  0  0  0  0  0  0
   16.9513  -11.2107  -15.9834 C   0  0  1  0  0  0  0  0  0  0  0  0
   16.0080  -10.5280  -15.0317 C   0  0  0  0  0  0  0  0  0  0  0  0
   14.8865   -9.9185  -15.7769 C   0  0  0  0  0  0  0  0  0  0  0  0
   14.8618  -10.0074  -17.0266 O   0  0  0  0  0  0  0  0  0  0  0  0
   18.3169  -10.6969  -15.7261 C   0  0  0  0  0  0  0  0  0  0  0  0
   19.0496  -11.2866  -14.9042 O   0  0  0  0  0  0  0  0  0  0  0  0
   13.8683   -9.2538  -15.1119 O   0  0  0  0  0  0  0  0  0  0  0  0
   18.8010   -9.5573  -16.3915 N   0  0  0  0  0  0  0  0  0  0  0  0
   20.1272   -9.0607  -16.1800 C   0  0  1  0  0  0  0  0  0  0  0  0
   20.9105   -9.0236  -17.4745 C   0  0  0  0  0  0  0  0  0  0  0  0
   21.4759  -10.3526  -17.7273 C   0  0  0  0  0  0  0  0  0  0  0  0
   21.3388  -11.4457  -16.8721 C   0  0  0  0  0  0  0  0  0  0  0  0
   22.0019  -12.4497  -17.4797 N   0  0  0  0  0  0  0  0  0  0  0  0
   22.5198  -11.9886  -18.6528 C   0  0  0  0  0  0  0  0  0  0  0  0
   22.1915  -10.7010  -18.7954 N   0  0  0  0  0  0  0  0  0  0  0  0
   20.0929   -7.7646  -15.4997 C   0  0  0  0  0  0  0  0  0  0  0  0
   19.1528   -6.9640  -15.7484 O   0  0  0  0  0  0  0  0  0  0  0  0
   16.6940   -8.2005   -9.9296 O   0  0  0  0  0  0  0  0  0  0  0  0
   17.8338   -7.6973  -10.5583 C   0  0  0  0  0  0  0  0  0  0  0  0
   18.8648   -8.5355  -10.8802 C   0  0  0  0  0  0  0  0  0  0  0  0
   20.0095   -8.0422  -11.5092 C   0  0  0  0  0  0  0  0  0  0  0  0
   20.0867   -6.7092  -11.7997 C   0  0  0  0  0  0  0  0  0  0  0  0
   21.2788   -6.1683  -12.4599 C   0  0  0  0  0  0  0  0  0  0  0  0
   21.0026   -6.0047  -13.9354 C   0  0  2  0  0  0  0  0  0  0  0  0
   21.0558   -7.3244  -14.5593 N   0  0  0  0  0  0  0  0  0  0  0  0
   21.8955   -5.0555  -14.6235 C   0  0  0  0  0  0  0  0  0  0  0  0
   22.7720   -5.4997  -15.4264 O   0  0  0  0  0  0  0  0  0  0  0  0
   19.0450   -5.8860  -11.4699 C   0  0  0  0  0  0  0  0  0  0  0  0
   17.8911   -6.3534  -10.8415 C   0  0  0  0  0  0  0  0  0  0  0  0
   21.8601   -3.6853  -14.4685 O   0  0  0  0  0  0  0  0  0  0  0  0
  2  1  1  1
  2  3  1  0
  3  4  1  0
  4  5  2  0
  4  8  1  0
  6  7  2  0
  6  2  1  0
  9  6  1  0
 10 11  1  6
 10  9  1  0
 11 12  1  0
 12 13  2  0
 14 13  1  0
 15 14  1  0
 16 15  2  0
 16 12  1  0
 17 26  1  0
 17 10  1  0
 18 17  2  0
 20 21  2  0
 20 19  1  0
 22 21  1  0
 23 22  2  0
 24 23  1  0
 25 26  1  0
 25 24  1  1
 27 25  1  0
 28 27  2  0
 29 23  1  0
 29 30  2  0
 30 20  1  0
 31 27  1  0
M  END
$$$$
