DHY.pdb
     RDKit          3D

 31 32  0  0  1  0  0  0  0  0999 V2000
   21.8862  -15.5102  -18.7990 N   0  0  0  0  0  0  0  0  0  0  0  0
   21.5530  -14.8922  -17.5571 C   0  0  1  0  0  0  0  0  0  0  0  0
   22.5632  -15.1426  -16.4716 C   0  0  0  0  0  0  0  0  0  0  0  0
   22.3932  -16.5044  -15.9228 C   0  0  0  0  0  0  0  0  0  0  0  0
   21.3367  -17.1338  -16.1635 O   0  0  0  0  0  0  0  0  0  0  0  0
   21.4310  -13.4275  -17.7437 C   0  0  0  0  0  0  0  0  0  0  0  0
   22.2251  -12.8379  -18.5066 O   0  0  0  0  0  0  0  0  0  0  0  0
   23.3839  -17.0887  -15.1496 O   0  0  0  0  0  0  0  0  0  0  0  0
   20.4368  -12.6911  -17.0766 N   0  0  0  0  0  0  0  0  0  0  0  0
   20.2801  -11.2807  -17.2672 C   0  0  1  0  0  0  0  0  0  0  0  0
   18.8195  -10.8848  -17.2474 C   0  0  0  0  0  0  0  0  0  0  0  0
   18.7094   -9.4548  -17.5525 C   0  0  0  0  0  0  0  0  0  0  0  0
   19.5087   -8.7795  -18.4744 C   0  0  0  0  0  0  0  0  0  0  0  0
   19.0769   -7.5030  -18.4419 N   0  0  0  0  0  0  0  0  0  0  0  0
   18.0598   -7.4053  -17.5403 C   0  0  0  0  0  0  0  0  0  0  0  0
   17.8420   -8.6082  -17.0002 N   0  0  0  0  0  0  0  0  0  0  0  0
   21.0839  -10.5342  -16.2973 C   0  0  0  0  0  0  0  0  0  0  0  0
   21.1897  -10.9706  -15.1205 O   0  0  0  0  0  0  0  0  0  0  0  0
   27.0457  -12.9430  -16.5863 O   0  0  0  0  0  0  0  0  0  0  0  0
   26.2683  -11.7877  -16.4934 C   0  0  0  0  0  0  0  0  0  0  0  0
   26.2692  -11.0524  -15.3408 C   0  0  0  0  0  0  0  0  0  0  0  0
   25.4951   -9.8951  -15.2375 C   0  0  0  0  0  0  0  0  0  0  0  0
   24.7352   -9.5059  -16.3044 C   0  0  0  0  0  0  0  0  0  0  0  0
   23.9142   -8.2942  -16.2194 C   0  0  0  0  0  0  0  0  0  0  0  0
   22.5855   -8.6335  -15.5873 C   0  0  2  0  0  0  0  0  0  0  0  0
   21.7713   -9.3291  -16.5807 N   0  0  0  0  0  0  0  0  0  0  0  0
   21.8637   -7.4792  -15.0230 C   0  0  0  0  0  0  0  0  0  0  0  0
   21.0107   -6.8711  -15.7391 O   0  0  0  0  0  0  0  0  0  0  0  0
   24.7471  -10.2545  -17.4494 C   0  0  0  0  0  0  0  0  0  0  0  0
   25.5113  -11.4139  -17.5782 C   0  0  0  0  0  0  0  0  0  0  0  0
   22.0377   -6.9878  -13.7459 O   0  0  0  0  0  0  0  0  0  0  0  0
  2  1  1  6
  2  3  1  0
  3  4  1  0
  4  5  2  0
  4  8  1  0
  6  7  2  0
  6  2  1  0
  9  6  1  0
 10 11  1  1
 10  9  1  0
 11 12  1  0
 12 13  2  0
 14 13  1  0
 15 14  1  0
 16 15  2  0
 16 12  1  0
 17 26  1  0
 17 10  1  0
 18 17  2  0
 20 21  2  0
 20 19  1  0
 22 21  1  0
 23 22  2  0
 24 23  1  0
 25 26  1  0
 25 24  1  6
 27 25  1  0
 28 27  2  0
 29 23  1  0
 29 30  2  0
 30 20  1  0
 31 27  1  0
M  END
$$$$
