DHY.pdb
     RDKit          3D

 31 32  0  0  1  0  0  0  0  0999 V2000
   20.5263  -13.6886  -17.9259 N   0  0  0  0  0  0  0  0  0  0  0  0
   20.5833  -12.3018  -18.2556 C   0  0  1  0  0  0  0  0  0  0  0  0
   19.2314  -11.6484  -18.3400 C   0  0  0  0  0  0  0  0  0  0  0  0
   18.4687  -12.2029  -19.4781 C   0  0  0  0  0  0  0  0  0  0  0  0
   19.0868  -12.6065  -20.4906 O   0  0  0  0  0  0  0  0  0  0  0  0
   21.3819  -11.5780  -17.2391 C   0  0  0  0  0  0  0  0  0  0  0  0
   21.0888  -11.6959  -16.0306 O   0  0  0  0  0  0  0  0  0  0  0  0
   17.0855  -12.2804  -19.4373 O   0  0  0  0  0  0  0  0  0  0  0  0
   22.4635  -10.7614  -17.6122 N   0  0  0  0  0  0  0  0  0  0  0  0
   23.2389  -10.0409  -16.6480 C   0  0  1  0  0  0  0  0  0  0  0  0
   24.7123  -10.3601  -16.7820 C   0  0  0  0  0  0  0  0  0  0  0  0
   24.9269  -11.7703  -16.4424 C   0  0  0  0  0  0  0  0  0  0  0  0
   25.0895  -12.2550  -15.1449 C   0  0  0  0  0  0  0  0  0  0  0  0
   25.2571  -13.5849  -15.2874 N   0  0  0  0  0  0  0  0  0  0  0  0
   25.1992  -13.8962  -16.6128 C   0  0  0  0  0  0  0  0  0  0  0  0
   24.9964  -12.7760  -17.3129 N   0  0  0  0  0  0  0  0  0  0  0  0
   22.9594   -8.6058  -16.7261 C   0  0  0  0  0  0  0  0  0  0  0  0
   23.0287   -8.0254  -17.8418 O   0  0  0  0  0  0  0  0  0  0  0  0
   18.8394   -1.2914  -17.3317 O   0  0  0  0  0  0  0  0  0  0  0  0
   19.3664   -2.5758  -17.1896 C   0  0  0  0  0  0  0  0  0  0  0  0
   20.6023   -2.8688  -17.6955 C   0  0  0  0  0  0  0  0  0  0  0  0
   21.1386   -4.1506  -17.5586 C   0  0  0  0  0  0  0  0  0  0  0  0
   20.4119   -5.1101  -16.9119 C   0  0  0  0  0  0  0  0  0  0  0  0
   20.9545   -6.4632  -16.7560 C   0  0  0  0  0  0  0  0  0  0  0  0
   22.0992   -6.4329  -15.7719 C   0  0  2  0  0  0  0  0  0  0  0  0
   22.6078   -7.7938  -15.6205 N   0  0  0  0  0  0  0  0  0  0  0  0
   21.7660   -5.8418  -14.4637 C   0  0  0  0  0  0  0  0  0  0  0  0
   21.2667   -6.5790  -13.5595 O   0  0  0  0  0  0  0  0  0  0  0  0
   19.1771   -4.7981  -16.4124 C   0  0  0  0  0  0  0  0  0  0  0  0
   18.6189   -3.5261  -16.5356 C   0  0  0  0  0  0  0  0  0  0  0  0
   21.9565   -4.5184  -14.1247 O   0  0  0  0  0  0  0  0  0  0  0  0
  2  1  1  1
  2  3  1  0
  3  4  1  0
  4  5  2  0
  4  8  1  0
  6  7  2  0
  6  2  1  0
  9  6  1  0
 10 11  1  6
 10  9  1  0
 11 12  1  0
 12 13  2  0
 14 13  1  0
 15 14  1  0
 16 15  2  0
 16 12  1  0
 17 26  1  0
 17 10  1  0
 18 17  2  0
 20 21  2  0
 20 19  1  0
 22 21  1  0
 23 22  2  0
 24 23  1  0
 25 26  1  0
 25 24  1  6
 27 25  1  0
 28 27  2  0
 29 23  1  0
 29 30  2  0
 30 20  1  0
 31 27  1  0
M  END
$$$$
