DHY.pdb
     RDKit          3D

 31 32  0  0  1  0  0  0  0  0999 V2000
   25.3146  -18.2630  -15.8704 N   0  0  0  0  0  0  0  0  0  0  0  0
   26.3440  -18.9842  -15.1956 C   0  0  1  0  0  0  0  0  0  0  0  0
   27.5011  -18.1229  -14.7704 C   0  0  0  0  0  0  0  0  0  0  0  0
   28.3378  -17.7815  -15.9400 C   0  0  0  0  0  0  0  0  0  0  0  0
   28.8407  -16.6365  -16.0195 O   0  0  0  0  0  0  0  0  0  0  0  0
   25.7881  -19.6376  -13.9877 C   0  0  0  0  0  0  0  0  0  0  0  0
   25.0009  -19.0032  -13.2542 O   0  0  0  0  0  0  0  0  0  0  0  0
   28.5705  -18.7090  -16.9433 O   0  0  0  0  0  0  0  0  0  0  0  0
   26.1318  -20.9591  -13.6540 N   0  0  0  0  0  0  0  0  0  0  0  0
   25.5943  -21.6152  -12.5004 C   0  0  1  0  0  0  0  0  0  0  0  0
   25.6143  -23.1193  -12.6673 C   0  0  0  0  0  0  0  0  0  0  0  0
   24.5265  -23.5130  -13.5682 C   0  0  0  0  0  0  0  0  0  0  0  0
   23.5800  -22.6350  -14.0955 C   0  0  0  0  0  0  0  0  0  0  0  0
   22.7784  -23.4034  -14.8598 N   0  0  0  0  0  0  0  0  0  0  0  0
   23.2173  -24.6921  -14.8005 C   0  0  0  0  0  0  0  0  0  0  0  0
   24.2902  -24.7488  -14.0056 N   0  0  0  0  0  0  0  0  0  0  0  0
   26.2784  -21.1696  -11.2850 C   0  0  0  0  0  0  0  0  0  0  0  0
   27.5329  -21.0566  -11.2915 O   0  0  0  0  0  0  0  0  0  0  0  0
   29.5435  -19.4442   -3.5802 O   0  0  0  0  0  0  0  0  0  0  0  0
   28.9444  -19.4870   -4.8399 C   0  0  0  0  0  0  0  0  0  0  0  0
   29.2797  -20.4741   -5.7245 C   0  0  0  0  0  0  0  0  0  0  0  0
   28.6863  -20.5259   -6.9872 C   0  0  0  0  0  0  0  0  0  0  0  0
   27.7649  -19.5764   -7.3286 C   0  0  0  0  0  0  0  0  0  0  0  0
   27.1285  -19.6104   -8.6490 C   0  0  0  0  0  0  0  0  0  0  0  0
   26.3118  -20.8738   -8.7783 C   0  0  2  0  0  0  0  0  0  0  0  0
   25.6286  -20.8462  -10.0691 N   0  0  0  0  0  0  0  0  0  0  0  0
   25.3587  -21.1018   -7.6777 C   0  0  0  0  0  0  0  0  0  0  0  0
   25.7998  -21.4267   -6.5331 O   0  0  0  0  0  0  0  0  0  0  0  0
   27.4422  -18.5964   -6.4301 C   0  0  0  0  0  0  0  0  0  0  0  0
   28.0201  -18.5222   -5.1631 C   0  0  0  0  0  0  0  0  0  0  0  0
   23.9882  -20.9879   -7.7849 O   0  0  0  0  0  0  0  0  0  0  0  0
  2  1  1  1
  2  3  1  0
  3  4  1  0
  4  5  2  0
  4  8  1  0
  6  7  2  0
  6  2  1  0
  9  6  1  0
 10 11  1  6
 10  9  1  0
 11 12  1  0
 12 13  2  0
 14 13  1  0
 15 14  1  0
 16 15  2  0
 16 12  1  0
 17 26  1  0
 17 10  1  0
 18 17  2  0
 20 21  2  0
 20 19  1  0
 22 21  1  0
 23 22  2  0
 24 23  1  0
 25 26  1  0
 25 24  1  1
 27 25  1  0
 28 27  2  0
 29 23  1  0
 29 30  2  0
 30 20  1  0
 31 27  1  0
M  END
$$$$
