DHY.pdb
     RDKit          3D

 31 32  0  0  1  0  0  0  0  0999 V2000
   28.1859  -42.1192   -6.2722 N   0  0  0  0  0  0  0  0  0  0  0  0
   28.1504  -41.0570   -5.3205 C   0  0  1  0  0  0  0  0  0  0  0  0
   29.3585  -41.0112   -4.4262 C   0  0  0  0  0  0  0  0  0  0  0  0
   29.3293  -42.1410   -3.4737 C   0  0  0  0  0  0  0  0  0  0  0  0
   30.2362  -42.2410   -2.6148 O   0  0  0  0  0  0  0  0  0  0  0  0
   28.0491  -39.7574   -6.0246 C   0  0  0  0  0  0  0  0  0  0  0  0
   28.1563  -39.7234   -7.2686 O   0  0  0  0  0  0  0  0  0  0  0  0
   28.3156  -43.0850   -3.5204 O   0  0  0  0  0  0  0  0  0  0  0  0
   27.8344  -38.5626   -5.3158 N   0  0  0  0  0  0  0  0  0  0  0  0
   27.1769  -37.4366   -5.9074 C   0  0  1  0  0  0  0  0  0  0  0  0
   25.8841  -37.8480   -6.5781 C   0  0  0  0  0  0  0  0  0  0  0  0
   25.3184  -36.6879   -7.2740 C   0  0  0  0  0  0  0  0  0  0  0  0
   25.7692  -36.2060   -8.5025 C   0  0  0  0  0  0  0  0  0  0  0  0
   24.9829  -35.1446   -8.7711 N   0  0  0  0  0  0  0  0  0  0  0  0
   24.0928  -34.9871   -7.7514 C   0  0  0  0  0  0  0  0  0  0  0  0
   24.3069  -35.9389   -6.8380 N   0  0  0  0  0  0  0  0  0  0  0  0
   26.9911  -36.3689   -4.9227 C   0  0  0  0  0  0  0  0  0  0  0  0
   26.2675  -36.5816   -3.9140 O   0  0  0  0  0  0  0  0  0  0  0  0
   25.8597  -32.0394   -9.7122 O   0  0  0  0  0  0  0  0  0  0  0  0
   26.3663  -32.2158   -8.4239 C   0  0  0  0  0  0  0  0  0  0  0  0
   27.5992  -32.7786   -8.2440 C   0  0  0  0  0  0  0  0  0  0  0  0
   28.1153  -32.9595   -6.9594 C   0  0  0  0  0  0  0  0  0  0  0  0
   27.3717  -32.5665   -5.8824 C   0  0  0  0  0  0  0  0  0  0  0  0
   27.8928  -32.7464   -4.5239 C   0  0  0  0  0  0  0  0  0  0  0  0
   27.4111  -34.0676   -3.9742 C   0  0  2  0  0  0  0  0  0  0  0  0
   27.5738  -35.0815   -5.0132 N   0  0  0  0  0  0  0  0  0  0  0  0
   26.0297  -34.0499   -3.4612 C   0  0  0  0  0  0  0  0  0  0  0  0
   25.1346  -34.7142   -4.0676 O   0  0  0  0  0  0  0  0  0  0  0  0
   26.1402  -32.0052   -6.0823 C   0  0  0  0  0  0  0  0  0  0  0  0
   25.6021  -31.8135   -7.3545 C   0  0  0  0  0  0  0  0  0  0  0  0
   25.6117  -33.3552   -2.3452 O   0  0  0  0  0  0  0  0  0  0  0  0
  2  1  1  6
  2  3  1  0
  3  4  1  0
  4  5  2  0
  4  8  1  0
  6  7  2  0
  6  2  1  0
  9  6  1  0
 10 11  1  1
 10  9  1  0
 11 12  1  0
 12 13  2  0
 14 13  1  0
 15 14  1  0
 16 15  2  0
 16 12  1  0
 17 26  1  0
 17 10  1  0
 18 17  2  0
 20 21  2  0
 20 19  1  0
 22 21  1  0
 23 22  2  0
 24 23  1  0
 25 26  1  0
 25 24  1  6
 27 25  1  0
 28 27  2  0
 29 23  1  0
 29 30  2  0
 30 20  1  0
 31 27  1  0
M  END
$$$$
