DHY.pdb
     RDKit          3D

 31 32  0  0  1  0  0  0  0  0999 V2000
   17.9653  -13.2080  -16.3040 N   0  0  0  0  0  0  0  0  0  0  0  0
   17.8829  -11.8525  -16.7412 C   0  0  1  0  0  0  0  0  0  0  0  0
   16.7031  -11.1100  -16.1770 C   0  0  0  0  0  0  0  0  0  0  0  0
   15.4595  -11.5485  -16.8446 C   0  0  0  0  0  0  0  0  0  0  0  0
   15.5250  -12.3970  -17.7644 O   0  0  0  0  0  0  0  0  0  0  0  0
   19.1136  -11.1253  -16.3520 C   0  0  0  0  0  0  0  0  0  0  0  0
   19.5252  -11.2016  -15.1751 O   0  0  0  0  0  0  0  0  0  0  0  0
   14.2294  -11.0342  -16.4662 O   0  0  0  0  0  0  0  0  0  0  0  0
   19.8253  -10.3515  -17.2850 N   0  0  0  0  0  0  0  0  0  0  0  0
   21.0571   -9.7024  -16.9510 C   0  0  1  0  0  0  0  0  0  0  0  0
   22.1146   -9.9610  -18.0024 C   0  0  0  0  0  0  0  0  0  0  0  0
   22.6941  -11.2892  -17.7784 C   0  0  0  0  0  0  0  0  0  0  0  0
   22.4116  -12.0996  -16.6792 C   0  0  0  0  0  0  0  0  0  0  0  0
   23.1469  -13.2135  -16.8685 N   0  0  0  0  0  0  0  0  0  0  0  0
   23.8460  -13.0869  -18.0314 C   0  0  0  0  0  0  0  0  0  0  0  0
   23.5612  -11.9029  -18.5819 N   0  0  0  0  0  0  0  0  0  0  0  0
   20.8403   -8.2758  -16.7025 C   0  0  0  0  0  0  0  0  0  0  0  0
   20.0142   -7.6460  -17.4148 O   0  0  0  0  0  0  0  0  0  0  0  0
   21.2360   -0.1324  -13.5425 O   0  0  0  0  0  0  0  0  0  0  0  0
   21.4036   -1.5074  -13.7123 C   0  0  0  0  0  0  0  0  0  0  0  0
   20.4318   -2.3727  -13.2927 C   0  0  0  0  0  0  0  0  0  0  0  0
   20.5896   -3.7501  -13.4579 C   0  0  0  0  0  0  0  0  0  0  0  0
   21.7291   -4.2233  -14.0450 C   0  0  0  0  0  0  0  0  0  0  0  0
   21.9171   -5.6657  -14.2290 C   0  0  0  0  0  0  0  0  0  0  0  0
   21.3344   -6.0804  -15.5588 C   0  0  2  0  0  0  0  0  0  0  0  0
   21.5007   -7.5248  -15.7000 N   0  0  0  0  0  0  0  0  0  0  0  0
   21.8917   -5.3655  -16.7208 C   0  0  0  0  0  0  0  0  0  0  0  0
   21.2267   -4.4200  -17.2442 O   0  0  0  0  0  0  0  0  0  0  0  0
   22.6904   -3.3420  -14.4583 C   0  0  0  0  0  0  0  0  0  0  0  0
   22.5573   -1.9623  -14.3051 C   0  0  0  0  0  0  0  0  0  0  0  0
   23.1101   -5.6408  -17.3061 O   0  0  0  0  0  0  0  0  0  0  0  0
  2  1  1  1
  2  3  1  0
  3  4  1  0
  4  5  2  0
  4  8  1  0
  6  7  2  0
  6  2  1  0
  9  6  1  0
 10 11  1  6
 10  9  1  0
 11 12  1  0
 12 13  2  0
 14 13  1  0
 15 14  1  0
 16 15  2  0
 16 12  1  0
 17 26  1  0
 17 10  1  0
 18 17  2  0
 20 21  2  0
 20 19  1  0
 22 21  1  0
 23 22  2  0
 24 23  1  0
 25 26  1  0
 25 24  1  1
 27 25  1  0
 28 27  2  0
 29 23  1  0
 29 30  2  0
 30 20  1  0
 31 27  1  0
M  END
$$$$
