DHY.pdb
     RDKit          3D

 31 32  0  0  1  0  0  0  0  0999 V2000
   12.2059  -13.0843  -10.0821 N   0  0  0  0  0  0  0  0  0  0  0  0
   13.4396  -12.5296  -10.5355 C   0  0  1  0  0  0  0  0  0  0  0  0
   13.7974  -12.9291  -11.9405 C   0  0  0  0  0  0  0  0  0  0  0  0
   13.9009  -14.4001  -12.0403 C   0  0  0  0  0  0  0  0  0  0  0  0
   14.6152  -15.0206  -11.2188 O   0  0  0  0  0  0  0  0  0  0  0  0
   13.3739  -11.0506  -10.4798 C   0  0  0  0  0  0  0  0  0  0  0  0
   12.2675  -10.4810  -10.5878 O   0  0  0  0  0  0  0  0  0  0  0  0
   13.2202  -15.0958  -13.0270 O   0  0  0  0  0  0  0  0  0  0  0  0
   14.5357  -10.2783  -10.3076 N   0  0  0  0  0  0  0  0  0  0  0  0
   14.4882   -8.9346   -9.8151 C   0  0  1  0  0  0  0  0  0  0  0  0
   13.8151   -8.8717   -8.4610 C   0  0  0  0  0  0  0  0  0  0  0  0
   13.7953   -7.4789   -8.0033 C   0  0  0  0  0  0  0  0  0  0  0  0
   14.3708   -6.4120   -8.6928 C   0  0  0  0  0  0  0  0  0  0  0  0
   14.1240   -5.3289   -7.9292 N   0  0  0  0  0  0  0  0  0  0  0  0
   13.4290   -5.7189   -6.8238 C   0  0  0  0  0  0  0  0  0  0  0  0
   13.2324   -7.0397   -6.8788 N   0  0  0  0  0  0  0  0  0  0  0  0
   15.8244   -8.3358   -9.8134 C   0  0  0  0  0  0  0  0  0  0  0  0
   16.6820   -8.7478   -8.9881 O   0  0  0  0  0  0  0  0  0  0  0  0
   23.2040   -5.1366  -13.1404 O   0  0  0  0  0  0  0  0  0  0  0  0
   21.9483   -5.6944  -12.8959 C   0  0  0  0  0  0  0  0  0  0  0  0
   21.8485   -6.9342  -12.3282 C   0  0  0  0  0  0  0  0  0  0  0  0
   20.5972   -7.5013  -12.0794 C   0  0  0  0  0  0  0  0  0  0  0  0
   19.4717   -6.8008  -12.4109 C   0  0  0  0  0  0  0  0  0  0  0  0
   18.1468   -7.3759  -12.1591 C   0  0  0  0  0  0  0  0  0  0  0  0
   17.6418   -6.9006  -10.8178 C   0  0  2  0  0  0  0  0  0  0  0  0
   16.2438   -7.3033  -10.6870 N   0  0  0  0  0  0  0  0  0  0  0  0
   17.8025   -5.4550  -10.5806 C   0  0  0  0  0  0  0  0  0  0  0  0
   16.9102   -4.6553  -10.9986 O   0  0  0  0  0  0  0  0  0  0  0  0
   19.5916   -5.5616  -12.9781 C   0  0  0  0  0  0  0  0  0  0  0  0
   20.8291   -4.9730  -13.2369 C   0  0  0  0  0  0  0  0  0  0  0  0
   18.8686   -4.8774   -9.9231 O   0  0  0  0  0  0  0  0  0  0  0  0
  2  1  1  6
  2  3  1  0
  3  4  1  0
  4  5  2  0
  4  8  1  0
  6  7  2  0
  6  2  1  0
  9  6  1  0
 10 11  1  1
 10  9  1  0
 11 12  1  0
 12 13  2  0
 14 13  1  0
 15 14  1  0
 16 15  2  0
 16 12  1  0
 17 26  1  0
 17 10  1  0
 18 17  2  0
 20 21  2  0
 20 19  1  0
 22 21  1  0
 23 22  2  0
 24 23  1  0
 25 26  1  0
 25 24  1  6
 27 25  1  0
 28 27  2  0
 29 23  1  0
 29 30  2  0
 30 20  1  0
 31 27  1  0
M  END
$$$$
