DHY.pdb
     RDKit          3D

 31 32  0  0  1  0  0  0  0  0999 V2000
   23.7531  -19.7726  -19.5012 N   0  0  0  0  0  0  0  0  0  0  0  0
   23.8490  -18.9102  -18.3689 C   0  0  1  0  0  0  0  0  0  0  0  0
   22.5193  -18.3929  -17.8936 C   0  0  0  0  0  0  0  0  0  0  0  0
   21.9581  -17.4485  -18.8823 C   0  0  0  0  0  0  0  0  0  0  0  0
   22.7371  -16.7611  -19.5829 O   0  0  0  0  0  0  0  0  0  0  0  0
   24.4918  -19.6298  -17.2446 C   0  0  0  0  0  0  0  0  0  0  0  0
   24.3149  -20.8603  -17.1225 O   0  0  0  0  0  0  0  0  0  0  0  0
   20.5877  -17.3163  -19.0416 O   0  0  0  0  0  0  0  0  0  0  0  0
   25.2969  -18.9509  -16.3137 N   0  0  0  0  0  0  0  0  0  0  0  0
   25.8986  -19.6198  -15.1998 C   0  0  1  0  0  0  0  0  0  0  0  0
   27.2104  -18.9704  -14.8151 C   0  0  0  0  0  0  0  0  0  0  0  0
   27.7708  -19.6771  -13.6590 C   0  0  0  0  0  0  0  0  0  0  0  0
   27.1869  -20.7895  -13.0536 C   0  0  0  0  0  0  0  0  0  0  0  0
   28.0196  -21.1153  -12.0448 N   0  0  0  0  0  0  0  0  0  0  0  0
   29.0641  -20.2401  -12.0364 C   0  0  0  0  0  0  0  0  0  0  0  0
   28.9020  -19.3619  -13.0306 N   0  0  0  0  0  0  0  0  0  0  0  0
   24.9594  -19.7091  -14.0800 C   0  0  0  0  0  0  0  0  0  0  0  0
   24.2578  -18.7058  -13.7840 O   0  0  0  0  0  0  0  0  0  0  0  0
   27.6076  -20.9564   -7.0066 O   0  0  0  0  0  0  0  0  0  0  0  0
   26.7692  -20.6243   -8.0717 C   0  0  0  0  0  0  0  0  0  0  0  0
   27.2951  -20.0985   -9.2189 C   0  0  0  0  0  0  0  0  0  0  0  0
   26.4652  -19.7628  -10.2903 C   0  0  0  0  0  0  0  0  0  0  0  0
   25.1187  -19.9666  -10.1779 C   0  0  0  0  0  0  0  0  0  0  0  0
   24.2274  -19.6218  -11.2898 C   0  0  0  0  0  0  0  0  0  0  0  0
   23.9220  -20.8652  -12.0902 C   0  0  2  0  0  0  0  0  0  0  0  0
   24.7692  -20.8621  -13.2802 N   0  0  0  0  0  0  0  0  0  0  0  0
   22.5022  -21.0283  -12.4495 C   0  0  0  0  0  0  0  0  0  0  0  0
   22.1859  -21.1931  -13.6673 O   0  0  0  0  0  0  0  0  0  0  0  0
   24.6110  -20.4938   -9.0221 C   0  0  0  0  0  0  0  0  0  0  0  0
   25.4179  -20.8374   -7.9378 C   0  0  0  0  0  0  0  0  0  0  0  0
   21.4552  -21.0191  -11.5514 O   0  0  0  0  0  0  0  0  0  0  0  0
  2  1  1  6
  2  3  1  0
  3  4  1  0
  4  5  2  0
  4  8  1  0
  6  7  2  0
  6  2  1  0
  9  6  1  0
 10 11  1  1
 10  9  1  0
 11 12  1  0
 12 13  2  0
 14 13  1  0
 15 14  1  0
 16 15  2  0
 16 12  1  0
 17 26  1  0
 17 10  1  0
 18 17  2  0
 20 21  2  0
 20 19  1  0
 22 21  1  0
 23 22  2  0
 24 23  1  0
 25 26  1  0
 25 24  1  6
 27 25  1  0
 28 27  2  0
 29 23  1  0
 29 30  2  0
 30 20  1  0
 31 27  1  0
M  END
$$$$
