PDS.pdb
     RDKit          3D

 22 22  0  0  1  0  0  0  0  0999 V2000
    9.1749  -13.3531   19.7464 N   0  0  0  0  0  0  0  0  0  0  0  0
    8.7337  -12.6353   18.5653 C   0  0  0  0  0  0  0  0  0  0  0  0
    7.5394  -13.4297   18.0824 C   0  0  0  0  0  0  0  0  0  0  0  0
    6.9621  -14.0815   19.3249 C   0  0  0  0  0  0  0  0  0  0  0  0
    7.9724  -13.8074   20.4136 C   0  0  1  0  0  0  0  0  0  0  0  0
    8.3294  -15.0303   21.1747 C   0  0  0  0  0  0  0  0  0  0  0  0
    7.4465  -15.7944   21.6396 O   0  0  0  0  0  0  0  0  0  0  0  0
    9.6745  -15.4142   21.4249 N   0  0  0  0  0  0  0  0  0  0  0  0
   10.0461  -16.5560   22.2435 C   0  0  1  0  0  0  0  0  0  0  0  0
   11.5422  -16.7020   22.0876 C   0  0  0  0  0  0  0  0  0  0  0  0
   12.0041  -18.0859   21.9694 C   0  0  0  0  0  0  0  0  0  0  0  0
   12.3083  -18.5340   20.8407 O   0  0  0  0  0  0  0  0  0  0  0  0
    9.7058  -16.2555   23.6584 C   0  0  0  0  0  0  0  0  0  0  0  0
   10.0599  -15.1920   24.1984 O   0  0  0  0  0  0  0  0  0  0  0  0
   12.1111  -18.9055   23.0692 O   0  0  0  0  0  0  0  0  0  0  0  0
    6.6137  -18.0103   25.4908 O   0  0  0  0  0  0  0  0  0  0  0  0
    7.1834  -16.8567   26.0689 C   0  0  0  0  0  0  0  0  0  0  0  0
    8.6931  -16.8684   25.8462 C   0  0  2  0  0  0  0  0  0  0  0  0
    8.9516  -17.1841   24.4614 N   0  0  0  0  0  0  0  0  0  0  0  0
    9.2362  -17.9011   26.7640 C   0  0  0  0  0  0  0  0  0  0  0  0
    9.8117  -18.8937   26.2568 O   0  0  0  0  0  0  0  0  0  0  0  0
    9.1350  -17.8139   28.1359 O   0  0  0  0  0  0  0  0  0  0  0  0
  2  1  1  0
  3  4  1  0
  3  2  1  0
  4  5  1  0
  5  6  1  6
  5  1  1  0
  6  7  2  0
  8  9  1  0
  8  6  1  0
  9 13  1  0
 10 11  1  0
  9 10  1  1
 11 12  2  0
 13 19  1  0
 13 14  2  0
 15 11  1  0
 16 17  1  0
 18 20  1  0
 18 17  1  6
 19 18  1  0
 20 22  1  0
 21 20  2  0
M  END
$$$$
