PDS.pdb
     RDKit          3D

 22 22  0  0  1  0  0  0  0  0999 V2000
    9.5384  -13.6702   18.8756 N   0  0  0  0  0  0  0  0  0  0  0  0
    8.6665  -13.0014   17.9284 C   0  0  0  0  0  0  0  0  0  0  0  0
    7.3032  -13.5971   18.2063 C   0  0  0  0  0  0  0  0  0  0  0  0
    7.3324  -14.0013   19.6684 C   0  0  0  0  0  0  0  0  0  0  0  0
    8.7700  -13.8190   20.0941 C   0  0  1  0  0  0  0  0  0  0  0  0
    9.3038  -15.0065   20.8062 C   0  0  0  0  0  0  0  0  0  0  0  0
    8.6382  -15.5901   21.6983 O   0  0  0  0  0  0  0  0  0  0  0  0
   10.5850  -15.5559   20.5306 N   0  0  0  0  0  0  0  0  0  0  0  0
   11.1369  -16.7019   21.2335 C   0  0  1  0  0  0  0  0  0  0  0  0
   12.4882  -16.9553   20.6059 C   0  0  0  0  0  0  0  0  0  0  0  0
   12.4303  -17.4935   19.2460 C   0  0  0  0  0  0  0  0  0  0  0  0
   11.6048  -18.3966   18.9811 O   0  0  0  0  0  0  0  0  0  0  0  0
   11.2970  -16.3463   22.6674 C   0  0  0  0  0  0  0  0  0  0  0  0
   11.9957  -15.3796   23.0213 O   0  0  0  0  0  0  0  0  0  0  0  0
   13.2621  -17.0307   18.2526 O   0  0  0  0  0  0  0  0  0  0  0  0
    8.6810  -17.6430   25.4349 O   0  0  0  0  0  0  0  0  0  0  0  0
    9.5329  -16.5715   25.7752 C   0  0  0  0  0  0  0  0  0  0  0  0
   10.8818  -16.7550   25.0857 C   0  0  2  0  0  0  0  0  0  0  0  0
   10.6488  -17.1071   23.7051 N   0  0  0  0  0  0  0  0  0  0  0  0
   11.5788  -17.8361   25.8266 C   0  0  0  0  0  0  0  0  0  0  0  0
   11.8924  -17.6214   27.0221 O   0  0  0  0  0  0  0  0  0  0  0  0
   11.8914  -19.0532   25.2602 O   0  0  0  0  0  0  0  0  0  0  0  0
  2  1  1  0
  3  4  1  0
  3  2  1  0
  4  5  1  0
  5  6  1  6
  5  1  1  0
  6  7  2  0
  8  9  1  0
  8  6  1  0
  9 13  1  0
 10 11  1  0
  9 10  1  6
 11 12  2  0
 13 19  1  0
 13 14  2  0
 15 11  1  0
 16 17  1  0
 18 20  1  0
 18 17  1  1
 19 18  1  0
 20 22  1  0
 21 20  2  0
M  END
$$$$
