PDS.pdb
     RDKit          3D

 22 22  0  0  1  0  0  0  0  0999 V2000
    7.7825  -14.2531   18.4680 N   0  0  0  0  0  0  0  0  0  0  0  0
    6.8694  -13.2450   18.9728 C   0  0  0  0  0  0  0  0  0  0  0  0
    7.7556  -12.3274   19.7873 C   0  0  0  0  0  0  0  0  0  0  0  0
    9.1308  -12.4324   19.1549 C   0  0  0  0  0  0  0  0  0  0  0  0
    9.0151  -13.5595   18.1563 C   0  0  1  0  0  0  0  0  0  0  0  0
   10.1170  -14.5451   18.2858 C   0  0  0  0  0  0  0  0  0  0  0  0
   10.4894  -15.2442   17.3102 O   0  0  0  0  0  0  0  0  0  0  0  0
   10.8153  -14.7608   19.5045 N   0  0  0  0  0  0  0  0  0  0  0  0
   12.0281  -15.5550   19.6068 C   0  0  1  0  0  0  0  0  0  0  0  0
   13.0075  -14.9335   18.6382 C   0  0  0  0  0  0  0  0  0  0  0  0
   14.3014  -15.6144   18.5685 C   0  0  0  0  0  0  0  0  0  0  0  0
   14.3852  -16.8063   18.9418 O   0  0  0  0  0  0  0  0  0  0  0  0
   12.5463  -15.4519   20.9957 C   0  0  0  0  0  0  0  0  0  0  0  0
   12.8898  -14.3584   21.4797 O   0  0  0  0  0  0  0  0  0  0  0  0
   15.4271  -14.9749   18.1031 O   0  0  0  0  0  0  0  0  0  0  0  0
   10.6748  -16.6104   24.8904 O   0  0  0  0  0  0  0  0  0  0  0  0
   10.9275  -16.6497   23.5033 C   0  0  0  0  0  0  0  0  0  0  0  0
   12.4243  -16.4875   23.2540 C   0  0  2  0  0  0  0  0  0  0  0  0
   12.6712  -16.6146   21.8373 N   0  0  0  0  0  0  0  0  0  0  0  0
   13.0899  -17.5608   24.0342 C   0  0  0  0  0  0  0  0  0  0  0  0
   13.5190  -18.5609   23.4102 O   0  0  0  0  0  0  0  0  0  0  0  0
   13.2539  -17.5031   25.4016 O   0  0  0  0  0  0  0  0  0  0  0  0
  2  1  1  0
  3  4  1  0
  3  2  1  0
  4  5  1  0
  5  6  1  1
  5  1  1  0
  6  7  2  0
  8  9  1  0
  8  6  1  0
  9 13  1  0
 10 11  1  0
  9 10  1  6
 11 12  2  0
 13 19  1  0
 13 14  2  0
 15 11  1  0
 16 17  1  0
 18 20  1  0
 18 17  1  6
 19 18  1  0
 20 22  1  0
 21 20  2  0
M  END
$$$$
