HHH.pdb
     RDKit          3D

 31 33  0  0  1  0  0  0  0  0999 V2000
   33.8034   -7.7282  -15.8952 N   0  0  0  0  0  0  0  0  0  0  0  0
   33.1590   -6.4900  -16.2923 C   0  0  1  0  0  0  0  0  0  0  0  0
   34.2182   -5.5747  -16.8368 C   0  0  0  0  0  0  0  0  0  0  0  0
   35.1540   -5.2696  -15.7131 C   0  0  0  0  0  0  0  0  0  0  0  0
   36.5139   -5.5701  -15.6765 C   0  0  0  0  0  0  0  0  0  0  0  0
   37.0270   -5.1467  -14.5108 N   0  0  0  0  0  0  0  0  0  0  0  0
   36.0332   -4.5830  -13.7993 C   0  0  0  0  0  0  0  0  0  0  0  0
   34.9003   -4.6633  -14.5393 N   0  0  0  0  0  0  0  0  0  0  0  0
   32.0871   -6.7970  -17.2486 C   0  0  0  0  0  0  0  0  0  0  0  0
   31.4242   -5.8934  -17.8204 O   0  0  0  0  0  0  0  0  0  0  0  0
   31.7200   -8.1478  -17.5987 N   0  0  0  0  0  0  0  0  0  0  0  0
   30.6906   -8.4196  -18.5655 C   0  0  1  0  0  0  0  0  0  0  0  0
   30.9659   -9.7091  -19.2605 C   0  0  0  0  0  0  0  0  0  0  0  0
   31.9581   -9.6983  -20.3227 C   0  0  0  0  0  0  0  0  0  0  0  0
   32.6296   -8.6883  -20.9205 C   0  0  0  0  0  0  0  0  0  0  0  0
   33.4883   -9.2230  -21.8532 N   0  0  0  0  0  0  0  0  0  0  0  0
   33.3320  -10.5429  -21.8130 C   0  0  0  0  0  0  0  0  0  0  0  0
   32.4096  -10.8520  -20.8922 N   0  0  0  0  0  0  0  0  0  0  0  0
   29.3188   -8.4193  -18.0062 C   0  0  0  0  0  0  0  0  0  0  0  0
   29.1456   -8.9218  -16.8734 O   0  0  0  0  0  0  0  0  0  0  0  0
   28.2065   -7.8812  -18.6932 N   0  0  0  0  0  0  0  0  0  0  0  0
   26.9016   -7.9050  -17.9797 C   0  0  1  0  0  0  0  0  0  0  0  0
   26.2513   -6.5726  -18.0639 C   0  0  0  0  0  0  0  0  0  0  0  0
   24.9308   -6.4997  -17.4168 C   0  0  0  0  0  0  0  0  0  0  0  0
   24.4826   -7.5274  -16.5750 C   0  0  0  0  0  0  0  0  0  0  0  0
   23.2679   -7.1681  -16.1522 N   0  0  0  0  0  0  0  0  0  0  0  0
   22.9566   -5.9701  -16.6976 C   0  0  0  0  0  0  0  0  0  0  0  0
   23.9685   -5.5571  -17.4708 N   0  0  0  0  0  0  0  0  0  0  0  0
   26.0327   -8.9064  -18.6907 C   0  0  0  0  0  0  0  0  0  0  0  0
   25.1209   -9.6932  -17.9602 O   0  0  0  0  0  0  0  0  0  0  0  0
   26.0577   -9.0995  -19.9123 O   0  0  0  0  0  0  0  0  0  0  0  0
  2  1  1  6
  2  3  1  0
  3  4  1  0
  4  8  1  0
  5  4  2  0
  5  6  1  0
  6  7  1  0
  8  7  2  0
  9  2  1  0
 10  9  2  0
 11  9  1  0
 12 13  1  1
 12 11  1  0
 14 15  2  0
 14 13  1  0
 16 15  1  0
 17 18  2  0
 17 16  1  0
 18 14  1  0
 19 20  2  0
 19 12  1  0
 21 19  1  0
 22 21  1  0
 22 23  1  6
 24 23  1  0
 25 24  2  0
 26 25  1  0
 27 26  1  0
 27 28  2  0
 28 24  1  0
 29 30  1  0
 29 22  1  0
 31 29  2  0
M  END
$$$$
