HHH.pdb
     RDKit          3D

 31 33  0  0  1  0  0  0  0  0999 V2000
   19.9137  -14.8387  -18.3887 N   0  0  0  0  0  0  0  0  0  0  0  0
   20.7913  -13.6847  -18.3227 C   0  0  1  0  0  0  0  0  0  0  0  0
   21.3338  -13.4403  -19.7019 C   0  0  0  0  0  0  0  0  0  0  0  0
   22.2472  -14.5783  -20.0218 C   0  0  0  0  0  0  0  0  0  0  0  0
   23.6374  -14.5610  -19.9336 C   0  0  0  0  0  0  0  0  0  0  0  0
   24.1166  -15.7603  -20.2995 N   0  0  0  0  0  0  0  0  0  0  0  0
   23.0713  -16.5455  -20.6198 C   0  0  0  0  0  0  0  0  0  0  0  0
   21.9412  -15.8171  -20.4474 N   0  0  0  0  0  0  0  0  0  0  0  0
   20.0433  -12.5494  -17.7664 C   0  0  0  0  0  0  0  0  0  0  0  0
   18.8784  -12.2667  -18.1481 O   0  0  0  0  0  0  0  0  0  0  0  0
   20.5874  -11.6829  -16.7489 N   0  0  0  0  0  0  0  0  0  0  0  0
   19.8070  -10.6229  -16.1695 C   0  0  1  0  0  0  0  0  0  0  0  0
   19.0597  -11.1250  -14.9817 C   0  0  0  0  0  0  0  0  0  0  0  0
   17.8115  -11.8291  -15.2249 C   0  0  0  0  0  0  0  0  0  0  0  0
   17.1446  -12.1162  -16.3655 C   0  0  0  0  0  0  0  0  0  0  0  0
   16.0187  -12.8399  -16.0459 N   0  0  0  0  0  0  0  0  0  0  0  0
   16.0129  -12.9849  -14.7241 C   0  0  0  0  0  0  0  0  0  0  0  0
   17.0904  -12.3800  -14.2072 N   0  0  0  0  0  0  0  0  0  0  0  0
   20.5919   -9.4184  -15.8121 C   0  0  0  0  0  0  0  0  0  0  0  0
   21.7357   -9.5831  -15.3320 O   0  0  0  0  0  0  0  0  0  0  0  0
   20.1067   -8.1021  -15.9875 N   0  0  0  0  0  0  0  0  0  0  0  0
   21.0567   -6.9935  -15.7031 C   0  0  1  0  0  0  0  0  0  0  0  0
   20.5234   -5.7160  -16.2407 C   0  0  0  0  0  0  0  0  0  0  0  0
   20.5195   -5.6306  -17.7106 C   0  0  0  0  0  0  0  0  0  0  0  0
   20.9124   -6.7226  -18.4973 C   0  0  0  0  0  0  0  0  0  0  0  0
   20.7992   -6.3330  -19.7696 N   0  0  0  0  0  0  0  0  0  0  0  0
   20.3559   -5.0553  -19.7932 C   0  0  0  0  0  0  0  0  0  0  0  0
   20.1833   -4.6212  -18.5385 N   0  0  0  0  0  0  0  0  0  0  0  0
   21.1573   -6.8769  -14.2066 C   0  0  0  0  0  0  0  0  0  0  0  0
   22.0690   -5.9714  -13.6296 O   0  0  0  0  0  0  0  0  0  0  0  0
   20.4763   -7.5391  -13.4142 O   0  0  0  0  0  0  0  0  0  0  0  0
  2  1  1  6
  2  3  1  0
  3  4  1  0
  4  8  1  0
  5  4  2  0
  5  6  1  0
  6  7  1  0
  8  7  2  0
  9  2  1  0
 10  9  2  0
 11  9  1  0
 12 13  1  1
 12 11  1  0
 14 15  2  0
 14 13  1  0
 16 15  1  0
 17 18  2  0
 17 16  1  0
 18 14  1  0
 19 20  2  0
 19 12  1  0
 21 19  1  0
 22 21  1  0
 22 23  1  1
 24 23  1  0
 25 24  2  0
 26 25  1  0
 27 26  1  0
 27 28  2  0
 28 24  1  0
 29 30  1  0
 29 22  1  0
 31 29  2  0
M  END
$$$$
