HHH.pdb
     RDKit          3D

 31 33  0  0  1  0  0  0  0  0999 V2000
   16.1279  -18.0791    3.3611 N   0  0  0  0  0  0  0  0  0  0  0  0
   15.7245  -16.9029    4.1093 C   0  0  1  0  0  0  0  0  0  0  0  0
   14.5888  -17.2978    5.0094 C   0  0  0  0  0  0  0  0  0  0  0  0
   13.4085  -17.5666    4.1340 C   0  0  0  0  0  0  0  0  0  0  0  0
   12.6513  -18.7360    4.1180 C   0  0  0  0  0  0  0  0  0  0  0  0
   11.6744  -18.6153    3.2056 N   0  0  0  0  0  0  0  0  0  0  0  0
   11.7848  -17.4006    2.6364 C   0  0  0  0  0  0  0  0  0  0  0  0
   12.8414  -16.7726    3.2081 N   0  0  0  0  0  0  0  0  0  0  0  0
   16.8925  -16.3689    4.8224 C   0  0  0  0  0  0  0  0  0  0  0  0
   17.7528  -17.1202    5.3500 O   0  0  0  0  0  0  0  0  0  0  0  0
   17.1354  -14.9541    4.9679 N   0  0  0  0  0  0  0  0  0  0  0  0
   18.2337  -14.4575    5.7525 C   0  0  1  0  0  0  0  0  0  0  0  0
   18.4830  -13.0223    5.4372 C   0  0  0  0  0  0  0  0  0  0  0  0
   19.5984  -12.3740    6.1069 C   0  0  0  0  0  0  0  0  0  0  0  0
   20.5072  -12.8329    6.9967 C   0  0  0  0  0  0  0  0  0  0  0  0
   21.3818  -11.8138    7.2968 N   0  0  0  0  0  0  0  0  0  0  0  0
   20.9991  -10.7536    6.5913 C   0  0  0  0  0  0  0  0  0  0  0  0
   19.9205  -11.0716    5.8635 N   0  0  0  0  0  0  0  0  0  0  0  0
   18.0670  -14.6419    7.2130 C   0  0  0  0  0  0  0  0  0  0  0  0
   17.0231  -14.2036    7.7456 O   0  0  0  0  0  0  0  0  0  0  0  0
   19.0303  -15.2854    8.0235 N   0  0  0  0  0  0  0  0  0  0  0  0
   18.7016  -15.4338    9.4665 C   0  0  1  0  0  0  0  0  0  0  0  0
   18.6050  -16.8727    9.8209 C   0  0  0  0  0  0  0  0  0  0  0  0
   17.3695  -17.5292    9.3623 C   0  0  0  0  0  0  0  0  0  0  0  0
   16.1157  -16.9429    9.5860 C   0  0  0  0  0  0  0  0  0  0  0  0
   15.2107  -17.7714    9.0587 N   0  0  0  0  0  0  0  0  0  0  0  0
   15.8556  -18.8338    8.5249 C   0  0  0  0  0  0  0  0  0  0  0  0
   17.1743  -18.6913    8.7074 N   0  0  0  0  0  0  0  0  0  0  0  0
   19.8408  -14.8269   10.2392 C   0  0  0  0  0  0  0  0  0  0  0  0
   19.7864  -14.7675   11.6454 O   0  0  0  0  0  0  0  0  0  0  0  0
   20.8593  -14.3588    9.7160 O   0  0  0  0  0  0  0  0  0  0  0  0
  2  1  1  1
  2  3  1  0
  3  4  1  0
  4  8  1  0
  5  4  2  0
  5  6  1  0
  6  7  1  0
  8  7  2  0
  9  2  1  0
 10  9  2  0
 11  9  1  0
 12 13  1  1
 12 11  1  0
 14 15  2  0
 14 13  1  0
 16 15  1  0
 17 18  2  0
 17 16  1  0
 18 14  1  0
 19 20  2  0
 19 12  1  0
 21 19  1  0
 22 21  1  0
 22 23  1  1
 24 23  1  0
 25 24  2  0
 26 25  1  0
 27 26  1  0
 27 28  2  0
 28 24  1  0
 29 30  1  0
 29 22  1  0
 31 29  2  0
M  END
$$$$
