HHH.pdb
     RDKit          3D

 31 33  0  0  1  0  0  0  0  0999 V2000
   45.0912  -10.3727   -9.8081 N   0  0  0  0  0  0  0  0  0  0  0  0
   44.5139   -9.5982   -8.7250 C   0  0  1  0  0  0  0  0  0  0  0  0
   45.2222   -8.2745   -8.6780 C   0  0  0  0  0  0  0  0  0  0  0  0
   46.4988   -8.4865   -7.9318 C   0  0  0  0  0  0  0  0  0  0  0  0
   46.9518   -9.6976   -7.4132 C   0  0  0  0  0  0  0  0  0  0  0  0
   48.1345   -9.5030   -6.8092 N   0  0  0  0  0  0  0  0  0  0  0  0
   48.4519   -8.2002   -6.9265 C   0  0  0  0  0  0  0  0  0  0  0  0
   47.4512   -7.5927   -7.6101 N   0  0  0  0  0  0  0  0  0  0  0  0
   43.0642   -9.4915   -8.9366 C   0  0  0  0  0  0  0  0  0  0  0  0
   42.5561   -9.4928  -10.0875 O   0  0  0  0  0  0  0  0  0  0  0  0
   42.1251   -9.3784   -7.8469 N   0  0  0  0  0  0  0  0  0  0  0  0
   40.7170   -9.2070   -8.0839 C   0  0  1  0  0  0  0  0  0  0  0  0
   39.9297  -10.0070   -7.1032 C   0  0  0  0  0  0  0  0  0  0  0  0
   38.4818   -9.8875   -7.1511 C   0  0  0  0  0  0  0  0  0  0  0  0
   37.6600   -9.1924   -7.9695 C   0  0  0  0  0  0  0  0  0  0  0  0
   36.3579   -9.4510   -7.6076 N   0  0  0  0  0  0  0  0  0  0  0  0
   36.4007  -10.2950   -6.5809 C   0  0  0  0  0  0  0  0  0  0  0  0
   37.6781  -10.5724   -6.2884 N   0  0  0  0  0  0  0  0  0  0  0  0
   40.2684   -7.7952   -8.0741 C   0  0  0  0  0  0  0  0  0  0  0  0
   40.5885   -7.0833   -7.0961 O   0  0  0  0  0  0  0  0  0  0  0  0
   39.4991   -7.2236   -9.1135 N   0  0  0  0  0  0  0  0  0  0  0  0
   39.2184   -5.7662   -9.0168 C   0  0  1  0  0  0  0  0  0  0  0  0
   38.5939   -5.2837  -10.2749 C   0  0  0  0  0  0  0  0  0  0  0  0
   38.2757   -3.8462  -10.2822 C   0  0  0  0  0  0  0  0  0  0  0  0
   39.2786   -2.8848  -10.0937 C   0  0  0  0  0  0  0  0  0  0  0  0
   38.6776   -1.6937  -10.1537 N   0  0  0  0  0  0  0  0  0  0  0  0
   37.3563   -1.8861  -10.3698 C   0  0  0  0  0  0  0  0  0  0  0  0
   37.1051   -3.1988  -10.4492 N   0  0  0  0  0  0  0  0  0  0  0  0
   38.2336   -5.5840   -7.8942 C   0  0  0  0  0  0  0  0  0  0  0  0
   38.4540   -4.5943   -6.9166 O   0  0  0  0  0  0  0  0  0  0  0  0
   37.2073   -6.2611   -7.7582 O   0  0  0  0  0  0  0  0  0  0  0  0
  2  1  1  6
  2  3  1  0
  3  4  1  0
  4  8  1  0
  5  4  2  0
  5  6  1  0
  6  7  1  0
  8  7  2  0
  9  2  1  0
 10  9  2  0
 11  9  1  0
 12 13  1  1
 12 11  1  0
 14 15  2  0
 14 13  1  0
 16 15  1  0
 17 18  2  0
 17 16  1  0
 18 14  1  0
 19 20  2  0
 19 12  1  0
 21 19  1  0
 22 21  1  0
 22 23  1  6
 24 23  1  0
 25 24  2  0
 26 25  1  0
 27 26  1  0
 27 28  2  0
 28 24  1  0
 29 30  1  0
 29 22  1  0
 31 29  2  0
M  END
$$$$
