HHH.pdb
     RDKit          3D

 31 33  0  0  1  0  0  0  0  0999 V2000
   18.9581  -15.3284  -17.5249 N   0  0  0  0  0  0  0  0  0  0  0  0
   19.0776  -14.5779  -16.2885 C   0  0  1  0  0  0  0  0  0  0  0  0
   20.1779  -15.2005  -15.4774 C   0  0  0  0  0  0  0  0  0  0  0  0
   19.7072  -16.5582  -15.0689 C   0  0  0  0  0  0  0  0  0  0  0  0
   18.6627  -16.8312  -14.1883 C   0  0  0  0  0  0  0  0  0  0  0  0
   18.5287  -18.1609  -14.0632 N   0  0  0  0  0  0  0  0  0  0  0  0
   19.4588  -18.7474  -14.8396 C   0  0  0  0  0  0  0  0  0  0  0  0
   20.1687  -17.7643  -15.4455 N   0  0  0  0  0  0  0  0  0  0  0  0
   19.3022  -13.1625  -16.6109 C   0  0  0  0  0  0  0  0  0  0  0  0
   20.1358  -12.8007  -17.4810 O   0  0  0  0  0  0  0  0  0  0  0  0
   18.5877  -12.0928  -15.9574 N   0  0  0  0  0  0  0  0  0  0  0  0
   18.7385  -10.7246  -16.3741 C   0  0  1  0  0  0  0  0  0  0  0  0
   17.4035  -10.1194  -16.6440 C   0  0  0  0  0  0  0  0  0  0  0  0
   16.7009  -10.5544  -17.8398 C   0  0  0  0  0  0  0  0  0  0  0  0
   17.0955  -10.6663  -19.1282 C   0  0  0  0  0  0  0  0  0  0  0  0
   16.0468  -11.1633  -19.8675 N   0  0  0  0  0  0  0  0  0  0  0  0
   15.0328  -11.3478  -19.0273 C   0  0  0  0  0  0  0  0  0  0  0  0
   15.4080  -10.9853  -17.7936 N   0  0  0  0  0  0  0  0  0  0  0  0
   19.5025   -9.8826  -15.4243 C   0  0  0  0  0  0  0  0  0  0  0  0
   19.2109   -9.9539  -14.2095 O   0  0  0  0  0  0  0  0  0  0  0  0
   20.5371   -9.0083  -15.8292 N   0  0  0  0  0  0  0  0  0  0  0  0
   21.2399   -8.2575  -14.7547 C   0  0  1  0  0  0  0  0  0  0  0  0
   22.6833   -8.1331  -15.0814 C   0  0  0  0  0  0  0  0  0  0  0  0
   23.4223   -9.4063  -15.0603 C   0  0  0  0  0  0  0  0  0  0  0  0
   22.7814  -10.6064  -14.7215 C   0  0  0  0  0  0  0  0  0  0  0  0
   23.7088  -11.5647  -14.7944 N   0  0  0  0  0  0  0  0  0  0  0  0
   24.8833  -11.0033  -15.1617 C   0  0  0  0  0  0  0  0  0  0  0  0
   24.7143   -9.6853  -15.3255 N   0  0  0  0  0  0  0  0  0  0  0  0
   20.6378   -6.8793  -14.7186 C   0  0  0  0  0  0  0  0  0  0  0  0
   20.9663   -5.9935  -13.6739 O   0  0  0  0  0  0  0  0  0  0  0  0
   19.8475   -6.4476  -15.5666 O   0  0  0  0  0  0  0  0  0  0  0  0
  2  1  1  6
  2  3  1  0
  3  4  1  0
  4  8  1  0
  5  4  2  0
  5  6  1  0
  6  7  1  0
  8  7  2  0
  9  2  1  0
 10  9  2  0
 11  9  1  0
 12 13  1  1
 12 11  1  0
 14 15  2  0
 14 13  1  0
 16 15  1  0
 17 18  2  0
 17 16  1  0
 18 14  1  0
 19 20  2  0
 19 12  1  0
 21 19  1  0
 22 21  1  0
 22 23  1  6
 24 23  1  0
 25 24  2  0
 26 25  1  0
 27 26  1  0
 27 28  2  0
 28 24  1  0
 29 30  1  0
 29 22  1  0
 31 29  2  0
M  END
$$$$
