HHH.pdb
     RDKit          3D

 31 33  0  0  1  0  0  0  0  0999 V2000
   19.7769  -13.4758  -15.9905 N   0  0  0  0  0  0  0  0  0  0  0  0
   19.1093  -12.1934  -16.1165 C   0  0  1  0  0  0  0  0  0  0  0  0
   17.6712  -12.3835  -15.7270 C   0  0  0  0  0  0  0  0  0  0  0  0
   17.0018  -13.0973  -16.8558 C   0  0  0  0  0  0  0  0  0  0  0  0
   17.4519  -13.1478  -18.1732 C   0  0  0  0  0  0  0  0  0  0  0  0
   16.5951  -13.8789  -18.9033 N   0  0  0  0  0  0  0  0  0  0  0  0
   15.6083  -14.2983  -18.0897 C   0  0  0  0  0  0  0  0  0  0  0  0
   15.8658  -13.8176  -16.8486 N   0  0  0  0  0  0  0  0  0  0  0  0
   19.8226  -11.2034  -15.2986 C   0  0  0  0  0  0  0  0  0  0  0  0
   20.1246  -11.4235  -14.0973 O   0  0  0  0  0  0  0  0  0  0  0  0
   20.2257   -9.9161  -15.8109 N   0  0  0  0  0  0  0  0  0  0  0  0
   20.9248   -8.9659  -14.9883 C   0  0  1  0  0  0  0  0  0  0  0  0
   22.1942   -8.5498  -15.6493 C   0  0  0  0  0  0  0  0  0  0  0  0
   23.2757   -9.5200  -15.6919 C   0  0  0  0  0  0  0  0  0  0  0  0
   23.3597  -10.7978  -15.2576 C   0  0  0  0  0  0  0  0  0  0  0  0
   24.6055  -11.2887  -15.5747 N   0  0  0  0  0  0  0  0  0  0  0  0
   25.2613  -10.3119  -16.1945 C   0  0  0  0  0  0  0  0  0  0  0  0
   24.4735   -9.2316  -16.2761 N   0  0  0  0  0  0  0  0  0  0  0  0
   20.1220   -7.7762  -14.6211 C   0  0  0  0  0  0  0  0  0  0  0  0
   19.3058   -7.3355  -15.4609 O   0  0  0  0  0  0  0  0  0  0  0  0
   20.2395   -7.1223  -13.3731 N   0  0  0  0  0  0  0  0  0  0  0  0
   19.3715   -5.9346  -13.1537 C   0  0  1  0  0  0  0  0  0  0  0  0
   19.1421   -5.7335  -11.7002 C   0  0  0  0  0  0  0  0  0  0  0  0
   18.1882   -6.6806  -11.0996 C   0  0  0  0  0  0  0  0  0  0  0  0
   17.5264   -7.6339  -11.8863 C   0  0  0  0  0  0  0  0  0  0  0  0
   16.7427   -8.3299  -11.0587 N   0  0  0  0  0  0  0  0  0  0  0  0
   16.8972   -7.8444   -9.8057 C   0  0  0  0  0  0  0  0  0  0  0  0
   17.7788   -6.8370   -9.8247 N   0  0  0  0  0  0  0  0  0  0  0  0
   20.1175   -4.7428  -13.6888 C   0  0  0  0  0  0  0  0  0  0  0  0
   19.4691   -3.4975  -13.8015 O   0  0  0  0  0  0  0  0  0  0  0  0
   21.2999   -4.7728  -14.0510 O   0  0  0  0  0  0  0  0  0  0  0  0
  2  1  1  1
  2  3  1  0
  3  4  1  0
  4  8  1  0
  5  4  2  0
  5  6  1  0
  6  7  1  0
  8  7  2  0
  9  2  1  0
 10  9  2  0
 11  9  1  0
 12 13  1  6
 12 11  1  0
 14 15  2  0
 14 13  1  0
 16 15  1  0
 17 18  2  0
 17 16  1  0
 18 14  1  0
 19 20  2  0
 19 12  1  0
 21 19  1  0
 22 21  1  0
 22 23  1  1
 24 23  1  0
 25 24  2  0
 26 25  1  0
 27 26  1  0
 27 28  2  0
 28 24  1  0
 29 30  1  0
 29 22  1  0
 31 29  2  0
M  END
$$$$
