HHH.pdb
     RDKit          3D

 31 33  0  0  1  0  0  0  0  0999 V2000
   16.6462  -21.2249    6.1704 N   0  0  0  0  0  0  0  0  0  0  0  0
   17.8481  -20.5174    5.7693 C   0  0  1  0  0  0  0  0  0  0  0  0
   17.4304  -19.2072    5.1653 C   0  0  0  0  0  0  0  0  0  0  0  0
   17.0317  -19.4830    3.7523 C   0  0  0  0  0  0  0  0  0  0  0  0
   17.0872  -20.7197    3.1132 C   0  0  0  0  0  0  0  0  0  0  0  0
   16.6501  -20.5831    1.8515 N   0  0  0  0  0  0  0  0  0  0  0  0
   16.3160  -19.2927    1.6646 C   0  0  0  0  0  0  0  0  0  0  0  0
   16.5520  -18.6340    2.8257 N   0  0  0  0  0  0  0  0  0  0  0  0
   18.7317  -20.3819    6.9350 C   0  0  0  0  0  0  0  0  0  0  0  0
   18.3601  -19.8070    7.9905 O   0  0  0  0  0  0  0  0  0  0  0  0
   20.0802  -20.8949    6.9529 N   0  0  0  0  0  0  0  0  0  0  0  0
   20.9702  -20.6291    8.0509 C   0  0  1  0  0  0  0  0  0  0  0  0
   22.1050  -21.5954    8.0382 C   0  0  0  0  0  0  0  0  0  0  0  0
   23.1016  -21.4710    9.0890 C   0  0  0  0  0  0  0  0  0  0  0  0
   23.1987  -20.6340   10.1464 C   0  0  0  0  0  0  0  0  0  0  0  0
   24.3286  -20.9587   10.8616 N   0  0  0  0  0  0  0  0  0  0  0  0
   24.9023  -21.9828   10.2368 C   0  0  0  0  0  0  0  0  0  0  0  0
   24.1749  -22.3089    9.1604 N   0  0  0  0  0  0  0  0  0  0  0  0
   21.4791  -19.2385    8.0954 C   0  0  0  0  0  0  0  0  0  0  0  0
   22.0036  -18.7710    7.0600 O   0  0  0  0  0  0  0  0  0  0  0  0
   21.3992  -18.4250    9.2490 N   0  0  0  0  0  0  0  0  0  0  0  0
   21.9728  -17.0566    9.1458 C   0  0  1  0  0  0  0  0  0  0  0  0
   20.8969  -16.0743    8.8578 C   0  0  0  0  0  0  0  0  0  0  0  0
   19.6991  -16.2213    9.7013 C   0  0  0  0  0  0  0  0  0  0  0  0
   19.6244  -17.2232   10.6793 C   0  0  0  0  0  0  0  0  0  0  0  0
   18.4305  -17.0940   11.2635 N   0  0  0  0  0  0  0  0  0  0  0  0
   17.7759  -16.0605   10.6864 C   0  0  0  0  0  0  0  0  0  0  0  0
   18.5459  -15.5238    9.7317 N   0  0  0  0  0  0  0  0  0  0  0  0
   22.5705  -16.7307   10.4874 C   0  0  0  0  0  0  0  0  0  0  0  0
   22.5176  -17.6751   11.5310 O   0  0  0  0  0  0  0  0  0  0  0  0
   23.1254  -15.6580   10.7549 O   0  0  0  0  0  0  0  0  0  0  0  0
  2  1  1  1
  2  3  1  0
  3  4  1  0
  4  8  1  0
  5  4  2  0
  5  6  1  0
  6  7  1  0
  8  7  2  0
  9  2  1  0
 10  9  2  0
 11  9  1  0
 12 13  1  6
 12 11  1  0
 14 15  2  0
 14 13  1  0
 16 15  1  0
 17 18  2  0
 17 16  1  0
 18 14  1  0
 19 20  2  0
 19 12  1  0
 21 19  1  0
 22 21  1  0
 22 23  1  1
 24 23  1  0
 25 24  2  0
 26 25  1  0
 27 26  1  0
 27 28  2  0
 28 24  1  0
 29 30  1  0
 29 22  1  0
 31 29  2  0
M  END
$$$$
