LYH.pdb
     RDKit          3D

 31 32  0  0  1  0  0  0  0  0999 V2000
   21.8711  -13.9251  -21.9356 C   0  0  0  0  0  0  0  0  0  0  0  0
   22.3206  -12.7934  -21.0526 C   0  0  1  0  0  0  0  0  0  0  0  0
   23.0387  -11.7743  -21.9077 C   0  0  0  0  0  0  0  0  0  0  0  0
   21.2167  -12.2078  -20.2332 C   0  0  0  0  0  0  0  0  0  0  0  0
   21.6587  -11.0057  -19.4274 C   0  0  2  0  0  0  0  0  0  0  0  0
   22.5924  -11.4060  -18.4162 N   0  0  0  0  0  0  0  0  0  0  0  0
   20.4579  -10.3345  -18.8643 C   0  0  0  0  0  0  0  0  0  0  0  0
   19.4773  -10.0044  -19.5814 O   0  0  0  0  0  0  0  0  0  0  0  0
   16.1758  -14.8371  -15.3445 O   0  0  0  0  0  0  0  0  0  0  0  0
   16.9424  -13.6832  -15.3862 C   0  0  0  0  0  0  0  0  0  0  0  0
   18.3085  -13.7173  -15.5038 C   0  0  0  0  0  0  0  0  0  0  0  0
   19.0694  -12.5686  -15.5452 C   0  0  0  0  0  0  0  0  0  0  0  0
   18.4352  -11.3522  -15.4659 C   0  0  0  0  0  0  0  0  0  0  0  0
   19.1750  -10.1058  -15.5051 C   0  0  0  0  0  0  0  0  0  0  0  0
   19.2587   -9.4045  -16.8374 C   0  0  2  0  0  0  0  0  0  0  0  0
   20.4207  -10.0631  -17.4933 N   0  0  0  0  0  0  0  0  0  0  0  0
   19.6002   -7.9816  -16.7472 C   0  0  0  0  0  0  0  0  0  0  0  0
   20.8030   -7.5987  -16.9458 O   0  0  0  0  0  0  0  0  0  0  0  0
   17.0571  -11.3107  -15.3471 C   0  0  0  0  0  0  0  0  0  0  0  0
   16.2886  -12.4625  -15.3051 C   0  0  0  0  0  0  0  0  0  0  0  0
   18.6556   -6.9616  -16.4493 N   0  0  0  0  0  0  0  0  0  0  0  0
   18.9821   -5.5635  -16.4698 C   0  0  1  0  0  0  0  0  0  0  0  0
   19.5310   -5.2907  -17.8826 C   0  0  0  0  0  0  0  0  0  0  0  0
   19.9319   -3.8821  -18.0251 C   0  0  0  0  0  0  0  0  0  0  0  0
   20.1711   -2.9278  -17.0611 C   0  0  0  0  0  0  0  0  0  0  0  0
   20.5173   -1.7652  -17.6839 N   0  0  0  0  0  0  0  0  0  0  0  0
   20.4935   -1.9923  -18.9998 C   0  0  0  0  0  0  0  0  0  0  0  0
   20.1392   -3.2739  -19.2129 N   0  0  0  0  0  0  0  0  0  0  0  0
   17.8708   -4.6507  -16.1699 C   0  0  0  0  0  0  0  0  0  0  0  0
   16.5951   -5.1614  -15.8444 O   0  0  0  0  0  0  0  0  0  0  0  0
   17.9248   -3.3954  -16.1690 O   0  0  0  0  0  0  0  0  0  0  0  0
  2  1  1  6
  3  2  1  0
  4  2  1  0
  5  4  1  0
  5  6  1  1
  7  5  1  0
  7  8  2  0
  9 10  1  0
 10 20  2  0
 10 11  1  0
 11 12  2  0
 12 13  1  0
 13 14  1  0
 15 14  1  1
 15 16  1  0
 16  7  1  0
 17 21  1  0
 17 15  1  0
 18 17  2  0
 19 13  2  0
 20 19  1  0
 22 21  1  0
 22 29  1  0
 22 23  1  6
 24 23  1  0
 24 25  2  0
 26 25  1  0
 27 26  1  0
 28 27  2  0
 28 24  1  0
 29 31  2  0
 29 30  1  0
M  END
$$$$
