LYH.pdb
     RDKit          3D

 31 32  0  0  1  0  0  0  0  0999 V2000
   35.9192  -29.1170  -21.7546 C   0  0  0  0  0  0  0  0  0  0  0  0
   34.7782  -28.1439  -21.6373 C   0  0  1  0  0  0  0  0  0  0  0  0
   34.4633  -27.6062  -23.0146 C   0  0  0  0  0  0  0  0  0  0  0  0
   33.5870  -28.7105  -20.9352 C   0  0  0  0  0  0  0  0  0  0  0  0
   32.4399  -27.7282  -20.8404 C   0  0  2  0  0  0  0  0  0  0  0  0
   32.7876  -26.6469  -19.9660 N   0  0  0  0  0  0  0  0  0  0  0  0
   31.2199  -28.4527  -20.3977 C   0  0  0  0  0  0  0  0  0  0  0  0
   30.7506  -29.4285  -21.0398 O   0  0  0  0  0  0  0  0  0  0  0  0
   26.1684  -33.0727  -15.2684 O   0  0  0  0  0  0  0  0  0  0  0  0
   27.1086  -32.2932  -15.9235 C   0  0  0  0  0  0  0  0  0  0  0  0
   28.2450  -31.8422  -15.3020 C   0  0  0  0  0  0  0  0  0  0  0  0
   29.1791  -31.0669  -15.9553 C   0  0  0  0  0  0  0  0  0  0  0  0
   28.9611  -30.7375  -17.2713 C   0  0  0  0  0  0  0  0  0  0  0  0
   29.9035  -29.9269  -18.0178 C   0  0  0  0  0  0  0  0  0  0  0  0
   29.3548  -28.7010  -18.7033 C   0  0  2  0  0  0  0  0  0  0  0  0
   30.5760  -28.0333  -19.2297 N   0  0  0  0  0  0  0  0  0  0  0  0
   28.7272  -27.7355  -17.7960 C   0  0  0  0  0  0  0  0  0  0  0  0
   29.4427  -26.8639  -17.1949 O   0  0  0  0  0  0  0  0  0  0  0  0
   27.8164  -31.1892  -17.9044 C   0  0  0  0  0  0  0  0  0  0  0  0
   26.8752  -31.9684  -17.2518 C   0  0  0  0  0  0  0  0  0  0  0  0
   27.3308  -27.6946  -17.5317 N   0  0  0  0  0  0  0  0  0  0  0  0
   26.7124  -26.6583  -16.7534 C   0  0  1  0  0  0  0  0  0  0  0  0
   27.1378  -25.3361  -17.4184 C   0  0  0  0  0  0  0  0  0  0  0  0
   26.5131  -24.1868  -16.7444 C   0  0  0  0  0  0  0  0  0  0  0  0
   25.6764  -24.1495  -15.6509 C   0  0  0  0  0  0  0  0  0  0  0  0
   25.3578  -22.8480  -15.3980 N   0  0  0  0  0  0  0  0  0  0  0  0
   25.9805  -22.0976  -16.3106 C   0  0  0  0  0  0  0  0  0  0  0  0
   26.6825  -22.9037  -17.1297 N   0  0  0  0  0  0  0  0  0  0  0  0
   25.2485  -26.7310  -16.6544 C   0  0  0  0  0  0  0  0  0  0  0  0
   24.5450  -25.8453  -15.8088 O   0  0  0  0  0  0  0  0  0  0  0  0
   24.5050  -27.5356  -17.2696 O   0  0  0  0  0  0  0  0  0  0  0  0
  2  1  1  6
  3  2  1  0
  4  2  1  0
  5  4  1  0
  5  6  1  1
  7  5  1  0
  7  8  2  0
  9 10  1  0
 10 20  2  0
 10 11  1  0
 11 12  2  0
 12 13  1  0
 13 14  1  0
 15 14  1  1
 15 16  1  0
 16  7  1  0
 17 21  1  0
 17 15  1  0
 18 17  2  0
 19 13  2  0
 20 19  1  0
 22 21  1  0
 22 29  1  0
 22 23  1  6
 24 23  1  0
 24 25  2  0
 26 25  1  0
 27 26  1  0
 28 27  2  0
 28 24  1  0
 29 31  2  0
 29 30  1  0
M  END
$$$$
