LYH.pdb
     RDKit          3D

 31 32  0  0  1  0  0  0  0  0999 V2000
   24.0240  -32.4036   -7.2367 C   0  0  0  0  0  0  0  0  0  0  0  0
   25.2051  -32.7512   -8.1009 C   0  0  1  0  0  0  0  0  0  0  0  0
   26.0813  -31.5261   -8.2305 C   0  0  0  0  0  0  0  0  0  0  0  0
   25.9446  -33.9625   -7.6332 C   0  0  0  0  0  0  0  0  0  0  0  0
   27.1174  -34.3134   -8.5226 C   0  0  2  0  0  0  0  0  0  0  0  0
   26.6620  -34.5888   -9.8535 N   0  0  0  0  0  0  0  0  0  0  0  0
   27.8534  -35.4564   -7.9215 C   0  0  0  0  0  0  0  0  0  0  0  0
   27.9534  -36.5686   -8.5027 O   0  0  0  0  0  0  0  0  0  0  0  0
   34.1026  -32.0711   -6.6430 O   0  0  0  0  0  0  0  0  0  0  0  0
   33.2308  -33.1469   -6.7007 C   0  0  0  0  0  0  0  0  0  0  0  0
   33.3638  -34.2400   -5.8831 C   0  0  0  0  0  0  0  0  0  0  0  0
   32.4957  -35.3092   -5.9419 C   0  0  0  0  0  0  0  0  0  0  0  0
   31.4653  -35.2750   -6.8502 C   0  0  0  0  0  0  0  0  0  0  0  0
   30.5158  -36.3650   -6.9633 C   0  0  0  0  0  0  0  0  0  0  0  0
   29.3186  -36.3238   -6.0474 C   0  0  2  0  0  0  0  0  0  0  0  0
   28.4527  -35.2861   -6.6698 N   0  0  0  0  0  0  0  0  0  0  0  0
   29.6136  -35.8435   -4.6940 C   0  0  0  0  0  0  0  0  0  0  0  0
   29.6353  -34.5891   -4.4510 O   0  0  0  0  0  0  0  0  0  0  0  0
   31.3254  -34.1751   -7.6783 C   0  0  0  0  0  0  0  0  0  0  0  0
   32.1954  -33.0986   -7.6226 C   0  0  0  0  0  0  0  0  0  0  0  0
   29.8816  -36.7028   -3.5936 N   0  0  0  0  0  0  0  0  0  0  0  0
   30.0947  -36.2198   -2.2582 C   0  0  1  0  0  0  0  0  0  0  0  0
   31.1303  -35.0879   -2.3913 C   0  0  0  0  0  0  0  0  0  0  0  0
   32.5000  -35.6226   -2.3346 C   0  0  0  0  0  0  0  0  0  0  0  0
   32.9396  -36.9268   -2.2802 C   0  0  0  0  0  0  0  0  0  0  0  0
   34.3026  -36.9195   -2.2409 N   0  0  0  0  0  0  0  0  0  0  0  0
   34.6982  -35.6442   -2.2702 C   0  0  0  0  0  0  0  0  0  0  0  0
   33.6098  -34.8532   -2.3270 N   0  0  0  0  0  0  0  0  0  0  0  0
   28.8952  -35.7339   -1.5632 C   0  0  0  0  0  0  0  0  0  0  0  0
   28.9915  -35.2034   -0.2580 O   0  0  0  0  0  0  0  0  0  0  0  0
   27.7248  -35.7347   -2.0203 O   0  0  0  0  0  0  0  0  0  0  0  0
  2  1  1  1
  3  2  1  0
  4  2  1  0
  5  4  1  0
  5  6  1  6
  7  5  1  0
  7  8  2  0
  9 10  1  0
 10 20  2  0
 10 11  1  0
 11 12  2  0
 12 13  1  0
 13 14  1  0
 15 14  1  6
 15 16  1  0
 16  7  1  0
 17 21  1  0
 17 15  1  0
 18 17  2  0
 19 13  2  0
 20 19  1  0
 22 21  1  0
 22 29  1  0
 22 23  1  6
 24 23  1  0
 24 25  2  0
 26 25  1  0
 27 26  1  0
 28 27  2  0
 28 24  1  0
 29 31  2  0
 29 30  1  0
M  END
$$$$
