LYH.pdb
     RDKit          3D

 31 32  0  0  1  0  0  0  0  0999 V2000
   29.2837  -19.8394   -5.6372 C   0  0  0  0  0  0  0  0  0  0  0  0
   28.1639  -20.5493   -6.3476 C   0  0  1  0  0  0  0  0  0  0  0  0
   27.1660  -21.0237   -5.3157 C   0  0  0  0  0  0  0  0  0  0  0  0
   27.5470  -19.7372   -7.4397 C   0  0  0  0  0  0  0  0  0  0  0  0
   26.5914  -20.5376   -8.2976 C   0  0  2  0  0  0  0  0  0  0  0  0
   27.2533  -21.6939   -8.8261 N   0  0  0  0  0  0  0  0  0  0  0  0
   26.0436  -19.6555   -9.3611 C   0  0  0  0  0  0  0  0  0  0  0  0
   26.0061  -18.4031   -9.2389 O   0  0  0  0  0  0  0  0  0  0  0  0
   28.4707  -17.5403  -17.2250 O   0  0  0  0  0  0  0  0  0  0  0  0
   28.1352  -18.0604  -15.9850 C   0  0  0  0  0  0  0  0  0  0  0  0
   28.3624  -19.3727  -15.6571 C   0  0  0  0  0  0  0  0  0  0  0  0
   28.0280  -19.8882  -14.4231 C   0  0  0  0  0  0  0  0  0  0  0  0
   27.4488  -19.0576  -13.4944 C   0  0  0  0  0  0  0  0  0  0  0  0
   27.0741  -19.5346  -12.1774 C   0  0  0  0  0  0  0  0  0  0  0  0
   25.6017  -19.5521  -11.8522 C   0  0  2  0  0  0  0  0  0  0  0  0
   25.5553  -20.2400  -10.5336 N   0  0  0  0  0  0  0  0  0  0  0  0
   24.7950  -20.3707  -12.7623 C   0  0  0  0  0  0  0  0  0  0  0  0
   25.0298  -21.6218  -12.8755 O   0  0  0  0  0  0  0  0  0  0  0  0
   27.2168  -17.7324  -13.8187 C   0  0  0  0  0  0  0  0  0  0  0  0
   27.5511  -17.2102  -15.0575 C   0  0  0  0  0  0  0  0  0  0  0  0
   23.7303  -19.8559  -13.5514 N   0  0  0  0  0  0  0  0  0  0  0  0
   22.8923  -20.6856  -14.3707 C   0  0  1  0  0  0  0  0  0  0  0  0
   21.4596  -20.1644  -14.1527 C   0  0  0  0  0  0  0  0  0  0  0  0
   20.8057  -20.8793  -13.0452 C   0  0  0  0  0  0  0  0  0  0  0  0
   21.2745  -21.9047  -12.2541 C   0  0  0  0  0  0  0  0  0  0  0  0
   20.3005  -22.2369  -11.3595 N   0  0  0  0  0  0  0  0  0  0  0  0
   19.2548  -21.4385  -11.5896 C   0  0  0  0  0  0  0  0  0  0  0  0
   19.5551  -20.6132  -12.6105 N   0  0  0  0  0  0  0  0  0  0  0  0
   23.2188  -20.6946  -15.8029 C   0  0  0  0  0  0  0  0  0  0  0  0
   24.2355  -19.8552  -16.3089 O   0  0  0  0  0  0  0  0  0  0  0  0
   22.6677  -21.4027  -16.6824 O   0  0  0  0  0  0  0  0  0  0  0  0
  2  1  1  1
  3  2  1  0
  4  2  1  0
  5  4  1  0
  5  6  1  6
  7  5  1  0
  7  8  2  0
  9 10  1  0
 10 20  2  0
 10 11  1  0
 11 12  2  0
 12 13  1  0
 13 14  1  0
 15 14  1  6
 15 16  1  0
 16  7  1  0
 17 21  1  0
 17 15  1  0
 18 17  2  0
 19 13  2  0
 20 19  1  0
 22 21  1  0
 22 29  1  0
 22 23  1  6
 24 23  1  0
 24 25  2  0
 26 25  1  0
 27 26  1  0
 28 27  2  0
 28 24  1  0
 29 31  2  0
 29 30  1  0
M  END
$$$$
