LYH.pdb
     RDKit          3D

 31 32  0  0  1  0  0  0  0  0999 V2000
   25.9845  -11.5062  -22.1395 C   0  0  0  0  0  0  0  0  0  0  0  0
   24.8098  -11.6464  -21.2104 C   0  0  1  0  0  0  0  0  0  0  0  0
   24.8058  -13.0509  -20.6513 C   0  0  0  0  0  0  0  0  0  0  0  0
   24.7593  -10.5883  -20.1565 C   0  0  0  0  0  0  0  0  0  0  0  0
   23.5710  -10.7379  -19.2318 C   0  0  2  0  0  0  0  0  0  0  0  0
   22.3621  -10.8412  -19.9950 N   0  0  0  0  0  0  0  0  0  0  0  0
   23.5523   -9.5948  -18.2818 C   0  0  0  0  0  0  0  0  0  0  0  0
   24.6010   -8.9828  -17.9498 O   0  0  0  0  0  0  0  0  0  0  0  0
   21.5961   -1.6701  -15.9017 O   0  0  0  0  0  0  0  0  0  0  0  0
   21.8094   -2.9501  -16.3882 C   0  0  0  0  0  0  0  0  0  0  0  0
   20.9875   -3.5221  -17.3253 C   0  0  0  0  0  0  0  0  0  0  0  0
   21.2012   -4.7956  -17.8082 C   0  0  0  0  0  0  0  0  0  0  0  0
   22.2733   -5.5115  -17.3328 C   0  0  0  0  0  0  0  0  0  0  0  0
   22.5566   -6.8549  -17.7992 C   0  0  0  0  0  0  0  0  0  0  0  0
   22.1921   -7.9886  -16.8741 C   0  0  2  0  0  0  0  0  0  0  0  0
   22.3278   -9.1897  -17.7419 N   0  0  0  0  0  0  0  0  0  0  0  0
   20.7969   -7.9722  -16.4242 C   0  0  0  0  0  0  0  0  0  0  0  0
   19.8543   -8.2066  -17.2546 O   0  0  0  0  0  0  0  0  0  0  0  0
   23.1067   -4.9403  -16.3872 C   0  0  0  0  0  0  0  0  0  0  0  0
   22.8956   -3.6611  -15.8993 C   0  0  0  0  0  0  0  0  0  0  0  0
   20.4041   -7.7102  -15.0832 N   0  0  0  0  0  0  0  0  0  0  0  0
   19.0416   -7.4664  -14.7010 C   0  0  1  0  0  0  0  0  0  0  0  0
   18.6234   -8.6920  -13.8675 C   0  0  0  0  0  0  0  0  0  0  0  0
   18.2176   -9.8047  -14.7406 C   0  0  0  0  0  0  0  0  0  0  0  0
   18.2336   -9.9032  -16.1144 C   0  0  0  0  0  0  0  0  0  0  0  0
   17.7601  -11.1337  -16.4625 N   0  0  0  0  0  0  0  0  0  0  0  0
   17.4582  -11.7815  -15.3342 C   0  0  0  0  0  0  0  0  0  0  0  0
   17.7334  -10.9809  -14.2869 N   0  0  0  0  0  0  0  0  0  0  0  0
   18.8100   -6.2306  -13.9413 C   0  0  0  0  0  0  0  0  0  0  0  0
   17.4955   -5.8198  -13.6291 O   0  0  0  0  0  0  0  0  0  0  0  0
   19.6959   -5.4501  -13.5114 O   0  0  0  0  0  0  0  0  0  0  0  0
  2  1  1  1
  3  2  1  0
  4  2  1  0
  5  4  1  0
  5  6  1  6
  7  5  1  0
  7  8  2  0
  9 10  1  0
 10 20  2  0
 10 11  1  0
 11 12  2  0
 12 13  1  0
 13 14  1  0
 15 14  1  6
 15 16  1  0
 16  7  1  0
 17 21  1  0
 17 15  1  0
 18 17  2  0
 19 13  2  0
 20 19  1  0
 22 21  1  0
 22 29  1  0
 22 23  1  1
 24 23  1  0
 24 25  2  0
 26 25  1  0
 27 26  1  0
 28 27  2  0
 28 24  1  0
 29 31  2  0
 29 30  1  0
M  END
$$$$
