LYH.pdb
     RDKit          3D

 31 32  0  0  1  0  0  0  0  0999 V2000
   17.9885  -14.1212  -18.5554 C   0  0  0  0  0  0  0  0  0  0  0  0
   19.3416  -13.5866  -18.1735 C   0  0  1  0  0  0  0  0  0  0  0  0
   20.0464  -13.1250  -19.4287 C   0  0  0  0  0  0  0  0  0  0  0  0
   19.2855  -12.5419  -17.1065 C   0  0  0  0  0  0  0  0  0  0  0  0
   20.6511  -12.0005  -16.7435 C   0  0  2  0  0  0  0  0  0  0  0  0
   21.4639  -13.0432  -16.1898 N   0  0  0  0  0  0  0  0  0  0  0  0
   20.4833  -10.8516  -15.8154 C   0  0  0  0  0  0  0  0  0  0  0  0
   20.0335  -10.9938  -14.6483 O   0  0  0  0  0  0  0  0  0  0  0  0
   22.7704   -2.4200  -14.1307 O   0  0  0  0  0  0  0  0  0  0  0  0
   22.6173   -3.7612  -14.4446 C   0  0  0  0  0  0  0  0  0  0  0  0
   22.8561   -4.2489  -15.7041 C   0  0  0  0  0  0  0  0  0  0  0  0
   22.7033   -5.5834  -16.0145 C   0  0  0  0  0  0  0  0  0  0  0  0
   22.2987   -6.4495  -15.0276 C   0  0  0  0  0  0  0  0  0  0  0  0
   22.1200   -7.8652  -15.2856 C   0  0  0  0  0  0  0  0  0  0  0  0
   20.7014   -8.3629  -15.4029 C   0  0  2  0  0  0  0  0  0  0  0  0
   20.8377   -9.5734  -16.2574 N   0  0  0  0  0  0  0  0  0  0  0  0
   19.8048   -7.4572  -16.1274 C   0  0  0  0  0  0  0  0  0  0  0  0
   19.9122   -7.3289  -17.3943 O   0  0  0  0  0  0  0  0  0  0  0  0
   22.0560   -5.9641  -13.7546 C   0  0  0  0  0  0  0  0  0  0  0  0
   22.2083   -4.6240  -13.4384 C   0  0  0  0  0  0  0  0  0  0  0  0
   18.7859   -6.6887  -15.5009 N   0  0  0  0  0  0  0  0  0  0  0  0
   18.0075   -5.7047  -16.1994 C   0  0  1  0  0  0  0  0  0  0  0  0
   16.5510   -5.9467  -15.7614 C   0  0  0  0  0  0  0  0  0  0  0  0
   15.9930   -7.1316  -16.4321 C   0  0  0  0  0  0  0  0  0  0  0  0
   16.5640   -7.9748  -17.3596 C   0  0  0  0  0  0  0  0  0  0  0  0
   15.6514   -8.9334  -17.6879 N   0  0  0  0  0  0  0  0  0  0  0  0
   14.5435   -8.6912  -16.9825 C   0  0  0  0  0  0  0  0  0  0  0  0
   14.7445   -7.6001  -16.2193 N   0  0  0  0  0  0  0  0  0  0  0  0
   18.3880   -4.3073  -15.9536 C   0  0  0  0  0  0  0  0  0  0  0  0
   17.9704   -3.2874  -16.8367 O   0  0  0  0  0  0  0  0  0  0  0  0
   19.0820   -3.8880  -14.9939 O   0  0  0  0  0  0  0  0  0  0  0  0
  2  1  1  6
  3  2  1  0
  4  2  1  0
  5  4  1  0
  5  6  1  1
  7  5  1  0
  7  8  2  0
  9 10  1  0
 10 20  2  0
 10 11  1  0
 11 12  2  0
 12 13  1  0
 13 14  1  0
 15 14  1  6
 15 16  1  0
 16  7  1  0
 17 21  1  0
 17 15  1  0
 18 17  2  0
 19 13  2  0
 20 19  1  0
 22 21  1  0
 22 29  1  0
 22 23  1  1
 24 23  1  0
 24 25  2  0
 26 25  1  0
 27 26  1  0
 28 27  2  0
 28 24  1  0
 29 31  2  0
 29 30  1  0
M  END
$$$$
