LYH.pdb
     RDKit          3D

 31 32  0  0  1  0  0  0  0  0999 V2000
   32.8933  -22.9296  -10.5128 C   0  0  0  0  0  0  0  0  0  0  0  0
   32.1162  -22.5725  -11.7503 C   0  0  1  0  0  0  0  0  0  0  0  0
   31.8181  -21.0908  -11.7183 C   0  0  0  0  0  0  0  0  0  0  0  0
   32.7785  -23.0172  -13.0138 C   0  0  0  0  0  0  0  0  0  0  0  0
   31.9617  -22.6993  -14.2473 C   0  0  2  0  0  0  0  0  0  0  0  0
   30.6113  -23.1475  -14.0738 N   0  0  0  0  0  0  0  0  0  0  0  0
   32.6198  -23.3100  -15.4320 C   0  0  0  0  0  0  0  0  0  0  0  0
   33.8444  -23.1488  -15.6750 O   0  0  0  0  0  0  0  0  0  0  0  0
   35.0914  -30.7336  -18.7365 O   0  0  0  0  0  0  0  0  0  0  0  0
   34.6243  -29.5675  -18.1509 C   0  0  0  0  0  0  0  0  0  0  0  0
   35.3776  -28.4225  -18.1006 C   0  0  0  0  0  0  0  0  0  0  0  0
   34.9113  -27.2635  -17.5177 C   0  0  0  0  0  0  0  0  0  0  0  0
   33.6509  -27.2593  -16.9707 C   0  0  0  0  0  0  0  0  0  0  0  0
   33.0986  -26.0741  -16.3439 C   0  0  0  0  0  0  0  0  0  0  0  0
   32.4515  -25.0606  -17.2537 C   0  0  2  0  0  0  0  0  0  0  0  0
   31.8497  -24.0879  -16.3019 N   0  0  0  0  0  0  0  0  0  0  0  0
   31.3378  -25.5896  -18.0469 C   0  0  0  0  0  0  0  0  0  0  0  0
   30.2761  -25.9989  -17.4654 O   0  0  0  0  0  0  0  0  0  0  0  0
   32.8855  -28.4113  -17.0181 C   0  0  0  0  0  0  0  0  0  0  0  0
   33.3501  -29.5780  -17.6027 C   0  0  0  0  0  0  0  0  0  0  0  0
   31.3528  -25.6783  -19.4658 N   0  0  0  0  0  0  0  0  0  0  0  0
   30.2921  -26.2814  -20.2227 C   0  0  1  0  0  0  0  0  0  0  0  0
   30.3588  -25.6281  -21.6157 C   0  0  0  0  0  0  0  0  0  0  0  0
   29.2129  -26.0396  -22.4420 C   0  0  0  0  0  0  0  0  0  0  0  0
   28.1516  -26.8628  -22.1366 C   0  0  0  0  0  0  0  0  0  0  0  0
   27.3416  -26.9432  -23.2306 N   0  0  0  0  0  0  0  0  0  0  0  0
   27.8861  -26.1896  -24.1895 C   0  0  0  0  0  0  0  0  0  0  0  0
   29.0209  -25.6392  -23.7173 N   0  0  0  0  0  0  0  0  0  0  0  0
   30.3541  -27.7443  -20.3425 C   0  0  0  0  0  0  0  0  0  0  0  0
   29.1709  -28.5145  -20.3091 O   0  0  0  0  0  0  0  0  0  0  0  0
   31.3972  -28.4312  -20.4792 O   0  0  0  0  0  0  0  0  0  0  0  0
  2  1  1  1
  3  2  1  0
  4  2  1  0
  5  4  1  0
  5  6  1  1
  7  5  1  0
  7  8  2  0
  9 10  1  0
 10 20  2  0
 10 11  1  0
 11 12  2  0
 12 13  1  0
 13 14  1  0
 15 14  1  1
 15 16  1  0
 16  7  1  0
 17 21  1  0
 17 15  1  0
 18 17  2  0
 19 13  2  0
 20 19  1  0
 22 21  1  0
 22 29  1  0
 22 23  1  6
 24 23  1  0
 24 25  2  0
 26 25  1  0
 27 26  1  0
 28 27  2  0
 28 24  1  0
 29 31  2  0
 29 30  1  0
M  END
$$$$
