LYH.pdb
     RDKit          3D

 31 32  0  0  1  0  0  0  0  0999 V2000
   29.7385  -20.0052   -4.8713 C   0  0  0  0  0  0  0  0  0  0  0  0
   28.3358  -20.2760   -5.3421 C   0  0  1  0  0  0  0  0  0  0  0  0
   27.3807  -19.9463   -4.2177 C   0  0  0  0  0  0  0  0  0  0  0  0
   27.9998  -19.5896   -6.6262 C   0  0  0  0  0  0  0  0  0  0  0  0
   26.6203  -19.9441   -7.1372 C   0  0  2  0  0  0  0  0  0  0  0  0
   26.3285  -21.3190   -6.8559 N   0  0  0  0  0  0  0  0  0  0  0  0
   26.5476  -19.6287   -8.5880 C   0  0  0  0  0  0  0  0  0  0  0  0
   26.9989  -18.5538   -9.0629 O   0  0  0  0  0  0  0  0  0  0  0  0
   27.3905  -21.8589  -17.0019 O   0  0  0  0  0  0  0  0  0  0  0  0
   27.2701  -21.7358  -15.6267 C   0  0  0  0  0  0  0  0  0  0  0  0
   27.9960  -20.8201  -14.9086 C   0  0  0  0  0  0  0  0  0  0  0  0
   27.8749  -20.6992  -13.5407 C   0  0  0  0  0  0  0  0  0  0  0  0
   26.9977  -21.5243  -12.8791 C   0  0  0  0  0  0  0  0  0  0  0  0
   26.8206  -21.4487  -11.4420 C   0  0  0  0  0  0  0  0  0  0  0  0
   25.9069  -20.3667  -10.9238 C   0  0  2  0  0  0  0  0  0  0  0  0
   25.9581  -20.5590   -9.4492 N   0  0  0  0  0  0  0  0  0  0  0  0
   24.5009  -20.5346  -11.3035 C   0  0  0  0  0  0  0  0  0  0  0  0
   23.7951  -21.4480  -10.7553 O   0  0  0  0  0  0  0  0  0  0  0  0
   26.2622  -22.4505  -13.5976 C   0  0  0  0  0  0  0  0  0  0  0  0
   26.3808  -22.5754  -14.9722 C   0  0  0  0  0  0  0  0  0  0  0  0
   23.8423  -19.7231  -12.2672 N   0  0  0  0  0  0  0  0  0  0  0  0
   22.4817  -19.9388  -12.6725 C   0  0  1  0  0  0  0  0  0  0  0  0
   21.9821  -18.5724  -13.1774 C   0  0  0  0  0  0  0  0  0  0  0  0
   20.6058  -18.6746  -13.6878 C   0  0  0  0  0  0  0  0  0  0  0  0
   20.0424  -19.6033  -14.5348 C   0  0  0  0  0  0  0  0  0  0  0  0
   18.7307  -19.2783  -14.7173 N   0  0  0  0  0  0  0  0  0  0  0  0
   18.4868  -18.1769  -14.0024 C   0  0  0  0  0  0  0  0  0  0  0  0
   19.6198  -17.8061  -13.3760 N   0  0  0  0  0  0  0  0  0  0  0  0
   22.2851  -20.9661  -13.7039 C   0  0  0  0  0  0  0  0  0  0  0  0
   23.2223  -21.1171  -14.7495 O   0  0  0  0  0  0  0  0  0  0  0  0
   21.3247  -21.7737  -13.7693 O   0  0  0  0  0  0  0  0  0  0  0  0
  2  1  1  1
  3  2  1  0
  4  2  1  0
  5  4  1  0
  5  6  1  6
  7  5  1  0
  7  8  2  0
  9 10  1  0
 10 20  2  0
 10 11  1  0
 11 12  2  0
 12 13  1  0
 13 14  1  0
 15 14  1  6
 15 16  1  0
 16  7  1  0
 17 21  1  0
 17 15  1  0
 18 17  2  0
 19 13  2  0
 20 19  1  0
 22 21  1  0
 22 29  1  0
 22 23  1  6
 24 23  1  0
 24 25  2  0
 26 25  1  0
 27 26  1  0
 28 27  2  0
 28 24  1  0
 29 31  2  0
 29 30  1  0
M  END
$$$$
