LYH.pdb
     RDKit          3D

 31 32  0  0  1  0  0  0  0  0999 V2000
   27.7526  -11.4434  -16.4167 C   0  0  0  0  0  0  0  0  0  0  0  0
   27.6128  -12.8874  -16.8140 C   0  0  1  0  0  0  0  0  0  0  0  0
   28.9957  -13.4703  -16.9968 C   0  0  0  0  0  0  0  0  0  0  0  0
   26.7547  -13.6777  -15.8802 C   0  0  0  0  0  0  0  0  0  0  0  0
   26.6668  -15.1398  -16.2600 C   0  0  2  0  0  0  0  0  0  0  0  0
   26.7181  -15.2831  -17.6853 N   0  0  0  0  0  0  0  0  0  0  0  0
   25.4306  -15.7176  -15.6706 C   0  0  0  0  0  0  0  0  0  0  0  0
   25.1701  -15.6299  -14.4422 O   0  0  0  0  0  0  0  0  0  0  0  0
   20.6008  -10.9648  -15.7364 O   0  0  0  0  0  0  0  0  0  0  0  0
   21.0258  -12.2386  -16.0795 C   0  0  0  0  0  0  0  0  0  0  0  0
   21.8921  -12.4649  -17.1184 C   0  0  0  0  0  0  0  0  0  0  0  0
   22.3137  -13.7326  -17.4582 C   0  0  0  0  0  0  0  0  0  0  0  0
   21.8489  -14.8013  -16.7303 C   0  0  0  0  0  0  0  0  0  0  0  0
   22.2534  -16.1604  -17.0332 C   0  0  0  0  0  0  0  0  0  0  0  0
   23.1874  -16.8275  -16.0552 C   0  0  2  0  0  0  0  0  0  0  0  0
   24.5309  -16.3792  -16.5118 N   0  0  0  0  0  0  0  0  0  0  0  0
   23.2008  -18.2910  -16.1398 C   0  0  0  0  0  0  0  0  0  0  0  0
   23.7045  -18.8680  -17.1628 O   0  0  0  0  0  0  0  0  0  0  0  0
   20.9745  -14.5800  -15.6807 C   0  0  0  0  0  0  0  0  0  0  0  0
   20.5482  -13.3078  -15.3358 C   0  0  0  0  0  0  0  0  0  0  0  0
   22.6803  -19.1439  -15.1284 N   0  0  0  0  0  0  0  0  0  0  0  0
   22.7757  -20.5754  -15.1874 C   0  0  1  0  0  0  0  0  0  0  0  0
   23.2978  -21.0095  -13.8052 C   0  0  0  0  0  0  0  0  0  0  0  0
   23.4749  -22.4691  -13.7476 C   0  0  0  0  0  0  0  0  0  0  0  0
   24.5917  -23.2358  -13.9973 C   0  0  0  0  0  0  0  0  0  0  0  0
   24.2632  -24.5463  -13.8123 N   0  0  0  0  0  0  0  0  0  0  0  0
   22.9765  -24.5913  -13.4571 C   0  0  0  0  0  0  0  0  0  0  0  0
   22.4931  -23.3351  -13.4162 N   0  0  0  0  0  0  0  0  0  0  0  0
   21.5257  -21.2793  -15.5040 C   0  0  0  0  0  0  0  0  0  0  0  0
   21.5576  -22.5492  -16.1210 O   0  0  0  0  0  0  0  0  0  0  0  0
   20.3632  -20.8598  -15.2772 O   0  0  0  0  0  0  0  0  0  0  0  0
  2  1  1  1
  3  2  1  0
  4  2  1  0
  5  4  1  0
  5  6  1  6
  7  5  1  0
  7  8  2  0
  9 10  1  0
 10 20  2  0
 10 11  1  0
 11 12  2  0
 12 13  1  0
 13 14  1  0
 15 14  1  6
 15 16  1  0
 16  7  1  0
 17 21  1  0
 17 15  1  0
 18 17  2  0
 19 13  2  0
 20 19  1  0
 22 21  1  0
 22 29  1  0
 22 23  1  1
 24 23  1  0
 24 25  2  0
 26 25  1  0
 27 26  1  0
 28 27  2  0
 28 24  1  0
 29 31  2  0
 29 30  1  0
M  END
$$$$
