LYH.pdb
     RDKit          3D

 31 32  0  0  1  0  0  0  0  0999 V2000
   24.8615  -19.1835  -23.1315 C   0  0  0  0  0  0  0  0  0  0  0  0
   25.0462  -18.5852  -21.7638 C   0  0  1  0  0  0  0  0  0  0  0  0
   25.5649  -17.1743  -21.9238 C   0  0  0  0  0  0  0  0  0  0  0  0
   23.8239  -18.6744  -20.9089 C   0  0  0  0  0  0  0  0  0  0  0  0
   24.0191  -18.0587  -19.5405 C   0  0  2  0  0  0  0  0  0  0  0  0
   25.2259  -18.5523  -18.9452 N   0  0  0  0  0  0  0  0  0  0  0  0
   22.8169  -18.3353  -18.7113 C   0  0  0  0  0  0  0  0  0  0  0  0
   21.7031  -18.6240  -19.2220 O   0  0  0  0  0  0  0  0  0  0  0  0
   19.1224  -19.1078  -10.5952 O   0  0  0  0  0  0  0  0  0  0  0  0
   19.9255  -19.1026  -11.7247 C   0  0  0  0  0  0  0  0  0  0  0  0
   20.1198  -20.2251  -12.4884 C   0  0  0  0  0  0  0  0  0  0  0  0
   20.9191  -20.2181  -13.6116 C   0  0  0  0  0  0  0  0  0  0  0  0
   21.5392  -19.0469  -13.9744 C   0  0  0  0  0  0  0  0  0  0  0  0
   22.3916  -18.9695  -15.1449 C   0  0  0  0  0  0  0  0  0  0  0  0
   21.7656  -18.4391  -16.4101 C   0  0  2  0  0  0  0  0  0  0  0  0
   22.9316  -18.2717  -17.3193 N   0  0  0  0  0  0  0  0  0  0  0  0
   21.1679  -17.1075  -16.2723 C   0  0  0  0  0  0  0  0  0  0  0  0
   21.8882  -16.0637  -16.4288 O   0  0  0  0  0  0  0  0  0  0  0  0
   21.3474  -17.9105  -13.2082 C   0  0  0  0  0  0  0  0  0  0  0  0
   20.5452  -17.9131  -12.0789 C   0  0  0  0  0  0  0  0  0  0  0  0
   19.7960  -16.8866  -15.9718 N   0  0  0  0  0  0  0  0  0  0  0  0
   19.2056  -15.5783  -15.9295 C   0  0  1  0  0  0  0  0  0  0  0  0
   19.3880  -14.9996  -17.3449 C   0  0  0  0  0  0  0  0  0  0  0  0
   18.8104  -13.6494  -17.4366 C   0  0  0  0  0  0  0  0  0  0  0  0
   18.1685  -12.8944  -16.4799 C   0  0  0  0  0  0  0  0  0  0  0  0
   17.8111  -11.7039  -17.0407 N   0  0  0  0  0  0  0  0  0  0  0  0
   18.2206  -11.7200  -18.3119 C   0  0  0  0  0  0  0  0  0  0  0  0
   18.8272  -12.8969  -18.5578 N   0  0  0  0  0  0  0  0  0  0  0  0
   17.7896  -15.5364  -15.5405 C   0  0  0  0  0  0  0  0  0  0  0  0
   17.2582  -14.3953  -14.9004 O   0  0  0  0  0  0  0  0  0  0  0  0
   16.9462  -16.4501  -15.7209 O   0  0  0  0  0  0  0  0  0  0  0  0
  2  1  1  6
  3  2  1  0
  4  2  1  0
  5  4  1  0
  5  6  1  1
  7  5  1  0
  7  8  2  0
  9 10  1  0
 10 20  2  0
 10 11  1  0
 11 12  2  0
 12 13  1  0
 13 14  1  0
 15 14  1  1
 15 16  1  0
 16  7  1  0
 17 21  1  0
 17 15  1  0
 18 17  2  0
 19 13  2  0
 20 19  1  0
 22 21  1  0
 22 29  1  0
 22 23  1  6
 24 23  1  0
 24 25  2  0
 26 25  1  0
 27 26  1  0
 28 27  2  0
 28 24  1  0
 29 31  2  0
 29 30  1  0
M  END
$$$$
