FEQ.pdb
     RDKit          3D

 30 30  0  0  1  0  0  0  0  0999 V2000
    5.8461  -17.0278   24.5900 N   0  0  0  0  0  0  0  0  0  0  0  0
    7.0695  -16.3087   24.8280 C   0  0  1  0  0  0  0  0  0  0  0  0
    7.0399  -15.7901   26.2431 C   0  0  0  0  0  0  0  0  0  0  0  0
    6.8625  -14.3262   26.1642 C   0  0  0  0  0  0  0  0  0  0  0  0
    5.8282  -13.6815   26.7968 C   0  0  0  0  0  0  0  0  0  0  0  0
    5.6800  -12.2929   26.7061 C   0  0  0  0  0  0  0  0  0  0  0  0
    6.5843  -11.5394   25.9688 C   0  0  0  0  0  0  0  0  0  0  0  0
    7.6189  -12.1890   25.3368 C   0  0  0  0  0  0  0  0  0  0  0  0
    7.7439  -13.5627   25.4415 C   0  0  0  0  0  0  0  0  0  0  0  0
    8.2695  -17.1094   24.5181 C   0  0  0  0  0  0  0  0  0  0  0  0
    8.3984  -18.2640   25.0225 O   0  0  0  0  0  0  0  0  0  0  0  0
    9.3162  -16.6624   23.6714 N   0  0  0  0  0  0  0  0  0  0  0  0
   10.5876  -17.3572   23.5135 C   0  0  1  0  0  0  0  0  0  0  0  0
   11.3335  -16.8706   22.3253 C   0  0  0  0  0  0  0  0  0  0  0  0
   12.6129  -17.5399   21.9982 C   0  0  0  0  0  0  0  0  0  0  0  0
   13.3071  -17.1023   20.7965 C   0  0  0  0  0  0  0  0  0  0  0  0
   14.4258  -16.5372   20.8475 O   0  0  0  0  0  0  0  0  0  0  0  0
   11.3455  -17.4726   24.7588 C   0  0  0  0  0  0  0  0  0  0  0  0
   11.8917  -16.4668   25.2631 O   0  0  0  0  0  0  0  0  0  0  0  0
   12.7529  -17.2956   19.5401 O   0  0  0  0  0  0  0  0  0  0  0  0
   10.3047  -21.3176   29.4578 N   0  0  0  0  0  0  0  0  0  0  0  0
    9.7604  -20.0327   29.1218 C   0  0  0  0  0  0  0  0  0  0  0  0
    8.7135  -19.7161   29.7319 O   0  0  0  0  0  0  0  0  0  0  0  0
   10.4355  -19.1880   28.1158 C   0  0  0  0  0  0  0  0  0  0  0  0
   11.6953  -19.7489   27.5607 C   0  0  0  0  0  0  0  0  0  0  0  0
   12.3480  -18.8994   26.5225 C   0  0  2  0  0  0  0  0  0  0  0  0
   11.4574  -18.7346   25.3920 N   0  0  0  0  0  0  0  0  0  0  0  0
   13.6950  -19.3390   26.1086 C   0  0  0  0  0  0  0  0  0  0  0  0
   14.6131  -19.3770   26.9936 O   0  0  0  0  0  0  0  0  0  0  0  0
   14.0386  -19.7155   24.8277 O   0  0  0  0  0  0  0  0  0  0  0  0
  2  3  1  0
  2  1  1  1
  4  3  1  0
  4  9  2  0
  5  4  1  0
  6  5  2  0
  6  7  1  0
  7  8  2  0
  8  9  1  0
 10  2  1  0
 11 10  2  0
 12 10  1  0
 13 12  1  0
 14 15  1  0
 13 14  1  6
 15 16  1  0
 16 17  2  0
 18 27  1  0
 18 13  1  0
 19 18  2  0
 20 16  1  0
 22 24  1  0
 22 21  1  0
 23 22  2  0
 26 25  1  1
 25 24  1  0
 26 27  1  0
 28 26  1  0
 29 28  2  0
 30 28  1  0
M  END
$$$$
