FEQ.pdb
     RDKit          3D

 30 30  0  0  1  0  0  0  0  0999 V2000
    5.9475  -16.8541   25.3456 N   0  0  0  0  0  0  0  0  0  0  0  0
    7.1487  -16.1225   25.0417 C   0  0  1  0  0  0  0  0  0  0  0  0
    7.6805  -15.5414   26.3269 C   0  0  0  0  0  0  0  0  0  0  0  0
    7.3088  -14.1123   26.3424 C   0  0  0  0  0  0  0  0  0  0  0  0
    6.0552  -13.6806   25.9851 C   0  0  0  0  0  0  0  0  0  0  0  0
    5.7269  -12.3204   26.0063 C   0  0  0  0  0  0  0  0  0  0  0  0
    6.6719  -11.3785   26.3925 C   0  0  0  0  0  0  0  0  0  0  0  0
    7.9264  -11.8152   26.7498 C   0  0  0  0  0  0  0  0  0  0  0  0
    8.2265  -13.1652   26.7205 C   0  0  0  0  0  0  0  0  0  0  0  0
    8.1383  -16.9338   24.3070 C   0  0  0  0  0  0  0  0  0  0  0  0
    8.3167  -18.1455   24.6292 O   0  0  0  0  0  0  0  0  0  0  0  0
    8.9242  -16.4358   23.2362 N   0  0  0  0  0  0  0  0  0  0  0  0
   10.0604  -17.1457   22.6623 C   0  0  1  0  0  0  0  0  0  0  0  0
   10.2928  -16.7549   21.2487 C   0  0  0  0  0  0  0  0  0  0  0  0
   11.3900  -17.4329   20.5221 C   0  0  0  0  0  0  0  0  0  0  0  0
   11.6314  -17.0254   19.1461 C   0  0  0  0  0  0  0  0  0  0  0  0
   12.7486  -16.5969   18.7694 O   0  0  0  0  0  0  0  0  0  0  0  0
   11.2332  -17.1679   23.5355 C   0  0  0  0  0  0  0  0  0  0  0  0
   11.8064  -16.1026   23.8532 O   0  0  0  0  0  0  0  0  0  0  0  0
   10.6269  -17.0964   18.1927 O   0  0  0  0  0  0  0  0  0  0  0  0
   11.8843  -20.7972   28.3760 N   0  0  0  0  0  0  0  0  0  0  0  0
   11.3501  -19.4697   28.2652 C   0  0  0  0  0  0  0  0  0  0  0  0
   10.6490  -19.0900   29.2310 O   0  0  0  0  0  0  0  0  0  0  0  0
   11.6430  -18.6563   27.0677 C   0  0  0  0  0  0  0  0  0  0  0  0
   12.5762  -19.2789   26.0923 C   0  0  0  0  0  0  0  0  0  0  0  0
   12.8721  -18.4400   24.8946 C   0  0  2  0  0  0  0  0  0  0  0  0
   11.7173  -18.4074   24.0207 N   0  0  0  0  0  0  0  0  0  0  0  0
   14.1074  -18.7961   24.1693 C   0  0  0  0  0  0  0  0  0  0  0  0
   14.2155  -19.9826   23.7129 O   0  0  0  0  0  0  0  0  0  0  0  0
   15.1615  -17.9364   23.9452 O   0  0  0  0  0  0  0  0  0  0  0  0
  2  3  1  0
  2  1  1  1
  4  3  1  0
  4  9  2  0
  5  4  1  0
  6  5  2  0
  6  7  1  0
  7  8  2  0
  8  9  1  0
 10  2  1  0
 11 10  2  0
 12 10  1  0
 13 12  1  0
 14 15  1  0
 13 14  1  6
 15 16  1  0
 16 17  2  0
 18 27  1  0
 18 13  1  0
 19 18  2  0
 20 16  1  0
 22 24  1  0
 22 21  1  0
 23 22  2  0
 26 25  1  1
 25 24  1  0
 26 27  1  0
 28 26  1  0
 29 28  2  0
 30 28  1  0
M  END
$$$$
