FEQ.pdb
     RDKit          3D

 30 30  0  0  1  0  0  0  0  0999 V2000
    5.9624  -16.7637   25.6055 N   0  0  0  0  0  0  0  0  0  0  0  0
    6.5808  -16.7039   24.3076 C   0  0  1  0  0  0  0  0  0  0  0  0
    6.2857  -15.3518   23.7103 C   0  0  0  0  0  0  0  0  0  0  0  0
    6.8790  -14.3422   24.6100 C   0  0  0  0  0  0  0  0  0  0  0  0
    8.0849  -13.7433   24.3403 C   0  0  0  0  0  0  0  0  0  0  0  0
    8.6278  -12.7901   25.2091 C   0  0  0  0  0  0  0  0  0  0  0  0
    7.9495  -12.4320   26.3671 C   0  0  0  0  0  0  0  0  0  0  0  0
    6.7418  -13.0341   26.6335 C   0  0  0  0  0  0  0  0  0  0  0  0
    6.2261  -13.9737   25.7590 C   0  0  0  0  0  0  0  0  0  0  0  0
    8.0193  -17.0302   24.3473 C   0  0  0  0  0  0  0  0  0  0  0  0
    8.5229  -17.5097   25.4058 O   0  0  0  0  0  0  0  0  0  0  0  0
    8.8998  -16.8383   23.2518 N   0  0  0  0  0  0  0  0  0  0  0  0
   10.3115  -17.2001   23.2699 C   0  0  1  0  0  0  0  0  0  0  0  0
   10.9656  -16.9182   21.9669 C   0  0  0  0  0  0  0  0  0  0  0  0
   12.4109  -17.2155   21.8475 C   0  0  0  0  0  0  0  0  0  0  0  0
   13.0542  -16.9035   20.5800 C   0  0  0  0  0  0  0  0  0  0  0  0
   13.9064  -15.9888   20.4782 O   0  0  0  0  0  0  0  0  0  0  0  0
   11.0142  -16.7399   24.4670 C   0  0  0  0  0  0  0  0  0  0  0  0
   11.0516  -15.5223   24.7505 O   0  0  0  0  0  0  0  0  0  0  0  0
   12.7461  -17.6121   19.4283 O   0  0  0  0  0  0  0  0  0  0  0  0
   10.5778  -14.2007   27.9450 N   0  0  0  0  0  0  0  0  0  0  0  0
   10.6439  -15.1390   29.0290 C   0  0  0  0  0  0  0  0  0  0  0  0
   10.7219  -14.6347   30.1727 O   0  0  0  0  0  0  0  0  0  0  0  0
   10.6183  -16.5890   28.7495 C   0  0  0  0  0  0  0  0  0  0  0  0
   10.5422  -16.9552   27.3107 C   0  0  0  0  0  0  0  0  0  0  0  0
   11.8366  -17.3950   26.7133 C   0  0  2  0  0  0  0  0  0  0  0  0
   11.6542  -17.6848   25.3058 N   0  0  0  0  0  0  0  0  0  0  0  0
   12.5127  -18.4978   27.4242 C   0  0  0  0  0  0  0  0  0  0  0  0
   12.9186  -18.2857   28.6150 O   0  0  0  0  0  0  0  0  0  0  0  0
   12.7400  -19.7502   26.8947 O   0  0  0  0  0  0  0  0  0  0  0  0
  2  3  1  0
  2  1  1  1
  4  3  1  0
  4  9  2  0
  5  4  1  0
  6  5  2  0
  6  7  1  0
  7  8  2  0
  8  9  1  0
 10  2  1  0
 11 10  2  0
 12 10  1  0
 13 12  1  0
 14 15  1  0
 13 14  1  6
 15 16  1  0
 16 17  2  0
 18 27  1  0
 18 13  1  0
 19 18  2  0
 20 16  1  0
 22 24  1  0
 22 21  1  0
 23 22  2  0
 26 25  1  1
 25 24  1  0
 26 27  1  0
 28 26  1  0
 29 28  2  0
 30 28  1  0
M  END
$$$$
