FEQ.pdb
     RDKit          3D

 30 30  0  0  1  0  0  0  0  0999 V2000
    6.7628  -15.4870   25.0724 N   0  0  0  0  0  0  0  0  0  0  0  0
    7.6486  -15.2407   23.9655 C   0  0  1  0  0  0  0  0  0  0  0  0
    8.0961  -13.8030   24.0351 C   0  0  0  0  0  0  0  0  0  0  0  0
    7.3943  -13.1859   25.1785 C   0  0  0  0  0  0  0  0  0  0  0  0
    8.0628  -12.7521   26.2969 C   0  0  0  0  0  0  0  0  0  0  0  0
    7.3755  -12.1716   27.3688 C   0  0  0  0  0  0  0  0  0  0  0  0
    5.9953  -12.0240   27.3174 C   0  0  0  0  0  0  0  0  0  0  0  0
    5.3296  -12.4597   26.1952 C   0  0  0  0  0  0  0  0  0  0  0  0
    6.0316  -13.0303   25.1488 C   0  0  0  0  0  0  0  0  0  0  0  0
    8.7649  -16.2038   23.9051 C   0  0  0  0  0  0  0  0  0  0  0  0
    9.0886  -16.8520   24.9438 O   0  0  0  0  0  0  0  0  0  0  0  0
    9.5200  -16.4599   22.7319 N   0  0  0  0  0  0  0  0  0  0  0  0
   10.6869  -17.3322   22.6899 C   0  0  1  0  0  0  0  0  0  0  0  0
   11.0387  -17.7091   21.2973 C   0  0  0  0  0  0  0  0  0  0  0  0
   11.5031  -16.6331   20.3929 C   0  0  0  0  0  0  0  0  0  0  0  0
   11.8777  -17.0139   19.0393 C   0  0  0  0  0  0  0  0  0  0  0  0
   12.4917  -16.2291   18.2772 O   0  0  0  0  0  0  0  0  0  0  0  0
   11.7851  -16.8753   23.5405 C   0  0  0  0  0  0  0  0  0  0  0  0
   12.1596  -15.6824   23.5048 O   0  0  0  0  0  0  0  0  0  0  0  0
   11.5672  -18.2690   18.5378 O   0  0  0  0  0  0  0  0  0  0  0  0
   12.4969  -18.8155   29.2128 N   0  0  0  0  0  0  0  0  0  0  0  0
   11.8773  -17.6050   28.7536 C   0  0  0  0  0  0  0  0  0  0  0  0
   11.0634  -17.0824   29.5491 O   0  0  0  0  0  0  0  0  0  0  0  0
   12.2180  -17.0633   27.4225 C   0  0  0  0  0  0  0  0  0  0  0  0
   13.2433  -17.8324   26.6695 C   0  0  0  0  0  0  0  0  0  0  0  0
   13.4885  -17.3451   25.2809 C   0  0  2  0  0  0  0  0  0  0  0  0
   12.4239  -17.7951   24.4076 N   0  0  0  0  0  0  0  0  0  0  0  0
   14.8239  -17.6556   24.7340 C   0  0  0  0  0  0  0  0  0  0  0  0
   14.8959  -18.4529   23.7405 O   0  0  0  0  0  0  0  0  0  0  0  0
   16.0089  -17.1446   25.2189 O   0  0  0  0  0  0  0  0  0  0  0  0
  2  3  1  0
  2  1  1  1
  4  3  1  0
  4  9  2  0
  5  4  1  0
  6  5  2  0
  6  7  1  0
  7  8  2  0
  8  9  1  0
 10  2  1  0
 11 10  2  0
 12 10  1  0
 13 12  1  0
 14 15  1  0
 13 14  1  6
 15 16  1  0
 16 17  2  0
 18 27  1  0
 18 13  1  0
 19 18  2  0
 20 16  1  0
 22 24  1  0
 22 21  1  0
 23 22  2  0
 26 25  1  1
 25 24  1  0
 26 27  1  0
 28 26  1  0
 29 28  2  0
 30 28  1  0
M  END
$$$$
