FEQ.pdb
     RDKit          3D

 30 30  0  0  1  0  0  0  0  0999 V2000
    6.0128  -16.2826   24.9816 N   0  0  0  0  0  0  0  0  0  0  0  0
    6.8662  -16.2560   23.8233 C   0  0  1  0  0  0  0  0  0  0  0  0
    6.8888  -14.8459   23.2910 C   0  0  0  0  0  0  0  0  0  0  0  0
    7.0868  -13.9495   24.4477 C   0  0  0  0  0  0  0  0  0  0  0  0
    6.0590  -13.6118   25.2933 C   0  0  0  0  0  0  0  0  0  0  0  0
    6.2709  -12.7589   26.3823 C   0  0  0  0  0  0  0  0  0  0  0  0
    7.5346  -12.2367   26.6267 C   0  0  0  0  0  0  0  0  0  0  0  0
    8.5614  -12.5776   25.7772 C   0  0  0  0  0  0  0  0  0  0  0  0
    8.3266  -13.4225   24.7075 C   0  0  0  0  0  0  0  0  0  0  0  0
    8.2084  -16.8064   24.0930 C   0  0  0  0  0  0  0  0  0  0  0  0
    8.4334  -17.3968   25.1906 O   0  0  0  0  0  0  0  0  0  0  0  0
    9.2925  -16.7171   23.1825 N   0  0  0  0  0  0  0  0  0  0  0  0
   10.5761  -17.3792   23.3786 C   0  0  1  0  0  0  0  0  0  0  0  0
   11.4465  -17.2509   22.1824 C   0  0  0  0  0  0  0  0  0  0  0  0
   10.8907  -17.6859   20.8810 C   0  0  0  0  0  0  0  0  0  0  0  0
   11.7328  -17.5188   19.7060 C   0  0  0  0  0  0  0  0  0  0  0  0
   12.1110  -18.4975   19.0185 O   0  0  0  0  0  0  0  0  0  0  0  0
   11.1927  -17.0807   24.6705 C   0  0  0  0  0  0  0  0  0  0  0  0
   11.3056  -15.8976   25.0600 O   0  0  0  0  0  0  0  0  0  0  0  0
   12.1517  -16.2608   19.2997 O   0  0  0  0  0  0  0  0  0  0  0  0
   10.0675  -14.7464   28.7297 N   0  0  0  0  0  0  0  0  0  0  0  0
   10.7465  -15.6834   29.5788 C   0  0  0  0  0  0  0  0  0  0  0  0
   10.8722  -15.3325   30.7744 O   0  0  0  0  0  0  0  0  0  0  0  0
   11.2409  -16.9582   29.0202 C   0  0  0  0  0  0  0  0  0  0  0  0
   10.9924  -17.1514   27.5674 C   0  0  0  0  0  0  0  0  0  0  0  0
   12.0725  -17.8849   26.8455 C   0  0  2  0  0  0  0  0  0  0  0  0
   11.6626  -18.1434   25.4804 N   0  0  0  0  0  0  0  0  0  0  0  0
   12.5607  -19.1043   27.5190 C   0  0  0  0  0  0  0  0  0  0  0  0
   12.1948  -20.2348   27.0544 O   0  0  0  0  0  0  0  0  0  0  0  0
   13.3894  -19.1142   28.6206 O   0  0  0  0  0  0  0  0  0  0  0  0
  2  3  1  0
  2  1  1  1
  4  3  1  0
  4  9  2  0
  5  4  1  0
  6  5  2  0
  6  7  1  0
  7  8  2  0
  8  9  1  0
 10  2  1  0
 11 10  2  0
 12 10  1  0
 13 12  1  0
 14 15  1  0
 13 14  1  6
 15 16  1  0
 16 17  2  0
 18 27  1  0
 18 13  1  0
 19 18  2  0
 20 16  1  0
 22 24  1  0
 22 21  1  0
 23 22  2  0
 26 25  1  1
 25 24  1  0
 26 27  1  0
 28 26  1  0
 29 28  2  0
 30 28  1  0
M  END
$$$$
