FEQ.pdb
     RDKit          3D

 30 30  0  0  1  0  0  0  0  0999 V2000
    5.8675  -17.0516   25.3468 N   0  0  0  0  0  0  0  0  0  0  0  0
    6.8912  -16.1311   24.9278 C   0  0  1  0  0  0  0  0  0  0  0  0
    7.4469  -15.4581   26.1567 C   0  0  0  0  0  0  0  0  0  0  0  0
    6.9742  -14.0592   26.1355 C   0  0  0  0  0  0  0  0  0  0  0  0
    7.5490  -13.1070   25.3301 C   0  0  0  0  0  0  0  0  0  0  0  0
    7.0844  -11.7870   25.3285 C   0  0  0  0  0  0  0  0  0  0  0  0
    6.0260  -11.4167   26.1481 C   0  0  0  0  0  0  0  0  0  0  0  0
    5.4530  -12.3736   26.9532 C   0  0  0  0  0  0  0  0  0  0  0  0
    5.9303  -13.6718   26.9369 C   0  0  0  0  0  0  0  0  0  0  0  0
    7.9223  -16.7708   24.0881 C   0  0  0  0  0  0  0  0  0  0  0  0
    8.4623  -17.8495   24.4739 O   0  0  0  0  0  0  0  0  0  0  0  0
    8.3614  -16.2460   22.8456 N   0  0  0  0  0  0  0  0  0  0  0  0
    9.5740  -16.6790   22.1627 C   0  0  1  0  0  0  0  0  0  0  0  0
    9.6649  -16.1092   20.7945 C   0  0  0  0  0  0  0  0  0  0  0  0
   10.8487  -16.4669   19.9807 C   0  0  0  0  0  0  0  0  0  0  0  0
   10.6399  -17.3713   18.8599 C   0  0  0  0  0  0  0  0  0  0  0  0
   11.4271  -18.3174   18.6177 O   0  0  0  0  0  0  0  0  0  0  0  0
   10.7745  -16.5819   22.9921 C   0  0  0  0  0  0  0  0  0  0  0  0
   10.9055  -15.6440   23.8091 O   0  0  0  0  0  0  0  0  0  0  0  0
    9.5537  -17.2192   18.0112 O   0  0  0  0  0  0  0  0  0  0  0  0
   11.0141  -20.1272   27.1106 N   0  0  0  0  0  0  0  0  0  0  0  0
   11.3844  -18.7681   27.3859 C   0  0  0  0  0  0  0  0  0  0  0  0
   11.1497  -18.3724   28.5507 O   0  0  0  0  0  0  0  0  0  0  0  0
   11.9963  -17.9429   26.3247 C   0  0  0  0  0  0  0  0  0  0  0  0
   12.1296  -18.6090   25.0025 C   0  0  0  0  0  0  0  0  0  0  0  0
   12.7409  -17.7599   23.9390 C   0  0  2  0  0  0  0  0  0  0  0  0
   11.7909  -17.5599   22.8639 N   0  0  0  0  0  0  0  0  0  0  0  0
   14.0516  -18.2235   23.4427 C   0  0  0  0  0  0  0  0  0  0  0  0
   15.0901  -17.5653   23.7832 O   0  0  0  0  0  0  0  0  0  0  0  0
   14.2399  -19.3233   22.6331 O   0  0  0  0  0  0  0  0  0  0  0  0
  2  3  1  0
  2  1  1  1
  4  3  1  0
  4  9  2  0
  5  4  1  0
  6  5  2  0
  6  7  1  0
  7  8  2  0
  8  9  1  0
 10  2  1  0
 11 10  2  0
 12 10  1  0
 13 12  1  0
 14 15  1  0
 13 14  1  6
 15 16  1  0
 16 17  2  0
 18 27  1  0
 18 13  1  0
 19 18  2  0
 20 16  1  0
 22 24  1  0
 22 21  1  0
 23 22  2  0
 26 25  1  1
 25 24  1  0
 26 27  1  0
 28 26  1  0
 29 28  2  0
 30 28  1  0
M  END
$$$$
