FEQ.pdb
     RDKit          3D

 30 30  0  0  1  0  0  0  0  0999 V2000
    5.6349  -17.6540   24.7350 N   0  0  0  0  0  0  0  0  0  0  0  0
    6.4537  -16.4719   24.7863 C   0  0  1  0  0  0  0  0  0  0  0  0
    6.1921  -15.7778   26.0985 C   0  0  0  0  0  0  0  0  0  0  0  0
    6.6623  -14.3855   25.9533 C   0  0  0  0  0  0  0  0  0  0  0  0
    7.9025  -13.9854   26.3863 C   0  0  0  0  0  0  0  0  0  0  0  0
    8.3254  -12.6596   26.2391 C   0  0  0  0  0  0  0  0  0  0  0  0
    7.4903  -11.7204   25.6477 C   0  0  0  0  0  0  0  0  0  0  0  0
    6.2489  -12.1253   25.2152 C   0  0  0  0  0  0  0  0  0  0  0  0
    5.8539  -13.4417   25.3722 C   0  0  0  0  0  0  0  0  0  0  0  0
    7.8810  -16.7576   24.5443 C   0  0  0  0  0  0  0  0  0  0  0  0
    8.4881  -17.5842   25.2874 O   0  0  0  0  0  0  0  0  0  0  0  0
    8.6394  -16.1538   23.5087 N   0  0  0  0  0  0  0  0  0  0  0  0
   10.0421  -16.4518   23.2480 C   0  0  1  0  0  0  0  0  0  0  0  0
   10.4931  -15.8754   21.9559 C   0  0  0  0  0  0  0  0  0  0  0  0
   11.9181  -16.0429   21.5914 C   0  0  0  0  0  0  0  0  0  0  0  0
   12.3392  -15.5371   20.2936 C   0  0  0  0  0  0  0  0  0  0  0  0
   11.5772  -14.8493   19.5727 O   0  0  0  0  0  0  0  0  0  0  0  0
   10.9091  -16.2241   24.4033 C   0  0  0  0  0  0  0  0  0  0  0  0
   10.6880  -15.2714   25.1830 O   0  0  0  0  0  0  0  0  0  0  0  0
   13.6092  -15.7990   19.8019 O   0  0  0  0  0  0  0  0  0  0  0  0
   10.4485  -16.1578   28.9665 N   0  0  0  0  0  0  0  0  0  0  0  0
   11.3303  -17.2602   29.2254 C   0  0  0  0  0  0  0  0  0  0  0  0
   11.8473  -17.2787   30.3659 O   0  0  0  0  0  0  0  0  0  0  0  0
   11.5716  -18.2714   28.1763 C   0  0  0  0  0  0  0  0  0  0  0  0
   11.2453  -17.8380   26.7923 C   0  0  0  0  0  0  0  0  0  0  0  0
   12.4195  -17.3861   25.9907 C   0  0  2  0  0  0  0  0  0  0  0  0
   12.0042  -17.0921   24.6344 N   0  0  0  0  0  0  0  0  0  0  0  0
   13.5895  -18.2853   26.0305 C   0  0  0  0  0  0  0  0  0  0  0  0
   13.7324  -19.1277   25.0831 O   0  0  0  0  0  0  0  0  0  0  0  0
   14.5476  -18.2831   27.0217 O   0  0  0  0  0  0  0  0  0  0  0  0
  2  3  1  0
  2  1  1  1
  4  3  1  0
  4  9  2  0
  5  4  1  0
  6  5  2  0
  6  7  1  0
  7  8  2  0
  8  9  1  0
 10  2  1  0
 11 10  2  0
 12 10  1  0
 13 12  1  0
 14 15  1  0
 13 14  1  6
 15 16  1  0
 16 17  2  0
 18 27  1  0
 18 13  1  0
 19 18  2  0
 20 16  1  0
 22 24  1  0
 22 21  1  0
 23 22  2  0
 26 25  1  1
 25 24  1  0
 26 27  1  0
 28 26  1  0
 29 28  2  0
 30 28  1  0
M  END
$$$$
