FEQ.pdb
     RDKit          3D

 30 30  0  0  1  0  0  0  0  0999 V2000
    8.7059  -15.0710   21.6590 N   0  0  0  0  0  0  0  0  0  0  0  0
    8.4964  -15.0334   23.0822 C   0  0  1  0  0  0  0  0  0  0  0  0
    7.0214  -14.8513   23.3336 C   0  0  0  0  0  0  0  0  0  0  0  0
    6.8852  -13.8278   24.3894 C   0  0  0  0  0  0  0  0  0  0  0  0
    6.2573  -14.0893   25.5823 C   0  0  0  0  0  0  0  0  0  0  0  0
    6.1391  -13.1024   26.5673 C   0  0  0  0  0  0  0  0  0  0  0  0
    6.6596  -11.8328   26.3517 C   0  0  0  0  0  0  0  0  0  0  0  0
    7.2878  -11.5750   25.1554 C   0  0  0  0  0  0  0  0  0  0  0  0
    7.3918  -12.5675   24.1974 C   0  0  0  0  0  0  0  0  0  0  0  0
    9.0727  -16.2031   23.7729 C   0  0  0  0  0  0  0  0  0  0  0  0
    8.9354  -16.3194   25.0266 O   0  0  0  0  0  0  0  0  0  0  0  0
    9.7889  -17.2333   23.1111 N   0  0  0  0  0  0  0  0  0  0  0  0
   10.4841  -18.3129   23.8006 C   0  0  1  0  0  0  0  0  0  0  0  0
   11.2570  -19.1579   22.8552 C   0  0  0  0  0  0  0  0  0  0  0  0
   11.9439  -20.3485   23.4050 C   0  0  0  0  0  0  0  0  0  0  0  0
   12.6423  -21.2105   22.4633 C   0  0  0  0  0  0  0  0  0  0  0  0
   13.2820  -20.7455   21.4897 O   0  0  0  0  0  0  0  0  0  0  0  0
   11.1835  -17.8761   25.0083 C   0  0  0  0  0  0  0  0  0  0  0  0
   11.9260  -16.8700   24.9811 O   0  0  0  0  0  0  0  0  0  0  0  0
   12.6262  -22.5896   22.6089 O   0  0  0  0  0  0  0  0  0  0  0  0
    9.2014  -14.2753   28.1431 N   0  0  0  0  0  0  0  0  0  0  0  0
   10.1516  -14.9429   28.9865 C   0  0  0  0  0  0  0  0  0  0  0  0
   10.6810  -14.2299   29.8695 O   0  0  0  0  0  0  0  0  0  0  0  0
   10.4428  -16.3756   28.7762 C   0  0  0  0  0  0  0  0  0  0  0  0
   11.3306  -16.6786   27.6231 C   0  0  0  0  0  0  0  0  0  0  0  0
   11.6302  -18.1279   27.4349 C   0  0  2  0  0  0  0  0  0  0  0  0
   11.0138  -18.6019   26.2127 N   0  0  0  0  0  0  0  0  0  0  0  0
   11.3086  -18.9897   28.5893 C   0  0  0  0  0  0  0  0  0  0  0  0
   11.8993  -18.7569   29.6960 O   0  0  0  0  0  0  0  0  0  0  0  0
   10.4104  -20.0352   28.5622 O   0  0  0  0  0  0  0  0  0  0  0  0
  2  3  1  0
  2  1  1  6
  4  3  1  0
  4  9  2  0
  5  4  1  0
  6  5  2  0
  6  7  1  0
  7  8  2  0
  8  9  1  0
 10  2  1  0
 11 10  2  0
 12 10  1  0
 13 12  1  0
 14 15  1  0
 13 14  1  6
 15 16  1  0
 16 17  2  0
 18 27  1  0
 18 13  1  0
 19 18  2  0
 20 16  1  0
 22 24  1  0
 22 21  1  0
 23 22  2  0
 26 25  1  1
 25 24  1  0
 26 27  1  0
 28 26  1  0
 29 28  2  0
 30 28  1  0
M  END
$$$$
