HTS.pdb
     RDKit          3D

 24 24  0  0  1  0  0  0  0  0999 V2000
   15.6911  -18.1148    3.2816 N   0  0  0  0  0  0  0  0  0  0  0  0
   16.1914  -19.0952    4.2012 C   0  0  1  0  0  0  0  0  0  0  0  0
   16.6797  -20.3026    3.4358 C   0  0  0  0  0  0  0  0  0  0  0  0
   15.5221  -20.9755    2.8082 C   0  0  0  0  0  0  0  0  0  0  0  0
   14.3344  -21.3887    3.3921 C   0  0  0  0  0  0  0  0  0  0  0  0
   13.5947  -21.9481    2.4206 N   0  0  0  0  0  0  0  0  0  0  0  0
   14.2514  -21.9116    1.2489 C   0  0  0  0  0  0  0  0  0  0  0  0
   15.4259  -21.3176    1.4911 N   0  0  0  0  0  0  0  0  0  0  0  0
   17.2411  -18.5400    5.0883 C   0  0  0  0  0  0  0  0  0  0  0  0
   18.1543  -17.8491    4.5404 O   0  0  0  0  0  0  0  0  0  0  0  0
   17.2519  -15.8584    6.9717 C   0  0  0  0  0  0  0  0  0  0  0  0
   17.5606  -16.9308    7.9766 C   0  0  1  0  0  0  0  0  0  0  0  0
   16.3817  -17.3312    8.5869 O   0  0  0  0  0  0  0  0  0  0  0  0
   18.2524  -18.0983    7.2885 C   0  0  2  0  0  0  0  0  0  0  0  0
   17.2490  -18.7550    6.4844 N   0  0  0  0  0  0  0  0  0  0  0  0
   18.7683  -19.0010    8.3545 C   0  0  0  0  0  0  0  0  0  0  0  0
   18.0716  -19.9963    8.6842 O   0  0  0  0  0  0  0  0  0  0  0  0
   22.8371  -19.5582    9.3908 O   0  0  0  0  0  0  0  0  0  0  0  0
   21.9404  -19.4038   10.4215 C   0  0  0  0  0  0  0  0  0  0  0  0
   20.5129  -19.7071   10.0255 C   0  0  2  0  0  0  0  0  0  0  0  0
   19.9947  -18.8268    9.0342 N   0  0  0  0  0  0  0  0  0  0  0  0
   19.6919  -19.6026   11.2509 C   0  0  0  0  0  0  0  0  0  0  0  0
   18.7647  -18.7593   11.3721 O   0  0  0  0  0  0  0  0  0  0  0  0
   19.9577  -20.4657   12.2980 O   0  0  0  0  0  0  0  0  0  0  0  0
  2  1  1  6
  3  2  1  0
  4  5  2  0
  4  3  1  0
  6  5  1  0
  7  8  2  0
  7  6  1  0
  8  4  1  0
  9 10  2  0
  9  2  1  0
 12 11  1  6
 12 14  1  0
 13 12  1  0
 14 15  1  6
 15  9  1  0
 16 14  1  0
 17 16  2  0
 18 19  1  0
 20 19  1  1
 20 22  1  0
 20 21  1  0
 21 16  1  0
 22 24  1  0
 23 22  2  0
M  END
$$$$
