HTS.pdb
     RDKit          3D

 24 24  0  0  1  0  0  0  0  0999 V2000
   27.4486  -10.5065  -18.2303 N   0  0  0  0  0  0  0  0  0  0  0  0
   28.5463   -9.7273  -18.7254 C   0  0  1  0  0  0  0  0  0  0  0  0
   28.0240   -8.4416  -19.3225 C   0  0  0  0  0  0  0  0  0  0  0  0
   27.2293   -8.7588  -20.5285 C   0  0  0  0  0  0  0  0  0  0  0  0
   26.1735   -8.0533  -21.0852 C   0  0  0  0  0  0  0  0  0  0  0  0
   25.7768   -8.7355  -22.1719 N   0  0  0  0  0  0  0  0  0  0  0  0
   26.5265   -9.8387  -22.3347 C   0  0  0  0  0  0  0  0  0  0  0  0
   27.4104   -9.8479  -21.3300 N   0  0  0  0  0  0  0  0  0  0  0  0
   29.5667   -9.4778  -17.6796 C   0  0  0  0  0  0  0  0  0  0  0  0
   29.1582   -9.4040  -16.4799 O   0  0  0  0  0  0  0  0  0  0  0  0
   32.2949  -11.5313  -16.6183 C   0  0  0  0  0  0  0  0  0  0  0  0
   32.9122  -10.2150  -16.9941 C   0  0  1  0  0  0  0  0  0  0  0  0
   33.4290  -10.3080  -18.2774 O   0  0  0  0  0  0  0  0  0  0  0  0
   31.8707   -9.1102  -16.8951 C   0  0  2  0  0  0  0  0  0  0  0  0
   30.9392   -9.3250  -17.9771 N   0  0  0  0  0  0  0  0  0  0  0  0
   32.5837   -7.8115  -17.0440 C   0  0  0  0  0  0  0  0  0  0  0  0
   32.6213   -7.2771  -18.1832 O   0  0  0  0  0  0  0  0  0  0  0  0
   34.8958   -4.0274  -14.9252 O   0  0  0  0  0  0  0  0  0  0  0  0
   34.3313   -5.2750  -14.8022 C   0  0  0  0  0  0  0  0  0  0  0  0
   33.8825   -5.8632  -16.1210 C   0  0  2  0  0  0  0  0  0  0  0  0
   33.2298   -7.1218  -15.9937 N   0  0  0  0  0  0  0  0  0  0  0  0
   35.0909   -6.0206  -16.9587 C   0  0  0  0  0  0  0  0  0  0  0  0
   35.7048   -7.1154  -17.0587 O   0  0  0  0  0  0  0  0  0  0  0  0
   35.5580   -4.9209  -17.6548 O   0  0  0  0  0  0  0  0  0  0  0  0
  2  1  1  1
  3  2  1  0
  4  5  2  0
  4  3  1  0
  6  5  1  0
  7  8  2  0
  7  6  1  0
  8  4  1  0
  9 10  2  0
  9  2  1  0
 12 11  1  6
 12 14  1  0
 13 12  1  0
 14 15  1  6
 15  9  1  0
 16 14  1  0
 17 16  2  0
 18 19  1  0
 20 19  1  1
 20 22  1  0
 20 21  1  0
 21 16  1  0
 22 24  1  0
 23 22  2  0
M  END
$$$$
