HTS.pdb
     RDKit          3D

 24 24  0  0  1  0  0  0  0  0999 V2000
   62.5289  125.0301  300.7221 N   0  0  0  0  0  0  0  0  0  0  0  0
   62.6890  124.1706  301.8592 C   0  0  1  0  0  0  0  0  0  0  0  0
   63.8729  123.2582  301.6396 C   0  0  0  0  0  0  0  0  0  0  0  0
   65.1103  123.9767  302.0130 C   0  0  0  0  0  0  0  0  0  0  0  0
   66.4289  123.5790  301.8536 C   0  0  0  0  0  0  0  0  0  0  0  0
   67.1970  124.5653  302.3450 N   0  0  0  0  0  0  0  0  0  0  0  0
   66.4340  125.5696  302.8084 C   0  0  0  0  0  0  0  0  0  0  0  0
   65.1627  125.2054  302.6034 N   0  0  0  0  0  0  0  0  0  0  0  0
   62.8071  124.9369  303.1225 C   0  0  0  0  0  0  0  0  0  0  0  0
   63.5652  124.4567  304.0205 O   0  0  0  0  0  0  0  0  0  0  0  0
   61.0141  124.0855  304.1205 C   0  0  0  0  0  0  0  0  0  0  0  0
   60.1036  124.8922  303.2400 C   0  0  1  0  0  0  0  0  0  0  0  0
   58.8731  125.0266  303.8647 O   0  0  0  0  0  0  0  0  0  0  0  0
   60.7311  126.2486  302.9547 C   0  0  2  0  0  0  0  0  0  0  0  0
   62.1181  126.1501  303.3435 N   0  0  0  0  0  0  0  0  0  0  0  0
   60.0079  127.2559  303.7791 C   0  0  0  0  0  0  0  0  0  0  0  0
   60.6785  127.9889  304.5522 O   0  0  0  0  0  0  0  0  0  0  0  0
   56.5130  129.7378  302.5818 O   0  0  0  0  0  0  0  0  0  0  0  0
   57.7289  129.1868  302.2528 C   0  0  0  0  0  0  0  0  0  0  0  0
   57.8347  127.7180  302.5964 C   0  0  2  0  0  0  0  0  0  0  0  0
   58.6095  127.4574  303.7617 N   0  0  0  0  0  0  0  0  0  0  0  0
   58.4552  127.0451  301.4351 C   0  0  0  0  0  0  0  0  0  0  0  0
   59.5764  126.4762  301.5045 O   0  0  0  0  0  0  0  0  0  0  0  0
   57.7737  127.0448  300.2319 O   0  0  0  0  0  0  0  0  0  0  0  0
  2  1  1  6
  3  2  1  0
  4  5  2  0
  4  3  1  0
  6  5  1  0
  7  8  2  0
  7  6  1  0
  8  4  1  0
  9 10  2  0
  9  2  1  0
 12 11  1  1
 12 14  1  0
 13 12  1  0
 14 15  1  1
 15  9  1  0
 16 14  1  0
 17 16  2  0
 18 19  1  0
 20 19  1  6
 20 22  1  0
 20 21  1  0
 21 16  1  0
 22 24  1  0
 23 22  2  0
M  END
$$$$
