HTS.pdb
     RDKit          3D

 24 24  0  0  1  0  0  0  0  0999 V2000
   16.1606  -11.8430  -15.4240 N   0  0  0  0  0  0  0  0  0  0  0  0
   17.5239  -11.4066  -15.3332 C   0  0  1  0  0  0  0  0  0  0  0  0
   18.2423  -11.7230  -16.6240 C   0  0  0  0  0  0  0  0  0  0  0  0
   18.3316  -13.1909  -16.7780 C   0  0  0  0  0  0  0  0  0  0  0  0
   19.2499  -14.0696  -16.2240 C   0  0  0  0  0  0  0  0  0  0  0  0
   18.9233  -15.2994  -16.6538 N   0  0  0  0  0  0  0  0  0  0  0  0
   17.8441  -15.2475  -17.4528 C   0  0  0  0  0  0  0  0  0  0  0  0
   17.4876  -13.9596  -17.5249 N   0  0  0  0  0  0  0  0  0  0  0  0
   17.6251   -9.9704  -14.9807 C   0  0  0  0  0  0  0  0  0  0  0  0
   16.9682   -9.1525  -15.6957 O   0  0  0  0  0  0  0  0  0  0  0  0
   16.5869   -8.2496  -12.0247 C   0  0  0  0  0  0  0  0  0  0  0  0
   18.0410   -7.9083  -12.1806 C   0  0  1  0  0  0  0  0  0  0  0  0
   18.7877   -8.7156  -11.3362 O   0  0  0  0  0  0  0  0  0  0  0  0
   18.4599   -8.0879  -13.6324 C   0  0  2  0  0  0  0  0  0  0  0  0
   18.4101   -9.5053  -13.9024 N   0  0  0  0  0  0  0  0  0  0  0  0
   19.8457   -7.5596  -13.7644 C   0  0  0  0  0  0  0  0  0  0  0  0
   20.8073   -8.3404  -13.5401 O   0  0  0  0  0  0  0  0  0  0  0  0
   20.9560   -4.8025  -16.4481 O   0  0  0  0  0  0  0  0  0  0  0  0
   21.8907   -5.5073  -15.7271 C   0  0  0  0  0  0  0  0  0  0  0  0
   21.4934   -5.7297  -14.2851 C   0  0  2  0  0  0  0  0  0  0  0  0
   20.1715   -6.2334  -14.1269 N   0  0  0  0  0  0  0  0  0  0  0  0
   21.6058   -4.4248  -13.5987 C   0  0  0  0  0  0  0  0  0  0  0  0
   22.7025   -3.8177  -13.4786 O   0  0  0  0  0  0  0  0  0  0  0  0
   20.4607   -3.8564  -13.0718 O   0  0  0  0  0  0  0  0  0  0  0  0
  2  1  1  6
  3  2  1  0
  4  5  2  0
  4  3  1  0
  6  5  1  0
  7  8  2  0
  7  6  1  0
  8  4  1  0
  9 10  2  0
  9  2  1  0
 12 11  1  6
 12 14  1  0
 13 12  1  0
 14 15  1  1
 15  9  1  0
 16 14  1  0
 17 16  2  0
 18 19  1  0
 20 19  1  6
 20 22  1  0
 20 21  1  0
 21 16  1  0
 22 24  1  0
 23 22  2  0
M  END
$$$$
