HTS.pdb
     RDKit          3D

 24 24  0  0  1  0  0  0  0  0999 V2000
   26.9998  -32.0218  -19.2829 N   0  0  0  0  0  0  0  0  0  0  0  0
   26.2057  -32.9578  -18.5409 C   0  0  1  0  0  0  0  0  0  0  0  0
   25.6976  -34.0361  -19.4690 C   0  0  0  0  0  0  0  0  0  0  0  0
   24.7152  -33.4442  -20.4025 C   0  0  0  0  0  0  0  0  0  0  0  0
   23.3485  -33.2793  -20.2379 C   0  0  0  0  0  0  0  0  0  0  0  0
   22.8872  -32.6960  -21.3563 N   0  0  0  0  0  0  0  0  0  0  0  0
   23.8910  -32.4818  -22.2237 C   0  0  0  0  0  0  0  0  0  0  0  0
   25.0031  -32.9399  -21.6370 N   0  0  0  0  0  0  0  0  0  0  0  0
   26.9462  -33.5232  -17.3880 C   0  0  0  0  0  0  0  0  0  0  0  0
   28.1326  -33.9207  -17.6023 O   0  0  0  0  0  0  0  0  0  0  0  0
   28.3714  -31.9641  -14.6644 C   0  0  0  0  0  0  0  0  0  0  0  0
   27.4023  -32.9413  -14.0636 C   0  0  1  0  0  0  0  0  0  0  0  0
   26.2069  -32.2895  -13.8019 O   0  0  0  0  0  0  0  0  0  0  0  0
   27.1980  -34.1137  -15.0117 C   0  0  2  0  0  0  0  0  0  0  0  0
   26.3806  -33.6268  -16.0977 N   0  0  0  0  0  0  0  0  0  0  0  0
   26.5023  -35.1869  -14.2492 C   0  0  0  0  0  0  0  0  0  0  0  0
   25.2747  -35.3701  -14.4592 O   0  0  0  0  0  0  0  0  0  0  0  0
   28.3549  -37.1923  -11.0533 O   0  0  0  0  0  0  0  0  0  0  0  0
   27.3840  -37.8985  -11.7233 C   0  0  0  0  0  0  0  0  0  0  0  0
   26.4505  -37.0213  -12.5267 C   0  0  2  0  0  0  0  0  0  0  0  0
   27.1192  -36.0276  -13.2958 N   0  0  0  0  0  0  0  0  0  0  0  0
   25.5383  -36.3651  -11.5655 C   0  0  0  0  0  0  0  0  0  0  0  0
   25.4143  -35.1138  -11.4992 O   0  0  0  0  0  0  0  0  0  0  0  0
   24.7974  -37.1611  -10.7114 O   0  0  0  0  0  0  0  0  0  0  0  0
  2  1  1  6
  3  2  1  0
  4  5  2  0
  4  3  1  0
  6  5  1  0
  7  8  2  0
  7  6  1  0
  8  4  1  0
  9 10  2  0
  9  2  1  0
 12 11  1  6
 12 14  1  0
 13 12  1  0
 14 15  1  6
 15  9  1  0
 16 14  1  0
 17 16  2  0
 18 19  1  0
 20 19  1  1
 20 22  1  0
 20 21  1  0
 21 16  1  0
 22 24  1  0
 23 22  2  0
M  END
$$$$
