HTS.pdb
     RDKit          3D

 24 24  0  0  1  0  0  0  0  0999 V2000
   28.1516  -20.9312  -14.2521 N   0  0  0  0  0  0  0  0  0  0  0  0
   27.0749  -20.8130  -13.3118 C   0  0  1  0  0  0  0  0  0  0  0  0
   27.5323  -20.0060  -12.1194 C   0  0  0  0  0  0  0  0  0  0  0  0
   28.6505  -20.7137  -11.4594 C   0  0  0  0  0  0  0  0  0  0  0  0
   29.2716  -21.8964  -11.8305 C   0  0  0  0  0  0  0  0  0  0  0  0
   30.2304  -22.1369  -10.9213 N   0  0  0  0  0  0  0  0  0  0  0  0
   30.2507  -21.1674   -9.9911 C   0  0  0  0  0  0  0  0  0  0  0  0
   29.2854  -20.3024  -10.3242 N   0  0  0  0  0  0  0  0  0  0  0  0
   25.8559  -20.2419  -13.9323 C   0  0  0  0  0  0  0  0  0  0  0  0
   26.0211  -19.4700  -14.9265 O   0  0  0  0  0  0  0  0  0  0  0  0
   24.6736  -20.4899  -16.2689 C   0  0  0  0  0  0  0  0  0  0  0  0
   23.3988  -20.7581  -15.5220 C   0  0  1  0  0  0  0  0  0  0  0  0
   23.2593  -22.1259  -15.3425 O   0  0  0  0  0  0  0  0  0  0  0  0
   23.4176  -20.0236  -14.1896 C   0  0  2  0  0  0  0  0  0  0  0  0
   24.5561  -20.5274  -13.4584 N   0  0  0  0  0  0  0  0  0  0  0  0
   22.1417  -20.3385  -13.4895 C   0  0  0  0  0  0  0  0  0  0  0  0
   22.1399  -21.2656  -12.6379 O   0  0  0  0  0  0  0  0  0  0  0  0
   18.6204  -18.5180  -14.6569 O   0  0  0  0  0  0  0  0  0  0  0  0
   18.5718  -19.0105  -13.3742 C   0  0  0  0  0  0  0  0  0  0  0  0
   19.6871  -19.9827  -13.0619 C   0  0  2  0  0  0  0  0  0  0  0  0
   20.9163  -19.6700  -13.7081 N   0  0  0  0  0  0  0  0  0  0  0  0
   19.2309  -21.3200  -13.4978 C   0  0  0  0  0  0  0  0  0  0  0  0
   19.7413  -21.9201  -14.4801 O   0  0  0  0  0  0  0  0  0  0  0  0
   18.2059  -21.9277  -12.7963 O   0  0  0  0  0  0  0  0  0  0  0  0
  2  1  1  6
  3  2  1  0
  4  5  2  0
  4  3  1  0
  6  5  1  0
  7  8  2  0
  7  6  1  0
  8  4  1  0
  9 10  2  0
  9  2  1  0
 12 11  1  1
 12 14  1  0
 13 12  1  0
 14 15  1  1
 15  9  1  0
 16 14  1  0
 17 16  2  0
 18 19  1  0
 20 19  1  6
 20 22  1  0
 20 21  1  0
 21 16  1  0
 22 24  1  0
 23 22  2  0
M  END
$$$$
