HTS.pdb
     RDKit          3D

 24 24  0  0  1  0  0  0  0  0999 V2000
   19.9362  -13.1380  -16.9535 N   0  0  0  0  0  0  0  0  0  0  0  0
   19.4993  -11.7734  -17.0185 C   0  0  1  0  0  0  0  0  0  0  0  0
   17.9957  -11.7176  -16.8821 C   0  0  0  0  0  0  0  0  0  0  0  0
   17.3812  -12.3813  -18.0519 C   0  0  0  0  0  0  0  0  0  0  0  0
   17.5082  -12.0676  -19.3964 C   0  0  0  0  0  0  0  0  0  0  0  0
   16.7628  -12.9536  -20.0771 N   0  0  0  0  0  0  0  0  0  0  0  0
   16.1683  -13.8146  -19.2339 C   0  0  0  0  0  0  0  0  0  0  0  0
   16.5489  -13.4610  -18.0006 N   0  0  0  0  0  0  0  0  0  0  0  0
   20.1786  -10.9241  -16.0114 C   0  0  0  0  0  0  0  0  0  0  0  0
   19.9470  -11.1795  -14.7896 O   0  0  0  0  0  0  0  0  0  0  0  0
   23.6707  -10.5946  -15.3145 C   0  0  0  0  0  0  0  0  0  0  0  0
   23.1896   -9.1972  -15.5810 C   0  0  1  0  0  0  0  0  0  0  0  0
   23.4973   -8.8550  -16.8889 O   0  0  0  0  0  0  0  0  0  0  0  0
   21.6926   -9.1095  -15.3230 C   0  0  2  0  0  0  0  0  0  0  0  0
   21.0499   -9.8708  -16.3679 N   0  0  0  0  0  0  0  0  0  0  0  0
   21.3130   -7.6712  -15.3891 C   0  0  0  0  0  0  0  0  0  0  0  0
   20.9803   -7.1911  -16.5042 O   0  0  0  0  0  0  0  0  0  0  0  0
   19.6205   -3.6271  -13.4662 O   0  0  0  0  0  0  0  0  0  0  0  0
   19.9861   -4.9449  -13.3247 C   0  0  0  0  0  0  0  0  0  0  0  0
   20.9993   -5.4000  -14.3509 C   0  0  2  0  0  0  0  0  0  0  0  0
   21.2961   -6.7906  -14.2843 N   0  0  0  0  0  0  0  0  0  0  0  0
   22.2351   -4.6234  -14.1134 C   0  0  0  0  0  0  0  0  0  0  0  0
   23.1677   -5.0465  -13.3808 O   0  0  0  0  0  0  0  0  0  0  0  0
   22.3643   -3.3882  -14.7215 O   0  0  0  0  0  0  0  0  0  0  0  0
  2  1  1  1
  3  2  1  0
  4  5  2  0
  4  3  1  0
  6  5  1  0
  7  8  2  0
  7  6  1  0
  8  4  1  0
  9 10  2  0
  9  2  1  0
 12 11  1  6
 12 14  1  0
 13 12  1  0
 14 15  1  6
 15  9  1  0
 16 14  1  0
 17 16  2  0
 18 19  1  0
 20 19  1  1
 20 22  1  0
 20 21  1  0
 21 16  1  0
 22 24  1  0
 23 22  2  0
M  END
$$$$
