HTS.pdb
     RDKit          3D

 24 24  0  0  1  0  0  0  0  0999 V2000
   20.3603  -10.6590  -15.2032 N   0  0  0  0  0  0  0  0  0  0  0  0
   19.6067   -9.6592  -15.9031 C   0  0  1  0  0  0  0  0  0  0  0  0
   18.2142  -10.1769  -16.1777 C   0  0  0  0  0  0  0  0  0  0  0  0
   18.2982  -11.2993  -17.1368 C   0  0  0  0  0  0  0  0  0  0  0  0
   18.1315  -11.2820  -18.5130 C   0  0  0  0  0  0  0  0  0  0  0  0
   18.3020  -12.5426  -18.9438 N   0  0  0  0  0  0  0  0  0  0  0  0
   18.5687  -13.3606  -17.9115 C   0  0  0  0  0  0  0  0  0  0  0  0
   18.5652  -12.5972  -16.8124 N   0  0  0  0  0  0  0  0  0  0  0  0
   19.5841   -8.3689  -15.1739 C   0  0  0  0  0  0  0  0  0  0  0  0
   19.0682   -8.3699  -14.0140 O   0  0  0  0  0  0  0  0  0  0  0  0
   21.2381   -7.0517  -13.0075 C   0  0  0  0  0  0  0  0  0  0  0  0
   21.3658   -6.0075  -14.0791 C   0  0  1  0  0  0  0  0  0  0  0  0
   22.4799   -6.2897  -14.8546 O   0  0  0  0  0  0  0  0  0  0  0  0
   20.0987   -5.9752  -14.9209 C   0  0  2  0  0  0  0  0  0  0  0  0
   20.1064   -7.1763  -15.7220 N   0  0  0  0  0  0  0  0  0  0  0  0
   20.1612   -4.7556  -15.7728 C   0  0  0  0  0  0  0  0  0  0  0  0
   20.8989   -4.7756  -16.7927 O   0  0  0  0  0  0  0  0  0  0  0  0
   18.0968   -1.2534  -14.7402 O   0  0  0  0  0  0  0  0  0  0  0  0
   18.3471   -1.4349  -16.0798 C   0  0  0  0  0  0  0  0  0  0  0  0
   19.4742   -2.4050  -16.3537 C   0  0  2  0  0  0  0  0  0  0  0  0
   19.4482   -3.5614  -15.5241 N   0  0  0  0  0  0  0  0  0  0  0  0
   20.7396   -1.6723  -16.1332 C   0  0  0  0  0  0  0  0  0  0  0  0
   21.5452   -1.9780  -15.2151 O   0  0  0  0  0  0  0  0  0  0  0  0
   21.0426   -0.6138  -16.9697 O   0  0  0  0  0  0  0  0  0  0  0  0
  2  1  1  1
  3  2  1  0
  4  5  2  0
  4  3  1  0
  6  5  1  0
  7  8  2  0
  7  6  1  0
  8  4  1  0
  9 10  2  0
  9  2  1  0
 12 11  1  1
 12 14  1  0
 13 12  1  0
 14 15  1  6
 15  9  1  0
 16 14  1  0
 17 16  2  0
 18 19  1  0
 20 19  1  1
 20 22  1  0
 20 21  1  0
 21 16  1  0
 22 24  1  0
 23 22  2  0
M  END
$$$$
