HTS.pdb
     RDKit          3D

 24 24  0  0  1  0  0  0  0  0999 V2000
   16.4676  -11.0515  -17.0430 N   0  0  0  0  0  0  0  0  0  0  0  0
   17.6615  -10.6749  -16.3429 C   0  0  1  0  0  0  0  0  0  0  0  0
   18.8307  -11.4700  -16.8748 C   0  0  0  0  0  0  0  0  0  0  0  0
   18.6651  -12.8875  -16.4875 C   0  0  0  0  0  0  0  0  0  0  0  0
   19.1423  -13.5436  -15.3632 C   0  0  0  0  0  0  0  0  0  0  0  0
   18.7364  -14.8207  -15.4536 N   0  0  0  0  0  0  0  0  0  0  0  0
   18.0254  -15.0100  -16.5781 C   0  0  0  0  0  0  0  0  0  0  0  0
   17.9852  -13.8280  -17.2045 N   0  0  0  0  0  0  0  0  0  0  0  0
   17.9079   -9.2148  -16.4107 C   0  0  0  0  0  0  0  0  0  0  0  0
   18.1104   -8.7159  -17.5603 O   0  0  0  0  0  0  0  0  0  0  0  0
   15.6992   -6.5343  -15.6724 C   0  0  0  0  0  0  0  0  0  0  0  0
   16.9046   -6.2916  -14.8103 C   0  0  1  0  0  0  0  0  0  0  0  0
   16.6500   -6.7674  -13.5331 O   0  0  0  0  0  0  0  0  0  0  0  0
   18.1211   -6.9707  -15.4221 C   0  0  2  0  0  0  0  0  0  0  0  0
   17.9224   -8.3918  -15.2627 N   0  0  0  0  0  0  0  0  0  0  0  0
   19.3176   -6.5032  -14.6691 C   0  0  0  0  0  0  0  0  0  0  0  0
   19.8661   -7.2999  -13.8635 O   0  0  0  0  0  0  0  0  0  0  0  0
   23.5163   -5.0052  -14.2346 O   0  0  0  0  0  0  0  0  0  0  0  0
   22.3338   -5.5137  -14.7175 C   0  0  0  0  0  0  0  0  0  0  0  0
   21.1112   -4.8079  -14.1757 C   0  0  2  0  0  0  0  0  0  0  0  0
   19.8942   -5.2189  -14.7891 N   0  0  0  0  0  0  0  0  0  0  0  0
   21.3101   -3.3604  -14.4036 C   0  0  0  0  0  0  0  0  0  0  0  0
   21.9905   -2.6419  -13.6248 O   0  0  0  0  0  0  0  0  0  0  0  0
   20.7247   -2.7816  -15.5145 O   0  0  0  0  0  0  0  0  0  0  0  0
  2  1  1  6
  3  2  1  0
  4  5  2  0
  4  3  1  0
  6  5  1  0
  7  8  2  0
  7  6  1  0
  8  4  1  0
  9 10  2  0
  9  2  1  0
 12 11  1  6
 12 14  1  0
 13 12  1  0
 14 15  1  1
 15  9  1  0
 16 14  1  0
 17 16  2  0
 18 19  1  0
 20 19  1  6
 20 22  1  0
 20 21  1  0
 21 16  1  0
 22 24  1  0
 23 22  2  0
M  END
$$$$
