HTS.pdb
     RDKit          3D

 24 24  0  0  1  0  0  0  0  0999 V2000
   34.2027   -9.2553  -15.5560 N   0  0  0  0  0  0  0  0  0  0  0  0
   34.9659   -8.0448  -15.6533 C   0  0  1  0  0  0  0  0  0  0  0  0
   36.3901   -8.3752  -16.0338 C   0  0  0  0  0  0  0  0  0  0  0  0
   36.9386   -9.3391  -15.0557 C   0  0  0  0  0  0  0  0  0  0  0  0
   36.2868  -10.3600  -14.3810 C   0  0  0  0  0  0  0  0  0  0  0  0
   37.2016  -10.9608  -13.6024 N   0  0  0  0  0  0  0  0  0  0  0  0
   38.4017  -10.3741  -13.7477 C   0  0  0  0  0  0  0  0  0  0  0  0
   38.2355   -9.3860  -14.6349 N   0  0  0  0  0  0  0  0  0  0  0  0
   34.3526   -7.0753  -16.5920 C   0  0  0  0  0  0  0  0  0  0  0  0
   35.0574   -6.0758  -16.9323 O   0  0  0  0  0  0  0  0  0  0  0  0
   32.1749   -8.0167  -19.6866 C   0  0  0  0  0  0  0  0  0  0  0  0
   31.4983   -6.9435  -18.8832 C   0  0  1  0  0  0  0  0  0  0  0  0
   30.4890   -7.5156  -18.1241 O   0  0  0  0  0  0  0  0  0  0  0  0
   32.5195   -6.2364  -18.0043 C   0  0  2  0  0  0  0  0  0  0  0  0
   33.0441   -7.2326  -17.1005 N   0  0  0  0  0  0  0  0  0  0  0  0
   31.8026   -5.1597  -17.2668 C   0  0  0  0  0  0  0  0  0  0  0  0
   31.0715   -5.4851  -16.2950 O   0  0  0  0  0  0  0  0  0  0  0  0
   32.0899   -1.1327  -18.4289 O   0  0  0  0  0  0  0  0  0  0  0  0
   31.7873   -1.3710  -17.1091 C   0  0  0  0  0  0  0  0  0  0  0  0
   31.2097   -2.7469  -16.8648 C   0  0  2  0  0  0  0  0  0  0  0  0
   31.8791   -3.7830  -17.5752 N   0  0  0  0  0  0  0  0  0  0  0  0
   29.7923   -2.7024  -17.2840 C   0  0  0  0  0  0  0  0  0  0  0  0
   29.3470   -3.3998  -18.2331 O   0  0  0  0  0  0  0  0  0  0  0  0
   28.9301   -1.8618  -16.6042 O   0  0  0  0  0  0  0  0  0  0  0  0
  2  1  1  6
  3  2  1  0
  4  5  2  0
  4  3  1  0
  6  5  1  0
  7  8  2  0
  7  6  1  0
  8  4  1  0
  9 10  2  0
  9  2  1  0
 12 11  1  1
 12 14  1  0
 13 12  1  0
 14 15  1  1
 15  9  1  0
 16 14  1  0
 17 16  2  0
 18 19  1  0
 20 19  1  6
 20 22  1  0
 20 21  1  0
 21 16  1  0
 22 24  1  0
 23 22  2  0
M  END
$$$$
