YWY.pdb
     RDKit          3D

 39 42  0  0  1  0  0  0  0  0999 V2000
    7.1691  -11.3082   17.2468 O   0  0  0  0  0  0  0  0  0  0  0  0
    7.3451  -12.6605   17.5049 C   0  0  0  0  0  0  0  0  0  0  0  0
    6.4861  -13.3403   18.3641 C   0  0  0  0  0  0  0  0  0  0  0  0
    6.6522  -14.6928   18.6302 C   0  0  0  0  0  0  0  0  0  0  0  0
    7.6741  -15.3572   18.0367 C   0  0  0  0  0  0  0  0  0  0  0  0
    7.9138  -16.7926   18.2661 C   0  0  0  0  0  0  0  0  0  0  0  0
    9.0886  -17.0472   19.1767 C   0  0  2  0  0  0  0  0  0  0  0  0
    9.2103  -18.4489   19.4126 N   0  0  0  0  0  0  0  0  0  0  0  0
    8.8181  -16.2552   20.4317 C   0  0  0  0  0  0  0  0  0  0  0  0
    7.9396  -15.3742   20.3806 O   0  0  0  0  0  0  0  0  0  0  0  0
    8.5476  -14.6927   17.1698 C   0  0  0  0  0  0  0  0  0  0  0  0
    8.3765  -13.3470   16.9107 C   0  0  0  0  0  0  0  0  0  0  0  0
    9.5155  -16.4784   21.6218 N   0  0  0  0  0  0  0  0  0  0  0  0
    9.2871  -15.6810   22.8404 C   0  0  1  0  0  0  0  0  0  0  0  0
    7.8142  -15.7703   23.0879 C   0  0  0  0  0  0  0  0  0  0  0  0
    7.3850  -15.3250   24.4077 C   0  0  0  0  0  0  0  0  0  0  0  0
    6.8865  -16.0473   25.4520 C   0  0  0  0  0  0  0  0  0  0  0  0
    6.6266  -15.2049   26.4939 N   0  0  0  0  0  0  0  0  0  0  0  0
    6.9492  -13.9505   26.1441 C   0  0  0  0  0  0  0  0  0  0  0  0
    6.8783  -12.7584   26.8533 C   0  0  0  0  0  0  0  0  0  0  0  0
    7.3038  -11.6155   26.2135 C   0  0  0  0  0  0  0  0  0  0  0  0
    7.7827  -11.6367   24.9255 C   0  0  0  0  0  0  0  0  0  0  0  0
    7.8454  -12.8379   24.2323 C   0  0  0  0  0  0  0  0  0  0  0  0
    7.4211  -14.0094   24.8527 C   0  0  0  0  0  0  0  0  0  0  0  0
   10.1184  -16.2561   23.9452 C   0  0  0  0  0  0  0  0  0  0  0  0
   10.3939  -17.4621   24.0759 O   0  0  0  0  0  0  0  0  0  0  0  0
   11.9668  -17.0171   32.3537 O   0  0  0  0  0  0  0  0  0  0  0  0
   11.7000  -16.4999   31.0858 C   0  0  0  0  0  0  0  0  0  0  0  0
   12.6949  -16.4493   30.1429 C   0  0  0  0  0  0  0  0  0  0  0  0
   12.4014  -15.9300   28.8884 C   0  0  0  0  0  0  0  0  0  0  0  0
   11.1102  -15.4840   28.6440 C   0  0  0  0  0  0  0  0  0  0  0  0
   10.7881  -14.9139   27.2916 C   0  0  0  0  0  0  0  0  0  0  0  0
   11.1952  -15.8286   26.1894 C   0  0  2  0  0  0  0  0  0  0  0  0
   10.6292  -15.3436   24.9199 N   0  0  0  0  0  0  0  0  0  0  0  0
   10.8398  -17.2432   26.3569 C   0  0  0  0  0  0  0  0  0  0  0  0
   11.7389  -18.1297   26.4618 O   0  0  0  0  0  0  0  0  0  0  0  0
   10.1353  -15.5424   29.5931 C   0  0  0  0  0  0  0  0  0  0  0  0
   10.4107  -16.0575   30.8499 C   0  0  0  0  0  0  0  0  0  0  0  0
    9.5337  -17.6846   26.4087 O   0  0  0  0  0  0  0  0  0  0  0  0
  1  2  1  0
  2  3  2  0
  3  4  1  0
  5  6  1  0
  5  4  2  0
  6  7  1  0
  7  8  1  1
  9  7  1  0
 10  9  2  0
 11  5  1  0
 12 11  2  0
 12  2  1  0
 13  9  1  0
 14 15  1  1
 14 13  1  0
 16 24  1  0
 16 15  1  0
 17 16  2  0
 18 17  1  0
 18 19  1  0
 19 24  2  0
 20 19  1  0
 20 21  2  0
 21 22  1  0
 22 23  2  0
 24 23  1  0
 25 14  1  0
 25 34  1  0
 26 25  2  0
 28 38  2  0
 28 27  1  0
 29 28  1  0
 30 31  1  0
 30 29  2  0
 31 37  2  0
 32 31  1  0
 33 34  1  0
 33 32  1  1
 35 33  1  0
 36 35  2  0
 37 38  1  0
 39 35  1  0
M  END
$$$$
