YWY.pdb
     RDKit          3D

 39 42  0  0  1  0  0  0  0  0999 V2000
   13.6932  -20.4565   15.8803 O   0  0  0  0  0  0  0  0  0  0  0  0
   13.4324  -19.7564   17.0500 C   0  0  0  0  0  0  0  0  0  0  0  0
   14.3860  -18.9029   17.5980 C   0  0  0  0  0  0  0  0  0  0  0  0
   14.1367  -18.1973   18.7675 C   0  0  0  0  0  0  0  0  0  0  0  0
   12.9375  -18.3484   19.3815 C   0  0  0  0  0  0  0  0  0  0  0  0
   12.5970  -17.6322   20.6231 C   0  0  0  0  0  0  0  0  0  0  0  0
   11.4921  -16.6245   20.4282 C   0  0  2  0  0  0  0  0  0  0  0  0
   11.9282  -15.6125   19.5222 N   0  0  0  0  0  0  0  0  0  0  0  0
   11.1706  -16.0925   21.8027 C   0  0  0  0  0  0  0  0  0  0  0  0
   11.9198  -15.2158   22.2724 O   0  0  0  0  0  0  0  0  0  0  0  0
   11.9658  -19.2004   18.8467 C   0  0  0  0  0  0  0  0  0  0  0  0
   12.2214  -19.8995   17.6834 C   0  0  0  0  0  0  0  0  0  0  0  0
   10.0800  -16.5514   22.5459 N   0  0  0  0  0  0  0  0  0  0  0  0
    9.7178  -15.9885   23.8593 C   0  0  1  0  0  0  0  0  0  0  0  0
    8.2265  -16.0898   23.9231 C   0  0  0  0  0  0  0  0  0  0  0  0
    7.5201  -14.8175   23.8400 C   0  0  0  0  0  0  0  0  0  0  0  0
    6.7614  -14.3062   22.8283 C   0  0  0  0  0  0  0  0  0  0  0  0
    6.2917  -13.0794   23.1985 N   0  0  0  0  0  0  0  0  0  0  0  0
    6.7310  -12.7876   24.4321 C   0  0  0  0  0  0  0  0  0  0  0  0
    6.5186  -11.6760   25.2373 C   0  0  0  0  0  0  0  0  0  0  0  0
    7.1048  -11.6764   26.4836 C   0  0  0  0  0  0  0  0  0  0  0  0
    7.8716  -12.7269   26.9279 C   0  0  0  0  0  0  0  0  0  0  0  0
    8.0732  -13.8291   26.1084 C   0  0  0  0  0  0  0  0  0  0  0  0
    7.4943  -13.8565   24.8428 C   0  0  0  0  0  0  0  0  0  0  0  0
   10.4201  -16.7760   24.9219 C   0  0  0  0  0  0  0  0  0  0  0  0
   10.9496  -17.8887   24.7514 O   0  0  0  0  0  0  0  0  0  0  0  0
   13.0132  -18.6349   33.1308 O   0  0  0  0  0  0  0  0  0  0  0  0
   12.6301  -17.9855   31.9571 C   0  0  0  0  0  0  0  0  0  0  0  0
   13.4933  -17.9277   30.8927 C   0  0  0  0  0  0  0  0  0  0  0  0
   13.0857  -17.2754   29.7359 C   0  0  0  0  0  0  0  0  0  0  0  0
   11.8191  -16.7092   29.7086 C   0  0  0  0  0  0  0  0  0  0  0  0
   11.3750  -15.9954   28.4632 C   0  0  0  0  0  0  0  0  0  0  0  0
   11.0579  -16.9436   27.3598 C   0  0  2  0  0  0  0  0  0  0  0  0
   10.4812  -16.1990   26.2284 N   0  0  0  0  0  0  0  0  0  0  0  0
   10.1636  -18.0572   27.6994 C   0  0  0  0  0  0  0  0  0  0  0  0
   10.6251  -19.1399   28.1685 O   0  0  0  0  0  0  0  0  0  0  0  0
   10.9756  -16.7770   30.7757 C   0  0  0  0  0  0  0  0  0  0  0  0
   11.3660  -17.4239   31.9376 C   0  0  0  0  0  0  0  0  0  0  0  0
    8.7955  -17.9948   27.5320 O   0  0  0  0  0  0  0  0  0  0  0  0
  1  2  1  0
  2  3  2  0
  3  4  1  0
  5  6  1  0
  5  4  2  0
  6  7  1  0
  7  8  1  6
  9  7  1  0
 10  9  2  0
 11  5  1  0
 12 11  2  0
 12  2  1  0
 13  9  1  0
 14 15  1  1
 14 13  1  0
 16 24  1  0
 16 15  1  0
 17 16  2  0
 18 17  1  0
 18 19  1  0
 19 24  2  0
 20 19  1  0
 20 21  2  0
 21 22  1  0
 22 23  2  0
 24 23  1  0
 25 14  1  0
 25 34  1  0
 26 25  2  0
 28 38  2  0
 28 27  1  0
 29 28  1  0
 30 31  1  0
 30 29  2  0
 31 37  2  0
 32 31  1  0
 33 34  1  0
 33 32  1  1
 35 33  1  0
 36 35  2  0
 37 38  1  0
 39 35  1  0
M  END
$$$$
