YWY.pdb
     RDKit          3D

 39 42  0  0  1  0  0  0  0  0999 V2000
   12.1384  -18.8900   14.1121 O   0  0  0  0  0  0  0  0  0  0  0  0
   11.9515  -18.6375   15.4640 C   0  0  0  0  0  0  0  0  0  0  0  0
   13.0389  -18.5319   16.3269 C   0  0  0  0  0  0  0  0  0  0  0  0
   12.8646  -18.2797   17.6810 C   0  0  0  0  0  0  0  0  0  0  0  0
   11.6062  -18.1344   18.1642 C   0  0  0  0  0  0  0  0  0  0  0  0
   11.3399  -17.8623   19.5874 C   0  0  0  0  0  0  0  0  0  0  0  0
   10.8320  -16.4625   19.8260 C   0  0  2  0  0  0  0  0  0  0  0  0
   11.8260  -15.5224   19.4220 N   0  0  0  0  0  0  0  0  0  0  0  0
   10.5057  -16.3863   21.2969 C   0  0  0  0  0  0  0  0  0  0  0  0
   11.4577  -16.3265   22.0973 O   0  0  0  0  0  0  0  0  0  0  0  0
   10.5006  -18.2361   17.3138 C   0  0  0  0  0  0  0  0  0  0  0  0
   10.6820  -18.4879   15.9681 C   0  0  0  0  0  0  0  0  0  0  0  0
    9.1918  -16.3848   21.7723 N   0  0  0  0  0  0  0  0  0  0  0  0
    8.8649  -16.4016   23.2096 C   0  0  1  0  0  0  0  0  0  0  0  0
    7.4744  -15.8557   23.2941 C   0  0  0  0  0  0  0  0  0  0  0  0
    7.3746  -14.4070   23.1687 C   0  0  0  0  0  0  0  0  0  0  0  0
    7.5372  -13.6138   22.0709 C   0  0  0  0  0  0  0  0  0  0  0  0
    7.3421  -12.3111   22.4284 N   0  0  0  0  0  0  0  0  0  0  0  0
    7.0545  -12.2464   23.7372 C   0  0  0  0  0  0  0  0  0  0  0  0
    6.7691  -11.1616   24.5563 C   0  0  0  0  0  0  0  0  0  0  0  0
    6.4965  -11.4233   25.8806 C   0  0  0  0  0  0  0  0  0  0  0  0
    6.5020  -12.7009   26.3870 C   0  0  0  0  0  0  0  0  0  0  0  0
    6.7903  -13.7726   25.5529 C   0  0  0  0  0  0  0  0  0  0  0  0
    7.0710  -13.5387   24.2098 C   0  0  0  0  0  0  0  0  0  0  0  0
    8.9898  -17.8085   23.7071 C   0  0  0  0  0  0  0  0  0  0  0  0
    9.6380  -18.7085   23.1439 O   0  0  0  0  0  0  0  0  0  0  0  0
   12.0110  -15.8048   31.3067 O   0  0  0  0  0  0  0  0  0  0  0  0
   11.4039  -15.9935   30.0650 C   0  0  0  0  0  0  0  0  0  0  0  0
   10.4311  -15.1255   29.6387 C   0  0  0  0  0  0  0  0  0  0  0  0
    9.8438  -15.3366   28.3977 C   0  0  0  0  0  0  0  0  0  0  0  0
   10.2688  -16.4200   27.6418 C   0  0  0  0  0  0  0  0  0  0  0  0
    9.6321  -16.6585   26.3019 C   0  0  0  0  0  0  0  0  0  0  0  0
    8.9755  -17.9929   26.2259 C   0  0  2  0  0  0  0  0  0  0  0  0
    8.3087  -18.1340   24.9211 N   0  0  0  0  0  0  0  0  0  0  0  0
    8.0095  -18.3010   27.2876 C   0  0  0  0  0  0  0  0  0  0  0  0
    6.8335  -17.8309   27.2508 O   0  0  0  0  0  0  0  0  0  0  0  0
   11.2364  -17.2712   28.0819 C   0  0  0  0  0  0  0  0  0  0  0  0
   11.8330  -17.0754   29.3175 C   0  0  0  0  0  0  0  0  0  0  0  0
    8.3162  -19.1035   28.3672 O   0  0  0  0  0  0  0  0  0  0  0  0
  1  2  1  0
  2  3  2  0
  3  4  1  0
  5  6  1  0
  5  4  2  0
  6  7  1  0
  7  8  1  1
  9  7  1  0
 10  9  2  0
 11  5  1  0
 12 11  2  0
 12  2  1  0
 13  9  1  0
 14 15  1  6
 14 13  1  0
 16 24  1  0
 16 15  1  0
 17 16  2  0
 18 17  1  0
 18 19  1  0
 19 24  2  0
 20 19  1  0
 20 21  2  0
 21 22  1  0
 22 23  2  0
 24 23  1  0
 25 14  1  0
 25 34  1  0
 26 25  2  0
 28 38  2  0
 28 27  1  0
 29 28  1  0
 30 31  1  0
 30 29  2  0
 31 37  2  0
 32 31  1  0
 33 34  1  0
 33 32  1  1
 35 33  1  0
 36 35  2  0
 37 38  1  0
 39 35  1  0
M  END
$$$$
