YWY.pdb
     RDKit          3D

 39 42  0  0  1  0  0  0  0  0999 V2000
    7.6799  -22.9524   30.0645 O   0  0  0  0  0  0  0  0  0  0  0  0
    7.9137  -22.0730   29.0165 C   0  0  0  0  0  0  0  0  0  0  0  0
    9.2082  -21.8274   28.5668 C   0  0  0  0  0  0  0  0  0  0  0  0
    9.4545  -20.9500   27.5194 C   0  0  0  0  0  0  0  0  0  0  0  0
    8.4072  -20.3240   26.9282 C   0  0  0  0  0  0  0  0  0  0  0  0
    8.5870  -19.3821   25.8099 C   0  0  0  0  0  0  0  0  0  0  0  0
    7.7924  -19.7715   24.5888 C   0  0  2  0  0  0  0  0  0  0  0  0
    8.1326  -21.1033   24.2068 N   0  0  0  0  0  0  0  0  0  0  0  0
    8.1275  -18.7471   23.5334 C   0  0  0  0  0  0  0  0  0  0  0  0
    8.7950  -19.1255   22.5527 O   0  0  0  0  0  0  0  0  0  0  0  0
    7.0992  -20.5577   27.3647 C   0  0  0  0  0  0  0  0  0  0  0  0
    6.8622  -21.4314   28.4077 C   0  0  0  0  0  0  0  0  0  0  0  0
    7.7198  -17.4141   23.6289 N   0  0  0  0  0  0  0  0  0  0  0  0
    8.0856  -16.3956   22.6279 C   0  0  1  0  0  0  0  0  0  0  0  0
    6.9513  -15.4201   22.6397 C   0  0  0  0  0  0  0  0  0  0  0  0
    6.6623  -14.8297   23.9406 C   0  0  0  0  0  0  0  0  0  0  0  0
    6.1915  -15.4160   25.0788 C   0  0  0  0  0  0  0  0  0  0  0  0
    6.0801  -14.4693   26.0556 N   0  0  0  0  0  0  0  0  0  0  0  0
    6.4718  -13.2810   25.5714 C   0  0  0  0  0  0  0  0  0  0  0  0
    6.5498  -12.0314   26.1726 C   0  0  0  0  0  0  0  0  0  0  0  0
    7.0126  -10.9871   25.4033 C   0  0  0  0  0  0  0  0  0  0  0  0
    7.3867  -11.1579   24.0919 C   0  0  0  0  0  0  0  0  0  0  0  0
    7.3010  -12.4145   23.5080 C   0  0  0  0  0  0  0  0  0  0  0  0
    6.8357  -13.4890   24.2606 C   0  0  0  0  0  0  0  0  0  0  0  0
    9.3995  -15.7949   23.0220 C   0  0  0  0  0  0  0  0  0  0  0  0
    9.7764  -14.6475   22.7238 O   0  0  0  0  0  0  0  0  0  0  0  0
    9.1426  -17.2641   30.1311 O   0  0  0  0  0  0  0  0  0  0  0  0
    9.6117  -16.6811   28.9538 C   0  0  0  0  0  0  0  0  0  0  0  0
    8.9280  -15.6360   28.3865 C   0  0  0  0  0  0  0  0  0  0  0  0
    9.4180  -15.0738   27.2146 C   0  0  0  0  0  0  0  0  0  0  0  0
   10.5814  -15.5964   26.6678 C   0  0  0  0  0  0  0  0  0  0  0  0
   11.1125  -14.9981   25.3960 C   0  0  0  0  0  0  0  0  0  0  0  0
   11.4972  -16.0422   24.4064 C   0  0  2  0  0  0  0  0  0  0  0  0
   10.2820  -16.6085   23.7985 N   0  0  0  0  0  0  0  0  0  0  0  0
   12.3292  -17.1402   24.9136 C   0  0  0  0  0  0  0  0  0  0  0  0
   13.4677  -16.9108   25.4203 O   0  0  0  0  0  0  0  0  0  0  0  0
   11.2468  -16.6347   27.2456 C   0  0  0  0  0  0  0  0  0  0  0  0
   10.7720  -17.2074   28.4150 C   0  0  0  0  0  0  0  0  0  0  0  0
   11.9316  -18.4607   24.8704 O   0  0  0  0  0  0  0  0  0  0  0  0
  1  2  1  0
  2  3  2  0
  3  4  1  0
  5  6  1  0
  5  4  2  0
  6  7  1  0
  7  8  1  6
  9  7  1  0
 10  9  2  0
 11  5  1  0
 12 11  2  0
 12  2  1  0
 13  9  1  0
 14 15  1  1
 14 13  1  0
 16 24  1  0
 16 15  1  0
 17 16  2  0
 18 17  1  0
 18 19  1  0
 19 24  2  0
 20 19  1  0
 20 21  2  0
 21 22  1  0
 22 23  2  0
 24 23  1  0
 25 14  1  0
 25 34  1  0
 26 25  2  0
 28 38  2  0
 28 27  1  0
 29 28  1  0
 30 31  1  0
 30 29  2  0
 31 37  2  0
 32 31  1  0
 33 34  1  0
 33 32  1  1
 35 33  1  0
 36 35  2  0
 37 38  1  0
 39 35  1  0
M  END
$$$$
