YWY.pdb
     RDKit          3D

 39 42  0  0  1  0  0  0  0  0999 V2000
   10.0711  -20.6242   16.8777 O   0  0  0  0  0  0  0  0  0  0  0  0
   10.7251  -19.5919   17.5356 C   0  0  0  0  0  0  0  0  0  0  0  0
   11.1054  -19.7233   18.8684 C   0  0  0  0  0  0  0  0  0  0  0  0
   11.7601  -18.6978   19.5371 C   0  0  0  0  0  0  0  0  0  0  0  0
   12.0307  -17.5484   18.8709 C   0  0  0  0  0  0  0  0  0  0  0  0
   12.7243  -16.4168   19.5103 C   0  0  0  0  0  0  0  0  0  0  0  0
   11.8178  -15.2333   19.7377 C   0  0  2  0  0  0  0  0  0  0  0  0
   12.5511  -14.0276   19.5285 N   0  0  0  0  0  0  0  0  0  0  0  0
   11.2982  -15.3753   21.1467 C   0  0  0  0  0  0  0  0  0  0  0  0
   12.0379  -15.0003   22.0756 O   0  0  0  0  0  0  0  0  0  0  0  0
   11.6576  -17.3968   17.5316 C   0  0  0  0  0  0  0  0  0  0  0  0
   11.0061  -18.4212   16.8733 C   0  0  0  0  0  0  0  0  0  0  0  0
   10.0377  -15.9082   21.4288 N   0  0  0  0  0  0  0  0  0  0  0  0
    9.4964  -15.9917   22.7973 C   0  0  1  0  0  0  0  0  0  0  0  0
    8.0332  -15.7162   22.6495 C   0  0  0  0  0  0  0  0  0  0  0  0
    7.6854  -14.3089   22.4971 C   0  0  0  0  0  0  0  0  0  0  0  0
    7.8474  -13.4822   21.4243 C   0  0  0  0  0  0  0  0  0  0  0  0
    7.3678  -12.2436   21.7385 N   0  0  0  0  0  0  0  0  0  0  0  0
    6.8966  -12.2536   22.9946 C   0  0  0  0  0  0  0  0  0  0  0  0
    6.3061  -11.2531   23.7558 C   0  0  0  0  0  0  0  0  0  0  0  0
    5.9078  -11.5814   25.0326 C   0  0  0  0  0  0  0  0  0  0  0  0
    6.0800  -12.8440   25.5477 C   0  0  0  0  0  0  0  0  0  0  0  0
    6.6729  -13.8308   24.7719 C   0  0  0  0  0  0  0  0  0  0  0  0
    7.0869  -13.5280   23.4779 C   0  0  0  0  0  0  0  0  0  0  0  0
    9.7998  -17.3522   23.3444 C   0  0  0  0  0  0  0  0  0  0  0  0
   10.6926  -18.1077   22.9206 O   0  0  0  0  0  0  0  0  0  0  0  0
   12.0800  -15.5967   31.1943 O   0  0  0  0  0  0  0  0  0  0  0  0
   11.5588  -15.7976   29.9160 C   0  0  0  0  0  0  0  0  0  0  0  0
   11.6635  -17.0278   29.3185 C   0  0  0  0  0  0  0  0  0  0  0  0
   11.1351  -17.2001   28.0455 C   0  0  0  0  0  0  0  0  0  0  0  0
   10.5227  -16.1160   27.4326 C   0  0  0  0  0  0  0  0  0  0  0  0
    9.9560  -16.2934   26.0523 C   0  0  0  0  0  0  0  0  0  0  0  0
    9.4628  -17.6800   25.8258 C   0  0  2  0  0  0  0  0  0  0  0  0
    8.9975  -17.8104   24.4352 N   0  0  0  0  0  0  0  0  0  0  0  0
    8.4008  -18.1452   26.7264 C   0  0  0  0  0  0  0  0  0  0  0  0
    7.1961  -17.7987   26.5420 O   0  0  0  0  0  0  0  0  0  0  0  0
   10.4282  -14.9017   28.0418 C   0  0  0  0  0  0  0  0  0  0  0  0
   10.9499  -14.7123   29.3118 C   0  0  0  0  0  0  0  0  0  0  0  0
    8.6439  -18.9698   27.8055 O   0  0  0  0  0  0  0  0  0  0  0  0
  1  2  1  0
  2  3  2  0
  3  4  1  0
  5  6  1  0
  5  4  2  0
  6  7  1  0
  7  8  1  1
  9  7  1  0
 10  9  2  0
 11  5  1  0
 12 11  2  0
 12  2  1  0
 13  9  1  0
 14 15  1  6
 14 13  1  0
 16 24  1  0
 16 15  1  0
 17 16  2  0
 18 17  1  0
 18 19  1  0
 19 24  2  0
 20 19  1  0
 20 21  2  0
 21 22  1  0
 22 23  2  0
 24 23  1  0
 25 14  1  0
 25 34  1  0
 26 25  2  0
 28 38  2  0
 28 27  1  0
 29 28  1  0
 30 31  1  0
 30 29  2  0
 31 37  2  0
 32 31  1  0
 33 34  1  0
 33 32  1  1
 35 33  1  0
 36 35  2  0
 37 38  1  0
 39 35  1  0
M  END
$$$$
