YWY.pdb
     RDKit          3D

 39 42  0  0  1  0  0  0  0  0999 V2000
    7.1219  -18.0030   15.1228 O   0  0  0  0  0  0  0  0  0  0  0  0
    7.5041  -17.4016   16.3139 C   0  0  0  0  0  0  0  0  0  0  0  0
    8.8496  -17.2176   16.6203 C   0  0  0  0  0  0  0  0  0  0  0  0
    9.2442  -16.6174   17.8085 C   0  0  0  0  0  0  0  0  0  0  0  0
    8.2930  -16.2051   18.6823 C   0  0  0  0  0  0  0  0  0  0  0  0
    8.6319  -15.5576   19.9615 C   0  0  0  0  0  0  0  0  0  0  0  0
    9.5883  -16.3762   20.7916 C   0  0  2  0  0  0  0  0  0  0  0  0
    9.0177  -17.6589   21.0451 N   0  0  0  0  0  0  0  0  0  0  0  0
    9.8342  -15.5771   22.0473 C   0  0  0  0  0  0  0  0  0  0  0  0
   10.2953  -14.4276   21.9193 O   0  0  0  0  0  0  0  0  0  0  0  0
    6.9360  -16.3802   18.3928 C   0  0  0  0  0  0  0  0  0  0  0  0
    6.5513  -16.9787   17.2092 C   0  0  0  0  0  0  0  0  0  0  0  0
    9.5667  -16.0850   23.3212 N   0  0  0  0  0  0  0  0  0  0  0  0
    9.8043  -15.3112   24.5532 C   0  0  1  0  0  0  0  0  0  0  0  0
    8.6945  -15.7062   25.4755 C   0  0  0  0  0  0  0  0  0  0  0  0
    7.4619  -14.9451   25.3148 C   0  0  0  0  0  0  0  0  0  0  0  0
    6.2129  -15.3714   24.9696 C   0  0  0  0  0  0  0  0  0  0  0  0
    5.3658  -14.3015   24.9484 N   0  0  0  0  0  0  0  0  0  0  0  0
    6.0430  -13.1904   25.2752 C   0  0  0  0  0  0  0  0  0  0  0  0
    5.6263  -11.8714   25.4005 C   0  0  0  0  0  0  0  0  0  0  0  0
    6.5724  -10.9414   25.7703 C   0  0  0  0  0  0  0  0  0  0  0  0
    7.8805  -11.2885   26.0099 C   0  0  0  0  0  0  0  0  0  0  0  0
    8.2784  -12.6120   25.8788 C   0  0  0  0  0  0  0  0  0  0  0  0
    7.3444  -13.5740   25.5051 C   0  0  0  0  0  0  0  0  0  0  0  0
   11.1672  -15.6527   25.0713 C   0  0  0  0  0  0  0  0  0  0  0  0
   11.6960  -15.1431   26.0755 O   0  0  0  0  0  0  0  0  0  0  0  0
   10.3303  -16.5696   30.7754 O   0  0  0  0  0  0  0  0  0  0  0  0
   10.7727  -17.0574   29.5456 C   0  0  0  0  0  0  0  0  0  0  0  0
   12.0832  -16.8946   29.1748 C   0  0  0  0  0  0  0  0  0  0  0  0
   12.4968  -17.3907   27.9450 C   0  0  0  0  0  0  0  0  0  0  0  0
   11.5625  -18.0312   27.1434 C   0  0  0  0  0  0  0  0  0  0  0  0
   12.0014  -18.5633   25.8086 C   0  0  0  0  0  0  0  0  0  0  0  0
   12.8114  -17.5697   25.0510 C   0  0  2  0  0  0  0  0  0  0  0  0
   11.9106  -16.6389   24.3514 N   0  0  0  0  0  0  0  0  0  0  0  0
   13.7704  -18.1178   24.0840 C   0  0  0  0  0  0  0  0  0  0  0  0
   13.7145  -17.7939   22.8603 O   0  0  0  0  0  0  0  0  0  0  0  0
   10.2651  -18.1835   27.5287 C   0  0  0  0  0  0  0  0  0  0  0  0
    9.8355  -17.6947   28.7524 C   0  0  0  0  0  0  0  0  0  0  0  0
   14.7693  -19.0003   24.4403 O   0  0  0  0  0  0  0  0  0  0  0  0
  1  2  1  0
  2  3  2  0
  3  4  1  0
  5  6  1  0
  5  4  2  0
  6  7  1  0
  7  8  1  1
  9  7  1  0
 10  9  2  0
 11  5  1  0
 12 11  2  0
 12  2  1  0
 13  9  1  0
 14 15  1  1
 14 13  1  0
 16 24  1  0
 16 15  1  0
 17 16  2  0
 18 17  1  0
 18 19  1  0
 19 24  2  0
 20 19  1  0
 20 21  2  0
 21 22  1  0
 22 23  2  0
 24 23  1  0
 25 14  1  0
 25 34  1  0
 26 25  2  0
 28 38  2  0
 28 27  1  0
 29 28  1  0
 30 31  1  0
 30 29  2  0
 31 37  2  0
 32 31  1  0
 33 34  1  0
 33 32  1  6
 35 33  1  0
 36 35  2  0
 37 38  1  0
 39 35  1  0
M  END
$$$$
