YWY.pdb
     RDKit          3D

 39 42  0  0  1  0  0  0  0  0999 V2000
   11.0494  -17.1243   12.6702 O   0  0  0  0  0  0  0  0  0  0  0  0
   11.0377  -16.8906   14.0382 C   0  0  0  0  0  0  0  0  0  0  0  0
   11.5800  -17.8171   14.9247 C   0  0  0  0  0  0  0  0  0  0  0  0
   11.5741  -17.5945   16.2951 C   0  0  0  0  0  0  0  0  0  0  0  0
   11.0272  -16.4488   16.7710 C   0  0  0  0  0  0  0  0  0  0  0  0
   10.9859  -16.1393   18.2108 C   0  0  0  0  0  0  0  0  0  0  0  0
   10.0979  -14.9620   18.5266 C   0  0  2  0  0  0  0  0  0  0  0  0
   10.6757  -13.7745   17.9870 N   0  0  0  0  0  0  0  0  0  0  0  0
    9.9716  -14.9310   20.0295 C   0  0  0  0  0  0  0  0  0  0  0  0
   10.9416  -14.5019   20.6818 O   0  0  0  0  0  0  0  0  0  0  0  0
   10.4780  -15.5051   15.8970 C   0  0  0  0  0  0  0  0  0  0  0  0
   10.4869  -15.7339   14.5352 C   0  0  0  0  0  0  0  0  0  0  0  0
    8.8207  -15.3651   20.6924 N   0  0  0  0  0  0  0  0  0  0  0  0
    8.6986  -15.3616   22.1614 C   0  0  1  0  0  0  0  0  0  0  0  0
    7.2289  -15.4563   22.4253 C   0  0  0  0  0  0  0  0  0  0  0  0
    6.8263  -15.1226   23.7858 C   0  0  0  0  0  0  0  0  0  0  0  0
    6.2609  -15.9099   24.7456 C   0  0  0  0  0  0  0  0  0  0  0  0
    6.0622  -15.1667   25.8729 N   0  0  0  0  0  0  0  0  0  0  0  0
    6.4902  -13.9129   25.6614 C   0  0  0  0  0  0  0  0  0  0  0  0
    6.5115  -12.8028   26.4959 C   0  0  0  0  0  0  0  0  0  0  0  0
    7.0354  -11.6366   25.9840 C   0  0  0  0  0  0  0  0  0  0  0  0
    7.5221  -11.5578   24.7011 C   0  0  0  0  0  0  0  0  0  0  0  0
    7.4917  -12.6778   23.8815 C   0  0  0  0  0  0  0  0  0  0  0  0
    6.9668  -13.8705   24.3711 C   0  0  0  0  0  0  0  0  0  0  0  0
    9.4826  -16.5162   22.7044 C   0  0  0  0  0  0  0  0  0  0  0  0
   10.5449  -16.9463   22.2208 O   0  0  0  0  0  0  0  0  0  0  0  0
   12.0974  -15.1399   30.6558 O   0  0  0  0  0  0  0  0  0  0  0  0
   11.5581  -15.2855   29.3775 C   0  0  0  0  0  0  0  0  0  0  0  0
   12.3236  -15.8068   28.3657 C   0  0  0  0  0  0  0  0  0  0  0  0
   11.7611  -15.9412   27.1028 C   0  0  0  0  0  0  0  0  0  0  0  0
   10.4451  -15.5407   26.9201 C   0  0  0  0  0  0  0  0  0  0  0  0
    9.8330  -15.6762   25.5546 C   0  0  0  0  0  0  0  0  0  0  0  0
    9.6732  -17.1013   25.1538 C   0  0  2  0  0  0  0  0  0  0  0  0
    8.9636  -17.1684   23.8657 N   0  0  0  0  0  0  0  0  0  0  0  0
    8.9895  -17.9726   26.1175 C   0  0  0  0  0  0  0  0  0  0  0  0
    7.7316  -18.1198   26.0799 O   0  0  0  0  0  0  0  0  0  0  0  0
    9.7003  -15.0252   27.9371 C   0  0  0  0  0  0  0  0  0  0  0  0
   10.2457  -14.8842   29.2035 C   0  0  0  0  0  0  0  0  0  0  0  0
    9.6598  -18.6691   27.1019 O   0  0  0  0  0  0  0  0  0  0  0  0
  1  2  1  0
  2  3  2  0
  3  4  1  0
  5  6  1  0
  5  4  2  0
  6  7  1  0
  7  8  1  1
  9  7  1  0
 10  9  2  0
 11  5  1  0
 12 11  2  0
 12  2  1  0
 13  9  1  0
 14 15  1  6
 14 13  1  0
 16 24  1  0
 16 15  1  0
 17 16  2  0
 18 17  1  0
 18 19  1  0
 19 24  2  0
 20 19  1  0
 20 21  2  0
 21 22  1  0
 22 23  2  0
 24 23  1  0
 25 14  1  0
 25 34  1  0
 26 25  2  0
 28 38  2  0
 28 27  1  0
 29 28  1  0
 30 31  1  0
 30 29  2  0
 31 37  2  0
 32 31  1  0
 33 34  1  0
 33 32  1  1
 35 33  1  0
 36 35  2  0
 37 38  1  0
 39 35  1  0
M  END
$$$$
