YWY.pdb
     RDKit          3D

 39 42  0  0  1  0  0  0  0  0999 V2000
    8.3588  -15.6080   13.3594 O   0  0  0  0  0  0  0  0  0  0  0  0
    8.3833  -15.2161   14.6906 C   0  0  0  0  0  0  0  0  0  0  0  0
    7.5769  -14.1751   15.1425 C   0  0  0  0  0  0  0  0  0  0  0  0
    7.5927  -13.7740   16.4716 C   0  0  0  0  0  0  0  0  0  0  0  0
    8.4130  -14.4148   17.3402 C   0  0  0  0  0  0  0  0  0  0  0  0
    8.4840  -14.0497   18.7657 C   0  0  0  0  0  0  0  0  0  0  0  0
    9.3739  -14.9738   19.5585 C   0  0  2  0  0  0  0  0  0  0  0  0
    8.8713  -16.3061   19.4709 N   0  0  0  0  0  0  0  0  0  0  0  0
    9.3811  -14.4333   20.9668 C   0  0  0  0  0  0  0  0  0  0  0  0
    9.7988  -13.2729   21.1379 O   0  0  0  0  0  0  0  0  0  0  0  0
    9.2304  -15.4635   16.9062 C   0  0  0  0  0  0  0  0  0  0  0  0
    9.2097  -15.8563   15.5825 C   0  0  0  0  0  0  0  0  0  0  0  0
    8.9437  -15.1869   22.0592 N   0  0  0  0  0  0  0  0  0  0  0  0
    8.6853  -14.5936   23.3837 C   0  0  1  0  0  0  0  0  0  0  0  0
    7.2623  -14.9402   23.6893 C   0  0  0  0  0  0  0  0  0  0  0  0
    6.8042  -14.5427   25.0147 C   0  0  0  0  0  0  0  0  0  0  0  0
    6.3514  -15.3106   26.0472 C   0  0  0  0  0  0  0  0  0  0  0  0
    6.0374  -14.5019   27.1009 N   0  0  0  0  0  0  0  0  0  0  0  0
    6.2802  -13.2246   26.7702 C   0  0  0  0  0  0  0  0  0  0  0  0
    6.1329  -12.0500   27.4968 C   0  0  0  0  0  0  0  0  0  0  0  0
    6.4858  -10.8730   26.8749 C   0  0  0  0  0  0  0  0  0  0  0  0
    6.9665  -10.8447   25.5876 C   0  0  0  0  0  0  0  0  0  0  0  0
    7.1060  -12.0290   24.8769 C   0  0  0  0  0  0  0  0  0  0  0  0
    6.7562  -13.2342   25.4791 C   0  0  0  0  0  0  0  0  0  0  0  0
    9.6666  -15.1669   24.3589 C   0  0  0  0  0  0  0  0  0  0  0  0
    9.5187  -15.1801   25.5940 O   0  0  0  0  0  0  0  0  0  0  0  0
    9.7791  -16.9535   30.6549 O   0  0  0  0  0  0  0  0  0  0  0  0
   10.0948  -17.1139   29.3056 C   0  0  0  0  0  0  0  0  0  0  0  0
   10.7921  -16.1355   28.6438 C   0  0  0  0  0  0  0  0  0  0  0  0
   11.0936  -16.3215   27.3006 C   0  0  0  0  0  0  0  0  0  0  0  0
   10.6743  -17.4928   26.6859 C   0  0  0  0  0  0  0  0  0  0  0  0
   10.9903  -17.6968   25.2312 C   0  0  0  0  0  0  0  0  0  0  0  0
   11.7555  -16.5538   24.6610 C   0  0  2  0  0  0  0  0  0  0  0  0
   10.8614  -15.7392   23.8218 N   0  0  0  0  0  0  0  0  0  0  0  0
   12.9517  -16.8987   23.8829 C   0  0  0  0  0  0  0  0  0  0  0  0
   14.0800  -17.0185   24.4468 O   0  0  0  0  0  0  0  0  0  0  0  0
    9.9827  -18.4533   27.3596 C   0  0  0  0  0  0  0  0  0  0  0  0
    9.6736  -18.2841   28.7000 C   0  0  0  0  0  0  0  0  0  0  0  0
   12.9216  -17.1088   22.5196 O   0  0  0  0  0  0  0  0  0  0  0  0
  1  2  1  0
  2  3  2  0
  3  4  1  0
  5  6  1  0
  5  4  2  0
  6  7  1  0
  7  8  1  1
  9  7  1  0
 10  9  2  0
 11  5  1  0
 12 11  2  0
 12  2  1  0
 13  9  1  0
 14 15  1  1
 14 13  1  0
 16 24  1  0
 16 15  1  0
 17 16  2  0
 18 17  1  0
 18 19  1  0
 19 24  2  0
 20 19  1  0
 20 21  2  0
 21 22  1  0
 22 23  2  0
 24 23  1  0
 25 14  1  0
 25 34  1  0
 26 25  2  0
 28 38  2  0
 28 27  1  0
 29 28  1  0
 30 31  1  0
 30 29  2  0
 31 37  2  0
 32 31  1  0
 33 34  1  0
 33 32  1  6
 35 33  1  0
 36 35  2  0
 37 38  1  0
 39 35  1  0
M  END
$$$$
