PFE.pdb
     RDKit          3D

 28 29  0  0  1  0  0  0  0  0999 V2000
    7.2307  -14.9990   18.9608 N   0  0  0  0  0  0  0  0  0  0  0  0
    7.1180  -14.6848   17.5440 C   0  0  0  0  0  0  0  0  0  0  0  0
    7.5622  -13.2320   17.5310 C   0  0  0  0  0  0  0  0  0  0  0  0
    8.5791  -13.1032   18.6623 C   0  0  0  0  0  0  0  0  0  0  0  0
    8.5493  -14.4798   19.2640 C   0  0  1  0  0  0  0  0  0  0  0  0
    8.8023  -14.4692   20.7320 C   0  0  0  0  0  0  0  0  0  0  0  0
    9.9916  -14.3907   21.1091 O   0  0  0  0  0  0  0  0  0  0  0  0
    7.7716  -14.5430   21.6873 N   0  0  0  0  0  0  0  0  0  0  0  0
    7.9591  -14.3159   23.0885 C   0  0  1  0  0  0  0  0  0  0  0  0
    6.9935  -13.3717   23.7137 C   0  0  0  0  0  0  0  0  0  0  0  0
    7.1558  -13.1022   25.1332 C   0  0  0  0  0  0  0  0  0  0  0  0
    6.5187  -13.8572   26.0883 C   0  0  0  0  0  0  0  0  0  0  0  0
    6.6905  -13.6010   27.4503 C   0  0  0  0  0  0  0  0  0  0  0  0
    7.5079  -12.5786   27.8781 C   0  0  0  0  0  0  0  0  0  0  0  0
    8.1483  -11.8195   26.9236 C   0  0  0  0  0  0  0  0  0  0  0  0
    7.9680  -12.0856   25.5805 C   0  0  0  0  0  0  0  0  0  0  0  0
    8.2238  -15.5503   23.8782 C   0  0  0  0  0  0  0  0  0  0  0  0
    7.3365  -16.4597   23.9170 O   0  0  0  0  0  0  0  0  0  0  0  0
    9.4014  -15.8113   24.6128 N   0  0  0  0  0  0  0  0  0  0  0  0
    9.7073  -17.1228   25.1973 C   0  0  1  0  0  0  0  0  0  0  0  0
   10.9343  -17.7047   24.5996 C   0  0  0  0  0  0  0  0  0  0  0  0
   12.1325  -16.8400   24.8330 C   0  0  0  0  0  0  0  0  0  0  0  0
   13.3043  -17.1640   23.9928 C   0  0  0  0  0  0  0  0  0  0  0  0
   13.7122  -18.3060   23.6943 O   0  0  0  0  0  0  0  0  0  0  0  0
    9.8510  -16.9172   26.6490 C   0  0  0  0  0  0  0  0  0  0  0  0
    9.8286  -15.8000   27.2143 O   0  0  0  0  0  0  0  0  0  0  0  0
   14.0358  -16.0930   23.4757 O   0  0  0  0  0  0  0  0  0  0  0  0
   10.0247  -18.0145   27.4775 O   0  0  0  0  0  0  0  0  0  0  0  0
  1  5  1  0
  2  3  1  0
  2  1  1  0
  3  4  1  0
  5  4  1  0
  5  6  1  1
  6  7  2  0
  8  9  1  0
  8  6  1  0
  9 17  1  0
 10 11  1  0
  9 10  1  1
 11 12  2  0
 12 13  1  0
 14 13  2  0
 15 14  1  0
 16 15  2  0
 16 11  1  0
 17 18  2  0
 19 20  1  0
 19 17  1  0
 20 25  1  0
 20 21  1  6
 22 23  1  0
 22 21  1  0
 23 24  2  0
 25 26  2  0
 25 28  1  0
 27 23  1  0
M  END
$$$$
