PFE.pdb
     RDKit          3D

 28 29  0  0  1  0  0  0  0  0999 V2000
    7.4649  -15.1694   19.1020 N   0  0  0  0  0  0  0  0  0  0  0  0
    7.2439  -14.8124   17.7082 C   0  0  0  0  0  0  0  0  0  0  0  0
    7.2113  -13.2961   17.7969 C   0  0  0  0  0  0  0  0  0  0  0  0
    8.1493  -12.9314   18.9449 C   0  0  0  0  0  0  0  0  0  0  0  0
    8.5581  -14.2852   19.4530 C   0  0  1  0  0  0  0  0  0  0  0  0
    8.8112  -14.2940   20.9210 C   0  0  0  0  0  0  0  0  0  0  0  0
    9.9919  -14.1382   21.3010 O   0  0  0  0  0  0  0  0  0  0  0  0
    7.7897  -14.4677   21.8732 N   0  0  0  0  0  0  0  0  0  0  0  0
    7.9572  -14.2487   23.2782 C   0  0  1  0  0  0  0  0  0  0  0  0
    6.7835  -13.6532   23.9726 C   0  0  0  0  0  0  0  0  0  0  0  0
    6.9261  -13.3730   25.3921 C   0  0  0  0  0  0  0  0  0  0  0  0
    7.3211  -12.1383   25.8477 C   0  0  0  0  0  0  0  0  0  0  0  0
    7.4424  -11.8727   27.2133 C   0  0  0  0  0  0  0  0  0  0  0  0
    7.1682  -12.8459   28.1483 C   0  0  0  0  0  0  0  0  0  0  0  0
    6.7720  -14.0849   27.6955 C   0  0  0  0  0  0  0  0  0  0  0  0
    6.6568  -14.3318   26.3416 C   0  0  0  0  0  0  0  0  0  0  0  0
    8.6010  -15.3802   24.0011 C   0  0  0  0  0  0  0  0  0  0  0  0
    8.0234  -16.5125   24.0134 O   0  0  0  0  0  0  0  0  0  0  0  0
    9.8273  -15.3101   24.6980 N   0  0  0  0  0  0  0  0  0  0  0  0
   10.6998  -16.4728   24.9038 C   0  0  1  0  0  0  0  0  0  0  0  0
   12.0746  -16.2065   24.4137 C   0  0  0  0  0  0  0  0  0  0  0  0
   12.9860  -17.3690   24.6500 C   0  0  0  0  0  0  0  0  0  0  0  0
   14.3474  -17.2122   24.0969 C   0  0  0  0  0  0  0  0  0  0  0  0
   15.0535  -18.1107   23.5934 O   0  0  0  0  0  0  0  0  0  0  0  0
   10.6814  -16.7669   26.3472 C   0  0  0  0  0  0  0  0  0  0  0  0
   11.0928  -17.8324   26.8608 O   0  0  0  0  0  0  0  0  0  0  0  0
   14.9102  -15.9349   24.1363 O   0  0  0  0  0  0  0  0  0  0  0  0
   10.1809  -15.8212   27.2278 O   0  0  0  0  0  0  0  0  0  0  0  0
  1  5  1  0
  2  3  1  0
  2  1  1  0
  3  4  1  0
  5  4  1  0
  5  6  1  1
  6  7  2  0
  8  9  1  0
  8  6  1  0
  9 17  1  0
 10 11  1  0
  9 10  1  1
 11 12  2  0
 12 13  1  0
 14 13  2  0
 15 14  1  0
 16 15  2  0
 16 11  1  0
 17 18  2  0
 19 20  1  0
 19 17  1  0
 20 25  1  0
 20 21  1  1
 22 23  1  0
 22 21  1  0
 23 24  2  0
 25 26  2  0
 25 28  1  0
 27 23  1  0
M  END
$$$$
