PFE.pdb
     RDKit          3D

 28 29  0  0  1  0  0  0  0  0999 V2000
    7.2416  -15.0815   18.9788 N   0  0  0  0  0  0  0  0  0  0  0  0
    7.0263  -14.7978   17.5674 C   0  0  0  0  0  0  0  0  0  0  0  0
    7.1370  -13.2827   17.5540 C   0  0  0  0  0  0  0  0  0  0  0  0
    8.1283  -12.9334   18.6612 C   0  0  0  0  0  0  0  0  0  0  0  0
    8.4195  -14.2832   19.2536 C   0  0  1  0  0  0  0  0  0  0  0  0
    8.7009  -14.2192   20.7151 C   0  0  0  0  0  0  0  0  0  0  0  0
    9.8596  -13.9048   21.0635 O   0  0  0  0  0  0  0  0  0  0  0  0
    7.7289  -14.4942   21.6948 N   0  0  0  0  0  0  0  0  0  0  0  0
    7.9209  -14.2800   23.0974 C   0  0  1  0  0  0  0  0  0  0  0  0
    6.7606  -13.6840   23.8136 C   0  0  0  0  0  0  0  0  0  0  0  0
    6.9424  -13.3687   25.2213 C   0  0  0  0  0  0  0  0  0  0  0  0
    6.7697  -14.3166   26.2010 C   0  0  0  0  0  0  0  0  0  0  0  0
    6.9597  -14.0096   27.5500 C   0  0  0  0  0  0  0  0  0  0  0  0
    7.3276  -12.7411   27.9398 C   0  0  0  0  0  0  0  0  0  0  0  0
    7.5016  -11.7882   26.9606 C   0  0  0  0  0  0  0  0  0  0  0  0
    7.3099  -12.1075   25.6307 C   0  0  0  0  0  0  0  0  0  0  0  0
    8.5743  -15.4153   23.8057 C   0  0  0  0  0  0  0  0  0  0  0  0
    8.0295  -16.5630   23.7652 O   0  0  0  0  0  0  0  0  0  0  0  0
    9.7759  -15.3329   24.5432 N   0  0  0  0  0  0  0  0  0  0  0  0
   10.6566  -16.4851   24.7718 C   0  0  1  0  0  0  0  0  0  0  0  0
   12.0734  -16.1417   24.4958 C   0  0  0  0  0  0  0  0  0  0  0  0
   12.9998  -17.2564   24.8660 C   0  0  0  0  0  0  0  0  0  0  0  0
   14.4250  -17.0029   24.5690 C   0  0  0  0  0  0  0  0  0  0  0  0
   15.0508  -17.3751   23.5545 O   0  0  0  0  0  0  0  0  0  0  0  0
   10.4574  -16.9004   26.1711 C   0  0  0  0  0  0  0  0  0  0  0  0
   10.2799  -18.0829   26.5431 O   0  0  0  0  0  0  0  0  0  0  0  0
   15.1545  -16.2747   25.5110 O   0  0  0  0  0  0  0  0  0  0  0  0
   10.4607  -15.9421   27.1721 O   0  0  0  0  0  0  0  0  0  0  0  0
  1  5  1  0
  2  3  1  0
  2  1  1  0
  3  4  1  0
  5  4  1  0
  5  6  1  1
  6  7  2  0
  8  9  1  0
  8  6  1  0
  9 17  1  0
 10 11  1  0
  9 10  1  1
 11 12  2  0
 12 13  1  0
 14 13  2  0
 15 14  1  0
 16 15  2  0
 16 11  1  0
 17 18  2  0
 19 20  1  0
 19 17  1  0
 20 25  1  0
 20 21  1  1
 22 23  1  0
 22 21  1  0
 23 24  2  0
 25 26  2  0
 25 28  1  0
 27 23  1  0
M  END
$$$$
