PFE.pdb
     RDKit          3D

 28 29  0  0  1  0  0  0  0  0999 V2000
    7.6031  -15.4117   19.0221 N   0  0  0  0  0  0  0  0  0  0  0  0
    7.3754  -15.1642   17.6059 C   0  0  0  0  0  0  0  0  0  0  0  0
    7.1571  -13.6607   17.6037 C   0  0  0  0  0  0  0  0  0  0  0  0
    8.0151  -13.1194   18.7446 C   0  0  0  0  0  0  0  0  0  0  0  0
    8.5721  -14.3818   19.3394 C   0  0  1  0  0  0  0  0  0  0  0  0
    8.7877  -14.2762   20.8096 C   0  0  0  0  0  0  0  0  0  0  0  0
    9.9485  -14.0307   21.2034 O   0  0  0  0  0  0  0  0  0  0  0  0
    7.7528  -14.4394   21.7490 N   0  0  0  0  0  0  0  0  0  0  0  0
    7.9036  -14.2160   23.1553 C   0  0  1  0  0  0  0  0  0  0  0  0
    6.7146  -13.6370   23.8374 C   0  0  0  0  0  0  0  0  0  0  0  0
    6.8184  -13.4097   25.2698 C   0  0  0  0  0  0  0  0  0  0  0  0
    6.4223  -14.3584   26.1813 C   0  0  0  0  0  0  0  0  0  0  0  0
    6.5381  -14.1383   27.5555 C   0  0  0  0  0  0  0  0  0  0  0  0
    7.0555  -12.9574   28.0396 C   0  0  0  0  0  0  0  0  0  0  0  0
    7.4538  -12.0039   27.1289 C   0  0  0  0  0  0  0  0  0  0  0  0
    7.3327  -12.2368   25.7730 C   0  0  0  0  0  0  0  0  0  0  0  0
    8.5569  -15.3370   23.8861 C   0  0  0  0  0  0  0  0  0  0  0  0
    8.0052  -16.4821   23.8795 O   0  0  0  0  0  0  0  0  0  0  0  0
    9.7657  -15.2432   24.6103 N   0  0  0  0  0  0  0  0  0  0  0  0
   10.5812  -16.4118   24.9635 C   0  0  1  0  0  0  0  0  0  0  0  0
   12.0126  -16.1840   24.6468 C   0  0  0  0  0  0  0  0  0  0  0  0
   12.8742  -17.3136   25.1153 C   0  0  0  0  0  0  0  0  0  0  0  0
   14.3064  -17.1835   24.7753 C   0  0  0  0  0  0  0  0  0  0  0  0
   15.2046  -18.0197   25.0070 O   0  0  0  0  0  0  0  0  0  0  0  0
   10.3716  -16.6566   26.4010 C   0  0  0  0  0  0  0  0  0  0  0  0
    9.8090  -15.8570   27.1836 O   0  0  0  0  0  0  0  0  0  0  0  0
   14.7063  -16.0117   24.1298 O   0  0  0  0  0  0  0  0  0  0  0  0
   10.8153  -17.8442   26.9606 O   0  0  0  0  0  0  0  0  0  0  0  0
  1  5  1  0
  2  3  1  0
  2  1  1  0
  3  4  1  0
  5  4  1  0
  5  6  1  1
  6  7  2  0
  8  9  1  0
  8  6  1  0
  9 17  1  0
 10 11  1  0
  9 10  1  1
 11 12  2  0
 12 13  1  0
 14 13  2  0
 15 14  1  0
 16 15  2  0
 16 11  1  0
 17 18  2  0
 19 20  1  0
 19 17  1  0
 20 25  1  0
 20 21  1  1
 22 23  1  0
 22 21  1  0
 23 24  2  0
 25 26  2  0
 25 28  1  0
 27 23  1  0
M  END
$$$$
