PFE.pdb
     RDKit          3D

 28 29  0  0  1  0  0  0  0  0999 V2000
    7.5775  -15.4562   19.0189 N   0  0  0  0  0  0  0  0  0  0  0  0
    7.4599  -15.2493   17.5829 C   0  0  0  0  0  0  0  0  0  0  0  0
    7.5989  -13.7390   17.4933 C   0  0  0  0  0  0  0  0  0  0  0  0
    8.5221  -13.3426   18.6427 C   0  0  0  0  0  0  0  0  0  0  0  0
    8.7494  -14.6612   19.3266 C   0  0  1  0  0  0  0  0  0  0  0  0
    8.9359  -14.5191   20.7977 C   0  0  0  0  0  0  0  0  0  0  0  0
   10.1040  -14.3665   21.2162 O   0  0  0  0  0  0  0  0  0  0  0  0
    7.8665  -14.5501   21.7118 N   0  0  0  0  0  0  0  0  0  0  0  0
    8.0062  -14.3182   23.1178 C   0  0  1  0  0  0  0  0  0  0  0  0
    7.0398  -13.3482   23.7006 C   0  0  0  0  0  0  0  0  0  0  0  0
    7.1292  -13.1029   25.1309 C   0  0  0  0  0  0  0  0  0  0  0  0
    6.3225  -13.7612   26.0276 C   0  0  0  0  0  0  0  0  0  0  0  0
    6.4238  -13.5305   27.4011 C   0  0  0  0  0  0  0  0  0  0  0  0
    7.3402  -12.6315   27.8997 C   0  0  0  0  0  0  0  0  0  0  0  0
    8.1506  -11.9696   27.0040 C   0  0  0  0  0  0  0  0  0  0  0  0
    8.0381  -12.2089   25.6485 C   0  0  0  0  0  0  0  0  0  0  0  0
    8.2124  -15.5532   23.9238 C   0  0  0  0  0  0  0  0  0  0  0  0
    7.2962  -16.4340   23.9481 O   0  0  0  0  0  0  0  0  0  0  0  0
    9.3628  -15.8442   24.6896 N   0  0  0  0  0  0  0  0  0  0  0  0
    9.6500  -17.1792   25.2289 C   0  0  1  0  0  0  0  0  0  0  0  0
   10.9185  -17.7190   24.6803 C   0  0  0  0  0  0  0  0  0  0  0  0
   11.3039  -19.0090   25.3324 C   0  0  0  0  0  0  0  0  0  0  0  0
   12.5359  -19.6286   24.8012 C   0  0  0  0  0  0  0  0  0  0  0  0
   12.7410  -20.8487   24.6314 O   0  0  0  0  0  0  0  0  0  0  0  0
    9.7028  -17.0423   26.6947 C   0  0  0  0  0  0  0  0  0  0  0  0
    9.7423  -18.0028   27.4974 O   0  0  0  0  0  0  0  0  0  0  0  0
   13.5820  -18.7727   24.4508 O   0  0  0  0  0  0  0  0  0  0  0  0
    9.7109  -15.7770   27.2599 O   0  0  0  0  0  0  0  0  0  0  0  0
  1  5  1  0
  2  3  1  0
  2  1  1  0
  3  4  1  0
  5  4  1  0
  5  6  1  1
  6  7  2  0
  8  9  1  0
  8  6  1  0
  9 17  1  0
 10 11  1  0
  9 10  1  1
 11 12  2  0
 12 13  1  0
 14 13  2  0
 15 14  1  0
 16 15  2  0
 16 11  1  0
 17 18  2  0
 19 20  1  0
 19 17  1  0
 20 25  1  0
 20 21  1  6
 22 23  1  0
 22 21  1  0
 23 24  2  0
 25 26  2  0
 25 28  1  0
 27 23  1  0
M  END
$$$$
