PFE.pdb
     RDKit          3D

 28 29  0  0  1  0  0  0  0  0999 V2000
    7.3373  -15.1789   19.0765 N   0  0  0  0  0  0  0  0  0  0  0  0
    7.0595  -14.8575   17.6843 C   0  0  0  0  0  0  0  0  0  0  0  0
    7.0297  -13.3393   17.7355 C   0  0  0  0  0  0  0  0  0  0  0  0
    8.0134  -12.9460   18.8347 C   0  0  0  0  0  0  0  0  0  0  0  0
    8.4434  -14.2865   19.3600 C   0  0  1  0  0  0  0  0  0  0  0  0
    8.7561  -14.2580   20.8163 C   0  0  0  0  0  0  0  0  0  0  0  0
    9.9485  -14.0746   21.1440 O   0  0  0  0  0  0  0  0  0  0  0  0
    7.7773  -14.4267   21.8131 N   0  0  0  0  0  0  0  0  0  0  0  0
    8.0192  -14.2482   23.2131 C   0  0  1  0  0  0  0  0  0  0  0  0
    6.8606  -13.7434   23.9986 C   0  0  0  0  0  0  0  0  0  0  0  0
    7.0876  -13.4620   25.4069 C   0  0  0  0  0  0  0  0  0  0  0  0
    7.4762  -12.2173   25.8403 C   0  0  0  0  0  0  0  0  0  0  0  0
    7.6789  -11.9510   27.1961 C   0  0  0  0  0  0  0  0  0  0  0  0
    7.4942  -12.9334   28.1433 C   0  0  0  0  0  0  0  0  0  0  0  0
    7.1047  -14.1824   27.7127 C   0  0  0  0  0  0  0  0  0  0  0  0
    6.9083  -14.4300   26.3682 C   0  0  0  0  0  0  0  0  0  0  0  0
    8.7656  -15.3670   23.8522 C   0  0  0  0  0  0  0  0  0  0  0  0
    8.2908  -16.5441   23.7830 O   0  0  0  0  0  0  0  0  0  0  0  0
    9.9855  -15.2384   24.5521 N   0  0  0  0  0  0  0  0  0  0  0  0
   10.8696  -16.3753   24.8374 C   0  0  1  0  0  0  0  0  0  0  0  0
   12.2804  -16.0547   24.5088 C   0  0  0  0  0  0  0  0  0  0  0  0
   13.2026  -17.1820   24.8502 C   0  0  0  0  0  0  0  0  0  0  0  0
   14.6228  -16.9438   24.5179 C   0  0  0  0  0  0  0  0  0  0  0  0
   15.0961  -15.9325   23.9588 O   0  0  0  0  0  0  0  0  0  0  0  0
   10.7002  -16.6967   26.2651 C   0  0  0  0  0  0  0  0  0  0  0  0
   10.1902  -15.9272   27.1112 O   0  0  0  0  0  0  0  0  0  0  0  0
   15.5355  -17.9439   24.8592 O   0  0  0  0  0  0  0  0  0  0  0  0
   11.1236  -17.9278   26.7401 O   0  0  0  0  0  0  0  0  0  0  0  0
  1  5  1  0
  2  3  1  0
  2  1  1  0
  3  4  1  0
  5  4  1  0
  5  6  1  1
  6  7  2  0
  8  9  1  0
  8  6  1  0
  9 17  1  0
 10 11  1  0
  9 10  1  1
 11 12  2  0
 12 13  1  0
 14 13  2  0
 15 14  1  0
 16 15  2  0
 16 11  1  0
 17 18  2  0
 19 20  1  0
 19 17  1  0
 20 25  1  0
 20 21  1  1
 22 23  1  0
 22 21  1  0
 23 24  2  0
 25 26  2  0
 25 28  1  0
 27 23  1  0
M  END
$$$$
