PFE.pdb
     RDKit          3D

 28 29  0  0  1  0  0  0  0  0999 V2000
    6.8161  -15.1719   20.7065 N   0  0  0  0  0  0  0  0  0  0  0  0
    6.1440  -14.7710   19.4791 C   0  0  0  0  0  0  0  0  0  0  0  0
    6.4861  -13.2916   19.4287 C   0  0  0  0  0  0  0  0  0  0  0  0
    7.8586  -13.1648   20.0850 C   0  0  0  0  0  0  0  0  0  0  0  0
    8.1249  -14.5777   20.5220 C   0  0  1  0  0  0  0  0  0  0  0  0
    8.9323  -14.6484   21.7720 C   0  0  0  0  0  0  0  0  0  0  0  0
   10.1483  -14.3711   21.6865 O   0  0  0  0  0  0  0  0  0  0  0  0
    8.3854  -15.0086   23.0175 N   0  0  0  0  0  0  0  0  0  0  0  0
    9.1109  -14.9762   24.2515 C   0  0  1  0  0  0  0  0  0  0  0  0
    8.2893  -14.7165   25.4647 C   0  0  0  0  0  0  0  0  0  0  0  0
    8.9911  -14.6404   26.7358 C   0  0  0  0  0  0  0  0  0  0  0  0
    9.2770  -15.7657   27.4706 C   0  0  0  0  0  0  0  0  0  0  0  0
    9.9638  -15.6858   28.6839 C   0  0  0  0  0  0  0  0  0  0  0  0
   10.3768  -14.4702   29.1819 C   0  0  0  0  0  0  0  0  0  0  0  0
   10.0921  -13.3398   28.4482 C   0  0  0  0  0  0  0  0  0  0  0  0
    9.4120  -13.4355   27.2500 C   0  0  0  0  0  0  0  0  0  0  0  0
   10.1142  -16.0666   24.3999 C   0  0  0  0  0  0  0  0  0  0  0  0
    9.7230  -17.2751   24.3535 O   0  0  0  0  0  0  0  0  0  0  0  0
   11.4998  -15.8781   24.5971 N   0  0  0  0  0  0  0  0  0  0  0  0
   12.4827  -16.9609   24.4662 C   0  0  1  0  0  0  0  0  0  0  0  0
   13.7463  -16.4698   23.8633 C   0  0  0  0  0  0  0  0  0  0  0  0
   14.7977  -17.5333   23.8281 C   0  0  0  0  0  0  0  0  0  0  0  0
   16.0976  -17.1020   23.2731 C   0  0  0  0  0  0  0  0  0  0  0  0
   16.3938  -15.9549   22.8782 O   0  0  0  0  0  0  0  0  0  0  0  0
   12.6973  -17.5048   25.8183 C   0  0  0  0  0  0  0  0  0  0  0  0
   12.5912  -16.8427   26.8760 O   0  0  0  0  0  0  0  0  0  0  0  0
   17.1028  -18.0664   23.1762 O   0  0  0  0  0  0  0  0  0  0  0  0
   13.0420  -18.8387   25.9681 O   0  0  0  0  0  0  0  0  0  0  0  0
  1  5  1  0
  2  3  1  0
  2  1  1  0
  3  4  1  0
  5  4  1  0
  5  6  1  1
  6  7  2  0
  8  9  1  0
  8  6  1  0
  9 17  1  0
 10 11  1  0
  9 10  1  1
 11 12  2  0
 12 13  1  0
 14 13  2  0
 15 14  1  0
 16 15  2  0
 16 11  1  0
 17 18  2  0
 19 20  1  0
 19 17  1  0
 20 25  1  0
 20 21  1  1
 22 23  1  0
 22 21  1  0
 23 24  2  0
 25 26  2  0
 25 28  1  0
 27 23  1  0
M  END
$$$$
