PFE.pdb
     RDKit          3D

 28 29  0  0  1  0  0  0  0  0999 V2000
    7.5399  -15.0256   19.0178 N   0  0  0  0  0  0  0  0  0  0  0  0
    7.4620  -14.6705   17.6083 C   0  0  0  0  0  0  0  0  0  0  0  0
    7.6650  -13.1663   17.6746 C   0  0  0  0  0  0  0  0  0  0  0  0
    8.5786  -12.9275   18.8742 C   0  0  0  0  0  0  0  0  0  0  0  0
    8.7365  -14.3167   19.4248 C   0  0  1  0  0  0  0  0  0  0  0  0
    8.8968  -14.3314   20.9058 C   0  0  0  0  0  0  0  0  0  0  0  0
   10.0588  -14.4278   21.3566 O   0  0  0  0  0  0  0  0  0  0  0  0
    7.8095  -14.2424   21.7947 N   0  0  0  0  0  0  0  0  0  0  0  0
    7.9422  -14.1471   23.2171 C   0  0  1  0  0  0  0  0  0  0  0  0
    6.9494  -13.2662   23.8901 C   0  0  0  0  0  0  0  0  0  0  0  0
    7.0647  -13.1193   25.3320 C   0  0  0  0  0  0  0  0  0  0  0  0
    7.6698  -12.0240   25.8995 C   0  0  0  0  0  0  0  0  0  0  0  0
    7.7643  -11.8834   27.2857 C   0  0  0  0  0  0  0  0  0  0  0  0
    7.2511  -12.8437   28.1288 C   0  0  0  0  0  0  0  0  0  0  0  0
    6.6437  -13.9432   27.5636 C   0  0  0  0  0  0  0  0  0  0  0  0
    6.5582  -14.0676   26.1908 C   0  0  0  0  0  0  0  0  0  0  0  0
    8.1817  -15.4497   23.8977 C   0  0  0  0  0  0  0  0  0  0  0  0
    7.5029  -16.4645   23.5438 O   0  0  0  0  0  0  0  0  0  0  0  0
    9.1173  -15.6689   24.9326 N   0  0  0  0  0  0  0  0  0  0  0  0
    9.8398  -16.9353   25.1051 C   0  0  1  0  0  0  0  0  0  0  0  0
   10.8726  -17.1123   24.0548 C   0  0  0  0  0  0  0  0  0  0  0  0
   11.7001  -18.3368   24.2869 C   0  0  0  0  0  0  0  0  0  0  0  0
   12.6954  -18.6217   23.2324 C   0  0  0  0  0  0  0  0  0  0  0  0
   12.4561  -18.8788   22.0340 O   0  0  0  0  0  0  0  0  0  0  0  0
   10.4313  -16.9061   26.4540 C   0  0  0  0  0  0  0  0  0  0  0  0
   11.0253  -17.8691   26.9907 O   0  0  0  0  0  0  0  0  0  0  0  0
   14.0416  -18.6043   23.6026 O   0  0  0  0  0  0  0  0  0  0  0  0
   10.3430  -15.7483   27.2105 O   0  0  0  0  0  0  0  0  0  0  0  0
  1  5  1  0
  2  3  1  0
  2  1  1  0
  3  4  1  0
  5  4  1  0
  5  6  1  1
  6  7  2  0
  8  9  1  0
  8  6  1  0
  9 17  1  0
 10 11  1  0
  9 10  1  1
 11 12  2  0
 12 13  1  0
 14 13  2  0
 15 14  1  0
 16 15  2  0
 16 11  1  0
 17 18  2  0
 19 20  1  0
 19 17  1  0
 20 25  1  0
 20 21  1  6
 22 23  1  0
 22 21  1  0
 23 24  2  0
 25 26  2  0
 25 28  1  0
 27 23  1  0
M  END
$$$$
