PFE.pdb
     RDKit          3D

 28 29  0  0  1  0  0  0  0  0999 V2000
    7.1110  -15.8789   20.8656 N   0  0  0  0  0  0  0  0  0  0  0  0
    6.4429  -15.5350   19.6189 C   0  0  0  0  0  0  0  0  0  0  0  0
    6.5398  -14.0190   19.6443 C   0  0  0  0  0  0  0  0  0  0  0  0
    7.8394  -13.7028   20.3804 C   0  0  0  0  0  0  0  0  0  0  0  0
    8.3121  -15.0729   20.7772 C   0  0  1  0  0  0  0  0  0  0  0  0
    9.0582  -15.0706   22.0666 C   0  0  0  0  0  0  0  0  0  0  0  0
   10.2436  -14.6743   22.0432 O   0  0  0  0  0  0  0  0  0  0  0  0
    8.4873  -15.4897   23.2825 N   0  0  0  0  0  0  0  0  0  0  0  0
    9.1161  -15.3346   24.5595 C   0  0  1  0  0  0  0  0  0  0  0  0
    8.2436  -14.7908   25.6353 C   0  0  0  0  0  0  0  0  0  0  0  0
    8.8594  -14.5545   26.9311 C   0  0  0  0  0  0  0  0  0  0  0  0
    9.2375  -13.2956   27.3314 C   0  0  0  0  0  0  0  0  0  0  0  0
    9.8157  -13.0746   28.5832 C   0  0  0  0  0  0  0  0  0  0  0  0
   10.0250  -14.1177   29.4576 C   0  0  0  0  0  0  0  0  0  0  0  0
    9.6473  -15.3812   29.0599 C   0  0  0  0  0  0  0  0  0  0  0  0
    9.0767  -15.5834   27.8186 C   0  0  0  0  0  0  0  0  0  0  0  0
    9.9636  -16.4888   24.9681 C   0  0  0  0  0  0  0  0  0  0  0  0
    9.4198  -17.6263   25.1305 O   0  0  0  0  0  0  0  0  0  0  0  0
   11.3552  -16.4357   25.2029 N   0  0  0  0  0  0  0  0  0  0  0  0
   12.1599  -17.6213   25.5230 C   0  0  1  0  0  0  0  0  0  0  0  0
   13.5882  -17.4094   25.1820 C   0  0  0  0  0  0  0  0  0  0  0  0
   13.7775  -17.1233   23.7260 C   0  0  0  0  0  0  0  0  0  0  0  0
   15.0942  -16.5531   23.3721 C   0  0  0  0  0  0  0  0  0  0  0  0
   15.3032  -15.5626   22.6408 O   0  0  0  0  0  0  0  0  0  0  0  0
   11.9742  -17.8847   26.9604 C   0  0  0  0  0  0  0  0  0  0  0  0
   11.3643  -17.1268   27.7490 O   0  0  0  0  0  0  0  0  0  0  0  0
   16.2246  -17.1769   23.9035 O   0  0  0  0  0  0  0  0  0  0  0  0
   12.4977  -19.0428   27.5129 O   0  0  0  0  0  0  0  0  0  0  0  0
  1  5  1  0
  2  3  1  0
  2  1  1  0
  3  4  1  0
  5  4  1  0
  5  6  1  1
  6  7  2  0
  8  9  1  0
  8  6  1  0
  9 17  1  0
 10 11  1  0
  9 10  1  1
 11 12  2  0
 12 13  1  0
 14 13  2  0
 15 14  1  0
 16 15  2  0
 16 11  1  0
 17 18  2  0
 19 20  1  0
 19 17  1  0
 20 25  1  0
 20 21  1  1
 22 23  1  0
 22 21  1  0
 23 24  2  0
 25 26  2  0
 25 28  1  0
 27 23  1  0
M  END
$$$$
