VCP.pdb
     RDKit          3D

 21 21  0  0  1  0  0  0  0  0999 V2000
   19.2153   -9.7155  -19.1999 C   0  0  0  0  0  0  0  0  0  0  0  0
   20.4892  -10.3926  -18.7507 C   0  0  2  0  0  0  0  0  0  0  0  0
   20.7801  -11.5428  -19.6539 C   0  0  0  0  0  0  0  0  0  0  0  0
   20.3922  -10.8098  -17.2870 C   0  0  2  0  0  0  0  0  0  0  0  0
   19.2846  -11.7174  -17.1775 N   0  0  0  0  0  0  0  0  0  0  0  0
   20.1833   -9.5585  -16.5131 C   0  0  0  0  0  0  0  0  0  0  0  0
   18.9959   -9.2060  -16.3199 O   0  0  0  0  0  0  0  0  0  0  0  0
   21.2141   -8.7679  -15.9989 N   0  0  0  0  0  0  0  0  0  0  0  0
   21.0490   -7.5315  -15.2580 C   0  0  1  0  0  0  0  0  0  0  0  0
   21.6912   -7.6081  -13.8961 C   0  0  0  0  0  0  0  0  0  0  0  0
   21.5967   -5.9359  -13.1457 S   0  0  0  0  0  0  0  0  0  0  0  0
   21.5899   -6.4289  -16.0873 C   0  0  0  0  0  0  0  0  0  0  0  0
   22.7102   -6.5902  -16.6347 O   0  0  0  0  0  0  0  0  0  0  0  0
   20.9213   -5.1963  -16.3049 N   0  0  0  0  0  0  0  0  0  0  0  0
   19.6085   -4.7906  -15.8497 C   0  0  0  0  0  0  0  0  0  0  0  0
   19.1275   -3.8188  -16.9042 C   0  0  0  0  0  0  0  0  0  0  0  0
   20.3450   -3.2868  -17.5947 C   0  0  0  0  0  0  0  0  0  0  0  0
   21.4644   -4.0900  -17.0584 C   0  0  1  0  0  0  0  0  0  0  0  0
   22.3482   -3.2359  -16.2204 C   0  0  0  0  0  0  0  0  0  0  0  0
   22.3001   -3.3515  -14.9736 O   0  0  0  0  0  0  0  0  0  0  0  0
   23.2210   -2.3187  -16.7772 O   0  0  0  0  0  0  0  0  0  0  0  0
  2  1  1  6
  3  2  1  0
  4  2  1  0
  4  5  1  6
  6  4  1  0
  7  6  2  0
  8  6  1  0
  9 12  1  0
  9  8  1  0
 10 11  1  0
  9 10  1  1
 12 14  1  0
 13 12  2  0
 14 18  1  0
 14 15  1  0
 15 16  1  0
 17 16  1  0
 18 17  1  0
 19 21  1  0
 18 19  1  1
 20 19  2  0
M  END
$$$$
