VCP.pdb
     RDKit          3D

 21 21  0  0  1  0  0  0  0  0999 V2000
   20.8322  -19.6020  -16.1331 C   0  0  0  0  0  0  0  0  0  0  0  0
   21.1816  -18.1503  -16.3647 C   0  0  2  0  0  0  0  0  0  0  0  0
   19.9760  -17.4271  -16.8617 C   0  0  0  0  0  0  0  0  0  0  0  0
   22.3697  -18.0250  -17.3128 C   0  0  2  0  0  0  0  0  0  0  0  0
   22.0093  -18.6895  -18.5338 N   0  0  0  0  0  0  0  0  0  0  0  0
   23.5167  -18.6746  -16.6266 C   0  0  0  0  0  0  0  0  0  0  0  0
   23.5982  -19.9219  -16.7215 O   0  0  0  0  0  0  0  0  0  0  0  0
   24.4902  -17.9882  -15.8963 N   0  0  0  0  0  0  0  0  0  0  0  0
   25.6080  -18.5897  -15.1938 C   0  0  1  0  0  0  0  0  0  0  0  0
   26.7053  -17.5893  -14.9326 C   0  0  0  0  0  0  0  0  0  0  0  0
   27.9302  -18.3894  -13.8246 S   0  0  0  0  0  0  0  0  0  0  0  0
   25.0854  -19.2070  -13.9521 C   0  0  0  0  0  0  0  0  0  0  0  0
   24.1909  -18.5956  -13.3143 O   0  0  0  0  0  0  0  0  0  0  0  0
   25.5317  -20.4503  -13.4338 N   0  0  0  0  0  0  0  0  0  0  0  0
   26.6154  -21.2863  -13.9050 C   0  0  0  0  0  0  0  0  0  0  0  0
   26.1933  -22.6921  -13.5396 C   0  0  0  0  0  0  0  0  0  0  0  0
   25.2054  -22.5738  -12.4207 C   0  0  0  0  0  0  0  0  0  0  0  0
   24.9462  -21.1234  -12.2976 C   0  0  1  0  0  0  0  0  0  0  0  0
   25.4982  -20.6148  -11.0134 C   0  0  0  0  0  0  0  0  0  0  0  0
   26.5309  -19.9052  -11.0347 O   0  0  0  0  0  0  0  0  0  0  0  0
   24.9050  -20.9020   -9.7974 O   0  0  0  0  0  0  0  0  0  0  0  0
  2  1  1  6
  3  2  1  0
  4  2  1  0
  4  5  1  6
  6  4  1  0
  7  6  2  0
  8  6  1  0
  9 12  1  0
  9  8  1  0
 10 11  1  0
  9 10  1  1
 12 14  1  0
 13 12  2  0
 14 18  1  0
 14 15  1  0
 15 16  1  0
 17 16  1  0
 18 17  1  0
 19 21  1  0
 18 19  1  1
 20 19  2  0
M  END
$$$$
