VCP.pdb
     RDKit          3D

 21 21  0  0  1  0  0  0  0  0999 V2000
   18.8705  -13.3942  -20.4651 C   0  0  0  0  0  0  0  0  0  0  0  0
   19.2302  -12.5975  -19.2327 C   0  0  2  0  0  0  0  0  0  0  0  0
   19.4076  -11.1651  -19.6070 C   0  0  0  0  0  0  0  0  0  0  0  0
   20.4652  -13.1806  -18.5537 C   0  0  2  0  0  0  0  0  0  0  0  0
   20.1416  -14.5257  -18.1683 N   0  0  0  0  0  0  0  0  0  0  0  0
   20.7479  -12.3050  -17.3869 C   0  0  0  0  0  0  0  0  0  0  0  0
   19.8920  -12.2912  -16.4711 O   0  0  0  0  0  0  0  0  0  0  0  0
   21.8905  -11.5117  -17.2546 N   0  0  0  0  0  0  0  0  0  0  0  0
   22.2351  -10.7022  -16.1011 C   0  0  1  0  0  0  0  0  0  0  0  0
   23.7277  -10.6159  -15.9068 C   0  0  0  0  0  0  0  0  0  0  0  0
   24.2596  -12.1371  -15.0286 S   0  0  0  0  0  0  0  0  0  0  0  0
   21.5999   -9.3743  -16.2715 C   0  0  0  0  0  0  0  0  0  0  0  0
   21.6482   -8.8325  -17.4050 O   0  0  0  0  0  0  0  0  0  0  0  0
   20.9370   -8.6710  -15.2324 N   0  0  0  0  0  0  0  0  0  0  0  0
   20.7634   -9.0602  -13.8491 C   0  0  0  0  0  0  0  0  0  0  0  0
   19.4608   -8.4119  -13.4358 C   0  0  0  0  0  0  0  0  0  0  0  0
   19.2304   -7.2631  -14.3681 C   0  0  0  0  0  0  0  0  0  0  0  0
   20.2891   -7.3898  -15.3922 C   0  0  1  0  0  0  0  0  0  0  0  0
   21.2556   -6.2661  -15.2672 C   0  0  0  0  0  0  0  0  0  0  0  0
   20.8619   -5.0982  -15.4938 O   0  0  0  0  0  0  0  0  0  0  0  0
   22.5752   -6.4727  -14.9080 O   0  0  0  0  0  0  0  0  0  0  0  0
  2  1  1  6
  3  2  1  0
  4  2  1  0
  4  5  1  1
  6  4  1  0
  7  6  2  0
  8  6  1  0
  9 12  1  0
  9  8  1  0
 10 11  1  0
  9 10  1  6
 12 14  1  0
 13 12  2  0
 14 18  1  0
 14 15  1  0
 15 16  1  0
 17 16  1  0
 18 17  1  0
 19 21  1  0
 18 19  1  1
 20 19  2  0
M  END
$$$$
