VCP.pdb
     RDKit          3D

 21 21  0  0  1  0  0  0  0  0999 V2000
   22.0222  -20.4923  -16.5257 C   0  0  0  0  0  0  0  0  0  0  0  0
   21.3588  -21.3217  -15.4509 C   0  0  2  0  0  0  0  0  0  0  0  0
   20.0531  -21.8322  -15.9589 C   0  0  0  0  0  0  0  0  0  0  0  0
   21.2102  -20.5183  -14.1630 C   0  0  2  0  0  0  0  0  0  0  0  0
   20.3657  -19.3952  -14.4592 N   0  0  0  0  0  0  0  0  0  0  0  0
   22.5839  -20.1112  -13.7687 C   0  0  0  0  0  0  0  0  0  0  0  0
   22.9957  -19.0127  -14.2106 O   0  0  0  0  0  0  0  0  0  0  0  0
   23.4262  -20.8676  -12.9499 N   0  0  0  0  0  0  0  0  0  0  0  0
   24.8177  -20.5763  -12.6608 C   0  0  1  0  0  0  0  0  0  0  0  0
   25.2874  -21.2824  -11.4142 C   0  0  0  0  0  0  0  0  0  0  0  0
   27.1223  -21.2470  -11.4172 S   0  0  0  0  0  0  0  0  0  0  0  0
   25.6149  -20.9325  -13.8581 C   0  0  0  0  0  0  0  0  0  0  0  0
   25.3119  -21.9792  -14.4852 O   0  0  0  0  0  0  0  0  0  0  0  0
   26.7040  -20.1642  -14.3452 N   0  0  0  0  0  0  0  0  0  0  0  0
   27.3606  -19.0349  -13.7215 C   0  0  0  0  0  0  0  0  0  0  0  0
   27.8600  -18.2018  -14.8809 C   0  0  0  0  0  0  0  0  0  0  0  0
   27.9715  -19.1178  -16.0601 C   0  0  0  0  0  0  0  0  0  0  0  0
   27.3669  -20.3893  -15.6088 C   0  0  1  0  0  0  0  0  0  0  0  0
   28.4137  -21.4405  -15.5004 C   0  0  0  0  0  0  0  0  0  0  0  0
   28.7671  -21.8309  -14.3632 O   0  0  0  0  0  0  0  0  0  0  0  0
   29.0076  -21.9994  -16.6175 O   0  0  0  0  0  0  0  0  0  0  0  0
  2  1  1  6
  3  2  1  0
  4  2  1  0
  4  5  1  6
  6  4  1  0
  7  6  2  0
  8  6  1  0
  9 12  1  0
  9  8  1  0
 10 11  1  0
  9 10  1  1
 12 14  1  0
 13 12  2  0
 14 18  1  0
 14 15  1  0
 15 16  1  0
 17 16  1  0
 18 17  1  0
 19 21  1  0
 18 19  1  1
 20 19  2  0
M  END
$$$$
