VCP.pdb
     RDKit          3D

 21 21  0  0  1  0  0  0  0  0999 V2000
   25.9504  -16.8710  -14.9998 C   0  0  0  0  0  0  0  0  0  0  0  0
   26.8199  -17.5072  -16.0592 C   0  0  2  0  0  0  0  0  0  0  0  0
   25.9597  -18.2686  -17.0099 C   0  0  0  0  0  0  0  0  0  0  0  0
   27.8982  -18.3776  -15.4222 C   0  0  2  0  0  0  0  0  0  0  0  0
   28.6938  -18.9157  -16.4898 N   0  0  0  0  0  0  0  0  0  0  0  0
   27.1812  -19.4311  -14.6578 C   0  0  0  0  0  0  0  0  0  0  0  0
   26.6958  -20.3779  -15.3208 O   0  0  0  0  0  0  0  0  0  0  0  0
   27.0202  -19.4269  -13.2699 N   0  0  0  0  0  0  0  0  0  0  0  0
   26.3370  -20.4416  -12.4898 C   0  0  1  0  0  0  0  0  0  0  0  0
   26.5426  -20.2390  -11.0101 C   0  0  0  0  0  0  0  0  0  0  0  0
   25.2748  -21.2359  -10.1344 S   0  0  0  0  0  0  0  0  0  0  0  0
   24.9072  -20.4277  -12.8787 C   0  0  0  0  0  0  0  0  0  0  0  0
   24.3329  -19.3155  -12.9954 O   0  0  0  0  0  0  0  0  0  0  0  0
   24.1403  -21.5951  -13.1294 N   0  0  0  0  0  0  0  0  0  0  0  0
   24.5509  -22.9801  -13.0371 C   0  0  0  0  0  0  0  0  0  0  0  0
   23.6938  -23.6961  -14.0571 C   0  0  0  0  0  0  0  0  0  0  0  0
   22.4828  -22.8451  -14.2835 C   0  0  0  0  0  0  0  0  0  0  0  0
   22.7565  -21.5946  -13.5439 C   0  0  1  0  0  0  0  0  0  0  0  0
   21.8351  -21.4782  -12.3820 C   0  0  0  0  0  0  0  0  0  0  0  0
   22.3017  -21.5833  -11.2237 O   0  0  0  0  0  0  0  0  0  0  0  0
   20.4793  -21.2573  -12.5429 O   0  0  0  0  0  0  0  0  0  0  0  0
  2  1  1  1
  3  2  1  0
  4  2  1  0
  4  5  1  6
  6  4  1  0
  7  6  2  0
  8  6  1  0
  9 12  1  0
  9  8  1  0
 10 11  1  0
  9 10  1  1
 12 14  1  0
 13 12  2  0
 14 18  1  0
 14 15  1  0
 15 16  1  0
 17 16  1  0
 18 17  1  0
 19 21  1  0
 18 19  1  1
 20 19  2  0
M  END
$$$$
