VCP.pdb
     RDKit          3D

 21 21  0  0  1  0  0  0  0  0999 V2000
   16.2527   -9.9428  -14.5300 C   0  0  0  0  0  0  0  0  0  0  0  0
   16.3018   -9.9579  -16.0401 C   0  0  2  0  0  0  0  0  0  0  0  0
   14.9388  -10.2421  -16.5740 C   0  0  0  0  0  0  0  0  0  0  0  0
   17.3429  -10.9555  -16.5370 C   0  0  2  0  0  0  0  0  0  0  0  0
   16.9743  -12.2445  -16.0223 N   0  0  0  0  0  0  0  0  0  0  0  0
   18.6508  -10.4842  -16.0120 C   0  0  0  0  0  0  0  0  0  0  0  0
   19.4426  -11.3633  -15.5977 O   0  0  0  0  0  0  0  0  0  0  0  0
   19.0409   -9.1438  -15.9549 N   0  0  0  0  0  0  0  0  0  0  0  0
   20.4069   -8.6560  -15.9240 C   0  0  1  0  0  0  0  0  0  0  0  0
   21.2052   -9.1597  -17.0996 C   0  0  0  0  0  0  0  0  0  0  0  0
   22.9090   -8.4978  -16.9350 S   0  0  0  0  0  0  0  0  0  0  0  0
   20.3597   -7.1766  -15.8527 C   0  0  0  0  0  0  0  0  0  0  0  0
   19.6097   -6.5656  -16.6557 O   0  0  0  0  0  0  0  0  0  0  0  0
   21.1105   -6.4008  -14.9317 N   0  0  0  0  0  0  0  0  0  0  0  0
   22.1078   -6.8457  -13.9816 C   0  0  0  0  0  0  0  0  0  0  0  0
   22.0161   -5.8514  -12.8455 C   0  0  0  0  0  0  0  0  0  0  0  0
   21.4042   -4.6047  -13.4054 C   0  0  0  0  0  0  0  0  0  0  0  0
   20.9941   -4.9692  -14.7783 C   0  0  1  0  0  0  0  0  0  0  0  0
   21.8302   -4.2407  -15.7697 C   0  0  0  0  0  0  0  0  0  0  0  0
   21.7494   -2.9917  -15.8315 O   0  0  0  0  0  0  0  0  0  0  0  0
   22.6936   -4.9015  -16.6245 O   0  0  0  0  0  0  0  0  0  0  0  0
  2  1  1  1
  3  2  1  0
  4  2  1  0
  4  5  1  1
  6  4  1  0
  7  6  2  0
  8  6  1  0
  9 12  1  0
  9  8  1  0
 10 11  1  0
  9 10  1  6
 12 14  1  0
 13 12  2  0
 14 18  1  0
 14 15  1  0
 15 16  1  0
 17 16  1  0
 18 17  1  0
 19 21  1  0
 18 19  1  6
 20 19  2  0
M  END
$$$$
