QQH.pdb
     RDKit          3D

 29 29  0  0  1  0  0  0  0  0999 V2000
   18.8566  -12.4785  -20.3222 N   0  0  0  0  0  0  0  0  0  0  0  0
   18.4213  -13.7425  -19.8376 C   0  0  0  0  0  0  0  0  0  0  0  0
   17.8218  -14.5601  -20.5804 O   0  0  0  0  0  0  0  0  0  0  0  0
   18.6975  -14.0726  -18.4161 C   0  0  0  0  0  0  0  0  0  0  0  0
   19.4078  -12.9116  -17.7631 C   0  0  0  0  0  0  0  0  0  0  0  0
   20.8660  -13.1862  -17.5233 C   0  0  2  0  0  0  0  0  0  0  0  0
   20.9706  -14.3577  -16.6990 N   0  0  0  0  0  0  0  0  0  0  0  0
   21.6080  -12.0311  -17.0055 C   0  0  0  0  0  0  0  0  0  0  0  0
   21.7209  -11.8987  -15.7590 O   0  0  0  0  0  0  0  0  0  0  0  0
   26.7493   -9.4177  -19.2710 N   0  0  0  0  0  0  0  0  0  0  0  0
   26.3561   -8.4673  -18.2998 C   0  0  0  0  0  0  0  0  0  0  0  0
   27.1401   -7.4951  -18.1046 O   0  0  0  0  0  0  0  0  0  0  0  0
   25.0945   -8.5801  -17.5343 C   0  0  0  0  0  0  0  0  0  0  0  0
   24.3200   -9.7850  -18.0255 C   0  0  0  0  0  0  0  0  0  0  0  0
   23.0104   -9.9448  -17.2913 C   0  0  2  0  0  0  0  0  0  0  0  0
   22.2198  -11.0335  -17.8101 N   0  0  0  0  0  0  0  0  0  0  0  0
   22.2396   -8.6904  -17.4995 C   0  0  0  0  0  0  0  0  0  0  0  0
   21.7825   -8.4833  -18.6579 O   0  0  0  0  0  0  0  0  0  0  0  0
   21.9949   -7.7349  -16.4911 N   0  0  0  0  0  0  0  0  0  0  0  0
   20.6750   -7.1411  -16.3579 C   0  0  1  0  0  0  0  0  0  0  0  0
   19.6724   -8.2684  -16.2670 C   0  0  0  0  0  0  0  0  0  0  0  0
   18.3098   -7.7521  -16.0317 C   0  0  0  0  0  0  0  0  0  0  0  0
   17.8943   -6.4711  -15.8359 C   0  0  0  0  0  0  0  0  0  0  0  0
   16.5554   -6.4166  -15.6469 N   0  0  0  0  0  0  0  0  0  0  0  0
   16.1303   -7.6984  -15.7279 C   0  0  0  0  0  0  0  0  0  0  0  0
   17.1798   -8.5076  -15.9592 N   0  0  0  0  0  0  0  0  0  0  0  0
   20.6116   -6.1909  -15.2358 C   0  0  0  0  0  0  0  0  0  0  0  0
   19.7747   -5.0978  -15.3163 O   0  0  0  0  0  0  0  0  0  0  0  0
   21.2992   -6.3518  -14.2108 O   0  0  0  0  0  0  0  0  0  0  0  0
  1  2  1  0
  2  3  2  0
  4  2  1  0
  4  5  1  0
  6  5  1  0
  6  7  1  1
  8  6  1  0
  9  8  2  0
 10 11  1  0
 11 12  2  0
 11 13  1  0
 13 14  1  0
 15 14  1  6
 15 16  1  0
 16  8  1  0
 17 15  1  0
 17 18  2  0
 19 17  1  0
 20 19  1  0
 20 21  1  1
 21 22  1  0
 22 23  2  0
 23 24  1  0
 25 24  1  0
 26 22  1  0
 26 25  2  0
 27 20  1  0
 28 27  1  0
 29 27  2  0
M  END
$$$$
