QQH.pdb
     RDKit          3D

 29 29  0  0  1  0  0  0  0  0999 V2000
   27.9543  -18.5917  -16.3657 N   0  0  0  0  0  0  0  0  0  0  0  0
   28.5203  -19.2745  -17.4773 C   0  0  0  0  0  0  0  0  0  0  0  0
   29.5653  -18.8610  -18.0398 O   0  0  0  0  0  0  0  0  0  0  0  0
   27.8355  -20.5011  -17.9595 C   0  0  0  0  0  0  0  0  0  0  0  0
   26.6763  -20.8174  -17.0456 C   0  0  0  0  0  0  0  0  0  0  0  0
   27.1081  -21.5003  -15.7782 C   0  0  2  0  0  0  0  0  0  0  0  0
   27.7759  -22.7212  -16.1335 N   0  0  0  0  0  0  0  0  0  0  0  0
   26.0249  -21.6808  -14.8051 C   0  0  0  0  0  0  0  0  0  0  0  0
   25.4899  -22.8156  -14.7045 O   0  0  0  0  0  0  0  0  0  0  0  0
   24.0638  -21.5813   -9.7991 N   0  0  0  0  0  0  0  0  0  0  0  0
   25.3496  -21.0012   -9.9057 C   0  0  0  0  0  0  0  0  0  0  0  0
   26.2041  -21.3482   -9.0412 O   0  0  0  0  0  0  0  0  0  0  0  0
   25.7053  -20.0328  -10.9668 C   0  0  0  0  0  0  0  0  0  0  0  0
   24.5125  -19.8315  -11.8775 C   0  0  0  0  0  0  0  0  0  0  0  0
   24.4737  -20.8593  -12.9830 C   0  0  2  0  0  0  0  0  0  0  0  0
   25.5227  -20.6620  -13.9527 N   0  0  0  0  0  0  0  0  0  0  0  0
   23.1743  -20.6925  -13.6861 C   0  0  0  0  0  0  0  0  0  0  0  0
   23.0156  -19.6339  -14.3554 O   0  0  0  0  0  0  0  0  0  0  0  0
   22.1263  -21.6359  -13.6473 N   0  0  0  0  0  0  0  0  0  0  0  0
   20.8729  -21.3576  -14.3286 C   0  0  1  0  0  0  0  0  0  0  0  0
   20.1595  -22.6745  -14.5317 C   0  0  0  0  0  0  0  0  0  0  0  0
   18.8584  -22.4781  -15.2005 C   0  0  0  0  0  0  0  0  0  0  0  0
   18.5520  -21.7153  -16.2849 C   0  0  0  0  0  0  0  0  0  0  0  0
   17.2348  -21.7994  -16.5834 N   0  0  0  0  0  0  0  0  0  0  0  0
   16.7113  -22.6370  -15.6588 C   0  0  0  0  0  0  0  0  0  0  0  0
   17.6817  -23.0494  -14.8235 N   0  0  0  0  0  0  0  0  0  0  0  0
   20.0743  -20.3469  -13.6168 C   0  0  0  0  0  0  0  0  0  0  0  0
   19.2724  -19.4843  -14.3343 O   0  0  0  0  0  0  0  0  0  0  0  0
   20.1058  -20.2522  -12.3761 O   0  0  0  0  0  0  0  0  0  0  0  0
  1  2  1  0
  2  3  2  0
  4  2  1  0
  4  5  1  0
  6  5  1  0
  6  7  1  6
  8  6  1  0
  9  8  2  0
 10 11  1  0
 11 12  2  0
 11 13  1  0
 13 14  1  0
 15 14  1  1
 15 16  1  0
 16  8  1  0
 17 15  1  0
 17 18  2  0
 19 17  1  0
 20 19  1  0
 20 21  1  1
 21 22  1  0
 22 23  2  0
 23 24  1  0
 25 24  1  0
 26 22  1  0
 26 25  2  0
 27 20  1  0
 28 27  1  0
 29 27  2  0
M  END
$$$$
