QQH.pdb
     RDKit          3D

 29 29  0  0  1  0  0  0  0  0999 V2000
   16.8197  -13.5514  -14.0942 N   0  0  0  0  0  0  0  0  0  0  0  0
   16.3575  -14.6914  -14.8077 C   0  0  0  0  0  0  0  0  0  0  0  0
   15.2670  -15.2473  -14.5227 O   0  0  0  0  0  0  0  0  0  0  0  0
   17.2073  -15.2114  -15.9092 C   0  0  0  0  0  0  0  0  0  0  0  0
   18.4021  -14.3061  -16.0877 C   0  0  0  0  0  0  0  0  0  0  0  0
   19.2645  -14.7086  -17.2510 C   0  0  2  0  0  0  0  0  0  0  0  0
   19.7322  -16.0466  -17.0189 N   0  0  0  0  0  0  0  0  0  0  0  0
   20.3357  -13.7521  -17.5521 C   0  0  0  0  0  0  0  0  0  0  0  0
   21.4535  -13.9063  -16.9948 O   0  0  0  0  0  0  0  0  0  0  0  0
   21.3806  -10.7115  -22.8635 N   0  0  0  0  0  0  0  0  0  0  0  0
   21.7253  -12.0274  -22.4754 C   0  0  0  0  0  0  0  0  0  0  0  0
   22.0273  -12.8333  -23.4012 O   0  0  0  0  0  0  0  0  0  0  0  0
   21.7402  -12.4673  -21.0624 C   0  0  0  0  0  0  0  0  0  0  0  0
   21.3112  -11.3156  -20.1778 C   0  0  0  0  0  0  0  0  0  0  0  0
   21.2724  -11.7136  -18.7218 C   0  0  2  0  0  0  0  0  0  0  0  0
   20.2115  -12.6478  -18.4364 N   0  0  0  0  0  0  0  0  0  0  0  0
   21.0052  -10.4773  -17.9403 C   0  0  0  0  0  0  0  0  0  0  0  0
   19.7959  -10.1754  -17.7395 O   0  0  0  0  0  0  0  0  0  0  0  0
   22.0113   -9.6369  -17.4194 N   0  0  0  0  0  0  0  0  0  0  0  0
   21.6470   -8.4324  -16.6920 C   0  0  1  0  0  0  0  0  0  0  0  0
   22.7498   -8.1455  -15.6991 C   0  0  0  0  0  0  0  0  0  0  0  0
   22.5076   -6.8764  -14.9856 C   0  0  0  0  0  0  0  0  0  0  0  0
   21.8282   -6.6533  -13.8278 C   0  0  0  0  0  0  0  0  0  0  0  0
   21.8275   -5.3382  -13.5088 N   0  0  0  0  0  0  0  0  0  0  0  0
   22.5253   -4.7304  -14.4957 C   0  0  0  0  0  0  0  0  0  0  0  0
   22.9377   -5.6490  -15.3878 N   0  0  0  0  0  0  0  0  0  0  0  0
   21.3511   -7.3120  -17.5993 C   0  0  0  0  0  0  0  0  0  0  0  0
   20.3403   -6.4289  -17.2828 O   0  0  0  0  0  0  0  0  0  0  0  0
   21.9952   -7.1421  -18.6507 O   0  0  0  0  0  0  0  0  0  0  0  0
  1  2  1  0
  2  3  2  0
  4  2  1  0
  4  5  1  0
  6  5  1  0
  6  7  1  1
  8  6  1  0
  9  8  2  0
 10 11  1  0
 11 12  2  0
 11 13  1  0
 13 14  1  0
 15 14  1  6
 15 16  1  0
 16  8  1  0
 17 15  1  0
 17 18  2  0
 19 17  1  0
 20 19  1  0
 20 21  1  1
 21 22  1  0
 22 23  2  0
 23 24  1  0
 25 24  1  0
 26 22  1  0
 26 25  2  0
 27 20  1  0
 28 27  1  0
 29 27  2  0
M  END
$$$$
