QQH.pdb
     RDKit          3D

 29 29  0  0  1  0  0  0  0  0999 V2000
   15.8090   -8.9921  -15.6319 N   0  0  0  0  0  0  0  0  0  0  0  0
   15.0134   -9.9184  -16.3606 C   0  0  0  0  0  0  0  0  0  0  0  0
   13.8386  -10.1943  -16.0095 O   0  0  0  0  0  0  0  0  0  0  0  0
   15.6149  -10.5565  -17.5593 C   0  0  0  0  0  0  0  0  0  0  0  0
   16.9795   -9.9613  -17.8096 C   0  0  0  0  0  0  0  0  0  0  0  0
   18.0951  -10.9147  -17.4847 C   0  0  2  0  0  0  0  0  0  0  0  0
   17.5125  -12.1685  -17.0954 N   0  0  0  0  0  0  0  0  0  0  0  0
   19.0615  -10.3861  -16.5154 C   0  0  0  0  0  0  0  0  0  0  0  0
   18.8111  -10.5095  -15.2882 O   0  0  0  0  0  0  0  0  0  0  0  0
   25.2115  -10.6996  -16.8262 N   0  0  0  0  0  0  0  0  0  0  0  0
   24.9934  -10.0441  -15.5918 C   0  0  0  0  0  0  0  0  0  0  0  0
   25.9856   -9.9493  -14.8144 O   0  0  0  0  0  0  0  0  0  0  0  0
   23.6787   -9.4866  -15.2028 C   0  0  0  0  0  0  0  0  0  0  0  0
   22.6535   -9.8468  -16.2573 C   0  0  0  0  0  0  0  0  0  0  0  0
   21.2789   -9.3358  -15.8978 C   0  0  2  0  0  0  0  0  0  0  0  0
   20.2773   -9.7354  -16.8553 N   0  0  0  0  0  0  0  0  0  0  0  0
   21.3494   -7.8508  -15.9141 C   0  0  0  0  0  0  0  0  0  0  0  0
   21.5438   -7.2976  -17.0322 O   0  0  0  0  0  0  0  0  0  0  0  0
   21.2132   -7.0390  -14.7686 N   0  0  0  0  0  0  0  0  0  0  0  0
   21.3428   -5.5957  -14.8814 C   0  0  1  0  0  0  0  0  0  0  0  0
   19.9946   -4.9887  -14.5681 C   0  0  0  0  0  0  0  0  0  0  0  0
   19.0407   -5.2104  -15.6724 C   0  0  0  0  0  0  0  0  0  0  0  0
   18.9893   -4.6238  -16.8992 C   0  0  0  0  0  0  0  0  0  0  0  0
   17.9503   -5.0999  -17.6238 N   0  0  0  0  0  0  0  0  0  0  0  0
   17.3418   -6.0058  -16.8242 C   0  0  0  0  0  0  0  0  0  0  0  0
   17.9918   -6.0779  -15.6486 N   0  0  0  0  0  0  0  0  0  0  0  0
   22.4412   -5.0770  -14.0506 C   0  0  0  0  0  0  0  0  0  0  0  0
   22.7375   -3.7304  -14.0777 O   0  0  0  0  0  0  0  0  0  0  0  0
   23.1123   -5.8291  -13.3203 O   0  0  0  0  0  0  0  0  0  0  0  0
  1  2  1  0
  2  3  2  0
  4  2  1  0
  4  5  1  0
  6  5  1  0
  6  7  1  1
  8  6  1  0
  9  8  2  0
 10 11  1  0
 11 12  2  0
 11 13  1  0
 13 14  1  0
 15 14  1  6
 15 16  1  0
 16  8  1  0
 17 15  1  0
 17 18  2  0
 19 17  1  0
 20 19  1  0
 20 21  1  1
 21 22  1  0
 22 23  2  0
 23 24  1  0
 25 24  1  0
 26 22  1  0
 26 25  2  0
 27 20  1  0
 28 27  1  0
 29 27  2  0
M  END
$$$$
