QQH.pdb
     RDKit          3D

 29 29  0  0  1  0  0  0  0  0999 V2000
   24.7561  -20.8869  -10.3613 N   0  0  0  0  0  0  0  0  0  0  0  0
   26.1422  -20.8649  -10.0443 C   0  0  0  0  0  0  0  0  0  0  0  0
   26.5592  -21.1704   -8.8988 O   0  0  0  0  0  0  0  0  0  0  0  0
   27.0919  -20.4672  -11.1147 C   0  0  0  0  0  0  0  0  0  0  0  0
   26.3157  -20.0047  -12.3241 C   0  0  0  0  0  0  0  0  0  0  0  0
   25.9282  -21.1387  -13.2314 C   0  0  2  0  0  0  0  0  0  0  0  0
   27.1109  -21.5951  -13.9065 N   0  0  0  0  0  0  0  0  0  0  0  0
   24.8176  -20.8197  -14.1356 C   0  0  0  0  0  0  0  0  0  0  0  0
   25.0318  -20.0386  -15.0988 O   0  0  0  0  0  0  0  0  0  0  0  0
   22.6548  -21.6064  -18.1593 N   0  0  0  0  0  0  0  0  0  0  0  0
   23.2951  -22.6677  -17.4775 C   0  0  0  0  0  0  0  0  0  0  0  0
   24.2322  -23.2546  -18.0901 O   0  0  0  0  0  0  0  0  0  0  0  0
   22.9080  -23.0920  -16.1135 C   0  0  0  0  0  0  0  0  0  0  0  0
   21.8246  -22.1705  -15.5941 C   0  0  0  0  0  0  0  0  0  0  0  0
   22.4043  -20.9731  -14.8799 C   0  0  2  0  0  0  0  0  0  0  0  0
   23.4980  -21.3295  -14.0101 N   0  0  0  0  0  0  0  0  0  0  0  0
   21.3220  -20.4067  -14.0323 C   0  0  0  0  0  0  0  0  0  0  0  0
   21.6706  -19.8386  -12.9601 O   0  0  0  0  0  0  0  0  0  0  0  0
   19.9501  -20.4678  -14.3543 N   0  0  0  0  0  0  0  0  0  0  0  0
   19.1109  -19.2933  -14.1841 C   0  0  1  0  0  0  0  0  0  0  0  0
   19.7744  -18.1467  -14.9116 C   0  0  0  0  0  0  0  0  0  0  0  0
   19.0512  -16.8805  -14.6828 C   0  0  0  0  0  0  0  0  0  0  0  0
   17.9213  -16.6506  -13.9600 C   0  0  0  0  0  0  0  0  0  0  0  0
   17.5722  -15.3439  -14.0041 N   0  0  0  0  0  0  0  0  0  0  0  0
   18.5111  -14.7486  -14.7749 C   0  0  0  0  0  0  0  0  0  0  0  0
   19.4042  -15.6664  -15.1869 N   0  0  0  0  0  0  0  0  0  0  0  0
   17.7228  -19.5456  -14.6029 C   0  0  0  0  0  0  0  0  0  0  0  0
   16.6827  -19.0446  -13.8485 O   0  0  0  0  0  0  0  0  0  0  0  0
   17.4643  -20.2039  -15.6272 O   0  0  0  0  0  0  0  0  0  0  0  0
  1  2  1  0
  2  3  2  0
  4  2  1  0
  4  5  1  0
  6  5  1  0
  6  7  1  6
  8  6  1  0
  9  8  2  0
 10 11  1  0
 11 12  2  0
 11 13  1  0
 13 14  1  0
 15 14  1  1
 15 16  1  0
 16  8  1  0
 17 15  1  0
 17 18  2  0
 19 17  1  0
 20 19  1  0
 20 21  1  6
 21 22  1  0
 22 23  2  0
 23 24  1  0
 25 24  1  0
 26 22  1  0
 26 25  2  0
 27 20  1  0
 28 27  1  0
 29 27  2  0
M  END
$$$$
