QQH.pdb
     RDKit          3D

 29 29  0  0  1  0  0  0  0  0999 V2000
   22.6145  -15.9241  -20.2579 N   0  0  0  0  0  0  0  0  0  0  0  0
   23.8962  -15.4242  -20.6177 C   0  0  0  0  0  0  0  0  0  0  0  0
   24.8691  -16.1940  -20.8185 O   0  0  0  0  0  0  0  0  0  0  0  0
   24.0544  -13.9534  -20.7509 C   0  0  0  0  0  0  0  0  0  0  0  0
   22.7461  -13.2785  -20.4167 C   0  0  0  0  0  0  0  0  0  0  0  0
   22.9226  -12.0875  -19.5169 C   0  0  2  0  0  0  0  0  0  0  0  0
   23.7533  -12.4804  -18.4131 N   0  0  0  0  0  0  0  0  0  0  0  0
   21.6597  -11.4598  -19.1119 C   0  0  0  0  0  0  0  0  0  0  0  0
   21.0312  -10.7726  -19.9584 O   0  0  0  0  0  0  0  0  0  0  0  0
   17.4370  -13.6067  -15.0219 N   0  0  0  0  0  0  0  0  0  0  0  0
   16.9004  -12.3530  -15.3981 C   0  0  0  0  0  0  0  0  0  0  0  0
   15.7253  -12.0969  -15.0090 O   0  0  0  0  0  0  0  0  0  0  0  0
   17.6546  -11.3697  -16.2072 C   0  0  0  0  0  0  0  0  0  0  0  0
   18.9877  -11.9687  -16.6032 C   0  0  0  0  0  0  0  0  0  0  0  0
   19.7926  -11.0225  -17.4614 C   0  0  2  0  0  0  0  0  0  0  0  0
   21.0790  -11.5667  -17.8203 N   0  0  0  0  0  0  0  0  0  0  0  0
   20.0322   -9.7985  -16.6520 C   0  0  0  0  0  0  0  0  0  0  0  0
   20.7534   -9.9228  -15.6233 O   0  0  0  0  0  0  0  0  0  0  0  0
   19.5070   -8.5272  -16.9645 N   0  0  0  0  0  0  0  0  0  0  0  0
   19.8209   -7.3846  -16.1228 C   0  0  1  0  0  0  0  0  0  0  0  0
   21.3239   -7.2257  -16.1078 C   0  0  0  0  0  0  0  0  0  0  0  0
   21.7263   -6.0373  -15.3303 C   0  0  0  0  0  0  0  0  0  0  0  0
   21.8678   -5.8939  -13.9845 C   0  0  0  0  0  0  0  0  0  0  0  0
   22.2487   -4.6350  -13.6660 N   0  0  0  0  0  0  0  0  0  0  0  0
   22.3457   -3.9812  -14.8465 C   0  0  0  0  0  0  0  0  0  0  0  0
   22.0330   -4.8181  -15.8522 N   0  0  0  0  0  0  0  0  0  0  0  0
   19.0948   -6.1762  -16.5452 C   0  0  0  0  0  0  0  0  0  0  0  0
   18.7559   -5.2234  -15.6076 O   0  0  0  0  0  0  0  0  0  0  0  0
   18.7778   -5.9932  -17.7349 O   0  0  0  0  0  0  0  0  0  0  0  0
  1  2  1  0
  2  3  2  0
  4  2  1  0
  4  5  1  0
  6  5  1  0
  6  7  1  1
  8  6  1  0
  9  8  2  0
 10 11  1  0
 11 12  2  0
 11 13  1  0
 13 14  1  0
 15 14  1  1
 15 16  1  0
 16  8  1  0
 17 15  1  0
 17 18  2  0
 19 17  1  0
 20 19  1  0
 20 21  1  6
 21 22  1  0
 22 23  2  0
 23 24  1  0
 25 24  1  0
 26 22  1  0
 26 25  2  0
 27 20  1  0
 28 27  1  0
 29 27  2  0
M  END
$$$$
