QQH.pdb
     RDKit          3D

 29 29  0  0  1  0  0  0  0  0999 V2000
   15.4312  -26.4750   -1.6605 N   0  0  0  0  0  0  0  0  0  0  0  0
   15.7162  -27.5334   -2.5664 C   0  0  0  0  0  0  0  0  0  0  0  0
   16.3417  -28.5605   -2.2012 O   0  0  0  0  0  0  0  0  0  0  0  0
   15.2497  -27.3898   -3.9691 C   0  0  0  0  0  0  0  0  0  0  0  0
   15.9000  -26.1770   -4.5897 C   0  0  0  0  0  0  0  0  0  0  0  0
   17.3455  -26.4067   -4.9315 C   0  0  2  0  0  0  0  0  0  0  0  0
   18.1288  -26.1544   -3.7544 N   0  0  0  0  0  0  0  0  0  0  0  0
   17.7990  -25.6646   -6.1133 C   0  0  0  0  0  0  0  0  0  0  0  0
   18.1660  -24.4695   -5.9685 O   0  0  0  0  0  0  0  0  0  0  0  0
   21.0771  -28.1069  -10.6986 N   0  0  0  0  0  0  0  0  0  0  0  0
   19.7731  -28.5621  -10.3924 C   0  0  0  0  0  0  0  0  0  0  0  0
   19.4621  -29.7164  -10.8031 O   0  0  0  0  0  0  0  0  0  0  0  0
   18.7996  -27.7485   -9.6304 C   0  0  0  0  0  0  0  0  0  0  0  0
   19.4161  -26.4023   -9.3131 C   0  0  0  0  0  0  0  0  0  0  0  0
   18.4606  -25.5159   -8.5508 C   0  0  2  0  0  0  0  0  0  0  0  0
   17.8587  -26.1943   -7.4296 N   0  0  0  0  0  0  0  0  0  0  0  0
   17.3695  -25.1440   -9.4899 C   0  0  0  0  0  0  0  0  0  0  0  0
   16.2807  -25.7739   -9.3829 O   0  0  0  0  0  0  0  0  0  0  0  0
   17.4817  -24.1430  -10.4774 N   0  0  0  0  0  0  0  0  0  0  0  0
   16.3935  -23.9229  -11.4154 C   0  0  1  0  0  0  0  0  0  0  0  0
   16.3119  -22.4375  -11.6822 C   0  0  0  0  0  0  0  0  0  0  0  0
   15.1632  -22.1144  -12.5510 C   0  0  0  0  0  0  0  0  0  0  0  0
   13.8781  -22.5567  -12.4824 C   0  0  0  0  0  0  0  0  0  0  0  0
   13.1268  -22.0271  -13.4755 N   0  0  0  0  0  0  0  0  0  0  0  0
   13.9694  -21.2354  -14.1781 C   0  0  0  0  0  0  0  0  0  0  0  0
   15.1961  -21.2827  -13.6281 N   0  0  0  0  0  0  0  0  0  0  0  0
   16.5411  -24.7424  -12.6289 C   0  0  0  0  0  0  0  0  0  0  0  0
   15.4162  -25.1679  -13.3036 O   0  0  0  0  0  0  0  0  0  0  0  0
   17.6633  -25.0620  -13.0626 O   0  0  0  0  0  0  0  0  0  0  0  0
  1  2  1  0
  2  3  2  0
  4  2  1  0
  4  5  1  0
  6  5  1  0
  6  7  1  1
  8  6  1  0
  9  8  2  0
 10 11  1  0
 11 12  2  0
 11 13  1  0
 13 14  1  0
 15 14  1  6
 15 16  1  0
 16  8  1  0
 17 15  1  0
 17 18  2  0
 19 17  1  0
 20 19  1  0
 20 21  1  6
 21 22  1  0
 22 23  2  0
 23 24  1  0
 25 24  1  0
 26 22  1  0
 26 25  2  0
 27 20  1  0
 28 27  1  0
 29 27  2  0
M  END
$$$$
