QQH.pdb
     RDKit          3D

 29 29  0  0  1  0  0  0  0  0999 V2000
   25.2589  -15.4054  -17.1457 N   0  0  0  0  0  0  0  0  0  0  0  0
   26.5276  -15.1419  -17.7315 C   0  0  0  0  0  0  0  0  0  0  0  0
   26.9024  -13.9700  -17.9876 O   0  0  0  0  0  0  0  0  0  0  0  0
   27.4053  -16.3010  -18.0349 C   0  0  0  0  0  0  0  0  0  0  0  0
   26.6955  -17.5777  -17.6539 C   0  0  0  0  0  0  0  0  0  0  0  0
   26.7522  -17.8528  -16.1773 C   0  0  2  0  0  0  0  0  0  0  0  0
   28.1207  -18.1056  -15.8219 N   0  0  0  0  0  0  0  0  0  0  0  0
   25.8238  -18.8992  -15.7346 C   0  0  0  0  0  0  0  0  0  0  0  0
   25.4886  -19.7923  -16.5555 O   0  0  0  0  0  0  0  0  0  0  0  0
   25.3760  -21.2123   -9.9300 N   0  0  0  0  0  0  0  0  0  0  0  0
   26.3985  -21.3279  -10.9007 C   0  0  0  0  0  0  0  0  0  0  0  0
   27.5132  -21.7723  -10.5032 O   0  0  0  0  0  0  0  0  0  0  0  0
   26.2016  -20.9545  -12.3192 C   0  0  0  0  0  0  0  0  0  0  0  0
   24.7934  -20.4299  -12.5050 C   0  0  0  0  0  0  0  0  0  0  0  0
   24.5012  -20.1139  -13.9523 C   0  0  2  0  0  0  0  0  0  0  0  0
   25.2633  -18.9878  -14.4327 N   0  0  0  0  0  0  0  0  0  0  0  0
   23.0617  -19.7512  -14.0359 C   0  0  0  0  0  0  0  0  0  0  0  0
   22.7079  -18.6747  -13.4795 O   0  0  0  0  0  0  0  0  0  0  0  0
   22.0857  -20.5304  -14.6917 N   0  0  0  0  0  0  0  0  0  0  0  0
   20.6985  -20.0968  -14.7047 C   0  0  1  0  0  0  0  0  0  0  0  0
   20.2588  -20.0105  -16.1481 C   0  0  0  0  0  0  0  0  0  0  0  0
   18.8662  -19.5328  -16.2533 C   0  0  0  0  0  0  0  0  0  0  0  0
   18.3452  -18.3157  -15.9385 C   0  0  0  0  0  0  0  0  0  0  0  0
   17.0132  -18.2800  -16.1746 N   0  0  0  0  0  0  0  0  0  0  0  0
   16.7008  -19.5081  -16.6484 C   0  0  0  0  0  0  0  0  0  0  0  0
   17.8102  -20.2674  -16.6987 N   0  0  0  0  0  0  0  0  0  0  0  0
   19.8466  -20.9585  -13.8693 C   0  0  0  0  0  0  0  0  0  0  0  0
   18.7815  -20.4075  -13.1883 O   0  0  0  0  0  0  0  0  0  0  0  0
   20.0662  -22.1791  -13.7626 O   0  0  0  0  0  0  0  0  0  0  0  0
  1  2  1  0
  2  3  2  0
  4  2  1  0
  4  5  1  0
  6  5  1  0
  6  7  1  6
  8  6  1  0
  9  8  2  0
 10 11  1  0
 11 12  2  0
 11 13  1  0
 13 14  1  0
 15 14  1  1
 15 16  1  0
 16  8  1  0
 17 15  1  0
 17 18  2  0
 19 17  1  0
 20 19  1  0
 20 21  1  6
 21 22  1  0
 22 23  2  0
 23 24  1  0
 25 24  1  0
 26 22  1  0
 26 25  2  0
 27 20  1  0
 28 27  1  0
 29 27  2  0
M  END
$$$$
