VAW.pdb
     RDKit          3D

 27 28  0  0  1  0  0  0  0  0999 V2000
    8.5260  -12.3172   18.3457 C   0  0  0  0  0  0  0  0  0  0  0  0
    8.6555  -13.2690   19.4880 C   0  0  1  0  0  0  0  0  0  0  0  0
    7.4642  -13.0657   20.4016 C   0  0  0  0  0  0  0  0  0  0  0  0
    8.6944  -14.7153   19.0454 C   0  0  2  0  0  0  0  0  0  0  0  0
    7.5781  -14.9786   18.1609 N   0  0  0  0  0  0  0  0  0  0  0  0
    8.6294  -15.6475   20.1857 C   0  0  0  0  0  0  0  0  0  0  0  0
    7.5021  -15.8989   20.7390 O   0  0  0  0  0  0  0  0  0  0  0  0
   10.5462  -18.4075   21.4614 C   0  0  0  0  0  0  0  0  0  0  0  0
    9.7013  -17.1651   21.7812 C   0  0  2  0  0  0  0  0  0  0  0  0
    9.8141  -16.2610   20.6646 N   0  0  0  0  0  0  0  0  0  0  0  0
   10.2730  -16.5978   23.0247 C   0  0  0  0  0  0  0  0  0  0  0  0
   11.3452  -15.9476   22.9331 O   0  0  0  0  0  0  0  0  0  0  0  0
    9.6936  -16.7403   24.2975 N   0  0  0  0  0  0  0  0  0  0  0  0
   10.3739  -16.4365   25.5406 C   0  0  1  0  0  0  0  0  0  0  0  0
    9.9556  -15.0041   25.9039 C   0  0  0  0  0  0  0  0  0  0  0  0
    8.4623  -14.9026   25.9070 C   0  0  0  0  0  0  0  0  0  0  0  0
    7.5137  -15.8424   25.6378 C   0  0  0  0  0  0  0  0  0  0  0  0
    6.3073  -15.2408   25.7804 N   0  0  0  0  0  0  0  0  0  0  0  0
    6.4627  -13.9504   26.1311 C   0  0  0  0  0  0  0  0  0  0  0  0
    5.5916  -12.9083   26.3976 C   0  0  0  0  0  0  0  0  0  0  0  0
    6.0728  -11.6607   26.7418 C   0  0  0  0  0  0  0  0  0  0  0  0
    7.4219  -11.3974   26.8351 C   0  0  0  0  0  0  0  0  0  0  0  0
    8.2799  -12.4565   26.5638 C   0  0  0  0  0  0  0  0  0  0  0  0
    7.8113  -13.7109   26.2178 C   0  0  0  0  0  0  0  0  0  0  0  0
    9.9637  -17.3355   26.6356 C   0  0  0  0  0  0  0  0  0  0  0  0
    9.0002  -18.3062   26.5188 O   0  0  0  0  0  0  0  0  0  0  0  0
   10.5258  -17.2248   27.7767 O   0  0  0  0  0  0  0  0  0  0  0  0
  2  1  1  6
  3  2  1  0
  4  2  1  0
  4  5  1  6
  6  7  2  0
  6  4  1  0
  9  8  1  6
  9 10  1  0
 10  6  1  0
 11  9  1  0
 11 13  1  0
 12 11  2  0
 14 13  1  0
 14 25  1  0
 14 15  1  1
 16 15  1  0
 17 16  2  0
 18 17  1  0
 19 18  1  0
 19 24  2  0
 20 19  1  0
 21 20  2  0
 21 22  1  0
 22 23  2  0
 23 24  1  0
 24 16  1  0
 25 27  2  0
 25 26  1  0
M  END
$$$$
