VAW.pdb
     RDKit          3D

 27 28  0  0  1  0  0  0  0  0999 V2000
    9.5053  -13.0352   20.3832 C   0  0  0  0  0  0  0  0  0  0  0  0
    8.2554  -13.4474   19.6793 C   0  0  1  0  0  0  0  0  0  0  0  0
    8.0881  -12.5560   18.4658 C   0  0  0  0  0  0  0  0  0  0  0  0
    8.2845  -14.8913   19.2285 C   0  0  2  0  0  0  0  0  0  0  0  0
    7.0868  -15.1828   18.4681 N   0  0  0  0  0  0  0  0  0  0  0  0
    8.3673  -15.8268   20.3649 C   0  0  0  0  0  0  0  0  0  0  0  0
    7.3446  -16.0117   21.1131 O   0  0  0  0  0  0  0  0  0  0  0  0
   10.5811  -18.5637   21.3883 C   0  0  0  0  0  0  0  0  0  0  0  0
    9.6086  -17.4280   21.7407 C   0  0  2  0  0  0  0  0  0  0  0  0
    9.5778  -16.5173   20.6243 N   0  0  0  0  0  0  0  0  0  0  0  0
   10.1521  -16.7977   22.9664 C   0  0  0  0  0  0  0  0  0  0  0  0
   11.1054  -15.9884   22.8356 O   0  0  0  0  0  0  0  0  0  0  0  0
    9.6703  -17.0466   24.2633 N   0  0  0  0  0  0  0  0  0  0  0  0
   10.2478  -16.4857   25.4683 C   0  0  1  0  0  0  0  0  0  0  0  0
    9.7734  -15.0258   25.5158 C   0  0  0  0  0  0  0  0  0  0  0  0
    8.3118  -14.9829   25.8347 C   0  0  0  0  0  0  0  0  0  0  0  0
    7.3897  -15.9844   25.8834 C   0  0  0  0  0  0  0  0  0  0  0  0
    6.2054  -15.4174   26.2205 N   0  0  0  0  0  0  0  0  0  0  0  0
    6.3490  -14.0892   26.3865 C   0  0  0  0  0  0  0  0  0  0  0  0
    5.4897  -13.0574   26.7226 C   0  0  0  0  0  0  0  0  0  0  0  0
    5.9524  -11.7598   26.8156 C   0  0  0  0  0  0  0  0  0  0  0  0
    7.2707  -11.4349   26.5821 C   0  0  0  0  0  0  0  0  0  0  0  0
    8.1172  -12.4846   26.2461 C   0  0  0  0  0  0  0  0  0  0  0  0
    7.6669  -13.7887   26.1494 C   0  0  0  0  0  0  0  0  0  0  0  0
    9.7745  -17.1711   26.6856 C   0  0  0  0  0  0  0  0  0  0  0  0
   10.2283  -16.8984   27.9521 O   0  0  0  0  0  0  0  0  0  0  0  0
    8.8850  -18.0813   26.5826 O   0  0  0  0  0  0  0  0  0  0  0  0
  2  1  1  6
  3  2  1  0
  4  2  1  0
  4  5  1  1
  6  7  2  0
  6  4  1  0
  9  8  1  6
  9 10  1  0
 10  6  1  0
 11  9  1  0
 11 13  1  0
 12 11  2  0
 14 13  1  0
 14 25  1  0
 14 15  1  1
 16 15  1  0
 17 16  2  0
 18 17  1  0
 19 18  1  0
 19 24  2  0
 20 19  1  0
 21 20  2  0
 21 22  1  0
 22 23  2  0
 23 24  1  0
 24 16  1  0
 25 27  2  0
 25 26  1  0
M  END
$$$$
