VAW.pdb
     RDKit          3D

 27 28  0  0  1  0  0  0  0  0999 V2000
    8.3225  -12.5977   18.4498 C   0  0  0  0  0  0  0  0  0  0  0  0
    8.5842  -13.4591   19.6403 C   0  0  1  0  0  0  0  0  0  0  0  0
    7.7171  -12.9588   20.7774 C   0  0  0  0  0  0  0  0  0  0  0  0
    8.2722  -14.9180   19.3891 C   0  0  2  0  0  0  0  0  0  0  0  0
    6.9088  -15.0447   18.9170 N   0  0  0  0  0  0  0  0  0  0  0  0
    8.4343  -15.7381   20.6035 C   0  0  0  0  0  0  0  0  0  0  0  0
    7.4775  -15.8167   21.4510 O   0  0  0  0  0  0  0  0  0  0  0  0
   10.7978  -18.3728   21.6661 C   0  0  0  0  0  0  0  0  0  0  0  0
    9.7162  -17.3227   21.9612 C   0  0  2  0  0  0  0  0  0  0  0  0
    9.6479  -16.4356   20.8276 N   0  0  0  0  0  0  0  0  0  0  0  0
   10.1546  -16.6279   23.1941 C   0  0  0  0  0  0  0  0  0  0  0  0
   11.0022  -15.7066   23.0774 O   0  0  0  0  0  0  0  0  0  0  0  0
    9.6837  -16.9328   24.4830 N   0  0  0  0  0  0  0  0  0  0  0  0
   10.3175  -16.4879   25.7081 C   0  0  1  0  0  0  0  0  0  0  0  0
    9.8817  -15.0271   25.8945 C   0  0  0  0  0  0  0  0  0  0  0  0
    8.3917  -14.9596   26.0189 C   0  0  0  0  0  0  0  0  0  0  0  0
    7.4502  -15.9350   25.8856 C   0  0  0  0  0  0  0  0  0  0  0  0
    6.2439  -15.3536   26.0956 N   0  0  0  0  0  0  0  0  0  0  0  0
    6.3922  -14.0414   26.3575 C   0  0  0  0  0  0  0  0  0  0  0  0
    5.5179  -13.0055   26.6371 C   0  0  0  0  0  0  0  0  0  0  0  0
    5.9916  -11.7290   26.8672 C   0  0  0  0  0  0  0  0  0  0  0  0
    7.3359  -11.4300   26.8301 C   0  0  0  0  0  0  0  0  0  0  0  0
    8.1972  -12.4835   26.5478 C   0  0  0  0  0  0  0  0  0  0  0  0
    7.7362  -13.7666   26.3153 C   0  0  0  0  0  0  0  0  0  0  0  0
    9.8707  -17.2626   26.8810 C   0  0  0  0  0  0  0  0  0  0  0  0
    8.9673  -18.2947   26.8272 O   0  0  0  0  0  0  0  0  0  0  0  0
   10.3396  -16.9750   28.0333 O   0  0  0  0  0  0  0  0  0  0  0  0
  2  1  1  6
  3  2  1  0
  4  2  1  0
  4  5  1  1
  6  7  2  0
  6  4  1  0
  9  8  1  6
  9 10  1  0
 10  6  1  0
 11  9  1  0
 11 13  1  0
 12 11  2  0
 14 13  1  0
 14 25  1  0
 14 15  1  1
 16 15  1  0
 17 16  2  0
 18 17  1  0
 19 18  1  0
 19 24  2  0
 20 19  1  0
 21 20  2  0
 21 22  1  0
 22 23  2  0
 23 24  1  0
 24 16  1  0
 25 27  2  0
 25 26  1  0
M  END
$$$$
