VAW.pdb
     RDKit          3D

 27 28  0  0  1  0  0  0  0  0999 V2000
    9.3096  -12.8749   20.0518 C   0  0  0  0  0  0  0  0  0  0  0  0
    7.9942  -13.3816   19.5614 C   0  0  1  0  0  0  0  0  0  0  0  0
    7.6461  -12.6258   18.2953 C   0  0  0  0  0  0  0  0  0  0  0  0
    8.0116  -14.8641   19.2598 C   0  0  2  0  0  0  0  0  0  0  0  0
    6.7863  -15.2320   18.5809 N   0  0  0  0  0  0  0  0  0  0  0  0
    8.1427  -15.6783   20.4819 C   0  0  0  0  0  0  0  0  0  0  0  0
    7.2168  -15.6527   21.3663 O   0  0  0  0  0  0  0  0  0  0  0  0
   10.3077  -18.4711   21.5697 C   0  0  0  0  0  0  0  0  0  0  0  0
    9.3532  -17.3025   21.8581 C   0  0  2  0  0  0  0  0  0  0  0  0
    9.2922  -16.4855   20.6725 N   0  0  0  0  0  0  0  0  0  0  0  0
    9.9385  -16.5790   23.0108 C   0  0  0  0  0  0  0  0  0  0  0  0
   10.9188  -15.8228   22.7913 O   0  0  0  0  0  0  0  0  0  0  0  0
    9.4683  -16.6841   24.3314 N   0  0  0  0  0  0  0  0  0  0  0  0
   10.2301  -16.2937   25.5008 C   0  0  1  0  0  0  0  0  0  0  0  0
    9.7505  -14.8785   25.8556 C   0  0  0  0  0  0  0  0  0  0  0  0
    8.2607  -14.8745   25.9992 C   0  0  0  0  0  0  0  0  0  0  0  0
    7.3536  -15.8732   25.8111 C   0  0  0  0  0  0  0  0  0  0  0  0
    6.1297  -15.3518   26.0712 N   0  0  0  0  0  0  0  0  0  0  0  0
    6.2336  -14.0551   26.4178 C   0  0  0  0  0  0  0  0  0  0  0  0
    5.3260  -13.0729   26.7742 C   0  0  0  0  0  0  0  0  0  0  0  0
    5.7559  -11.7977   27.0835 C   0  0  0  0  0  0  0  0  0  0  0  0
    7.0880  -11.4474   27.0528 C   0  0  0  0  0  0  0  0  0  0  0  0
    7.9832  -12.4475   26.6927 C   0  0  0  0  0  0  0  0  0  0  0  0
    7.5662  -13.7286   26.3804 C   0  0  0  0  0  0  0  0  0  0  0  0
    9.9747  -17.1771   26.6540 C   0  0  0  0  0  0  0  0  0  0  0  0
    9.0963  -18.2318   26.6400 O   0  0  0  0  0  0  0  0  0  0  0  0
   10.5982  -16.9691   27.7487 O   0  0  0  0  0  0  0  0  0  0  0  0
  2  1  1  6
  3  2  1  0
  4  2  1  0
  4  5  1  1
  6  7  2  0
  6  4  1  0
  9  8  1  6
  9 10  1  0
 10  6  1  0
 11  9  1  0
 11 13  1  0
 12 11  2  0
 14 13  1  0
 14 25  1  0
 14 15  1  1
 16 15  1  0
 17 16  2  0
 18 17  1  0
 19 18  1  0
 19 24  2  0
 20 19  1  0
 21 20  2  0
 21 22  1  0
 22 23  2  0
 23 24  1  0
 24 16  1  0
 25 27  2  0
 25 26  1  0
M  END
$$$$
