VAW.pdb
     RDKit          3D

 27 28  0  0  1  0  0  0  0  0999 V2000
    7.4180  -21.1566   21.6965 C   0  0  0  0  0  0  0  0  0  0  0  0
    7.9730  -19.7737   21.7829 C   0  0  1  0  0  0  0  0  0  0  0  0
    9.4762  -19.8834   21.9360 C   0  0  0  0  0  0  0  0  0  0  0  0
    7.6630  -18.9393   20.5595 C   0  0  2  0  0  0  0  0  0  0  0  0
    8.2337  -19.5715   19.3880 N   0  0  0  0  0  0  0  0  0  0  0  0
    8.1978  -17.5700   20.6706 C   0  0  0  0  0  0  0  0  0  0  0  0
    9.3875  -17.3167   20.2701 O   0  0  0  0  0  0  0  0  0  0  0  0
    6.8179  -14.2272   21.5314 C   0  0  0  0  0  0  0  0  0  0  0  0
    7.9699  -15.2247   21.3380 C   0  0  2  0  0  0  0  0  0  0  0  0
    7.3934  -16.5402   21.2199 N   0  0  0  0  0  0  0  0  0  0  0  0
    8.8252  -15.0908   22.5402 C   0  0  0  0  0  0  0  0  0  0  0  0
    9.4981  -14.0362   22.6660 O   0  0  0  0  0  0  0  0  0  0  0  0
    8.9317  -16.0661   23.5470 N   0  0  0  0  0  0  0  0  0  0  0  0
    9.7904  -15.9475   24.7084 C   0  0  1  0  0  0  0  0  0  0  0  0
    8.9036  -16.2826   25.9167 C   0  0  0  0  0  0  0  0  0  0  0  0
    7.6679  -15.4389   25.8819 C   0  0  0  0  0  0  0  0  0  0  0  0
    6.3710  -15.7831   25.6471 C   0  0  0  0  0  0  0  0  0  0  0  0
    5.6375  -14.6461   25.7288 N   0  0  0  0  0  0  0  0  0  0  0  0
    6.4291  -13.5935   26.0078 C   0  0  0  0  0  0  0  0  0  0  0  0
    6.2092  -12.2399   26.1951 C   0  0  0  0  0  0  0  0  0  0  0  0
    7.2599  -11.3897   26.4771 C   0  0  0  0  0  0  0  0  0  0  0  0
    8.5573  -11.8408   26.5839 C   0  0  0  0  0  0  0  0  0  0  0  0
    8.7573  -13.2026   26.3925 C   0  0  0  0  0  0  0  0  0  0  0  0
    7.7139  -14.0653   26.1095 C   0  0  0  0  0  0  0  0  0  0  0  0
   10.9130  -16.9035   24.6726 C   0  0  0  0  0  0  0  0  0  0  0  0
   11.0836  -17.8593   23.7024 O   0  0  0  0  0  0  0  0  0  0  0  0
   11.7978  -16.8606   25.5923 O   0  0  0  0  0  0  0  0  0  0  0  0
  2  1  1  6
  3  2  1  0
  4  2  1  0
  4  5  1  6
  6  7  2  0
  6  4  1  0
  9  8  1  1
  9 10  1  0
 10  6  1  0
 11  9  1  0
 11 13  1  0
 12 11  2  0
 14 13  1  0
 14 25  1  0
 14 15  1  1
 16 15  1  0
 17 16  2  0
 18 17  1  0
 19 18  1  0
 19 24  2  0
 20 19  1  0
 21 20  2  0
 21 22  1  0
 22 23  2  0
 23 24  1  0
 24 16  1  0
 25 27  2  0
 25 26  1  0
M  END
$$$$
