VAW.pdb
     RDKit          3D

 27 28  0  0  1  0  0  0  0  0999 V2000
    7.8349  -12.3005   19.3881 C   0  0  0  0  0  0  0  0  0  0  0  0
    8.2485  -13.3109   20.4058 C   0  0  1  0  0  0  0  0  0  0  0  0
    7.3328  -13.1675   21.6041 C   0  0  0  0  0  0  0  0  0  0  0  0
    8.1652  -14.7310   19.8906 C   0  0  2  0  0  0  0  0  0  0  0  0
    6.8703  -14.9461   19.2783 N   0  0  0  0  0  0  0  0  0  0  0  0
    8.3560  -15.7237   20.9637 C   0  0  0  0  0  0  0  0  0  0  0  0
    7.3731  -16.0383   21.7220 O   0  0  0  0  0  0  0  0  0  0  0  0
   10.9716  -18.1684   21.9064 C   0  0  0  0  0  0  0  0  0  0  0  0
    9.7729  -17.2653   22.2339 C   0  0  2  0  0  0  0  0  0  0  0  0
    9.6257  -16.3252   21.1515 N   0  0  0  0  0  0  0  0  0  0  0  0
   10.1072  -16.6006   23.5151 C   0  0  0  0  0  0  0  0  0  0  0  0
   10.8741  -15.6050   23.4760 O   0  0  0  0  0  0  0  0  0  0  0  0
    9.6221  -17.0117   24.7688 N   0  0  0  0  0  0  0  0  0  0  0  0
   10.0286  -16.4270   26.0310 C   0  0  1  0  0  0  0  0  0  0  0  0
    8.7712  -16.4268   26.9129 C   0  0  0  0  0  0  0  0  0  0  0  0
    7.6923  -15.6299   26.2488 C   0  0  0  0  0  0  0  0  0  0  0  0
    6.6040  -16.0383   25.5385 C   0  0  0  0  0  0  0  0  0  0  0  0
    5.9410  -14.9213   25.1510 N   0  0  0  0  0  0  0  0  0  0  0  0
    6.5753  -13.8193   25.5934 C   0  0  0  0  0  0  0  0  0  0  0  0
    6.3404  -12.4594   25.4876 C   0  0  0  0  0  0  0  0  0  0  0  0
    7.2020  -11.5502   26.0688 C   0  0  0  0  0  0  0  0  0  0  0  0
    8.3190  -11.9469   26.7709 C   0  0  0  0  0  0  0  0  0  0  0  0
    8.5372  -13.3161   26.8657 C   0  0  0  0  0  0  0  0  0  0  0  0
    7.6824  -14.2374   26.2884 C   0  0  0  0  0  0  0  0  0  0  0  0
   11.0721  -17.2226   26.7045 C   0  0  0  0  0  0  0  0  0  0  0  0
   11.5249  -18.4392   26.2584 O   0  0  0  0  0  0  0  0  0  0  0  0
   11.6055  -16.7732   27.7740 O   0  0  0  0  0  0  0  0  0  0  0  0
  2  1  1  6
  3  2  1  0
  4  2  1  0
  4  5  1  1
  6  7  2  0
  6  4  1  0
  9  8  1  6
  9 10  1  0
 10  6  1  0
 11  9  1  0
 11 13  1  0
 12 11  2  0
 14 13  1  0
 14 25  1  0
 14 15  1  1
 16 15  1  0
 17 16  2  0
 18 17  1  0
 19 18  1  0
 19 24  2  0
 20 19  1  0
 21 20  2  0
 21 22  1  0
 22 23  2  0
 23 24  1  0
 24 16  1  0
 25 27  2  0
 25 26  1  0
M  END
$$$$
