VAW.pdb
     RDKit          3D

 27 28  0  0  1  0  0  0  0  0999 V2000
    6.9371  -18.4920   24.9207 C   0  0  0  0  0  0  0  0  0  0  0  0
    6.9142  -19.4680   23.7917 C   0  0  1  0  0  0  0  0  0  0  0  0
    6.0752  -20.6551   24.2186 C   0  0  0  0  0  0  0  0  0  0  0  0
    6.3312  -18.8848   22.5232 C   0  0  2  0  0  0  0  0  0  0  0  0
    6.1720  -19.9353   21.5389 N   0  0  0  0  0  0  0  0  0  0  0  0
    7.1842  -17.8248   21.9556 C   0  0  0  0  0  0  0  0  0  0  0  0
    8.2423  -18.1386   21.3060 O   0  0  0  0  0  0  0  0  0  0  0  0
    6.9529  -14.1385   21.5335 C   0  0  0  0  0  0  0  0  0  0  0  0
    7.7296  -15.4611   21.6190 C   0  0  2  0  0  0  0  0  0  0  0  0
    6.8298  -16.4636   22.1313 N   0  0  0  0  0  0  0  0  0  0  0  0
    8.8652  -15.2032   22.5349 C   0  0  0  0  0  0  0  0  0  0  0  0
    9.7694  -14.4231   22.1416 O   0  0  0  0  0  0  0  0  0  0  0  0
    8.9953  -15.7742   23.8128 N   0  0  0  0  0  0  0  0  0  0  0  0
   10.1645  -15.6255   24.6561 C   0  0  1  0  0  0  0  0  0  0  0  0
    9.6291  -15.2545   26.0469 C   0  0  0  0  0  0  0  0  0  0  0  0
    8.1594  -14.9839   25.9634 C   0  0  0  0  0  0  0  0  0  0  0  0
    7.1125  -15.8404   25.8023 C   0  0  0  0  0  0  0  0  0  0  0  0
    5.9838  -15.0897   25.7905 N   0  0  0  0  0  0  0  0  0  0  0  0
    6.2835  -13.7857   25.9390 C   0  0  0  0  0  0  0  0  0  0  0  0
    5.5370  -12.6215   25.9954 C   0  0  0  0  0  0  0  0  0  0  0  0
    6.1551  -11.3977   26.1596 C   0  0  0  0  0  0  0  0  0  0  0  0
    7.5229  -11.2786   26.2735 C   0  0  0  0  0  0  0  0  0  0  0  0
    8.2544  -12.4588   26.2144 C   0  0  0  0  0  0  0  0  0  0  0  0
    7.6481  -13.6910   26.0502 C   0  0  0  0  0  0  0  0  0  0  0  0
   10.9338  -16.8788   24.7700 C   0  0  0  0  0  0  0  0  0  0  0  0
   12.1562  -16.9820   25.3858 O   0  0  0  0  0  0  0  0  0  0  0  0
   10.4540  -17.9521   24.2720 O   0  0  0  0  0  0  0  0  0  0  0  0
  2  1  1  1
  3  2  1  0
  4  2  1  0
  4  5  1  6
  6  7  2  0
  6  4  1  0
  9  8  1  1
  9 10  1  0
 10  6  1  0
 11  9  1  0
 11 13  1  0
 12 11  2  0
 14 13  1  0
 14 25  1  0
 14 15  1  1
 16 15  1  0
 17 16  2  0
 18 17  1  0
 19 18  1  0
 19 24  2  0
 20 19  1  0
 21 20  2  0
 21 22  1  0
 22 23  2  0
 23 24  1  0
 24 16  1  0
 25 27  2  0
 25 26  1  0
M  END
$$$$
