AAC.pdb
     RDKit          3D

 17 16  0  0  1  0  0  0  0  0999 V2000
    8.4846  -12.3596   19.8117 C   0  0  0  0  0  0  0  0  0  0  0  0
    8.3952  -13.8443   19.6890 C   0  0  2  0  0  0  0  0  0  0  0  0
    7.6533  -14.3120   18.5640 N   0  0  0  0  0  0  0  0  0  0  0  0
    7.8876  -14.4328   20.9791 C   0  0  0  0  0  0  0  0  0  0  0  0
    6.6525  -14.6332   21.1082 O   0  0  0  0  0  0  0  0  0  0  0  0
    8.8254  -16.9371   23.1883 C   0  0  0  0  0  0  0  0  0  0  0  0
    8.2608  -15.5386   23.1778 C   0  0  2  0  0  0  0  0  0  0  0  0
    8.7290  -14.7692   22.0470 N   0  0  0  0  0  0  0  0  0  0  0  0
    8.5515  -14.8017   24.4246 C   0  0  0  0  0  0  0  0  0  0  0  0
    9.7237  -14.3639   24.5823 O   0  0  0  0  0  0  0  0  0  0  0  0
    7.6243  -14.5528   25.4438 N   0  0  0  0  0  0  0  0  0  0  0  0
    8.0280  -13.7637   26.5830 C   0  0  1  0  0  0  0  0  0  0  0  0
    6.7458  -13.2434   27.2276 C   0  0  0  0  0  0  0  0  0  0  0  0
    5.7550  -12.3292   26.0372 S   0  0  0  0  0  0  0  0  0  0  0  0
    8.8339  -14.5425   27.5526 C   0  0  0  0  0  0  0  0  0  0  0  0
    9.0126  -15.7849   27.4802 O   0  0  0  0  0  0  0  0  0  0  0  0
    9.4337  -13.8732   28.6095 O   0  0  0  0  0  0  0  0  0  0  0  0
  2  1  1  1
  2  3  1  0
  4  5  2  0
  4  2  1  0
  7  6  1  1
  7  8  1  0
  8  4  1  0
  9  7  1  0
 10  9  2  0
 11  9  1  0
 12 15  1  0
 12 11  1  0
 12 13  1  1
 14 13  1  0
 15 17  1  0
 16 15  2  0
M  END
$$$$
