AAC.pdb
     RDKit          3D

 17 16  0  0  1  0  0  0  0  0999 V2000
    5.3099  -18.0777   20.4866 C   0  0  0  0  0  0  0  0  0  0  0  0
    6.1169  -17.4145   19.4206 C   0  0  2  0  0  0  0  0  0  0  0  0
    6.8331  -18.3043   18.5662 N   0  0  0  0  0  0  0  0  0  0  0  0
    7.0208  -16.3787   20.0356 C   0  0  0  0  0  0  0  0  0  0  0  0
    8.0366  -16.7625   20.6707 O   0  0  0  0  0  0  0  0  0  0  0  0
    7.2952  -12.6122   20.1281 C   0  0  0  0  0  0  0  0  0  0  0  0
    7.7119  -14.0244   20.4551 C   0  0  2  0  0  0  0  0  0  0  0  0
    6.7834  -15.0022   19.9337 N   0  0  0  0  0  0  0  0  0  0  0  0
    7.8868  -14.2412   21.9057 C   0  0  0  0  0  0  0  0  0  0  0  0
    7.0783  -13.6636   22.6824 O   0  0  0  0  0  0  0  0  0  0  0  0
    8.8821  -15.0390   22.4830 N   0  0  0  0  0  0  0  0  0  0  0  0
    8.9113  -15.1971   23.9175 C   0  0  1  0  0  0  0  0  0  0  0  0
    7.6565  -15.9805   24.2941 C   0  0  0  0  0  0  0  0  0  0  0  0
    7.6795  -16.4294   26.0355 S   0  0  0  0  0  0  0  0  0  0  0  0
   10.1338  -15.8925   24.3843 C   0  0  0  0  0  0  0  0  0  0  0  0
   10.4616  -16.0024   25.5931 O   0  0  0  0  0  0  0  0  0  0  0  0
   10.9774  -16.4616   23.4413 O   0  0  0  0  0  0  0  0  0  0  0  0
  2  1  1  1
  2  3  1  0
  4  5  2  0
  4  2  1  0
  7  6  1  1
  7  8  1  0
  8  4  1  0
  9  7  1  0
 10  9  2  0
 11  9  1  0
 12 15  1  0
 12 11  1  0
 12 13  1  6
 14 13  1  0
 15 17  1  0
 16 15  2  0
M  END
$$$$
