AAC.pdb
     RDKit          3D

 17 16  0  0  1  0  0  0  0  0999 V2000
    7.2660  -18.3432   19.0187 C   0  0  0  0  0  0  0  0  0  0  0  0
    7.6125  -17.4730   17.8567 C   0  0  2  0  0  0  0  0  0  0  0  0
    8.2701  -18.1393   16.7804 N   0  0  0  0  0  0  0  0  0  0  0  0
    8.3895  -16.2735   18.3318 C   0  0  0  0  0  0  0  0  0  0  0  0
    9.6428  -16.3541   18.4037 O   0  0  0  0  0  0  0  0  0  0  0  0
    7.7201  -12.6303   18.9649 C   0  0  0  0  0  0  0  0  0  0  0  0
    8.5513  -13.8875   19.0226 C   0  0  2  0  0  0  0  0  0  0  0  0
    7.7805  -15.0671   18.6992 N   0  0  0  0  0  0  0  0  0  0  0  0
    9.2041  -14.0745   20.3344 C   0  0  0  0  0  0  0  0  0  0  0  0
   10.1718  -13.3166   20.6163 O   0  0  0  0  0  0  0  0  0  0  0  0
    8.8296  -15.0291   21.2876 N   0  0  0  0  0  0  0  0  0  0  0  0
    9.5598  -15.1044   22.5305 C   0  0  1  0  0  0  0  0  0  0  0  0
    8.5302  -15.3793   23.6235 C   0  0  0  0  0  0  0  0  0  0  0  0
    7.3537  -14.0250   23.7512 S   0  0  0  0  0  0  0  0  0  0  0  0
   10.6063  -16.1535   22.5081 C   0  0  0  0  0  0  0  0  0  0  0  0
   10.7526  -16.9803   21.5724 O   0  0  0  0  0  0  0  0  0  0  0  0
   11.4851  -16.2403   23.5781 O   0  0  0  0  0  0  0  0  0  0  0  0
  2  1  1  1
  2  3  1  0
  4  5  2  0
  4  2  1  0
  7  6  1  1
  7  8  1  0
  8  4  1  0
  9  7  1  0
 10  9  2  0
 11  9  1  0
 12 15  1  0
 12 11  1  0
 12 13  1  1
 14 13  1  0
 15 17  1  0
 16 15  2  0
M  END
$$$$
