AAC.pdb
     RDKit          3D

 17 16  0  0  1  0  0  0  0  0999 V2000
    8.8447  -12.5027   19.5142 C   0  0  0  0  0  0  0  0  0  0  0  0
    8.3568  -13.9126   19.4752 C   0  0  2  0  0  0  0  0  0  0  0  0
    7.3886  -14.1870   18.4643 N   0  0  0  0  0  0  0  0  0  0  0  0
    7.8726  -14.3224   20.8412 C   0  0  0  0  0  0  0  0  0  0  0  0
    6.6877  -14.0554   21.1685 O   0  0  0  0  0  0  0  0  0  0  0  0
    8.5639  -17.0108   23.1521 C   0  0  0  0  0  0  0  0  0  0  0  0
    8.1425  -15.5733   22.9763 C   0  0  2  0  0  0  0  0  0  0  0  0
    8.6823  -14.9898   21.7688 N   0  0  0  0  0  0  0  0  0  0  0  0
    8.5093  -14.7307   24.1328 C   0  0  0  0  0  0  0  0  0  0  0  0
    9.7016  -14.3256   24.2030 O   0  0  0  0  0  0  0  0  0  0  0  0
    7.6337  -14.3482   25.1561 N   0  0  0  0  0  0  0  0  0  0  0  0
    8.1312  -13.5316   26.2374 C   0  0  1  0  0  0  0  0  0  0  0  0
    7.0604  -12.4801   26.5163 C   0  0  0  0  0  0  0  0  0  0  0  0
    5.4949  -13.2566   26.9417 S   0  0  0  0  0  0  0  0  0  0  0  0
    8.4288  -14.3247   27.4534 C   0  0  0  0  0  0  0  0  0  0  0  0
    8.1417  -15.5415   27.5865 O   0  0  0  0  0  0  0  0  0  0  0  0
    9.0623  -13.6996   28.5176 O   0  0  0  0  0  0  0  0  0  0  0  0
  2  1  1  1
  2  3  1  0
  4  5  2  0
  4  2  1  0
  7  6  1  1
  7  8  1  0
  8  4  1  0
  9  7  1  0
 10  9  2  0
 11  9  1  0
 12 15  1  0
 12 11  1  0
 12 13  1  1
 14 13  1  0
 15 17  1  0
 16 15  2  0
M  END
$$$$
