AAC.pdb
     RDKit          3D

 17 16  0  0  1  0  0  0  0  0999 V2000
    4.4858  -21.1877   16.9269 C   0  0  0  0  0  0  0  0  0  0  0  0
    5.1482  -21.0098   18.2525 C   0  0  2  0  0  0  0  0  0  0  0  0
    4.2600  -20.9588   19.3674 N   0  0  0  0  0  0  0  0  0  0  0  0
    6.0625  -19.8137   18.2090 C   0  0  0  0  0  0  0  0  0  0  0  0
    7.0108  -19.8067   17.3825 O   0  0  0  0  0  0  0  0  0  0  0  0
    6.0631  -16.2661   19.2607 C   0  0  0  0  0  0  0  0  0  0  0  0
    6.7860  -17.5586   18.9754 C   0  0  2  0  0  0  0  0  0  0  0  0
    5.9067  -18.7038   19.0487 N   0  0  0  0  0  0  0  0  0  0  0  0
    7.9408  -17.7708   19.8717 C   0  0  0  0  0  0  0  0  0  0  0  0
    8.8952  -16.9499   19.7958 O   0  0  0  0  0  0  0  0  0  0  0  0
    8.0556  -18.8139   20.7985 N   0  0  0  0  0  0  0  0  0  0  0  0
    9.2889  -18.9688   21.5323 C   0  0  1  0  0  0  0  0  0  0  0  0
    8.9028  -19.1529   22.9976 C   0  0  0  0  0  0  0  0  0  0  0  0
   10.3646  -19.3593   24.0248 S   0  0  0  0  0  0  0  0  0  0  0  0
   10.0955  -20.1130   21.0461 C   0  0  0  0  0  0  0  0  0  0  0  0
    9.6079  -21.2159   20.6904 O   0  0  0  0  0  0  0  0  0  0  0  0
   11.4739  -19.9730   20.9736 O   0  0  0  0  0  0  0  0  0  0  0  0
  2  1  1  6
  2  3  1  0
  4  5  2  0
  4  2  1  0
  7  6  1  1
  7  8  1  0
  8  4  1  0
  9  7  1  0
 10  9  2  0
 11  9  1  0
 12 15  1  0
 12 11  1  0
 12 13  1  1
 14 13  1  0
 15 17  1  0
 16 15  2  0
M  END
$$$$
