AAC.pdb
     RDKit          3D

 17 16  0  0  1  0  0  0  0  0999 V2000
    1.1840  -28.5375   28.0480 C   0  0  0  0  0  0  0  0  0  0  0  0
    1.1021  -27.4931   26.9850 C   0  0  2  0  0  0  0  0  0  0  0  0
    2.3330  -26.8348   26.6915 N   0  0  0  0  0  0  0  0  0  0  0  0
    0.0075  -26.5132   27.3165 C   0  0  0  0  0  0  0  0  0  0  0  0
    0.0515  -25.9064   28.4176 O   0  0  0  0  0  0  0  0  0  0  0  0
   -2.9046  -24.8758   25.5900 C   0  0  0  0  0  0  0  0  0  0  0  0
   -2.1028  -25.3003   26.7949 C   0  0  2  0  0  0  0  0  0  0  0  0
   -1.0621  -26.2439   26.4534 N   0  0  0  0  0  0  0  0  0  0  0  0
   -2.9474  -25.8699   27.8645 C   0  0  0  0  0  0  0  0  0  0  0  0
   -3.1792  -27.1089   27.8257 O   0  0  0  0  0  0  0  0  0  0  0  0
   -3.5097  -25.1382   28.9175 N   0  0  0  0  0  0  0  0  0  0  0  0
   -4.4102  -25.8006   29.8307 C   0  0  1  0  0  0  0  0  0  0  0  0
   -3.7857  -25.6834   31.2187 C   0  0  0  0  0  0  0  0  0  0  0  0
   -4.9459  -26.2058   32.4898 S   0  0  0  0  0  0  0  0  0  0  0  0
   -5.7709  -25.2139   29.8073 C   0  0  0  0  0  0  0  0  0  0  0  0
   -6.0065  -23.9924   29.6252 O   0  0  0  0  0  0  0  0  0  0  0  0
   -6.8605  -26.0515   29.9963 O   0  0  0  0  0  0  0  0  0  0  0  0
  2  1  1  1
  2  3  1  0
  4  5  2  0
  4  2  1  0
  7  6  1  6
  7  8  1  0
  8  4  1  0
  9  7  1  0
 10  9  2  0
 11  9  1  0
 12 15  1  0
 12 11  1  0
 12 13  1  1
 14 13  1  0
 15 17  1  0
 16 15  2  0
M  END
$$$$
