AAC.pdb
     RDKit          3D

 17 16  0  0  1  0  0  0  0  0999 V2000
    5.7547  -18.4818   24.5601 C   0  0  0  0  0  0  0  0  0  0  0  0
    6.4049  -18.6476   23.2269 C   0  0  2  0  0  0  0  0  0  0  0  0
    7.0923  -19.8837   23.0418 N   0  0  0  0  0  0  0  0  0  0  0  0
    7.2922  -17.4645   22.9419 C   0  0  0  0  0  0  0  0  0  0  0  0
    8.4900  -17.5004   23.3245 O   0  0  0  0  0  0  0  0  0  0  0  0
    7.1419  -14.2980   20.9146 C   0  0  0  0  0  0  0  0  0  0  0  0
    7.7327  -15.2259   21.9465 C   0  0  2  0  0  0  0  0  0  0  0  0
    6.8454  -16.3209   22.2681 N   0  0  0  0  0  0  0  0  0  0  0  0
    8.1116  -14.5226   23.1889 C   0  0  0  0  0  0  0  0  0  0  0  0
    9.0416  -13.6738   23.1170 O   0  0  0  0  0  0  0  0  0  0  0  0
    7.5163  -14.7271   24.4396 N   0  0  0  0  0  0  0  0  0  0  0  0
    7.9759  -13.9568   25.5705 C   0  0  1  0  0  0  0  0  0  0  0  0
    6.7396  -13.3033   26.1825 C   0  0  0  0  0  0  0  0  0  0  0  0
    7.1740  -12.3587   27.6501 S   0  0  0  0  0  0  0  0  0  0  0  0
    8.6882  -14.7889   26.5687 C   0  0  0  0  0  0  0  0  0  0  0  0
    8.7095  -16.0458   26.5491 O   0  0  0  0  0  0  0  0  0  0  0  0
    9.3778  -14.1560   27.5927 O   0  0  0  0  0  0  0  0  0  0  0  0
  2  1  1  1
  2  3  1  0
  4  5  2  0
  4  2  1  0
  7  6  1  6
  7  8  1  0
  8  4  1  0
  9  7  1  0
 10  9  2  0
 11  9  1  0
 12 15  1  0
 12 11  1  0
 12 13  1  1
 14 13  1  0
 15 17  1  0
 16 15  2  0
M  END
$$$$
