AAC.pdb
     RDKit          3D

 17 16  0  0  1  0  0  0  0  0999 V2000
    7.6018  -13.2365   19.6310 C   0  0  0  0  0  0  0  0  0  0  0  0
    8.1873  -14.3287   20.4627 C   0  0  2  0  0  0  0  0  0  0  0  0
    8.7917  -15.3894   19.7249 N   0  0  0  0  0  0  0  0  0  0  0  0
    7.1557  -14.8384   21.4343 C   0  0  0  0  0  0  0  0  0  0  0  0
    6.5905  -14.0182   22.2026 O   0  0  0  0  0  0  0  0  0  0  0  0
    5.1019  -17.9060   21.9702 C   0  0  0  0  0  0  0  0  0  0  0  0
    5.7864  -16.6513   22.4517 C   0  0  2  0  0  0  0  0  0  0  0  0
    6.7937  -16.1884   21.5238 N   0  0  0  0  0  0  0  0  0  0  0  0
    6.3919  -16.8147   23.7891 C   0  0  0  0  0  0  0  0  0  0  0  0
    5.6115  -16.8747   24.7780 O   0  0  0  0  0  0  0  0  0  0  0  0
    7.7659  -16.9080   24.0414 N   0  0  0  0  0  0  0  0  0  0  0  0
    8.2217  -17.0514   25.4035 C   0  0  1  0  0  0  0  0  0  0  0  0
    8.3338  -18.5504   25.6688 C   0  0  0  0  0  0  0  0  0  0  0  0
    6.9435  -19.1335   26.6496 S   0  0  0  0  0  0  0  0  0  0  0  0
    9.5162  -16.3700   25.6405 C   0  0  0  0  0  0  0  0  0  0  0  0
   10.1188  -16.3702   26.7440 O   0  0  0  0  0  0  0  0  0  0  0  0
   10.1112  -15.6865   24.5901 O   0  0  0  0  0  0  0  0  0  0  0  0
  2  1  1  6
  2  3  1  0
  4  5  2  0
  4  2  1  0
  7  6  1  6
  7  8  1  0
  8  4  1  0
  9  7  1  0
 10  9  2  0
 11  9  1  0
 12 15  1  0
 12 11  1  0
 12 13  1  6
 14 13  1  0
 15 17  1  0
 16 15  2  0
M  END
$$$$
