AAC.pdb
     RDKit          3D

 17 16  0  0  1  0  0  0  0  0999 V2000
    8.3447  -12.3658   19.5042 C   0  0  0  0  0  0  0  0  0  0  0  0
    8.3518  -13.8347   19.2400 C   0  0  2  0  0  0  0  0  0  0  0  0
    7.5229  -14.2560   18.1583 N   0  0  0  0  0  0  0  0  0  0  0  0
    8.0398  -14.5825   20.5096 C   0  0  0  0  0  0  0  0  0  0  0  0
    6.8393  -14.6881   20.8702 O   0  0  0  0  0  0  0  0  0  0  0  0
    9.6081  -17.0942   22.7139 C   0  0  0  0  0  0  0  0  0  0  0  0
    8.7006  -15.9067   22.5111 C   0  0  2  0  0  0  0  0  0  0  0  0
    9.0270  -15.1685   21.3117 N   0  0  0  0  0  0  0  0  0  0  0  0
    8.7048  -14.9874   23.6673 C   0  0  0  0  0  0  0  0  0  0  0  0
    9.5865  -14.0860   23.6912 O   0  0  0  0  0  0  0  0  0  0  0  0
    7.8042  -15.0414   24.7380 N   0  0  0  0  0  0  0  0  0  0  0  0
    7.9797  -14.1375   25.8495 C   0  0  1  0  0  0  0  0  0  0  0  0
    6.6564  -13.3960   26.0200 C   0  0  0  0  0  0  0  0  0  0  0  0
    6.7362  -12.2526   27.4060 S   0  0  0  0  0  0  0  0  0  0  0  0
    8.3600  -14.8426   27.0963 C   0  0  0  0  0  0  0  0  0  0  0  0
    8.1083  -16.0532   27.3237 O   0  0  0  0  0  0  0  0  0  0  0  0
    9.0351  -14.1364   28.0813 O   0  0  0  0  0  0  0  0  0  0  0  0
  2  1  1  1
  2  3  1  0
  4  5  2  0
  4  2  1  0
  7  6  1  1
  7  8  1  0
  8  4  1  0
  9  7  1  0
 10  9  2  0
 11  9  1  0
 12 15  1  0
 12 11  1  0
 12 13  1  1
 14 13  1  0
 15 17  1  0
 16 15  2  0
M  END
$$$$
