WEQ.pdb
     RDKit          3D

 33 34  0  0  1  0  0  0  0  0999 V2000
   28.2636  -19.1878  -16.2291 N   0  0  0  0  0  0  0  0  0  0  0  0
   26.9992  -18.5100  -15.9622 C   0  0  1  0  0  0  0  0  0  0  0  0
   26.6777  -17.7243  -17.2116 C   0  0  0  0  0  0  0  0  0  0  0  0
   27.4956  -16.4999  -17.3202 C   0  0  0  0  0  0  0  0  0  0  0  0
   28.4131  -16.2134  -18.3039 C   0  0  0  0  0  0  0  0  0  0  0  0
   28.9657  -15.0079  -18.0795 N   0  0  0  0  0  0  0  0  0  0  0  0
   28.3979  -14.5380  -16.9587 C   0  0  0  0  0  0  0  0  0  0  0  0
   28.5942  -13.3639  -16.2879 C   0  0  0  0  0  0  0  0  0  0  0  0
   27.8996  -13.0572  -15.1280 C   0  0  0  0  0  0  0  0  0  0  0  0
   26.9861  -13.9720  -14.6462 C   0  0  0  0  0  0  0  0  0  0  0  0
   26.7690  -15.1579  -15.2989 C   0  0  0  0  0  0  0  0  0  0  0  0
   27.4834  -15.4317  -16.4592 C   0  0  0  0  0  0  0  0  0  0  0  0
   25.8939  -19.5246  -15.8320 C   0  0  0  0  0  0  0  0  0  0  0  0
   26.1254  -20.7533  -15.7730 O   0  0  0  0  0  0  0  0  0  0  0  0
   24.5470  -19.0947  -15.7722 N   0  0  0  0  0  0  0  0  0  0  0  0
   23.5407  -20.0447  -15.2621 C   0  0  1  0  0  0  0  0  0  0  0  0
   23.6810  -20.1205  -13.7842 C   0  0  0  0  0  0  0  0  0  0  0  0
   22.6469  -20.8630  -13.0367 C   0  0  0  0  0  0  0  0  0  0  0  0
   22.9441  -20.8098  -11.5492 C   0  0  0  0  0  0  0  0  0  0  0  0
   24.0397  -20.4540  -11.1117 O   0  0  0  0  0  0  0  0  0  0  0  0
   22.2414  -19.4633  -15.6438 C   0  0  0  0  0  0  0  0  0  0  0  0
   22.0201  -18.2025  -15.5615 O   0  0  0  0  0  0  0  0  0  0  0  0
   21.9384  -21.1768  -10.6753 O   0  0  0  0  0  0  0  0  0  0  0  0
   17.5791  -22.4029  -18.4399 N   0  0  0  0  0  0  0  0  0  0  0  0
   16.9562  -21.1333  -18.3027 C   0  0  0  0  0  0  0  0  0  0  0  0
   15.7902  -20.9200  -18.7108 O   0  0  0  0  0  0  0  0  0  0  0  0
   17.7408  -20.0344  -17.6464 C   0  0  0  0  0  0  0  0  0  0  0  0
   19.0616  -20.5742  -17.2259 C   0  0  0  0  0  0  0  0  0  0  0  0
   19.8953  -19.5456  -16.4915 C   0  0  2  0  0  0  0  0  0  0  0  0
   21.1557  -20.2348  -16.1295 N   0  0  0  0  0  0  0  0  0  0  0  0
   19.2019  -19.0824  -15.2741 C   0  0  0  0  0  0  0  0  0  0  0  0
   19.3342  -19.7524  -14.2191 O   0  0  0  0  0  0  0  0  0  0  0  0
   18.4058  -17.9567  -15.1815 O   0  0  0  0  0  0  0  0  0  0  0  0
  2  1  1  6
  3  2  1  0
  4  3  1  0
  4  5  2  0
  6  5  1  0
  7  6  1  0
  8  7  2  0
  9 10  2  0
  9  8  1  0
 10 11  1  0
 11 12  2  0
 12  7  1  0
 12  4  1  0
 13 15  1  0
 13  2  1  0
 14 13  2  0
 16 17  1  1
 16 15  1  0
 18 17  1  0
 18 19  1  0
 19 23  1  0
 20 19  2  0
 21 16  1  0
 22 21  2  0
 24 25  1  0
 25 26  2  0
 27 25  1  0
 27 28  1  0
 29 28  1  1
 29 30  1  0
 30 21  1  0
 31 33  1  0
 31 29  1  0
 32 31  2  0
M  END
$$$$
