WEQ.pdb
     RDKit          3D

 33 34  0  0  1  0  0  0  0  0999 V2000
   26.5062  -18.8718   -9.6268 N   0  0  0  0  0  0  0  0  0  0  0  0
   27.0119  -19.7518  -10.6753 C   0  0  1  0  0  0  0  0  0  0  0  0
   27.0574  -21.1350  -10.0701 C   0  0  0  0  0  0  0  0  0  0  0  0
   28.0497  -21.2290   -8.9807 C   0  0  0  0  0  0  0  0  0  0  0  0
   27.8222  -20.9965   -7.6444 C   0  0  0  0  0  0  0  0  0  0  0  0
   28.9576  -21.1784   -6.9469 N   0  0  0  0  0  0  0  0  0  0  0  0
   29.8957  -21.5241   -7.8412 C   0  0  0  0  0  0  0  0  0  0  0  0
   31.2186  -21.8209   -7.6716 C   0  0  0  0  0  0  0  0  0  0  0  0
   32.0366  -22.1598   -8.7383 C   0  0  0  0  0  0  0  0  0  0  0  0
   31.4877  -22.1952  -10.0036 C   0  0  0  0  0  0  0  0  0  0  0  0
   30.1634  -21.9020  -10.2029 C   0  0  0  0  0  0  0  0  0  0  0  0
   29.3733  -21.5664   -9.1099 C   0  0  0  0  0  0  0  0  0  0  0  0
   26.0098  -19.8383  -11.7963 C   0  0  0  0  0  0  0  0  0  0  0  0
   24.7770  -19.7721  -11.5901 O   0  0  0  0  0  0  0  0  0  0  0  0
   26.4567  -19.9985  -13.1294 N   0  0  0  0  0  0  0  0  0  0  0  0
   25.6680  -19.3659  -14.2031 C   0  0  1  0  0  0  0  0  0  0  0  0
   26.5585  -19.1642  -15.3760 C   0  0  0  0  0  0  0  0  0  0  0  0
   25.9572  -18.6043  -16.6025 C   0  0  0  0  0  0  0  0  0  0  0  0
   25.5490  -19.7271  -17.5388 C   0  0  0  0  0  0  0  0  0  0  0  0
   24.3695  -20.0349  -17.7184 O   0  0  0  0  0  0  0  0  0  0  0  0
   24.5976  -20.3319  -14.5079 C   0  0  0  0  0  0  0  0  0  0  0  0
   24.8532  -21.5693  -14.7289 O   0  0  0  0  0  0  0  0  0  0  0  0
   26.5496  -20.4129  -18.2009 O   0  0  0  0  0  0  0  0  0  0  0  0
   20.6493  -21.6821  -10.9242 N   0  0  0  0  0  0  0  0  0  0  0  0
   20.0387  -22.4545  -11.9486 C   0  0  0  0  0  0  0  0  0  0  0  0
   19.1331  -23.2853  -11.7011 O   0  0  0  0  0  0  0  0  0  0  0  0
   20.5117  -22.2488  -13.3584 C   0  0  0  0  0  0  0  0  0  0  0  0
   21.6179  -21.2543  -13.3523 C   0  0  0  0  0  0  0  0  0  0  0  0
   22.2187  -21.0546  -14.7275 C   0  0  2  0  0  0  0  0  0  0  0  0
   23.2260  -19.9793  -14.5732 N   0  0  0  0  0  0  0  0  0  0  0  0
   21.1837  -20.6457  -15.6965 C   0  0  0  0  0  0  0  0  0  0  0  0
   20.9919  -19.4180  -15.8841 O   0  0  0  0  0  0  0  0  0  0  0  0
   20.3901  -21.5031  -16.4345 O   0  0  0  0  0  0  0  0  0  0  0  0
  2  1  1  1
  3  2  1  0
  4  3  1  0
  4  5  2  0
  6  5  1  0
  7  6  1  0
  8  7  2  0
  9 10  2  0
  9  8  1  0
 10 11  1  0
 11 12  2  0
 12  7  1  0
 12  4  1  0
 13 15  1  0
 13  2  1  0
 14 13  2  0
 16 17  1  6
 16 15  1  0
 18 17  1  0
 18 19  1  0
 19 23  1  0
 20 19  2  0
 21 16  1  0
 22 21  2  0
 24 25  1  0
 25 26  2  0
 27 25  1  0
 27 28  1  0
 29 28  1  1
 29 30  1  0
 30 21  1  0
 31 33  1  0
 31 29  1  0
 32 31  2  0
M  END
$$$$
