WEQ.pdb
     RDKit          3D

 33 34  0  0  1  0  0  0  0  0999 V2000
   23.6943  -16.6492  -17.3391 N   0  0  0  0  0  0  0  0  0  0  0  0
   22.8613  -17.4133  -16.4162 C   0  0  1  0  0  0  0  0  0  0  0  0
   21.4331  -17.1503  -16.8313 C   0  0  0  0  0  0  0  0  0  0  0  0
   20.9697  -15.8157  -16.4020 C   0  0  0  0  0  0  0  0  0  0  0  0
   21.0535  -14.6488  -17.1251 C   0  0  0  0  0  0  0  0  0  0  0  0
   20.5299  -13.6317  -16.4179 N   0  0  0  0  0  0  0  0  0  0  0  0
   20.1185  -14.1569  -15.2542 C   0  0  0  0  0  0  0  0  0  0  0  0
   19.5182  -13.5689  -14.1767 C   0  0  0  0  0  0  0  0  0  0  0  0
   19.1642  -14.2933  -13.0489 C   0  0  0  0  0  0  0  0  0  0  0  0
   19.4307  -15.6467  -13.0252 C   0  0  0  0  0  0  0  0  0  0  0  0
   20.0319  -16.2628  -14.0922 C   0  0  0  0  0  0  0  0  0  0  0  0
   20.3729  -15.5050  -15.2062 C   0  0  0  0  0  0  0  0  0  0  0  0
   23.0768  -18.8876  -16.6355 C   0  0  0  0  0  0  0  0  0  0  0  0
   23.3551  -19.3566  -17.7622 O   0  0  0  0  0  0  0  0  0  0  0  0
   22.9661  -19.7850  -15.5469 N   0  0  0  0  0  0  0  0  0  0  0  0
   23.0060  -21.2305  -15.8365 C   0  0  1  0  0  0  0  0  0  0  0  0
   24.4146  -21.6896  -15.7152 C   0  0  0  0  0  0  0  0  0  0  0  0
   25.4272  -20.6912  -15.3186 C   0  0  0  0  0  0  0  0  0  0  0  0
   26.8206  -21.2380  -15.5701 C   0  0  0  0  0  0  0  0  0  0  0  0
   27.7234  -20.5421  -16.0381 O   0  0  0  0  0  0  0  0  0  0  0  0
   22.1546  -21.8485  -14.8045 C   0  0  0  0  0  0  0  0  0  0  0  0
   21.8670  -21.2345  -13.7156 O   0  0  0  0  0  0  0  0  0  0  0  0
   27.0620  -22.5621  -15.2566 O   0  0  0  0  0  0  0  0  0  0  0  0
   19.9801  -21.7069  -11.2489 N   0  0  0  0  0  0  0  0  0  0  0  0
   18.8790  -22.5953  -11.3803 C   0  0  0  0  0  0  0  0  0  0  0  0
   18.1898  -22.9463  -10.3938 O   0  0  0  0  0  0  0  0  0  0  0  0
   18.5551  -23.1126  -12.7519 C   0  0  0  0  0  0  0  0  0  0  0  0
   19.6065  -22.6522  -13.6981 C   0  0  0  0  0  0  0  0  0  0  0  0
   20.7289  -23.6578  -13.8436 C   0  0  2  0  0  0  0  0  0  0  0  0
   21.5906  -23.1429  -14.9331 N   0  0  0  0  0  0  0  0  0  0  0  0
   20.1975  -24.9871  -14.2015 C   0  0  0  0  0  0  0  0  0  0  0  0
   20.0876  -25.2791  -15.4189 O   0  0  0  0  0  0  0  0  0  0  0  0
   19.8031  -25.9628  -13.3060 O   0  0  0  0  0  0  0  0  0  0  0  0
  2  1  1  6
  3  2  1  0
  4  3  1  0
  4  5  2  0
  6  5  1  0
  7  6  1  0
  8  7  2  0
  9 10  2  0
  9  8  1  0
 10 11  1  0
 11 12  2  0
 12  7  1  0
 12  4  1  0
 13 15  1  0
 13  2  1  0
 14 13  2  0
 16 17  1  1
 16 15  1  0
 18 17  1  0
 18 19  1  0
 19 23  1  0
 20 19  2  0
 21 16  1  0
 22 21  2  0
 24 25  1  0
 25 26  2  0
 27 25  1  0
 27 28  1  0
 29 28  1  6
 29 30  1  0
 30 21  1  0
 31 33  1  0
 31 29  1  0
 32 31  2  0
M  END
$$$$
