WEQ.pdb
     RDKit          3D

 33 34  0  0  1  0  0  0  0  0999 V2000
   26.0994  -21.6789  -14.2191 N   0  0  0  0  0  0  0  0  0  0  0  0
   24.9105  -21.5491  -15.0553 C   0  0  1  0  0  0  0  0  0  0  0  0
   24.2964  -22.9275  -15.1202 C   0  0  0  0  0  0  0  0  0  0  0  0
   25.2132  -23.9128  -15.7274 C   0  0  0  0  0  0  0  0  0  0  0  0
   25.5984  -25.1158  -15.1833 C   0  0  0  0  0  0  0  0  0  0  0  0
   26.4406  -25.7492  -16.0190 N   0  0  0  0  0  0  0  0  0  0  0  0
   26.5844  -24.9476  -17.0848 C   0  0  0  0  0  0  0  0  0  0  0  0
   27.3247  -25.1059  -18.2224 C   0  0  0  0  0  0  0  0  0  0  0  0
   27.3428  -24.1482  -19.2246 C   0  0  0  0  0  0  0  0  0  0  0  0
   26.5875  -23.0059  -19.0573 C   0  0  0  0  0  0  0  0  0  0  0  0
   25.8353  -22.8207  -17.9262 C   0  0  0  0  0  0  0  0  0  0  0  0
   25.8413  -23.8023  -16.9423 C   0  0  0  0  0  0  0  0  0  0  0  0
   23.8891  -20.6882  -14.3599 C   0  0  0  0  0  0  0  0  0  0  0  0
   23.8926  -20.5268  -13.1186 O   0  0  0  0  0  0  0  0  0  0  0  0
   22.8880  -20.0335  -15.1161 N   0  0  0  0  0  0  0  0  0  0  0  0
   21.9408  -19.1600  -14.3985 C   0  0  1  0  0  0  0  0  0  0  0  0
   21.7762  -17.9091  -15.1844 C   0  0  0  0  0  0  0  0  0  0  0  0
   21.1907  -18.0223  -16.5349 C   0  0  0  0  0  0  0  0  0  0  0  0
   21.1241  -16.6535  -17.1874 C   0  0  0  0  0  0  0  0  0  0  0  0
   21.4984  -15.6322  -16.6083 O   0  0  0  0  0  0  0  0  0  0  0  0
   20.6823  -19.9252  -14.3471 C   0  0  0  0  0  0  0  0  0  0  0  0
   20.2264  -20.5373  -15.3781 O   0  0  0  0  0  0  0  0  0  0  0  0
   20.6238  -16.5735  -18.4731 O   0  0  0  0  0  0  0  0  0  0  0  0
   17.6278  -23.8725  -13.2146 N   0  0  0  0  0  0  0  0  0  0  0  0
   18.9729  -23.9423  -12.7622 C   0  0  0  0  0  0  0  0  0  0  0  0
   19.6613  -24.9822  -12.8891 O   0  0  0  0  0  0  0  0  0  0  0  0
   19.5603  -22.7203  -12.1176 C   0  0  0  0  0  0  0  0  0  0  0  0
   18.5201  -21.6581  -12.0676 C   0  0  0  0  0  0  0  0  0  0  0  0
   18.5836  -20.7347  -13.2657 C   0  0  2  0  0  0  0  0  0  0  0  0
   19.8939  -20.0496  -13.1754 N   0  0  0  0  0  0  0  0  0  0  0  0
   17.4893  -19.7457  -13.2228 C   0  0  0  0  0  0  0  0  0  0  0  0
   16.3044  -20.1632  -13.2560 O   0  0  0  0  0  0  0  0  0  0  0  0
   17.6472  -18.3751  -13.1457 O   0  0  0  0  0  0  0  0  0  0  0  0
  2  1  1  1
  3  2  1  0
  4  3  1  0
  4  5  2  0
  6  5  1  0
  7  6  1  0
  8  7  2  0
  9 10  2  0
  9  8  1  0
 10 11  1  0
 11 12  2  0
 12  7  1  0
 12  4  1  0
 13 15  1  0
 13  2  1  0
 14 13  2  0
 16 17  1  6
 16 15  1  0
 18 17  1  0
 18 19  1  0
 19 23  1  0
 20 19  2  0
 21 16  1  0
 22 21  2  0
 24 25  1  0
 25 26  2  0
 27 25  1  0
 27 28  1  0
 29 28  1  1
 29 30  1  0
 30 21  1  0
 31 33  1  0
 31 29  1  0
 32 31  2  0
M  END
$$$$
