WEQ.pdb
     RDKit          3D

 33 34  0  0  1  0  0  0  0  0999 V2000
   26.6664  -16.9794  -16.9960 N   0  0  0  0  0  0  0  0  0  0  0  0
   26.2482  -18.1489  -16.2299 C   0  0  1  0  0  0  0  0  0  0  0  0
   26.2360  -17.7146  -14.7833 C   0  0  0  0  0  0  0  0  0  0  0  0
   26.9532  -18.6686  -13.9139 C   0  0  0  0  0  0  0  0  0  0  0  0
   28.2973  -18.9577  -13.9504 C   0  0  0  0  0  0  0  0  0  0  0  0
   28.5958  -19.8728  -13.0110 N   0  0  0  0  0  0  0  0  0  0  0  0
   27.4437  -20.1581  -12.3861 C   0  0  0  0  0  0  0  0  0  0  0  0
   27.1798  -21.0188  -11.3582 C   0  0  0  0  0  0  0  0  0  0  0  0
   25.9022  -21.1760  -10.8433 C   0  0  0  0  0  0  0  0  0  0  0  0
   24.8753  -20.4367  -11.3929 C   0  0  0  0  0  0  0  0  0  0  0  0
   25.1113  -19.5656  -12.4248 C   0  0  0  0  0  0  0  0  0  0  0  0
   26.4049  -19.4337  -12.9157 C   0  0  0  0  0  0  0  0  0  0  0  0
   24.8182  -18.4890  -16.5578 C   0  0  0  0  0  0  0  0  0  0  0  0
   23.9922  -17.6156  -16.9066 O   0  0  0  0  0  0  0  0  0  0  0  0
   24.3770  -19.8310  -16.4753 N   0  0  0  0  0  0  0  0  0  0  0  0
   23.0027  -20.1346  -16.9159 C   0  0  1  0  0  0  0  0  0  0  0  0
   23.0551  -21.3118  -17.8220 C   0  0  0  0  0  0  0  0  0  0  0  0
   21.7715  -21.8870  -18.2703 C   0  0  0  0  0  0  0  0  0  0  0  0
   22.0250  -23.0338  -19.2319 C   0  0  0  0  0  0  0  0  0  0  0  0
   22.9629  -23.8190  -19.0831 O   0  0  0  0  0  0  0  0  0  0  0  0
   22.2673  -20.4488  -15.6780 C   0  0  0  0  0  0  0  0  0  0  0  0
   22.8427  -21.0144  -14.6808 O   0  0  0  0  0  0  0  0  0  0  0  0
   21.1634  -23.1830  -20.3019 O   0  0  0  0  0  0  0  0  0  0  0  0
   18.0955  -17.1924  -13.1470 N   0  0  0  0  0  0  0  0  0  0  0  0
   17.9098  -18.3130  -12.2934 C   0  0  0  0  0  0  0  0  0  0  0  0
   17.4026  -18.1998  -11.1525 O   0  0  0  0  0  0  0  0  0  0  0  0
   18.3427  -19.6588  -12.7986 C   0  0  0  0  0  0  0  0  0  0  0  0
   19.1036  -19.4736  -14.0633 C   0  0  0  0  0  0  0  0  0  0  0  0
   20.2765  -20.4247  -14.1727 C   0  0  2  0  0  0  0  0  0  0  0  0
   20.8940  -20.1505  -15.4911 N   0  0  0  0  0  0  0  0  0  0  0  0
   19.8214  -21.8267  -14.1068 C   0  0  0  0  0  0  0  0  0  0  0  0
   19.6655  -22.4560  -15.1833 O   0  0  0  0  0  0  0  0  0  0  0  0
   19.5466  -22.5290  -12.9488 O   0  0  0  0  0  0  0  0  0  0  0  0
  2  1  1  6
  3  2  1  0
  4  3  1  0
  4  5  2  0
  6  5  1  0
  7  6  1  0
  8  7  2  0
  9 10  2  0
  9  8  1  0
 10 11  1  0
 11 12  2  0
 12  7  1  0
 12  4  1  0
 13 15  1  0
 13  2  1  0
 14 13  2  0
 16 17  1  6
 16 15  1  0
 18 17  1  0
 18 19  1  0
 19 23  1  0
 20 19  2  0
 21 16  1  0
 22 21  2  0
 24 25  1  0
 25 26  2  0
 27 25  1  0
 27 28  1  0
 29 28  1  6
 29 30  1  0
 30 21  1  0
 31 33  1  0
 31 29  1  0
 32 31  2  0
M  END
$$$$
