WEQ.pdb
     RDKit          3D

 33 34  0  0  1  0  0  0  0  0999 V2000
   18.9091  -19.2026  -14.7239 N   0  0  0  0  0  0  0  0  0  0  0  0
   19.8662  -19.8185  -13.8105 C   0  0  1  0  0  0  0  0  0  0  0  0
   20.8738  -18.7434  -13.4785 C   0  0  0  0  0  0  0  0  0  0  0  0
   21.6745  -18.3537  -14.6563 C   0  0  0  0  0  0  0  0  0  0  0  0
   21.7103  -17.1121  -15.2468 C   0  0  0  0  0  0  0  0  0  0  0  0
   22.5515  -17.1267  -16.2960 N   0  0  0  0  0  0  0  0  0  0  0  0
   23.0429  -18.3729  -16.3652 C   0  0  0  0  0  0  0  0  0  0  0  0
   23.9336  -18.9297  -17.2391 C   0  0  0  0  0  0  0  0  0  0  0  0
   24.3218  -20.2572  -17.1441 C   0  0  0  0  0  0  0  0  0  0  0  0
   23.7866  -21.0289  -16.1334 C   0  0  0  0  0  0  0  0  0  0  0  0
   22.8910  -20.4963  -15.2425 C   0  0  0  0  0  0  0  0  0  0  0  0
   22.5247  -19.1615  -15.3683 C   0  0  0  0  0  0  0  0  0  0  0  0
   19.1880  -20.1478  -12.5068 C   0  0  0  0  0  0  0  0  0  0  0  0
   18.5559  -19.2881  -11.8525 O   0  0  0  0  0  0  0  0  0  0  0  0
   19.2560  -21.4637  -11.9906 N   0  0  0  0  0  0  0  0  0  0  0  0
   18.0849  -21.9794  -11.2573 C   0  0  1  0  0  0  0  0  0  0  0  0
   16.9285  -22.0082  -12.1907 C   0  0  0  0  0  0  0  0  0  0  0  0
   15.9339  -20.9227  -12.0806 C   0  0  0  0  0  0  0  0  0  0  0  0
   14.8364  -21.1189  -13.1105 C   0  0  0  0  0  0  0  0  0  0  0  0
   14.8558  -20.5535  -14.2052 O   0  0  0  0  0  0  0  0  0  0  0  0
   18.4664  -23.3406  -10.8410 C   0  0  0  0  0  0  0  0  0  0  0  0
   19.1568  -24.1070  -11.6036 O   0  0  0  0  0  0  0  0  0  0  0  0
   13.7910  -21.9635  -12.7887 O   0  0  0  0  0  0  0  0  0  0  0  0
   18.9088  -25.6317   -5.1310 N   0  0  0  0  0  0  0  0  0  0  0  0
   17.9056  -24.7214   -5.5599 C   0  0  0  0  0  0  0  0  0  0  0  0
   17.1461  -24.1421   -4.7482 O   0  0  0  0  0  0  0  0  0  0  0  0
   17.7745  -24.4656   -7.0334 C   0  0  0  0  0  0  0  0  0  0  0  0
   18.8061  -25.2612   -7.7514 C   0  0  0  0  0  0  0  0  0  0  0  0
   18.5925  -25.2599   -9.2503 C   0  0  2  0  0  0  0  0  0  0  0  0
   18.1138  -23.8987   -9.5864 N   0  0  0  0  0  0  0  0  0  0  0  0
   17.5816  -26.2633   -9.6358 C   0  0  0  0  0  0  0  0  0  0  0  0
   16.4374  -25.8627   -9.9667 O   0  0  0  0  0  0  0  0  0  0  0  0
   17.7787  -27.6306   -9.6702 O   0  0  0  0  0  0  0  0  0  0  0  0
  2  1  1  6
  3  2  1  0
  4  3  1  0
  4  5  2  0
  6  5  1  0
  7  6  1  0
  8  7  2  0
  9 10  2  0
  9  8  1  0
 10 11  1  0
 11 12  2  0
 12  7  1  0
 12  4  1  0
 13 15  1  0
 13  2  1  0
 14 13  2  0
 16 17  1  6
 16 15  1  0
 18 17  1  0
 18 19  1  0
 19 23  1  0
 20 19  2  0
 21 16  1  0
 22 21  2  0
 24 25  1  0
 25 26  2  0
 27 25  1  0
 27 28  1  0
 29 28  1  1
 29 30  1  0
 30 21  1  0
 31 33  1  0
 31 29  1  0
 32 31  2  0
M  END
$$$$
