NGN.pdb
     RDKit          3D

 21 20  0  0  1  0  0  0  0  0999 V2000
    6.6132  -12.2258   18.3882 N   0  0  0  0  0  0  0  0  0  0  0  0
    7.4048  -13.3568   18.0033 C   0  0  0  0  0  0  0  0  0  0  0  0
    7.4845  -13.6004   16.7751 O   0  0  0  0  0  0  0  0  0  0  0  0
    8.0695  -14.1574   19.0429 C   0  0  0  0  0  0  0  0  0  0  0  0
    8.1488  -15.6365   18.7656 C   0  0  2  0  0  0  0  0  0  0  0  0
    6.7572  -16.1239   18.8396 N   0  0  0  0  0  0  0  0  0  0  0  0
    8.9529  -16.2903   19.8276 C   0  0  0  0  0  0  0  0  0  0  0  0
   10.1969  -16.1783   19.8760 O   0  0  0  0  0  0  0  0  0  0  0  0
    8.3404  -17.0935   20.8656 N   0  0  0  0  0  0  0  0  0  0  0  0
    9.1883  -17.8370   21.7596 C   0  0  0  0  0  0  0  0  0  0  0  0
   10.0116  -17.0492   22.6596 C   0  0  0  0  0  0  0  0  0  0  0  0
    9.5663  -15.8804   22.9508 O   0  0  0  0  0  0  0  0  0  0  0  0
   12.1357  -19.1952   24.7996 N   0  0  0  0  0  0  0  0  0  0  0  0
   11.9951  -18.2252   25.8133 C   0  0  0  0  0  0  0  0  0  0  0  0
   11.9172  -18.5865   27.0030 O   0  0  0  0  0  0  0  0  0  0  0  0
   11.9416  -16.8037   25.4610 C   0  0  0  0  0  0  0  0  0  0  0  0
   12.0407  -16.5661   23.9698 C   0  0  2  0  0  0  0  0  0  0  0  0
   11.2299  -17.4770   23.2142 N   0  0  0  0  0  0  0  0  0  0  0  0
   13.4624  -16.5673   23.5170 C   0  0  0  0  0  0  0  0  0  0  0  0
   13.9533  -17.3814   22.5105 O   0  0  0  0  0  0  0  0  0  0  0  0
   14.2691  -15.7846   24.0792 O   0  0  0  0  0  0  0  0  0  0  0  0
  1  2  1  0
  2  3  2  0
  4  5  1  0
  4  2  1  0
  5  6  1  1
  7  5  1  0
  7  8  2  0
  9  7  1  0
 10  9  1  0
 10 11  1  0
 11 18  1  0
 12 11  2  0
 14 16  1  0
 14 13  1  0
 15 14  2  0
 17 16  1  1
 17 19  1  0
 18 17  1  0
 19 21  2  0
 19 20  1  0
M  END
$$$$
