NGN.pdb
     RDKit          3D

 21 20  0  0  1  0  0  0  0  0999 V2000
    5.7731  -18.2162   16.0799 N   0  0  0  0  0  0  0  0  0  0  0  0
    7.1601  -18.4494   16.3550 C   0  0  0  0  0  0  0  0  0  0  0  0
    7.6641  -19.4943   15.8770 O   0  0  0  0  0  0  0  0  0  0  0  0
    7.9071  -17.4750   17.1650 C   0  0  0  0  0  0  0  0  0  0  0  0
    8.5519  -18.0299   18.4089 C   0  0  2  0  0  0  0  0  0  0  0  0
    7.4340  -18.3668   19.3125 N   0  0  0  0  0  0  0  0  0  0  0  0
    9.3879  -16.9770   19.0371 C   0  0  0  0  0  0  0  0  0  0  0  0
   10.4970  -16.6465   18.5648 O   0  0  0  0  0  0  0  0  0  0  0  0
    8.9645  -16.2752   20.2312 N   0  0  0  0  0  0  0  0  0  0  0  0
    9.8785  -15.3573   20.8581 C   0  0  0  0  0  0  0  0  0  0  0  0
   10.6379  -15.8805   21.9796 C   0  0  0  0  0  0  0  0  0  0  0  0
   11.3844  -15.0365   22.5958 O   0  0  0  0  0  0  0  0  0  0  0  0
   12.9894  -18.5100   25.6124 N   0  0  0  0  0  0  0  0  0  0  0  0
   11.5911  -18.6283   25.7504 C   0  0  0  0  0  0  0  0  0  0  0  0
   11.1145  -19.0869   26.8060 O   0  0  0  0  0  0  0  0  0  0  0  0
   10.7117  -18.2124   24.6543 C   0  0  0  0  0  0  0  0  0  0  0  0
   11.4736  -17.6521   23.4730 C   0  0  2  0  0  0  0  0  0  0  0  0
   10.6055  -17.2154   22.4177 N   0  0  0  0  0  0  0  0  0  0  0  0
   12.5066  -18.6153   22.9918 C   0  0  0  0  0  0  0  0  0  0  0  0
   13.8001  -18.2571   22.6522 O   0  0  0  0  0  0  0  0  0  0  0  0
   12.1903  -19.8269   22.8856 O   0  0  0  0  0  0  0  0  0  0  0  0
  1  2  1  0
  2  3  2  0
  4  5  1  0
  4  2  1  0
  5  6  1  1
  7  5  1  0
  7  8  2  0
  9  7  1  0
 10  9  1  0
 10 11  1  0
 11 18  1  0
 12 11  2  0
 14 16  1  0
 14 13  1  0
 15 14  2  0
 17 16  1  1
 17 19  1  0
 18 17  1  0
 19 21  2  0
 19 20  1  0
M  END
$$$$
