NGN.pdb
     RDKit          3D

 21 20  0  0  1  0  0  0  0  0999 V2000
    3.1019  -21.8520   20.4384 N   0  0  0  0  0  0  0  0  0  0  0  0
    3.1701  -21.7862   21.8684 C   0  0  0  0  0  0  0  0  0  0  0  0
    2.3312  -21.0501   22.4418 O   0  0  0  0  0  0  0  0  0  0  0  0
    4.1960  -22.5666   22.5768 C   0  0  0  0  0  0  0  0  0  0  0  0
    4.8538  -21.8645   23.7367 C   0  0  2  0  0  0  0  0  0  0  0  0
    5.5041  -20.6732   23.1557 N   0  0  0  0  0  0  0  0  0  0  0  0
    5.8904  -22.7515   24.3205 C   0  0  0  0  0  0  0  0  0  0  0  0
    5.8071  -23.9968   24.2526 O   0  0  0  0  0  0  0  0  0  0  0  0
    7.0548  -22.2226   25.0005 N   0  0  0  0  0  0  0  0  0  0  0  0
    8.0081  -23.1425   25.5627 C   0  0  0  0  0  0  0  0  0  0  0  0
    9.1485  -22.5465   26.2353 C   0  0  0  0  0  0  0  0  0  0  0  0
    9.0890  -22.5103   27.5176 O   0  0  0  0  0  0  0  0  0  0  0  0
   13.6695  -20.7996   27.6896 N   0  0  0  0  0  0  0  0  0  0  0  0
   13.7329  -20.7685   26.2813 C   0  0  0  0  0  0  0  0  0  0  0  0
   14.8068  -20.4779   25.7208 O   0  0  0  0  0  0  0  0  0  0  0  0
   12.5387  -21.0772   25.4899 C   0  0  0  0  0  0  0  0  0  0  0  0
   11.3454  -21.4384   26.3475 C   0  0  2  0  0  0  0  0  0  0  0  0
   10.2794  -22.0228   25.5859 N   0  0  0  0  0  0  0  0  0  0  0  0
   10.8878  -20.2695   27.1541 C   0  0  0  0  0  0  0  0  0  0  0  0
   11.2896  -20.0227   28.4559 O   0  0  0  0  0  0  0  0  0  0  0  0
   10.0887  -19.4556   26.6265 O   0  0  0  0  0  0  0  0  0  0  0  0
  1  2  1  0
  2  3  2  0
  4  5  1  0
  4  2  1  0
  5  6  1  6
  7  5  1  0
  7  8  2  0
  9  7  1  0
 10  9  1  0
 10 11  1  0
 11 18  1  0
 12 11  2  0
 14 16  1  0
 14 13  1  0
 15 14  2  0
 17 16  1  6
 17 19  1  0
 18 17  1  0
 19 21  2  0
 19 20  1  0
M  END
$$$$
