NGN.pdb
     RDKit          3D

 21 20  0  0  1  0  0  0  0  0999 V2000
    7.7525  -18.9903   15.6914 N   0  0  0  0  0  0  0  0  0  0  0  0
    7.7279  -17.5717   15.4890 C   0  0  0  0  0  0  0  0  0  0  0  0
    7.3208  -17.1660   14.3737 O   0  0  0  0  0  0  0  0  0  0  0  0
    8.1707  -16.6821   16.5734 C   0  0  0  0  0  0  0  0  0  0  0  0
    8.6703  -17.3766   17.8140 C   0  0  2  0  0  0  0  0  0  0  0  0
    7.4603  -17.8734   18.4988 N   0  0  0  0  0  0  0  0  0  0  0  0
    9.3542  -16.3889   18.6851 C   0  0  0  0  0  0  0  0  0  0  0  0
   10.4440  -15.8686   18.3628 O   0  0  0  0  0  0  0  0  0  0  0  0
    8.7963  -15.9741   19.9557 N   0  0  0  0  0  0  0  0  0  0  0  0
    9.5978  -15.1641   20.8347 C   0  0  0  0  0  0  0  0  0  0  0  0
   10.7127  -15.8348   21.4793 C   0  0  0  0  0  0  0  0  0  0  0  0
   11.7036  -15.0876   21.8091 O   0  0  0  0  0  0  0  0  0  0  0  0
   12.3451  -16.5897   25.2701 N   0  0  0  0  0  0  0  0  0  0  0  0
   10.9400  -16.4730   25.2508 C   0  0  0  0  0  0  0  0  0  0  0  0
   10.3578  -15.9027   26.1930 O   0  0  0  0  0  0  0  0  0  0  0  0
   10.1774  -17.0217   24.1261 C   0  0  0  0  0  0  0  0  0  0  0  0
   11.0594  -17.6722   23.0827 C   0  0  2  0  0  0  0  0  0  0  0  0
   10.7699  -17.2116   21.7553 N   0  0  0  0  0  0  0  0  0  0  0  0
   11.0106  -19.1598   23.1870 C   0  0  0  0  0  0  0  0  0  0  0  0
   12.1021  -19.9863   22.9805 O   0  0  0  0  0  0  0  0  0  0  0  0
    9.9155  -19.7027   23.4794 O   0  0  0  0  0  0  0  0  0  0  0  0
  1  2  1  0
  2  3  2  0
  4  5  1  0
  4  2  1  0
  5  6  1  1
  7  5  1  0
  7  8  2  0
  9  7  1  0
 10  9  1  0
 10 11  1  0
 11 18  1  0
 12 11  2  0
 14 16  1  0
 14 13  1  0
 15 14  2  0
 17 16  1  1
 17 19  1  0
 18 17  1  0
 19 21  2  0
 19 20  1  0
M  END
$$$$
