NGN.pdb
     RDKit          3D

 21 20  0  0  1  0  0  0  0  0999 V2000
    5.6001  -12.6379   18.8326 N   0  0  0  0  0  0  0  0  0  0  0  0
    6.5960  -13.2032   17.9710 C   0  0  0  0  0  0  0  0  0  0  0  0
    6.1844  -13.8761   16.9953 O   0  0  0  0  0  0  0  0  0  0  0  0
    8.0184  -12.9720   18.2659 C   0  0  0  0  0  0  0  0  0  0  0  0
    8.8997  -14.1919   18.1880 C   0  0  2  0  0  0  0  0  0  0  0  0
    8.4499  -15.0708   19.2857 N   0  0  0  0  0  0  0  0  0  0  0  0
   10.3088  -13.7927   18.4275 C   0  0  0  0  0  0  0  0  0  0  0  0
   10.9792  -13.1890   17.5625 O   0  0  0  0  0  0  0  0  0  0  0  0
   10.9836  -14.0807   19.6763 N   0  0  0  0  0  0  0  0  0  0  0  0
   12.4168  -13.9647   19.7340 C   0  0  0  0  0  0  0  0  0  0  0  0
   13.1224  -15.0786   20.3419 C   0  0  0  0  0  0  0  0  0  0  0  0
   13.2338  -16.1348   19.6200 O   0  0  0  0  0  0  0  0  0  0  0  0
   16.8257  -13.9569   21.7825 N   0  0  0  0  0  0  0  0  0  0  0  0
   16.4209  -15.2670   21.4540 C   0  0  0  0  0  0  0  0  0  0  0  0
   16.6433  -15.7106   20.3114 O   0  0  0  0  0  0  0  0  0  0  0  0
   15.7435  -16.0944   22.4561 C   0  0  0  0  0  0  0  0  0  0  0  0
   14.2653  -16.2588   22.1771 C   0  0  2  0  0  0  0  0  0  0  0  0
   13.6739  -15.0698   21.6344 N   0  0  0  0  0  0  0  0  0  0  0  0
   13.5399  -16.7489   23.3854 C   0  0  0  0  0  0  0  0  0  0  0  0
   13.8837  -17.8946   24.0827 O   0  0  0  0  0  0  0  0  0  0  0  0
   12.5559  -16.0869   23.8010 O   0  0  0  0  0  0  0  0  0  0  0  0
  1  2  1  0
  2  3  2  0
  4  5  1  0
  4  2  1  0
  5  6  1  1
  7  5  1  0
  7  8  2  0
  9  7  1  0
 10  9  1  0
 10 11  1  0
 11 18  1  0
 12 11  2  0
 14 16  1  0
 14 13  1  0
 15 14  2  0
 17 16  1  1
 17 19  1  0
 18 17  1  0
 19 21  2  0
 19 20  1  0
M  END
$$$$
