NGN.pdb
     RDKit          3D

 21 20  0  0  1  0  0  0  0  0999 V2000
   10.1249  -18.6323   17.7187 N   0  0  0  0  0  0  0  0  0  0  0  0
    8.9430  -18.6000   18.5286 C   0  0  0  0  0  0  0  0  0  0  0  0
    7.8874  -19.0338   18.0071 O   0  0  0  0  0  0  0  0  0  0  0  0
    9.0238  -18.0724   19.8993 C   0  0  0  0  0  0  0  0  0  0  0  0
   10.3764  -17.5512   20.3110 C   0  0  2  0  0  0  0  0  0  0  0  0
   11.2056  -18.7512   20.5393 N   0  0  0  0  0  0  0  0  0  0  0  0
   10.2436  -16.7994   21.5835 C   0  0  0  0  0  0  0  0  0  0  0  0
    9.6244  -15.7155   21.6475 O   0  0  0  0  0  0  0  0  0  0  0  0
   10.8241  -17.2805   22.8202 N   0  0  0  0  0  0  0  0  0  0  0  0
   10.6503  -16.5017   24.0179 C   0  0  0  0  0  0  0  0  0  0  0  0
   11.2441  -17.0482   25.2250 C   0  0  0  0  0  0  0  0  0  0  0  0
   10.8374  -18.2156   25.5728 O   0  0  0  0  0  0  0  0  0  0  0  0
   15.0177  -14.7879   26.1116 N   0  0  0  0  0  0  0  0  0  0  0  0
   14.9423  -16.0579   26.7196 C   0  0  0  0  0  0  0  0  0  0  0  0
   15.7365  -16.9530   26.3732 O   0  0  0  0  0  0  0  0  0  0  0  0
   13.9334  -16.3147   27.7510 C   0  0  0  0  0  0  0  0  0  0  0  0
   12.7052  -17.0120   27.2077 C   0  0  2  0  0  0  0  0  0  0  0  0
   12.2084  -16.3952   26.0115 N   0  0  0  0  0  0  0  0  0  0  0  0
   11.6509  -17.1413   28.2556 C   0  0  0  0  0  0  0  0  0  0  0  0
   10.3691  -16.6329   28.1306 O   0  0  0  0  0  0  0  0  0  0  0  0
   11.9367  -17.7469   29.3190 O   0  0  0  0  0  0  0  0  0  0  0  0
  1  2  1  0
  2  3  2  0
  4  5  1  0
  4  2  1  0
  5  6  1  1
  7  5  1  0
  7  8  2  0
  9  7  1  0
 10  9  1  0
 10 11  1  0
 11 18  1  0
 12 11  2  0
 14 16  1  0
 14 13  1  0
 15 14  2  0
 17 16  1  1
 17 19  1  0
 18 17  1  0
 19 21  2  0
 19 20  1  0
M  END
$$$$
