NGN.pdb
     RDKit          3D

 21 20  0  0  1  0  0  0  0  0999 V2000
    7.9495  -12.7377   16.3247 N   0  0  0  0  0  0  0  0  0  0  0  0
    7.5001  -13.8336   17.1315 C   0  0  0  0  0  0  0  0  0  0  0  0
    7.2494  -14.9093   16.5362 O   0  0  0  0  0  0  0  0  0  0  0  0
    7.3583  -13.6478   18.5837 C   0  0  0  0  0  0  0  0  0  0  0  0
    8.3138  -14.4462   19.4324 C   0  0  2  0  0  0  0  0  0  0  0  0
    7.8886  -15.8522   19.2837 N   0  0  0  0  0  0  0  0  0  0  0  0
    8.1652  -14.0380   20.8513 C   0  0  0  0  0  0  0  0  0  0  0  0
    8.5445  -12.9189   21.2587 O   0  0  0  0  0  0  0  0  0  0  0  0
    7.5725  -14.9138   21.8411 N   0  0  0  0  0  0  0  0  0  0  0  0
    7.5639  -14.4990   23.2191 C   0  0  0  0  0  0  0  0  0  0  0  0
    8.5673  -15.1078   24.0740 C   0  0  0  0  0  0  0  0  0  0  0  0
    8.1246  -15.7209   25.1119 O   0  0  0  0  0  0  0  0  0  0  0  0
   10.5240  -17.5876   26.8183 N   0  0  0  0  0  0  0  0  0  0  0  0
    9.6970  -17.8590   25.7090 C   0  0  0  0  0  0  0  0  0  0  0  0
    8.6094  -18.4415   25.8813 O   0  0  0  0  0  0  0  0  0  0  0  0
   10.1217  -17.4552   24.3658 C   0  0  0  0  0  0  0  0  0  0  0  0
   10.8031  -16.1042   24.3488 C   0  0  2  0  0  0  0  0  0  0  0  0
    9.9524  -15.0671   23.8400 N   0  0  0  0  0  0  0  0  0  0  0  0
   12.1082  -16.1677   23.6283 C   0  0  0  0  0  0  0  0  0  0  0  0
   13.3363  -16.2707   24.2594 O   0  0  0  0  0  0  0  0  0  0  0  0
   12.0999  -16.1253   22.3723 O   0  0  0  0  0  0  0  0  0  0  0  0
  1  2  1  0
  2  3  2  0
  4  5  1  0
  4  2  1  0
  5  6  1  1
  7  5  1  0
  7  8  2  0
  9  7  1  0
 10  9  1  0
 10 11  1  0
 11 18  1  0
 12 11  2  0
 14 16  1  0
 14 13  1  0
 15 14  2  0
 17 16  1  6
 17 19  1  0
 18 17  1  0
 19 21  2  0
 19 20  1  0
M  END
$$$$
