NGN.pdb
     RDKit          3D

 21 20  0  0  1  0  0  0  0  0999 V2000
    7.6739  -12.0512   18.6167 N   0  0  0  0  0  0  0  0  0  0  0  0
    7.9291  -13.4268   18.9273 C   0  0  0  0  0  0  0  0  0  0  0  0
    7.9161  -14.2355   17.9680 O   0  0  0  0  0  0  0  0  0  0  0  0
    8.1876  -13.8139   20.3226 C   0  0  0  0  0  0  0  0  0  0  0  0
    8.5141  -15.2691   20.5382 C   0  0  2  0  0  0  0  0  0  0  0  0
    7.2326  -15.9854   20.3817 N   0  0  0  0  0  0  0  0  0  0  0  0
    9.0136  -15.4578   21.9228 C   0  0  0  0  0  0  0  0  0  0  0  0
   10.1333  -15.0350   22.2832 O   0  0  0  0  0  0  0  0  0  0  0  0
    8.2312  -16.1418   22.9316 N   0  0  0  0  0  0  0  0  0  0  0  0
    8.8984  -16.6517   24.1003 C   0  0  0  0  0  0  0  0  0  0  0  0
    9.2282  -15.6750   25.1228 C   0  0  0  0  0  0  0  0  0  0  0  0
   10.4612  -15.3215   25.1858 O   0  0  0  0  0  0  0  0  0  0  0  0
    5.6395  -13.0362   26.2318 N   0  0  0  0  0  0  0  0  0  0  0  0
    6.9345  -12.6429   26.6273 C   0  0  0  0  0  0  0  0  0  0  0  0
    7.4626  -11.6466   26.0978 O   0  0  0  0  0  0  0  0  0  0  0  0
    7.6474  -13.4067   27.6549 C   0  0  0  0  0  0  0  0  0  0  0  0
    8.7585  -14.2608   27.0841 C   0  0  2  0  0  0  0  0  0  0  0  0
    8.3060  -15.1103   26.0204 N   0  0  0  0  0  0  0  0  0  0  0  0
    9.4570  -15.0252   28.1584 C   0  0  0  0  0  0  0  0  0  0  0  0
    9.6558  -16.3951   28.1292 O   0  0  0  0  0  0  0  0  0  0  0  0
    9.8939  -14.3938   29.1533 O   0  0  0  0  0  0  0  0  0  0  0  0
  1  2  1  0
  2  3  2  0
  4  5  1  0
  4  2  1  0
  5  6  1  1
  7  5  1  0
  7  8  2  0
  9  7  1  0
 10  9  1  0
 10 11  1  0
 11 18  1  0
 12 11  2  0
 14 16  1  0
 14 13  1  0
 15 14  2  0
 17 16  1  1
 17 19  1  0
 18 17  1  0
 19 21  2  0
 19 20  1  0
M  END
$$$$
