NGN.pdb
     RDKit          3D

 21 20  0  0  1  0  0  0  0  0999 V2000
    7.6258  -19.2888   16.5176 N   0  0  0  0  0  0  0  0  0  0  0  0
    7.6355  -18.9129   17.9006 C   0  0  0  0  0  0  0  0  0  0  0  0
    7.8022  -19.8338   18.7363 O   0  0  0  0  0  0  0  0  0  0  0  0
    7.4538  -17.4992   18.2636 C   0  0  0  0  0  0  0  0  0  0  0  0
    8.6076  -16.8690   19.0001 C   0  0  2  0  0  0  0  0  0  0  0  0
    9.0691  -17.8950   19.9563 N   0  0  0  0  0  0  0  0  0  0  0  0
    8.1202  -15.6853   19.7507 C   0  0  0  0  0  0  0  0  0  0  0  0
    7.6340  -14.6909   19.1703 O   0  0  0  0  0  0  0  0  0  0  0  0
    8.1812  -15.6180   21.1962 N   0  0  0  0  0  0  0  0  0  0  0  0
    7.6879  -14.4390   21.8579 C   0  0  0  0  0  0  0  0  0  0  0  0
    7.8097  -14.4223   23.3046 C   0  0  0  0  0  0  0  0  0  0  0  0
    7.2866  -15.4180   23.9244 O   0  0  0  0  0  0  0  0  0  0  0  0
    5.9902  -10.8782   26.6541 N   0  0  0  0  0  0  0  0  0  0  0  0
    6.6811  -12.0805   26.9100 C   0  0  0  0  0  0  0  0  0  0  0  0
    7.1676  -12.2812   28.0391 O   0  0  0  0  0  0  0  0  0  0  0  0
    6.8212  -13.0818   25.8491 C   0  0  0  0  0  0  0  0  0  0  0  0
    8.2637  -13.3298   25.4651 C   0  0  2  0  0  0  0  0  0  0  0  0
    8.4468  -13.4116   24.0446 N   0  0  0  0  0  0  0  0  0  0  0  0
    8.8132  -14.5219   26.1745 C   0  0  0  0  0  0  0  0  0  0  0  0
    9.2987  -15.6486   25.5327 O   0  0  0  0  0  0  0  0  0  0  0  0
    8.8397  -14.5098   27.4309 O   0  0  0  0  0  0  0  0  0  0  0  0
  1  2  1  0
  2  3  2  0
  4  5  1  0
  4  2  1  0
  5  6  1  1
  7  5  1  0
  7  8  2  0
  9  7  1  0
 10  9  1  0
 10 11  1  0
 11 18  1  0
 12 11  2  0
 14 16  1  0
 14 13  1  0
 15 14  2  0
 17 16  1  6
 17 19  1  0
 18 17  1  0
 19 21  2  0
 19 20  1  0
M  END
$$$$
