KVA.pdb
     RDKit          3D

 22 21  0  0  1  0  0  0  0  0999 V2000
   17.9519  -12.7746  -15.6949 N   0  0  0  0  0  0  0  0  0  0  0  0
   18.0658  -11.3827  -16.0219 C   0  0  1  0  0  0  0  0  0  0  0  0
   16.7505  -10.6897  -15.8621 C   0  0  0  0  0  0  0  0  0  0  0  0
   15.7112  -11.0937  -16.8313 C   0  0  0  0  0  0  0  0  0  0  0  0
   14.4270  -10.3545  -16.7671 C   0  0  0  0  0  0  0  0  0  0  0  0
   13.4181  -10.8531  -17.7806 C   0  0  0  0  0  0  0  0  0  0  0  0
   12.2151  -10.0675  -17.7554 N   0  0  0  0  0  0  0  0  0  0  0  0
   19.1203  -10.7215  -15.1830 C   0  0  0  0  0  0  0  0  0  0  0  0
   19.0702  -10.9394  -13.9317 O   0  0  0  0  0  0  0  0  0  0  0  0
   22.6159  -11.1325  -15.1341 C   0  0  0  0  0  0  0  0  0  0  0  0
   22.4983   -9.6375  -15.3632 C   0  0  2  0  0  0  0  0  0  0  0  0
   23.5878   -8.8713  -14.6700 C   0  0  0  0  0  0  0  0  0  0  0  0
   21.1181   -9.2194  -14.8862 C   0  0  2  0  0  0  0  0  0  0  0  0
   20.1350   -9.8903  -15.7240 N   0  0  0  0  0  0  0  0  0  0  0  0
   20.9744   -7.7604  -15.0642 C   0  0  0  0  0  0  0  0  0  0  0  0
   21.0777   -7.1966  -16.1970 O   0  0  0  0  0  0  0  0  0  0  0  0
   19.5461   -4.9039  -13.3338 C   0  0  0  0  0  0  0  0  0  0  0  0
   20.7360   -5.4571  -14.0882 C   0  0  2  0  0  0  0  0  0  0  0  0
   20.7093   -6.8970  -13.9639 N   0  0  0  0  0  0  0  0  0  0  0  0
   21.9790   -4.8746  -13.5243 C   0  0  0  0  0  0  0  0  0  0  0  0
   22.7452   -5.6318  -12.6737 O   0  0  0  0  0  0  0  0  0  0  0  0
   22.3249   -3.7036  -13.8221 O   0  0  0  0  0  0  0  0  0  0  0  0
  2  8  1  0
  2  1  1  1
  3  2  1  0
  4  3  1  0
  5  4  1  0
  6  5  1  0
  7  6  1  0
  8  9  2  0
 11 10  1  1
 11 13  1  0
 12 11  1  0
 13 14  1  6
 14  8  1  0
 15 13  1  0
 16 15  2  0
 18 17  1  1
 18 19  1  0
 18 20  1  0
 19 15  1  0
 20 22  2  0
 20 21  1  0
M  END
$$$$
