KVA.pdb
     RDKit          3D

 22 21  0  0  1  0  0  0  0  0999 V2000
   27.0058  -21.3498  -17.9828 N   0  0  0  0  0  0  0  0  0  0  0  0
   27.2072  -21.7853  -16.6311 C   0  0  1  0  0  0  0  0  0  0  0  0
   28.6418  -21.6422  -16.2346 C   0  0  0  0  0  0  0  0  0  0  0  0
   29.5728  -22.5622  -16.9200 C   0  0  0  0  0  0  0  0  0  0  0  0
   29.4860  -23.9927  -16.5384 C   0  0  0  0  0  0  0  0  0  0  0  0
   30.4650  -24.8587  -17.3035 C   0  0  0  0  0  0  0  0  0  0  0  0
   30.4301  -26.2209  -16.8473 N   0  0  0  0  0  0  0  0  0  0  0  0
   26.3172  -21.0290  -15.6882 C   0  0  0  0  0  0  0  0  0  0  0  0
   26.4163  -19.7619  -15.7063 O   0  0  0  0  0  0  0  0  0  0  0  0
   22.8640  -20.7320  -15.5727 C   0  0  0  0  0  0  0  0  0  0  0  0
   23.1331  -21.2050  -14.1567 C   0  0  2  0  0  0  0  0  0  0  0  0
   22.2155  -20.5579  -13.1599 C   0  0  0  0  0  0  0  0  0  0  0  0
   24.5934  -20.9127  -13.8577 C   0  0  2  0  0  0  0  0  0  0  0  0
   25.4015  -21.6620  -14.8084 N   0  0  0  0  0  0  0  0  0  0  0  0
   24.9048  -21.3876  -12.4945 C   0  0  0  0  0  0  0  0  0  0  0  0
   24.6754  -22.5775  -12.1162 O   0  0  0  0  0  0  0  0  0  0  0  0
   26.4020  -19.8309   -9.4226 C   0  0  0  0  0  0  0  0  0  0  0  0
   25.6079  -20.9080  -10.1301 C   0  0  2  0  0  0  0  0  0  0  0  0
   25.4854  -20.5281  -11.5195 N   0  0  0  0  0  0  0  0  0  0  0  0
   24.2842  -21.0427   -9.4731 C   0  0  0  0  0  0  0  0  0  0  0  0
   24.1714  -21.8283   -8.3532 O   0  0  0  0  0  0  0  0  0  0  0  0
   23.2802  -20.4452   -9.9363 O   0  0  0  0  0  0  0  0  0  0  0  0
  2  8  1  0
  2  1  1  6
  3  2  1  0
  4  3  1  0
  5  4  1  0
  6  5  1  0
  7  6  1  0
  8  9  2  0
 11 10  1  6
 11 13  1  0
 12 11  1  0
 13 14  1  6
 14  8  1  0
 15 13  1  0
 16 15  2  0
 18 17  1  1
 18 19  1  0
 18 20  1  0
 19 15  1  0
 20 22  2  0
 20 21  1  0
M  END
$$$$
