KVA.pdb
     RDKit          3D

 22 21  0  0  1  0  0  0  0  0999 V2000
   25.8870  -22.2995  -10.8687 N   0  0  0  0  0  0  0  0  0  0  0  0
   25.0893  -21.1608  -11.2212 C   0  0  1  0  0  0  0  0  0  0  0  0
   25.3008  -20.0427  -10.2512 C   0  0  0  0  0  0  0  0  0  0  0  0
   24.3999  -20.0544   -9.0802 C   0  0  0  0  0  0  0  0  0  0  0  0
   24.6903  -21.0661   -8.0354 C   0  0  0  0  0  0  0  0  0  0  0  0
   25.2695  -20.4528   -6.7775 C   0  0  0  0  0  0  0  0  0  0  0  0
   25.5641  -21.4553   -5.7911 N   0  0  0  0  0  0  0  0  0  0  0  0
   25.3879  -20.7126  -12.6222 C   0  0  0  0  0  0  0  0  0  0  0  0
   26.5819  -20.8727  -13.0277 O   0  0  0  0  0  0  0  0  0  0  0  0
   24.1459  -22.0308  -15.5430 C   0  0  0  0  0  0  0  0  0  0  0  0
   23.8075  -20.5686  -15.7634 C   0  0  2  0  0  0  0  0  0  0  0  0
   23.9537  -20.1644  -17.2021 C   0  0  0  0  0  0  0  0  0  0  0  0
   24.7119  -19.7580  -14.8510 C   0  0  2  0  0  0  0  0  0  0  0  0
   24.4136  -20.1361  -13.4776 N   0  0  0  0  0  0  0  0  0  0  0  0
   24.4026  -18.3245  -15.0249 C   0  0  0  0  0  0  0  0  0  0  0  0
   23.2509  -17.8413  -14.7971 O   0  0  0  0  0  0  0  0  0  0  0  0
   26.4183  -15.2413  -15.6075 C   0  0  0  0  0  0  0  0  0  0  0  0
   25.1029  -15.9898  -15.6358 C   0  0  2  0  0  0  0  0  0  0  0  0
   25.3891  -17.3960  -15.4620 N   0  0  0  0  0  0  0  0  0  0  0  0
   24.4199  -15.7179  -16.9249 C   0  0  0  0  0  0  0  0  0  0  0  0
   23.5451  -14.6635  -17.0078 O   0  0  0  0  0  0  0  0  0  0  0  0
   24.6400  -16.4438  -17.9270 O   0  0  0  0  0  0  0  0  0  0  0  0
  2  8  1  0
  2  1  1  1
  3  2  1  0
  4  3  1  0
  5  4  1  0
  6  5  1  0
  7  6  1  0
  8  9  2  0
 11 10  1  6
 11 13  1  0
 12 11  1  0
 13 14  1  1
 14  8  1  0
 15 13  1  0
 16 15  2  0
 18 17  1  6
 18 19  1  0
 18 20  1  0
 19 15  1  0
 20 22  2  0
 20 21  1  0
M  END
$$$$
