KVA.pdb
     RDKit          3D

 22 21  0  0  1  0  0  0  0  0999 V2000
   28.1769  -21.4403  -16.0291 N   0  0  0  0  0  0  0  0  0  0  0  0
   27.5007  -20.4164  -15.2865 C   0  0  1  0  0  0  0  0  0  0  0  0
   26.9002  -19.4015  -16.2058 C   0  0  0  0  0  0  0  0  0  0  0  0
   27.8711  -18.4965  -16.8549 C   0  0  0  0  0  0  0  0  0  0  0  0
   28.9979  -19.1428  -17.5705 C   0  0  0  0  0  0  0  0  0  0  0  0
   29.9255  -18.1381  -18.2217 C   0  0  0  0  0  0  0  0  0  0  0  0
   31.0508  -18.7843  -18.8388 N   0  0  0  0  0  0  0  0  0  0  0  0
   26.4515  -21.0100  -14.3921 C   0  0  0  0  0  0  0  0  0  0  0  0
   25.9856  -22.1415  -14.7359 O   0  0  0  0  0  0  0  0  0  0  0  0
   26.6978  -21.0110  -10.6029 C   0  0  0  0  0  0  0  0  0  0  0  0
   25.2891  -20.5469  -10.9210 C   0  0  2  0  0  0  0  0  0  0  0  0
   24.2822  -21.0843   -9.9453 C   0  0  0  0  0  0  0  0  0  0  0  0
   24.9867  -20.9798  -12.3453 C   0  0  2  0  0  0  0  0  0  0  0  0
   25.9803  -20.3699  -13.2167 N   0  0  0  0  0  0  0  0  0  0  0  0
   23.6517  -20.4742  -12.7236 C   0  0  0  0  0  0  0  0  0  0  0  0
   23.3492  -19.2421  -12.6776 O   0  0  0  0  0  0  0  0  0  0  0  0
   20.6952  -21.8301  -14.5022 C   0  0  0  0  0  0  0  0  0  0  0  0
   21.2924  -20.8779  -13.4884 C   0  0  2  0  0  0  0  0  0  0  0  0
   22.6199  -21.3498  -13.1652 N   0  0  0  0  0  0  0  0  0  0  0  0
   20.4139  -20.8314  -12.2933 C   0  0  0  0  0  0  0  0  0  0  0  0
   19.4716  -19.8382  -12.1954 O   0  0  0  0  0  0  0  0  0  0  0  0
   20.5318  -21.6902  -11.3832 O   0  0  0  0  0  0  0  0  0  0  0  0
  2  8  1  0
  2  1  1  6
  3  2  1  0
  4  3  1  0
  5  4  1  0
  6  5  1  0
  7  6  1  0
  8  9  2  0
 11 10  1  1
 11 13  1  0
 12 11  1  0
 13 14  1  6
 14  8  1  0
 15 13  1  0
 16 15  2  0
 18 17  1  6
 18 19  1  0
 18 20  1  0
 19 15  1  0
 20 22  2  0
 20 21  1  0
M  END
$$$$
