KVA.pdb
     RDKit          3D

 22 21  0  0  1  0  0  0  0  0999 V2000
   29.6115   -9.5497  -17.9844 N   0  0  0  0  0  0  0  0  0  0  0  0
   30.9740   -9.2487  -18.3163 C   0  0  1  0  0  0  0  0  0  0  0  0
   31.0430   -8.1967  -19.3766 C   0  0  0  0  0  0  0  0  0  0  0  0
   30.3912   -8.5546  -20.6532 C   0  0  0  0  0  0  0  0  0  0  0  0
   30.6106   -7.6256  -21.7884 C   0  0  0  0  0  0  0  0  0  0  0  0
   29.9196   -8.0834  -23.0559 C   0  0  0  0  0  0  0  0  0  0  0  0
   30.1607   -7.1758  -24.1435 N   0  0  0  0  0  0  0  0  0  0  0  0
   31.7397   -8.8252  -17.0967 C   0  0  0  0  0  0  0  0  0  0  0  0
   31.0517   -8.4563  -16.0935 O   0  0  0  0  0  0  0  0  0  0  0  0
   34.1225  -10.8517  -15.2995 C   0  0  0  0  0  0  0  0  0  0  0  0
   34.8972   -9.5719  -15.5509 C   0  0  2  0  0  0  0  0  0  0  0  0
   35.8075   -9.2274  -14.4076 C   0  0  0  0  0  0  0  0  0  0  0  0
   33.8780   -8.4771  -15.8152 C   0  0  2  0  0  0  0  0  0  0  0  0
   33.1570   -8.8235  -17.0312 N   0  0  0  0  0  0  0  0  0  0  0  0
   34.5930   -7.2038  -16.0357 C   0  0  0  0  0  0  0  0  0  0  0  0
   35.4222   -7.0408  -16.9831 O   0  0  0  0  0  0  0  0  0  0  0  0
   34.1545   -3.6978  -15.2535 C   0  0  0  0  0  0  0  0  0  0  0  0
   35.1336   -4.8483  -15.3472 C   0  0  2  0  0  0  0  0  0  0  0  0
   34.3896   -6.0776  -15.1892 N   0  0  0  0  0  0  0  0  0  0  0  0
   36.1696   -4.6881  -14.2969 C   0  0  0  0  0  0  0  0  0  0  0  0
   37.4059   -4.2053  -14.6466 O   0  0  0  0  0  0  0  0  0  0  0  0
   35.9176   -4.9905  -13.1033 O   0  0  0  0  0  0  0  0  0  0  0  0
  2  8  1  0
  2  1  1  1
  3  2  1  0
  4  3  1  0
  5  4  1  0
  6  5  1  0
  7  6  1  0
  8  9  2  0
 11 10  1  1
 11 13  1  0
 12 11  1  0
 13 14  1  6
 14  8  1  0
 15 13  1  0
 16 15  2  0
 18 17  1  1
 18 19  1  0
 18 20  1  0
 19 15  1  0
 20 22  2  0
 20 21  1  0
M  END
$$$$
