KVA.pdb
     RDKit          3D

 22 21  0  0  1  0  0  0  0  0999 V2000
   20.0034  -12.4550  -18.7691 N   0  0  0  0  0  0  0  0  0  0  0  0
   21.0077  -11.5277  -18.3348 C   0  0  1  0  0  0  0  0  0  0  0  0
   21.8331  -11.0582  -19.4898 C   0  0  0  0  0  0  0  0  0  0  0  0
   23.1479  -11.7184  -19.6257 C   0  0  0  0  0  0  0  0  0  0  0  0
   23.1284  -13.1774  -19.8915 C   0  0  0  0  0  0  0  0  0  0  0  0
   24.5134  -13.7441  -20.1245 C   0  0  0  0  0  0  0  0  0  0  0  0
   24.4809  -15.1746  -20.2565 N   0  0  0  0  0  0  0  0  0  0  0  0
   20.3863  -10.3644  -17.6181 C   0  0  0  0  0  0  0  0  0  0  0  0
   19.4823   -9.7278  -18.2451 O   0  0  0  0  0  0  0  0  0  0  0  0
   18.3039  -10.4828  -14.9692 C   0  0  0  0  0  0  0  0  0  0  0  0
   19.3565   -9.5472  -14.4056 C   0  0  2  0  0  0  0  0  0  0  0  0
   18.7649   -8.5175  -13.4866 C   0  0  0  0  0  0  0  0  0  0  0  0
   20.0685   -8.9116  -15.5873 C   0  0  2  0  0  0  0  0  0  0  0  0
   20.7634   -9.9673  -16.3091 N   0  0  0  0  0  0  0  0  0  0  0  0
   21.0671   -7.9490  -15.0802 C   0  0  0  0  0  0  0  0  0  0  0  0
   22.0440   -8.2990  -14.3488 O   0  0  0  0  0  0  0  0  0  0  0  0
   21.7116   -4.2922  -15.6144 C   0  0  0  0  0  0  0  0  0  0  0  0
   21.9664   -5.6085  -14.9119 C   0  0  2  0  0  0  0  0  0  0  0  0
   20.9883   -6.5611  -15.3867 N   0  0  0  0  0  0  0  0  0  0  0  0
   21.8713   -5.4001  -13.4457 C   0  0  0  0  0  0  0  0  0  0  0  0
   22.9948   -5.0295  -12.7497 O   0  0  0  0  0  0  0  0  0  0  0  0
   20.7765   -5.5608  -12.8499 O   0  0  0  0  0  0  0  0  0  0  0  0
  2  8  1  0
  2  1  1  6
  3  2  1  0
  4  3  1  0
  5  4  1  0
  6  5  1  0
  7  6  1  0
  8  9  2  0
 11 10  1  6
 11 13  1  0
 12 11  1  0
 13 14  1  1
 14  8  1  0
 15 13  1  0
 16 15  2  0
 18 17  1  6
 18 19  1  0
 18 20  1  0
 19 15  1  0
 20 22  2  0
 20 21  1  0
M  END
$$$$
