KVA.pdb
     RDKit          3D

 22 21  0  0  1  0  0  0  0  0999 V2000
   16.8224  -11.5426  -17.1086 N   0  0  0  0  0  0  0  0  0  0  0  0
   18.0196  -11.1511  -16.4225 C   0  0  1  0  0  0  0  0  0  0  0  0
   19.1086  -12.1524  -16.6398 C   0  0  0  0  0  0  0  0  0  0  0  0
   18.7641  -13.5393  -16.2648 C   0  0  0  0  0  0  0  0  0  0  0  0
   19.8649  -14.5314  -16.3261 C   0  0  0  0  0  0  0  0  0  0  0  0
   19.4014  -15.9349  -15.9959 C   0  0  0  0  0  0  0  0  0  0  0  0
   20.4831  -16.8776  -16.0728 N   0  0  0  0  0  0  0  0  0  0  0  0
   18.4608   -9.7835  -16.8562 C   0  0  0  0  0  0  0  0  0  0  0  0
   18.1561   -9.4372  -18.0407 O   0  0  0  0  0  0  0  0  0  0  0  0
   18.4310   -5.3346  -16.7864 C   0  0  0  0  0  0  0  0  0  0  0  0
   18.1253   -6.7815  -16.4487 C   0  0  2  0  0  0  0  0  0  0  0  0
   17.3550   -6.9128  -15.1665 C   0  0  0  0  0  0  0  0  0  0  0  0
   19.4529   -7.5173  -16.3915 C   0  0  2  0  0  0  0  0  0  0  0  0
   19.1818   -8.8969  -16.0152 N   0  0  0  0  0  0  0  0  0  0  0  0
   20.2955   -6.8992  -15.3480 C   0  0  0  0  0  0  0  0  0  0  0  0
   19.9951   -6.9378  -14.1152 O   0  0  0  0  0  0  0  0  0  0  0  0
   23.6926   -5.3078  -15.3524 C   0  0  0  0  0  0  0  0  0  0  0  0
   22.4277   -5.7632  -14.6568 C   0  0  2  0  0  0  0  0  0  0  0  0
   21.5037   -6.2191  -15.6706 N   0  0  0  0  0  0  0  0  0  0  0  0
   21.8750   -4.6327  -13.8704 C   0  0  0  0  0  0  0  0  0  0  0  0
   22.3198   -4.4309  -12.5877 O   0  0  0  0  0  0  0  0  0  0  0  0
   21.0110   -3.8706  -14.3727 O   0  0  0  0  0  0  0  0  0  0  0  0
  2  8  1  0
  2  1  1  6
  3  2  1  0
  4  3  1  0
  5  4  1  0
  6  5  1  0
  7  6  1  0
  8  9  2  0
 11 10  1  1
 11 13  1  0
 12 11  1  0
 13 14  1  1
 14  8  1  0
 15 13  1  0
 16 15  2  0
 18 17  1  6
 18 19  1  0
 18 20  1  0
 19 15  1  0
 20 22  2  0
 20 21  1  0
M  END
$$$$
