PFP.pdb
     RDKit          3D

 26 28  0  0  1  0  0  0  0  0999 V2000
   26.6101  -19.6729  -12.7465 N   0  0  0  0  0  0  0  0  0  0  0  0
   27.1645  -19.5455  -14.0585 C   0  0  0  0  0  0  0  0  0  0  0  0
   27.7245  -20.8827  -14.4628 C   0  0  0  0  0  0  0  0  0  0  0  0
   27.8450  -21.5949  -13.1313 C   0  0  0  0  0  0  0  0  0  0  0  0
   26.6275  -21.0834  -12.4001 C   0  0  1  0  0  0  0  0  0  0  0  0
   26.7495  -21.3130  -10.9658 C   0  0  0  0  0  0  0  0  0  0  0  0
   26.5852  -22.4753  -10.4589 O   0  0  0  0  0  0  0  0  0  0  0  0
   27.0577  -20.2677  -10.0603 N   0  0  0  0  0  0  0  0  0  0  0  0
   27.1316  -20.4753   -8.6430 C   0  0  1  0  0  0  0  0  0  0  0  0
   28.3592  -19.7397   -8.1468 C   0  0  0  0  0  0  0  0  0  0  0  0
   28.4635  -19.8180   -6.6708 C   0  0  0  0  0  0  0  0  0  0  0  0
   29.1824  -20.8316   -6.0877 C   0  0  0  0  0  0  0  0  0  0  0  0
   29.2915  -20.9221   -4.7192 C   0  0  0  0  0  0  0  0  0  0  0  0
   28.6720  -19.9848   -3.9304 C   0  0  0  0  0  0  0  0  0  0  0  0
   27.9396  -18.9508   -4.4957 C   0  0  0  0  0  0  0  0  0  0  0  0
   27.8541  -18.8947   -5.8669 C   0  0  0  0  0  0  0  0  0  0  0  0
   25.9498  -20.2698   -7.8449 C   0  0  0  0  0  0  0  0  0  0  0  0
   25.2535  -19.2271   -8.1878 O   0  0  0  0  0  0  0  0  0  0  0  0
   25.3940  -20.9662   -6.7688 N   0  0  0  0  0  0  0  0  0  0  0  0
   26.0245  -21.9357   -5.9158 C   0  0  0  0  0  0  0  0  0  0  0  0
   25.0492  -23.0969   -6.0532 C   0  0  0  0  0  0  0  0  0  0  0  0
   23.7053  -22.3542   -6.0687 C   0  0  0  0  0  0  0  0  0  0  0  0
   24.0275  -20.8921   -6.2389 C   0  0  1  0  0  0  0  0  0  0  0  0
   23.9685  -20.1192   -4.9905 C   0  0  0  0  0  0  0  0  0  0  0  0
   22.7846  -19.6232   -4.4373 O   0  0  0  0  0  0  0  0  0  0  0  0
   25.0182  -19.8634   -4.3459 O   0  0  0  0  0  0  0  0  0  0  0  0
  1  5  1  0
  1  2  1  0
  2  3  1  0
  4  3  1  0
  5  4  1  0
  6  7  2  0
  5  6  1  1
  8  6  1  0
  9  8  1  0
  9 10  1  1
 11 10  1  0
 11 16  1  0
 12 11  2  0
 13 12  1  0
 13 14  2  0
 14 15  1  0
 15 16  2  0
 17  9  1  0
 18 17  2  0
 19 17  1  0
 19 20  1  0
 21 20  1  0
 22 23  1  0
 22 21  1  0
 23 19  1  0
 23 24  1  1
 24 25  1  0
 26 24  2  0
M  END
$$$$
