PFP.pdb
     RDKit          3D

 26 28  0  0  1  0  0  0  0  0999 V2000
   24.3729  -19.2550  -12.8150 N   0  0  0  0  0  0  0  0  0  0  0  0
   23.6339  -19.9359  -13.8325 C   0  0  0  0  0  0  0  0  0  0  0  0
   23.3500  -21.3330  -13.3503 C   0  0  0  0  0  0  0  0  0  0  0  0
   24.3600  -21.4974  -12.2333 C   0  0  0  0  0  0  0  0  0  0  0  0
   24.3885  -20.1095  -11.6406 C   0  0  1  0  0  0  0  0  0  0  0  0
   25.5773  -19.9209  -10.8184 C   0  0  0  0  0  0  0  0  0  0  0  0
   26.7169  -19.6675  -11.3398 O   0  0  0  0  0  0  0  0  0  0  0  0
   25.5349  -20.0046   -9.4046 N   0  0  0  0  0  0  0  0  0  0  0  0
   26.7223  -20.0618   -8.6021 C   0  0  1  0  0  0  0  0  0  0  0  0
   26.2988  -19.8598   -7.1619 C   0  0  0  0  0  0  0  0  0  0  0  0
   27.4791  -19.7332   -6.2750 C   0  0  0  0  0  0  0  0  0  0  0  0
   28.0639  -18.5061   -6.0841 C   0  0  0  0  0  0  0  0  0  0  0  0
   29.1603  -18.3672   -5.2647 C   0  0  0  0  0  0  0  0  0  0  0  0
   29.6729  -19.4724   -4.6319 C   0  0  0  0  0  0  0  0  0  0  0  0
   29.0998  -20.7235   -4.8087 C   0  0  0  0  0  0  0  0  0  0  0  0
   28.0054  -20.8213   -5.6353 C   0  0  0  0  0  0  0  0  0  0  0  0
   27.6502  -21.1452   -8.8046 C   0  0  0  0  0  0  0  0  0  0  0  0
   27.0841  -22.3030   -8.9743 O   0  0  0  0  0  0  0  0  0  0  0  0
   29.0450  -21.2079   -8.8559 N   0  0  0  0  0  0  0  0  0  0  0  0
   29.9944  -20.1821   -8.5222 C   0  0  0  0  0  0  0  0  0  0  0  0
   30.8116  -20.1370   -9.8062 C   0  0  0  0  0  0  0  0  0  0  0  0
   30.8841  -21.6286  -10.1633 C   0  0  0  0  0  0  0  0  0  0  0  0
   29.8957  -22.3304   -9.2682 C   0  0  1  0  0  0  0  0  0  0  0  0
   30.5088  -23.0019   -8.1138 C   0  0  0  0  0  0  0  0  0  0  0  0
   31.2646  -24.1740   -8.2063 O   0  0  0  0  0  0  0  0  0  0  0  0
   30.3736  -22.5327   -6.9544 O   0  0  0  0  0  0  0  0  0  0  0  0
  1  5  1  0
  1  2  1  0
  2  3  1  0
  4  3  1  0
  5  4  1  0
  6  7  2  0
  5  6  1  6
  8  6  1  0
  9  8  1  0
  9 10  1  1
 11 10  1  0
 11 16  1  0
 12 11  2  0
 13 12  1  0
 13 14  2  0
 14 15  1  0
 15 16  2  0
 17  9  1  0
 18 17  2  0
 19 17  1  0
 19 20  1  0
 21 20  1  0
 22 23  1  0
 22 21  1  0
 23 19  1  0
 23 24  1  1
 24 25  1  0
 26 24  2  0
M  END
$$$$
