PFP.pdb
     RDKit          3D

 26 28  0  0  1  0  0  0  0  0999 V2000
   22.8053  -20.8920  -11.5784 N   0  0  0  0  0  0  0  0  0  0  0  0
   21.6126  -20.4898  -12.2570 C   0  0  0  0  0  0  0  0  0  0  0  0
   21.9943  -19.5142  -13.3377 C   0  0  0  0  0  0  0  0  0  0  0  0
   23.3776  -19.0781  -12.9008 C   0  0  0  0  0  0  0  0  0  0  0  0
   23.9325  -20.3569  -12.3219 C   0  0  1  0  0  0  0  0  0  0  0  0
   25.0898  -20.0850  -11.4784 C   0  0  0  0  0  0  0  0  0  0  0  0
   26.1418  -19.5290  -11.9464 O   0  0  0  0  0  0  0  0  0  0  0  0
   25.1114  -20.4174  -10.1012 N   0  0  0  0  0  0  0  0  0  0  0  0
   26.2908  -20.2824   -9.2963 C   0  0  1  0  0  0  0  0  0  0  0  0
   25.8382  -20.1698   -7.8552 C   0  0  0  0  0  0  0  0  0  0  0  0
   26.9810  -19.8638   -6.9630 C   0  0  0  0  0  0  0  0  0  0  0  0
   27.6245  -20.8797   -6.3011 C   0  0  0  0  0  0  0  0  0  0  0  0
   28.6876  -20.6167   -5.4683 C   0  0  0  0  0  0  0  0  0  0  0  0
   29.1071  -19.3205   -5.3000 C   0  0  0  0  0  0  0  0  0  0  0  0
   28.4732  -18.2763   -5.9578 C   0  0  0  0  0  0  0  0  0  0  0  0
   27.4148  -18.5797   -6.7813 C   0  0  0  0  0  0  0  0  0  0  0  0
   27.3880  -21.1919   -9.5076 C   0  0  0  0  0  0  0  0  0  0  0  0
   27.0297  -22.4356   -9.6278 O   0  0  0  0  0  0  0  0  0  0  0  0
   28.7696  -21.0106   -9.6100 N   0  0  0  0  0  0  0  0  0  0  0  0
   29.5284  -19.8113   -9.3849 C   0  0  0  0  0  0  0  0  0  0  0  0
   30.2892  -19.7175  -10.7005 C   0  0  0  0  0  0  0  0  0  0  0  0
   30.6182  -21.1950  -10.9579 C   0  0  0  0  0  0  0  0  0  0  0  0
   29.7962  -21.9924   -9.9786 C   0  0  1  0  0  0  0  0  0  0  0  0
   30.5507  -22.4576   -8.8065 C   0  0  0  0  0  0  0  0  0  0  0  0
   31.3947  -23.5718   -8.8163 O   0  0  0  0  0  0  0  0  0  0  0  0
   30.4648  -21.8508   -7.7079 O   0  0  0  0  0  0  0  0  0  0  0  0
  1  5  1  0
  1  2  1  0
  2  3  1  0
  4  3  1  0
  5  4  1  0
  6  7  2  0
  5  6  1  1
  8  6  1  0
  9  8  1  0
  9 10  1  1
 11 10  1  0
 11 16  1  0
 12 11  2  0
 13 12  1  0
 13 14  2  0
 14 15  1  0
 15 16  2  0
 17  9  1  0
 18 17  2  0
 19 17  1  0
 19 20  1  0
 21 20  1  0
 22 23  1  0
 22 21  1  0
 23 19  1  0
 23 24  1  1
 24 25  1  0
 26 24  2  0
M  END
$$$$
