PFP.pdb
     RDKit          3D

 26 28  0  0  1  0  0  0  0  0999 V2000
   29.6545  -21.9533  -18.2395 N   0  0  0  0  0  0  0  0  0  0  0  0
   29.8666  -23.1322  -19.0206 C   0  0  0  0  0  0  0  0  0  0  0  0
   28.6835  -24.0421  -18.8270 C   0  0  0  0  0  0  0  0  0  0  0  0
   28.0595  -23.4905  -17.5617 C   0  0  0  0  0  0  0  0  0  0  0  0
   28.2976  -22.0089  -17.7244 C   0  0  1  0  0  0  0  0  0  0  0  0
   28.1462  -21.3163  -16.4507 C   0  0  0  0  0  0  0  0  0  0  0  0
   29.0995  -21.2662  -15.6001 O   0  0  0  0  0  0  0  0  0  0  0  0
   26.9427  -20.6621  -16.0888 N   0  0  0  0  0  0  0  0  0  0  0  0
   26.7319  -20.1075  -14.7829 C   0  0  1  0  0  0  0  0  0  0  0  0
   26.4265  -18.6353  -14.9662 C   0  0  0  0  0  0  0  0  0  0  0  0
   25.1349  -18.4451  -15.6670 C   0  0  0  0  0  0  0  0  0  0  0  0
   25.0919  -18.4554  -17.0390 C   0  0  0  0  0  0  0  0  0  0  0  0
   23.9029  -18.2806  -17.7086 C   0  0  0  0  0  0  0  0  0  0  0  0
   22.7470  -18.0939  -16.9919 C   0  0  0  0  0  0  0  0  0  0  0  0
   22.7643  -18.0795  -15.6047 C   0  0  0  0  0  0  0  0  0  0  0  0
   23.9720  -18.2576  -14.9721 C   0  0  0  0  0  0  0  0  0  0  0  0
   25.8521  -20.7899  -13.8685 C   0  0  0  0  0  0  0  0  0  0  0  0
   25.2469  -21.8186  -14.3837 O   0  0  0  0  0  0  0  0  0  0  0  0
   25.5122  -20.5712  -12.5311 N   0  0  0  0  0  0  0  0  0  0  0  0
   25.9139  -19.4876  -11.6771 C   0  0  0  0  0  0  0  0  0  0  0  0
   26.4941  -20.2646  -10.5032 C   0  0  0  0  0  0  0  0  0  0  0  0
   25.5040  -21.4340  -10.4042 C   0  0  0  0  0  0  0  0  0  0  0  0
   24.6665  -21.3916  -11.6562 C   0  0  1  0  0  0  0  0  0  0  0  0
   23.3382  -20.7929  -11.4651 C   0  0  0  0  0  0  0  0  0  0  0  0
   22.2407  -21.4840  -10.9442 O   0  0  0  0  0  0  0  0  0  0  0  0
   23.1272  -19.5916  -11.7735 O   0  0  0  0  0  0  0  0  0  0  0  0
  1  5  1  0
  1  2  1  0
  2  3  1  0
  4  3  1  0
  5  4  1  0
  6  7  2  0
  5  6  1  1
  8  6  1  0
  9  8  1  0
  9 10  1  6
 11 10  1  0
 11 16  1  0
 12 11  2  0
 13 12  1  0
 13 14  2  0
 14 15  1  0
 15 16  2  0
 17  9  1  0
 18 17  2  0
 19 17  1  0
 19 20  1  0
 21 20  1  0
 22 23  1  0
 22 21  1  0
 23 19  1  0
 23 24  1  1
 24 25  1  0
 26 24  2  0
M  END
$$$$
