PFP.pdb
     RDKit          3D

 26 28  0  0  1  0  0  0  0  0999 V2000
   23.7064  -20.8851  -11.4689 N   0  0  0  0  0  0  0  0  0  0  0  0
   22.6325  -20.4906  -12.3267 C   0  0  0  0  0  0  0  0  0  0  0  0
   23.2034  -19.6482  -13.4356 C   0  0  0  0  0  0  0  0  0  0  0  0
   24.5489  -19.2435  -12.8695 C   0  0  0  0  0  0  0  0  0  0  0  0
   24.9470  -20.4857  -12.1100 C   0  0  1  0  0  0  0  0  0  0  0  0
   26.0090  -20.1923  -11.1558 C   0  0  0  0  0  0  0  0  0  0  0  0
   27.1453  -19.7469  -11.5368 O   0  0  0  0  0  0  0  0  0  0  0  0
   25.8406  -20.3806   -9.7616 N   0  0  0  0  0  0  0  0  0  0  0  0
   26.9154  -20.2096   -8.8274 C   0  0  1  0  0  0  0  0  0  0  0  0
   26.3035  -19.7462   -7.5216 C   0  0  0  0  0  0  0  0  0  0  0  0
   27.3491  -19.5257   -6.4950 C   0  0  0  0  0  0  0  0  0  0  0  0
   27.8246  -20.5852   -5.7631 C   0  0  0  0  0  0  0  0  0  0  0  0
   28.7952  -20.4016   -4.8055 C   0  0  0  0  0  0  0  0  0  0  0  0
   29.2917  -19.1414   -4.5821 C   0  0  0  0  0  0  0  0  0  0  0  0
   28.8273  -18.0545   -5.3087 C   0  0  0  0  0  0  0  0  0  0  0  0
   27.8571  -18.2786   -6.2567 C   0  0  0  0  0  0  0  0  0  0  0  0
   27.8933  -21.2586   -8.6888 C   0  0  0  0  0  0  0  0  0  0  0  0
   27.3850  -22.4541   -8.6430 O   0  0  0  0  0  0  0  0  0  0  0  0
   29.2871  -21.2550   -8.5920 N   0  0  0  0  0  0  0  0  0  0  0  0
   30.1488  -20.1731   -8.2026 C   0  0  0  0  0  0  0  0  0  0  0  0
   31.0946  -20.1333   -9.3953 C   0  0  0  0  0  0  0  0  0  0  0  0
   31.2712  -21.6313   -9.6828 C   0  0  0  0  0  0  0  0  0  0  0  0
   30.2260  -22.3486   -8.8682 C   0  0  1  0  0  0  0  0  0  0  0  0
   30.7428  -22.9484   -7.6302 C   0  0  0  0  0  0  0  0  0  0  0  0
   30.3572  -22.5436   -6.3492 O   0  0  0  0  0  0  0  0  0  0  0  0
   31.5829  -23.8838   -7.6745 O   0  0  0  0  0  0  0  0  0  0  0  0
  1  5  1  0
  1  2  1  0
  2  3  1  0
  4  3  1  0
  5  4  1  0
  6  7  2  0
  5  6  1  1
  8  6  1  0
  9  8  1  0
  9 10  1  1
 11 10  1  0
 11 16  1  0
 12 11  2  0
 13 12  1  0
 13 14  2  0
 14 15  1  0
 15 16  2  0
 17  9  1  0
 18 17  2  0
 19 17  1  0
 19 20  1  0
 21 20  1  0
 22 23  1  0
 22 21  1  0
 23 19  1  0
 23 24  1  1
 24 25  1  0
 26 24  2  0
M  END
$$$$
