PFP.pdb
     RDKit          3D

 26 28  0  0  1  0  0  0  0  0999 V2000
   25.8983  -19.8071  -12.6196 N   0  0  0  0  0  0  0  0  0  0  0  0
   26.3058  -19.6677  -13.9832 C   0  0  0  0  0  0  0  0  0  0  0  0
   26.9029  -20.9750  -14.4300 C   0  0  0  0  0  0  0  0  0  0  0  0
   27.2035  -21.6568  -13.1111 C   0  0  0  0  0  0  0  0  0  0  0  0
   26.0385  -21.2080  -12.2627 C   0  0  1  0  0  0  0  0  0  0  0  0
   26.3213  -21.4065  -10.8466 C   0  0  0  0  0  0  0  0  0  0  0  0
   26.3535  -22.5752  -10.3291 O   0  0  0  0  0  0  0  0  0  0  0  0
   26.5773  -20.3218   -9.9717 N   0  0  0  0  0  0  0  0  0  0  0  0
   26.8142  -20.5051   -8.5690 C   0  0  1  0  0  0  0  0  0  0  0  0
   28.0616  -19.7202   -8.2198 C   0  0  0  0  0  0  0  0  0  0  0  0
   28.2966  -19.7215   -6.7568 C   0  0  0  0  0  0  0  0  0  0  0  0
   29.0959  -20.6842   -6.1923 C   0  0  0  0  0  0  0  0  0  0  0  0
   29.3267  -20.7029   -4.8361 C   0  0  0  0  0  0  0  0  0  0  0  0
   28.7484  -19.7449   -4.0409 C   0  0  0  0  0  0  0  0  0  0  0  0
   27.9367  -18.7614   -4.5875 C   0  0  0  0  0  0  0  0  0  0  0  0
   27.7303  -18.7765   -5.9468 C   0  0  0  0  0  0  0  0  0  0  0  0
   25.7208  -20.3284   -7.6475 C   0  0  0  0  0  0  0  0  0  0  0  0
   24.9647  -19.3048   -7.9125 O   0  0  0  0  0  0  0  0  0  0  0  0
   25.3030  -21.0365   -6.5179 N   0  0  0  0  0  0  0  0  0  0  0  0
   26.0508  -21.9787   -5.7318 C   0  0  0  0  0  0  0  0  0  0  0  0
   25.1070  -23.1731   -5.7648 C   0  0  0  0  0  0  0  0  0  0  0  0
   23.7440  -22.4765   -5.6436 C   0  0  0  0  0  0  0  0  0  0  0  0
   23.9965  -21.0054   -5.8502 C   0  0  1  0  0  0  0  0  0  0  0  0
   24.0399  -20.2271   -4.6045 C   0  0  0  0  0  0  0  0  0  0  0  0
   22.9054  -19.8686   -3.8708 O   0  0  0  0  0  0  0  0  0  0  0  0
   25.1385  -19.8381   -4.1307 O   0  0  0  0  0  0  0  0  0  0  0  0
  1  5  1  0
  1  2  1  0
  2  3  1  0
  4  3  1  0
  5  4  1  0
  6  7  2  0
  5  6  1  1
  8  6  1  0
  9  8  1  0
  9 10  1  1
 11 10  1  0
 11 16  1  0
 12 11  2  0
 13 12  1  0
 13 14  2  0
 14 15  1  0
 15 16  2  0
 17  9  1  0
 18 17  2  0
 19 17  1  0
 19 20  1  0
 21 20  1  0
 22 23  1  0
 22 21  1  0
 23 19  1  0
 23 24  1  1
 24 25  1  0
 26 24  2  0
M  END
$$$$
