PFP.pdb
     RDKit          3D

 26 28  0  0  1  0  0  0  0  0999 V2000
   20.7490  -21.2032  -14.7297 N   0  0  0  0  0  0  0  0  0  0  0  0
   19.3240  -21.1501  -14.8370 C   0  0  0  0  0  0  0  0  0  0  0  0
   18.9011  -19.7080  -14.7549 C   0  0  0  0  0  0  0  0  0  0  0  0
   20.1225  -19.0506  -14.1462 C   0  0  0  0  0  0  0  0  0  0  0  0
   21.2422  -19.8380  -14.7823 C   0  0  1  0  0  0  0  0  0  0  0  0
   22.4871  -19.6566  -14.0462 C   0  0  0  0  0  0  0  0  0  0  0  0
   23.1158  -18.5434  -14.0608 O   0  0  0  0  0  0  0  0  0  0  0  0
   23.0640  -20.6968  -13.2763 N   0  0  0  0  0  0  0  0  0  0  0  0
   24.4412  -20.6837  -12.8759 C   0  0  1  0  0  0  0  0  0  0  0  0
   24.5629  -21.5828  -11.6630 C   0  0  0  0  0  0  0  0  0  0  0  0
   25.6564  -21.1272  -10.7729 C   0  0  0  0  0  0  0  0  0  0  0  0
   25.3811  -20.2822   -9.7267 C   0  0  0  0  0  0  0  0  0  0  0  0
   26.3821  -19.8478   -8.8889 C   0  0  0  0  0  0  0  0  0  0  0  0
   27.6713  -20.2669   -9.1053 C   0  0  0  0  0  0  0  0  0  0  0  0
   27.9751  -21.1208  -10.1558 C   0  0  0  0  0  0  0  0  0  0  0  0
   26.9473  -21.5327  -10.9709 C   0  0  0  0  0  0  0  0  0  0  0  0
   25.4602  -20.8872  -13.8738 C   0  0  0  0  0  0  0  0  0  0  0  0
   25.2225  -21.8795  -14.6792 O   0  0  0  0  0  0  0  0  0  0  0  0
   26.6618  -20.2324  -14.1559 N   0  0  0  0  0  0  0  0  0  0  0  0
   27.3696  -19.2828  -13.3421 C   0  0  0  0  0  0  0  0  0  0  0  0
   27.5113  -18.1301  -14.3268 C   0  0  0  0  0  0  0  0  0  0  0  0
   27.7957  -18.8885  -15.6312 C   0  0  0  0  0  0  0  0  0  0  0  0
   27.5032  -20.3404  -15.3534 C   0  0  1  0  0  0  0  0  0  0  0  0
   28.7020  -21.1533  -15.1053 C   0  0  0  0  0  0  0  0  0  0  0  0
   29.5288  -21.6497  -16.1170 O   0  0  0  0  0  0  0  0  0  0  0  0
   29.0450  -21.4460  -13.9308 O   0  0  0  0  0  0  0  0  0  0  0  0
  1  5  1  0
  1  2  1  0
  2  3  1  0
  4  3  1  0
  5  4  1  0
  6  7  2  0
  5  6  1  1
  8  6  1  0
  9  8  1  0
  9 10  1  1
 11 10  1  0
 11 16  1  0
 12 11  2  0
 13 12  1  0
 13 14  2  0
 14 15  1  0
 15 16  2  0
 17  9  1  0
 18 17  2  0
 19 17  1  0
 19 20  1  0
 21 20  1  0
 22 23  1  0
 22 21  1  0
 23 19  1  0
 23 24  1  1
 24 25  1  0
 26 24  2  0
M  END
$$$$
