PFP.pdb
     RDKit          3D

 26 28  0  0  1  0  0  0  0  0999 V2000
   27.9203  -18.8438  -18.0246 N   0  0  0  0  0  0  0  0  0  0  0  0
   28.9376  -18.3475  -18.8984 C   0  0  0  0  0  0  0  0  0  0  0  0
   29.9523  -19.4399  -19.1047 C   0  0  0  0  0  0  0  0  0  0  0  0
   29.6614  -20.3699  -17.9449 C   0  0  0  0  0  0  0  0  0  0  0  0
   28.1594  -20.2643  -17.8379 C   0  0  1  0  0  0  0  0  0  0  0  0
   27.6960  -20.7517  -16.5448 C   0  0  0  0  0  0  0  0  0  0  0  0
   27.7927  -21.9851  -16.2220 O   0  0  0  0  0  0  0  0  0  0  0  0
   27.1189  -19.8903  -15.5791 N   0  0  0  0  0  0  0  0  0  0  0  0
   26.4911  -20.3826  -14.3872 C   0  0  1  0  0  0  0  0  0  0  0  0
   27.1609  -19.6985  -13.2136 C   0  0  0  0  0  0  0  0  0  0  0  0
   26.5185  -20.0873  -11.9362 C   0  0  0  0  0  0  0  0  0  0  0  0
   27.0846  -21.0630  -11.1539 C   0  0  0  0  0  0  0  0  0  0  0  0
   26.5039  -21.4384   -9.9645 C   0  0  0  0  0  0  0  0  0  0  0  0
   25.3438  -20.8270   -9.5584 C   0  0  0  0  0  0  0  0  0  0  0  0
   24.7523  -19.8382  -10.3313 C   0  0  0  0  0  0  0  0  0  0  0  0
   25.3629  -19.4909  -11.5133 C   0  0  0  0  0  0  0  0  0  0  0  0
   25.0523  -20.4134  -14.3179 C   0  0  0  0  0  0  0  0  0  0  0  0
   24.4847  -19.2738  -14.5800 O   0  0  0  0  0  0  0  0  0  0  0  0
   24.1341  -21.4246  -14.0238 N   0  0  0  0  0  0  0  0  0  0  0  0
   24.3864  -22.7125  -13.4386 C   0  0  0  0  0  0  0  0  0  0  0  0
   23.7397  -23.6174  -14.4785 C   0  0  0  0  0  0  0  0  0  0  0  0
   22.4917  -22.8015  -14.8454 C   0  0  0  0  0  0  0  0  0  0  0  0
   22.6828  -21.4341  -14.2417 C   0  0  1  0  0  0  0  0  0  0  0  0
   21.9426  -21.2263  -12.9895 C   0  0  0  0  0  0  0  0  0  0  0  0
   22.4945  -21.4128  -11.7190 O   0  0  0  0  0  0  0  0  0  0  0  0
   20.7395  -20.8592  -13.0105 O   0  0  0  0  0  0  0  0  0  0  0  0
  1  5  1  0
  1  2  1  0
  2  3  1  0
  4  3  1  0
  5  4  1  0
  6  7  2  0
  5  6  1  1
  8  6  1  0
  9  8  1  0
  9 10  1  1
 11 10  1  0
 11 16  1  0
 12 11  2  0
 13 12  1  0
 13 14  2  0
 14 15  1  0
 15 16  2  0
 17  9  1  0
 18 17  2  0
 19 17  1  0
 19 20  1  0
 21 20  1  0
 22 23  1  0
 22 21  1  0
 23 19  1  0
 23 24  1  1
 24 25  1  0
 26 24  2  0
M  END
$$$$
