NIT.pdb
     RDKit          3D

 24 23  0  0  1  0  0  0  0  0999 V2000
   13.7586  -18.1482   18.2839 N   0  0  0  0  0  0  0  0  0  0  0  0
   13.0580  -17.5273   17.2045 C   0  0  0  0  0  0  0  0  0  0  0  0
   13.6173  -17.5768   16.0770 O   0  0  0  0  0  0  0  0  0  0  0  0
   11.7631  -16.8637   17.3731 C   0  0  0  0  0  0  0  0  0  0  0  0
   11.0216  -17.5520   18.5194 C   0  0  2  0  0  0  0  0  0  0  0  0
    9.7790  -18.1111   18.0876 N   0  0  0  0  0  0  0  0  0  0  0  0
   10.7633  -16.5016   19.5411 C   0  0  0  0  0  0  0  0  0  0  0  0
   11.7522  -15.9707   20.1024 O   0  0  0  0  0  0  0  0  0  0  0  0
    7.2420  -12.3868   19.3934 C   0  0  0  0  0  0  0  0  0  0  0  0
    8.3992  -13.2554   19.7298 C   0  0  0  0  0  0  0  0  0  0  0  0
    8.1757  -14.2685   20.8010 C   0  0  2  0  0  0  0  0  0  0  0  0
    7.7729  -13.5261   22.0623 C   0  0  0  0  0  0  0  0  0  0  0  0
    9.2954  -15.2228   21.0479 C   0  0  2  0  0  0  0  0  0  0  0  0
    9.4520  -16.0916   19.8922 N   0  0  0  0  0  0  0  0  0  0  0  0
    9.0015  -16.0152   22.2687 C   0  0  0  0  0  0  0  0  0  0  0  0
    8.0054  -16.7753   22.2587 O   0  0  0  0  0  0  0  0  0  0  0  0
   12.0896  -18.4517   23.7552 C   0  0  0  0  0  0  0  0  0  0  0  0
   10.6094  -18.2574   23.3853 C   0  0  1  0  0  0  0  0  0  0  0  0
    9.9957  -19.4604   23.7001 O   0  0  0  0  0  0  0  0  0  0  0  0
   10.0190  -17.1349   24.2133 C   0  0  2  0  0  0  0  0  0  0  0  0
    9.8030  -15.9434   23.4392 N   0  0  0  0  0  0  0  0  0  0  0  0
   10.8873  -16.8471   25.3838 C   0  0  0  0  0  0  0  0  0  0  0  0
   11.4556  -15.6054   25.5117 O   0  0  0  0  0  0  0  0  0  0  0  0
   11.0913  -17.7245   26.2296 O   0  0  0  0  0  0  0  0  0  0  0  0
  1  2  1  0
  2  3  2  0
  4  2  1  0
  5  4  1  0
  5  6  1  6
  7 14  1  0
  7  5  1  0
  8  7  2  0
 10  9  1  0
 11 10  1  0
 11 12  1  1
 13 11  1  0
 13 14  1  6
 15 13  1  0
 16 15  2  0
 18 20  1  0
 18 17  1  1
 19 18  1  0
 20 21  1  6
 21 15  1  0
 22 20  1  0
 22 23  1  0
 24 22  2  0
M  END
$$$$
