NIT.pdb
     RDKit          3D

 24 23  0  0  1  0  0  0  0  0999 V2000
    6.2891  -20.2816   17.5325 N   0  0  0  0  0  0  0  0  0  0  0  0
    7.5986  -19.8886   17.1177 C   0  0  0  0  0  0  0  0  0  0  0  0
    7.9358  -20.2222   15.9508 O   0  0  0  0  0  0  0  0  0  0  0  0
    8.5161  -19.1411   17.9808 C   0  0  0  0  0  0  0  0  0  0  0  0
    8.6967  -17.7442   17.3862 C   0  0  2  0  0  0  0  0  0  0  0  0
    9.6345  -17.7439   16.3075 N   0  0  0  0  0  0  0  0  0  0  0  0
    9.2083  -16.8839   18.4872 C   0  0  0  0  0  0  0  0  0  0  0  0
   10.4489  -16.8382   18.6705 O   0  0  0  0  0  0  0  0  0  0  0  0
    6.7475  -12.1813   19.7913 C   0  0  0  0  0  0  0  0  0  0  0  0
    7.7927  -13.2097   19.5533 C   0  0  0  0  0  0  0  0  0  0  0  0
    8.0503  -14.1613   20.6722 C   0  0  2  0  0  0  0  0  0  0  0  0
    8.5462  -13.3554   21.8592 C   0  0  0  0  0  0  0  0  0  0  0  0
    8.9485  -15.3117   20.3637 C   0  0  2  0  0  0  0  0  0  0  0  0
    8.3462  -16.1275   19.3213 N   0  0  0  0  0  0  0  0  0  0  0  0
    9.1647  -16.1073   21.5986 C   0  0  0  0  0  0  0  0  0  0  0  0
    8.1627  -16.5768   22.1864 O   0  0  0  0  0  0  0  0  0  0  0  0
   11.0138  -19.2077   21.9416 C   0  0  0  0  0  0  0  0  0  0  0  0
   11.5206  -18.3376   23.1041 C   0  0  1  0  0  0  0  0  0  0  0  0
   12.7693  -17.8874   22.7029 O   0  0  0  0  0  0  0  0  0  0  0  0
   10.5829  -17.1666   23.3125 C   0  0  2  0  0  0  0  0  0  0  0  0
   10.4572  -16.3538   22.1338 N   0  0  0  0  0  0  0  0  0  0  0  0
   11.0322  -16.3466   24.4669 C   0  0  0  0  0  0  0  0  0  0  0  0
   10.9188  -16.8522   25.7369 O   0  0  0  0  0  0  0  0  0  0  0  0
   11.5022  -15.2199   24.2760 O   0  0  0  0  0  0  0  0  0  0  0  0
  1  2  1  0
  2  3  2  0
  4  2  1  0
  5  4  1  0
  5  6  1  6
  7 14  1  0
  7  5  1  0
  8  7  2  0
 10  9  1  0
 11 10  1  0
 11 12  1  1
 13 11  1  0
 13 14  1  6
 15 13  1  0
 16 15  2  0
 18 20  1  0
 18 17  1  6
 19 18  1  0
 20 21  1  6
 21 15  1  0
 22 20  1  0
 22 23  1  0
 24 22  2  0
M  END
$$$$
