NIT.pdb
     RDKit          3D

 24 23  0  0  1  0  0  0  0  0999 V2000
    7.5811  -21.5244   16.7247 N   0  0  0  0  0  0  0  0  0  0  0  0
    7.2201  -20.1860   17.0705 C   0  0  0  0  0  0  0  0  0  0  0  0
    6.1707  -19.7376   16.5372 O   0  0  0  0  0  0  0  0  0  0  0  0
    8.0082  -19.3611   17.9891 C   0  0  0  0  0  0  0  0  0  0  0  0
    8.0932  -17.9497   17.4073 C   0  0  2  0  0  0  0  0  0  0  0  0
    8.8344  -17.9232   16.1855 N   0  0  0  0  0  0  0  0  0  0  0  0
    8.7887  -17.1182   18.4265 C   0  0  0  0  0  0  0  0  0  0  0  0
   10.0435  -17.1138   18.4259 O   0  0  0  0  0  0  0  0  0  0  0  0
    6.8784  -12.2397   20.0923 C   0  0  0  0  0  0  0  0  0  0  0  0
    7.7853  -13.3515   19.7075 C   0  0  0  0  0  0  0  0  0  0  0  0
    8.0613  -14.3729   20.7584 C   0  0  2  0  0  0  0  0  0  0  0  0
    8.6926  -13.6604   21.9408 C   0  0  0  0  0  0  0  0  0  0  0  0
    8.8588  -15.5587   20.3301 C   0  0  2  0  0  0  0  0  0  0  0  0
    8.0836  -16.3443   19.3830 N   0  0  0  0  0  0  0  0  0  0  0  0
    9.2109  -16.3676   21.5243 C   0  0  0  0  0  0  0  0  0  0  0  0
    8.2841  -16.9129   22.1675 O   0  0  0  0  0  0  0  0  0  0  0  0
   12.2663  -19.2020   24.0471 C   0  0  0  0  0  0  0  0  0  0  0  0
   11.9864  -18.3452   22.8010 C   0  0  1  0  0  0  0  0  0  0  0  0
   11.6645  -19.2516   21.8021 O   0  0  0  0  0  0  0  0  0  0  0  0
   10.8159  -17.4217   23.0682 C   0  0  2  0  0  0  0  0  0  0  0  0
   10.5510  -16.5446   21.9608 N   0  0  0  0  0  0  0  0  0  0  0  0
   11.0504  -16.6398   24.3094 C   0  0  0  0  0  0  0  0  0  0  0  0
   10.6948  -17.1761   25.5207 O   0  0  0  0  0  0  0  0  0  0  0  0
   11.5612  -15.5166   24.2422 O   0  0  0  0  0  0  0  0  0  0  0  0
  1  2  1  0
  2  3  2  0
  4  2  1  0
  5  4  1  0
  5  6  1  6
  7 14  1  0
  7  5  1  0
  8  7  2  0
 10  9  1  0
 11 10  1  0
 11 12  1  1
 13 11  1  0
 13 14  1  6
 15 13  1  0
 16 15  2  0
 18 20  1  0
 18 17  1  1
 19 18  1  0
 20 21  1  6
 21 15  1  0
 22 20  1  0
 22 23  1  0
 24 22  2  0
M  END
$$$$
