NIT.pdb
     RDKit          3D

 24 23  0  0  1  0  0  0  0  0999 V2000
   11.6988  -18.4825   14.6740 N   0  0  0  0  0  0  0  0  0  0  0  0
   10.5103  -17.9806   15.2879 C   0  0  0  0  0  0  0  0  0  0  0  0
    9.4204  -18.3799   14.7984 O   0  0  0  0  0  0  0  0  0  0  0  0
   10.5305  -17.0535   16.4217 C   0  0  0  0  0  0  0  0  0  0  0  0
   10.0198  -17.7991   17.6550 C   0  0  2  0  0  0  0  0  0  0  0  0
    8.6581  -18.2061   17.5028 N   0  0  0  0  0  0  0  0  0  0  0  0
   10.1278  -16.8474   18.7936 C   0  0  0  0  0  0  0  0  0  0  0  0
   11.2731  -16.5828   19.2329 O   0  0  0  0  0  0  0  0  0  0  0  0
    6.8201  -12.4836   19.6377 C   0  0  0  0  0  0  0  0  0  0  0  0
    8.0174  -13.3626   19.6201 C   0  0  0  0  0  0  0  0  0  0  0  0
    8.0724  -14.4253   20.6648 C   0  0  2  0  0  0  0  0  0  0  0  0
    8.0439  -13.7426   22.0203 C   0  0  0  0  0  0  0  0  0  0  0  0
    9.1967  -15.3996   20.5536 C   0  0  2  0  0  0  0  0  0  0  0  0
    8.9905  -16.2423   19.3864 N   0  0  0  0  0  0  0  0  0  0  0  0
    9.2585  -16.2172   21.7914 C   0  0  0  0  0  0  0  0  0  0  0  0
    8.2453  -16.8775   22.1191 O   0  0  0  0  0  0  0  0  0  0  0  0
   12.8294  -17.8965   23.1783 C   0  0  0  0  0  0  0  0  0  0  0  0
   11.3876  -18.4048   23.3469 C   0  0  1  0  0  0  0  0  0  0  0  0
   11.4378  -19.2920   24.4115 O   0  0  0  0  0  0  0  0  0  0  0  0
   10.4715  -17.2439   23.6743 C   0  0  2  0  0  0  0  0  0  0  0  0
   10.4166  -16.2777   22.6117 N   0  0  0  0  0  0  0  0  0  0  0  0
   10.8917  -16.5994   24.9451 C   0  0  0  0  0  0  0  0  0  0  0  0
   10.8301  -17.3131   26.1148 O   0  0  0  0  0  0  0  0  0  0  0  0
   11.2912  -15.4301   24.9397 O   0  0  0  0  0  0  0  0  0  0  0  0
  1  2  1  0
  2  3  2  0
  4  2  1  0
  5  4  1  0
  5  6  1  6
  7 14  1  0
  7  5  1  0
  8  7  2  0
 10  9  1  0
 11 10  1  0
 11 12  1  1
 13 11  1  0
 13 14  1  6
 15 13  1  0
 16 15  2  0
 18 20  1  0
 18 17  1  1
 19 18  1  0
 20 21  1  6
 21 15  1  0
 22 20  1  0
 22 23  1  0
 24 22  2  0
M  END
$$$$
