TYL.pdb
     RDKit          3D

 28 28  0  0  1  0  0  0  0  0999 V2000
   27.8821  -20.7072  -18.8587 C   0  0  0  0  0  0  0  0  0  0  0  0
   26.9006  -20.7230  -17.6857 C   0  0  1  0  0  0  0  0  0  0  0  0
   25.6382  -20.9498  -18.2366 O   0  0  0  0  0  0  0  0  0  0  0  0
   27.2902  -21.8683  -16.7965 C   0  0  2  0  0  0  0  0  0  0  0  0
   27.1012  -23.1041  -17.5258 N   0  0  0  0  0  0  0  0  0  0  0  0
   26.5670  -21.9298  -15.5333 C   0  0  0  0  0  0  0  0  0  0  0  0
   25.5991  -22.7325  -15.4156 O   0  0  0  0  0  0  0  0  0  0  0  0
   23.8397  -20.6204   -7.1160 O   0  0  0  0  0  0  0  0  0  0  0  0
   24.5682  -20.6308   -8.2981 C   0  0  0  0  0  0  0  0  0  0  0  0
   25.9371  -20.7356   -8.3354 C   0  0  0  0  0  0  0  0  0  0  0  0
   26.6069  -20.7409   -9.5338 C   0  0  0  0  0  0  0  0  0  0  0  0
   25.9399  -20.6414  -10.7604 C   0  0  0  0  0  0  0  0  0  0  0  0
   26.7197  -20.6319  -12.0101 C   0  0  0  0  0  0  0  0  0  0  0  0
   26.0433  -21.2284  -13.1974 C   0  0  2  0  0  0  0  0  0  0  0  0
   26.8691  -21.1396  -14.3916 N   0  0  0  0  0  0  0  0  0  0  0  0
   24.7492  -20.5444  -13.4404 C   0  0  0  0  0  0  0  0  0  0  0  0
   24.8098  -19.4619  -14.1203 O   0  0  0  0  0  0  0  0  0  0  0  0
   24.5552  -20.5356  -10.7145 C   0  0  0  0  0  0  0  0  0  0  0  0
   23.9048  -20.5324   -9.5000 C   0  0  0  0  0  0  0  0  0  0  0  0
   20.6212  -20.9363  -16.9383 C   0  0  0  0  0  0  0  0  0  0  0  0
   20.9087  -20.2153  -15.6259 C   0  0  2  0  0  0  0  0  0  0  0  0
   20.9683  -18.7396  -15.9140 C   0  0  0  0  0  0  0  0  0  0  0  0
   22.1676  -20.7342  -14.9884 C   0  0  0  0  0  0  0  0  0  0  0  0
   22.2498  -20.5069  -13.5189 C   0  0  2  0  0  0  0  0  0  0  0  0
   23.5165  -21.0083  -12.9800 N   0  0  0  0  0  0  0  0  0  0  0  0
   21.1373  -21.2089  -12.8370 C   0  0  0  0  0  0  0  0  0  0  0  0
   21.1956  -22.4846  -12.7084 O   0  0  0  0  0  0  0  0  0  0  0  0
   20.0190  -20.6230  -12.3105 O   0  0  0  0  0  0  0  0  0  0  0  0
  2  1  1  6
  2  3  1  0
  4  2  1  0
  4  5  1  6
  6  7  2  0
  6  4  1  0
  9  8  1  0
 10  9  2  0
 11 10  1  0
 12 18  1  0
 12 11  2  0
 14 13  1  1
 13 12  1  0
 14 15  1  0
 15  6  1  0
 16 14  1  0
 17 16  2  0
 18 19  2  0
 19  9  1  0
 21 20  1  6
 21 22  1  0
 24 23  1  6
 23 21  1  0
 24 25  1  0
 25 16  1  0
 26 28  1  0
 26 24  1  0
 27 26  2  0
M  END
$$$$
