TYL.pdb
     RDKit          3D

 28 28  0  0  1  0  0  0  0  0999 V2000
   26.9069  -20.9614  -18.4955 C   0  0  0  0  0  0  0  0  0  0  0  0
   27.8781  -22.1408  -18.5685 C   0  0  1  0  0  0  0  0  0  0  0  0
   28.8002  -21.8253  -19.5679 O   0  0  0  0  0  0  0  0  0  0  0  0
   28.5679  -22.2307  -17.2380 C   0  0  2  0  0  0  0  0  0  0  0  0
   29.4421  -23.3841  -17.2481 N   0  0  0  0  0  0  0  0  0  0  0  0
   27.6706  -22.3066  -16.0927 C   0  0  0  0  0  0  0  0  0  0  0  0
   27.0408  -23.3790  -15.8730 O   0  0  0  0  0  0  0  0  0  0  0  0
   23.0604  -20.7173   -8.6369 O   0  0  0  0  0  0  0  0  0  0  0  0
   23.9613  -20.6655   -9.6924 C   0  0  0  0  0  0  0  0  0  0  0  0
   25.2242  -21.2014   -9.6284 C   0  0  0  0  0  0  0  0  0  0  0  0
   26.0743  -21.1215  -10.7034 C   0  0  0  0  0  0  0  0  0  0  0  0
   25.7040  -20.4995  -11.9015 C   0  0  0  0  0  0  0  0  0  0  0  0
   26.6714  -20.4293  -13.0102 C   0  0  0  0  0  0  0  0  0  0  0  0
   26.4342  -21.3790  -14.1347 C   0  0  2  0  0  0  0  0  0  0  0  0
   27.4394  -21.2444  -15.1775 N   0  0  0  0  0  0  0  0  0  0  0  0
   25.0877  -21.1515  -14.7151 C   0  0  0  0  0  0  0  0  0  0  0  0
   24.9940  -20.1793  -15.5421 O   0  0  0  0  0  0  0  0  0  0  0  0
   24.4250  -19.9596  -11.9585 C   0  0  0  0  0  0  0  0  0  0  0  0
   23.5893  -20.0520  -10.8670 C   0  0  0  0  0  0  0  0  0  0  0  0
   19.8118  -22.4893  -15.5740 C   0  0  0  0  0  0  0  0  0  0  0  0
   20.8940  -22.2697  -16.6253 C   0  0  2  0  0  0  0  0  0  0  0  0
   20.5869  -23.1631  -17.7967 C   0  0  0  0  0  0  0  0  0  0  0  0
   22.2624  -22.5132  -16.0520 C   0  0  0  0  0  0  0  0  0  0  0  0
   22.6364  -21.5909  -14.9442 C   0  0  2  0  0  0  0  0  0  0  0  0
   23.9619  -21.9184  -14.4131 N   0  0  0  0  0  0  0  0  0  0  0  0
   21.6492  -21.6972  -13.8444 C   0  0  0  0  0  0  0  0  0  0  0  0
   20.8105  -20.7414  -13.6697 O   0  0  0  0  0  0  0  0  0  0  0  0
   21.5308  -22.7406  -12.9678 O   0  0  0  0  0  0  0  0  0  0  0  0
  2  1  1  1
  2  3  1  0
  4  2  1  0
  4  5  1  6
  6  7  2  0
  6  4  1  0
  9  8  1  0
 10  9  2  0
 11 10  1  0
 12 18  1  0
 12 11  2  0
 14 13  1  1
 13 12  1  0
 14 15  1  0
 15  6  1  0
 16 14  1  0
 17 16  2  0
 18 19  2  0
 19  9  1  0
 21 20  1  1
 21 22  1  0
 24 23  1  6
 23 21  1  0
 24 25  1  0
 25 16  1  0
 26 28  1  0
 26 24  1  0
 27 26  2  0
M  END
$$$$
