TYL.pdb
     RDKit          3D

 28 28  0  0  1  0  0  0  0  0999 V2000
   22.7837   -8.7586  -21.1586 C   0  0  0  0  0  0  0  0  0  0  0  0
   22.0131  -10.0362  -21.4953 C   0  0  1  0  0  0  0  0  0  0  0  0
   22.7180  -10.6558  -22.5287 O   0  0  0  0  0  0  0  0  0  0  0  0
   22.0289  -10.9005  -20.2678 C   0  0  2  0  0  0  0  0  0  0  0  0
   21.4285  -12.1765  -20.5936 N   0  0  0  0  0  0  0  0  0  0  0  0
   21.3565  -10.3244  -19.1108 C   0  0  0  0  0  0  0  0  0  0  0  0
   20.1732   -9.9004  -19.2332 O   0  0  0  0  0  0  0  0  0  0  0  0
   17.0499  -14.6067  -16.5182 O   0  0  0  0  0  0  0  0  0  0  0  0
   18.0265  -13.6403  -16.3167 C   0  0  0  0  0  0  0  0  0  0  0  0
   19.3149  -13.7680  -16.7749 C   0  0  0  0  0  0  0  0  0  0  0  0
   20.2406  -12.7802  -16.5468 C   0  0  0  0  0  0  0  0  0  0  0  0
   19.9245  -11.6101  -15.8466 C   0  0  0  0  0  0  0  0  0  0  0  0
   20.9702  -10.5981  -15.6177 C   0  0  0  0  0  0  0  0  0  0  0  0
   21.1752   -9.6205  -16.7244 C   0  0  2  0  0  0  0  0  0  0  0  0
   21.9384  -10.1967  -17.8207 N   0  0  0  0  0  0  0  0  0  0  0  0
   21.8768   -8.4167  -16.2141 C   0  0  0  0  0  0  0  0  0  0  0  0
   23.1545   -8.4853  -16.1878 O   0  0  0  0  0  0  0  0  0  0  0  0
   18.6192  -11.4883  -15.3860 C   0  0  0  0  0  0  0  0  0  0  0  0
   17.7075  -12.4927  -15.6270 C   0  0  0  0  0  0  0  0  0  0  0  0
   22.1617   -2.5198  -16.7500 C   0  0  0  0  0  0  0  0  0  0  0  0
   22.5654   -3.7014  -15.8751 C   0  0  2  0  0  0  0  0  0  0  0  0
   24.0578   -3.8635  -15.9791 C   0  0  0  0  0  0  0  0  0  0  0  0
   21.8172   -4.9452  -16.2674 C   0  0  0  0  0  0  0  0  0  0  0  0
   21.9798   -6.0832  -15.3205 C   0  0  2  0  0  0  0  0  0  0  0  0
   21.2335   -7.2579  -15.7782 N   0  0  0  0  0  0  0  0  0  0  0  0
   21.4781   -5.6996  -13.9801 C   0  0  0  0  0  0  0  0  0  0  0  0
   20.2321   -5.8582  -13.7159 O   0  0  0  0  0  0  0  0  0  0  0  0
   22.2262   -5.1795  -12.9598 O   0  0  0  0  0  0  0  0  0  0  0  0
  2  1  1  1
  2  3  1  0
  4  2  1  0
  4  5  1  6
  6  7  2  0
  6  4  1  0
  9  8  1  0
 10  9  2  0
 11 10  1  0
 12 18  1  0
 12 11  2  0
 14 13  1  1
 13 12  1  0
 14 15  1  0
 15  6  1  0
 16 14  1  0
 17 16  2  0
 18 19  2  0
 19  9  1  0
 21 20  1  6
 21 22  1  0
 24 23  1  6
 23 21  1  0
 24 25  1  0
 25 16  1  0
 26 28  1  0
 26 24  1  0
 27 26  2  0
M  END
$$$$
