TYL.pdb
     RDKit          3D

 28 28  0  0  1  0  0  0  0  0999 V2000
   15.1800  -27.8866    2.5360 C   0  0  0  0  0  0  0  0  0  0  0  0
   15.7063  -27.8465    1.1004 C   0  0  1  0  0  0  0  0  0  0  0  0
   15.2330  -29.0034    0.4791 O   0  0  0  0  0  0  0  0  0  0  0  0
   15.1177  -26.6302    0.4459 C   0  0  2  0  0  0  0  0  0  0  0  0
   15.4052  -26.6838   -0.9715 N   0  0  0  0  0  0  0  0  0  0  0  0
   15.5822  -25.3619    0.9921 C   0  0  0  0  0  0  0  0  0  0  0  0
   16.7504  -24.9653    0.7220 O   0  0  0  0  0  0  0  0  0  0  0  0
   16.2601  -17.5804    5.2708 O   0  0  0  0  0  0  0  0  0  0  0  0
   15.8070  -18.7374    4.6508 C   0  0  0  0  0  0  0  0  0  0  0  0
   16.0046  -19.0014    3.3176 C   0  0  0  0  0  0  0  0  0  0  0  0
   15.5345  -20.1627    2.7563 C   0  0  0  0  0  0  0  0  0  0  0  0
   14.8404  -21.1228    3.5018 C   0  0  0  0  0  0  0  0  0  0  0  0
   14.3440  -22.3384    2.8340 C   0  0  0  0  0  0  0  0  0  0  0  0
   15.3903  -23.2997    2.3825 C   0  0  2  0  0  0  0  0  0  0  0  0
   14.8080  -24.5111    1.8263 N   0  0  0  0  0  0  0  0  0  0  0  0
   16.2766  -23.6547    3.5183 C   0  0  0  0  0  0  0  0  0  0  0  0
   15.8594  -24.5964    4.2779 O   0  0  0  0  0  0  0  0  0  0  0  0
   14.6443  -20.8485    4.8497 C   0  0  0  0  0  0  0  0  0  0  0  0
   15.1253  -19.6764    5.3909 C   0  0  0  0  0  0  0  0  0  0  0  0
   20.0101  -26.1624    4.7261 C   0  0  0  0  0  0  0  0  0  0  0  0
   19.8702  -24.9648    3.7930 C   0  0  2  0  0  0  0  0  0  0  0  0
   21.0715  -24.9434    2.8870 C   0  0  0  0  0  0  0  0  0  0  0  0
   19.7068  -23.6889    4.5714 C   0  0  0  0  0  0  0  0  0  0  0  0
   18.3021  -23.3830    4.9600 C   0  0  2  0  0  0  0  0  0  0  0  0
   17.4969  -23.0338    3.7868 N   0  0  0  0  0  0  0  0  0  0  0  0
   18.2772  -22.2417    5.9046 C   0  0  0  0  0  0  0  0  0  0  0  0
   17.9297  -21.0849    5.4701 O   0  0  0  0  0  0  0  0  0  0  0  0
   18.5932  -22.2913    7.2345 O   0  0  0  0  0  0  0  0  0  0  0  0
  2  1  1  1
  2  3  1  0
  4  2  1  0
  4  5  1  6
  6  7  2  0
  6  4  1  0
  9  8  1  0
 10  9  2  0
 11 10  1  0
 12 18  1  0
 12 11  2  0
 14 13  1  1
 13 12  1  0
 14 15  1  0
 15  6  1  0
 16 14  1  0
 17 16  2  0
 18 19  2  0
 19  9  1  0
 21 20  1  1
 21 22  1  0
 24 23  1  6
 23 21  1  0
 24 25  1  0
 25 16  1  0
 26 28  1  0
 26 24  1  0
 27 26  2  0
M  END
$$$$
