TYL.pdb
     RDKit          3D

 28 28  0  0  1  0  0  0  0  0999 V2000
   26.6624  -33.1298   -7.2805 C   0  0  0  0  0  0  0  0  0  0  0  0
   25.9404  -32.9380   -8.6153 C   0  0  1  0  0  0  0  0  0  0  0  0
   26.8893  -33.1795   -9.6101 O   0  0  0  0  0  0  0  0  0  0  0  0
   24.8488  -33.9667   -8.6811 C   0  0  2  0  0  0  0  0  0  0  0  0
   24.1523  -33.8210   -9.9414 N   0  0  0  0  0  0  0  0  0  0  0  0
   23.8923  -33.9084   -7.5836 C   0  0  0  0  0  0  0  0  0  0  0  0
   23.0754  -32.9469   -7.5283 O   0  0  0  0  0  0  0  0  0  0  0  0
   18.3579  -36.0953   -0.9785 O   0  0  0  0  0  0  0  0  0  0  0  0
   19.3281  -36.0873   -1.9720 C   0  0  0  0  0  0  0  0  0  0  0  0
   19.0358  -35.9369   -3.3055 C   0  0  0  0  0  0  0  0  0  0  0  0
   20.0359  -35.9363   -4.2461 C   0  0  0  0  0  0  0  0  0  0  0  0
   21.3839  -36.0867   -3.9004 C   0  0  0  0  0  0  0  0  0  0  0  0
   22.4066  -36.0985   -4.9605 C   0  0  0  0  0  0  0  0  0  0  0  0
   22.7528  -34.7682   -5.5379 C   0  0  2  0  0  0  0  0  0  0  0  0
   23.8004  -34.8705   -6.5420 N   0  0  0  0  0  0  0  0  0  0  0  0
   23.1902  -33.8463   -4.4608 C   0  0  0  0  0  0  0  0  0  0  0  0
   24.4277  -33.9097   -4.1409 O   0  0  0  0  0  0  0  0  0  0  0  0
   21.6716  -36.2386   -2.5495 C   0  0  0  0  0  0  0  0  0  0  0  0
   20.6513  -36.2358   -1.6236 C   0  0  0  0  0  0  0  0  0  0  0  0
   22.4160  -30.3984   -0.2850 C   0  0  0  0  0  0  0  0  0  0  0  0
   22.5052  -29.7999   -1.6844 C   0  0  2  0  0  0  0  0  0  0  0  0
   21.6976  -28.5303   -1.6954 C   0  0  0  0  0  0  0  0  0  0  0  0
   22.0510  -30.7863   -2.7243 C   0  0  0  0  0  0  0  0  0  0  0  0
   22.8383  -32.0500   -2.7566 C   0  0  2  0  0  0  0  0  0  0  0  0
   22.3477  -32.9477   -3.8052 N   0  0  0  0  0  0  0  0  0  0  0  0
   22.7296  -32.7454   -1.4527 C   0  0  0  0  0  0  0  0  0  0  0  0
   21.6260  -33.3272   -1.1507 O   0  0  0  0  0  0  0  0  0  0  0  0
   23.7128  -32.8385   -0.5063 O   0  0  0  0  0  0  0  0  0  0  0  0
  2  1  1  1
  2  3  1  0
  4  2  1  0
  4  5  1  6
  6  7  2  0
  6  4  1  0
  9  8  1  0
 10  9  2  0
 11 10  1  0
 12 18  1  0
 12 11  2  0
 14 13  1  1
 13 12  1  0
 14 15  1  0
 15  6  1  0
 16 14  1  0
 17 16  2  0
 18 19  2  0
 19  9  1  0
 21 20  1  1
 21 22  1  0
 24 23  1  1
 23 21  1  0
 24 25  1  0
 25 16  1  0
 26 28  1  0
 26 24  1  0
 27 26  2  0
M  END
$$$$
