TYL.pdb
     RDKit          3D

 28 28  0  0  1  0  0  0  0  0999 V2000
   30.0204  -22.9294  -17.2849 C   0  0  0  0  0  0  0  0  0  0  0  0
   28.6642  -22.5828  -16.6683 C   0  0  1  0  0  0  0  0  0  0  0  0
   28.9345  -22.0448  -15.4089 O   0  0  0  0  0  0  0  0  0  0  0  0
   28.0287  -21.5456  -17.5483 C   0  0  2  0  0  0  0  0  0  0  0  0
   28.9797  -20.4756  -17.7616 N   0  0  0  0  0  0  0  0  0  0  0  0
   26.7805  -20.9963  -17.0356 C   0  0  0  0  0  0  0  0  0  0  0  0
   26.8072  -19.9261  -16.3656 O   0  0  0  0  0  0  0  0  0  0  0  0
   18.2936  -19.9634  -14.5307 O   0  0  0  0  0  0  0  0  0  0  0  0
   19.4541  -20.3490  -15.1885 C   0  0  0  0  0  0  0  0  0  0  0  0
   19.9223  -21.6401  -15.1903 C   0  0  0  0  0  0  0  0  0  0  0  0
   21.0768  -21.9656  -15.8582 C   0  0  0  0  0  0  0  0  0  0  0  0
   21.8247  -21.0136  -16.5608 C   0  0  0  0  0  0  0  0  0  0  0  0
   23.0661  -21.4246  -17.2391 C   0  0  0  0  0  0  0  0  0  0  0  0
   24.3333  -21.0406  -16.5538 C   0  0  2  0  0  0  0  0  0  0  0  0
   25.5007  -21.5814  -17.2328 N   0  0  0  0  0  0  0  0  0  0  0  0
   24.3147  -21.5177  -15.1490 C   0  0  0  0  0  0  0  0  0  0  0  0
   24.6730  -22.7329  -14.9680 O   0  0  0  0  0  0  0  0  0  0  0  0
   21.3448  -19.7097  -16.5542 C   0  0  0  0  0  0  0  0  0  0  0  0
   20.1838  -19.4067  -15.8770 C   0  0  0  0  0  0  0  0  0  0  0  0
   24.1865  -20.6530   -9.6992 C   0  0  0  0  0  0  0  0  0  0  0  0
   25.2422  -21.3572  -10.5444 C   0  0  2  0  0  0  0  0  0  0  0  0
   26.5824  -21.1143   -9.9047 C   0  0  0  0  0  0  0  0  0  0  0  0
   25.1881  -20.8936  -11.9737 C   0  0  0  0  0  0  0  0  0  0  0  0
   23.9352  -21.2600  -12.6904 C   0  0  2  0  0  0  0  0  0  0  0  0
   23.9392  -20.7336  -14.0576 N   0  0  0  0  0  0  0  0  0  0  0  0
   22.7634  -20.7029  -11.9749 C   0  0  0  0  0  0  0  0  0  0  0  0
   22.5363  -19.4416  -12.0454 O   0  0  0  0  0  0  0  0  0  0  0  0
   21.8670  -21.4130  -11.2243 O   0  0  0  0  0  0  0  0  0  0  0  0
  2  1  1  6
  2  3  1  0
  4  2  1  0
  4  5  1  1
  6  7  2  0
  6  4  1  0
  9  8  1  0
 10  9  2  0
 11 10  1  0
 12 18  1  0
 12 11  2  0
 14 13  1  6
 13 12  1  0
 14 15  1  0
 15  6  1  0
 16 14  1  0
 17 16  2  0
 18 19  2  0
 19  9  1  0
 21 20  1  1
 21 22  1  0
 24 23  1  1
 23 21  1  0
 24 25  1  0
 25 16  1  0
 26 28  1  0
 26 24  1  0
 27 26  2  0
M  END
$$$$
