SEP.pdb
     RDKit          3D

 23 23  0  0  1  0  0  0  0  0999 V2000
   14.5886   -4.8831   -8.1580 O   0  0  0  0  0  0  0  0  0  0  0  0
   15.6150   -5.5990   -8.7715 C   0  0  0  0  0  0  0  0  0  0  0  0
   15.0564   -6.9394   -9.1916 C   0  0  2  0  0  0  0  0  0  0  0  0
   14.7813   -7.7890   -8.0532 N   0  0  0  0  0  0  0  0  0  0  0  0
   16.0334   -7.6234  -10.0931 C   0  0  0  0  0  0  0  0  0  0  0  0
   17.0321   -8.1820   -9.6214 O   0  0  0  0  0  0  0  0  0  0  0  0
   15.8518   -7.6551  -11.4999 N   0  0  0  0  0  0  0  0  0  0  0  0
   16.8132   -8.1835  -12.3714 C   0  0  1  0  0  0  0  0  0  0  0  0
   16.2677   -8.8963  -13.5884 C   0  0  0  0  0  0  0  0  0  0  0  0
   15.4599  -10.1112  -13.1424 C   0  0  0  0  0  0  0  0  0  0  0  0
   14.8638  -10.8121  -14.3082 C   0  0  0  0  0  0  0  0  0  0  0  0
   14.8705  -12.0707  -14.4101 O   0  0  0  0  0  0  0  0  0  0  0  0
   17.9016   -7.2707  -12.7769 C   0  0  0  0  0  0  0  0  0  0  0  0
   17.4827   -6.1105  -13.1518 O   0  0  0  0  0  0  0  0  0  0  0  0
   14.2872  -10.0362  -15.3048 O   0  0  0  0  0  0  0  0  0  0  0  0
   19.2813   -7.5096  -12.8025 N   0  0  0  0  0  0  0  0  0  0  0  0
   19.9198   -8.7081  -12.2607 C   0  0  0  0  0  0  0  0  0  0  0  0
   21.3876   -8.6377  -12.6461 C   0  0  0  0  0  0  0  0  0  0  0  0
   21.3962   -7.6502  -13.7526 C   0  0  0  0  0  0  0  0  0  0  0  0
   20.3075   -6.6551  -13.2885 C   0  0  1  0  0  0  0  0  0  0  0  0
   20.0199   -5.8505  -14.4736 C   0  0  0  0  0  0  0  0  0  0  0  0
   20.8261   -4.7495  -14.7205 O   0  0  0  0  0  0  0  0  0  0  0  0
   19.1017   -6.0902  -15.2721 O   0  0  0  0  0  0  0  0  0  0  0  0
  1  2  1  0
  3  5  1  0
  3  2  1  0
  3  4  1  1
  5  6  2  0
  7  8  1  0
  7  5  1  0
  8 13  1  0
  8  9  1  6
 10 11  1  0
 10  9  1  0
 11 12  2  0
 13 14  2  0
 13 16  1  0
 15 11  1  0
 16 20  1  0
 16 17  1  0
 17 18  1  0
 19 18  1  0
 20 19  1  0
 20 21  1  6
 22 21  1  0
 23 21  2  0
M  END
$$$$
