SEP.pdb
     RDKit          3D

 23 23  0  0  1  0  0  0  0  0999 V2000
   15.9813  -12.8758  -12.7693 O   0  0  0  0  0  0  0  0  0  0  0  0
   16.8300  -12.1020  -13.5588 C   0  0  0  0  0  0  0  0  0  0  0  0
   15.9701  -11.2064  -14.4211 C   0  0  2  0  0  0  0  0  0  0  0  0
   15.1012  -11.9691  -15.2910 N   0  0  0  0  0  0  0  0  0  0  0  0
   16.8477  -10.3246  -15.2501 C   0  0  0  0  0  0  0  0  0  0  0  0
   16.7336  -10.3120  -16.4825 O   0  0  0  0  0  0  0  0  0  0  0  0
   17.8273   -9.4842  -14.6610 N   0  0  0  0  0  0  0  0  0  0  0  0
   18.5184   -8.5075  -15.3902 C   0  0  1  0  0  0  0  0  0  0  0  0
   17.6568   -7.5841  -16.2217 C   0  0  0  0  0  0  0  0  0  0  0  0
   16.6795   -6.8479  -15.3103 C   0  0  0  0  0  0  0  0  0  0  0  0
   16.1299   -5.6423  -15.9811 C   0  0  0  0  0  0  0  0  0  0  0  0
   15.1516   -5.7042  -16.7770 O   0  0  0  0  0  0  0  0  0  0  0  0
   19.5164   -7.7158  -14.6422 C   0  0  0  0  0  0  0  0  0  0  0  0
   19.0190   -7.0918  -13.6296 O   0  0  0  0  0  0  0  0  0  0  0  0
   16.7288   -4.4198  -15.7080 O   0  0  0  0  0  0  0  0  0  0  0  0
   20.8858   -7.5682  -14.8956 N   0  0  0  0  0  0  0  0  0  0  0  0
   21.5995   -8.2390  -15.9811 C   0  0  0  0  0  0  0  0  0  0  0  0
   23.0092   -7.6732  -15.9971 C   0  0  0  0  0  0  0  0  0  0  0  0
   22.8725   -6.4119  -15.2290 C   0  0  0  0  0  0  0  0  0  0  0  0
   21.8355   -6.8140  -14.1549 C   0  0  1  0  0  0  0  0  0  0  0  0
   21.3975   -5.5453  -13.5779 C   0  0  0  0  0  0  0  0  0  0  0  0
   22.1752   -4.9869  -12.5746 O   0  0  0  0  0  0  0  0  0  0  0  0
   20.3756   -4.9366  -13.9287 O   0  0  0  0  0  0  0  0  0  0  0  0
  1  2  1  0
  3  5  1  0
  3  2  1  0
  3  4  1  6
  5  6  2  0
  7  8  1  0
  7  5  1  0
  8 13  1  0
  8  9  1  1
 10 11  1  0
 10  9  1  0
 11 12  2  0
 13 14  2  0
 13 16  1  0
 15 11  1  0
 16 20  1  0
 16 17  1  0
 17 18  1  0
 19 18  1  0
 20 19  1  0
 20 21  1  6
 22 21  1  0
 23 21  2  0
M  END
$$$$
