SEP.pdb
     RDKit          3D

 23 23  0  0  1  0  0  0  0  0999 V2000
   21.5071  -11.7359  -17.9416 O   0  0  0  0  0  0  0  0  0  0  0  0
   22.2935  -10.7549  -18.5429 C   0  0  0  0  0  0  0  0  0  0  0  0
   23.2869  -10.2645  -17.5144 C   0  0  2  0  0  0  0  0  0  0  0  0
   24.1073  -11.3406  -17.0020 N   0  0  0  0  0  0  0  0  0  0  0  0
   22.5521   -9.6221  -16.3819 C   0  0  0  0  0  0  0  0  0  0  0  0
   22.1742  -10.3010  -15.4185 O   0  0  0  0  0  0  0  0  0  0  0  0
   22.2668   -8.2323  -16.3731 N   0  0  0  0  0  0  0  0  0  0  0  0
   21.5944   -7.6084  -15.3140 C   0  0  1  0  0  0  0  0  0  0  0  0
   21.9206   -6.1466  -15.1061 C   0  0  0  0  0  0  0  0  0  0  0  0
   21.5796   -5.7519  -13.6724 C   0  0  0  0  0  0  0  0  0  0  0  0
   21.8322   -4.3065  -13.4430 C   0  0  0  0  0  0  0  0  0  0  0  0
   22.9816   -3.7982  -13.5657 O   0  0  0  0  0  0  0  0  0  0  0  0
   20.1309   -7.8028  -15.2624 C   0  0  0  0  0  0  0  0  0  0  0  0
   19.5306   -7.4557  -16.3493 O   0  0  0  0  0  0  0  0  0  0  0  0
   20.7536   -3.5098  -13.0829 O   0  0  0  0  0  0  0  0  0  0  0  0
   19.3496   -8.2990  -14.2114 N   0  0  0  0  0  0  0  0  0  0  0  0
   19.8928   -8.8796  -12.9844 C   0  0  0  0  0  0  0  0  0  0  0  0
   18.7161   -9.1278  -12.0561 C   0  0  0  0  0  0  0  0  0  0  0  0
   17.6525   -8.2655  -12.6259 C   0  0  0  0  0  0  0  0  0  0  0  0
   17.9331   -8.3877  -14.1415 C   0  0  1  0  0  0  0  0  0  0  0  0
   17.1523   -7.3104  -14.7450 C   0  0  0  0  0  0  0  0  0  0  0  0
   17.7702   -6.0809  -14.9180 O   0  0  0  0  0  0  0  0  0  0  0  0
   15.9735   -7.4259  -15.1124 O   0  0  0  0  0  0  0  0  0  0  0  0
  1  2  1  0
  3  5  1  0
  3  2  1  0
  3  4  1  1
  5  6  2  0
  7  8  1  0
  7  5  1  0
  8 13  1  0
  8  9  1  6
 10 11  1  0
 10  9  1  0
 11 12  2  0
 13 14  2  0
 13 16  1  0
 15 11  1  0
 16 20  1  0
 16 17  1  0
 17 18  1  0
 19 18  1  0
 20 19  1  0
 20 21  1  6
 22 21  1  0
 23 21  2  0
M  END
$$$$
