SEP.pdb
     RDKit          3D

 23 23  0  0  1  0  0  0  0  0999 V2000
   27.8647  -19.8353  -18.0342 O   0  0  0  0  0  0  0  0  0  0  0  0
   27.6425  -18.5242  -18.4515 C   0  0  0  0  0  0  0  0  0  0  0  0
   26.1482  -18.2991  -18.4919 C   0  0  2  0  0  0  0  0  0  0  0  0
   25.8146  -16.9896  -19.0089 N   0  0  0  0  0  0  0  0  0  0  0  0
   25.5876  -18.4427  -17.1134 C   0  0  0  0  0  0  0  0  0  0  0  0
   25.7549  -17.5473  -16.2755 O   0  0  0  0  0  0  0  0  0  0  0  0
   24.8553  -19.5939  -16.7242 N   0  0  0  0  0  0  0  0  0  0  0  0
   24.3098  -19.7414  -15.4421 C   0  0  1  0  0  0  0  0  0  0  0  0
   22.8246  -20.0212  -15.3942 C   0  0  0  0  0  0  0  0  0  0  0  0
   22.3710  -20.0946  -13.9394 C   0  0  0  0  0  0  0  0  0  0  0  0
   20.9455  -20.5006  -13.8454 C   0  0  0  0  0  0  0  0  0  0  0  0
   20.0226  -19.8458  -14.4057 O   0  0  0  0  0  0  0  0  0  0  0  0
   25.0185  -20.6634  -14.5310 C   0  0  0  0  0  0  0  0  0  0  0  0
   24.7621  -21.9059  -14.7604 O   0  0  0  0  0  0  0  0  0  0  0  0
   20.6439  -21.6403  -13.1119 O   0  0  0  0  0  0  0  0  0  0  0  0
   25.9002  -20.3575  -13.4870 N   0  0  0  0  0  0  0  0  0  0  0  0
   26.5313  -19.0523  -13.2977 C   0  0  0  0  0  0  0  0  0  0  0  0
   27.2647  -19.1063  -11.9684 C   0  0  0  0  0  0  0  0  0  0  0  0
   26.6358  -20.2630  -11.2857 C   0  0  0  0  0  0  0  0  0  0  0  0
   26.3862  -21.2241  -12.4710 C   0  0  1  0  0  0  0  0  0  0  0  0
   25.4705  -22.2301  -11.9381 C   0  0  0  0  0  0  0  0  0  0  0  0
   26.0072  -23.2534  -11.1712 O   0  0  0  0  0  0  0  0  0  0  0  0
   24.2449  -22.2264  -12.1274 O   0  0  0  0  0  0  0  0  0  0  0  0
  1  2  1  0
  3  5  1  0
  3  2  1  0
  3  4  1  1
  5  6  2  0
  7  8  1  0
  7  5  1  0
  8 13  1  0
  8  9  1  6
 10 11  1  0
 10  9  1  0
 11 12  2  0
 13 14  2  0
 13 16  1  0
 15 11  1  0
 16 20  1  0
 16 17  1  0
 17 18  1  0
 19 18  1  0
 20 19  1  0
 20 21  1  1
 22 21  1  0
 23 21  2  0
M  END
$$$$
