SEP.pdb
     RDKit          3D

 23 23  0  0  1  0  0  0  0  0999 V2000
   14.6824  -12.9054  -15.4717 O   0  0  0  0  0  0  0  0  0  0  0  0
   15.9222  -12.2922  -15.2996 C   0  0  0  0  0  0  0  0  0  0  0  0
   16.8383  -12.7868  -16.3956 C   0  0  2  0  0  0  0  0  0  0  0  0
   17.1655  -14.1868  -16.2332 N   0  0  0  0  0  0  0  0  0  0  0  0
   18.0981  -11.9818  -16.3899 C   0  0  0  0  0  0  0  0  0  0  0  0
   19.0267  -12.2819  -15.6286 O   0  0  0  0  0  0  0  0  0  0  0  0
   18.2697  -10.8623  -17.2446 N   0  0  0  0  0  0  0  0  0  0  0  0
   19.4297  -10.0767  -17.2325 C   0  0  1  0  0  0  0  0  0  0  0  0
   19.8938   -9.5792  -18.5829 C   0  0  0  0  0  0  0  0  0  0  0  0
   20.3805  -10.7607  -19.4165 C   0  0  0  0  0  0  0  0  0  0  0  0
   20.8690  -10.3106  -20.7448 C   0  0  0  0  0  0  0  0  0  0  0  0
   20.9844   -9.0879  -21.0386 O   0  0  0  0  0  0  0  0  0  0  0  0
   19.4588   -8.9670  -16.2577 C   0  0  0  0  0  0  0  0  0  0  0  0
   18.4780   -8.1413  -16.3937 O   0  0  0  0  0  0  0  0  0  0  0  0
   21.2026  -11.2848  -21.6761 O   0  0  0  0  0  0  0  0  0  0  0  0
   20.3918   -8.7159  -15.2439 N   0  0  0  0  0  0  0  0  0  0  0  0
   21.4256   -9.6605  -14.8237 C   0  0  0  0  0  0  0  0  0  0  0  0
   22.3128   -8.9294  -13.8305 C   0  0  0  0  0  0  0  0  0  0  0  0
   22.0033   -7.5027  -14.0922 C   0  0  0  0  0  0  0  0  0  0  0  0
   20.4922   -7.5672  -14.4133 C   0  0  1  0  0  0  0  0  0  0  0  0
   20.1901   -6.2676  -15.0085 C   0  0  0  0  0  0  0  0  0  0  0  0
   20.3988   -6.1146  -16.3710 O   0  0  0  0  0  0  0  0  0  0  0  0
   19.7588   -5.2939  -14.3730 O   0  0  0  0  0  0  0  0  0  0  0  0
  1  2  1  0
  3  5  1  0
  3  2  1  0
  3  4  1  1
  5  6  2  0
  7  8  1  0
  7  5  1  0
  8 13  1  0
  8  9  1  6
 10 11  1  0
 10  9  1  0
 11 12  2  0
 13 14  2  0
 13 16  1  0
 15 11  1  0
 16 20  1  0
 16 17  1  0
 17 18  1  0
 19 18  1  0
 20 19  1  0
 20 21  1  6
 22 21  1  0
 23 21  2  0
M  END
$$$$
