SEP.pdb
     RDKit          3D

 23 23  0  0  1  0  0  0  0  0999 V2000
   14.7380  -12.1728    4.1035 O   0  0  0  0  0  0  0  0  0  0  0  0
   15.3812  -13.3973    3.9326 C   0  0  0  0  0  0  0  0  0  0  0  0
   16.5823  -13.4203    4.8503 C   0  0  2  0  0  0  0  0  0  0  0  0
   17.5987  -12.4799    4.4308 N   0  0  0  0  0  0  0  0  0  0  0  0
   17.1634  -14.7976    4.8722 C   0  0  0  0  0  0  0  0  0  0  0  0
   18.1274  -15.0795    4.1489 O   0  0  0  0  0  0  0  0  0  0  0  0
   16.6371  -15.8140    5.7106 N   0  0  0  0  0  0  0  0  0  0  0  0
   17.1783  -17.1055    5.7588 C   0  0  1  0  0  0  0  0  0  0  0  0
   17.1569  -17.7706    7.1166 C   0  0  0  0  0  0  0  0  0  0  0  0
   17.8599  -19.1218    7.0284 C   0  0  0  0  0  0  0  0  0  0  0  0
   17.8167  -19.8312    8.3324 C   0  0  0  0  0  0  0  0  0  0  0  0
   17.0858  -20.8433    8.5221 O   0  0  0  0  0  0  0  0  0  0  0  0
   16.6994  -18.0548    4.7332 C   0  0  0  0  0  0  0  0  0  0  0  0
   15.4304  -18.2745    4.7929 O   0  0  0  0  0  0  0  0  0  0  0  0
   18.6146  -19.3463    9.3600 O   0  0  0  0  0  0  0  0  0  0  0  0
   17.4342  -18.7194    3.7435 N   0  0  0  0  0  0  0  0  0  0  0  0
   18.8628  -18.5198    3.5048 C   0  0  0  0  0  0  0  0  0  0  0  0
   19.2844  -19.5487    2.4697 C   0  0  0  0  0  0  0  0  0  0  0  0
   18.1887  -20.5467    2.5241 C   0  0  0  0  0  0  0  0  0  0  0  0
   16.9589  -19.6435    2.7742 C   0  0  1  0  0  0  0  0  0  0  0  0
   15.9023  -20.5691    3.1759 C   0  0  0  0  0  0  0  0  0  0  0  0
   15.2474  -21.2768    2.1791 O   0  0  0  0  0  0  0  0  0  0  0  0
   15.5550  -20.7622    4.3507 O   0  0  0  0  0  0  0  0  0  0  0  0
  1  2  1  0
  3  5  1  0
  3  2  1  0
  3  4  1  6
  5  6  2  0
  7  8  1  0
  7  5  1  0
  8 13  1  0
  8  9  1  1
 10 11  1  0
 10  9  1  0
 11 12  2  0
 13 14  2  0
 13 16  1  0
 15 11  1  0
 16 20  1  0
 16 17  1  0
 17 18  1  0
 19 18  1  0
 20 19  1  0
 20 21  1  1
 22 21  1  0
 23 21  2  0
M  END
$$$$
