SEP.pdb
     RDKit          3D

 23 23  0  0  1  0  0  0  0  0999 V2000
   15.1282  -12.5828  -15.8400 O   0  0  0  0  0  0  0  0  0  0  0  0
   16.3563  -11.9697  -15.5987 C   0  0  0  0  0  0  0  0  0  0  0  0
   17.2921  -12.3517  -16.7229 C   0  0  2  0  0  0  0  0  0  0  0  0
   17.7296  -13.7267  -16.6157 N   0  0  0  0  0  0  0  0  0  0  0  0
   18.4854  -11.4513  -16.7025 C   0  0  0  0  0  0  0  0  0  0  0  0
   19.4146  -11.6648  -15.9133 O   0  0  0  0  0  0  0  0  0  0  0  0
   18.5918  -10.3371  -17.5745 N   0  0  0  0  0  0  0  0  0  0  0  0
   19.6791   -9.4542  -17.5389 C   0  0  1  0  0  0  0  0  0  0  0  0
   20.0707   -8.8490  -18.8680 C   0  0  0  0  0  0  0  0  0  0  0  0
   21.3232   -7.9971  -18.6858 C   0  0  0  0  0  0  0  0  0  0  0  0
   21.4945   -7.0520  -19.8185 C   0  0  0  0  0  0  0  0  0  0  0  0
   21.8675   -5.8580  -19.6461 O   0  0  0  0  0  0  0  0  0  0  0  0
   19.6315   -8.3981  -16.5070 C   0  0  0  0  0  0  0  0  0  0  0  0
   18.6291   -7.5984  -16.6402 O   0  0  0  0  0  0  0  0  0  0  0  0
   21.2294   -7.5205  -21.0984 O   0  0  0  0  0  0  0  0  0  0  0  0
   20.5144   -8.1717  -15.4438 N   0  0  0  0  0  0  0  0  0  0  0  0
   21.6059   -9.0715  -15.0739 C   0  0  0  0  0  0  0  0  0  0  0  0
   22.4069   -8.3700  -13.9903 C   0  0  0  0  0  0  0  0  0  0  0  0
   21.9961   -6.9523  -14.1350 C   0  0  0  0  0  0  0  0  0  0  0  0
   20.5037   -7.0991  -14.5119 C   0  0  1  0  0  0  0  0  0  0  0  0
   20.1190   -5.7767  -14.9995 C   0  0  0  0  0  0  0  0  0  0  0  0
   19.6166   -4.8680  -14.0802 O   0  0  0  0  0  0  0  0  0  0  0  0
   20.2140   -5.4156  -16.1821 O   0  0  0  0  0  0  0  0  0  0  0  0
  1  2  1  0
  3  5  1  0
  3  2  1  0
  3  4  1  1
  5  6  2  0
  7  8  1  0
  7  5  1  0
  8 13  1  0
  8  9  1  6
 10 11  1  0
 10  9  1  0
 11 12  2  0
 13 14  2  0
 13 16  1  0
 15 11  1  0
 16 20  1  0
 16 17  1  0
 17 18  1  0
 19 18  1  0
 20 19  1  0
 20 21  1  6
 22 21  1  0
 23 21  2  0
M  END
$$$$
