SEP.pdb
     RDKit          3D

 23 23  0  0  1  0  0  0  0  0999 V2000
   28.5321  -22.3318  -15.3563 O   0  0  0  0  0  0  0  0  0  0  0  0
   27.8605  -22.3201  -16.5775 C   0  0  0  0  0  0  0  0  0  0  0  0
   27.5686  -20.8795  -16.9304 C   0  0  2  0  0  0  0  0  0  0  0  0
   28.7764  -20.0856  -16.9959 N   0  0  0  0  0  0  0  0  0  0  0  0
   26.6487  -20.2947  -15.9072 C   0  0  0  0  0  0  0  0  0  0  0  0
   27.0702  -19.4653  -15.0908 O   0  0  0  0  0  0  0  0  0  0  0  0
   25.2809  -20.6653  -15.8378 N   0  0  0  0  0  0  0  0  0  0  0  0
   24.3777  -20.0500  -14.9610 C   0  0  1  0  0  0  0  0  0  0  0  0
   23.1633  -19.4248  -15.6097 C   0  0  0  0  0  0  0  0  0  0  0  0
   22.2989  -18.7691  -14.5371 C   0  0  0  0  0  0  0  0  0  0  0  0
   20.9633  -18.4075  -15.0764 C   0  0  0  0  0  0  0  0  0  0  0  0
   20.1313  -19.2807  -15.4502 O   0  0  0  0  0  0  0  0  0  0  0  0
   23.9603  -20.8441  -13.7874 C   0  0  0  0  0  0  0  0  0  0  0  0
   23.0623  -21.7277  -14.0614 O   0  0  0  0  0  0  0  0  0  0  0  0
   20.6432  -17.0592  -15.1625 O   0  0  0  0  0  0  0  0  0  0  0  0
   24.4071  -20.7518  -12.4634 N   0  0  0  0  0  0  0  0  0  0  0  0
   25.6762  -20.1463  -12.0629 C   0  0  0  0  0  0  0  0  0  0  0  0
   25.6843  -20.1043  -10.5442 C   0  0  0  0  0  0  0  0  0  0  0  0
   24.2515  -20.2664  -10.1972 C   0  0  0  0  0  0  0  0  0  0  0  0
   23.7771  -21.2506  -11.2914 C   0  0  1  0  0  0  0  0  0  0  0  0
   22.3187  -21.1940  -11.2252 C   0  0  0  0  0  0  0  0  0  0  0  0
   21.6881  -21.9008  -10.2122 O   0  0  0  0  0  0  0  0  0  0  0  0
   21.6098  -20.5540  -12.0163 O   0  0  0  0  0  0  0  0  0  0  0  0
  1  2  1  0
  3  5  1  0
  3  2  1  0
  3  4  1  1
  5  6  2  0
  7  8  1  0
  7  5  1  0
  8 13  1  0
  8  9  1  6
 10 11  1  0
 10  9  1  0
 11 12  2  0
 13 14  2  0
 13 16  1  0
 15 11  1  0
 16 20  1  0
 16 17  1  0
 17 18  1  0
 19 18  1  0
 20 19  1  0
 20 21  1  6
 22 21  1  0
 23 21  2  0
M  END
$$$$
