SEP.pdb
     RDKit          3D

 23 23  0  0  1  0  0  0  0  0999 V2000
   27.6547  -18.7617  -16.4341 O   0  0  0  0  0  0  0  0  0  0  0  0
   27.5484  -19.0016  -15.0653 C   0  0  0  0  0  0  0  0  0  0  0  0
   27.1324  -20.4430  -14.8799 C   0  0  2  0  0  0  0  0  0  0  0  0
   27.8849  -21.3350  -15.7351 N   0  0  0  0  0  0  0  0  0  0  0  0
   25.6750  -20.5816  -15.1830 C   0  0  0  0  0  0  0  0  0  0  0  0
   25.3009  -21.2495  -16.1556 O   0  0  0  0  0  0  0  0  0  0  0  0
   24.6852  -19.9611  -14.3778 N   0  0  0  0  0  0  0  0  0  0  0  0
   23.3134  -20.1463  -14.5947 C   0  0  1  0  0  0  0  0  0  0  0  0
   22.5331  -20.6777  -13.4135 C   0  0  0  0  0  0  0  0  0  0  0  0
   21.0857  -20.9188  -13.8315 C   0  0  0  0  0  0  0  0  0  0  0  0
   20.3013  -21.5119  -12.7187 C   0  0  0  0  0  0  0  0  0  0  0  0
   19.0476  -21.6493  -12.7797 O   0  0  0  0  0  0  0  0  0  0  0  0
   22.5870  -19.0111  -15.1996 C   0  0  0  0  0  0  0  0  0  0  0  0
   22.4703  -17.9993  -14.4090 O   0  0  0  0  0  0  0  0  0  0  0  0
   20.9919  -21.9204  -11.5855 O   0  0  0  0  0  0  0  0  0  0  0  0
   22.0304  -18.9100  -16.4807 N   0  0  0  0  0  0  0  0  0  0  0  0
   22.2013  -19.9095  -17.5340 C   0  0  0  0  0  0  0  0  0  0  0  0
   21.3029  -19.4931  -18.6862 C   0  0  0  0  0  0  0  0  0  0  0  0
   20.3522  -18.5517  -18.0462 C   0  0  0  0  0  0  0  0  0  0  0  0
   21.2638  -17.8414  -17.0189 C   0  0  1  0  0  0  0  0  0  0  0  0
   20.3371  -17.1503  -16.1256 C   0  0  0  0  0  0  0  0  0  0  0  0
   19.8702  -15.9037  -16.5147 O   0  0  0  0  0  0  0  0  0  0  0  0
   19.9415  -17.6078  -15.0429 O   0  0  0  0  0  0  0  0  0  0  0  0
  1  2  1  0
  3  5  1  0
  3  2  1  0
  3  4  1  6
  5  6  2  0
  7  8  1  0
  7  5  1  0
  8 13  1  0
  8  9  1  1
 10 11  1  0
 10  9  1  0
 11 12  2  0
 13 14  2  0
 13 16  1  0
 15 11  1  0
 16 20  1  0
 16 17  1  0
 17 18  1  0
 19 18  1  0
 20 19  1  0
 20 21  1  1
 22 21  1  0
 23 21  2  0
M  END
$$$$
