SEP.pdb
     RDKit          3D

 23 23  0  0  1  0  0  0  0  0999 V2000
   24.9674  -14.0329  -17.9724 O   0  0  0  0  0  0  0  0  0  0  0  0
   24.6979  -12.7135  -18.3315 C   0  0  0  0  0  0  0  0  0  0  0  0
   24.2667  -11.9744  -17.0854 C   0  0  2  0  0  0  0  0  0  0  0  0
   23.0277  -12.4967  -16.5510 N   0  0  0  0  0  0  0  0  0  0  0  0
   24.0940  -10.5239  -17.4037 C   0  0  0  0  0  0  0  0  0  0  0  0
   25.0339   -9.8732  -17.8783 O   0  0  0  0  0  0  0  0  0  0  0  0
   22.8646   -9.8533  -17.1760 N   0  0  0  0  0  0  0  0  0  0  0  0
   22.6722   -8.5035  -17.4986 C   0  0  1  0  0  0  0  0  0  0  0  0
   21.4597   -8.2038  -18.3509 C   0  0  0  0  0  0  0  0  0  0  0  0
   21.6793   -8.7591  -19.7548 C   0  0  0  0  0  0  0  0  0  0  0  0
   20.5011   -8.4997  -20.6209 C   0  0  0  0  0  0  0  0  0  0  0  0
   20.2977   -7.3754  -21.1586 O   0  0  0  0  0  0  0  0  0  0  0  0
   22.7388   -7.5460  -16.3756 C   0  0  0  0  0  0  0  0  0  0  0  0
   22.1549   -7.9699  -15.3072 O   0  0  0  0  0  0  0  0  0  0  0  0
   19.6093   -9.5430  -20.8305 O   0  0  0  0  0  0  0  0  0  0  0  0
   23.3370   -6.2803  -16.3380 N   0  0  0  0  0  0  0  0  0  0  0  0
   24.2715   -5.7808  -17.3454 C   0  0  0  0  0  0  0  0  0  0  0  0
   24.5394   -4.3228  -17.0132 C   0  0  0  0  0  0  0  0  0  0  0  0
   23.4067   -3.9685  -16.1238 C   0  0  0  0  0  0  0  0  0  0  0  0
   23.2101   -5.2830  -15.3337 C   0  0  1  0  0  0  0  0  0  0  0  0
   21.9090   -5.1287  -14.6872 C   0  0  0  0  0  0  0  0  0  0  0  0
   21.8867   -4.6815  -13.3746 O   0  0  0  0  0  0  0  0  0  0  0  0
   20.8246   -5.3715  -15.2377 O   0  0  0  0  0  0  0  0  0  0  0  0
  1  2  1  0
  3  5  1  0
  3  2  1  0
  3  4  1  6
  5  6  2  0
  7  8  1  0
  7  5  1  0
  8 13  1  0
  8  9  1  1
 10 11  1  0
 10  9  1  0
 11 12  2  0
 13 14  2  0
 13 16  1  0
 15 11  1  0
 16 20  1  0
 16 17  1  0
 17 18  1  0
 19 18  1  0
 20 19  1  0
 20 21  1  6
 22 21  1  0
 23 21  2  0
M  END
$$$$
