SEP.pdb
     RDKit          3D

 23 23  0  0  1  0  0  0  0  0999 V2000
   38.7646   -8.2458   -4.7074 O   0  0  0  0  0  0  0  0  0  0  0  0
   39.4485   -8.3122   -5.9200 C   0  0  0  0  0  0  0  0  0  0  0  0
   38.6513   -9.1957   -6.8522 C   0  0  2  0  0  0  0  0  0  0  0  0
   38.7475  -10.5918   -6.4847 N   0  0  0  0  0  0  0  0  0  0  0  0
   39.1494   -9.0183   -8.2506 C   0  0  0  0  0  0  0  0  0  0  0  0
   40.0094   -9.7819   -8.7081 O   0  0  0  0  0  0  0  0  0  0  0  0
   38.6605   -7.9833   -9.0890 N   0  0  0  0  0  0  0  0  0  0  0  0
   39.1341   -7.7832  -10.3923 C   0  0  1  0  0  0  0  0  0  0  0  0
   38.0810   -7.4455  -11.4235 C   0  0  0  0  0  0  0  0  0  0  0  0
   38.7399   -7.3098  -12.7928 C   0  0  0  0  0  0  0  0  0  0  0  0
   37.7317   -7.0149  -13.8426 C   0  0  0  0  0  0  0  0  0  0  0  0
   36.7186   -7.7462  -14.0248 O   0  0  0  0  0  0  0  0  0  0  0  0
   40.2835   -6.8666  -10.5378 C   0  0  0  0  0  0  0  0  0  0  0  0
   40.0400   -5.6712  -10.1206 O   0  0  0  0  0  0  0  0  0  0  0  0
   37.9324   -5.8934  -14.6362 O   0  0  0  0  0  0  0  0  0  0  0  0
   41.5563   -7.1333  -11.0574 N   0  0  0  0  0  0  0  0  0  0  0  0
   42.0467   -8.4701  -11.3894 C   0  0  0  0  0  0  0  0  0  0  0  0
   43.3912   -8.2888  -12.0731 C   0  0  0  0  0  0  0  0  0  0  0  0
   43.3665   -6.8651  -12.4880 C   0  0  0  0  0  0  0  0  0  0  0  0
   42.6084   -6.2119  -11.3092 C   0  0  1  0  0  0  0  0  0  0  0  0
   42.2480   -4.8834  -11.7988 C   0  0  0  0  0  0  0  0  0  0  0  0
   42.8858   -3.7894  -11.2334 O   0  0  0  0  0  0  0  0  0  0  0  0
   41.4092   -4.6726  -12.6876 O   0  0  0  0  0  0  0  0  0  0  0  0
  1  2  1  0
  3  5  1  0
  3  2  1  0
  3  4  1  1
  5  6  2  0
  7  8  1  0
  7  5  1  0
  8 13  1  0
  8  9  1  6
 10 11  1  0
 10  9  1  0
 11 12  2  0
 13 14  2  0
 13 16  1  0
 15 11  1  0
 16 20  1  0
 16 17  1  0
 17 18  1  0
 19 18  1  0
 20 19  1  0
 20 21  1  6
 22 21  1  0
 23 21  2  0
M  END
$$$$
