SEP.pdb
     RDKit          3D

 23 23  0  0  1  0  0  0  0  0999 V2000
   29.4840  -28.7450  -20.6475 O   0  0  0  0  0  0  0  0  0  0  0  0
   29.5720  -27.9072  -19.5371 C   0  0  0  0  0  0  0  0  0  0  0  0
   30.2876  -28.6650  -18.4422 C   0  0  2  0  0  0  0  0  0  0  0  0
   31.6452  -28.9974  -18.8160 N   0  0  0  0  0  0  0  0  0  0  0  0
   29.5379  -29.9220  -18.1373 C   0  0  0  0  0  0  0  0  0  0  0  0
   30.0369  -31.0245  -18.3971 O   0  0  0  0  0  0  0  0  0  0  0  0
   28.2474  -29.8945  -17.5483 N   0  0  0  0  0  0  0  0  0  0  0  0
   27.6389  -31.0382  -17.0146 C   0  0  1  0  0  0  0  0  0  0  0  0
   28.4071  -31.7301  -15.9111 C   0  0  0  0  0  0  0  0  0  0  0  0
   27.6645  -32.9965  -15.4960 C   0  0  0  0  0  0  0  0  0  0  0  0
   28.4395  -34.2111  -15.8561 C   0  0  0  0  0  0  0  0  0  0  0  0
   27.9036  -35.3521  -15.9294 O   0  0  0  0  0  0  0  0  0  0  0  0
   26.2208  -30.9032  -16.6232 C   0  0  0  0  0  0  0  0  0  0  0  0
   26.0582  -30.3232  -15.4833 O   0  0  0  0  0  0  0  0  0  0  0  0
   29.7951  -34.0608  -16.1157 O   0  0  0  0  0  0  0  0  0  0  0  0
   25.0772  -31.3170  -17.3176 N   0  0  0  0  0  0  0  0  0  0  0  0
   25.0962  -31.9264  -18.6465 C   0  0  0  0  0  0  0  0  0  0  0  0
   23.6751  -32.3713  -18.9474 C   0  0  0  0  0  0  0  0  0  0  0  0
   23.0417  -32.3979  -17.6066 C   0  0  0  0  0  0  0  0  0  0  0  0
   23.7190  -31.1895  -16.9198 C   0  0  1  0  0  0  0  0  0  0  0  0
   23.4060  -31.3532  -15.5022 C   0  0  0  0  0  0  0  0  0  0  0  0
   24.3613  -31.9489  -14.6923 O   0  0  0  0  0  0  0  0  0  0  0  0
   22.3416  -30.9928  -14.9778 O   0  0  0  0  0  0  0  0  0  0  0  0
  1  2  1  0
  3  5  1  0
  3  2  1  0
  3  4  1  6
  5  6  2  0
  7  8  1  0
  7  5  1  0
  8 13  1  0
  8  9  1  1
 10 11  1  0
 10  9  1  0
 11 12  2  0
 13 14  2  0
 13 16  1  0
 15 11  1  0
 16 20  1  0
 16 17  1  0
 17 18  1  0
 19 18  1  0
 20 19  1  0
 20 21  1  1
 22 21  1  0
 23 21  2  0
M  END
$$$$
