SEP.pdb
     RDKit          3D

 23 23  0  0  1  0  0  0  0  0999 V2000
   17.7447  -10.1267  -21.0158 O   0  0  0  0  0  0  0  0  0  0  0  0
   18.4994   -9.9369  -19.8595 C   0  0  0  0  0  0  0  0  0  0  0  0
   19.8809  -10.4961  -20.1126 C   0  0  2  0  0  0  0  0  0  0  0  0
   19.8868  -11.9429  -20.1007 N   0  0  0  0  0  0  0  0  0  0  0  0
   20.8202   -9.9903  -19.0654 C   0  0  0  0  0  0  0  0  0  0  0  0
   21.1269  -10.7068  -18.1038 O   0  0  0  0  0  0  0  0  0  0  0  0
   21.3841   -8.6903  -19.1368 N   0  0  0  0  0  0  0  0  0  0  0  0
   22.3052   -8.2163  -18.1934 C   0  0  1  0  0  0  0  0  0  0  0  0
   23.4425   -7.3904  -18.7513 C   0  0  0  0  0  0  0  0  0  0  0  0
   24.3963   -7.0156  -17.6211 C   0  0  0  0  0  0  0  0  0  0  0  0
   25.3429   -5.9555  -18.0521 C   0  0  0  0  0  0  0  0  0  0  0  0
   26.1968   -5.4579  -17.2661 O   0  0  0  0  0  0  0  0  0  0  0  0
   21.7392   -7.5440  -17.0060 C   0  0  0  0  0  0  0  0  0  0  0  0
   21.0200   -6.5141  -17.2961 O   0  0  0  0  0  0  0  0  0  0  0  0
   25.2662   -5.5142  -19.3663 O   0  0  0  0  0  0  0  0  0  0  0  0
   21.8882   -7.8803  -15.6548 N   0  0  0  0  0  0  0  0  0  0  0  0
   22.4785   -9.1299  -15.1774 C   0  0  0  0  0  0  0  0  0  0  0  0
   22.5996   -9.0113  -13.6677 C   0  0  0  0  0  0  0  0  0  0  0  0
   22.4955   -7.5499  -13.4372 C   0  0  0  0  0  0  0  0  0  0  0  0
   21.4690   -7.1381  -14.5178 C   0  0  1  0  0  0  0  0  0  0  0  0
   21.5692   -5.6819  -14.5799 C   0  0  0  0  0  0  0  0  0  0  0  0
   20.4731   -4.9388  -14.1679 O   0  0  0  0  0  0  0  0  0  0  0  0
   22.5717   -5.0691  -14.9766 O   0  0  0  0  0  0  0  0  0  0  0  0
  1  2  1  0
  3  5  1  0
  3  2  1  0
  3  4  1  1
  5  6  2  0
  7  8  1  0
  7  5  1  0
  8 13  1  0
  8  9  1  6
 10 11  1  0
 10  9  1  0
 11 12  2  0
 13 14  2  0
 13 16  1  0
 15 11  1  0
 16 20  1  0
 16 17  1  0
 17 18  1  0
 19 18  1  0
 20 19  1  0
 20 21  1  6
 22 21  1  0
 23 21  2  0
M  END
$$$$
