SEP.pdb
     RDKit          3D

 23 23  0  0  1  0  0  0  0  0999 V2000
   25.0268  -11.3792  -16.2505 O   0  0  0  0  0  0  0  0  0  0  0  0
   24.6419  -11.2936  -14.9137 C   0  0  0  0  0  0  0  0  0  0  0  0
   23.1660  -11.6109  -14.8365 C   0  0  2  0  0  0  0  0  0  0  0  0
   22.8388  -12.8277  -15.5478 N   0  0  0  0  0  0  0  0  0  0  0  0
   22.3837  -10.4758  -15.4150 C   0  0  0  0  0  0  0  0  0  0  0  0
   22.0473  -10.4930  -16.6060 O   0  0  0  0  0  0  0  0  0  0  0  0
   22.0057   -9.3561  -14.6298 N   0  0  0  0  0  0  0  0  0  0  0  0
   21.1377   -8.3633  -15.1030 C   0  0  1  0  0  0  0  0  0  0  0  0
   19.6659   -8.6188  -14.8683 C   0  0  0  0  0  0  0  0  0  0  0  0
   19.1506   -9.6018  -15.9152 C   0  0  0  0  0  0  0  0  0  0  0  0
   17.6852   -9.8027  -15.7820 C   0  0  0  0  0  0  0  0  0  0  0  0
   16.8583   -9.2483  -16.5588 O   0  0  0  0  0  0  0  0  0  0  0  0
   21.4664   -6.9729  -14.7274 C   0  0  0  0  0  0  0  0  0  0  0  0
   21.6182   -6.8087  -13.4576 O   0  0  0  0  0  0  0  0  0  0  0  0
   17.2352  -10.6310  -14.7626 O   0  0  0  0  0  0  0  0  0  0  0  0
   21.6243   -5.8555  -15.5566 N   0  0  0  0  0  0  0  0  0  0  0  0
   21.5829   -5.9016  -17.0174 C   0  0  0  0  0  0  0  0  0  0  0  0
   21.6262   -4.4634  -17.5049 C   0  0  0  0  0  0  0  0  0  0  0  0
   21.2350   -3.6900  -16.3014 C   0  0  0  0  0  0  0  0  0  0  0  0
   21.8982   -4.5146  -15.1740 C   0  0  1  0  0  0  0  0  0  0  0  0
   21.2813   -4.0167  -13.9468 C   0  0  0  0  0  0  0  0  0  0  0  0
   21.8541   -2.9112  -13.3360 O   0  0  0  0  0  0  0  0  0  0  0  0
   20.2785   -4.5193  -13.4178 O   0  0  0  0  0  0  0  0  0  0  0  0
  1  2  1  0
  3  5  1  0
  3  2  1  0
  3  4  1  6
  5  6  2  0
  7  8  1  0
  7  5  1  0
  8 13  1  0
  8  9  1  1
 10 11  1  0
 10  9  1  0
 11 12  2  0
 13 14  2  0
 13 16  1  0
 15 11  1  0
 16 20  1  0
 16 17  1  0
 17 18  1  0
 19 18  1  0
 20 19  1  0
 20 21  1  1
 22 21  1  0
 23 21  2  0
M  END
$$$$
