FPI.pdb
     RDKit          3D

 27 28  0  0  1  0  0  0  0  0999 V2000
   24.7752  -21.7414  -13.4683 N   0  0  0  0  0  0  0  0  0  0  0  0
   25.7226  -20.9609  -12.7816 C   0  0  1  0  0  0  0  0  0  0  0  0
   25.1038  -19.6039  -12.4744 C   0  0  0  0  0  0  0  0  0  0  0  0
   24.8195  -18.8038  -13.6705 C   0  0  0  0  0  0  0  0  0  0  0  0
   25.7887  -18.0482  -14.3050 C   0  0  0  0  0  0  0  0  0  0  0  0
   25.5438  -17.2922  -15.4289 C   0  0  0  0  0  0  0  0  0  0  0  0
   24.2758  -17.2674  -15.9732 C   0  0  0  0  0  0  0  0  0  0  0  0
   23.2903  -18.0075  -15.3661 C   0  0  0  0  0  0  0  0  0  0  0  0
   23.5444  -18.7585  -14.2453 C   0  0  0  0  0  0  0  0  0  0  0  0
   26.3570  -21.4925  -11.5796 C   0  0  0  0  0  0  0  0  0  0  0  0
   25.5263  -22.0183  -10.7307 O   0  0  0  0  0  0  0  0  0  0  0  0
   27.6937  -21.5295  -11.1963 N   0  0  0  0  0  0  0  0  0  0  0  0
   28.7812  -22.0131  -12.0861 C   0  0  0  0  0  0  0  0  0  0  0  0
   29.7718  -20.8566  -11.9398 C   0  0  0  0  0  0  0  0  0  0  0  0
   29.3978  -20.1460  -10.6342 C   0  0  0  0  0  0  0  0  0  0  0  0
   28.4476  -21.2053  -10.0293 C   0  0  1  0  0  0  0  0  0  0  0  0
   27.8085  -20.7690   -8.8196 C   0  0  0  0  0  0  0  0  0  0  0  0
   26.7179  -20.1917   -8.6340 O   0  0  0  0  0  0  0  0  0  0  0  0
   29.4922  -21.0619   -2.7831 C   0  0  0  0  0  0  0  0  0  0  0  0
   28.5644  -20.5708   -3.8627 C   0  0  0  0  0  0  0  0  0  0  0  0
   29.0267  -21.0094   -5.2353 C   0  0  2  0  0  0  0  0  0  0  0  0
   30.4386  -20.5646   -5.4106 C   0  0  0  0  0  0  0  0  0  0  0  0
   28.0934  -20.5020   -6.3133 C   0  0  2  0  0  0  0  0  0  0  0  0
   28.5277  -21.0290   -7.5902 N   0  0  0  0  0  0  0  0  0  0  0  0
   28.0643  -19.0283   -6.3001 C   0  0  0  0  0  0  0  0  0  0  0  0
   28.8099  -18.3233   -7.2166 O   0  0  0  0  0  0  0  0  0  0  0  0
   27.3697  -18.4199   -5.4652 O   0  0  0  0  0  0  0  0  0  0  0  0
  2  3  1  0
  2  1  1  1
  4  3  1  0
  5  4  2  0
  6  5  1  0
  7  8  1  0
  7  6  2  0
  8  9  2  0
  9  4  1  0
 10 12  1  0
 10  2  1  0
 11 10  2  0
 12 13  1  0
 14 13  1  0
 15 16  1  0
 15 14  1  0
 16 12  1  0
 17 24  1  0
 16 17  1  1
 18 17  2  0
 20 19  1  0
 21 23  1  0
 21 20  1  0
 21 22  1  6
 23 24  1  6
 25 26  1  0
 25 23  1  0
 27 25  2  0
M  END
$$$$
