FPI.pdb
     RDKit          3D

 27 28  0  0  1  0  0  0  0  0999 V2000
   25.0411  -19.9740  -18.3606 N   0  0  0  0  0  0  0  0  0  0  0  0
   25.5452  -19.3516  -17.2044 C   0  0  1  0  0  0  0  0  0  0  0  0
   24.6297  -18.1911  -16.8385 C   0  0  0  0  0  0  0  0  0  0  0  0
   24.4352  -17.2300  -17.9294 C   0  0  0  0  0  0  0  0  0  0  0  0
   25.4657  -16.4517  -18.4246 C   0  0  0  0  0  0  0  0  0  0  0  0
   25.3054  -15.5456  -19.4483 C   0  0  0  0  0  0  0  0  0  0  0  0
   24.0643  -15.3837  -20.0299 C   0  0  0  0  0  0  0  0  0  0  0  0
   23.0195  -16.1423  -19.5603 C   0  0  0  0  0  0  0  0  0  0  0  0
   23.1894  -17.0435  -18.5388 C   0  0  0  0  0  0  0  0  0  0  0  0
   25.8166  -20.1539  -16.0160 C   0  0  0  0  0  0  0  0  0  0  0  0
   24.8011  -20.8517  -15.6049 O   0  0  0  0  0  0  0  0  0  0  0  0
   26.9741  -20.2942  -15.2573 N   0  0  0  0  0  0  0  0  0  0  0  0
   28.2442  -20.8372  -15.8053 C   0  0  0  0  0  0  0  0  0  0  0  0
   29.2172  -19.7578  -15.3274 C   0  0  0  0  0  0  0  0  0  0  0  0
   28.5178  -19.0478  -14.1629 C   0  0  0  0  0  0  0  0  0  0  0  0
   27.3662  -20.0477  -13.9079 C   0  0  1  0  0  0  0  0  0  0  0  0
   26.4254  -19.5903  -12.9241 C   0  0  0  0  0  0  0  0  0  0  0  0
   25.7455  -18.5456  -12.8674 O   0  0  0  0  0  0  0  0  0  0  0  0
   21.3661  -19.8785  -11.3644 C   0  0  0  0  0  0  0  0  0  0  0  0
   22.6874  -19.8769  -10.6421 C   0  0  0  0  0  0  0  0  0  0  0  0
   23.8186  -20.3059  -11.5511 C   0  0  2  0  0  0  0  0  0  0  0  0
   23.4916  -21.6573  -12.0885 C   0  0  0  0  0  0  0  0  0  0  0  0
   25.1491  -20.2455  -10.8323 C   0  0  2  0  0  0  0  0  0  0  0  0
   26.2081  -20.4691  -11.7942 N   0  0  0  0  0  0  0  0  0  0  0  0
   25.1740  -21.2322   -9.7374 C   0  0  0  0  0  0  0  0  0  0  0  0
   25.9142  -22.3839   -9.8742 O   0  0  0  0  0  0  0  0  0  0  0  0
   24.5298  -21.0286   -8.6918 O   0  0  0  0  0  0  0  0  0  0  0  0
  2  3  1  0
  2  1  1  6
  4  3  1  0
  5  4  2  0
  6  5  1  0
  7  8  1  0
  7  6  2  0
  8  9  2  0
  9  4  1  0
 10 12  1  0
 10  2  1  0
 11 10  2  0
 12 13  1  0
 14 13  1  0
 15 16  1  0
 15 14  1  0
 16 12  1  0
 17 24  1  0
 16 17  1  1
 18 17  2  0
 20 19  1  0
 21 23  1  0
 21 20  1  0
 21 22  1  1
 23 24  1  6
 25 26  1  0
 25 23  1  0
 27 25  2  0
M  END
$$$$
