FPI.pdb
     RDKit          3D

 27 28  0  0  1  0  0  0  0  0999 V2000
   25.1383  -21.3401  -12.6146 N   0  0  0  0  0  0  0  0  0  0  0  0
   26.3652  -20.8434  -12.1389 C   0  0  1  0  0  0  0  0  0  0  0  0
   26.3591  -19.3262  -12.2697 C   0  0  0  0  0  0  0  0  0  0  0  0
   26.6656  -18.8523  -13.6235 C   0  0  0  0  0  0  0  0  0  0  0  0
   25.6801  -18.5811  -14.5553 C   0  0  0  0  0  0  0  0  0  0  0  0
   25.9456  -18.1341  -15.8297 C   0  0  0  0  0  0  0  0  0  0  0  0
   27.2526  -17.9370  -16.2267 C   0  0  0  0  0  0  0  0  0  0  0  0
   28.2552  -18.1975  -15.3241 C   0  0  0  0  0  0  0  0  0  0  0  0
   27.9803  -18.6431  -14.0551 C   0  0  0  0  0  0  0  0  0  0  0  0
   26.8239  -21.2174  -10.8049 C   0  0  0  0  0  0  0  0  0  0  0  0
   25.8828  -21.2458   -9.9100 O   0  0  0  0  0  0  0  0  0  0  0  0
   28.0920  -21.5465  -10.3374 N   0  0  0  0  0  0  0  0  0  0  0  0
   28.9607  -22.5606  -10.9896 C   0  0  0  0  0  0  0  0  0  0  0  0
   30.2611  -21.7618  -11.0940 C   0  0  0  0  0  0  0  0  0  0  0  0
   30.1493  -20.6398  -10.0557 C   0  0  0  0  0  0  0  0  0  0  0  0
   28.9320  -21.1543   -9.2530 C   0  0  1  0  0  0  0  0  0  0  0  0
   28.4817  -20.2296   -8.2508 C   0  0  0  0  0  0  0  0  0  0  0  0
   27.9566  -19.1025   -8.3558 O   0  0  0  0  0  0  0  0  0  0  0  0
   25.9156  -20.4211   -2.8149 C   0  0  0  0  0  0  0  0  0  0  0  0
   26.7014  -19.6384   -3.8334 C   0  0  0  0  0  0  0  0  0  0  0  0
   27.2619  -20.5375   -4.9140 C   0  0  2  0  0  0  0  0  0  0  0  0
   27.7981  -21.7652   -4.2606 C   0  0  0  0  0  0  0  0  0  0  0  0
   28.2828  -19.8052   -5.7579 C   0  0  2  0  0  0  0  0  0  0  0  0
   28.6532  -20.6482   -6.8754 N   0  0  0  0  0  0  0  0  0  0  0  0
   29.4453  -19.4343   -4.9310 C   0  0  0  0  0  0  0  0  0  0  0  0
   29.4294  -18.2552   -4.2221 O   0  0  0  0  0  0  0  0  0  0  0  0
   30.4394  -20.1812   -4.8713 O   0  0  0  0  0  0  0  0  0  0  0  0
  2  3  1  0
  2  1  1  1
  4  3  1  0
  5  4  2  0
  6  5  1  0
  7  8  1  0
  7  6  2  0
  8  9  2  0
  9  4  1  0
 10 12  1  0
 10  2  1  0
 11 10  2  0
 12 13  1  0
 14 13  1  0
 15 16  1  0
 15 14  1  0
 16 12  1  0
 17 24  1  0
 16 17  1  6
 18 17  2  0
 20 19  1  0
 21 23  1  0
 21 20  1  0
 21 22  1  1
 23 24  1  6
 25 26  1  0
 25 23  1  0
 27 25  2  0
M  END
$$$$
