FPI.pdb
     RDKit          3D

 27 28  0  0  1  0  0  0  0  0999 V2000
   23.7617  -18.4309  -19.1075 N   0  0  0  0  0  0  0  0  0  0  0  0
   24.2866  -19.4871  -18.3411 C   0  0  1  0  0  0  0  0  0  0  0  0
   25.6982  -19.7862  -18.8277 C   0  0  0  0  0  0  0  0  0  0  0  0
   25.7546  -20.2448  -20.2198 C   0  0  0  0  0  0  0  0  0  0  0  0
   25.3875  -21.5246  -20.5946 C   0  0  0  0  0  0  0  0  0  0  0  0
   25.4311  -21.9745  -21.8946 C   0  0  0  0  0  0  0  0  0  0  0  0
   25.8588  -21.1279  -22.8972 C   0  0  0  0  0  0  0  0  0  0  0  0
   26.2307  -19.8497  -22.5575 C   0  0  0  0  0  0  0  0  0  0  0  0
   26.1837  -19.4101  -21.2578 C   0  0  0  0  0  0  0  0  0  0  0  0
   24.2814  -19.3909  -16.8849 C   0  0  0  0  0  0  0  0  0  0  0  0
   25.4648  -19.3983  -16.3495 O   0  0  0  0  0  0  0  0  0  0  0  0
   23.2269  -19.2927  -15.9830 N   0  0  0  0  0  0  0  0  0  0  0  0
   22.0391  -18.4295  -16.2122 C   0  0  0  0  0  0  0  0  0  0  0  0
   20.9248  -19.4367  -15.9225 C   0  0  0  0  0  0  0  0  0  0  0  0
   21.5677  -20.5432  -15.0788 C   0  0  0  0  0  0  0  0  0  0  0  0
   22.8965  -19.8440  -14.7093 C   0  0  1  0  0  0  0  0  0  0  0  0
   23.8085  -20.6975  -14.0010 C   0  0  0  0  0  0  0  0  0  0  0  0
   24.1530  -21.8784  -14.2109 O   0  0  0  0  0  0  0  0  0  0  0  0
   28.6853  -20.3971  -12.9296 C   0  0  0  0  0  0  0  0  0  0  0  0
   27.2232  -20.7440  -13.0265 C   0  0  0  0  0  0  0  0  0  0  0  0
   26.5216  -20.5721  -11.6967 C   0  0  2  0  0  0  0  0  0  0  0  0
   27.2579  -21.3749  -10.6793 C   0  0  0  0  0  0  0  0  0  0  0  0
   25.0545  -20.9285  -11.8037 C   0  0  2  0  0  0  0  0  0  0  0  0
   24.4534  -20.1174  -12.8417 N   0  0  0  0  0  0  0  0  0  0  0  0
   24.3953  -20.7408  -10.4987 C   0  0  0  0  0  0  0  0  0  0  0  0
   24.3342  -21.7884   -9.6088 O   0  0  0  0  0  0  0  0  0  0  0  0
   23.8946  -19.6413  -10.1987 O   0  0  0  0  0  0  0  0  0  0  0  0
  2  3  1  0
  2  1  1  6
  4  3  1  0
  5  4  2  0
  6  5  1  0
  7  8  1  0
  7  6  2  0
  8  9  2  0
  9  4  1  0
 10 12  1  0
 10  2  1  0
 11 10  2  0
 12 13  1  0
 14 13  1  0
 15 16  1  0
 15 14  1  0
 16 12  1  0
 17 24  1  0
 16 17  1  6
 18 17  2  0
 20 19  1  0
 21 23  1  0
 21 20  1  0
 21 22  1  1
 23 24  1  6
 25 26  1  0
 25 23  1  0
 27 25  2  0
M  END
$$$$
