FPI.pdb
     RDKit          3D

 27 28  0  0  1  0  0  0  0  0999 V2000
   25.7931  -21.4552  -13.1172 N   0  0  0  0  0  0  0  0  0  0  0  0
   26.7729  -20.7082  -12.4386 C   0  0  1  0  0  0  0  0  0  0  0  0
   26.3653  -19.2411  -12.4573 C   0  0  0  0  0  0  0  0  0  0  0  0
   26.3674  -18.6481  -13.7989 C   0  0  0  0  0  0  0  0  0  0  0  0
   25.2012  -18.3330  -14.4723 C   0  0  0  0  0  0  0  0  0  0  0  0
   25.1806  -17.7747  -15.7302 C   0  0  0  0  0  0  0  0  0  0  0  0
   26.3691  -17.5041  -16.3776 C   0  0  0  0  0  0  0  0  0  0  0  0
   27.5455  -17.8056  -15.7353 C   0  0  0  0  0  0  0  0  0  0  0  0
   27.5557  -18.3624  -14.4805 C   0  0  0  0  0  0  0  0  0  0  0  0
   27.1595  -21.0912  -11.0845 C   0  0  0  0  0  0  0  0  0  0  0  0
   26.1867  -21.0509  -10.2247 O   0  0  0  0  0  0  0  0  0  0  0  0
   28.3876  -21.4897  -10.5669 N   0  0  0  0  0  0  0  0  0  0  0  0
   29.2806  -22.4617  -11.2498 C   0  0  0  0  0  0  0  0  0  0  0  0
   30.5986  -21.6869  -11.1967 C   0  0  0  0  0  0  0  0  0  0  0  0
   30.4367  -20.6594  -10.0710 C   0  0  0  0  0  0  0  0  0  0  0  0
   29.1596  -21.2149   -9.3991 C   0  0  1  0  0  0  0  0  0  0  0  0
   28.6591  -20.3728   -8.3491 C   0  0  0  0  0  0  0  0  0  0  0  0
   28.0670  -19.2753   -8.3940 O   0  0  0  0  0  0  0  0  0  0  0  0
   24.9968  -21.5855   -5.2644 C   0  0  0  0  0  0  0  0  0  0  0  0
   26.1200  -20.8802   -5.9774 C   0  0  0  0  0  0  0  0  0  0  0  0
   27.3613  -20.7983   -5.1157 C   0  0  2  0  0  0  0  0  0  0  0  0
   26.9822  -20.1680   -3.8192 C   0  0  0  0  0  0  0  0  0  0  0  0
   28.4793  -20.0762   -5.8364 C   0  0  2  0  0  0  0  0  0  0  0  0
   28.8613  -20.8519   -6.9978 N   0  0  0  0  0  0  0  0  0  0  0  0
   29.6104  -19.8565   -4.9170 C   0  0  0  0  0  0  0  0  0  0  0  0
   30.5194  -20.8664   -4.7008 O   0  0  0  0  0  0  0  0  0  0  0  0
   29.7466  -18.7638   -4.3364 O   0  0  0  0  0  0  0  0  0  0  0  0
  2  3  1  0
  2  1  1  1
  4  3  1  0
  5  4  2  0
  6  5  1  0
  7  8  1  0
  7  6  2  0
  8  9  2  0
  9  4  1  0
 10 12  1  0
 10  2  1  0
 11 10  2  0
 12 13  1  0
 14 13  1  0
 15 16  1  0
 15 14  1  0
 16 12  1  0
 17 24  1  0
 16 17  1  1
 18 17  2  0
 20 19  1  0
 21 23  1  0
 21 20  1  0
 21 22  1  1
 23 24  1  6
 25 26  1  0
 25 23  1  0
 27 25  2  0
M  END
$$$$
