FPI.pdb
     RDKit          3D

 27 28  0  0  1  0  0  0  0  0999 V2000
   16.9957  -12.3421    5.2322 N   0  0  0  0  0  0  0  0  0  0  0  0
   17.4751  -13.3773    4.4094 C   0  0  1  0  0  0  0  0  0  0  0  0
   18.9312  -13.0918    4.0673 C   0  0  0  0  0  0  0  0  0  0  0  0
   19.7919  -12.9381    5.2450 C   0  0  0  0  0  0  0  0  0  0  0  0
   20.2423  -14.0192    5.9807 C   0  0  0  0  0  0  0  0  0  0  0  0
   21.0516  -13.8975    7.0874 C   0  0  0  0  0  0  0  0  0  0  0  0
   21.4503  -12.6450    7.5083 C   0  0  0  0  0  0  0  0  0  0  0  0
   21.0196  -11.5503    6.7987 C   0  0  0  0  0  0  0  0  0  0  0  0
   20.2125  -11.6820    5.6961 C   0  0  0  0  0  0  0  0  0  0  0  0
   17.3376  -14.7636    4.8441 C   0  0  0  0  0  0  0  0  0  0  0  0
   17.5908  -14.9510    6.1043 O   0  0  0  0  0  0  0  0  0  0  0  0
   16.9824  -15.9081    4.1377 N   0  0  0  0  0  0  0  0  0  0  0  0
   15.7468  -16.0063    3.3178 C   0  0  0  0  0  0  0  0  0  0  0  0
   16.3387  -16.5570    2.0191 C   0  0  0  0  0  0  0  0  0  0  0  0
   17.6810  -17.1889    2.4041 C   0  0  0  0  0  0  0  0  0  0  0  0
   17.5201  -17.2149    3.9417 C   0  0  1  0  0  0  0  0  0  0  0  0
   18.7035  -17.6507    4.6285 C   0  0  0  0  0  0  0  0  0  0  0  0
   19.8980  -17.3173    4.4902 O   0  0  0  0  0  0  0  0  0  0  0  0
   21.7026  -17.5119    9.2038 C   0  0  0  0  0  0  0  0  0  0  0  0
   21.2285  -18.5790    8.2530 C   0  0  0  0  0  0  0  0  0  0  0  0
   20.0294  -18.1183    7.4531 C   0  0  2  0  0  0  0  0  0  0  0  0
   18.9518  -17.7425    8.4120 C   0  0  0  0  0  0  0  0  0  0  0  0
   19.6072  -19.1687    6.4486 C   0  0  2  0  0  0  0  0  0  0  0  0
   18.5097  -18.6458    5.6622 N   0  0  0  0  0  0  0  0  0  0  0  0
   19.2471  -20.4159    7.1470 C   0  0  0  0  0  0  0  0  0  0  0  0
   17.9474  -20.6214    7.5488 O   0  0  0  0  0  0  0  0  0  0  0  0
   20.1116  -21.2822    7.3745 O   0  0  0  0  0  0  0  0  0  0  0  0
  2  3  1  0
  2  1  1  1
  4  3  1  0
  5  4  2  0
  6  5  1  0
  7  8  1  0
  7  6  2  0
  8  9  2  0
  9  4  1  0
 10 12  1  0
 10  2  1  0
 11 10  2  0
 12 13  1  0
 14 13  1  0
 15 16  1  0
 15 14  1  0
 16 12  1  0
 17 24  1  0
 16 17  1  1
 18 17  2  0
 20 19  1  0
 21 23  1  0
 21 20  1  0
 21 22  1  1
 23 24  1  1
 25 26  1  0
 25 23  1  0
 27 25  2  0
M  END
$$$$
