ALL.pdb
     RDKit          3D

 22 21  0  0  1  0  0  0  0  0999 V2000
    9.4609  -19.6658   20.1661 C   0  0  0  0  0  0  0  0  0  0  0  0
    9.5313  -19.4230   21.6516 C   0  0  2  0  0  0  0  0  0  0  0  0
    8.2376  -19.6821   22.2642 N   0  0  0  0  0  0  0  0  0  0  0  0
   10.0110  -18.0619   21.9390 C   0  0  0  0  0  0  0  0  0  0  0  0
   11.1316  -17.7255   21.4786 O   0  0  0  0  0  0  0  0  0  0  0  0
    6.5292  -13.9420   22.0515 C   0  0  0  0  0  0  0  0  0  0  0  0
    7.6939  -14.8744   21.8113 C   0  0  1  0  0  0  0  0  0  0  0  0
    8.4319  -14.3191   20.5817 C   0  0  0  0  0  0  0  0  0  0  0  0
    8.6459  -14.7809   22.9703 C   0  0  0  0  0  0  0  0  0  0  0  0
    9.7819  -15.7650   22.9058 C   0  0  2  0  0  0  0  0  0  0  0  0
    9.2789  -17.1209   22.7005 N   0  0  0  0  0  0  0  0  0  0  0  0
   10.5877  -15.7721   24.1504 C   0  0  0  0  0  0  0  0  0  0  0  0
   11.4069  -14.8278   24.3165 O   0  0  0  0  0  0  0  0  0  0  0  0
   10.8151  -13.4642   27.7789 C   0  0  0  0  0  0  0  0  0  0  0  0
    9.6670  -14.4029   27.8941 C   0  0  1  0  0  0  0  0  0  0  0  0
    8.3665  -13.6164   28.1008 C   0  0  0  0  0  0  0  0  0  0  0  0
    9.5344  -15.4631   26.8968 C   0  0  0  0  0  0  0  0  0  0  0  0
   10.6226  -16.4052   26.5826 C   0  0  2  0  0  0  0  0  0  0  0  0
   10.4806  -16.7654   25.1345 N   0  0  0  0  0  0  0  0  0  0  0  0
   10.6692  -17.6953   27.2726 C   0  0  0  0  0  0  0  0  0  0  0  0
   11.2804  -17.8457   28.3574 O   0  0  0  0  0  0  0  0  0  0  0  0
   10.0278  -18.8215   26.7450 O   0  0  0  0  0  0  0  0  0  0  0  0
  2  1  1  6
  2  3  1  0
  4  2  1  0
  4  5  2  0
  7  6  1  1
  7  8  1  0
  7  9  1  0
 10  9  1  1
 10 11  1  0
 10 12  1  0
 11  4  1  0
 12 13  2  0
 12 19  1  0
 15 14  1  6
 15 16  1  0
 17 15  1  0
 18 17  1  1
 19 18  1  0
 20 22  1  0
 20 18  1  0
 21 20  2  0
M  END
$$$$
