ALL.pdb
     RDKit          3D

 22 21  0  0  1  0  0  0  0  0999 V2000
    6.4158  -19.0197   23.3614 C   0  0  0  0  0  0  0  0  0  0  0  0
    6.7705  -18.4152   22.0274 C   0  0  2  0  0  0  0  0  0  0  0  0
    7.0874  -19.4635   21.0699 N   0  0  0  0  0  0  0  0  0  0  0  0
    7.8709  -17.4480   22.1651 C   0  0  0  0  0  0  0  0  0  0  0  0
    9.0440  -17.8978   22.2175 O   0  0  0  0  0  0  0  0  0  0  0  0
    7.1551  -12.5288   19.9437 C   0  0  0  0  0  0  0  0  0  0  0  0
    7.7501  -13.8741   20.2896 C   0  0  1  0  0  0  0  0  0  0  0  0
    8.8814  -14.1083   19.2746 C   0  0  0  0  0  0  0  0  0  0  0  0
    8.3914  -13.7940   21.6464 C   0  0  0  0  0  0  0  0  0  0  0  0
    8.8089  -15.1282   22.2021 C   0  0  2  0  0  0  0  0  0  0  0  0
    7.6756  -16.0490   22.2398 N   0  0  0  0  0  0  0  0  0  0  0  0
    9.3402  -15.0185   23.5819 C   0  0  0  0  0  0  0  0  0  0  0  0
   10.5135  -14.5769   23.7183 O   0  0  0  0  0  0  0  0  0  0  0  0
    6.0195  -13.3003   26.3919 C   0  0  0  0  0  0  0  0  0  0  0  0
    7.4429  -13.2594   25.9618 C   0  0  1  0  0  0  0  0  0  0  0  0
    7.8914  -11.8048   25.7736 C   0  0  0  0  0  0  0  0  0  0  0  0
    8.4154  -14.0597   26.7034 C   0  0  0  0  0  0  0  0  0  0  0  0
    9.1866  -15.1531   26.0870 C   0  0  2  0  0  0  0  0  0  0  0  0
    8.6079  -15.3775   24.7227 N   0  0  0  0  0  0  0  0  0  0  0  0
    9.1669  -16.4777   26.7099 C   0  0  0  0  0  0  0  0  0  0  0  0
    9.4724  -16.6492   27.9141 O   0  0  0  0  0  0  0  0  0  0  0  0
    8.8029  -17.6149   25.9801 O   0  0  0  0  0  0  0  0  0  0  0  0
  2  1  1  1
  2  3  1  0
  4  2  1  0
  4  5  2  0
  7  6  1  6
  7  8  1  0
  7  9  1  0
 10  9  1  1
 10 11  1  0
 10 12  1  0
 11  4  1  0
 12 13  2  0
 12 19  1  0
 15 14  1  1
 15 16  1  0
 17 15  1  0
 18 17  1  1
 19 18  1  0
 20 22  1  0
 20 18  1  0
 21 20  2  0
M  END
$$$$
