ALL.pdb
     RDKit          3D

 22 21  0  0  1  0  0  0  0  0999 V2000
    8.7066  -20.0104   22.4829 C   0  0  0  0  0  0  0  0  0  0  0  0
    8.3932  -19.0367   21.3764 C   0  0  2  0  0  0  0  0  0  0  0  0
    8.7068  -19.6273   20.0846 N   0  0  0  0  0  0  0  0  0  0  0  0
    9.1000  -17.7625   21.5824 C   0  0  0  0  0  0  0  0  0  0  0  0
   10.3031  -17.6945   21.2233 O   0  0  0  0  0  0  0  0  0  0  0  0
    6.5884  -12.9952   20.9022 C   0  0  0  0  0  0  0  0  0  0  0  0
    7.6199  -14.0982   20.8468 C   0  0  1  0  0  0  0  0  0  0  0  0
    8.6713  -13.6412   19.8220 C   0  0  0  0  0  0  0  0  0  0  0  0
    8.3162  -14.1876   22.1756 C   0  0  0  0  0  0  0  0  0  0  0  0
    9.2385  -15.3694   22.3012 C   0  0  2  0  0  0  0  0  0  0  0  0
    8.4972  -16.6200   22.1587 N   0  0  0  0  0  0  0  0  0  0  0  0
    9.9261  -15.4059   23.6143 C   0  0  0  0  0  0  0  0  0  0  0  0
   10.9908  -14.7401   23.7303 O   0  0  0  0  0  0  0  0  0  0  0  0
   10.4999  -13.1071   26.9147 C   0  0  0  0  0  0  0  0  0  0  0  0
    9.9301  -14.2317   27.7042 C   0  0  1  0  0  0  0  0  0  0  0  0
    8.9353  -13.6930   28.7399 C   0  0  0  0  0  0  0  0  0  0  0  0
    9.4213  -15.3975   26.9842 C   0  0  0  0  0  0  0  0  0  0  0  0
   10.2250  -16.1416   25.9990 C   0  0  2  0  0  0  0  0  0  0  0  0
    9.4525  -16.1352   24.7145 N   0  0  0  0  0  0  0  0  0  0  0  0
   10.5148  -17.5562   26.2389 C   0  0  0  0  0  0  0  0  0  0  0  0
    9.8064  -18.4703   25.7534 O   0  0  0  0  0  0  0  0  0  0  0  0
   11.6034  -17.9483   27.0260 O   0  0  0  0  0  0  0  0  0  0  0  0
  2  1  1  1
  2  3  1  0
  4  2  1  0
  4  5  2  0
  7  6  1  1
  7  8  1  0
  7  9  1  0
 10  9  1  1
 10 11  1  0
 10 12  1  0
 11  4  1  0
 12 13  2  0
 12 19  1  0
 15 14  1  6
 15 16  1  0
 17 15  1  0
 18 17  1  1
 19 18  1  0
 20 22  1  0
 20 18  1  0
 21 20  2  0
M  END
$$$$
