ALL.pdb
     RDKit          3D

 22 21  0  0  1  0  0  0  0  0999 V2000
    5.9413  -19.4006   23.6606 C   0  0  0  0  0  0  0  0  0  0  0  0
    6.4252  -18.8838   22.3304 C   0  0  2  0  0  0  0  0  0  0  0  0
    6.8239  -19.9919   21.4765 N   0  0  0  0  0  0  0  0  0  0  0  0
    7.5145  -17.9109   22.5098 C   0  0  0  0  0  0  0  0  0  0  0  0
    8.6848  -18.3556   22.6269 O   0  0  0  0  0  0  0  0  0  0  0  0
    7.1672  -12.7557   20.4985 C   0  0  0  0  0  0  0  0  0  0  0  0
    7.6627  -14.1484   20.8121 C   0  0  1  0  0  0  0  0  0  0  0  0
    8.9425  -14.3376   19.9807 C   0  0  0  0  0  0  0  0  0  0  0  0
    8.0685  -14.2122   22.2577 C   0  0  0  0  0  0  0  0  0  0  0  0
    8.4350  -15.5938   22.7266 C   0  0  2  0  0  0  0  0  0  0  0  0
    7.3115  -16.5116   22.5557 N   0  0  0  0  0  0  0  0  0  0  0  0
    8.8149  -15.6162   24.1596 C   0  0  0  0  0  0  0  0  0  0  0  0
    7.9062  -15.8689   24.9967 O   0  0  0  0  0  0  0  0  0  0  0  0
   10.6902  -13.7005   28.6940 C   0  0  0  0  0  0  0  0  0  0  0  0
    9.4657  -14.3940   28.2120 C   0  0  1  0  0  0  0  0  0  0  0  0
    8.2163  -13.6708   28.7302 C   0  0  0  0  0  0  0  0  0  0  0  0
    9.3741  -14.7356   26.7938 C   0  0  0  0  0  0  0  0  0  0  0  0
   10.4302  -15.4742   26.0800 C   0  0  2  0  0  0  0  0  0  0  0  0
   10.1179  -15.3736   24.6175 N   0  0  0  0  0  0  0  0  0  0  0  0
   10.5807  -16.9105   26.3191 C   0  0  0  0  0  0  0  0  0  0  0  0
    9.6250  -17.6215   26.7115 O   0  0  0  0  0  0  0  0  0  0  0  0
   11.8075  -17.5528   26.1172 O   0  0  0  0  0  0  0  0  0  0  0  0
  2  1  1  1
  2  3  1  0
  4  2  1  0
  4  5  2  0
  7  6  1  1
  7  8  1  0
  7  9  1  0
 10  9  1  1
 10 11  1  0
 10 12  1  0
 11  4  1  0
 12 13  2  0
 12 19  1  0
 15 14  1  6
 15 16  1  0
 17 15  1  0
 18 17  1  1
 19 18  1  0
 20 22  1  0
 20 18  1  0
 21 20  2  0
M  END
$$$$
