ALL.pdb
     RDKit          3D

 22 21  0  0  1  0  0  0  0  0999 V2000
    8.9223  -19.0561   19.4594 C   0  0  0  0  0  0  0  0  0  0  0  0
    8.6946  -18.6454   20.8912 C   0  0  2  0  0  0  0  0  0  0  0  0
    7.2799  -18.7308   21.2187 N   0  0  0  0  0  0  0  0  0  0  0  0
    9.2354  -17.3004   21.1440 C   0  0  0  0  0  0  0  0  0  0  0  0
   10.4747  -17.1325   21.0137 O   0  0  0  0  0  0  0  0  0  0  0  0
    7.0054  -12.7102   19.4452 C   0  0  0  0  0  0  0  0  0  0  0  0
    8.0258  -13.7582   19.8250 C   0  0  1  0  0  0  0  0  0  0  0  0
    9.3656  -13.2704   19.2490 C   0  0  0  0  0  0  0  0  0  0  0  0
    8.1759  -13.7794   21.3201 C   0  0  0  0  0  0  0  0  0  0  0  0
    9.0387  -14.9015   21.8295 C   0  0  2  0  0  0  0  0  0  0  0  0
    8.4361  -16.1962   21.5222 N   0  0  0  0  0  0  0  0  0  0  0  0
    9.2318  -14.8371   23.2981 C   0  0  0  0  0  0  0  0  0  0  0  0
   10.1386  -14.0751   23.7310 O   0  0  0  0  0  0  0  0  0  0  0  0
    5.5658  -12.8874   26.1599 C   0  0  0  0  0  0  0  0  0  0  0  0
    6.9722  -13.3155   25.9326 C   0  0  1  0  0  0  0  0  0  0  0  0
    7.9319  -12.3739   26.6708 C   0  0  0  0  0  0  0  0  0  0  0  0
    7.3075  -14.7257   26.1202 C   0  0  0  0  0  0  0  0  0  0  0  0
    8.5877  -15.3078   25.6815 C   0  0  2  0  0  0  0  0  0  0  0  0
    8.4633  -15.5729   24.2115 N   0  0  0  0  0  0  0  0  0  0  0  0
    9.0175  -16.5890   26.2443 C   0  0  0  0  0  0  0  0  0  0  0  0
    9.1121  -16.7718   27.4815 O   0  0  0  0  0  0  0  0  0  0  0  0
    9.3424  -17.6699   25.4172 O   0  0  0  0  0  0  0  0  0  0  0  0
  2  1  1  6
  2  3  1  0
  4  2  1  0
  4  5  2  0
  7  6  1  1
  7  8  1  0
  7  9  1  0
 10  9  1  1
 10 11  1  0
 10 12  1  0
 11  4  1  0
 12 13  2  0
 12 19  1  0
 15 14  1  1
 15 16  1  0
 17 15  1  0
 18 17  1  1
 19 18  1  0
 20 22  1  0
 20 18  1  0
 21 20  2  0
M  END
$$$$
