ALL.pdb
     RDKit          3D

 22 21  0  0  1  0  0  0  0  0999 V2000
    6.3057  -18.8014   22.9672 C   0  0  0  0  0  0  0  0  0  0  0  0
    6.7218  -18.3531   21.5901 C   0  0  2  0  0  0  0  0  0  0  0  0
    7.0767  -19.5036   20.7738 N   0  0  0  0  0  0  0  0  0  0  0  0
    7.8189  -17.3752   21.6653 C   0  0  0  0  0  0  0  0  0  0  0  0
    8.9973  -17.8129   21.6416 O   0  0  0  0  0  0  0  0  0  0  0  0
    7.3114  -12.3899   19.6106 C   0  0  0  0  0  0  0  0  0  0  0  0
    7.8430  -13.7573   19.9728 C   0  0  1  0  0  0  0  0  0  0  0  0
    9.0163  -14.0210   19.0143 C   0  0  0  0  0  0  0  0  0  0  0  0
    8.4163  -13.7102   21.3611 C   0  0  0  0  0  0  0  0  0  0  0  0
    8.7402  -15.0637   21.9323 C   0  0  2  0  0  0  0  0  0  0  0  0
    7.6144  -15.9787   21.7612 N   0  0  0  0  0  0  0  0  0  0  0  0
    9.0474  -15.0010   23.3814 C   0  0  0  0  0  0  0  0  0  0  0  0
   10.1397  -14.4697   23.7203 O   0  0  0  0  0  0  0  0  0  0  0  0
    5.5117  -12.7954   26.4720 C   0  0  0  0  0  0  0  0  0  0  0  0
    6.8860  -13.2296   26.1038 C   0  0  1  0  0  0  0  0  0  0  0  0
    7.9105  -12.2025   26.6017 C   0  0  0  0  0  0  0  0  0  0  0  0
    7.2797  -14.6071   26.3932 C   0  0  0  0  0  0  0  0  0  0  0  0
    8.4852  -15.2307   25.8203 C   0  0  2  0  0  0  0  0  0  0  0  0
    8.1913  -15.4975   24.3750 N   0  0  0  0  0  0  0  0  0  0  0  0
    8.9350  -16.5225   26.3417 C   0  0  0  0  0  0  0  0  0  0  0  0
    8.7612  -17.5907   25.7078 O   0  0  0  0  0  0  0  0  0  0  0  0
    9.5827  -16.6176   27.5785 O   0  0  0  0  0  0  0  0  0  0  0  0
  2  1  1  1
  2  3  1  0
  4  2  1  0
  4  5  2  0
  7  6  1  6
  7  8  1  0
  7  9  1  0
 10  9  1  1
 10 11  1  0
 10 12  1  0
 11  4  1  0
 12 13  2  0
 12 19  1  0
 15 14  1  1
 15 16  1  0
 17 15  1  0
 18 17  1  1
 19 18  1  0
 20 22  1  0
 20 18  1  0
 21 20  2  0
M  END
$$$$
