ALL.pdb
     RDKit          3D

 22 21  0  0  1  0  0  0  0  0999 V2000
    9.1284  -18.9871   19.7147 C   0  0  0  0  0  0  0  0  0  0  0  0
    8.9207  -18.6403   21.1663 C   0  0  2  0  0  0  0  0  0  0  0  0
    7.5153  -18.7719   21.5175 N   0  0  0  0  0  0  0  0  0  0  0  0
    9.4361  -17.2944   21.4635 C   0  0  0  0  0  0  0  0  0  0  0  0
   10.6831  -17.1339   21.4783 O   0  0  0  0  0  0  0  0  0  0  0  0
    6.8377  -12.8907   19.7177 C   0  0  0  0  0  0  0  0  0  0  0  0
    7.9042  -13.9069   20.0546 C   0  0  1  0  0  0  0  0  0  0  0  0
    9.1467  -13.4979   19.2460 C   0  0  0  0  0  0  0  0  0  0  0  0
    8.2668  -13.7762   21.5071 C   0  0  0  0  0  0  0  0  0  0  0  0
    9.1750  -14.8658   22.0082 C   0  0  2  0  0  0  0  0  0  0  0  0
    8.6046  -16.1815   21.7303 N   0  0  0  0  0  0  0  0  0  0  0  0
    9.4008  -14.7778   23.4709 C   0  0  0  0  0  0  0  0  0  0  0  0
   10.2423  -13.9314   23.8781 O   0  0  0  0  0  0  0  0  0  0  0  0
    5.6414  -12.9796   26.3359 C   0  0  0  0  0  0  0  0  0  0  0  0
    7.0519  -13.3501   26.0432 C   0  0  1  0  0  0  0  0  0  0  0  0
    8.0050  -12.3494   26.7086 C   0  0  0  0  0  0  0  0  0  0  0  0
    7.4605  -14.7391   26.2431 C   0  0  0  0  0  0  0  0  0  0  0  0
    8.7924  -15.2426   25.8649 C   0  0  2  0  0  0  0  0  0  0  0  0
    8.7310  -15.5802   24.4059 N   0  0  0  0  0  0  0  0  0  0  0  0
    9.2986  -16.4621   26.4968 C   0  0  0  0  0  0  0  0  0  0  0  0
    9.4136  -16.5660   27.7414 O   0  0  0  0  0  0  0  0  0  0  0  0
    9.6772  -17.5702   25.7306 O   0  0  0  0  0  0  0  0  0  0  0  0
  2  1  1  6
  2  3  1  0
  4  2  1  0
  4  5  2  0
  7  6  1  6
  7  8  1  0
  7  9  1  0
 10  9  1  1
 10 11  1  0
 10 12  1  0
 11  4  1  0
 12 13  2  0
 12 19  1  0
 15 14  1  1
 15 16  1  0
 17 15  1  0
 18 17  1  1
 19 18  1  0
 20 22  1  0
 20 18  1  0
 21 20  2  0
M  END
$$$$
