ALL.pdb
     RDKit          3D

 22 21  0  0  1  0  0  0  0  0999 V2000
    6.1002  -18.6031   23.5027 C   0  0  0  0  0  0  0  0  0  0  0  0
    6.4217  -18.2393   22.0762 C   0  0  2  0  0  0  0  0  0  0  0  0
    6.6422  -19.4426   21.2891 N   0  0  0  0  0  0  0  0  0  0  0  0
    7.5733  -17.3253   22.0141 C   0  0  0  0  0  0  0  0  0  0  0  0
    8.7222  -17.8326   21.9552 O   0  0  0  0  0  0  0  0  0  0  0  0
    7.2793  -12.4319   19.6385 C   0  0  0  0  0  0  0  0  0  0  0  0
    7.7608  -13.8023   20.0554 C   0  0  1  0  0  0  0  0  0  0  0  0
    8.9189  -14.1494   19.1052 C   0  0  0  0  0  0  0  0  0  0  0  0
    8.3418  -13.7195   21.4389 C   0  0  0  0  0  0  0  0  0  0  0  0
    8.6345  -15.0593   22.0573 C   0  0  2  0  0  0  0  0  0  0  0  0
    7.4520  -15.9159   22.0164 N   0  0  0  0  0  0  0  0  0  0  0  0
    9.0514  -14.9423   23.4753 C   0  0  0  0  0  0  0  0  0  0  0  0
   10.1575  -14.3843   23.7106 O   0  0  0  0  0  0  0  0  0  0  0  0
    5.9061  -12.4886   26.6375 C   0  0  0  0  0  0  0  0  0  0  0  0
    7.2335  -13.0134   26.2189 C   0  0  1  0  0  0  0  0  0  0  0  0
    8.3319  -12.0042   26.5761 C   0  0  0  0  0  0  0  0  0  0  0  0
    7.5845  -14.3844   26.5842 C   0  0  0  0  0  0  0  0  0  0  0  0
    8.6976  -15.1183   25.9575 C   0  0  2  0  0  0  0  0  0  0  0  0
    8.2828  -15.4162   24.5483 N   0  0  0  0  0  0  0  0  0  0  0  0
    9.0885  -16.4198   26.5017 C   0  0  0  0  0  0  0  0  0  0  0  0
    9.4811  -16.5533   27.6853 O   0  0  0  0  0  0  0  0  0  0  0  0
    9.0388  -17.5768   25.7161 O   0  0  0  0  0  0  0  0  0  0  0  0
  2  1  1  1
  2  3  1  0
  4  2  1  0
  4  5  2  0
  7  6  1  6
  7  8  1  0
  7  9  1  0
 10  9  1  1
 10 11  1  0
 10 12  1  0
 11  4  1  0
 12 13  2  0
 12 19  1  0
 15 14  1  1
 15 16  1  0
 17 15  1  0
 18 17  1  1
 19 18  1  0
 20 22  1  0
 20 18  1  0
 21 20  2  0
M  END
$$$$
