ALL.pdb
     RDKit          3D

 22 21  0  0  1  0  0  0  0  0999 V2000
    6.9211  -19.3405   23.1099 C   0  0  0  0  0  0  0  0  0  0  0  0
    7.1446  -18.7059   21.7616 C   0  0  2  0  0  0  0  0  0  0  0  0
    7.6066  -19.7027   20.8082 N   0  0  0  0  0  0  0  0  0  0  0  0
    8.0764  -17.5715   21.8631 C   0  0  0  0  0  0  0  0  0  0  0  0
    9.3022  -17.8278   21.9762 O   0  0  0  0  0  0  0  0  0  0  0  0
    6.8348  -12.6906   19.6295 C   0  0  0  0  0  0  0  0  0  0  0  0
    7.5324  -13.9770   20.0064 C   0  0  1  0  0  0  0  0  0  0  0  0
    8.7462  -14.0887   19.0687 C   0  0  0  0  0  0  0  0  0  0  0  0
    8.0711  -13.8531   21.4039 C   0  0  0  0  0  0  0  0  0  0  0  0
    8.6364  -15.1341   21.9541 C   0  0  2  0  0  0  0  0  0  0  0  0
    7.6645  -16.2184   21.8389 N   0  0  0  0  0  0  0  0  0  0  0  0
    9.0035  -15.0147   23.3856 C   0  0  0  0  0  0  0  0  0  0  0  0
    9.9487  -14.2331   23.6789 O   0  0  0  0  0  0  0  0  0  0  0  0
    6.0177  -12.4412   26.4396 C   0  0  0  0  0  0  0  0  0  0  0  0
    7.3010  -13.1087   26.0930 C   0  0  1  0  0  0  0  0  0  0  0  0
    8.4728  -12.3569   26.7366 C   0  0  0  0  0  0  0  0  0  0  0  0
    7.3976  -14.5574   26.2615 C   0  0  0  0  0  0  0  0  0  0  0  0
    8.5772  -15.3338   25.8420 C   0  0  2  0  0  0  0  0  0  0  0  0
    8.3566  -15.7200   24.4107 N   0  0  0  0  0  0  0  0  0  0  0  0
    8.8735  -16.5991   26.5159 C   0  0  0  0  0  0  0  0  0  0  0  0
    8.4153  -17.6922   26.1059 O   0  0  0  0  0  0  0  0  0  0  0  0
    9.6870  -16.6396   27.6537 O   0  0  0  0  0  0  0  0  0  0  0  0
  2  1  1  1
  2  3  1  0
  4  2  1  0
  4  5  2  0
  7  6  1  6
  7  8  1  0
  7  9  1  0
 10  9  1  1
 10 11  1  0
 10 12  1  0
 11  4  1  0
 12 13  2  0
 12 19  1  0
 15 14  1  1
 15 16  1  0
 17 15  1  0
 18 17  1  1
 19 18  1  0
 20 22  1  0
 20 18  1  0
 21 20  2  0
M  END
$$$$
