ALL.pdb
     RDKit          3D

 22 21  0  0  1  0  0  0  0  0999 V2000
    8.9496  -18.4046   20.9643 C   0  0  0  0  0  0  0  0  0  0  0  0
    8.5991  -16.9563   20.7400 C   0  0  2  0  0  0  0  0  0  0  0  0
    9.2532  -16.4622   19.5384 N   0  0  0  0  0  0  0  0  0  0  0  0
    8.9368  -16.1454   21.9206 C   0  0  0  0  0  0  0  0  0  0  0  0
   10.0990  -15.6711   21.9935 O   0  0  0  0  0  0  0  0  0  0  0  0
    5.8589  -12.7722   25.7771 C   0  0  0  0  0  0  0  0  0  0  0  0
    6.9338  -13.1483   24.7838 C   0  0  1  0  0  0  0  0  0  0  0  0
    8.2059  -12.4156   25.2416 C   0  0  0  0  0  0  0  0  0  0  0  0
    7.2142  -14.6204   24.8963 C   0  0  0  0  0  0  0  0  0  0  0  0
    8.4224  -15.0709   24.1215 C   0  0  2  0  0  0  0  0  0  0  0  0
    8.0255  -15.8747   22.9681 N   0  0  0  0  0  0  0  0  0  0  0  0
    9.3400  -15.8949   24.9444 C   0  0  0  0  0  0  0  0  0  0  0  0
   10.2548  -16.5207   24.3429 O   0  0  0  0  0  0  0  0  0  0  0  0
   10.9090  -13.2074   28.2354 C   0  0  0  0  0  0  0  0  0  0  0  0
   11.0811  -14.5205   28.9126 C   0  0  1  0  0  0  0  0  0  0  0  0
   11.0475  -14.3331   30.4345 C   0  0  0  0  0  0  0  0  0  0  0  0
   10.2638  -15.6458   28.4631 C   0  0  0  0  0  0  0  0  0  0  0  0
   10.4568  -16.3029   27.1588 C   0  0  2  0  0  0  0  0  0  0  0  0
    9.2377  -16.0068   26.3385 N   0  0  0  0  0  0  0  0  0  0  0  0
   10.5813  -17.7606   27.1073 C   0  0  0  0  0  0  0  0  0  0  0  0
   11.6882  -18.3367   27.2328 O   0  0  0  0  0  0  0  0  0  0  0  0
    9.4606  -18.5760   26.9145 O   0  0  0  0  0  0  0  0  0  0  0  0
  2  1  1  1
  2  3  1  0
  4  2  1  0
  4  5  2  0
  7  6  1  1
  7  8  1  0
  7  9  1  0
 10  9  1  1
 10 11  1  0
 10 12  1  0
 11  4  1  0
 12 13  2  0
 12 19  1  0
 15 14  1  6
 15 16  1  0
 17 15  1  0
 18 17  1  1
 19 18  1  0
 20 22  1  0
 20 18  1  0
 21 20  2  0
M  END
$$$$
