ALL.pdb
     RDKit          3D

 22 21  0  0  1  0  0  0  0  0999 V2000
    8.3989  -20.0715   23.7428 C   0  0  0  0  0  0  0  0  0  0  0  0
    7.5736  -19.1303   22.9040 C   0  0  2  0  0  0  0  0  0  0  0  0
    7.6658  -19.4978   21.4996 N   0  0  0  0  0  0  0  0  0  0  0  0
    7.9761  -17.7334   23.1324 C   0  0  0  0  0  0  0  0  0  0  0  0
    8.9276  -17.2778   22.4482 O   0  0  0  0  0  0  0  0  0  0  0  0
    7.2887  -12.4734   24.2122 C   0  0  0  0  0  0  0  0  0  0  0  0
    7.2941  -13.3457   25.4462 C   0  0  1  0  0  0  0  0  0  0  0  0
    6.2347  -12.7499   26.3883 C   0  0  0  0  0  0  0  0  0  0  0  0
    6.8228  -14.7239   25.0763 C   0  0  0  0  0  0  0  0  0  0  0  0
    7.8329  -15.5250   24.3009 C   0  0  2  0  0  0  0  0  0  0  0  0
    7.3496  -16.8849   24.0751 N   0  0  0  0  0  0  0  0  0  0  0  0
    9.1313  -15.6253   25.0098 C   0  0  0  0  0  0  0  0  0  0  0  0
   10.0963  -14.9561   24.5502 O   0  0  0  0  0  0  0  0  0  0  0  0
    9.9436  -13.5987   28.1378 C   0  0  0  0  0  0  0  0  0  0  0  0
   10.3591  -14.7820   28.9377 C   0  0  1  0  0  0  0  0  0  0  0  0
    9.6951  -14.7391   30.3197 C   0  0  0  0  0  0  0  0  0  0  0  0
   10.2840  -16.1021   28.3148 C   0  0  0  0  0  0  0  0  0  0  0  0
   10.6246  -16.3392   26.9013 C   0  0  2  0  0  0  0  0  0  0  0  0
    9.3301  -16.4175   26.1497 N   0  0  0  0  0  0  0  0  0  0  0  0
   11.3296  -17.5687   26.5352 C   0  0  0  0  0  0  0  0  0  0  0  0
   12.5790  -17.6604   26.5962 O   0  0  0  0  0  0  0  0  0  0  0  0
   10.6316  -18.7005   26.0991 O   0  0  0  0  0  0  0  0  0  0  0  0
  2  1  1  1
  2  3  1  0
  4  2  1  0
  4  5  2  0
  7  6  1  6
  7  8  1  0
  7  9  1  0
 10  9  1  1
 10 11  1  0
 10 12  1  0
 11  4  1  0
 12 13  2  0
 12 19  1  0
 15 14  1  6
 15 16  1  0
 17 15  1  0
 18 17  1  1
 19 18  1  0
 20 22  1  0
 20 18  1  0
 21 20  2  0
M  END
$$$$
