ALL.pdb
     RDKit          3D

 22 21  0  0  1  0  0  0  0  0999 V2000
    7.7201  -19.3856   22.8167 C   0  0  0  0  0  0  0  0  0  0  0  0
    7.9269  -18.8412   21.4269 C   0  0  2  0  0  0  0  0  0  0  0  0
    8.5788  -19.8366   20.5900 N   0  0  0  0  0  0  0  0  0  0  0  0
    8.6809  -17.5782   21.4646 C   0  0  0  0  0  0  0  0  0  0  0  0
    9.9345  -17.6410   21.3893 O   0  0  0  0  0  0  0  0  0  0  0  0
    6.6419  -12.7982   19.5724 C   0  0  0  0  0  0  0  0  0  0  0  0
    7.6054  -13.9364   19.8166 C   0  0  1  0  0  0  0  0  0  0  0  0
    8.8348  -13.6435   18.9405 C   0  0  0  0  0  0  0  0  0  0  0  0
    8.0679  -13.8913   21.2458 C   0  0  0  0  0  0  0  0  0  0  0  0
    8.8741  -15.0910   21.6630 C   0  0  2  0  0  0  0  0  0  0  0  0
    8.0699  -16.3075   21.5792 N   0  0  0  0  0  0  0  0  0  0  0  0
    9.3666  -14.9773   23.0567 C   0  0  0  0  0  0  0  0  0  0  0  0
   10.3106  -14.1698   23.2744 O   0  0  0  0  0  0  0  0  0  0  0  0
    8.3731  -12.2610   27.0559 C   0  0  0  0  0  0  0  0  0  0  0  0
    7.3710  -13.2737   26.6283 C   0  0  1  0  0  0  0  0  0  0  0  0
    5.9846  -12.6262   26.5226 C   0  0  0  0  0  0  0  0  0  0  0  0
    7.6878  -14.1224   25.4813 C   0  0  0  0  0  0  0  0  0  0  0  0
    8.7788  -15.1122   25.4968 C   0  0  2  0  0  0  0  0  0  0  0  0
    8.8380  -15.7151   24.1257 N   0  0  0  0  0  0  0  0  0  0  0  0
    8.6822  -16.2647   26.3941 C   0  0  0  0  0  0  0  0  0  0  0  0
    9.3627  -16.3468   27.4444 O   0  0  0  0  0  0  0  0  0  0  0  0
    7.8189  -17.3297   26.1134 O   0  0  0  0  0  0  0  0  0  0  0  0
  2  1  1  1
  2  3  1  0
  4  2  1  0
  4  5  2  0
  7  6  1  1
  7  8  1  0
  7  9  1  0
 10  9  1  1
 10 11  1  0
 10 12  1  0
 11  4  1  0
 12 13  2  0
 12 19  1  0
 15 14  1  6
 15 16  1  0
 17 15  1  0
 18 17  1  6
 19 18  1  0
 20 22  1  0
 20 18  1  0
 21 20  2  0
M  END
$$$$
