ALL.pdb
     RDKit          3D

 22 21  0  0  1  0  0  0  0  0999 V2000
    8.9654  -15.5242   20.1439 C   0  0  0  0  0  0  0  0  0  0  0  0
    8.8730  -16.2960   21.4349 C   0  0  2  0  0  0  0  0  0  0  0  0
    7.6117  -17.0178   21.4987 N   0  0  0  0  0  0  0  0  0  0  0  0
    9.0542  -15.4061   22.5928 C   0  0  0  0  0  0  0  0  0  0  0  0
   10.1511  -14.8012   22.7015 O   0  0  0  0  0  0  0  0  0  0  0  0
    7.9268  -11.6229   26.1852 C   0  0  0  0  0  0  0  0  0  0  0  0
    7.2212  -12.9220   26.4983 C   0  0  1  0  0  0  0  0  0  0  0  0
    5.8098  -12.5325   26.9685 C   0  0  0  0  0  0  0  0  0  0  0  0
    7.0559  -13.7102   25.2294 C   0  0  0  0  0  0  0  0  0  0  0  0
    8.3252  -14.3553   24.7439 C   0  0  2  0  0  0  0  0  0  0  0  0
    8.0630  -15.1988   23.5805 N   0  0  0  0  0  0  0  0  0  0  0  0
    8.9517  -15.2092   25.7815 C   0  0  0  0  0  0  0  0  0  0  0  0
    8.3249  -16.2442   26.1370 O   0  0  0  0  0  0  0  0  0  0  0  0
   13.9300  -15.7631   24.8590 C   0  0  0  0  0  0  0  0  0  0  0  0
   12.6251  -16.2761   25.3558 C   0  0  1  0  0  0  0  0  0  0  0  0
   12.4499  -17.7441   24.9473 C   0  0  0  0  0  0  0  0  0  0  0  0
   12.2691  -16.0312   26.7520 C   0  0  0  0  0  0  0  0  0  0  0  0
   10.8741  -15.9540   27.2192 C   0  0  2  0  0  0  0  0  0  0  0  0
   10.1895  -14.9221   26.3746 N   0  0  0  0  0  0  0  0  0  0  0  0
   10.6060  -15.5305   28.5946 C   0  0  0  0  0  0  0  0  0  0  0  0
   10.1873  -14.3795   28.8647 O   0  0  0  0  0  0  0  0  0  0  0  0
   10.8078  -16.4006   29.6718 O   0  0  0  0  0  0  0  0  0  0  0  0
  2  1  1  6
  2  3  1  0
  4  2  1  0
  4  5  2  0
  7  6  1  6
  7  8  1  0
  7  9  1  0
 10  9  1  1
 10 11  1  0
 10 12  1  0
 11  4  1  0
 12 13  2  0
 12 19  1  0
 15 14  1  1
 15 16  1  0
 17 15  1  0
 18 17  1  6
 19 18  1  0
 20 22  1  0
 20 18  1  0
 21 20  2  0
M  END
$$$$
