IFE.pdb
     RDKit          3D

 29 29  0  0  1  0  0  0  0  0999 V2000
    9.0249  -20.2032   18.5361 C   0  0  0  0  0  0  0  0  0  0  0  0
    8.9650  -18.7170   18.5825 C   0  0  0  0  0  0  0  0  0  0  0  0
    9.1414  -18.1172   19.9533 C   0  0  2  0  0  0  0  0  0  0  0  0
    8.1932  -18.6489   20.9739 C   0  0  0  0  0  0  0  0  0  0  0  0
    8.9354  -16.6225   19.8369 C   0  0  2  0  0  0  0  0  0  0  0  0
    9.8444  -16.1562   18.8078 N   0  0  0  0  0  0  0  0  0  0  0  0
    9.1679  -15.9100   21.1272 C   0  0  0  0  0  0  0  0  0  0  0  0
   10.3280  -15.8739   21.6056 O   0  0  0  0  0  0  0  0  0  0  0  0
    8.1265  -15.2731   21.8313 N   0  0  0  0  0  0  0  0  0  0  0  0
    8.1971  -14.6735   23.1154 C   0  0  1  0  0  0  0  0  0  0  0  0
    7.0118  -13.8740   23.5100 C   0  0  0  0  0  0  0  0  0  0  0  0
    7.0887  -13.2799   24.8432 C   0  0  0  0  0  0  0  0  0  0  0  0
    6.3824  -13.7883   25.9112 C   0  0  0  0  0  0  0  0  0  0  0  0
    6.4657  -13.2114   27.1764 C   0  0  0  0  0  0  0  0  0  0  0  0
    7.2618  -12.1098   27.3952 C   0  0  0  0  0  0  0  0  0  0  0  0
    7.9730  -11.5925   26.3342 C   0  0  0  0  0  0  0  0  0  0  0  0
    7.8814  -12.1793   25.0708 C   0  0  0  0  0  0  0  0  0  0  0  0
    8.4632  -15.6948   24.1946 C   0  0  0  0  0  0  0  0  0  0  0  0
    7.7215  -16.6854   24.4010 O   0  0  0  0  0  0  0  0  0  0  0  0
    9.5896  -15.5876   25.0501 N   0  0  0  0  0  0  0  0  0  0  0  0
    9.9830  -16.6908   25.9471 C   0  0  1  0  0  0  0  0  0  0  0  0
   11.3554  -17.1714   25.6162 C   0  0  0  0  0  0  0  0  0  0  0  0
   11.4764  -18.0333   24.4119 C   0  0  0  0  0  0  0  0  0  0  0  0
   12.8759  -18.3818   24.0817 C   0  0  0  0  0  0  0  0  0  0  0  0
   13.2273  -19.1109   23.1210 O   0  0  0  0  0  0  0  0  0  0  0  0
    9.9837  -16.1324   27.3196 C   0  0  0  0  0  0  0  0  0  0  0  0
   10.2239  -16.8868   28.4668 O   0  0  0  0  0  0  0  0  0  0  0  0
   13.9138  -17.8873   24.8668 O   0  0  0  0  0  0  0  0  0  0  0  0
    9.7577  -14.9105   27.5019 O   0  0  0  0  0  0  0  0  0  0  0  0
  2  1  1  0
  3  2  1  0
  3  4  1  1
  5  3  1  0
  5  6  1  6
  7  5  1  0
  7  8  2  0
  9  7  1  0
 10  9  1  0
 10 11  1  1
 12 11  1  0
 12 17  2  0
 13 12  1  0
 14 13  2  0
 14 15  1  0
 15 16  2  0
 16 17  1  0
 18 10  1  0
 19 18  2  0
 20 18  1  0
 21 20  1  0
 21 26  1  0
 21 22  1  6
 23 22  1  0
 23 24  1  0
 24 25  2  0
 26 27  1  0
 28 24  1  0
 29 26  2  0
M  END
$$$$
