IFE.pdb
     RDKit          3D

 29 29  0  0  1  0  0  0  0  0999 V2000
    6.6917  -12.4772   18.2409 C   0  0  0  0  0  0  0  0  0  0  0  0
    7.0470  -13.7628   18.9010 C   0  0  0  0  0  0  0  0  0  0  0  0
    7.8672  -13.6258   20.1572 C   0  0  2  0  0  0  0  0  0  0  0  0
    9.1787  -12.9463   19.9535 C   0  0  0  0  0  0  0  0  0  0  0  0
    8.1239  -15.0155   20.6988 C   0  0  2  0  0  0  0  0  0  0  0  0
    6.8256  -15.6090   20.9534 N   0  0  0  0  0  0  0  0  0  0  0  0
    8.9643  -15.0036   21.9317 C   0  0  0  0  0  0  0  0  0  0  0  0
   10.1972  -14.7905   21.8295 O   0  0  0  0  0  0  0  0  0  0  0  0
    8.4207  -15.2242   23.2131 N   0  0  0  0  0  0  0  0  0  0  0  0
    9.1121  -15.2276   24.4522 C   0  0  1  0  0  0  0  0  0  0  0  0
    8.3032  -14.8378   25.6327 C   0  0  0  0  0  0  0  0  0  0  0  0
    9.0593  -14.7004   26.8760 C   0  0  0  0  0  0  0  0  0  0  0  0
    9.6835  -13.5228   27.2248 C   0  0  0  0  0  0  0  0  0  0  0  0
   10.4008  -13.4065   28.4133 C   0  0  0  0  0  0  0  0  0  0  0  0
   10.5060  -14.4729   29.2775 C   0  0  0  0  0  0  0  0  0  0  0  0
    9.8856  -15.6561   28.9390 C   0  0  0  0  0  0  0  0  0  0  0  0
    9.1696  -15.7604   27.7452 C   0  0  0  0  0  0  0  0  0  0  0  0
    9.7488  -16.5671   24.7326 C   0  0  0  0  0  0  0  0  0  0  0  0
    9.0908  -17.6282   24.8564 O   0  0  0  0  0  0  0  0  0  0  0  0
   11.1540  -16.7010   24.8731 N   0  0  0  0  0  0  0  0  0  0  0  0
   11.7972  -18.0263   24.9512 C   0  0  1  0  0  0  0  0  0  0  0  0
   12.9946  -18.0810   24.0640 C   0  0  0  0  0  0  0  0  0  0  0  0
   13.7875  -19.3369   24.1082 C   0  0  0  0  0  0  0  0  0  0  0  0
   14.9233  -19.3439   23.1600 C   0  0  0  0  0  0  0  0  0  0  0  0
   16.0762  -19.7677   23.4229 O   0  0  0  0  0  0  0  0  0  0  0  0
   12.2292  -18.1981   26.3581 C   0  0  0  0  0  0  0  0  0  0  0  0
   12.6326  -17.1488   27.1822 O   0  0  0  0  0  0  0  0  0  0  0  0
   14.7473  -18.8538   21.8689 O   0  0  0  0  0  0  0  0  0  0  0  0
   12.2475  -19.3423   26.8755 O   0  0  0  0  0  0  0  0  0  0  0  0
  2  1  1  0
  3  2  1  0
  3  4  1  6
  5  3  1  0
  5  6  1  1
  7  5  1  0
  7  8  2  0
  9  7  1  0
 10  9  1  0
 10 11  1  1
 12 11  1  0
 12 17  2  0
 13 12  1  0
 14 13  2  0
 14 15  1  0
 15 16  2  0
 16 17  1  0
 18 10  1  0
 19 18  2  0
 20 18  1  0
 21 20  1  0
 21 26  1  0
 21 22  1  6
 23 22  1  0
 23 24  1  0
 24 25  2  0
 26 27  1  0
 28 24  1  0
 29 26  2  0
M  END
$$$$
