IFE.pdb
     RDKit          3D

 29 29  0  0  1  0  0  0  0  0999 V2000
    8.1392  -19.5559   18.0106 C   0  0  0  0  0  0  0  0  0  0  0  0
    8.2578  -18.0828   18.1860 C   0  0  0  0  0  0  0  0  0  0  0  0
    8.5072  -17.6302   19.6011 C   0  0  2  0  0  0  0  0  0  0  0  0
    7.4667  -18.0751   20.5719 C   0  0  0  0  0  0  0  0  0  0  0  0
    8.5534  -16.1175   19.6041 C   0  0  2  0  0  0  0  0  0  0  0  0
    9.5717  -15.7305   18.6471 N   0  0  0  0  0  0  0  0  0  0  0  0
    8.8406  -15.5558   20.9564 C   0  0  0  0  0  0  0  0  0  0  0  0
    9.9667  -15.7541   21.4745 O   0  0  0  0  0  0  0  0  0  0  0  0
    7.8880  -14.8072   21.6761 N   0  0  0  0  0  0  0  0  0  0  0  0
    7.9774  -14.3684   23.0226 C   0  0  1  0  0  0  0  0  0  0  0  0
    6.8847  -13.4723   23.4732 C   0  0  0  0  0  0  0  0  0  0  0  0
    6.9052  -13.1487   24.8984 C   0  0  0  0  0  0  0  0  0  0  0  0
    6.0255  -13.7221   25.7902 C   0  0  0  0  0  0  0  0  0  0  0  0
    6.0569  -13.4040   27.1461 C   0  0  0  0  0  0  0  0  0  0  0  0
    6.9745  -12.5016   27.6349 C   0  0  0  0  0  0  0  0  0  0  0  0
    7.8596  -11.9217   26.7520 C   0  0  0  0  0  0  0  0  0  0  0  0
    7.8183  -12.2484   25.3954 C   0  0  0  0  0  0  0  0  0  0  0  0
    8.0678  -15.5291   23.9832 C   0  0  0  0  0  0  0  0  0  0  0  0
    7.1663  -16.3933   24.1036 O   0  0  0  0  0  0  0  0  0  0  0  0
    9.2007  -15.7094   24.8178 N   0  0  0  0  0  0  0  0  0  0  0  0
    9.3453  -16.9031   25.6724 C   0  0  1  0  0  0  0  0  0  0  0  0
   10.2486  -17.9011   25.0304 C   0  0  0  0  0  0  0  0  0  0  0  0
   11.5888  -17.4061   24.6220 C   0  0  0  0  0  0  0  0  0  0  0  0
   12.4007  -18.4276   23.9244 C   0  0  0  0  0  0  0  0  0  0  0  0
   12.0445  -19.6157   23.7255 O   0  0  0  0  0  0  0  0  0  0  0  0
    9.9596  -16.4381   26.9380 C   0  0  0  0  0  0  0  0  0  0  0  0
   10.3657  -15.1250   27.1699 O   0  0  0  0  0  0  0  0  0  0  0  0
   13.6600  -18.0919   23.4350 O   0  0  0  0  0  0  0  0  0  0  0  0
   10.1429  -17.2456   27.8824 O   0  0  0  0  0  0  0  0  0  0  0  0
  2  1  1  0
  3  2  1  0
  3  4  1  1
  5  3  1  0
  5  6  1  6
  7  5  1  0
  7  8  2  0
  9  7  1  0
 10  9  1  0
 10 11  1  1
 12 11  1  0
 12 17  2  0
 13 12  1  0
 14 13  2  0
 14 15  1  0
 15 16  2  0
 16 17  1  0
 18 10  1  0
 19 18  2  0
 20 18  1  0
 21 20  1  0
 21 26  1  0
 21 22  1  6
 23 22  1  0
 23 24  1  0
 24 25  2  0
 26 27  1  0
 28 24  1  0
 29 26  2  0
M  END
$$$$
