IFE.pdb
     RDKit          3D

 29 29  0  0  1  0  0  0  0  0999 V2000
    6.5103  -12.5915   18.3124 C   0  0  0  0  0  0  0  0  0  0  0  0
    6.8703  -13.8209   19.0698 C   0  0  0  0  0  0  0  0  0  0  0  0
    7.6787  -13.5830   20.3187 C   0  0  2  0  0  0  0  0  0  0  0  0
    8.9455  -12.8318   20.0865 C   0  0  0  0  0  0  0  0  0  0  0  0
    8.0206  -14.9312   20.9151 C   0  0  2  0  0  0  0  0  0  0  0  0
    6.7627  -15.6130   21.1506 N   0  0  0  0  0  0  0  0  0  0  0  0
    8.8170  -14.8164   22.1717 C   0  0  0  0  0  0  0  0  0  0  0  0
    9.9843  -14.3580   22.1162 O   0  0  0  0  0  0  0  0  0  0  0  0
    8.3030  -15.2061   23.4246 N   0  0  0  0  0  0  0  0  0  0  0  0
    8.9873  -15.2244   24.6675 C   0  0  1  0  0  0  0  0  0  0  0  0
    8.1364  -15.0198   25.8650 C   0  0  0  0  0  0  0  0  0  0  0  0
    8.8693  -14.8846   27.1224 C   0  0  0  0  0  0  0  0  0  0  0  0
    9.1885  -15.9743   27.9025 C   0  0  0  0  0  0  0  0  0  0  0  0
    9.8876  -15.8301   29.0987 C   0  0  0  0  0  0  0  0  0  0  0  0
   10.2813  -14.5858   29.5367 C   0  0  0  0  0  0  0  0  0  0  0  0
    9.9675  -13.4883   28.7645 C   0  0  0  0  0  0  0  0  0  0  0  0
    9.2664  -13.6454   27.5675 C   0  0  0  0  0  0  0  0  0  0  0  0
    9.7726  -16.4999   24.8537 C   0  0  0  0  0  0  0  0  0  0  0  0
    9.2380  -17.6333   24.9144 O   0  0  0  0  0  0  0  0  0  0  0  0
   11.1862  -16.4854   24.9717 N   0  0  0  0  0  0  0  0  0  0  0  0
   11.9933  -17.6915   24.7070 C   0  0  1  0  0  0  0  0  0  0  0  0
   13.0353  -17.4096   23.6780 C   0  0  0  0  0  0  0  0  0  0  0  0
   14.0708  -18.4582   23.4881 C   0  0  0  0  0  0  0  0  0  0  0  0
   15.0145  -18.1544   22.3898 C   0  0  0  0  0  0  0  0  0  0  0  0
   16.1183  -18.7272   22.2118 O   0  0  0  0  0  0  0  0  0  0  0  0
   12.6572  -18.0380   25.9856 C   0  0  0  0  0  0  0  0  0  0  0  0
   12.5715  -17.2644   27.1419 O   0  0  0  0  0  0  0  0  0  0  0  0
   14.6972  -17.1676   21.4604 O   0  0  0  0  0  0  0  0  0  0  0  0
   13.3482  -19.0831   26.0728 O   0  0  0  0  0  0  0  0  0  0  0  0
  2  1  1  0
  3  2  1  0
  3  4  1  6
  5  3  1  0
  5  6  1  1
  7  5  1  0
  7  8  2  0
  9  7  1  0
 10  9  1  0
 10 11  1  1
 12 11  1  0
 12 17  2  0
 13 12  1  0
 14 13  2  0
 14 15  1  0
 15 16  2  0
 16 17  1  0
 18 10  1  0
 19 18  2  0
 20 18  1  0
 21 20  1  0
 21 26  1  0
 21 22  1  6
 23 22  1  0
 23 24  1  0
 24 25  2  0
 26 27  1  0
 28 24  1  0
 29 26  2  0
M  END
$$$$
