IFE.pdb
     RDKit          3D

 29 29  0  0  1  0  0  0  0  0999 V2000
    7.1673  -13.1872   16.9486 C   0  0  0  0  0  0  0  0  0  0  0  0
    7.7294  -14.2530   17.8219 C   0  0  0  0  0  0  0  0  0  0  0  0
    7.8622  -13.8785   19.2751 C   0  0  2  0  0  0  0  0  0  0  0  0
    8.6800  -12.6546   19.5130 C   0  0  0  0  0  0  0  0  0  0  0  0
    8.5114  -15.0393   19.9970 C   0  0  2  0  0  0  0  0  0  0  0  0
    7.5927  -16.1568   19.8982 N   0  0  0  0  0  0  0  0  0  0  0  0
    8.8279  -14.7237   21.4207 C   0  0  0  0  0  0  0  0  0  0  0  0
    9.9054  -14.1400   21.6928 O   0  0  0  0  0  0  0  0  0  0  0  0
    7.9561  -15.0592   22.4758 N   0  0  0  0  0  0  0  0  0  0  0  0
    8.1106  -14.7483   23.8516 C   0  0  1  0  0  0  0  0  0  0  0  0
    6.8571  -14.4234   24.5749 C   0  0  0  0  0  0  0  0  0  0  0  0
    7.0471  -13.7741   25.8705 C   0  0  0  0  0  0  0  0  0  0  0  0
    7.0661  -12.4032   26.0046 C   0  0  0  0  0  0  0  0  0  0  0  0
    7.2482  -11.7983   27.2462 C   0  0  0  0  0  0  0  0  0  0  0  0
    7.4153  -12.5599   28.3809 C   0  0  0  0  0  0  0  0  0  0  0  0
    7.3981  -13.9325   28.2588 C   0  0  0  0  0  0  0  0  0  0  0  0
    7.2148  -14.5270   27.0091 C   0  0  0  0  0  0  0  0  0  0  0  0
    8.8180  -15.8534   24.5977 C   0  0  0  0  0  0  0  0  0  0  0  0
    8.3510  -17.0120   24.7143 O   0  0  0  0  0  0  0  0  0  0  0  0
   10.0748  -15.6370   25.2191 N   0  0  0  0  0  0  0  0  0  0  0  0
   10.8827  -16.7591   25.7333 C   0  0  1  0  0  0  0  0  0  0  0  0
   12.3048  -16.6199   25.3064 C   0  0  0  0  0  0  0  0  0  0  0  0
   12.5353  -16.3898   23.8566 C   0  0  0  0  0  0  0  0  0  0  0  0
   13.9546  -16.1356   23.5243 C   0  0  0  0  0  0  0  0  0  0  0  0
   14.8859  -16.0559   24.3635 O   0  0  0  0  0  0  0  0  0  0  0  0
   10.8115  -16.6814   27.2113 C   0  0  0  0  0  0  0  0  0  0  0  0
   10.1402  -15.6769   27.9066 O   0  0  0  0  0  0  0  0  0  0  0  0
   14.3323  -15.9657   22.1952 O   0  0  0  0  0  0  0  0  0  0  0  0
   11.3776  -17.5539   27.9153 O   0  0  0  0  0  0  0  0  0  0  0  0
  2  1  1  0
  3  2  1  0
  3  4  1  6
  5  3  1  0
  5  6  1  1
  7  5  1  0
  7  8  2  0
  9  7  1  0
 10  9  1  0
 10 11  1  1
 12 11  1  0
 12 17  2  0
 13 12  1  0
 14 13  2  0
 14 15  1  0
 15 16  2  0
 16 17  1  0
 18 10  1  0
 19 18  2  0
 20 18  1  0
 21 20  1  0
 21 26  1  0
 21 22  1  1
 23 22  1  0
 23 24  1  0
 24 25  2  0
 26 27  1  0
 28 24  1  0
 29 26  2  0
M  END
$$$$
