IFE.pdb
     RDKit          3D

 29 29  0  0  1  0  0  0  0  0999 V2000
    7.2822  -13.1873   16.7442 C   0  0  0  0  0  0  0  0  0  0  0  0
    7.8741  -14.1834   17.6781 C   0  0  0  0  0  0  0  0  0  0  0  0
    7.8654  -13.7768   19.1287 C   0  0  2  0  0  0  0  0  0  0  0  0
    8.5823  -12.4987   19.4040 C   0  0  0  0  0  0  0  0  0  0  0  0
    8.5264  -14.8810   19.9251 C   0  0  2  0  0  0  0  0  0  0  0  0
    7.6780  -16.0500   19.7988 N   0  0  0  0  0  0  0  0  0  0  0  0
    8.7294  -14.5121   21.3567 C   0  0  0  0  0  0  0  0  0  0  0  0
    9.5579  -13.6143   21.6454 O   0  0  0  0  0  0  0  0  0  0  0  0
    8.0206  -15.1386   22.4012 N   0  0  0  0  0  0  0  0  0  0  0  0
    8.1091  -14.8595   23.7896 C   0  0  1  0  0  0  0  0  0  0  0  0
    6.8371  -14.4616   24.4406 C   0  0  0  0  0  0  0  0  0  0  0  0
    6.9930  -13.7501   25.7077 C   0  0  0  0  0  0  0  0  0  0  0  0
    6.2935  -12.5969   25.9887 C   0  0  0  0  0  0  0  0  0  0  0  0
    6.4523  -11.9294   27.2010 C   0  0  0  0  0  0  0  0  0  0  0  0
    7.3188  -12.4076   28.1579 C   0  0  0  0  0  0  0  0  0  0  0  0
    8.0240  -13.5605   27.8880 C   0  0  0  0  0  0  0  0  0  0  0  0
    7.8563  -14.2206   26.6693 C   0  0  0  0  0  0  0  0  0  0  0  0
    8.6933  -16.0209   24.5564 C   0  0  0  0  0  0  0  0  0  0  0  0
    8.0374  -17.0487   24.8520 O   0  0  0  0  0  0  0  0  0  0  0  0
   10.0433  -16.0128   24.9921 N   0  0  0  0  0  0  0  0  0  0  0  0
   10.7143  -17.2469   25.4429 C   0  0  1  0  0  0  0  0  0  0  0  0
   12.0784  -17.3489   24.8487 C   0  0  0  0  0  0  0  0  0  0  0  0
   12.9075  -16.1167   24.8931 C   0  0  0  0  0  0  0  0  0  0  0  0
   14.2120  -16.2660   24.2111 C   0  0  0  0  0  0  0  0  0  0  0  0
   14.5114  -15.7405   23.1101 O   0  0  0  0  0  0  0  0  0  0  0  0
   10.8348  -17.1418   26.9160 C   0  0  0  0  0  0  0  0  0  0  0  0
   11.2646  -18.1822   27.7380 O   0  0  0  0  0  0  0  0  0  0  0  0
   15.2123  -17.0373   24.7963 O   0  0  0  0  0  0  0  0  0  0  0  0
   10.5408  -16.0676   27.4964 O   0  0  0  0  0  0  0  0  0  0  0  0
  2  1  1  0
  3  2  1  0
  3  4  1  6
  5  3  1  0
  5  6  1  1
  7  5  1  0
  7  8  2  0
  9  7  1  0
 10  9  1  0
 10 11  1  1
 12 11  1  0
 12 17  2  0
 13 12  1  0
 14 13  2  0
 14 15  1  0
 15 16  2  0
 16 17  1  0
 18 10  1  0
 19 18  2  0
 20 18  1  0
 21 20  1  0
 21 26  1  0
 21 22  1  6
 23 22  1  0
 23 24  1  0
 24 25  2  0
 26 27  1  0
 28 24  1  0
 29 26  2  0
M  END
$$$$
