IFE.pdb
     RDKit          3D

 29 29  0  0  1  0  0  0  0  0999 V2000
    9.2450  -19.9504   18.3962 C   0  0  0  0  0  0  0  0  0  0  0  0
    9.0549  -18.4778   18.4956 C   0  0  0  0  0  0  0  0  0  0  0  0
    9.1913  -17.9125   19.8854 C   0  0  2  0  0  0  0  0  0  0  0  0
    8.2413  -18.4989   20.8739 C   0  0  0  0  0  0  0  0  0  0  0  0
    8.9454  -16.4213   19.8072 C   0  0  2  0  0  0  0  0  0  0  0  0
    9.8361  -15.9060   18.7856 N   0  0  0  0  0  0  0  0  0  0  0  0
    9.1663  -15.7350   21.1136 C   0  0  0  0  0  0  0  0  0  0  0  0
   10.3226  -15.7058   21.6014 O   0  0  0  0  0  0  0  0  0  0  0  0
    8.1178  -15.1155   21.8228 N   0  0  0  0  0  0  0  0  0  0  0  0
    8.1767  -14.5437   23.1201 C   0  0  1  0  0  0  0  0  0  0  0  0
    7.0313  -13.6748   23.4847 C   0  0  0  0  0  0  0  0  0  0  0  0
    7.0633  -13.1592   24.8520 C   0  0  0  0  0  0  0  0  0  0  0  0
    7.8296  -12.0697   25.2039 C   0  0  0  0  0  0  0  0  0  0  0  0
    7.8501  -11.5894   26.5113 C   0  0  0  0  0  0  0  0  0  0  0  0
    7.0998  -12.1948   27.4940 C   0  0  0  0  0  0  0  0  0  0  0  0
    6.3293  -13.2856   27.1536 C   0  0  0  0  0  0  0  0  0  0  0  0
    6.3170  -13.7578   25.8399 C   0  0  0  0  0  0  0  0  0  0  0  0
    8.3332  -15.5983   24.1886 C   0  0  0  0  0  0  0  0  0  0  0  0
    7.5034  -16.5218   24.3692 O   0  0  0  0  0  0  0  0  0  0  0  0
    9.4502  -15.6025   25.0630 N   0  0  0  0  0  0  0  0  0  0  0  0
    9.7177  -16.7389   25.9649 C   0  0  1  0  0  0  0  0  0  0  0  0
   10.9122  -17.5037   25.5045 C   0  0  0  0  0  0  0  0  0  0  0  0
   12.0944  -16.6969   25.1056 C   0  0  0  0  0  0  0  0  0  0  0  0
   13.2141  -17.5165   24.5920 C   0  0  0  0  0  0  0  0  0  0  0  0
   13.0946  -18.4703   23.7833 O   0  0  0  0  0  0  0  0  0  0  0  0
   10.0004  -16.1561   27.2976 C   0  0  0  0  0  0  0  0  0  0  0  0
   10.2285  -16.9128   28.4457 O   0  0  0  0  0  0  0  0  0  0  0  0
   14.5148  -17.2465   25.0088 O   0  0  0  0  0  0  0  0  0  0  0  0
   10.0450  -14.9093   27.4425 O   0  0  0  0  0  0  0  0  0  0  0  0
  2  1  1  0
  3  2  1  0
  3  4  1  1
  5  3  1  0
  5  6  1  6
  7  5  1  0
  7  8  2  0
  9  7  1  0
 10  9  1  0
 10 11  1  1
 12 11  1  0
 12 17  2  0
 13 12  1  0
 14 13  2  0
 14 15  1  0
 15 16  2  0
 16 17  1  0
 18 10  1  0
 19 18  2  0
 20 18  1  0
 21 20  1  0
 21 26  1  0
 21 22  1  6
 23 22  1  0
 23 24  1  0
 24 25  2  0
 26 27  1  0
 28 24  1  0
 29 26  2  0
M  END
$$$$
