IFE.pdb
     RDKit          3D

 29 29  0  0  1  0  0  0  0  0999 V2000
    8.1552  -19.9485   18.0603 C   0  0  0  0  0  0  0  0  0  0  0  0
    7.8181  -18.5153   18.2770 C   0  0  0  0  0  0  0  0  0  0  0  0
    8.3023  -17.9397   19.5823 C   0  0  2  0  0  0  0  0  0  0  0  0
    7.8534  -18.7003   20.7836 C   0  0  0  0  0  0  0  0  0  0  0  0
    7.7817  -16.5225   19.6872 C   0  0  2  0  0  0  0  0  0  0  0  0
    8.2130  -15.8311   18.4879 N   0  0  0  0  0  0  0  0  0  0  0  0
    8.2622  -15.8253   20.9159 C   0  0  0  0  0  0  0  0  0  0  0  0
    9.4968  -15.6975   21.1034 O   0  0  0  0  0  0  0  0  0  0  0  0
    7.3749  -15.3026   21.8780 N   0  0  0  0  0  0  0  0  0  0  0  0
    7.7058  -14.7410   23.1384 C   0  0  1  0  0  0  0  0  0  0  0  0
    6.5953  -14.0504   23.8381 C   0  0  0  0  0  0  0  0  0  0  0  0
    6.9440  -13.4965   25.1450 C   0  0  0  0  0  0  0  0  0  0  0  0
    6.8256  -14.2307   26.3046 C   0  0  0  0  0  0  0  0  0  0  0  0
    7.1618  -13.6894   27.5434 C   0  0  0  0  0  0  0  0  0  0  0  0
    7.6249  -12.3968   27.6428 C   0  0  0  0  0  0  0  0  0  0  0  0
    7.7475  -11.6527   26.4893 C   0  0  0  0  0  0  0  0  0  0  0  0
    7.4073  -12.2062   25.2536 C   0  0  0  0  0  0  0  0  0  0  0  0
    8.2893  -15.7725   24.0733 C   0  0  0  0  0  0  0  0  0  0  0  0
    7.6880  -16.8251   24.3966 O   0  0  0  0  0  0  0  0  0  0  0  0
    9.5755  -15.6040   24.6475 N   0  0  0  0  0  0  0  0  0  0  0  0
   10.2701  -16.7179   25.3206 C   0  0  1  0  0  0  0  0  0  0  0  0
   11.6085  -16.9496   24.7051 C   0  0  0  0  0  0  0  0  0  0  0  0
   12.5124  -15.7722   24.6372 C   0  0  0  0  0  0  0  0  0  0  0  0
   13.7868  -16.0541   23.9403 C   0  0  0  0  0  0  0  0  0  0  0  0
   13.8968  -16.2905   22.7115 O   0  0  0  0  0  0  0  0  0  0  0  0
   10.4516  -16.3043   26.7318 C   0  0  0  0  0  0  0  0  0  0  0  0
   10.9119  -17.1516   27.7384 O   0  0  0  0  0  0  0  0  0  0  0  0
   14.9783  -16.0686   24.6602 O   0  0  0  0  0  0  0  0  0  0  0  0
   10.1848  -15.1280   27.0821 O   0  0  0  0  0  0  0  0  0  0  0  0
  2  1  1  0
  3  2  1  0
  3  4  1  1
  5  3  1  0
  5  6  1  6
  7  5  1  0
  7  8  2  0
  9  7  1  0
 10  9  1  0
 10 11  1  1
 12 11  1  0
 12 17  2  0
 13 12  1  0
 14 13  2  0
 14 15  1  0
 15 16  2  0
 16 17  1  0
 18 10  1  0
 19 18  2  0
 20 18  1  0
 21 20  1  0
 21 26  1  0
 21 22  1  6
 23 22  1  0
 23 24  1  0
 24 25  2  0
 26 27  1  0
 28 24  1  0
 29 26  2  0
M  END
$$$$
