IFE.pdb
     RDKit          3D

 29 29  0  0  1  0  0  0  0  0999 V2000
    7.0597  -15.0347   17.4115 C   0  0  0  0  0  0  0  0  0  0  0  0
    7.1566  -14.1607   18.6121 C   0  0  0  0  0  0  0  0  0  0  0  0
    7.6598  -14.8450   19.8564 C   0  0  2  0  0  0  0  0  0  0  0  0
    6.8772  -16.0543   20.2414 C   0  0  0  0  0  0  0  0  0  0  0  0
    7.5965  -13.8482   20.9933 C   0  0  2  0  0  0  0  0  0  0  0  0
    8.0888  -12.5886   20.4701 N   0  0  0  0  0  0  0  0  0  0  0  0
    8.3848  -14.2849   22.1826 C   0  0  0  0  0  0  0  0  0  0  0  0
    9.6105  -14.0192   22.2351 O   0  0  0  0  0  0  0  0  0  0  0  0
    7.7993  -14.9883   23.2542 N   0  0  0  0  0  0  0  0  0  0  0  0
    8.4404  -15.4502   24.4328 C   0  0  1  0  0  0  0  0  0  0  0  0
    7.7134  -15.1844   25.6981 C   0  0  0  0  0  0  0  0  0  0  0  0
    7.4584  -13.7718   25.9738 C   0  0  0  0  0  0  0  0  0  0  0  0
    8.4478  -12.9254   26.4238 C   0  0  0  0  0  0  0  0  0  0  0  0
    8.1900  -11.5811   26.6825 C   0  0  0  0  0  0  0  0  0  0  0  0
    6.9304  -11.0584   26.4940 C   0  0  0  0  0  0  0  0  0  0  0  0
    5.9326  -11.8959   26.0441 C   0  0  0  0  0  0  0  0  0  0  0  0
    6.2032  -13.2413   25.7884 C   0  0  0  0  0  0  0  0  0  0  0  0
    8.7457  -16.9266   24.3603 C   0  0  0  0  0  0  0  0  0  0  0  0
    8.2315  -17.7732   25.1304 O   0  0  0  0  0  0  0  0  0  0  0  0
    9.6481  -17.4469   23.3973 N   0  0  0  0  0  0  0  0  0  0  0  0
   11.0566  -17.7272   23.7345 C   0  0  1  0  0  0  0  0  0  0  0  0
   11.8885  -16.5000   23.5732 C   0  0  0  0  0  0  0  0  0  0  0  0
   13.2771  -16.5750   24.0965 C   0  0  0  0  0  0  0  0  0  0  0  0
   14.2994  -16.6557   23.0299 C   0  0  0  0  0  0  0  0  0  0  0  0
   14.5130  -15.7648   22.1705 O   0  0  0  0  0  0  0  0  0  0  0  0
   11.0710  -18.1378   25.1581 C   0  0  0  0  0  0  0  0  0  0  0  0
   10.4440  -17.4266   26.1798 O   0  0  0  0  0  0  0  0  0  0  0  0
   15.1080  -17.7848   22.9331 O   0  0  0  0  0  0  0  0  0  0  0  0
   11.6742  -19.1832   25.5055 O   0  0  0  0  0  0  0  0  0  0  0  0
  2  1  1  0
  3  2  1  0
  3  4  1  1
  5  3  1  0
  5  6  1  6
  7  5  1  0
  7  8  2  0
  9  7  1  0
 10  9  1  0
 10 11  1  1
 12 11  1  0
 12 17  2  0
 13 12  1  0
 14 13  2  0
 14 15  1  0
 15 16  2  0
 16 17  1  0
 18 10  1  0
 19 18  2  0
 20 18  1  0
 21 20  1  0
 21 26  1  0
 21 22  1  1
 23 22  1  0
 23 24  1  0
 24 25  2  0
 26 27  1  0
 28 24  1  0
 29 26  2  0
M  END
$$$$
