NRY.pdb
     RDKit          3D

 32 32  0  0  1  0  0  0  0  0999 V2000
    9.2262  -13.4204   16.0536 N   0  0  0  0  0  0  0  0  0  0  0  0
    7.8497  -13.3545   16.3714 C   0  0  0  0  0  0  0  0  0  0  0  0
    7.0170  -12.9113   15.5551 O   0  0  0  0  0  0  0  0  0  0  0  0
    7.3832  -13.8188   17.6958 C   0  0  0  0  0  0  0  0  0  0  0  0
    8.6071  -14.2430   18.4795 C   0  0  2  0  0  0  0  0  0  0  0  0
    9.4270  -15.1512   17.7360 N   0  0  0  0  0  0  0  0  0  0  0  0
    8.2246  -14.8797   19.7857 C   0  0  0  0  0  0  0  0  0  0  0  0
    7.4837  -14.2325   20.6000 O   0  0  0  0  0  0  0  0  0  0  0  0
    7.7798  -20.9021   17.5655 N   0  0  0  0  0  0  0  0  0  0  0  0
    6.5133  -20.2743   17.5298 C   0  0  0  0  0  0  0  0  0  0  0  0
    5.9319  -20.0454   16.3840 N   0  0  0  0  0  0  0  0  0  0  0  0
    5.8073  -19.8622   18.6855 N   0  0  0  0  0  0  0  0  0  0  0  0
    6.5019  -19.5196   19.9101 C   0  0  0  0  0  0  0  0  0  0  0  0
    7.7549  -18.6942   19.6450 C   0  0  0  0  0  0  0  0  0  0  0  0
    8.4515  -18.3390   20.9143 C   0  0  0  0  0  0  0  0  0  0  0  0
    8.2911  -16.8966   21.2540 C   0  0  2  0  0  0  0  0  0  0  0  0
    8.7162  -16.1783   20.0388 N   0  0  0  0  0  0  0  0  0  0  0  0
    8.9833  -16.3835   22.4204 C   0  0  0  0  0  0  0  0  0  0  0  0
   10.2581  -16.2962   22.3863 O   0  0  0  0  0  0  0  0  0  0  0  0
    5.0528  -19.5174   16.2806 O   0  0  0  0  0  0  0  0  0  0  0  0
   11.0860  -14.2228   30.6887 C   0  0  0  0  0  0  0  0  0  0  0  0
   10.4225  -14.3568   29.4766 C   0  0  0  0  0  0  0  0  0  0  0  0
   10.5448  -13.4206   28.4931 C   0  0  0  0  0  0  0  0  0  0  0  0
    9.8639  -13.6033   27.3091 C   0  0  0  0  0  0  0  0  0  0  0  0
    9.0608  -14.6953   27.0738 C   0  0  0  0  0  0  0  0  0  0  0  0
    8.3177  -14.9074   25.8218 C   0  0  1  0  0  0  0  0  0  0  0  0
    9.1742  -15.5634   24.7903 N   0  0  0  0  0  0  0  0  0  0  0  0
    8.3955  -15.9521   23.6172 C   0  0  0  0  0  0  0  0  0  0  0  0
    9.8286  -16.7593   25.3136 O   0  0  0  0  0  0  0  0  0  0  0  0
    9.2228  -17.8521   25.3102 C   0  0  0  0  0  0  0  0  0  0  0  0
    8.9560  -15.6303   28.0921 C   0  0  0  0  0  0  0  0  0  0  0  0
    9.6288  -15.4583   29.2727 O   0  0  0  0  0  0  0  0  0  0  0  0
  2  3  2  0
  2  1  1  0
  4  2  1  0
  5  4  1  0
  5  6  1  6
  7  5  1  0
  7  8  2  0
  9 10  1  0
 10 12  1  0
 11 10  2  0
 12 13  1  0
 13 14  1  0
 14 15  1  0
 16 17  1  0
 16 15  1  6
 17  7  1  0
 18 16  1  0
 19 18  2  0
 20 21  1  0
 21 22  2  0
 21 31  1  0
 22 23  1  0
 23 24  2  0
 24 25  1  0
 26 25  1  6
 26 27  1  0
 27 18  1  0
 28 26  1  0
 28 32  1  0
 29 28  2  0
 30 24  1  0
 31 30  2  0
M  END
$$$$
