NRY.pdb
     RDKit          3D

 32 32  0  0  1  0  0  0  0  0999 V2000
   14.4398  -13.8675   18.8561 N   0  0  0  0  0  0  0  0  0  0  0  0
   14.4931  -15.2797   18.8023 C   0  0  0  0  0  0  0  0  0  0  0  0
   15.5339  -15.9003   19.0985 O   0  0  0  0  0  0  0  0  0  0  0  0
   13.2945  -16.0402   18.3876 C   0  0  0  0  0  0  0  0  0  0  0  0
   12.9221  -16.9529   19.5366 C   0  0  2  0  0  0  0  0  0  0  0  0
   11.9718  -17.9475   19.1400 N   0  0  0  0  0  0  0  0  0  0  0  0
   12.3659  -16.1730   20.6944 C   0  0  0  0  0  0  0  0  0  0  0  0
   13.1239  -15.3525   21.3134 O   0  0  0  0  0  0  0  0  0  0  0  0
    8.5845  -12.8076   17.6831 N   0  0  0  0  0  0  0  0  0  0  0  0
    8.0797  -13.1727   18.9524 C   0  0  0  0  0  0  0  0  0  0  0  0
    8.4963  -12.5522   20.0222 N   0  0  0  0  0  0  0  0  0  0  0  0
    7.1235  -14.1971   19.1531 N   0  0  0  0  0  0  0  0  0  0  0  0
    7.3359  -15.2444   20.1317 C   0  0  0  0  0  0  0  0  0  0  0  0
    8.8123  -15.4297   20.4596 C   0  0  0  0  0  0  0  0  0  0  0  0
    9.0373  -15.5092   21.9312 C   0  0  0  0  0  0  0  0  0  0  0  0
   10.4609  -15.8005   22.2630 C   0  0  2  0  0  0  0  0  0  0  0  0
   11.0147  -16.3984   21.0344 N   0  0  0  0  0  0  0  0  0  0  0  0
   10.7416  -16.6395   23.4120 C   0  0  0  0  0  0  0  0  0  0  0  0
   10.8930  -17.8958   23.2301 O   0  0  0  0  0  0  0  0  0  0  0  0
    8.2431  -12.8283   20.9824 O   0  0  0  0  0  0  0  0  0  0  0  0
    5.1855  -11.6925   27.4240 C   0  0  0  0  0  0  0  0  0  0  0  0
    6.1754  -12.3472   26.7037 C   0  0  0  0  0  0  0  0  0  0  0  0
    7.0092  -11.6689   25.8651 C   0  0  0  0  0  0  0  0  0  0  0  0
    7.9747  -12.3684   25.1740 C   0  0  0  0  0  0  0  0  0  0  0  0
    8.1354  -13.7295   25.2932 C   0  0  0  0  0  0  0  0  0  0  0  0
    9.1527  -14.4987   24.5595 C   0  0  2  0  0  0  0  0  0  0  0  0
    9.8330  -15.4828   25.4520 N   0  0  0  0  0  0  0  0  0  0  0  0
   10.8769  -16.2167   24.7412 C   0  0  0  0  0  0  0  0  0  0  0  0
    8.8914  -16.4553   25.9997 O   0  0  0  0  0  0  0  0  0  0  0  0
    8.0902  -16.1103   26.8941 C   0  0  0  0  0  0  0  0  0  0  0  0
    7.2730  -14.3920   26.1532 C   0  0  0  0  0  0  0  0  0  0  0  0
    6.3102  -13.7062   26.8449 O   0  0  0  0  0  0  0  0  0  0  0  0
  2  3  2  0
  2  1  1  0
  4  2  1  0
  5  4  1  0
  5  6  1  6
  7  5  1  0
  7  8  2  0
  9 10  1  0
 10 12  1  0
 11 10  2  0
 12 13  1  0
 13 14  1  0
 14 15  1  0
 16 17  1  0
 16 15  1  6
 17  7  1  0
 18 16  1  0
 19 18  2  0
 20 21  1  0
 21 22  2  0
 21 31  1  0
 22 23  1  0
 23 24  2  0
 24 25  1  0
 26 25  1  1
 26 27  1  0
 27 18  1  0
 28 26  1  0
 28 32  1  0
 29 28  2  0
 30 24  1  0
 31 30  2  0
M  END
$$$$
