NRY.pdb
     RDKit          3D

 32 32  0  0  1  0  0  0  0  0999 V2000
    8.3808  -11.8602   18.5282 N   0  0  0  0  0  0  0  0  0  0  0  0
    7.9262  -13.1908   18.3772 C   0  0  0  0  0  0  0  0  0  0  0  0
    7.9982  -13.7792   17.2796 O   0  0  0  0  0  0  0  0  0  0  0  0
    7.3535  -13.9029   19.5399 C   0  0  0  0  0  0  0  0  0  0  0  0
    8.4998  -14.5793   20.2614 C   0  0  2  0  0  0  0  0  0  0  0  0
    9.0843  -15.6214   19.4727 N   0  0  0  0  0  0  0  0  0  0  0  0
    8.0550  -15.1482   21.5792 C   0  0  0  0  0  0  0  0  0  0  0  0
    7.5136  -14.3752   22.4396 O   0  0  0  0  0  0  0  0  0  0  0  0
    6.4651  -23.8030   23.5016 N   0  0  0  0  0  0  0  0  0  0  0  0
    5.5062  -22.7853   23.7113 C   0  0  0  0  0  0  0  0  0  0  0  0
    4.2362  -23.0838   23.7441 N   0  0  0  0  0  0  0  0  0  0  0  0
    5.8353  -21.4206   23.8939 N   0  0  0  0  0  0  0  0  0  0  0  0
    7.1317  -20.9005   23.5087 C   0  0  0  0  0  0  0  0  0  0  0  0
    7.2916  -19.4314   23.8799 C   0  0  0  0  0  0  0  0  0  0  0  0
    7.7283  -18.6185   22.7090 C   0  0  0  0  0  0  0  0  0  0  0  0
    7.7682  -17.1623   23.0245 C   0  0  2  0  0  0  0  0  0  0  0  0
    8.2664  -16.5275   21.7907 N   0  0  0  0  0  0  0  0  0  0  0  0
    8.5415  -16.7279   24.1718 C   0  0  0  0  0  0  0  0  0  0  0  0
    9.8088  -16.6145   24.0482 O   0  0  0  0  0  0  0  0  0  0  0  0
    3.4876  -22.3948   23.9087 O   0  0  0  0  0  0  0  0  0  0  0  0
    5.4994  -10.7877   24.9641 C   0  0  0  0  0  0  0  0  0  0  0  0
    6.1763  -11.8268   25.5883 C   0  0  0  0  0  0  0  0  0  0  0  0
    7.5164  -11.7576   25.8289 C   0  0  0  0  0  0  0  0  0  0  0  0
    8.1384  -12.8178   26.4518 C   0  0  0  0  0  0  0  0  0  0  0  0
    7.4630  -13.9504   26.8440 C   0  0  0  0  0  0  0  0  0  0  0  0
    8.1069  -15.0978   27.5025 C   0  0  2  0  0  0  0  0  0  0  0  0
    8.8882  -15.9120   26.5254 N   0  0  0  0  0  0  0  0  0  0  0  0
    8.0422  -16.4013   25.4398 C   0  0  0  0  0  0  0  0  0  0  0  0
    9.5145  -17.0662   27.1640 O   0  0  0  0  0  0  0  0  0  0  0  0
    9.1775  -18.2217   26.8292 C   0  0  0  0  0  0  0  0  0  0  0  0
    6.1013  -13.9919   26.5863 C   0  0  0  0  0  0  0  0  0  0  0  0
    5.4735  -12.9434   25.9679 O   0  0  0  0  0  0  0  0  0  0  0  0
  2  3  2  0
  2  1  1  0
  4  2  1  0
  5  4  1  0
  5  6  1  6
  7  5  1  0
  7  8  2  0
  9 10  1  0
 10 12  1  0
 11 10  2  0
 12 13  1  0
 13 14  1  0
 14 15  1  0
 16 17  1  0
 16 15  1  6
 17  7  1  0
 18 16  1  0
 19 18  2  0
 20 21  1  0
 21 22  2  0
 21 31  1  0
 22 23  1  0
 23 24  2  0
 24 25  1  0
 26 25  1  6
 26 27  1  0
 27 18  1  0
 28 26  1  0
 28 32  1  0
 29 28  2  0
 30 24  1  0
 31 30  2  0
M  END
$$$$
