NRY.pdb
     RDKit          3D

 32 32  0  0  1  0  0  0  0  0999 V2000
    8.0923  -13.4822   16.2518 N   0  0  0  0  0  0  0  0  0  0  0  0
    7.7486  -14.0366   17.5066 C   0  0  0  0  0  0  0  0  0  0  0  0
    7.5651  -15.2627   17.6446 O   0  0  0  0  0  0  0  0  0  0  0  0
    7.6026  -13.1499   18.6812 C   0  0  0  0  0  0  0  0  0  0  0  0
    8.6075  -13.6077   19.7170 C   0  0  2  0  0  0  0  0  0  0  0  0
    9.6644  -14.3750   19.1306 N   0  0  0  0  0  0  0  0  0  0  0  0
    7.9476  -14.4200   20.7953 C   0  0  0  0  0  0  0  0  0  0  0  0
    7.0283  -13.8854   21.5025 O   0  0  0  0  0  0  0  0  0  0  0  0
    6.5929  -22.3213   22.6594 N   0  0  0  0  0  0  0  0  0  0  0  0
    5.9696  -21.6234   23.7195 C   0  0  0  0  0  0  0  0  0  0  0  0
    5.6726  -22.2491   24.8255 N   0  0  0  0  0  0  0  0  0  0  0  0
    5.6330  -20.2495   23.6655 N   0  0  0  0  0  0  0  0  0  0  0  0
    6.0347  -19.4190   22.5482 C   0  0  0  0  0  0  0  0  0  0  0  0
    7.4475  -18.8745   22.7194 C   0  0  0  0  0  0  0  0  0  0  0  0
    7.7986  -17.9195   21.6299 C   0  0  0  0  0  0  0  0  0  0  0  0
    7.9442  -16.5250   22.1357 C   0  0  2  0  0  0  0  0  0  0  0  0
    8.3915  -15.7490   20.9648 N   0  0  0  0  0  0  0  0  0  0  0  0
    8.8190  -16.2921   23.2687 C   0  0  0  0  0  0  0  0  0  0  0  0
   10.0287  -15.9437   23.0463 O   0  0  0  0  0  0  0  0  0  0  0  0
    5.2335  -21.7977   25.6415 O   0  0  0  0  0  0  0  0  0  0  0  0
    5.5394  -11.1734   25.9707 C   0  0  0  0  0  0  0  0  0  0  0  0
    6.6286  -12.0278   25.8648 C   0  0  0  0  0  0  0  0  0  0  0  0
    7.5227  -11.9147   24.8419 C   0  0  0  0  0  0  0  0  0  0  0  0
    8.5861  -12.7892   24.7850 C   0  0  0  0  0  0  0  0  0  0  0  0
    8.7867  -13.7781   25.7202 C   0  0  0  0  0  0  0  0  0  0  0  0
    9.9091  -14.7284   25.6753 C   0  0  1  0  0  0  0  0  0  0  0  0
    9.4232  -16.1394   25.7053 N   0  0  0  0  0  0  0  0  0  0  0  0
    8.4776  -16.4022   24.6234 C   0  0  0  0  0  0  0  0  0  0  0  0
    8.7622  -16.4557   26.9683 O   0  0  0  0  0  0  0  0  0  0  0  0
    7.5536  -16.7721   26.9761 C   0  0  0  0  0  0  0  0  0  0  0  0
    7.8613  -13.8686   26.7485 C   0  0  0  0  0  0  0  0  0  0  0  0
    6.8010  -13.0042   26.8145 O   0  0  0  0  0  0  0  0  0  0  0  0
  2  3  2  0
  2  1  1  0
  4  2  1  0
  5  4  1  0
  5  6  1  6
  7  5  1  0
  7  8  2  0
  9 10  1  0
 10 12  1  0
 11 10  2  0
 12 13  1  0
 13 14  1  0
 14 15  1  0
 16 17  1  0
 16 15  1  6
 17  7  1  0
 18 16  1  0
 19 18  2  0
 20 21  1  0
 21 22  2  0
 21 31  1  0
 22 23  1  0
 23 24  2  0
 24 25  1  0
 26 25  1  6
 26 27  1  0
 27 18  1  0
 28 26  1  0
 28 32  1  0
 29 28  2  0
 30 24  1  0
 31 30  2  0
M  END
$$$$
