NRY.pdb
     RDKit          3D

 32 32  0  0  1  0  0  0  0  0999 V2000
    6.0935  -22.1208   25.6902 N   0  0  0  0  0  0  0  0  0  0  0  0
    5.7966  -21.0962   24.7618 C   0  0  0  0  0  0  0  0  0  0  0  0
    4.7580  -21.1286   24.0715 O   0  0  0  0  0  0  0  0  0  0  0  0
    6.7322  -19.9620   24.6022 C   0  0  0  0  0  0  0  0  0  0  0  0
    6.9907  -19.7983   23.1195 C   0  0  2  0  0  0  0  0  0  0  0  0
    7.6023  -20.9627   22.5541 N   0  0  0  0  0  0  0  0  0  0  0  0
    7.8590  -18.6028   22.8460 C   0  0  0  0  0  0  0  0  0  0  0  0
    9.1288  -18.7361   22.8761 O   0  0  0  0  0  0  0  0  0  0  0  0
    7.4221  -12.4299   17.3561 N   0  0  0  0  0  0  0  0  0  0  0  0
    8.0507  -13.6231   17.7809 C   0  0  0  0  0  0  0  0  0  0  0  0
    8.5069  -14.4689   16.8979 N   0  0  0  0  0  0  0  0  0  0  0  0
    8.2263  -13.9783   19.1399 N   0  0  0  0  0  0  0  0  0  0  0  0
    7.5586  -13.2514   20.2007 C   0  0  0  0  0  0  0  0  0  0  0  0
    7.8251  -13.8647   21.5697 C   0  0  0  0  0  0  0  0  0  0  0  0
    7.1785  -15.2013   21.7028 C   0  0  0  0  0  0  0  0  0  0  0  0
    7.9814  -16.1278   22.5504 C   0  0  2  0  0  0  0  0  0  0  0  0
    7.2072  -17.3823   22.5674 N   0  0  0  0  0  0  0  0  0  0  0  0
    8.3129  -15.7126   23.8998 C   0  0  0  0  0  0  0  0  0  0  0  0
    7.9411  -14.5544   24.2925 O   0  0  0  0  0  0  0  0  0  0  0  0
    8.9946  -15.3444   17.1387 O   0  0  0  0  0  0  0  0  0  0  0  0
    6.4859  -10.3181   26.2820 C   0  0  0  0  0  0  0  0  0  0  0  0
    6.7993  -11.6623   26.4318 C   0  0  0  0  0  0  0  0  0  0  0  0
    5.8337  -12.6242   26.3993 C   0  0  0  0  0  0  0  0  0  0  0  0
    6.2003  -13.9436   26.5532 C   0  0  0  0  0  0  0  0  0  0  0  0
    7.5057  -14.3360   26.7399 C   0  0  0  0  0  0  0  0  0  0  0  0
    7.9198  -15.7368   26.9151 C   0  0  2  0  0  0  0  0  0  0  0  0
    9.2174  -16.0060   26.2281 N   0  0  0  0  0  0  0  0  0  0  0  0
    9.0112  -16.4623   24.8560 C   0  0  0  0  0  0  0  0  0  0  0  0
    9.9981  -17.0220   26.9286 O   0  0  0  0  0  0  0  0  0  0  0  0
   10.3226  -16.8444   28.1219 C   0  0  0  0  0  0  0  0  0  0  0  0
    8.4653  -13.3357   26.7684 C   0  0  0  0  0  0  0  0  0  0  0  0
    8.1116  -12.0213   26.6162 O   0  0  0  0  0  0  0  0  0  0  0  0
  2  3  2  0
  2  1  1  0
  4  2  1  0
  5  4  1  0
  5  6  1  1
  7  5  1  0
  7  8  2  0
  9 10  1  0
 10 12  1  0
 11 10  2  0
 12 13  1  0
 13 14  1  0
 14 15  1  0
 16 17  1  0
 16 15  1  1
 17  7  1  0
 18 16  1  0
 19 18  2  0
 20 21  1  0
 21 22  2  0
 21 31  1  0
 22 23  1  0
 23 24  2  0
 24 25  1  0
 26 25  1  6
 26 27  1  0
 27 18  1  0
 28 26  1  0
 28 32  1  0
 29 28  2  0
 30 24  1  0
 31 30  2  0
M  END
$$$$
