NRY.pdb
     RDKit          3D

 32 32  0  0  1  0  0  0  0  0999 V2000
   16.1143  -18.1570   18.3178 N   0  0  0  0  0  0  0  0  0  0  0  0
   15.4264  -16.9263   18.2075 C   0  0  0  0  0  0  0  0  0  0  0  0
   16.0359  -15.8616   17.9813 O   0  0  0  0  0  0  0  0  0  0  0  0
   13.9560  -16.8955   18.3623 C   0  0  0  0  0  0  0  0  0  0  0  0
   13.6188  -17.6901   19.6061 C   0  0  2  0  0  0  0  0  0  0  0  0
   12.9928  -18.9376   19.2874 N   0  0  0  0  0  0  0  0  0  0  0  0
   12.7230  -16.9093   20.5259 C   0  0  0  0  0  0  0  0  0  0  0  0
   13.1748  -15.8550   21.0875 O   0  0  0  0  0  0  0  0  0  0  0  0
    6.7807  -12.1718   18.1701 N   0  0  0  0  0  0  0  0  0  0  0  0
    7.6244  -13.2866   18.3815 C   0  0  0  0  0  0  0  0  0  0  0  0
    8.5754  -13.5546   17.5289 N   0  0  0  0  0  0  0  0  0  0  0  0
    7.5078  -14.1621   19.4877 N   0  0  0  0  0  0  0  0  0  0  0  0
    8.4379  -15.2557   19.6840 C   0  0  0  0  0  0  0  0  0  0  0  0
    8.1508  -16.0274   20.9660 C   0  0  0  0  0  0  0  0  0  0  0  0
    9.1226  -17.1411   21.1603 C   0  0  0  0  0  0  0  0  0  0  0  0
   10.4686  -16.6432   21.5627 C   0  0  2  0  0  0  0  0  0  0  0  0
   11.4124  -17.3969   20.7174 N   0  0  0  0  0  0  0  0  0  0  0  0
   10.8468  -16.7352   22.9597 C   0  0  0  0  0  0  0  0  0  0  0  0
   11.2673  -17.8563   23.4073 O   0  0  0  0  0  0  0  0  0  0  0  0
    9.2156  -14.3577   17.6153 O   0  0  0  0  0  0  0  0  0  0  0  0
   10.9712  -15.5850   31.6838 C   0  0  0  0  0  0  0  0  0  0  0  0
   10.9534  -15.3756   30.3114 C   0  0  0  0  0  0  0  0  0  0  0  0
   12.0633  -15.5829   29.5473 C   0  0  0  0  0  0  0  0  0  0  0  0
   11.9902  -15.3596   28.1895 C   0  0  0  0  0  0  0  0  0  0  0  0
   10.8398  -14.9337   27.5666 C   0  0  0  0  0  0  0  0  0  0  0  0
   10.7402  -14.6805   26.1207 C   0  0  1  0  0  0  0  0  0  0  0  0
   10.9926  -15.9250   25.3362 N   0  0  0  0  0  0  0  0  0  0  0  0
   10.8092  -15.7009   23.9045 C   0  0  0  0  0  0  0  0  0  0  0  0
   10.1005  -17.0080   25.7408 O   0  0  0  0  0  0  0  0  0  0  0  0
   10.5269  -17.9234   26.4763 C   0  0  0  0  0  0  0  0  0  0  0  0
    9.7276  -14.7316   28.3694 C   0  0  0  0  0  0  0  0  0  0  0  0
    9.7895  -14.9509   29.7199 O   0  0  0  0  0  0  0  0  0  0  0  0
  2  3  2  0
  2  1  1  0
  4  2  1  0
  5  4  1  0
  5  6  1  6
  7  5  1  0
  7  8  2  0
  9 10  1  0
 10 12  1  0
 11 10  2  0
 12 13  1  0
 13 14  1  0
 14 15  1  0
 16 17  1  0
 16 15  1  1
 17  7  1  0
 18 16  1  0
 19 18  2  0
 20 21  1  0
 21 22  2  0
 21 31  1  0
 22 23  1  0
 23 24  2  0
 24 25  1  0
 26 25  1  6
 26 27  1  0
 27 18  1  0
 28 26  1  0
 28 32  1  0
 29 28  2  0
 30 24  1  0
 31 30  2  0
M  END
$$$$
