NRY.pdb
     RDKit          3D

 32 32  0  0  1  0  0  0  0  0999 V2000
    5.7795  -20.8270   19.5008 N   0  0  0  0  0  0  0  0  0  0  0  0
    7.1547  -20.6122   19.7514 C   0  0  0  0  0  0  0  0  0  0  0  0
    7.9146  -21.5565   20.0460 O   0  0  0  0  0  0  0  0  0  0  0  0
    7.7076  -19.2433   19.6638 C   0  0  0  0  0  0  0  0  0  0  0  0
    8.7305  -19.1005   20.7707 C   0  0  2  0  0  0  0  0  0  0  0  0
    8.1673  -19.3847   22.0559 N   0  0  0  0  0  0  0  0  0  0  0  0
    9.3271  -17.7215   20.7875 C   0  0  0  0  0  0  0  0  0  0  0  0
   10.5250  -17.5568   20.3765 O   0  0  0  0  0  0  0  0  0  0  0  0
    7.3764  -12.3452   17.0792 N   0  0  0  0  0  0  0  0  0  0  0  0
    7.8452  -13.5671   16.5439 C   0  0  0  0  0  0  0  0  0  0  0  0
    8.1732  -13.6424   15.2830 N   0  0  0  0  0  0  0  0  0  0  0  0
    7.9887  -14.7539   17.3020 N   0  0  0  0  0  0  0  0  0  0  0  0
    8.4599  -14.7202   18.6718 C   0  0  0  0  0  0  0  0  0  0  0  0
    7.3210  -14.5175   19.6635 C   0  0  0  0  0  0  0  0  0  0  0  0
    7.8261  -14.4377   21.0638 C   0  0  0  0  0  0  0  0  0  0  0  0
    9.0299  -15.2915   21.2722 C   0  0  2  0  0  0  0  0  0  0  0  0
    8.5129  -16.6721   21.2651 N   0  0  0  0  0  0  0  0  0  0  0  0
    9.8449  -15.0562   22.4485 C   0  0  0  0  0  0  0  0  0  0  0  0
   10.0681  -13.8496   22.8069 O   0  0  0  0  0  0  0  0  0  0  0  0
    8.5613  -14.4879   14.8394 O   0  0  0  0  0  0  0  0  0  0  0  0
   10.5756  -15.2653   30.9880 C   0  0  0  0  0  0  0  0  0  0  0  0
   10.3164  -15.2725   29.6241 C   0  0  0  0  0  0  0  0  0  0  0  0
   10.2501  -14.1142   28.9081 C   0  0  0  0  0  0  0  0  0  0  0  0
    9.9898  -14.1789   27.5564 C   0  0  0  0  0  0  0  0  0  0  0  0
    9.7922  -15.3679   26.8931 C   0  0  0  0  0  0  0  0  0  0  0  0
    9.5045  -15.4612   25.4532 C   0  0  1  0  0  0  0  0  0  0  0  0
   10.7329  -15.8066   24.6787 N   0  0  0  0  0  0  0  0  0  0  0  0
   10.4296  -16.0314   23.2676 C   0  0  0  0  0  0  0  0  0  0  0  0
   11.3780  -17.0091   25.1983 O   0  0  0  0  0  0  0  0  0  0  0  0
   11.0903  -18.1263   24.7187 C   0  0  0  0  0  0  0  0  0  0  0  0
    9.8658  -16.5289   27.6473 C   0  0  0  0  0  0  0  0  0  0  0  0
   10.1242  -16.4756   28.9913 O   0  0  0  0  0  0  0  0  0  0  0  0
  2  3  2  0
  2  1  1  0
  4  2  1  0
  5  4  1  0
  5  6  1  1
  7  5  1  0
  7  8  2  0
  9 10  1  0
 10 12  1  0
 11 10  2  0
 12 13  1  0
 13 14  1  0
 14 15  1  0
 16 17  1  0
 16 15  1  1
 17  7  1  0
 18 16  1  0
 19 18  2  0
 20 21  1  0
 21 22  2  0
 21 31  1  0
 22 23  1  0
 23 24  2  0
 24 25  1  0
 26 25  1  6
 26 27  1  0
 27 18  1  0
 28 26  1  0
 28 32  1  0
 29 28  2  0
 30 24  1  0
 31 30  2  0
M  END
$$$$
