KKE.pdb
     RDKit          3D

 28 27  0  0  1  0  0  0  0  0999 V2000
   12.4765  -18.1434   16.0647 N   0  0  0  0  0  0  0  0  0  0  0  0
   12.7439  -18.8451   17.2950 C   0  0  1  0  0  0  0  0  0  0  0  0
   14.1855  -19.1056   17.5549 C   0  0  0  0  0  0  0  0  0  0  0  0
   14.8698  -19.7196   16.3909 C   0  0  0  0  0  0  0  0  0  0  0  0
   16.2955  -20.0999   16.5718 C   0  0  0  0  0  0  0  0  0  0  0  0
   16.9178  -20.7086   15.3378 C   0  0  0  0  0  0  0  0  0  0  0  0
   18.2516  -21.1870   15.6416 N   0  0  0  0  0  0  0  0  0  0  0  0
   12.0853  -18.1529   18.4589 C   0  0  0  0  0  0  0  0  0  0  0  0
   12.5106  -17.0429   18.8661 O   0  0  0  0  0  0  0  0  0  0  0  0
   10.9848  -18.7381   19.1085 N   0  0  0  0  0  0  0  0  0  0  0  0
   10.2787  -18.1765   20.2417 C   0  0  1  0  0  0  0  0  0  0  0  0
    9.0140  -18.9619   20.4229 C   0  0  0  0  0  0  0  0  0  0  0  0
    8.0901  -18.7163   19.2738 C   0  0  0  0  0  0  0  0  0  0  0  0
    6.8749  -19.5781   19.3838 C   0  0  0  0  0  0  0  0  0  0  0  0
    5.9718  -19.4286   18.1867 C   0  0  0  0  0  0  0  0  0  0  0  0
    4.7702  -20.2262   18.3023 N   0  0  0  0  0  0  0  0  0  0  0  0
   11.1158  -18.4101   21.4636 C   0  0  0  0  0  0  0  0  0  0  0  0
   12.0614  -19.2192   21.3864 O   0  0  0  0  0  0  0  0  0  0  0  0
   10.7799  -17.6933   22.6385 N   0  0  0  0  0  0  0  0  0  0  0  0
   11.8712  -17.4224   23.5916 C   0  0  1  0  0  0  0  0  0  0  0  0
   12.9654  -16.8112   22.8053 C   0  0  0  0  0  0  0  0  0  0  0  0
   14.3172  -17.4213   22.9806 C   0  0  0  0  0  0  0  0  0  0  0  0
   15.3077  -16.6916   22.1658 C   0  0  0  0  0  0  0  0  0  0  0  0
   15.5530  -15.4763   22.4333 O   0  0  0  0  0  0  0  0  0  0  0  0
   11.3607  -16.7972   24.7808 C   0  0  0  0  0  0  0  0  0  0  0  0
   10.2167  -16.2487   24.7506 O   0  0  0  0  0  0  0  0  0  0  0  0
   16.0064  -17.2468   21.1054 O   0  0  0  0  0  0  0  0  0  0  0  0
   11.9993  -16.7260   26.0213 O   0  0  0  0  0  0  0  0  0  0  0  0
  2  1  1  6
  3  4  1  0
  3  2  1  0
  4  5  1  0
  6  5  1  0
  7  6  1  0
  8  2  1  0
  8  9  2  0
 10  8  1  0
 11 10  1  0
 11 12  1  1
 13 12  1  0
 14 13  1  0
 15 14  1  0
 16 15  1  0
 17 11  1  0
 18 17  2  0
 19 17  1  0
 20 21  1  6
 20 19  1  0
 22 21  1  0
 23 22  1  0
 23 24  2  0
 25 20  1  0
 26 25  2  0
 27 23  1  0
 28 25  1  0
M  END
$$$$
