KKE.pdb
     RDKit          3D

 28 27  0  0  1  0  0  0  0  0999 V2000
    6.1162  -19.7534   20.6547 N   0  0  0  0  0  0  0  0  0  0  0  0
    6.3360  -18.8935   21.7905 C   0  0  1  0  0  0  0  0  0  0  0  0
    6.4289  -19.6057   23.0935 C   0  0  0  0  0  0  0  0  0  0  0  0
    5.1142  -20.1110   23.5587 C   0  0  0  0  0  0  0  0  0  0  0  0
    4.7722  -21.5158   23.2129 C   0  0  0  0  0  0  0  0  0  0  0  0
    3.4296  -21.9572   23.7446 C   0  0  0  0  0  0  0  0  0  0  0  0
    3.2378  -23.3710   23.4903 N   0  0  0  0  0  0  0  0  0  0  0  0
    7.5243  -17.9978   21.5604 C   0  0  0  0  0  0  0  0  0  0  0  0
    8.5870  -18.4585   21.0732 O   0  0  0  0  0  0  0  0  0  0  0  0
    7.4636  -16.6322   21.8878 N   0  0  0  0  0  0  0  0  0  0  0  0
    8.5116  -15.6611   21.6495 C   0  0  1  0  0  0  0  0  0  0  0  0
    7.8566  -14.3272   21.4472 C   0  0  0  0  0  0  0  0  0  0  0  0
    7.1154  -14.3127   20.1492 C   0  0  0  0  0  0  0  0  0  0  0  0
    7.8654  -13.5251   19.1253 C   0  0  0  0  0  0  0  0  0  0  0  0
    7.1361  -13.4817   17.8071 C   0  0  0  0  0  0  0  0  0  0  0  0
    7.8652  -12.7413   16.8004 N   0  0  0  0  0  0  0  0  0  0  0  0
    9.3328  -15.5583   22.8999 C   0  0  0  0  0  0  0  0  0  0  0  0
    8.7443  -15.5974   23.9984 O   0  0  0  0  0  0  0  0  0  0  0  0
   10.7357  -15.4225   22.7566 N   0  0  0  0  0  0  0  0  0  0  0  0
   11.5735  -15.9470   23.8501 C   0  0  1  0  0  0  0  0  0  0  0  0
   11.0942  -17.3213   24.1161 C   0  0  0  0  0  0  0  0  0  0  0  0
   11.8903  -18.1131   25.1008 C   0  0  0  0  0  0  0  0  0  0  0  0
   11.3476  -19.4815   25.2019 C   0  0  0  0  0  0  0  0  0  0  0  0
   11.6512  -20.1941   26.2063 O   0  0  0  0  0  0  0  0  0  0  0  0
   12.9616  -15.6705   23.6011 C   0  0  0  0  0  0  0  0  0  0  0  0
   13.3348  -15.3825   22.4229 O   0  0  0  0  0  0  0  0  0  0  0  0
   10.5117  -20.0606   24.2602 O   0  0  0  0  0  0  0  0  0  0  0  0
   13.9915  -15.6736   24.5452 O   0  0  0  0  0  0  0  0  0  0  0  0
  2  1  1  6
  3  4  1  0
  3  2  1  0
  4  5  1  0
  6  5  1  0
  7  6  1  0
  8  2  1  0
  8  9  2  0
 10  8  1  0
 11 10  1  0
 11 12  1  1
 13 12  1  0
 14 13  1  0
 15 14  1  0
 16 15  1  0
 17 11  1  0
 18 17  2  0
 19 17  1  0
 20 21  1  6
 20 19  1  0
 22 21  1  0
 23 22  1  0
 23 24  2  0
 25 20  1  0
 26 25  2  0
 27 23  1  0
 28 25  1  0
M  END
$$$$
