KKE.pdb
     RDKit          3D

 28 27  0  0  1  0  0  0  0  0999 V2000
    7.2104  -15.5615   19.6981 N   0  0  0  0  0  0  0  0  0  0  0  0
    8.4979  -14.9156   19.6467 C   0  0  1  0  0  0  0  0  0  0  0  0
    8.5641  -13.7458   18.7297 C   0  0  0  0  0  0  0  0  0  0  0  0
    7.7965  -13.9613   17.4789 C   0  0  0  0  0  0  0  0  0  0  0  0
    8.5117  -13.7149   16.1992 C   0  0  0  0  0  0  0  0  0  0  0  0
    7.6208  -13.8085   14.9835 C   0  0  0  0  0  0  0  0  0  0  0  0
    8.3928  -13.5524   13.7841 N   0  0  0  0  0  0  0  0  0  0  0  0
    8.9754  -14.5647   21.0309 C   0  0  0  0  0  0  0  0  0  0  0  0
   10.1470  -14.1503   21.2168 O   0  0  0  0  0  0  0  0  0  0  0  0
    8.1182  -14.6958   22.1371 N   0  0  0  0  0  0  0  0  0  0  0  0
    8.4749  -14.4314   23.5158 C   0  0  1  0  0  0  0  0  0  0  0  0
    7.2028  -14.2151   24.2801 C   0  0  0  0  0  0  0  0  0  0  0  0
    7.4761  -13.4146   25.5125 C   0  0  0  0  0  0  0  0  0  0  0  0
    6.1976  -13.0246   26.1793 C   0  0  0  0  0  0  0  0  0  0  0  0
    6.4401  -12.1982   27.4160 C   0  0  0  0  0  0  0  0  0  0  0  0
    5.2079  -11.7456   28.0244 N   0  0  0  0  0  0  0  0  0  0  0  0
    9.1107  -15.6714   24.0696 C   0  0  0  0  0  0  0  0  0  0  0  0
    8.5466  -16.7651   23.8687 O   0  0  0  0  0  0  0  0  0  0  0  0
   10.3208  -15.5244   24.7914 N   0  0  0  0  0  0  0  0  0  0  0  0
   11.0590  -16.7579   25.1175 C   0  0  1  0  0  0  0  0  0  0  0  0
   12.4341  -16.5648   24.6066 C   0  0  0  0  0  0  0  0  0  0  0  0
   13.4057  -17.6568   24.9130 C   0  0  0  0  0  0  0  0  0  0  0  0
   14.7486  -17.2861   24.4268 C   0  0  0  0  0  0  0  0  0  0  0  0
   15.6471  -18.1782   24.3530 O   0  0  0  0  0  0  0  0  0  0  0  0
   10.8111  -17.1512   26.4774 C   0  0  0  0  0  0  0  0  0  0  0  0
   10.2546  -16.3299   27.2687 O   0  0  0  0  0  0  0  0  0  0  0  0
   15.1109  -16.0068   24.0358 O   0  0  0  0  0  0  0  0  0  0  0  0
   11.1164  -18.3870   27.0534 O   0  0  0  0  0  0  0  0  0  0  0  0
  2  1  1  1
  3  4  1  0
  3  2  1  0
  4  5  1  0
  6  5  1  0
  7  6  1  0
  8  2  1  0
  8  9  2  0
 10  8  1  0
 11 10  1  0
 11 12  1  1
 13 12  1  0
 14 13  1  0
 15 14  1  0
 16 15  1  0
 17 11  1  0
 18 17  2  0
 19 17  1  0
 20 21  1  1
 20 19  1  0
 22 21  1  0
 23 22  1  0
 23 24  2  0
 25 20  1  0
 26 25  2  0
 27 23  1  0
 28 25  1  0
M  END
$$$$
