KKE.pdb
     RDKit          3D

 28 27  0  0  1  0  0  0  0  0999 V2000
    6.8157  -17.2759   19.8285 N   0  0  0  0  0  0  0  0  0  0  0  0
    8.2045  -16.9831   19.5773 C   0  0  1  0  0  0  0  0  0  0  0  0
    8.4696  -16.3333   18.2654 C   0  0  0  0  0  0  0  0  0  0  0  0
    7.5442  -16.7997   17.2041 C   0  0  0  0  0  0  0  0  0  0  0  0
    8.1511  -17.4997   16.0415 C   0  0  0  0  0  0  0  0  0  0  0  0
    7.1546  -17.8512   14.9628 C   0  0  0  0  0  0  0  0  0  0  0  0
    7.8495  -18.3353   13.7867 N   0  0  0  0  0  0  0  0  0  0  0  0
    8.7998  -16.1989   20.7166 C   0  0  0  0  0  0  0  0  0  0  0  0
   10.0233  -15.9125   20.7247 O   0  0  0  0  0  0  0  0  0  0  0  0
    7.9962  -15.7753   21.7892 N   0  0  0  0  0  0  0  0  0  0  0  0
    8.4425  -14.9777   22.9129 C   0  0  1  0  0  0  0  0  0  0  0  0
    7.2230  -14.5107   23.6505 C   0  0  0  0  0  0  0  0  0  0  0  0
    7.6187  -13.6032   24.7704 C   0  0  0  0  0  0  0  0  0  0  0  0
    6.4090  -13.0410   25.4427 C   0  0  0  0  0  0  0  0  0  0  0  0
    6.7743  -12.0317   26.5007 C   0  0  0  0  0  0  0  0  0  0  0  0
    5.6091  -11.4644   27.1440 N   0  0  0  0  0  0  0  0  0  0  0  0
    9.1961  -15.8799   23.8437 C   0  0  0  0  0  0  0  0  0  0  0  0
    8.6613  -16.9518   24.1897 O   0  0  0  0  0  0  0  0  0  0  0  0
   10.4775  -15.4576   24.2760 N   0  0  0  0  0  0  0  0  0  0  0  0
   11.3666  -16.4893   24.8397 C   0  0  1  0  0  0  0  0  0  0  0  0
   12.6639  -16.3432   24.1433 C   0  0  0  0  0  0  0  0  0  0  0  0
   13.7682  -17.2260   24.6245 C   0  0  0  0  0  0  0  0  0  0  0  0
   14.9802  -17.0030   23.8128 C   0  0  0  0  0  0  0  0  0  0  0  0
   15.1651  -15.8681   23.2774 O   0  0  0  0  0  0  0  0  0  0  0  0
   11.2813  -16.5016   26.2743 C   0  0  0  0  0  0  0  0  0  0  0  0
   10.8143  -15.4868   26.8764 O   0  0  0  0  0  0  0  0  0  0  0  0
   15.9544  -17.9623   23.5859 O   0  0  0  0  0  0  0  0  0  0  0  0
   11.6607  -17.5471   27.1199 O   0  0  0  0  0  0  0  0  0  0  0  0
  2  1  1  1
  3  4  1  0
  3  2  1  0
  4  5  1  0
  6  5  1  0
  7  6  1  0
  8  2  1  0
  8  9  2  0
 10  8  1  0
 11 10  1  0
 11 12  1  1
 13 12  1  0
 14 13  1  0
 15 14  1  0
 16 15  1  0
 17 11  1  0
 18 17  2  0
 19 17  1  0
 20 21  1  1
 20 19  1  0
 22 21  1  0
 23 22  1  0
 23 24  2  0
 25 20  1  0
 26 25  2  0
 27 23  1  0
 28 25  1  0
M  END
$$$$
