KKE.pdb
     RDKit          3D

 28 27  0  0  1  0  0  0  0  0999 V2000
    8.8354  -19.7248   17.7152 N   0  0  0  0  0  0  0  0  0  0  0  0
   10.0865  -20.3133   18.1225 C   0  0  1  0  0  0  0  0  0  0  0  0
   11.2443  -19.9593   17.2579 C   0  0  0  0  0  0  0  0  0  0  0  0
   11.0096  -20.2914   15.8315 C   0  0  0  0  0  0  0  0  0  0  0  0
   12.1070  -19.9797   14.8783 C   0  0  0  0  0  0  0  0  0  0  0  0
   11.8200  -20.4228   13.4635 C   0  0  0  0  0  0  0  0  0  0  0  0
   12.9567  -20.1299   12.6136 N   0  0  0  0  0  0  0  0  0  0  0  0
   10.3664  -20.0228   19.5732 C   0  0  0  0  0  0  0  0  0  0  0  0
   10.7936  -18.8956   19.9283 O   0  0  0  0  0  0  0  0  0  0  0  0
   10.1550  -21.0081   20.5530 N   0  0  0  0  0  0  0  0  0  0  0  0
   10.4911  -20.8867   21.9567 C   0  0  1  0  0  0  0  0  0  0  0  0
    9.8258  -22.0184   22.6820 C   0  0  0  0  0  0  0  0  0  0  0  0
   10.1720  -21.9685   24.1353 C   0  0  0  0  0  0  0  0  0  0  0  0
    9.5761  -23.1327   24.8570 C   0  0  0  0  0  0  0  0  0  0  0  0
    9.9854  -23.1620   26.3072 C   0  0  0  0  0  0  0  0  0  0  0  0
    9.5247  -24.3550   26.9838 N   0  0  0  0  0  0  0  0  0  0  0  0
   11.9703  -21.0916   22.0922 C   0  0  0  0  0  0  0  0  0  0  0  0
   12.5900  -21.5812   21.1274 O   0  0  0  0  0  0  0  0  0  0  0  0
   12.5777  -20.7143   23.3152 N   0  0  0  0  0  0  0  0  0  0  0  0
   14.0511  -20.6955   23.3522 C   0  0  1  0  0  0  0  0  0  0  0  0
   14.4836  -19.8677   22.2047 C   0  0  0  0  0  0  0  0  0  0  0  0
   15.9532  -19.6298   22.0861 C   0  0  0  0  0  0  0  0  0  0  0  0
   16.2344  -18.8039   20.8961 C   0  0  0  0  0  0  0  0  0  0  0  0
   16.7411  -19.3510   19.8700 O   0  0  0  0  0  0  0  0  0  0  0  0
   14.5204  -20.4352   24.6855 C   0  0  0  0  0  0  0  0  0  0  0  0
   15.6741  -20.8389   25.0266 O   0  0  0  0  0  0  0  0  0  0  0  0
   15.9811  -17.4439   20.8129 O   0  0  0  0  0  0  0  0  0  0  0  0
   13.8297  -19.7539   25.6908 O   0  0  0  0  0  0  0  0  0  0  0  0
  2  1  1  6
  3  4  1  0
  3  2  1  0
  4  5  1  0
  6  5  1  0
  7  6  1  0
  8  2  1  0
  8  9  2  0
 10  8  1  0
 11 10  1  0
 11 12  1  1
 13 12  1  0
 14 13  1  0
 15 14  1  0
 16 15  1  0
 17 11  1  0
 18 17  2  0
 19 17  1  0
 20 21  1  6
 20 19  1  0
 22 21  1  0
 23 22  1  0
 23 24  2  0
 25 20  1  0
 26 25  2  0
 27 23  1  0
 28 25  1  0
M  END
$$$$
