KKE.pdb
     RDKit          3D

 28 27  0  0  1  0  0  0  0  0999 V2000
    7.6966  -16.5436   20.1534 N   0  0  0  0  0  0  0  0  0  0  0  0
    9.0659  -16.0935   20.1550 C   0  0  1  0  0  0  0  0  0  0  0  0
    9.4425  -15.2624   18.9799 C   0  0  0  0  0  0  0  0  0  0  0  0
    8.3652  -15.1973   17.9624 C   0  0  0  0  0  0  0  0  0  0  0  0
    8.2281  -13.9240   17.2074 C   0  0  0  0  0  0  0  0  0  0  0  0
    7.1660  -13.9709   16.1350 C   0  0  0  0  0  0  0  0  0  0  0  0
    6.9115  -12.6355   15.6327 N   0  0  0  0  0  0  0  0  0  0  0  0
    9.4011  -15.4066   21.4523 C   0  0  0  0  0  0  0  0  0  0  0  0
   10.5265  -14.8736   21.6210 O   0  0  0  0  0  0  0  0  0  0  0  0
    8.4605  -15.3513   22.4953 N   0  0  0  0  0  0  0  0  0  0  0  0
    8.6913  -14.7869   23.8092 C   0  0  1  0  0  0  0  0  0  0  0  0
    7.4136  -14.1413   24.2564 C   0  0  0  0  0  0  0  0  0  0  0  0
    7.5748  -13.5897   25.6363 C   0  0  0  0  0  0  0  0  0  0  0  0
    6.4909  -12.6072   25.9387 C   0  0  0  0  0  0  0  0  0  0  0  0
    6.5742  -12.0996   27.3553 C   0  0  0  0  0  0  0  0  0  0  0  0
    5.5065  -11.1757   27.6711 N   0  0  0  0  0  0  0  0  0  0  0  0
    8.9606  -15.9205   24.7531 C   0  0  0  0  0  0  0  0  0  0  0  0
    8.0950  -16.8103   24.8704 O   0  0  0  0  0  0  0  0  0  0  0  0
   10.1893  -15.9121   25.4583 N   0  0  0  0  0  0  0  0  0  0  0  0
   10.5400  -17.1334   26.2053 C   0  0  1  0  0  0  0  0  0  0  0  0
   11.7553  -17.6783   25.5608 C   0  0  0  0  0  0  0  0  0  0  0  0
   12.3479  -18.8908   26.2004 C   0  0  0  0  0  0  0  0  0  0  0  0
   13.5523  -19.3123   25.4594 C   0  0  0  0  0  0  0  0  0  0  0  0
   14.1083  -20.4123   25.7586 O   0  0  0  0  0  0  0  0  0  0  0  0
   10.4836  -16.8941   27.6213 C   0  0  0  0  0  0  0  0  0  0  0  0
   10.4243  -15.6998   28.0463 O   0  0  0  0  0  0  0  0  0  0  0  0
   14.1356  -18.5799   24.4376 O   0  0  0  0  0  0  0  0  0  0  0  0
   10.4780  -17.8630   28.6278 O   0  0  0  0  0  0  0  0  0  0  0  0
  2  1  1  1
  3  4  1  0
  3  2  1  0
  4  5  1  0
  6  5  1  0
  7  6  1  0
  8  2  1  0
  8  9  2  0
 10  8  1  0
 11 10  1  0
 11 12  1  1
 13 12  1  0
 14 13  1  0
 15 14  1  0
 16 15  1  0
 17 11  1  0
 18 17  2  0
 19 17  1  0
 20 21  1  6
 20 19  1  0
 22 21  1  0
 23 22  1  0
 23 24  2  0
 25 20  1  0
 26 25  2  0
 27 23  1  0
 28 25  1  0
M  END
$$$$
