KKE.pdb
     RDKit          3D

 28 27  0  0  1  0  0  0  0  0999 V2000
    7.2114  -17.3284   20.3237 N   0  0  0  0  0  0  0  0  0  0  0  0
    8.6504  -17.2575   20.3688 C   0  0  1  0  0  0  0  0  0  0  0  0
    9.2949  -16.9784   19.0573 C   0  0  0  0  0  0  0  0  0  0  0  0
    8.3269  -16.9997   17.9336 C   0  0  0  0  0  0  0  0  0  0  0  0
    8.8597  -16.6931   16.5801 C   0  0  0  0  0  0  0  0  0  0  0  0
    7.8019  -16.6915   15.5024 C   0  0  0  0  0  0  0  0  0  0  0  0
    8.3751  -16.2465   14.2479 N   0  0  0  0  0  0  0  0  0  0  0  0
    9.1046  -16.2894   21.4288 C   0  0  0  0  0  0  0  0  0  0  0  0
   10.2360  -15.7473   21.3566 O   0  0  0  0  0  0  0  0  0  0  0  0
    8.2704  -15.9772   22.5162 N   0  0  0  0  0  0  0  0  0  0  0  0
    8.6000  -15.0733   23.5989 C   0  0  1  0  0  0  0  0  0  0  0  0
    7.3178  -14.4766   24.0980 C   0  0  0  0  0  0  0  0  0  0  0  0
    7.6000  -13.5028   25.1964 C   0  0  0  0  0  0  0  0  0  0  0  0
    6.3376  -12.8495   25.6558 C   0  0  0  0  0  0  0  0  0  0  0  0
    6.5964  -11.8223   26.7277 C   0  0  0  0  0  0  0  0  0  0  0  0
    5.4055  -11.0767   27.0727 N   0  0  0  0  0  0  0  0  0  0  0  0
    9.1661  -15.8911   24.7211 C   0  0  0  0  0  0  0  0  0  0  0  0
    8.5832  -16.9476   25.0350 O   0  0  0  0  0  0  0  0  0  0  0  0
   10.3358  -15.4111   25.3603 N   0  0  0  0  0  0  0  0  0  0  0  0
   11.1591  -16.4004   26.0788 C   0  0  1  0  0  0  0  0  0  0  0  0
   12.5371  -16.2451   25.5628 C   0  0  0  0  0  0  0  0  0  0  0  0
   13.5830  -17.0776   26.2285 C   0  0  0  0  0  0  0  0  0  0  0  0
   14.9117  -16.7531   25.6748 C   0  0  0  0  0  0  0  0  0  0  0  0
   15.0099  -15.8424   24.7975 O   0  0  0  0  0  0  0  0  0  0  0  0
   10.8761  -16.3667   27.4874 C   0  0  0  0  0  0  0  0  0  0  0  0
   10.2199  -15.3910   27.9648 O   0  0  0  0  0  0  0  0  0  0  0  0
   16.0880  -17.3829   26.0497 O   0  0  0  0  0  0  0  0  0  0  0  0
   11.2471  -17.3266   28.4323 O   0  0  0  0  0  0  0  0  0  0  0  0
  2  1  1  6
  3  4  1  0
  3  2  1  0
  4  5  1  0
  6  5  1  0
  7  6  1  0
  8  2  1  0
  8  9  2  0
 10  8  1  0
 11 10  1  0
 11 12  1  1
 13 12  1  0
 14 13  1  0
 15 14  1  0
 16 15  1  0
 17 11  1  0
 18 17  2  0
 19 17  1  0
 20 21  1  1
 20 19  1  0
 22 21  1  0
 23 22  1  0
 23 24  2  0
 25 20  1  0
 26 25  2  0
 27 23  1  0
 28 25  1  0
M  END
$$$$
