AMN.pdb
     RDKit          3D

 22 21  0  0  1  0  0  0  0  0999 V2000
    7.6892  -13.7706   19.2466 C   0  0  0  0  0  0  0  0  0  0  0  0
    7.7718  -14.9964   20.1275 C   0  0  2  0  0  0  0  0  0  0  0  0
    6.4395  -15.5461   20.2509 N   0  0  0  0  0  0  0  0  0  0  0  0
    8.3721  -14.6946   21.4502 C   0  0  0  0  0  0  0  0  0  0  0  0
    9.6080  -14.5022   21.5769 O   0  0  0  0  0  0  0  0  0  0  0  0
    6.3749  -10.9246   26.5874 C   0  0  0  0  0  0  0  0  0  0  0  0
    6.4633  -12.6205   27.2215 S   0  0  0  0  0  0  0  0  0  0  0  0
    7.7611  -13.5165   26.2824 C   0  0  0  0  0  0  0  0  0  0  0  0
    7.1718  -13.7887   24.9180 C   0  0  0  0  0  0  0  0  0  0  0  0
    8.1894  -14.3163   23.9317 C   0  0  2  0  0  0  0  0  0  0  0  0
    7.5960  -14.6047   22.6442 N   0  0  0  0  0  0  0  0  0  0  0  0
    8.6915  -15.5965   24.4896 C   0  0  0  0  0  0  0  0  0  0  0  0
    7.9886  -16.6310   24.3822 O   0  0  0  0  0  0  0  0  0  0  0  0
   11.7923  -19.3886   25.8405 N   0  0  0  0  0  0  0  0  0  0  0  0
   12.4597  -18.4955   24.9574 C   0  0  0  0  0  0  0  0  0  0  0  0
   13.5319  -18.9025   24.4427 O   0  0  0  0  0  0  0  0  0  0  0  0
   11.8467  -17.1857   24.7232 C   0  0  0  0  0  0  0  0  0  0  0  0
   10.5102  -17.0092   25.4074 C   0  0  2  0  0  0  0  0  0  0  0  0
    9.9473  -15.7037   25.1476 N   0  0  0  0  0  0  0  0  0  0  0  0
   10.5670  -17.2309   26.8493 C   0  0  0  0  0  0  0  0  0  0  0  0
   10.1238  -16.2635   27.7339 O   0  0  0  0  0  0  0  0  0  0  0  0
   11.0160  -18.2977   27.3378 O   0  0  0  0  0  0  0  0  0  0  0  0
  2  4  1  0
  2  1  1  6
  3  2  1  0
  4  5  2  0
  4 11  1  0
  7  6  1  0
  7  8  1  0
  8  9  1  0
 10  9  1  1
 10 12  1  0
 11 10  1  0
 12 19  1  0
 12 13  2  0
 14 15  1  0
 15 17  1  0
 16 15  2  0
 18 17  1  1
 18 20  1  0
 19 18  1  0
 20 21  1  0
 22 20  2  0
M  END
$$$$
