AMN.pdb
     RDKit          3D

 22 21  0  0  1  0  0  0  0  0999 V2000
    7.6537  -17.5438   20.1984 C   0  0  0  0  0  0  0  0  0  0  0  0
    7.6283  -16.0325   20.2255 C   0  0  2  0  0  0  0  0  0  0  0  0
    8.3043  -15.5548   19.0393 N   0  0  0  0  0  0  0  0  0  0  0  0
    8.2312  -15.4857   21.4658 C   0  0  0  0  0  0  0  0  0  0  0  0
    9.4734  -15.3224   21.5702 O   0  0  0  0  0  0  0  0  0  0  0  0
    6.4418  -10.8038   26.5147 C   0  0  0  0  0  0  0  0  0  0  0  0
    6.2678  -12.5705   26.8815 S   0  0  0  0  0  0  0  0  0  0  0  0
    7.6187  -13.4696   26.0238 C   0  0  0  0  0  0  0  0  0  0  0  0
    7.0215  -13.9823   24.7339 C   0  0  0  0  0  0  0  0  0  0  0  0
    8.0481  -14.6101   23.8183 C   0  0  2  0  0  0  0  0  0  0  0  0
    7.4507  -15.1157   22.6016 N   0  0  0  0  0  0  0  0  0  0  0  0
    8.6150  -15.7681   24.5530 C   0  0  0  0  0  0  0  0  0  0  0  0
    7.9206  -16.8038   24.6969 O   0  0  0  0  0  0  0  0  0  0  0  0
   13.2627  -16.9849   23.3799 N   0  0  0  0  0  0  0  0  0  0  0  0
   12.1840  -17.5939   24.0788 C   0  0  0  0  0  0  0  0  0  0  0  0
   11.5410  -18.4831   23.4655 O   0  0  0  0  0  0  0  0  0  0  0  0
   11.9143  -17.1376   25.4445 C   0  0  0  0  0  0  0  0  0  0  0  0
   10.4446  -16.9452   25.7417 C   0  0  2  0  0  0  0  0  0  0  0  0
    9.9243  -15.7554   25.1073 N   0  0  0  0  0  0  0  0  0  0  0  0
   10.1465  -16.8989   27.1702 C   0  0  0  0  0  0  0  0  0  0  0  0
    9.5485  -15.7858   27.7344 O   0  0  0  0  0  0  0  0  0  0  0  0
   10.4188  -17.8579   27.9346 O   0  0  0  0  0  0  0  0  0  0  0  0
  2  4  1  0
  2  1  1  1
  3  2  1  0
  4  5  2  0
  4 11  1  0
  7  6  1  0
  7  8  1  0
  8  9  1  0
 10  9  1  1
 10 12  1  0
 11 10  1  0
 12 19  1  0
 12 13  2  0
 14 15  1  0
 15 17  1  0
 16 15  2  0
 18 17  1  1
 18 20  1  0
 19 18  1  0
 20 21  1  0
 22 20  2  0
M  END
$$$$
