AMN.pdb
     RDKit          3D

 22 21  0  0  1  0  0  0  0  0999 V2000
    8.1338  -18.0774   20.7948 C   0  0  0  0  0  0  0  0  0  0  0  0
    7.8876  -16.5870   20.7366 C   0  0  2  0  0  0  0  0  0  0  0  0
    8.4309  -16.0947   19.4897 N   0  0  0  0  0  0  0  0  0  0  0  0
    8.4598  -15.8799   21.9087 C   0  0  0  0  0  0  0  0  0  0  0  0
    9.6825  -15.5929   21.9643 O   0  0  0  0  0  0  0  0  0  0  0  0
    6.2049  -11.0063   26.4361 C   0  0  0  0  0  0  0  0  0  0  0  0
    6.3241  -12.6885   27.1011 S   0  0  0  0  0  0  0  0  0  0  0  0
    7.7386  -13.5278   26.2864 C   0  0  0  0  0  0  0  0  0  0  0  0
    7.1736  -14.1844   25.0484 C   0  0  0  0  0  0  0  0  0  0  0  0
    8.2380  -14.8126   24.1772 C   0  0  2  0  0  0  0  0  0  0  0  0
    7.6699  -15.4867   23.0301 N   0  0  0  0  0  0  0  0  0  0  0  0
    8.9121  -15.8389   25.0105 C   0  0  0  0  0  0  0  0  0  0  0  0
    8.3485  -16.9447   25.1984 O   0  0  0  0  0  0  0  0  0  0  0  0
   13.4009  -15.8622   24.0140 N   0  0  0  0  0  0  0  0  0  0  0  0
   12.7260  -16.9143   24.6927 C   0  0  0  0  0  0  0  0  0  0  0  0
   12.5165  -17.9678   24.0397 O   0  0  0  0  0  0  0  0  0  0  0  0
   12.3342  -16.6842   26.0854 C   0  0  0  0  0  0  0  0  0  0  0  0
   10.8390  -16.7054   26.3075 C   0  0  2  0  0  0  0  0  0  0  0  0
   10.1820  -15.6221   25.6121 N   0  0  0  0  0  0  0  0  0  0  0  0
   10.4651  -16.6691   27.7183 C   0  0  0  0  0  0  0  0  0  0  0  0
    9.9326  -15.5229   28.2819 O   0  0  0  0  0  0  0  0  0  0  0  0
   10.6110  -17.6668   28.4676 O   0  0  0  0  0  0  0  0  0  0  0  0
  2  4  1  0
  2  1  1  1
  3  2  1  0
  4  5  2  0
  4 11  1  0
  7  6  1  0
  7  8  1  0
  8  9  1  0
 10  9  1  1
 10 12  1  0
 11 10  1  0
 12 19  1  0
 12 13  2  0
 14 15  1  0
 15 17  1  0
 16 15  2  0
 18 17  1  1
 18 20  1  0
 19 18  1  0
 20 21  1  0
 22 20  2  0
M  END
$$$$
