PNT.pdb
     RDKit          3D

 23 23  0  0  1  0  0  0  0  0999 V2000
    9.4904  -13.7534   19.0053 N   0  0  0  0  0  0  0  0  0  0  0  0
    8.7794  -12.9245   18.0548 C   0  0  0  0  0  0  0  0  0  0  0  0
    7.4403  -13.6232   17.9629 C   0  0  0  0  0  0  0  0  0  0  0  0
    7.1612  -13.9702   19.4026 C   0  0  0  0  0  0  0  0  0  0  0  0
    8.5117  -13.9008   20.0614 C   0  0  1  0  0  0  0  0  0  0  0  0
    8.8438  -15.0689   20.8667 C   0  0  0  0  0  0  0  0  0  0  0  0
    7.9281  -15.7153   21.4331 O   0  0  0  0  0  0  0  0  0  0  0  0
   12.6018  -18.5153   20.0609 N   0  0  0  0  0  0  0  0  0  0  0  0
   12.4668  -17.1446   20.4526 C   0  0  0  0  0  0  0  0  0  0  0  0
   12.7563  -16.2707   19.6144 O   0  0  0  0  0  0  0  0  0  0  0  0
   11.9923  -16.9047   21.8280 C   0  0  0  0  0  0  0  0  0  0  0  0
   10.4965  -16.6887   21.8962 C   0  0  2  0  0  0  0  0  0  0  0  0
   10.1697  -15.5612   21.0757 N   0  0  0  0  0  0  0  0  0  0  0  0
   10.1446  -16.5360   23.3298 C   0  0  0  0  0  0  0  0  0  0  0  0
   10.7856  -15.6601   23.9530 O   0  0  0  0  0  0  0  0  0  0  0  0
    7.0230  -17.3580   27.1142 C   0  0  0  0  0  0  0  0  0  0  0  0
    7.4453  -17.6822   25.7195 C   0  0  1  0  0  0  0  0  0  0  0  0
    6.4999  -17.1349   24.8498 O   0  0  0  0  0  0  0  0  0  0  0  0
    8.7942  -17.1739   25.3559 C   0  0  2  0  0  0  0  0  0  0  0  0
    9.1613  -17.3068   23.9789 N   0  0  0  0  0  0  0  0  0  0  0  0
    9.8661  -17.6225   26.2848 C   0  0  0  0  0  0  0  0  0  0  0  0
   10.2136  -16.9642   27.4416 O   0  0  0  0  0  0  0  0  0  0  0  0
   10.5229  -18.6788   26.0285 O   0  0  0  0  0  0  0  0  0  0  0  0
  1  5  1  0
  1  2  1  0
  2  3  1  0
  4  3  1  0
  5  6  1  6
  5  4  1  0
  6 13  1  0
  7  6  2  0
  8  9  1  0
  9 11  1  0
 10  9  2  0
 12 11  1  1
 12 14  1  0
 13 12  1  0
 14 15  2  0
 14 20  1  0
 17 16  1  1
 17 18  1  0
 19 17  1  0
 19 21  1  0
 19 20  1  6
 21 22  1  0
 23 21  2  0
M  END
$$$$
