PNT.pdb
     RDKit          3D

 23 23  0  0  1  0  0  0  0  0999 V2000
    8.2441  -14.9038   18.6848 N   0  0  0  0  0  0  0  0  0  0  0  0
    8.1539  -14.0906   17.4905 C   0  0  0  0  0  0  0  0  0  0  0  0
    7.2461  -12.9662   17.9391 C   0  0  0  0  0  0  0  0  0  0  0  0
    7.7645  -12.6691   19.3225 C   0  0  0  0  0  0  0  0  0  0  0  0
    8.5252  -13.9109   19.6998 C   0  0  1  0  0  0  0  0  0  0  0  0
    8.1787  -14.4485   21.0091 C   0  0  0  0  0  0  0  0  0  0  0  0
    8.2059  -13.6995   22.0167 O   0  0  0  0  0  0  0  0  0  0  0  0
    5.3410  -16.5953   20.9659 N   0  0  0  0  0  0  0  0  0  0  0  0
    5.8050  -17.8341   21.5140 C   0  0  0  0  0  0  0  0  0  0  0  0
    5.1710  -18.8674   21.2303 O   0  0  0  0  0  0  0  0  0  0  0  0
    7.0031  -17.7585   22.3704 C   0  0  0  0  0  0  0  0  0  0  0  0
    7.4995  -16.3408   22.5496 C   0  0  2  0  0  0  0  0  0  0  0  0
    7.7965  -15.8039   21.2554 N   0  0  0  0  0  0  0  0  0  0  0  0
    8.6562  -16.3995   23.4776 C   0  0  0  0  0  0  0  0  0  0  0  0
    9.6518  -15.7187   23.1434 O   0  0  0  0  0  0  0  0  0  0  0  0
    8.7262  -14.3393   25.3636 C   0  0  0  0  0  0  0  0  0  0  0  0
    8.7737  -15.4075   26.4055 C   0  0  1  0  0  0  0  0  0  0  0  0
    7.4894  -15.5422   26.9367 O   0  0  0  0  0  0  0  0  0  0  0  0
    9.2354  -16.7289   25.9049 C   0  0  2  0  0  0  0  0  0  0  0  0
    8.6685  -17.1591   24.6630 N   0  0  0  0  0  0  0  0  0  0  0  0
    9.2228  -17.7932   26.9443 C   0  0  0  0  0  0  0  0  0  0  0  0
   10.0227  -17.7918   28.0634 O   0  0  0  0  0  0  0  0  0  0  0  0
    8.4339  -18.7814   26.8271 O   0  0  0  0  0  0  0  0  0  0  0  0
  1  5  1  0
  1  2  1  0
  2  3  1  0
  4  3  1  0
  5  6  1  1
  5  4  1  0
  6 13  1  0
  7  6  2  0
  8  9  1  0
  9 11  1  0
 10  9  2  0
 12 11  1  6
 12 14  1  0
 13 12  1  0
 14 15  2  0
 14 20  1  0
 17 16  1  6
 17 18  1  0
 19 17  1  0
 19 21  1  0
 19 20  1  6
 21 22  1  0
 23 21  2  0
M  END
$$$$
