PNT.pdb
     RDKit          3D

 23 23  0  0  1  0  0  0  0  0999 V2000
    9.0274  -16.8220   18.2026 N   0  0  0  0  0  0  0  0  0  0  0  0
    8.2693  -17.6562   17.2940 C   0  0  0  0  0  0  0  0  0  0  0  0
    8.3104  -19.0005   17.9874 C   0  0  0  0  0  0  0  0  0  0  0  0
    8.0895  -18.6234   19.4296 C   0  0  0  0  0  0  0  0  0  0  0  0
    8.4365  -17.1605   19.4797 C   0  0  1  0  0  0  0  0  0  0  0  0
    9.3603  -16.8025   20.5483 C   0  0  0  0  0  0  0  0  0  0  0  0
   10.5842  -16.6766   20.2970 O   0  0  0  0  0  0  0  0  0  0  0  0
   11.3713  -15.4987   25.0771 N   0  0  0  0  0  0  0  0  0  0  0  0
    9.9590  -15.3901   25.2867 C   0  0  0  0  0  0  0  0  0  0  0  0
    9.5679  -14.9411   26.3801 O   0  0  0  0  0  0  0  0  0  0  0  0
    9.1001  -15.8273   24.1707 C   0  0  0  0  0  0  0  0  0  0  0  0
    9.8978  -16.2804   22.9678 C   0  0  2  0  0  0  0  0  0  0  0  0
    8.9806  -16.5737   21.9075 N   0  0  0  0  0  0  0  0  0  0  0  0
   10.7288  -17.4296   23.4053 C   0  0  0  0  0  0  0  0  0  0  0  0
   10.1136  -18.5055   23.5797 O   0  0  0  0  0  0  0  0  0  0  0  0
   15.1038  -19.6751   23.2630 C   0  0  0  0  0  0  0  0  0  0  0  0
   14.2332  -18.4862   23.0241 C   0  0  1  0  0  0  0  0  0  0  0  0
   13.9113  -18.4595   21.6657 O   0  0  0  0  0  0  0  0  0  0  0  0
   12.9792  -18.4770   23.8226 C   0  0  2  0  0  0  0  0  0  0  0  0
   12.1180  -17.3518   23.6199 N   0  0  0  0  0  0  0  0  0  0  0  0
   13.1912  -18.7896   25.2615 C   0  0  0  0  0  0  0  0  0  0  0  0
   13.0416  -17.8791   26.2817 O   0  0  0  0  0  0  0  0  0  0  0  0
   13.5299  -19.9629   25.6099 O   0  0  0  0  0  0  0  0  0  0  0  0
  1  5  1  0
  1  2  1  0
  2  3  1  0
  4  3  1  0
  5  6  1  1
  5  4  1  0
  6 13  1  0
  7  6  2  0
  8  9  1  0
  9 11  1  0
 10  9  2  0
 12 11  1  1
 12 14  1  0
 13 12  1  0
 14 15  2  0
 14 20  1  0
 17 16  1  6
 17 18  1  0
 19 17  1  0
 19 21  1  0
 19 20  1  1
 21 22  1  0
 23 21  2  0
M  END
$$$$
