PNT.pdb
     RDKit          3D

 23 23  0  0  1  0  0  0  0  0999 V2000
    9.1534  -14.2240   18.9071 N   0  0  0  0  0  0  0  0  0  0  0  0
    8.7534  -13.6596   17.6353 C   0  0  0  0  0  0  0  0  0  0  0  0
    7.2439  -13.6798   17.7391 C   0  0  0  0  0  0  0  0  0  0  0  0
    7.0147  -13.2272   19.1580 C   0  0  0  0  0  0  0  0  0  0  0  0
    8.3350  -13.4738   19.8356 C   0  0  1  0  0  0  0  0  0  0  0  0
    8.2340  -14.2073   21.0906 C   0  0  0  0  0  0  0  0  0  0  0  0
    7.4043  -13.8426   21.9599 O   0  0  0  0  0  0  0  0  0  0  0  0
    9.1842  -19.2840   23.7136 N   0  0  0  0  0  0  0  0  0  0  0  0
    9.8723  -18.0356   23.8494 C   0  0  0  0  0  0  0  0  0  0  0  0
   10.3592  -17.7598   24.9615 O   0  0  0  0  0  0  0  0  0  0  0  0
    9.9347  -17.1924   22.6413 C   0  0  0  0  0  0  0  0  0  0  0  0
    8.9015  -16.0874   22.6511 C   0  0  2  0  0  0  0  0  0  0  0  0
    9.0262  -15.3477   21.4310 N   0  0  0  0  0  0  0  0  0  0  0  0
    9.1267  -15.2930   23.8843 C   0  0  0  0  0  0  0  0  0  0  0  0
   10.1911  -14.6355   23.9163 O   0  0  0  0  0  0  0  0  0  0  0  0
    7.2280  -12.3439   25.2025 C   0  0  0  0  0  0  0  0  0  0  0  0
    7.2628  -13.3889   26.2681 C   0  0  1  0  0  0  0  0  0  0  0  0
    6.0275  -14.0398   26.2673 O   0  0  0  0  0  0  0  0  0  0  0  0
    8.3443  -14.3951   26.1018 C   0  0  2  0  0  0  0  0  0  0  0  0
    8.2257  -15.2575   24.9655 N   0  0  0  0  0  0  0  0  0  0  0  0
    8.6658  -15.1313   27.3539 C   0  0  0  0  0  0  0  0  0  0  0  0
    9.0224  -14.5274   28.5372 O   0  0  0  0  0  0  0  0  0  0  0  0
    8.6156  -16.4001   27.3713 O   0  0  0  0  0  0  0  0  0  0  0  0
  1  5  1  0
  1  2  1  0
  2  3  1  0
  4  3  1  0
  5  6  1  1
  5  4  1  0
  6 13  1  0
  7  6  2  0
  8  9  1  0
  9 11  1  0
 10  9  2  0
 12 11  1  6
 12 14  1  0
 13 12  1  0
 14 15  2  0
 14 20  1  0
 17 16  1  6
 17 18  1  0
 19 17  1  0
 19 21  1  0
 19 20  1  6
 21 22  1  0
 23 21  2  0
M  END
$$$$
