PNT.pdb
     RDKit          3D

 23 23  0  0  1  0  0  0  0  0999 V2000
    9.1463  -14.6914   18.8115 N   0  0  0  0  0  0  0  0  0  0  0  0
    8.8553  -14.1250   17.5113 C   0  0  0  0  0  0  0  0  0  0  0  0
    7.3891  -13.7732   17.6387 C   0  0  0  0  0  0  0  0  0  0  0  0
    7.3187  -13.1936   19.0279 C   0  0  0  0  0  0  0  0  0  0  0  0
    8.5610  -13.7107   19.7006 C   0  0  1  0  0  0  0  0  0  0  0  0
    8.3248  -14.3206   21.0027 C   0  0  0  0  0  0  0  0  0  0  0  0
    7.5388  -13.7718   21.8139 O   0  0  0  0  0  0  0  0  0  0  0  0
   10.3571  -18.8094   20.9536 N   0  0  0  0  0  0  0  0  0  0  0  0
    9.2208  -18.3995   21.7225 C   0  0  0  0  0  0  0  0  0  0  0  0
    8.1144  -18.8889   21.4283 O   0  0  0  0  0  0  0  0  0  0  0  0
    9.4807  -17.4262   22.7993 C   0  0  0  0  0  0  0  0  0  0  0  0
    8.6149  -16.1908   22.6860 C   0  0  2  0  0  0  0  0  0  0  0  0
    8.9323  -15.5338   21.4536 N   0  0  0  0  0  0  0  0  0  0  0  0
    8.8571  -15.3774   23.9034 C   0  0  0  0  0  0  0  0  0  0  0  0
    9.9982  -14.8719   23.9969 O   0  0  0  0  0  0  0  0  0  0  0  0
    7.1262  -12.2519   27.1981 C   0  0  0  0  0  0  0  0  0  0  0  0
    6.8469  -13.4058   26.2931 C   0  0  1  0  0  0  0  0  0  0  0  0
    6.3398  -12.8959   25.0962 O   0  0  0  0  0  0  0  0  0  0  0  0
    8.0329  -14.2524   25.9989 C   0  0  2  0  0  0  0  0  0  0  0  0
    7.8920  -15.1667   24.9066 N   0  0  0  0  0  0  0  0  0  0  0  0
    8.6234  -14.8855   27.2088 C   0  0  0  0  0  0  0  0  0  0  0  0
    9.1914  -14.1871   28.2488 O   0  0  0  0  0  0  0  0  0  0  0  0
    8.6185  -16.1499   27.3264 O   0  0  0  0  0  0  0  0  0  0  0  0
  1  5  1  0
  1  2  1  0
  2  3  1  0
  4  3  1  0
  5  6  1  1
  5  4  1  0
  6 13  1  0
  7  6  2  0
  8  9  1  0
  9 11  1  0
 10  9  2  0
 12 11  1  1
 12 14  1  0
 13 12  1  0
 14 15  2  0
 14 20  1  0
 17 16  1  1
 17 18  1  0
 19 17  1  0
 19 21  1  0
 19 20  1  6
 21 22  1  0
 23 21  2  0
M  END
$$$$
