PNT.pdb
     RDKit          3D

 23 23  0  0  1  0  0  0  0  0999 V2000
    7.1146  -14.3591   19.5223 N   0  0  0  0  0  0  0  0  0  0  0  0
    6.8912  -13.2969   18.5643 C   0  0  0  0  0  0  0  0  0  0  0  0
    7.8797  -12.2454   19.0192 C   0  0  0  0  0  0  0  0  0  0  0  0
    9.0988  -13.0705   19.3414 C   0  0  0  0  0  0  0  0  0  0  0  0
    8.5582  -14.4630   19.5194 C   0  0  1  0  0  0  0  0  0  0  0  0
    8.9965  -15.1215   20.7432 C   0  0  0  0  0  0  0  0  0  0  0  0
   10.2213  -15.3158   20.9413 O   0  0  0  0  0  0  0  0  0  0  0  0
   10.5260  -19.3118   22.7517 N   0  0  0  0  0  0  0  0  0  0  0  0
    9.9577  -18.2036   23.4584 C   0  0  0  0  0  0  0  0  0  0  0  0
    9.6028  -18.3882   24.6374 O   0  0  0  0  0  0  0  0  0  0  0  0
    9.8492  -16.9394   22.7071 C   0  0  0  0  0  0  0  0  0  0  0  0
    8.5568  -16.2057   22.9896 C   0  0  2  0  0  0  0  0  0  0  0  0
    8.1216  -15.5826   21.7757 N   0  0  0  0  0  0  0  0  0  0  0  0
    8.8255  -15.2671   24.1074 C   0  0  0  0  0  0  0  0  0  0  0  0
    9.9577  -14.7339   24.1045 O   0  0  0  0  0  0  0  0  0  0  0  0
    6.6446  -12.1501   25.4145 C   0  0  0  0  0  0  0  0  0  0  0  0
    6.9606  -13.1363   26.4897 C   0  0  1  0  0  0  0  0  0  0  0  0
    5.8189  -13.9101   26.7074 O   0  0  0  0  0  0  0  0  0  0  0  0
    8.1053  -14.0326   26.1793 C   0  0  2  0  0  0  0  0  0  0  0  0
    7.8934  -14.9722   25.1205 N   0  0  0  0  0  0  0  0  0  0  0  0
    8.7171  -14.6512   27.3860 C   0  0  0  0  0  0  0  0  0  0  0  0
    9.1961  -13.9405   28.4619 O   0  0  0  0  0  0  0  0  0  0  0  0
    8.8183  -15.9146   27.4658 O   0  0  0  0  0  0  0  0  0  0  0  0
  1  5  1  0
  1  2  1  0
  2  3  1  0
  4  3  1  0
  5  6  1  1
  5  4  1  0
  6 13  1  0
  7  6  2  0
  8  9  1  0
  9 11  1  0
 10  9  2  0
 12 11  1  6
 12 14  1  0
 13 12  1  0
 14 15  2  0
 14 20  1  0
 17 16  1  6
 17 18  1  0
 19 17  1  0
 19 21  1  0
 19 20  1  6
 21 22  1  0
 23 21  2  0
M  END
$$$$
