PNT.pdb
     RDKit          3D

 23 23  0  0  1  0  0  0  0  0999 V2000
    8.7921  -15.1332   19.2644 N   0  0  0  0  0  0  0  0  0  0  0  0
    8.5687  -14.5412   17.9623 C   0  0  0  0  0  0  0  0  0  0  0  0
    7.2355  -13.8509   18.1515 C   0  0  0  0  0  0  0  0  0  0  0  0
    7.3820  -13.2424   19.5223 C   0  0  0  0  0  0  0  0  0  0  0  0
    8.5045  -14.0239   20.1485 C   0  0  1  0  0  0  0  0  0  0  0  0
    8.2062  -14.5339   21.4805 C   0  0  0  0  0  0  0  0  0  0  0  0
    7.8011  -13.7475   22.3719 O   0  0  0  0  0  0  0  0  0  0  0  0
    6.9498  -18.9328   24.7633 N   0  0  0  0  0  0  0  0  0  0  0  0
    8.2823  -18.4397   24.5850 C   0  0  0  0  0  0  0  0  0  0  0  0
    9.0818  -18.5745   25.5299 O   0  0  0  0  0  0  0  0  0  0  0  0
    8.5757  -17.8140   23.2823 C   0  0  0  0  0  0  0  0  0  0  0  0
    8.0473  -16.3997   23.1860 C   0  0  2  0  0  0  0  0  0  0  0  0
    8.3395  -15.9015   21.8754 N   0  0  0  0  0  0  0  0  0  0  0  0
    8.6635  -15.6293   24.2946 C   0  0  0  0  0  0  0  0  0  0  0  0
    9.8967  -15.4383   24.1993 O   0  0  0  0  0  0  0  0  0  0  0  0
    7.2445  -13.0014   28.1763 C   0  0  0  0  0  0  0  0  0  0  0  0
    7.6489  -13.0772   26.7413 C   0  0  1  0  0  0  0  0  0  0  0  0
    8.3663  -11.9181   26.4388 O   0  0  0  0  0  0  0  0  0  0  0  0
    8.4758  -14.2650   26.4016 C   0  0  2  0  0  0  0  0  0  0  0  0
    7.9409  -15.1313   25.3955 N   0  0  0  0  0  0  0  0  0  0  0  0
    8.9706  -15.0029   27.5948 C   0  0  0  0  0  0  0  0  0  0  0  0
    9.6931  -14.4293   28.6151 O   0  0  0  0  0  0  0  0  0  0  0  0
    8.7272  -16.2434   27.7162 O   0  0  0  0  0  0  0  0  0  0  0  0
  1  5  1  0
  1  2  1  0
  2  3  1  0
  4  3  1  0
  5  6  1  1
  5  4  1  0
  6 13  1  0
  7  6  2  0
  8  9  1  0
  9 11  1  0
 10  9  2  0
 12 11  1  6
 12 14  1  0
 13 12  1  0
 14 15  2  0
 14 20  1  0
 17 16  1  1
 17 18  1  0
 19 17  1  0
 19 21  1  0
 19 20  1  6
 21 22  1  0
 23 21  2  0
M  END
$$$$
