PNT.pdb
     RDKit          3D

 23 23  0  0  1  0  0  0  0  0999 V2000
    9.1630  -14.5128   19.2640 N   0  0  0  0  0  0  0  0  0  0  0  0
    8.9419  -13.9502   17.9484 C   0  0  0  0  0  0  0  0  0  0  0  0
    7.4391  -13.7753   17.9259 C   0  0  0  0  0  0  0  0  0  0  0  0
    7.1580  -13.2445   19.3079 C   0  0  0  0  0  0  0  0  0  0  0  0
    8.3771  -13.6307   20.1002 C   0  0  1  0  0  0  0  0  0  0  0  0
    8.0825  -14.2980   21.3616 C   0  0  0  0  0  0  0  0  0  0  0  0
    7.2619  -13.7839   22.1612 O   0  0  0  0  0  0  0  0  0  0  0  0
    8.1197  -17.6441   25.2643 N   0  0  0  0  0  0  0  0  0  0  0  0
    9.2351  -18.0397   24.4582 C   0  0  0  0  0  0  0  0  0  0  0  0
    9.9154  -19.0081   24.8446 O   0  0  0  0  0  0  0  0  0  0  0  0
    9.4673  -17.2486   23.2356 C   0  0  0  0  0  0  0  0  0  0  0  0
    8.4627  -16.1298   23.0691 C   0  0  2  0  0  0  0  0  0  0  0  0
    8.6677  -15.5323   21.7837 N   0  0  0  0  0  0  0  0  0  0  0  0
    8.6443  -15.2082   24.2180 C   0  0  0  0  0  0  0  0  0  0  0  0
    9.7504  -14.6252   24.2731 O   0  0  0  0  0  0  0  0  0  0  0  0
    6.5358  -12.0001   27.2531 C   0  0  0  0  0  0  0  0  0  0  0  0
    6.4102  -13.2547   26.4538 C   0  0  1  0  0  0  0  0  0  0  0  0
    5.7913  -12.9300   25.2451 O   0  0  0  0  0  0  0  0  0  0  0  0
    7.7034  -13.9320   26.1729 C   0  0  2  0  0  0  0  0  0  0  0  0
    7.6608  -14.9803   25.1993 N   0  0  0  0  0  0  0  0  0  0  0  0
    8.4501  -14.3153   27.4012 C   0  0  0  0  0  0  0  0  0  0  0  0
    8.8302  -13.4308   28.3838 O   0  0  0  0  0  0  0  0  0  0  0  0
    8.7726  -15.5287   27.5917 O   0  0  0  0  0  0  0  0  0  0  0  0
  1  5  1  0
  1  2  1  0
  2  3  1  0
  4  3  1  0
  5  6  1  1
  5  4  1  0
  6 13  1  0
  7  6  2  0
  8  9  1  0
  9 11  1  0
 10  9  2  0
 12 11  1  1
 12 14  1  0
 13 12  1  0
 14 15  2  0
 14 20  1  0
 17 16  1  1
 17 18  1  0
 19 17  1  0
 19 21  1  0
 19 20  1  1
 21 22  1  0
 23 21  2  0
M  END
$$$$
