GQF.pdb
     RDKit          3D

 25 25  0  0  1  0  0  0  0  0999 V2000
   17.1883  -12.1625  -13.1246 N   0  0  0  0  0  0  0  0  0  0  0  0
   17.6833  -11.4057  -12.0064 C   0  0  0  0  0  0  0  0  0  0  0  0
   17.4360   -9.9331  -12.2001 C   0  0  0  0  0  0  0  0  0  0  0  0
   17.1880   -9.4822  -13.3570 O   0  0  0  0  0  0  0  0  0  0  0  0
   15.3245   -5.9797   -8.0025 N   0  0  0  0  0  0  0  0  0  0  0  0
   14.5638   -6.9093   -8.7346 C   0  0  0  0  0  0  0  0  0  0  0  0
   13.3857   -7.2217   -8.3908 O   0  0  0  0  0  0  0  0  0  0  0  0
   15.1880   -7.5233   -9.9385 C   0  0  0  0  0  0  0  0  0  0  0  0
   16.6228   -7.0598  -10.0260 C   0  0  0  0  0  0  0  0  0  0  0  0
   17.3075   -7.5907  -11.2656 C   0  0  2  0  0  0  0  0  0  0  0  0
   17.4733   -9.0269  -11.1121 N   0  0  0  0  0  0  0  0  0  0  0  0
   18.6218   -6.9017  -11.3592 C   0  0  0  0  0  0  0  0  0  0  0  0
   19.4479   -7.0217  -10.4379 O   0  0  0  0  0  0  0  0  0  0  0  0
   18.9188   -6.1139  -12.5005 N   0  0  0  0  0  0  0  0  0  0  0  0
   20.2642   -5.5829  -12.7717 C   0  0  1  0  0  0  0  0  0  0  0  0
   20.8904   -6.3478  -13.9217 C   0  0  0  0  0  0  0  0  0  0  0  0
   21.1411   -7.7666  -13.6328 C   0  0  0  0  0  0  0  0  0  0  0  0
   22.0795   -8.1466  -12.6863 C   0  0  0  0  0  0  0  0  0  0  0  0
   22.3190   -9.4757  -12.3984 C   0  0  0  0  0  0  0  0  0  0  0  0
   21.6341  -10.4777  -13.0414 C   0  0  0  0  0  0  0  0  0  0  0  0
   20.6971  -10.1147  -13.9861 C   0  0  0  0  0  0  0  0  0  0  0  0
   20.4589   -8.7745  -14.2729 C   0  0  0  0  0  0  0  0  0  0  0  0
   20.2521   -4.1345  -12.9425 C   0  0  0  0  0  0  0  0  0  0  0  0
   21.4407   -3.4327  -13.0395 O   0  0  0  0  0  0  0  0  0  0  0  0
   19.1911   -3.4319  -13.0121 O   0  0  0  0  0  0  0  0  0  0  0  0
  1  2  1  0
  3  2  1  0
  4  3  2  0
  5  6  1  0
  6  7  2  0
  8  9  1  0
  8  6  1  0
 10  9  1  1
 10 11  1  0
 10 12  1  0
 11  3  1  0
 12 13  2  0
 12 14  1  0
 14 15  1  0
 15 16  1  6
 15 23  1  0
 16 17  1  0
 17 22  2  0
 18 19  2  0
 18 17  1  0
 19 20  1  0
 20 21  2  0
 22 21  1  0
 23 24  1  0
 25 23  2  0
M  END
$$$$
