GQF.pdb
     RDKit          3D

 25 25  0  0  1  0  0  0  0  0999 V2000
   25.4408  -24.4865  -15.0920 N   0  0  0  0  0  0  0  0  0  0  0  0
   24.6011  -23.9524  -14.0538 C   0  0  0  0  0  0  0  0  0  0  0  0
   23.8399  -22.7485  -14.5420 C   0  0  0  0  0  0  0  0  0  0  0  0
   24.1372  -22.2232  -15.6551 O   0  0  0  0  0  0  0  0  0  0  0  0
   18.3283  -21.0119  -12.4149 N   0  0  0  0  0  0  0  0  0  0  0  0
   18.5841  -19.8677  -13.1921 C   0  0  0  0  0  0  0  0  0  0  0  0
   17.7189  -18.9542  -13.3350 O   0  0  0  0  0  0  0  0  0  0  0  0
   19.9150  -19.7579  -13.8499 C   0  0  0  0  0  0  0  0  0  0  0  0
   20.7461  -20.9564  -13.4574 C   0  0  0  0  0  0  0  0  0  0  0  0
   22.0700  -20.9826  -14.1880 C   0  0  2  0  0  0  0  0  0  0  0  0
   22.7882  -22.1797  -13.7824 N   0  0  0  0  0  0  0  0  0  0  0  0
   22.8039  -19.7515  -13.7920 C   0  0  0  0  0  0  0  0  0  0  0  0
   22.9585  -19.4865  -12.5872 O   0  0  0  0  0  0  0  0  0  0  0  0
   23.3203  -18.8919  -14.7949 N   0  0  0  0  0  0  0  0  0  0  0  0
   23.9114  -17.5792  -14.4897 C   0  0  1  0  0  0  0  0  0  0  0  0
   25.4121  -17.7230  -14.3259 C   0  0  0  0  0  0  0  0  0  0  0  0
   26.1985  -16.8518  -15.2101 C   0  0  0  0  0  0  0  0  0  0  0  0
   26.5976  -17.2833  -16.4653 C   0  0  0  0  0  0  0  0  0  0  0  0
   27.3293  -16.4721  -17.3100 C   0  0  0  0  0  0  0  0  0  0  0  0
   27.6920  -15.2007  -16.9381 C   0  0  0  0  0  0  0  0  0  0  0  0
   27.3020  -14.7576  -15.6916 C   0  0  0  0  0  0  0  0  0  0  0  0
   26.5649  -15.5780  -14.8438 C   0  0  0  0  0  0  0  0  0  0  0  0
   23.5013  -16.5622  -15.4511 C   0  0  0  0  0  0  0  0  0  0  0  0
   23.0697  -16.9283  -16.7139 O   0  0  0  0  0  0  0  0  0  0  0  0
   23.5088  -15.3100  -15.2139 O   0  0  0  0  0  0  0  0  0  0  0  0
  1  2  1  0
  3  2  1  0
  4  3  2  0
  5  6  1  0
  6  7  2  0
  8  9  1  0
  8  6  1  0
 10  9  1  1
 10 11  1  0
 10 12  1  0
 11  3  1  0
 12 13  2  0
 12 14  1  0
 14 15  1  0
 15 16  1  6
 15 23  1  0
 16 17  1  0
 17 22  2  0
 18 19  2  0
 18 17  1  0
 19 20  1  0
 20 21  2  0
 22 21  1  0
 23 24  1  0
 25 23  2  0
M  END
$$$$
