GQF.pdb
     RDKit          3D

 25 25  0  0  1  0  0  0  0  0999 V2000
   27.1585  -19.2606  -16.1182 N   0  0  0  0  0  0  0  0  0  0  0  0
   27.8410  -19.7009  -14.9314 C   0  0  0  0  0  0  0  0  0  0  0  0
   26.9652  -19.5450  -13.7166 C   0  0  0  0  0  0  0  0  0  0  0  0
   26.6335  -18.3883  -13.3226 O   0  0  0  0  0  0  0  0  0  0  0  0
   22.4989  -20.0729  -11.1669 N   0  0  0  0  0  0  0  0  0  0  0  0
   22.5023  -20.3435  -12.5474 C   0  0  0  0  0  0  0  0  0  0  0  0
   21.6132  -19.8761  -13.3185 O   0  0  0  0  0  0  0  0  0  0  0  0
   23.5920  -21.2041  -13.0840 C   0  0  0  0  0  0  0  0  0  0  0  0
   24.5244  -21.5624  -11.9511 C   0  0  0  0  0  0  0  0  0  0  0  0
   25.6502  -20.5617  -11.8156 C   0  0  2  0  0  0  0  0  0  0  0  0
   26.4962  -20.6689  -12.9931 N   0  0  0  0  0  0  0  0  0  0  0  0
   26.3962  -20.9186  -10.5798 C   0  0  0  0  0  0  0  0  0  0  0  0
   27.1124  -21.9345  -10.5636 O   0  0  0  0  0  0  0  0  0  0  0  0
   26.2818  -20.0943   -9.4313 N   0  0  0  0  0  0  0  0  0  0  0  0
   26.9113  -20.4319   -8.1447 C   0  0  1  0  0  0  0  0  0  0  0  0
   27.6244  -19.2130   -7.5922 C   0  0  0  0  0  0  0  0  0  0  0  0
   28.2713  -19.4343   -6.2914 C   0  0  0  0  0  0  0  0  0  0  0  0
   29.2862  -20.3673   -6.1494 C   0  0  0  0  0  0  0  0  0  0  0  0
   29.9089  -20.5793   -4.9352 C   0  0  0  0  0  0  0  0  0  0  0  0
   29.5455  -19.8711   -3.8159 C   0  0  0  0  0  0  0  0  0  0  0  0
   28.5368  -18.9391   -3.9420 C   0  0  0  0  0  0  0  0  0  0  0  0
   27.9122  -18.7286   -5.1671 C   0  0  0  0  0  0  0  0  0  0  0  0
   25.9653  -21.0503   -7.2229 C   0  0  0  0  0  0  0  0  0  0  0  0
   26.4213  -21.7849   -6.1425 O   0  0  0  0  0  0  0  0  0  0  0  0
   24.6986  -20.9666   -7.3360 O   0  0  0  0  0  0  0  0  0  0  0  0
  1  2  1  0
  3  2  1  0
  4  3  2  0
  5  6  1  0
  6  7  2  0
  8  9  1  0
  8  6  1  0
 10  9  1  6
 10 11  1  0
 10 12  1  0
 11  3  1  0
 12 13  2  0
 12 14  1  0
 14 15  1  0
 15 16  1  1
 15 23  1  0
 16 17  1  0
 17 22  2  0
 18 19  2  0
 18 17  1  0
 19 20  1  0
 20 21  2  0
 22 21  1  0
 23 24  1  0
 25 23  2  0
M  END
$$$$
