GQF.pdb
     RDKit          3D

 25 25  0  0  1  0  0  0  0  0999 V2000
   20.7421  -18.8563  -12.7495 N   0  0  0  0  0  0  0  0  0  0  0  0
   22.1000  -18.8298  -13.2225 C   0  0  0  0  0  0  0  0  0  0  0  0
   22.9664  -19.7700  -12.4271 C   0  0  0  0  0  0  0  0  0  0  0  0
   22.4787  -20.3928  -11.4384 O   0  0  0  0  0  0  0  0  0  0  0  0
   25.7712  -20.7825  -16.0083 N   0  0  0  0  0  0  0  0  0  0  0  0
   26.4169  -21.7963  -15.2773 C   0  0  0  0  0  0  0  0  0  0  0  0
   27.4810  -22.3415  -15.6942 O   0  0  0  0  0  0  0  0  0  0  0  0
   25.8085  -22.2158  -13.9850 C   0  0  0  0  0  0  0  0  0  0  0  0
   26.3248  -21.3088  -12.8931 C   0  0  0  0  0  0  0  0  0  0  0  0
   25.2115  -20.8378  -11.9844 C   0  0  2  0  0  0  0  0  0  0  0  0
   24.3278  -19.9800  -12.7571 N   0  0  0  0  0  0  0  0  0  0  0  0
   25.8529  -20.0900  -10.8707 C   0  0  0  0  0  0  0  0  0  0  0  0
   26.1899  -18.9050  -11.0372 O   0  0  0  0  0  0  0  0  0  0  0  0
   26.0737  -20.7384   -9.6288 N   0  0  0  0  0  0  0  0  0  0  0  0
   27.0331  -20.2390   -8.6308 C   0  0  1  0  0  0  0  0  0  0  0  0
   26.2946  -19.8548   -7.3633 C   0  0  0  0  0  0  0  0  0  0  0  0
   27.1737  -19.5104   -6.2374 C   0  0  0  0  0  0  0  0  0  0  0  0
   27.6683  -18.2246   -6.0864 C   0  0  0  0  0  0  0  0  0  0  0  0
   28.4882  -17.8848   -5.0284 C   0  0  0  0  0  0  0  0  0  0  0  0
   28.8472  -18.8113   -4.0802 C   0  0  0  0  0  0  0  0  0  0  0  0
   28.3625  -20.0952   -4.2175 C   0  0  0  0  0  0  0  0  0  0  0  0
   27.5368  -20.4333   -5.2847 C   0  0  0  0  0  0  0  0  0  0  0  0
   28.1400  -21.1671   -8.4297 C   0  0  0  0  0  0  0  0  0  0  0  0
   29.4182  -20.6901   -8.1985 O   0  0  0  0  0  0  0  0  0  0  0  0
   28.0218  -22.4358   -8.4510 O   0  0  0  0  0  0  0  0  0  0  0  0
  1  2  1  0
  3  2  1  0
  4  3  2  0
  5  6  1  0
  6  7  2  0
  8  9  1  0
  8  6  1  0
 10  9  1  6
 10 11  1  0
 10 12  1  0
 11  3  1  0
 12 13  2  0
 12 14  1  0
 14 15  1  0
 15 16  1  1
 15 23  1  0
 16 17  1  0
 17 22  2  0
 18 19  2  0
 18 17  1  0
 19 20  1  0
 20 21  2  0
 22 21  1  0
 23 24  1  0
 25 23  2  0
M  END
$$$$
