GQF.pdb
     RDKit          3D

 25 25  0  0  1  0  0  0  0  0999 V2000
   28.1629  -18.3748  -15.5375 N   0  0  0  0  0  0  0  0  0  0  0  0
   27.9096  -19.6172  -14.8590 C   0  0  0  0  0  0  0  0  0  0  0  0
   27.0531  -19.4009  -13.6397 C   0  0  0  0  0  0  0  0  0  0  0  0
   27.0392  -18.2693  -13.0716 O   0  0  0  0  0  0  0  0  0  0  0  0
   21.6022  -20.6981  -11.5570 N   0  0  0  0  0  0  0  0  0  0  0  0
   21.9814  -20.2929  -12.8497 C   0  0  0  0  0  0  0  0  0  0  0  0
   21.1534  -19.7686  -13.6515 O   0  0  0  0  0  0  0  0  0  0  0  0
   23.3990  -20.4994  -13.2546 C   0  0  0  0  0  0  0  0  0  0  0  0
   24.1672  -21.0265  -12.0658 C   0  0  0  0  0  0  0  0  0  0  0  0
   25.4796  -20.2984  -11.8804 C   0  0  2  0  0  0  0  0  0  0  0  0
   26.2531  -20.4394  -13.1034 N   0  0  0  0  0  0  0  0  0  0  0  0
   26.1679  -20.9393  -10.7287 C   0  0  0  0  0  0  0  0  0  0  0  0
   26.5268  -22.1269  -10.8080 O   0  0  0  0  0  0  0  0  0  0  0  0
   26.4073  -20.1872   -9.5503 N   0  0  0  0  0  0  0  0  0  0  0  0
   26.9720  -20.7821   -8.3285 C   0  0  1  0  0  0  0  0  0  0  0  0
   28.2678  -20.0793   -7.9728 C   0  0  0  0  0  0  0  0  0  0  0  0
   28.4656  -19.8789   -6.5306 C   0  0  0  0  0  0  0  0  0  0  0  0
   27.9746  -18.7501   -5.8937 C   0  0  0  0  0  0  0  0  0  0  0  0
   28.1455  -18.5531   -4.5376 C   0  0  0  0  0  0  0  0  0  0  0  0
   28.8114  -19.4716   -3.7634 C   0  0  0  0  0  0  0  0  0  0  0  0
   29.3057  -20.5999   -4.3835 C   0  0  0  0  0  0  0  0  0  0  0  0
   29.1313  -20.7945   -5.7498 C   0  0  0  0  0  0  0  0  0  0  0  0
   25.9941  -20.8339   -7.2477 C   0  0  0  0  0  0  0  0  0  0  0  0
   24.8652  -20.0349   -7.2883 O   0  0  0  0  0  0  0  0  0  0  0  0
   26.0989  -21.5866   -6.2245 O   0  0  0  0  0  0  0  0  0  0  0  0
  1  2  1  0
  3  2  1  0
  4  3  2  0
  5  6  1  0
  6  7  2  0
  8  9  1  0
  8  6  1  0
 10  9  1  6
 10 11  1  0
 10 12  1  0
 11  3  1  0
 12 13  2  0
 12 14  1  0
 14 15  1  0
 15 16  1  1
 15 23  1  0
 16 17  1  0
 17 22  2  0
 18 19  2  0
 18 17  1  0
 19 20  1  0
 20 21  2  0
 22 21  1  0
 23 24  1  0
 25 23  2  0
M  END
$$$$
