GQF.pdb
     RDKit          3D

 25 25  0  0  1  0  0  0  0  0999 V2000
   18.7275  -12.5019  -21.2134 N   0  0  0  0  0  0  0  0  0  0  0  0
   18.3849  -12.1058  -19.8741 C   0  0  0  0  0  0  0  0  0  0  0  0
   19.0929  -10.8336  -19.4903 C   0  0  0  0  0  0  0  0  0  0  0  0
   20.1114  -10.4575  -20.1419 O   0  0  0  0  0  0  0  0  0  0  0  0
   16.8005   -6.5622  -15.6316 N   0  0  0  0  0  0  0  0  0  0  0  0
   18.1087   -6.0523  -15.7180 C   0  0  0  0  0  0  0  0  0  0  0  0
   18.4492   -4.9906  -15.1177 O   0  0  0  0  0  0  0  0  0  0  0  0
   19.0938   -6.8031  -16.5436 C   0  0  0  0  0  0  0  0  0  0  0  0
   18.4250   -8.0476  -17.0777 C   0  0  0  0  0  0  0  0  0  0  0  0
   19.3678   -8.8675  -17.9297 C   0  0  2  0  0  0  0  0  0  0  0  0
   18.6469  -10.0358  -18.4082 N   0  0  0  0  0  0  0  0  0  0  0  0
   20.5080   -9.2555  -17.0576 C   0  0  0  0  0  0  0  0  0  0  0  0
   20.5833  -10.4173  -16.6217 O   0  0  0  0  0  0  0  0  0  0  0  0
   21.4985   -8.2940  -16.7323 N   0  0  0  0  0  0  0  0  0  0  0  0
   22.7706   -8.6511  -16.0844 C   0  0  1  0  0  0  0  0  0  0  0  0
   23.5643   -9.5691  -16.9938 C   0  0  0  0  0  0  0  0  0  0  0  0
   24.9232   -9.8592  -16.5159 C   0  0  0  0  0  0  0  0  0  0  0  0
   25.1335  -10.6840  -15.4221 C   0  0  0  0  0  0  0  0  0  0  0  0
   26.4052  -10.9722  -14.9676 C   0  0  0  0  0  0  0  0  0  0  0  0
   27.5164  -10.4508  -15.5840 C   0  0  0  0  0  0  0  0  0  0  0  0
   27.3226   -9.6281  -16.6738 C   0  0  0  0  0  0  0  0  0  0  0  0
   26.0398   -9.3404  -17.1285 C   0  0  0  0  0  0  0  0  0  0  0  0
   23.4981   -7.4719  -15.6292 C   0  0  0  0  0  0  0  0  0  0  0  0
   23.5369   -6.3304  -16.4104 O   0  0  0  0  0  0  0  0  0  0  0  0
   24.1287   -7.4037  -14.5238 O   0  0  0  0  0  0  0  0  0  0  0  0
  1  2  1  0
  3  2  1  0
  4  3  2  0
  5  6  1  0
  6  7  2  0
  8  9  1  0
  8  6  1  0
 10  9  1  1
 10 11  1  0
 10 12  1  0
 11  3  1  0
 12 13  2  0
 12 14  1  0
 14 15  1  0
 15 16  1  6
 15 23  1  0
 16 17  1  0
 17 22  2  0
 18 19  2  0
 18 17  1  0
 19 20  1  0
 20 21  2  0
 22 21  1  0
 23 24  1  0
 25 23  2  0
M  END
$$$$
