GQF.pdb
     RDKit          3D

 25 25  0  0  1  0  0  0  0  0999 V2000
   30.7740  -23.7402  -17.8069 N   0  0  0  0  0  0  0  0  0  0  0  0
   29.9328  -24.2382  -16.7521 C   0  0  0  0  0  0  0  0  0  0  0  0
   28.7259  -24.9430  -17.3124 C   0  0  0  0  0  0  0  0  0  0  0  0
   28.5450  -24.9846  -18.5649 O   0  0  0  0  0  0  0  0  0  0  0  0
   28.5385  -30.3725  -17.5037 N   0  0  0  0  0  0  0  0  0  0  0  0
   27.5347  -29.4093  -17.2947 C   0  0  0  0  0  0  0  0  0  0  0  0
   26.5140  -29.3404  -18.0410 O   0  0  0  0  0  0  0  0  0  0  0  0
   27.7065  -28.4619  -16.1594 C   0  0  0  0  0  0  0  0  0  0  0  0
   26.4931  -27.5649  -16.0933 C   0  0  0  0  0  0  0  0  0  0  0  0
   26.6525  -26.3429  -16.9699 C   0  0  2  0  0  0  0  0  0  0  0  0
   27.7758  -25.5683  -16.4682 N   0  0  0  0  0  0  0  0  0  0  0  0
   25.3817  -25.5767  -16.8744 C   0  0  0  0  0  0  0  0  0  0  0  0
   25.1119  -24.9579  -15.8305 O   0  0  0  0  0  0  0  0  0  0  0  0
   24.4902  -25.5604  -17.9773 N   0  0  0  0  0  0  0  0  0  0  0  0
   23.2191  -24.8191  -17.9612 C   0  0  1  0  0  0  0  0  0  0  0  0
   23.1539  -23.8953  -19.1620 C   0  0  0  0  0  0  0  0  0  0  0  0
   21.8812  -23.1730  -19.2953 C   0  0  0  0  0  0  0  0  0  0  0  0
   21.7114  -21.9179  -18.7325 C   0  0  0  0  0  0  0  0  0  0  0  0
   20.5241  -21.2240  -18.8574 C   0  0  0  0  0  0  0  0  0  0  0  0
   19.4602  -21.7524  -19.5469 C   0  0  0  0  0  0  0  0  0  0  0  0
   19.6145  -23.0008  -20.1124 C   0  0  0  0  0  0  0  0  0  0  0  0
   20.8123  -23.6964  -19.9843 C   0  0  0  0  0  0  0  0  0  0  0  0
   22.0729  -25.7095  -17.8185 C   0  0  0  0  0  0  0  0  0  0  0  0
   22.0574  -26.9362  -18.4587 O   0  0  0  0  0  0  0  0  0  0  0  0
   21.0395  -25.4386  -17.1234 O   0  0  0  0  0  0  0  0  0  0  0  0
  1  2  1  0
  3  2  1  0
  4  3  2  0
  5  6  1  0
  6  7  2  0
  8  9  1  0
  8  6  1  0
 10  9  1  1
 10 11  1  0
 10 12  1  0
 11  3  1  0
 12 13  2  0
 12 14  1  0
 14 15  1  0
 15 16  1  6
 15 23  1  0
 16 17  1  0
 17 22  2  0
 18 19  2  0
 18 17  1  0
 19 20  1  0
 20 21  2  0
 22 21  1  0
 23 24  1  0
 25 23  2  0
M  END
$$$$
