GQF.pdb
     RDKit          3D

 25 25  0  0  1  0  0  0  0  0999 V2000
   28.4565  -22.1277  -15.7831 N   0  0  0  0  0  0  0  0  0  0  0  0
   27.0413  -22.1397  -15.5279 C   0  0  0  0  0  0  0  0  0  0  0  0
   26.6635  -21.0735  -14.5341 C   0  0  0  0  0  0  0  0  0  0  0  0
   26.4226  -19.8963  -14.9333 O   0  0  0  0  0  0  0  0  0  0  0  0
   21.7606  -21.5751  -13.0127 N   0  0  0  0  0  0  0  0  0  0  0  0
   21.9264  -20.5777  -12.0347 C   0  0  0  0  0  0  0  0  0  0  0  0
   20.9346  -20.0341  -11.4650 O   0  0  0  0  0  0  0  0  0  0  0  0
   23.3153  -20.1734  -11.6831 C   0  0  0  0  0  0  0  0  0  0  0  0
   24.2760  -20.9343  -12.5658 C   0  0  0  0  0  0  0  0  0  0  0  0
   25.7156  -20.6033  -12.2414 C   0  0  2  0  0  0  0  0  0  0  0  0
   26.5689  -21.3531  -13.1487 N   0  0  0  0  0  0  0  0  0  0  0  0
   25.9417  -21.0077  -10.8284 C   0  0  0  0  0  0  0  0  0  0  0  0
   25.6009  -22.1416  -10.4496 O   0  0  0  0  0  0  0  0  0  0  0  0
   26.5446  -20.0935   -9.9272 N   0  0  0  0  0  0  0  0  0  0  0  0
   26.8064  -20.4230   -8.5171 C   0  0  1  0  0  0  0  0  0  0  0  0
   27.7049  -19.3651   -7.9061 C   0  0  0  0  0  0  0  0  0  0  0  0
   28.0613  -19.6178   -6.5031 C   0  0  0  0  0  0  0  0  0  0  0  0
   27.7815  -18.6848   -5.5172 C   0  0  0  0  0  0  0  0  0  0  0  0
   28.1028  -18.9128   -4.1937 C   0  0  0  0  0  0  0  0  0  0  0  0
   28.7149  -20.0778   -3.8005 C   0  0  0  0  0  0  0  0  0  0  0  0
   28.9997  -21.0156   -4.7707 C   0  0  0  0  0  0  0  0  0  0  0  0
   28.6742  -20.7820   -6.1029 C   0  0  0  0  0  0  0  0  0  0  0  0
   25.5730  -20.6705   -7.7791 C   0  0  0  0  0  0  0  0  0  0  0  0
   25.5577  -21.5666   -6.7248 O   0  0  0  0  0  0  0  0  0  0  0  0
   24.4602  -20.1055   -8.0371 O   0  0  0  0  0  0  0  0  0  0  0  0
  1  2  1  0
  3  2  1  0
  4  3  2  0
  5  6  1  0
  6  7  2  0
  8  9  1  0
  8  6  1  0
 10  9  1  6
 10 11  1  0
 10 12  1  0
 11  3  1  0
 12 13  2  0
 12 14  1  0
 14 15  1  0
 15 16  1  1
 15 23  1  0
 16 17  1  0
 17 22  2  0
 18 19  2  0
 18 17  1  0
 19 20  1  0
 20 21  2  0
 22 21  1  0
 23 24  1  0
 25 23  2  0
M  END
$$$$
