GQF.pdb
     RDKit          3D

 25 25  0  0  1  0  0  0  0  0999 V2000
   25.4306  -32.2231   -8.5100 N   0  0  0  0  0  0  0  0  0  0  0  0
   26.7951  -32.2435   -8.0564 C   0  0  0  0  0  0  0  0  0  0  0  0
   27.0175  -33.3559   -7.0663 C   0  0  0  0  0  0  0  0  0  0  0  0
   26.0546  -34.1097   -6.7379 O   0  0  0  0  0  0  0  0  0  0  0  0
   30.1342  -37.3187   -4.2638 N   0  0  0  0  0  0  0  0  0  0  0  0
   30.1934  -37.4675   -5.6614 C   0  0  0  0  0  0  0  0  0  0  0  0
   30.3059  -38.6060   -6.2044 O   0  0  0  0  0  0  0  0  0  0  0  0
   30.1195  -36.2364   -6.4949 C   0  0  0  0  0  0  0  0  0  0  0  0
   29.9701  -35.0440   -5.5800 C   0  0  0  0  0  0  0  0  0  0  0  0
   28.5286  -34.5999   -5.4708 C   0  0  2  0  0  0  0  0  0  0  0  0
   28.2884  -33.5860   -6.4847 N   0  0  0  0  0  0  0  0  0  0  0  0
   28.3514  -34.0477   -4.1016 C   0  0  0  0  0  0  0  0  0  0  0  0
   28.9750  -33.0269   -3.7630 O   0  0  0  0  0  0  0  0  0  0  0  0
   27.4715  -34.6931   -3.1956 N   0  0  0  0  0  0  0  0  0  0  0  0
   27.0601  -34.0872   -1.9192 C   0  0  1  0  0  0  0  0  0  0  0  0
   26.4993  -32.7011   -2.1716 C   0  0  0  0  0  0  0  0  0  0  0  0
   25.8281  -32.1042   -1.0087 C   0  0  0  0  0  0  0  0  0  0  0  0
   24.4913  -31.7426   -1.0649 C   0  0  0  0  0  0  0  0  0  0  0  0
   23.8456  -31.1889    0.0230 C   0  0  0  0  0  0  0  0  0  0  0  0
   24.5052  -30.9738    1.2083 C   0  0  0  0  0  0  0  0  0  0  0  0
   25.8361  -31.3286    1.2791 C   0  0  0  0  0  0  0  0  0  0  0  0
   26.4827  -31.8862    0.1809 C   0  0  0  0  0  0  0  0  0  0  0  0
   26.1805  -34.9676   -1.1587 C   0  0  0  0  0  0  0  0  0  0  0  0
   26.2814  -35.0350    0.2197 O   0  0  0  0  0  0  0  0  0  0  0  0
   25.2886  -35.7126   -1.6820 O   0  0  0  0  0  0  0  0  0  0  0  0
  1  2  1  0
  3  2  1  0
  4  3  2  0
  5  6  1  0
  6  7  2  0
  8  9  1  0
  8  6  1  0
 10  9  1  1
 10 11  1  0
 10 12  1  0
 11  3  1  0
 12 13  2  0
 12 14  1  0
 14 15  1  0
 15 16  1  6
 15 23  1  0
 16 17  1  0
 17 22  2  0
 18 19  2  0
 18 17  1  0
 19 20  1  0
 20 21  2  0
 22 21  1  0
 23 24  1  0
 25 23  2  0
M  END
$$$$
