GQF.pdb
     RDKit          3D

 25 25  0  0  1  0  0  0  0  0999 V2000
   25.7929  -12.5365  -20.8810 N   0  0  0  0  0  0  0  0  0  0  0  0
   25.5135  -12.5925  -19.4715 C   0  0  0  0  0  0  0  0  0  0  0  0
   24.4697  -11.5773  -19.0879 C   0  0  0  0  0  0  0  0  0  0  0  0
   24.7539  -10.3435  -19.1050 O   0  0  0  0  0  0  0  0  0  0  0  0
   18.5048  -13.0040  -18.0125 N   0  0  0  0  0  0  0  0  0  0  0  0
   18.4044  -11.6018  -17.9614 C   0  0  0  0  0  0  0  0  0  0  0  0
   17.2824  -11.0173  -17.9063 O   0  0  0  0  0  0  0  0  0  0  0  0
   19.6675  -10.8139  -17.9739 C   0  0  0  0  0  0  0  0  0  0  0  0
   20.8221  -11.7594  -18.2069 C   0  0  0  0  0  0  0  0  0  0  0  0
   22.1409  -11.0232  -18.2843 C   0  0  2  0  0  0  0  0  0  0  0  0
   23.1634  -11.9677  -18.7039 N   0  0  0  0  0  0  0  0  0  0  0  0
   22.4189  -10.4950  -16.9225 C   0  0  0  0  0  0  0  0  0  0  0  0
   22.5939  -11.2849  -15.9786 O   0  0  0  0  0  0  0  0  0  0  0  0
   22.4814   -9.0933  -16.7153 N   0  0  0  0  0  0  0  0  0  0  0  0
   22.8124   -8.4964  -15.4115 C   0  0  1  0  0  0  0  0  0  0  0  0
   24.1380   -7.7663  -15.5085 C   0  0  0  0  0  0  0  0  0  0  0  0
   25.2553   -8.6080  -15.9585 C   0  0  0  0  0  0  0  0  0  0  0  0
   25.9696   -8.2923  -17.1035 C   0  0  0  0  0  0  0  0  0  0  0  0
   27.0273   -9.0693  -17.5331 C   0  0  0  0  0  0  0  0  0  0  0  0
   27.4147  -10.1900  -16.8399 C   0  0  0  0  0  0  0  0  0  0  0  0
   26.7130  -10.5166  -15.6985 C   0  0  0  0  0  0  0  0  0  0  0  0
   25.6482   -9.7312  -15.2691 C   0  0  0  0  0  0  0  0  0  0  0  0
   21.7143   -7.6920  -14.8880 C   0  0  0  0  0  0  0  0  0  0  0  0
   21.7838   -7.1612  -13.6120 O   0  0  0  0  0  0  0  0  0  0  0  0
   20.6498   -7.4270  -15.5368 O   0  0  0  0  0  0  0  0  0  0  0  0
  1  2  1  0
  3  2  1  0
  4  3  2  0
  5  6  1  0
  6  7  2  0
  8  9  1  0
  8  6  1  0
 10  9  1  1
 10 11  1  0
 10 12  1  0
 11  3  1  0
 12 13  2  0
 12 14  1  0
 14 15  1  0
 15 16  1  6
 15 23  1  0
 16 17  1  0
 17 22  2  0
 18 19  2  0
 18 17  1  0
 19 20  1  0
 20 21  2  0
 22 21  1  0
 23 24  1  0
 25 23  2  0
M  END
$$$$
