GQF.pdb
     RDKit          3D

 25 25  0  0  1  0  0  0  0  0999 V2000
   17.2287  -13.3694  -17.3534 N   0  0  0  0  0  0  0  0  0  0  0  0
   16.7070  -12.1005  -16.9223 C   0  0  0  0  0  0  0  0  0  0  0  0
   17.6950  -10.9946  -17.1831 C   0  0  0  0  0  0  0  0  0  0  0  0
   18.5327  -11.1067  -18.1259 O   0  0  0  0  0  0  0  0  0  0  0  0
   17.0940   -5.2882  -14.8910 N   0  0  0  0  0  0  0  0  0  0  0  0
   18.3234   -5.0959  -15.5470 C   0  0  0  0  0  0  0  0  0  0  0  0
   18.8853   -3.9618  -15.5868 O   0  0  0  0  0  0  0  0  0  0  0  0
   18.9538   -6.2753  -16.2010 C   0  0  0  0  0  0  0  0  0  0  0  0
   18.0414   -7.4664  -16.0278 C   0  0  0  0  0  0  0  0  0  0  0  0
   18.6404   -8.7210  -16.6232 C   0  0  2  0  0  0  0  0  0  0  0  0
   17.7146   -9.8183  -16.3942 N   0  0  0  0  0  0  0  0  0  0  0  0
   19.9344   -8.9514  -15.9279 C   0  0  0  0  0  0  0  0  0  0  0  0
   19.9391   -9.3418  -14.7476 O   0  0  0  0  0  0  0  0  0  0  0  0
   21.1508   -8.7227  -16.6203 N   0  0  0  0  0  0  0  0  0  0  0  0
   22.4689   -8.9735  -16.0158 C   0  0  1  0  0  0  0  0  0  0  0  0
   23.3290   -9.7650  -16.9819 C   0  0  0  0  0  0  0  0  0  0  0  0
   24.7008   -9.9997  -16.5105 C   0  0  0  0  0  0  0  0  0  0  0  0
   24.9878  -11.0401  -15.6410 C   0  0  0  0  0  0  0  0  0  0  0  0
   26.2736  -11.2777  -15.1969 C   0  0  0  0  0  0  0  0  0  0  0  0
   27.3230  -10.4890  -15.6009 C   0  0  0  0  0  0  0  0  0  0  0  0
   27.0526   -9.4496  -16.4660 C   0  0  0  0  0  0  0  0  0  0  0  0
   25.7559   -9.2138  -16.9111 C   0  0  0  0  0  0  0  0  0  0  0  0
   23.0831   -7.7458  -15.5235 C   0  0  0  0  0  0  0  0  0  0  0  0
   23.7454   -7.7346  -14.3086 O   0  0  0  0  0  0  0  0  0  0  0  0
   23.0582   -6.6344  -16.1468 O   0  0  0  0  0  0  0  0  0  0  0  0
  1  2  1  0
  3  2  1  0
  4  3  2  0
  5  6  1  0
  6  7  2  0
  8  9  1  0
  8  6  1  0
 10  9  1  1
 10 11  1  0
 10 12  1  0
 11  3  1  0
 12 13  2  0
 12 14  1  0
 14 15  1  0
 15 16  1  6
 15 23  1  0
 16 17  1  0
 17 22  2  0
 18 19  2  0
 18 17  1  0
 19 20  1  0
 20 21  2  0
 22 21  1  0
 23 24  1  0
 25 23  2  0
M  END
$$$$
