PWM.pdb
     RDKit          3D

 30 32  0  0  1  0  0  0  0  0999 V2000
    9.4192  -18.7504   19.7834 N   0  0  0  0  0  0  0  0  0  0  0  0
    9.4952  -19.1112   18.3613 C   0  0  0  0  0  0  0  0  0  0  0  0
    9.4322  -17.7825   17.6290 C   0  0  0  0  0  0  0  0  0  0  0  0
    9.8324  -16.7672   18.6755 C   0  0  0  0  0  0  0  0  0  0  0  0
   10.3345  -17.6208   19.8026 C   0  0  1  0  0  0  0  0  0  0  0  0
   10.3166  -16.9257   21.1087 C   0  0  0  0  0  0  0  0  0  0  0  0
   11.1909  -16.0535   21.3288 O   0  0  0  0  0  0  0  0  0  0  0  0
    9.3641  -17.2071   22.0990 N   0  0  0  0  0  0  0  0  0  0  0  0
    9.1482  -16.3395   23.2844 C   0  0  1  0  0  0  0  0  0  0  0  0
    7.6796  -16.0643   23.4168 C   0  0  0  0  0  0  0  0  0  0  0  0
    7.4152  -14.6356   23.6166 C   0  0  0  0  0  0  0  0  0  0  0  0
    7.5659  -13.6347   22.6517 C   0  0  0  0  0  0  0  0  0  0  0  0
    7.2531  -12.4674   23.2258 N   0  0  0  0  0  0  0  0  0  0  0  0
    6.9094  -12.6481   24.5010 C   0  0  0  0  0  0  0  0  0  0  0  0
    6.5094  -11.7924   25.5194 C   0  0  0  0  0  0  0  0  0  0  0  0
    6.2089  -12.2545   26.7724 C   0  0  0  0  0  0  0  0  0  0  0  0
    6.2992  -13.6030   27.0523 C   0  0  0  0  0  0  0  0  0  0  0  0
    6.6985  -14.4469   26.0310 C   0  0  0  0  0  0  0  0  0  0  0  0
    7.0016  -13.9798   24.7670 C   0  0  0  0  0  0  0  0  0  0  0  0
    9.7625  -17.0259   24.4290 C   0  0  0  0  0  0  0  0  0  0  0  0
    9.7733  -18.3007   24.4180 O   0  0  0  0  0  0  0  0  0  0  0  0
   10.4088  -14.4516   30.3405 C   0  0  0  0  0  0  0  0  0  0  0  0
    9.7415  -14.3312   28.6549 S   0  0  0  0  0  0  0  0  0  0  0  0
   11.0161  -14.8253   27.4383 C   0  0  0  0  0  0  0  0  0  0  0  0
   11.4650  -16.2452   27.6977 C   0  0  0  0  0  0  0  0  0  0  0  0
   10.9581  -17.1961   26.6340 C   0  0  2  0  0  0  0  0  0  0  0  0
   10.3579  -16.4233   25.5608 N   0  0  0  0  0  0  0  0  0  0  0  0
   10.0969  -18.2470   27.1779 C   0  0  0  0  0  0  0  0  0  0  0  0
   10.6098  -19.0690   28.0083 O   0  0  0  0  0  0  0  0  0  0  0  0
    8.7603  -18.4492   26.8829 O   0  0  0  0  0  0  0  0  0  0  0  0
  1  2  1  0
  3  2  1  0
  4  3  1  0
  5  4  1  0
  5  1  1  0
  6  7  2  0
  5  6  1  1
  8  6  1  0
  9  8  1  0
 10 11  1  0
  9 10  1  1
 11 12  2  0
 11 19  1  0
 12 13  1  0
 13 14  1  0
 14 15  2  0
 15 16  1  0
 17 16  2  0
 18 17  1  0
 19 18  2  0
 19 14  1  0
 20 27  1  0
 20  9  1  0
 21 20  2  0
 22 23  1  0
 23 24  1  0
 26 25  1  1
 25 24  1  0
 26 27  1  0
 28 26  1  0
 29 28  2  0
 30 28  1  0
M  END
$$$$
