PWM.pdb
     RDKit          3D

 30 32  0  0  1  0  0  0  0  0999 V2000
    9.0065  -18.1458   20.1992 N   0  0  0  0  0  0  0  0  0  0  0  0
    8.7659  -19.0718   19.0844 C   0  0  0  0  0  0  0  0  0  0  0  0
    7.7101  -18.3817   18.2391 C   0  0  0  0  0  0  0  0  0  0  0  0
    7.8035  -16.9292   18.6487 C   0  0  0  0  0  0  0  0  0  0  0  0
    9.0576  -16.8881   19.4713 C   0  0  1  0  0  0  0  0  0  0  0  0
    9.1117  -15.7282   20.3884 C   0  0  0  0  0  0  0  0  0  0  0  0
    8.4787  -14.6922   20.0729 O   0  0  0  0  0  0  0  0  0  0  0  0
    9.8401  -15.7486   21.5868 N   0  0  0  0  0  0  0  0  0  0  0  0
    9.2808  -15.2860   22.8821 C   0  0  1  0  0  0  0  0  0  0  0  0
    7.9168  -15.8849   23.0572 C   0  0  0  0  0  0  0  0  0  0  0  0
    7.2430  -15.3516   24.2458 C   0  0  0  0  0  0  0  0  0  0  0  0
    6.5604  -16.1064   25.2049 C   0  0  0  0  0  0  0  0  0  0  0  0
    6.0660  -15.2572   26.1128 N   0  0  0  0  0  0  0  0  0  0  0  0
    6.3845  -14.0004   25.8031 C   0  0  0  0  0  0  0  0  0  0  0  0
    6.1272  -12.7699   26.3941 C   0  0  0  0  0  0  0  0  0  0  0  0
    6.5847  -11.5998   25.8504 C   0  0  0  0  0  0  0  0  0  0  0  0
    7.3232  -11.6211   24.6845 C   0  0  0  0  0  0  0  0  0  0  0  0
    7.5740  -12.8518   24.1040 C   0  0  0  0  0  0  0  0  0  0  0  0
    7.1120  -14.0320   24.6532 C   0  0  0  0  0  0  0  0  0  0  0  0
   10.2596  -15.6435   23.9178 C   0  0  0  0  0  0  0  0  0  0  0  0
   10.9463  -14.7010   24.4332 O   0  0  0  0  0  0  0  0  0  0  0  0
   10.4084  -12.8216   28.2769 C   0  0  0  0  0  0  0  0  0  0  0  0
   10.3239  -14.5532   28.8205 S   0  0  0  0  0  0  0  0  0  0  0  0
   11.2911  -15.6152   27.6866 C   0  0  0  0  0  0  0  0  0  0  0  0
   10.3659  -16.3719   26.7612 C   0  0  0  0  0  0  0  0  0  0  0  0
   11.1349  -17.1599   25.7219 C   0  0  2  0  0  0  0  0  0  0  0  0
   10.5295  -16.9369   24.4208 N   0  0  0  0  0  0  0  0  0  0  0  0
   11.2928  -18.5694   26.0825 C   0  0  0  0  0  0  0  0  0  0  0  0
   12.3702  -18.9184   26.6705 O   0  0  0  0  0  0  0  0  0  0  0  0
   10.3815  -19.5844   25.8501 O   0  0  0  0  0  0  0  0  0  0  0  0
  1  2  1  0
  3  2  1  0
  4  3  1  0
  5  4  1  0
  5  1  1  0
  6  7  2  0
  5  6  1  1
  8  6  1  0
  9  8  1  0
 10 11  1  0
  9 10  1  1
 11 12  2  0
 11 19  1  0
 12 13  1  0
 13 14  1  0
 14 15  2  0
 15 16  1  0
 17 16  2  0
 18 17  1  0
 19 18  2  0
 19 14  1  0
 20 27  1  0
 20  9  1  0
 21 20  2  0
 22 23  1  0
 23 24  1  0
 26 25  1  1
 25 24  1  0
 26 27  1  0
 28 26  1  0
 29 28  2  0
 30 28  1  0
M  END
$$$$
