PWM.pdb
     RDKit          3D

 30 32  0  0  1  0  0  0  0  0999 V2000
    8.6331  -15.5729   18.9428 N   0  0  0  0  0  0  0  0  0  0  0  0
    8.5932  -15.2454   17.5112 C   0  0  0  0  0  0  0  0  0  0  0  0
    8.2039  -13.7784   17.4683 C   0  0  0  0  0  0  0  0  0  0  0  0
    8.5451  -13.2674   18.8498 C   0  0  0  0  0  0  0  0  0  0  0  0
    9.3280  -14.3994   19.4470 C   0  0  1  0  0  0  0  0  0  0  0  0
    9.3506  -14.3718   20.9263 C   0  0  0  0  0  0  0  0  0  0  0  0
    9.9028  -13.3986   21.4933 O   0  0  0  0  0  0  0  0  0  0  0  0
    8.7808  -15.3877   21.7076 N   0  0  0  0  0  0  0  0  0  0  0  0
    8.5783  -15.2646   23.1733 C   0  0  1  0  0  0  0  0  0  0  0  0
    7.2962  -15.9513   23.5401 C   0  0  0  0  0  0  0  0  0  0  0  0
    6.5694  -15.2155   24.5801 C   0  0  0  0  0  0  0  0  0  0  0  0
    5.4980  -15.7084   25.3315 C   0  0  0  0  0  0  0  0  0  0  0  0
    5.0945  -14.7315   26.1518 N   0  0  0  0  0  0  0  0  0  0  0  0
    5.8359  -13.6372   25.9797 C   0  0  0  0  0  0  0  0  0  0  0  0
    5.8368  -12.3753   26.5605 C   0  0  0  0  0  0  0  0  0  0  0  0
    6.7326  -11.4104   26.1860 C   0  0  0  0  0  0  0  0  0  0  0  0
    7.6682  -11.6778   25.2070 C   0  0  0  0  0  0  0  0  0  0  0  0
    7.6589  -12.9376   24.6349 C   0  0  0  0  0  0  0  0  0  0  0  0
    6.7547  -13.9107   25.0135 C   0  0  0  0  0  0  0  0  0  0  0  0
    9.7844  -15.8058   23.8144 C   0  0  0  0  0  0  0  0  0  0  0  0
   10.5808  -16.4916   23.0927 O   0  0  0  0  0  0  0  0  0  0  0  0
   10.7545  -15.4219   30.1782 C   0  0  0  0  0  0  0  0  0  0  0  0
   11.0974  -13.9781   29.1301 S   0  0  0  0  0  0  0  0  0  0  0  0
   10.9857  -14.4437   27.3638 C   0  0  0  0  0  0  0  0  0  0  0  0
   11.5212  -15.8419   27.1561 C   0  0  0  0  0  0  0  0  0  0  0  0
   11.3392  -16.3046   25.7259 C   0  0  2  0  0  0  0  0  0  0  0  0
   10.1724  -15.6469   25.1645 N   0  0  0  0  0  0  0  0  0  0  0  0
   11.3320  -17.7625   25.5991 C   0  0  0  0  0  0  0  0  0  0  0  0
   10.2129  -18.3379   25.3869 O   0  0  0  0  0  0  0  0  0  0  0  0
   12.4295  -18.6007   25.6859 O   0  0  0  0  0  0  0  0  0  0  0  0
  1  2  1  0
  3  2  1  0
  4  3  1  0
  5  4  1  0
  5  1  1  0
  6  7  2  0
  5  6  1  1
  8  6  1  0
  9  8  1  0
 10 11  1  0
  9 10  1  1
 11 12  2  0
 11 19  1  0
 12 13  1  0
 13 14  1  0
 14 15  2  0
 15 16  1  0
 17 16  2  0
 18 17  1  0
 19 18  2  0
 19 14  1  0
 20 27  1  0
 20  9  1  0
 21 20  2  0
 22 23  1  0
 23 24  1  0
 26 25  1  1
 25 24  1  0
 26 27  1  0
 28 26  1  0
 29 28  2  0
 30 28  1  0
M  END
$$$$
