EVV.pdb
     RDKit          3D

 24 23  0  0  1  0  0  0  0  0999 V2000
    8.7194  -14.8965   20.6499 N   0  0  0  0  0  0  0  0  0  0  0  0
    8.2137  -15.6329   21.7680 C   0  0  1  0  0  0  0  0  0  0  0  0
    8.5114  -17.0948   21.6680 C   0  0  0  0  0  0  0  0  0  0  0  0
    7.8526  -17.7850   20.5280 C   0  0  0  0  0  0  0  0  0  0  0  0
    7.9997  -19.2486   20.5130 C   0  0  0  0  0  0  0  0  0  0  0  0
    7.6921  -20.0352   21.4346 O   0  0  0  0  0  0  0  0  0  0  0  0
    8.6543  -15.0597   23.0683 C   0  0  0  0  0  0  0  0  0  0  0  0
    9.8817  -14.8520   23.2454 O   0  0  0  0  0  0  0  0  0  0  0  0
    8.5374  -19.8353   19.3555 O   0  0  0  0  0  0  0  0  0  0  0  0
    6.7090  -12.2708   25.2208 C   0  0  0  0  0  0  0  0  0  0  0  0
    7.0987  -13.4764   26.0527 C   0  0  2  0  0  0  0  0  0  0  0  0
    7.6214  -12.9624   27.3795 C   0  0  0  0  0  0  0  0  0  0  0  0
    8.2421  -14.2367   25.3710 C   0  0  2  0  0  0  0  0  0  0  0  0
    7.7677  -14.7365   24.1136 N   0  0  0  0  0  0  0  0  0  0  0  0
    8.7236  -15.3136   26.2671 C   0  0  0  0  0  0  0  0  0  0  0  0
    7.9578  -16.2499   26.6028 O   0  0  0  0  0  0  0  0  0  0  0  0
   12.4432  -17.9748   28.0906 C   0  0  0  0  0  0  0  0  0  0  0  0
   11.9176  -16.8760   27.2072 C   0  0  1  0  0  0  0  0  0  0  0  0
   11.8668  -17.4036   25.7901 C   0  0  0  0  0  0  0  0  0  0  0  0
   10.5303  -16.3993   27.6452 C   0  0  2  0  0  0  0  0  0  0  0  0
   10.0469  -15.3478   26.7856 N   0  0  0  0  0  0  0  0  0  0  0  0
   10.4649  -16.0697   29.0696 C   0  0  0  0  0  0  0  0  0  0  0  0
   10.6080  -14.8723   29.4253 O   0  0  0  0  0  0  0  0  0  0  0  0
   10.2528  -16.9960   30.0806 O   0  0  0  0  0  0  0  0  0  0  0  0
  2  1  1  6
  2  3  1  0
  3  4  1  0
  4  5  1  0
  5  6  2  0
  5  9  1  0
  7  8  2  0
  7  2  1  0
 11 10  1  6
 11 13  1  0
 12 11  1  0
 13 14  1  6
 14  7  1  0
 15 13  1  0
 15 21  1  0
 16 15  2  0
 18 20  1  0
 18 17  1  1
 19 18  1  0
 20 21  1  6
 20 22  1  0
 22 23  2  0
 22 24  1  0
M  END
$$$$
