EVV.pdb
     RDKit          3D

 24 23  0  0  1  0  0  0  0  0999 V2000
    9.3575  -18.1782   19.3735 N   0  0  0  0  0  0  0  0  0  0  0  0
    9.8331  -18.1527   20.7231 C   0  0  1  0  0  0  0  0  0  0  0  0
   11.1411  -17.4397   20.8519 C   0  0  0  0  0  0  0  0  0  0  0  0
   12.3336  -18.2710   20.5406 C   0  0  0  0  0  0  0  0  0  0  0  0
   13.6288  -17.5915   20.6984 C   0  0  0  0  0  0  0  0  0  0  0  0
   14.7570  -18.0842   20.4811 O   0  0  0  0  0  0  0  0  0  0  0  0
    8.8141  -17.6283   21.6717 C   0  0  0  0  0  0  0  0  0  0  0  0
    8.0157  -16.7462   21.2649 O   0  0  0  0  0  0  0  0  0  0  0  0
   13.6127  -16.2568   21.1358 O   0  0  0  0  0  0  0  0  0  0  0  0
    6.4557  -19.6831   23.8939 C   0  0  0  0  0  0  0  0  0  0  0  0
    7.1584  -18.6572   24.7607 C   0  0  2  0  0  0  0  0  0  0  0  0
    6.1189  -18.0571   25.6865 C   0  0  0  0  0  0  0  0  0  0  0  0
    7.7084  -17.5225   23.8890 C   0  0  2  0  0  0  0  0  0  0  0  0
    8.6958  -18.0685   23.0042 N   0  0  0  0  0  0  0  0  0  0  0  0
    8.2506  -16.4507   24.7561 C   0  0  0  0  0  0  0  0  0  0  0  0
    9.4414  -16.4951   25.1509 O   0  0  0  0  0  0  0  0  0  0  0  0
    7.5041  -12.0129   26.9932 C   0  0  0  0  0  0  0  0  0  0  0  0
    6.9672  -13.1537   26.1721 C   0  0  1  0  0  0  0  0  0  0  0  0
    6.5276  -12.5975   24.8356 C   0  0  0  0  0  0  0  0  0  0  0  0
    8.0086  -14.2575   25.9700 C   0  0  2  0  0  0  0  0  0  0  0  0
    7.4734  -15.3386   25.1807 N   0  0  0  0  0  0  0  0  0  0  0  0
    8.6253  -14.6949   27.2230 C   0  0  0  0  0  0  0  0  0  0  0  0
    9.6867  -14.1404   27.6060 O   0  0  0  0  0  0  0  0  0  0  0  0
    8.1188  -15.6960   28.0395 O   0  0  0  0  0  0  0  0  0  0  0  0
  2  1  1  6
  2  3  1  0
  3  4  1  0
  4  5  1  0
  5  6  2  0
  5  9  1  0
  7  8  2  0
  7  2  1  0
 11 10  1  6
 11 13  1  0
 12 11  1  0
 13 14  1  6
 14  7  1  0
 15 13  1  0
 15 21  1  0
 16 15  2  0
 18 20  1  0
 18 17  1  1
 19 18  1  0
 20 21  1  1
 20 22  1  0
 22 23  2  0
 22 24  1  0
M  END
$$$$
