EVV.pdb
     RDKit          3D

 24 23  0  0  1  0  0  0  0  0999 V2000
    9.3860  -15.7607   20.2313 N   0  0  0  0  0  0  0  0  0  0  0  0
    8.7724  -16.3449   21.3847 C   0  0  1  0  0  0  0  0  0  0  0  0
    9.1312  -17.7870   21.5509 C   0  0  0  0  0  0  0  0  0  0  0  0
    9.3900  -18.5119   20.2791 C   0  0  0  0  0  0  0  0  0  0  0  0
   10.8030  -18.8217   20.0117 C   0  0  0  0  0  0  0  0  0  0  0  0
   11.5748  -19.4673   20.7535 O   0  0  0  0  0  0  0  0  0  0  0  0
    9.0293  -15.5583   22.6211 C   0  0  0  0  0  0  0  0  0  0  0  0
   10.1711  -15.0581   22.7858 O   0  0  0  0  0  0  0  0  0  0  0  0
   11.3540  -18.3527   18.8077 O   0  0  0  0  0  0  0  0  0  0  0  0
    6.5235  -12.9719   24.2385 C   0  0  0  0  0  0  0  0  0  0  0  0
    7.0531  -13.9293   25.2875 C   0  0  2  0  0  0  0  0  0  0  0  0
    7.3903  -13.1121   26.5188 C   0  0  0  0  0  0  0  0  0  0  0  0
    8.3517  -14.5793   24.7965 C   0  0  2  0  0  0  0  0  0  0  0  0
    8.0592  -15.3435   23.6191 N   0  0  0  0  0  0  0  0  0  0  0  0
    8.9331  -15.4039   25.8812 C   0  0  0  0  0  0  0  0  0  0  0  0
    8.6186  -16.6137   25.9971 O   0  0  0  0  0  0  0  0  0  0  0  0
   12.3778  -13.9545   27.8165 C   0  0  0  0  0  0  0  0  0  0  0  0
   11.5162  -14.8773   28.6350 C   0  0  1  0  0  0  0  0  0  0  0  0
   10.7152  -14.0309   29.5999 C   0  0  0  0  0  0  0  0  0  0  0  0
   10.5791  -15.7156   27.7616 C   0  0  2  0  0  0  0  0  0  0  0  0
    9.8569  -14.8860   26.8295 N   0  0  0  0  0  0  0  0  0  0  0  0
    9.7200  -16.6075   28.5413 C   0  0  0  0  0  0  0  0  0  0  0  0
    8.5256  -16.2750   28.7496 O   0  0  0  0  0  0  0  0  0  0  0  0
   10.1299  -17.8184   29.0808 O   0  0  0  0  0  0  0  0  0  0  0  0
  2  1  1  6
  2  3  1  0
  3  4  1  0
  4  5  1  0
  5  6  2  0
  5  9  1  0
  7  8  2  0
  7  2  1  0
 11 10  1  6
 11 13  1  0
 12 11  1  0
 13 14  1  6
 14  7  1  0
 15 13  1  0
 15 21  1  0
 16 15  2  0
 18 20  1  0
 18 17  1  6
 19 18  1  0
 20 21  1  1
 20 22  1  0
 22 23  2  0
 22 24  1  0
M  END
$$$$
