EVV.pdb
     RDKit          3D

 24 23  0  0  1  0  0  0  0  0999 V2000
   12.3035  -16.6399   19.8124 N   0  0  0  0  0  0  0  0  0  0  0  0
   11.5702  -17.2834   20.8595 C   0  0  1  0  0  0  0  0  0  0  0  0
   12.3593  -18.3651   21.5249 C   0  0  0  0  0  0  0  0  0  0  0  0
   12.3082  -19.6822   20.8373 C   0  0  0  0  0  0  0  0  0  0  0  0
   13.0903  -20.7523   21.4756 C   0  0  0  0  0  0  0  0  0  0  0  0
   14.2655  -21.0778   21.2007 O   0  0  0  0  0  0  0  0  0  0  0  0
   11.0148  -16.3120   21.8400 C   0  0  0  0  0  0  0  0  0  0  0  0
   11.7546  -15.3781   22.2419 O   0  0  0  0  0  0  0  0  0  0  0  0
   12.4688  -21.4901   22.4966 O   0  0  0  0  0  0  0  0  0  0  0  0
    7.4143  -14.6282   21.7799 C   0  0  0  0  0  0  0  0  0  0  0  0
    7.7030  -15.2846   23.1152 C   0  0  2  0  0  0  0  0  0  0  0  0
    7.1999  -14.3508   24.1982 C   0  0  0  0  0  0  0  0  0  0  0  0
    9.2161  -15.4394   23.3074 C   0  0  2  0  0  0  0  0  0  0  0  0
    9.7012  -16.3830   22.3429 N   0  0  0  0  0  0  0  0  0  0  0  0
    9.4980  -15.8536   24.7015 C   0  0  0  0  0  0  0  0  0  0  0  0
    9.6538  -17.0667   24.9841 O   0  0  0  0  0  0  0  0  0  0  0  0
   10.4862  -14.4284   29.4168 C   0  0  0  0  0  0  0  0  0  0  0  0
    9.9085  -14.1088   28.0648 C   0  0  1  0  0  0  0  0  0  0  0  0
   10.6826  -12.9412   27.4932 C   0  0  0  0  0  0  0  0  0  0  0  0
    9.9752  -15.3058   27.1128 C   0  0  2  0  0  0  0  0  0  0  0  0
    9.6052  -14.9249   25.7725 N   0  0  0  0  0  0  0  0  0  0  0  0
    9.2475  -16.4727   27.6134 C   0  0  0  0  0  0  0  0  0  0  0  0
    8.0095  -16.5525   27.4096 O   0  0  0  0  0  0  0  0  0  0  0  0
    9.8303  -17.5210   28.3112 O   0  0  0  0  0  0  0  0  0  0  0  0
  2  1  1  6
  2  3  1  0
  3  4  1  0
  4  5  1  0
  5  6  2  0
  5  9  1  0
  7  8  2  0
  7  2  1  0
 11 10  1  6
 11 13  1  0
 12 11  1  0
 13 14  1  6
 14  7  1  0
 15 13  1  0
 15 21  1  0
 16 15  2  0
 18 20  1  0
 18 17  1  1
 19 18  1  0
 20 21  1  6
 20 22  1  0
 22 23  2  0
 22 24  1  0
M  END
$$$$
