EVV.pdb
     RDKit          3D

 24 23  0  0  1  0  0  0  0  0999 V2000
    7.4319  -20.3222   23.0658 N   0  0  0  0  0  0  0  0  0  0  0  0
    7.1334  -19.1874   23.8851 C   0  0  1  0  0  0  0  0  0  0  0  0
    7.2780  -19.4847   25.3433 C   0  0  0  0  0  0  0  0  0  0  0  0
    7.4350  -20.9266   25.6694 C   0  0  0  0  0  0  0  0  0  0  0  0
    7.4816  -21.2422   27.1054 C   0  0  0  0  0  0  0  0  0  0  0  0
    6.5023  -21.4773   27.8460 O   0  0  0  0  0  0  0  0  0  0  0  0
    7.9037  -17.9803   23.4811 C   0  0  0  0  0  0  0  0  0  0  0  0
    9.0257  -18.1409   22.9366 O   0  0  0  0  0  0  0  0  0  0  0  0
    8.7440  -21.2875   27.7196 O   0  0  0  0  0  0  0  0  0  0  0  0
    6.4546  -14.6898   21.7245 C   0  0  0  0  0  0  0  0  0  0  0  0
    7.2670  -14.3714   22.9639 C   0  0  2  0  0  0  0  0  0  0  0  0
    8.1150  -13.1546   22.6504 C   0  0  0  0  0  0  0  0  0  0  0  0
    8.2216  -15.5294   23.2770 C   0  0  2  0  0  0  0  0  0  0  0  0
    7.4418  -16.6643   23.6764 N   0  0  0  0  0  0  0  0  0  0  0  0
    9.1874  -15.1068   24.3179 C   0  0  0  0  0  0  0  0  0  0  0  0
    9.7688  -13.9977   24.2316 O   0  0  0  0  0  0  0  0  0  0  0  0
    9.6004  -13.7727   28.5691 C   0  0  0  0  0  0  0  0  0  0  0  0
    9.0944  -14.3142   27.2596 C   0  0  1  0  0  0  0  0  0  0  0  0
    8.9560  -13.1532   26.2994 C   0  0  0  0  0  0  0  0  0  0  0  0
   10.0300  -15.3760   26.6758 C   0  0  2  0  0  0  0  0  0  0  0  0
    9.5035  -15.9126   25.4456 N   0  0  0  0  0  0  0  0  0  0  0  0
   10.4060  -16.4013   27.6500 C   0  0  0  0  0  0  0  0  0  0  0  0
    9.7820  -17.4927   27.6578 O   0  0  0  0  0  0  0  0  0  0  0  0
   11.4199  -16.2597   28.5866 O   0  0  0  0  0  0  0  0  0  0  0  0
  2  1  1  6
  2  3  1  0
  3  4  1  0
  4  5  1  0
  5  6  2  0
  5  9  1  0
  7  8  2  0
  7  2  1  0
 11 10  1  6
 11 13  1  0
 12 11  1  0
 13 14  1  1
 14  7  1  0
 15 13  1  0
 15 21  1  0
 16 15  2  0
 18 20  1  0
 18 17  1  1
 19 18  1  0
 20 21  1  6
 20 22  1  0
 22 23  2  0
 22 24  1  0
M  END
$$$$
