EVV.pdb
     RDKit          3D

 24 23  0  0  1  0  0  0  0  0999 V2000
   11.6599  -16.3102   19.2569 N   0  0  0  0  0  0  0  0  0  0  0  0
   11.8359  -16.8864   20.5550 C   0  0  1  0  0  0  0  0  0  0  0  0
   13.2781  -17.0596   20.9098 C   0  0  0  0  0  0  0  0  0  0  0  0
   13.8826  -18.3348   20.4424 C   0  0  0  0  0  0  0  0  0  0  0  0
   15.2922  -18.5324   20.8137 C   0  0  0  0  0  0  0  0  0  0  0  0
   15.7862  -19.5556   21.3351 O   0  0  0  0  0  0  0  0  0  0  0  0
   11.0855  -16.1492   21.6071 C   0  0  0  0  0  0  0  0  0  0  0  0
   11.2676  -14.9097   21.7147 O   0  0  0  0  0  0  0  0  0  0  0  0
   16.1837  -17.4760   20.5640 O   0  0  0  0  0  0  0  0  0  0  0  0
    7.4337  -15.8583   21.9367 C   0  0  0  0  0  0  0  0  0  0  0  0
    7.9399  -16.3609   23.2740 C   0  0  2  0  0  0  0  0  0  0  0  0
    7.1718  -15.6265   24.3551 C   0  0  0  0  0  0  0  0  0  0  0  0
    9.4220  -16.0061   23.4407 C   0  0  2  0  0  0  0  0  0  0  0  0
   10.1798  -16.7672   22.4909 N   0  0  0  0  0  0  0  0  0  0  0  0
    9.8381  -16.2635   24.8390 C   0  0  0  0  0  0  0  0  0  0  0  0
   10.3801  -17.3522   25.1499 O   0  0  0  0  0  0  0  0  0  0  0  0
   10.3982  -14.4582   29.4909 C   0  0  0  0  0  0  0  0  0  0  0  0
    9.7818  -14.3306   28.1243 C   0  0  1  0  0  0  0  0  0  0  0  0
   10.3154  -13.0646   27.4905 C   0  0  0  0  0  0  0  0  0  0  0  0
   10.0929  -15.5390   27.2374 C   0  0  2  0  0  0  0  0  0  0  0  0
    9.6521  -15.3166   25.8830 N   0  0  0  0  0  0  0  0  0  0  0  0
    9.6208  -16.8010   27.8086 C   0  0  0  0  0  0  0  0  0  0  0  0
    8.4346  -17.1598   27.5969 O   0  0  0  0  0  0  0  0  0  0  0  0
   10.3974  -17.6513   28.5828 O   0  0  0  0  0  0  0  0  0  0  0  0
  2  1  1  6
  2  3  1  0
  3  4  1  0
  4  5  1  0
  5  6  2  0
  5  9  1  0
  7  8  2  0
  7  2  1  0
 11 10  1  6
 11 13  1  0
 12 11  1  0
 13 14  1  6
 14  7  1  0
 15 13  1  0
 15 21  1  0
 16 15  2  0
 18 20  1  0
 18 17  1  1
 19 18  1  0
 20 21  1  6
 20 22  1  0
 22 23  2  0
 22 24  1  0
M  END
$$$$
