EVV.pdb
     RDKit          3D

 24 23  0  0  1  0  0  0  0  0999 V2000
    8.1269  -14.5196   20.5772 N   0  0  0  0  0  0  0  0  0  0  0  0
    7.4642  -15.0928   21.7087 C   0  0  1  0  0  0  0  0  0  0  0  0
    7.3404  -16.5792   21.6028 C   0  0  0  0  0  0  0  0  0  0  0  0
    8.3748  -17.2285   20.7551 C   0  0  0  0  0  0  0  0  0  0  0  0
    8.2285  -18.6832   20.5931 C   0  0  0  0  0  0  0  0  0  0  0  0
    7.6431  -19.2709   19.6579 O   0  0  0  0  0  0  0  0  0  0  0  0
    8.0793  -14.6729   22.9966 C   0  0  0  0  0  0  0  0  0  0  0  0
    9.3335  -14.6352   23.0765 O   0  0  0  0  0  0  0  0  0  0  0  0
    8.7975  -19.5068   21.5785 O   0  0  0  0  0  0  0  0  0  0  0  0
    6.5579  -11.8368   25.4051 C   0  0  0  0  0  0  0  0  0  0  0  0
    6.9583  -13.0833   26.1688 C   0  0  2  0  0  0  0  0  0  0  0  0
    7.6597  -12.6338   27.4353 C   0  0  0  0  0  0  0  0  0  0  0  0
    7.9651  -13.8994   25.3500 C   0  0  2  0  0  0  0  0  0  0  0  0
    7.3296  -14.3143   24.1336 N   0  0  0  0  0  0  0  0  0  0  0  0
    8.4495  -15.0424   26.1584 C   0  0  0  0  0  0  0  0  0  0  0  0
    7.6906  -16.0110   26.4069 O   0  0  0  0  0  0  0  0  0  0  0  0
   11.4091  -17.1943   25.4813 C   0  0  0  0  0  0  0  0  0  0  0  0
   11.5505  -16.7741   26.9191 C   0  0  1  0  0  0  0  0  0  0  0  0
   12.6476  -15.7349   26.9935 C   0  0  0  0  0  0  0  0  0  0  0  0
   10.2453  -16.2081   27.4844 C   0  0  2  0  0  0  0  0  0  0  0  0
    9.7679  -15.1065   26.6863 N   0  0  0  0  0  0  0  0  0  0  0  0
   10.3280  -15.9050   28.9137 C   0  0  0  0  0  0  0  0  0  0  0  0
   10.2930  -14.7043   29.2851 O   0  0  0  0  0  0  0  0  0  0  0  0
   10.4447  -16.8604   29.9132 O   0  0  0  0  0  0  0  0  0  0  0  0
  2  1  1  6
  2  3  1  0
  3  4  1  0
  4  5  1  0
  5  6  2  0
  5  9  1  0
  7  8  2  0
  7  2  1  0
 11 10  1  6
 11 13  1  0
 12 11  1  0
 13 14  1  6
 14  7  1  0
 15 13  1  0
 15 21  1  0
 16 15  2  0
 18 20  1  0
 18 17  1  6
 19 18  1  0
 20 21  1  6
 20 22  1  0
 22 23  2  0
 22 24  1  0
M  END
$$$$
