EVV.pdb
     RDKit          3D

 24 23  0  0  1  0  0  0  0  0999 V2000
   10.0566  -17.9486   17.3343 N   0  0  0  0  0  0  0  0  0  0  0  0
    8.9467  -17.7347   18.2120 C   0  0  1  0  0  0  0  0  0  0  0  0
    8.3887  -19.0151   18.7459 C   0  0  0  0  0  0  0  0  0  0  0  0
    8.1620  -20.0676   17.7208 C   0  0  0  0  0  0  0  0  0  0  0  0
    8.1650  -21.4479   18.2296 C   0  0  0  0  0  0  0  0  0  0  0  0
    9.1706  -22.1625   18.4315 O   0  0  0  0  0  0  0  0  0  0  0  0
    9.2622  -16.7665   19.2967 C   0  0  0  0  0  0  0  0  0  0  0  0
   10.4673  -16.5889   19.6084 O   0  0  0  0  0  0  0  0  0  0  0  0
    6.9228  -22.0347   18.5222 O   0  0  0  0  0  0  0  0  0  0  0  0
    7.5435  -13.1440   19.9726 C   0  0  0  0  0  0  0  0  0  0  0  0
    7.5145  -14.0780   21.1660 C   0  0  2  0  0  0  0  0  0  0  0  0
    7.8044  -13.2466   22.4000 C   0  0  0  0  0  0  0  0  0  0  0  0
    8.6300  -15.1222   21.0421 C   0  0  2  0  0  0  0  0  0  0  0  0
    8.2805  -16.0364   19.9943 N   0  0  0  0  0  0  0  0  0  0  0  0
    8.8228  -15.7974   22.3465 C   0  0  0  0  0  0  0  0  0  0  0  0
    7.9211  -16.5303   22.8214 O   0  0  0  0  0  0  0  0  0  0  0  0
   11.9852  -17.6614   25.6517 C   0  0  0  0  0  0  0  0  0  0  0  0
   11.7038  -16.8891   24.3915 C   0  0  1  0  0  0  0  0  0  0  0  0
   12.0010  -17.7941   23.2160 C   0  0  0  0  0  0  0  0  0  0  0  0
   10.2553  -16.3976   24.3289 C   0  0  2  0  0  0  0  0  0  0  0  0
   10.0098  -15.6575   23.1164 N   0  0  0  0  0  0  0  0  0  0  0  0
    9.8408  -15.6914   25.5418 C   0  0  0  0  0  0  0  0  0  0  0  0
    9.9481  -14.4395   25.5850 O   0  0  0  0  0  0  0  0  0  0  0  0
    9.3272  -16.3094   26.6731 O   0  0  0  0  0  0  0  0  0  0  0  0
  2  1  1  1
  2  3  1  0
  3  4  1  0
  4  5  1  0
  5  6  2  0
  5  9  1  0
  7  8  2  0
  7  2  1  0
 11 10  1  6
 11 13  1  0
 12 11  1  0
 13 14  1  6
 14  7  1  0
 15 13  1  0
 15 21  1  0
 16 15  2  0
 18 20  1  0
 18 17  1  1
 19 18  1  0
 20 21  1  6
 20 22  1  0
 22 23  2  0
 22 24  1  0
M  END
$$$$
