EVV.pdb
     RDKit          3D

 24 23  0  0  1  0  0  0  0  0999 V2000
    8.7932  -15.3882   20.6553 N   0  0  0  0  0  0  0  0  0  0  0  0
    8.4533  -15.9462   21.9286 C   0  0  1  0  0  0  0  0  0  0  0  0
    9.0795  -17.2863   22.1478 C   0  0  0  0  0  0  0  0  0  0  0  0
    8.7178  -18.3127   21.1350 C   0  0  0  0  0  0  0  0  0  0  0  0
    9.3437  -19.6299   21.3277 C   0  0  0  0  0  0  0  0  0  0  0  0
   10.2336  -20.1406   20.6136 O   0  0  0  0  0  0  0  0  0  0  0  0
    8.7319  -15.0083   23.0493 C   0  0  0  0  0  0  0  0  0  0  0  0
    9.1253  -13.8464   22.7735 O   0  0  0  0  0  0  0  0  0  0  0  0
    8.9090  -20.4021   22.4176 O   0  0  0  0  0  0  0  0  0  0  0  0
    7.1520  -12.7203   24.0305 C   0  0  0  0  0  0  0  0  0  0  0  0
    7.0817  -13.6536   25.2227 C   0  0  2  0  0  0  0  0  0  0  0  0
    6.8240  -12.8028   26.4506 C   0  0  0  0  0  0  0  0  0  0  0  0
    8.4315  -14.3526   25.4220 C   0  0  2  0  0  0  0  0  0  0  0  0
    8.5779  -15.3536   24.4060 N   0  0  0  0  0  0  0  0  0  0  0  0
    8.4998  -14.9156   26.7906 C   0  0  0  0  0  0  0  0  0  0  0  0
    7.5409  -15.5818   27.2515 O   0  0  0  0  0  0  0  0  0  0  0  0
   12.7450  -16.8370   28.0981 C   0  0  0  0  0  0  0  0  0  0  0  0
   11.8625  -15.7412   27.5648 C   0  0  1  0  0  0  0  0  0  0  0  0
   11.8502  -15.8479   26.0556 C   0  0  0  0  0  0  0  0  0  0  0  0
   10.4365  -15.8319   28.1141 C   0  0  2  0  0  0  0  0  0  0  0  0
    9.6263  -14.7380   27.6394 N   0  0  0  0  0  0  0  0  0  0  0  0
   10.3958  -16.0053   29.5667 C   0  0  0  0  0  0  0  0  0  0  0  0
   10.2777  -14.9899   30.2986 O   0  0  0  0  0  0  0  0  0  0  0  0
   10.4793  -17.2300   30.2135 O   0  0  0  0  0  0  0  0  0  0  0  0
  2  1  1  6
  2  3  1  0
  3  4  1  0
  4  5  1  0
  5  6  2  0
  5  9  1  0
  7  8  2  0
  7  2  1  0
 11 10  1  6
 11 13  1  0
 12 11  1  0
 13 14  1  6
 14  7  1  0
 15 13  1  0
 15 21  1  0
 16 15  2  0
 18 20  1  0
 18 17  1  1
 19 18  1  0
 20 21  1  1
 20 22  1  0
 22 23  2  0
 22 24  1  0
M  END
$$$$
