EVV.pdb
     RDKit          3D

 24 23  0  0  1  0  0  0  0  0999 V2000
   11.6821  -16.3085   19.3866 N   0  0  0  0  0  0  0  0  0  0  0  0
   11.6548  -16.9476   20.6668 C   0  0  1  0  0  0  0  0  0  0  0  0
   12.9998  -17.4555   21.0778 C   0  0  0  0  0  0  0  0  0  0  0  0
   13.3900  -18.7489   20.4575 C   0  0  0  0  0  0  0  0  0  0  0  0
   14.6726  -19.3025   20.9186 C   0  0  0  0  0  0  0  0  0  0  0  0
   15.6196  -19.6828   20.1965 O   0  0  0  0  0  0  0  0  0  0  0  0
   11.0367  -16.0900   21.7136 C   0  0  0  0  0  0  0  0  0  0  0  0
   11.5415  -14.9602   21.9366 O   0  0  0  0  0  0  0  0  0  0  0  0
   14.8677  -19.4216   22.3045 O   0  0  0  0  0  0  0  0  0  0  0  0
    7.4252  -15.0581   22.0351 C   0  0  0  0  0  0  0  0  0  0  0  0
    7.8426  -15.6424   23.3699 C   0  0  2  0  0  0  0  0  0  0  0  0
    7.2926  -14.7366   24.4538 C   0  0  0  0  0  0  0  0  0  0  0  0
    9.3707  -15.6314   23.4924 C   0  0  2  0  0  0  0  0  0  0  0  0
    9.9134  -16.4772   22.4697 N   0  0  0  0  0  0  0  0  0  0  0  0
    9.7609  -16.0625   24.8549 C   0  0  0  0  0  0  0  0  0  0  0  0
   10.0239  -17.2675   25.0886 O   0  0  0  0  0  0  0  0  0  0  0  0
   11.2564  -13.2940   27.6590 C   0  0  0  0  0  0  0  0  0  0  0  0
   10.3531  -14.3617   28.2138 C   0  0  1  0  0  0  0  0  0  0  0  0
    8.9891  -13.7463   28.4370 C   0  0  0  0  0  0  0  0  0  0  0  0
   10.2436  -15.5672   27.2765 C   0  0  2  0  0  0  0  0  0  0  0  0
    9.8572  -15.1595   25.9487 N   0  0  0  0  0  0  0  0  0  0  0  0
    9.4151  -16.6415   27.8250 C   0  0  0  0  0  0  0  0  0  0  0  0
    9.8601  -17.3272   28.7803 O   0  0  0  0  0  0  0  0  0  0  0  0
    8.1486  -16.9700   27.3629 O   0  0  0  0  0  0  0  0  0  0  0  0
  2  1  1  6
  2  3  1  0
  3  4  1  0
  4  5  1  0
  5  6  2  0
  5  9  1  0
  7  8  2  0
  7  2  1  0
 11 10  1  6
 11 13  1  0
 12 11  1  0
 13 14  1  6
 14  7  1  0
 15 13  1  0
 15 21  1  0
 16 15  2  0
 18 20  1  0
 18 17  1  6
 19 18  1  0
 20 21  1  6
 20 22  1  0
 22 23  2  0
 22 24  1  0
M  END
$$$$
