FQY.pdb
     RDKit          3D

 33 34  0  0  1  0  0  0  0  0999 V2000
   28.1570  -21.4469  -10.8091 N   0  0  0  0  0  0  0  0  0  0  0  0
   26.7353  -21.2433  -10.8837 C   0  0  1  0  0  0  0  0  0  0  0  0
   26.3003  -19.9116  -10.3104 C   0  0  0  0  0  0  0  0  0  0  0  0
   26.6580  -19.7629   -8.8933 C   0  0  0  0  0  0  0  0  0  0  0  0
   27.7078  -18.9518   -8.5276 C   0  0  0  0  0  0  0  0  0  0  0  0
   28.0532  -18.8065   -7.1771 C   0  0  0  0  0  0  0  0  0  0  0  0
   27.3520  -19.4676   -6.2115 C   0  0  0  0  0  0  0  0  0  0  0  0
   26.3021  -20.2796   -6.5683 C   0  0  0  0  0  0  0  0  0  0  0  0
   25.9605  -20.4227   -7.9112 C   0  0  0  0  0  0  0  0  0  0  0  0
   26.2914  -21.2666  -12.3116 C   0  0  0  0  0  0  0  0  0  0  0  0
   26.8638  -20.5877  -13.1981 O   0  0  0  0  0  0  0  0  0  0  0  0
   26.5223  -25.2832  -16.8757 N   0  0  0  0  0  0  0  0  0  0  0  0
   26.6254  -24.0749  -16.1491 C   0  0  0  0  0  0  0  0  0  0  0  0
   26.9644  -22.9855  -16.6656 O   0  0  0  0  0  0  0  0  0  0  0  0
   26.3147  -24.1026  -14.6976 C   0  0  0  0  0  0  0  0  0  0  0  0
   24.9366  -23.5912  -14.4809 C   0  0  0  0  0  0  0  0  0  0  0  0
   24.8506  -22.1298  -14.1222 C   0  0  2  0  0  0  0  0  0  0  0  0
   25.1928  -22.0754  -12.6888 N   0  0  0  0  0  0  0  0  0  0  0  0
   23.4476  -21.6811  -14.2740 C   0  0  0  0  0  0  0  0  0  0  0  0
   22.5722  -21.7545  -13.3727 O   0  0  0  0  0  0  0  0  0  0  0  0
   20.3484  -19.1651   -9.3935 O   0  0  0  0  0  0  0  0  0  0  0  0
   20.8539  -19.1177  -10.6939 C   0  0  0  0  0  0  0  0  0  0  0  0
   22.2124  -19.2018  -10.9211 C   0  0  0  0  0  0  0  0  0  0  0  0
   22.7498  -19.1573  -12.2127 C   0  0  0  0  0  0  0  0  0  0  0  0
   21.9098  -19.0260  -13.2957 C   0  0  0  0  0  0  0  0  0  0  0  0
   22.4547  -18.9743  -14.6742 C   0  0  0  0  0  0  0  0  0  0  0  0
   21.9632  -20.1205  -15.5235 C   0  0  2  0  0  0  0  0  0  0  0  0
   23.0118  -21.1207  -15.5088 N   0  0  0  0  0  0  0  0  0  0  0  0
   21.6522  -19.7701  -16.9059 C   0  0  0  0  0  0  0  0  0  0  0  0
   22.4876  -20.0567  -17.9803 O   0  0  0  0  0  0  0  0  0  0  0  0
   20.5483  -18.9419  -13.0649 C   0  0  0  0  0  0  0  0  0  0  0  0
   20.0204  -18.9863  -11.7853 C   0  0  0  0  0  0  0  0  0  0  0  0
   20.5802  -19.1762  -17.1785 O   0  0  0  0  0  0  0  0  0  0  0  0
  2  1  1  6
  2  3  1  0
  4  9  1  0
  4  3  1  0
  5  4  2  0
  6  7  2  0
  6  5  1  0
  7  8  1  0
  8  9  2  0
 10  2  1  0
 10 11  2  0
 12 13  1  0
 13 15  1  0
 14 13  2  0
 15 16  1  0
 17 16  1  1
 17 18  1  0
 18 10  1  0
 19 17  1  0
 20 19  2  0
 22 23  2  0
 22 21  1  0
 24 23  1  0
 25 24  2  0
 26 25  1  0
 27 26  1  1
 27 28  1  0
 28 19  1  0
 29 27  1  0
 30 29  1  0
 31 25  1  0
 31 32  2  0
 32 22  1  0
 33 29  2  0
M  END
$$$$
