FQY.pdb
     RDKit          3D

 33 34  0  0  1  0  0  0  0  0999 V2000
   27.3866  -15.2584  -18.3552 N   0  0  0  0  0  0  0  0  0  0  0  0
   27.5870  -16.5858  -17.8395 C   0  0  1  0  0  0  0  0  0  0  0  0
   28.9043  -16.7418  -17.1105 C   0  0  0  0  0  0  0  0  0  0  0  0
   30.0591  -16.7114  -18.0182 C   0  0  0  0  0  0  0  0  0  0  0  0
   30.3570  -17.8086  -18.7936 C   0  0  0  0  0  0  0  0  0  0  0  0
   31.4574  -17.7848  -19.6611 C   0  0  0  0  0  0  0  0  0  0  0  0
   32.2443  -16.6736  -19.7457 C   0  0  0  0  0  0  0  0  0  0  0  0
   31.9537  -15.5735  -18.9747 C   0  0  0  0  0  0  0  0  0  0  0  0
   30.8594  -15.5993  -18.1130 C   0  0  0  0  0  0  0  0  0  0  0  0
   26.5071  -16.9206  -16.8605 C   0  0  0  0  0  0  0  0  0  0  0  0
   25.6902  -16.0610  -16.4504 O   0  0  0  0  0  0  0  0  0  0  0  0
   22.2770  -16.2889  -16.3135 N   0  0  0  0  0  0  0  0  0  0  0  0
   21.8217  -17.4940  -15.7315 C   0  0  0  0  0  0  0  0  0  0  0  0
   20.6917  -17.6238  -15.2072 O   0  0  0  0  0  0  0  0  0  0  0  0
   22.7337  -18.6655  -15.7441 C   0  0  0  0  0  0  0  0  0  0  0  0
   24.0306  -18.2711  -16.3525 C   0  0  0  0  0  0  0  0  0  0  0  0
   25.2424  -18.5483  -15.5002 C   0  0  2  0  0  0  0  0  0  0  0  0
   26.3915  -18.2444  -16.3731 N   0  0  0  0  0  0  0  0  0  0  0  0
   25.2821  -19.9934  -15.1797 C   0  0  0  0  0  0  0  0  0  0  0  0
   25.3605  -20.9133  -16.0350 O   0  0  0  0  0  0  0  0  0  0  0  0
   25.4683  -19.3780   -7.5813 O   0  0  0  0  0  0  0  0  0  0  0  0
   25.7039  -20.0154   -8.8007 C   0  0  0  0  0  0  0  0  0  0  0  0
   25.3693  -21.3429   -8.9737 C   0  0  0  0  0  0  0  0  0  0  0  0
   25.5929  -22.0097  -10.1837 C   0  0  0  0  0  0  0  0  0  0  0  0
   26.1625  -21.3332  -11.2391 C   0  0  0  0  0  0  0  0  0  0  0  0
   26.4117  -22.0180  -12.5309 C   0  0  0  0  0  0  0  0  0  0  0  0
   25.2716  -21.8333  -13.5019 C   0  0  2  0  0  0  0  0  0  0  0  0
   25.2305  -20.4204  -13.8219 N   0  0  0  0  0  0  0  0  0  0  0  0
   23.9658  -22.2513  -13.0012 C   0  0  0  0  0  0  0  0  0  0  0  0
   22.9106  -21.3740  -12.7742 O   0  0  0  0  0  0  0  0  0  0  0  0
   26.4970  -20.0025  -11.0628 C   0  0  0  0  0  0  0  0  0  0  0  0
   26.2740  -19.3460   -9.8638 C   0  0  0  0  0  0  0  0  0  0  0  0
   23.7461  -23.4615  -12.7502 O   0  0  0  0  0  0  0  0  0  0  0  0
  2  1  1  1
  2  3  1  0
  4  9  1  0
  4  3  1  0
  5  4  2  0
  6  7  2  0
  6  5  1  0
  7  8  1  0
  8  9  2  0
 10  2  1  0
 10 11  2  0
 12 13  1  0
 13 15  1  0
 14 13  2  0
 15 16  1  0
 17 16  1  6
 17 18  1  0
 18 10  1  0
 19 17  1  0
 20 19  2  0
 22 23  2  0
 22 21  1  0
 24 23  1  0
 25 24  2  0
 26 25  1  0
 27 26  1  1
 27 28  1  0
 28 19  1  0
 29 27  1  0
 30 29  1  0
 31 25  1  0
 31 32  2  0
 32 22  1  0
 33 29  2  0
M  END
$$$$
