FQY.pdb
     RDKit          3D

 33 34  0  0  1  0  0  0  0  0999 V2000
   16.5851  -15.6941    5.6123 N   0  0  0  0  0  0  0  0  0  0  0  0
   17.5545  -16.5466    4.9786 C   0  0  1  0  0  0  0  0  0  0  0  0
   18.7727  -15.7922    4.4907 C   0  0  0  0  0  0  0  0  0  0  0  0
   18.4429  -14.4518    3.9880 C   0  0  0  0  0  0  0  0  0  0  0  0
   17.2641  -14.2392    3.3103 C   0  0  0  0  0  0  0  0  0  0  0  0
   16.9446  -12.9624    2.8287 C   0  0  0  0  0  0  0  0  0  0  0  0
   17.7990  -11.9174    3.0269 C   0  0  0  0  0  0  0  0  0  0  0  0
   18.9784  -12.1213    3.7026 C   0  0  0  0  0  0  0  0  0  0  0  0
   19.2940  -13.3912    4.1805 C   0  0  0  0  0  0  0  0  0  0  0  0
   18.0411  -17.5747    5.9496 C   0  0  0  0  0  0  0  0  0  0  0  0
   18.9768  -18.3632    5.6716 O   0  0  0  0  0  0  0  0  0  0  0  0
   16.7405  -16.5425   11.4342 N   0  0  0  0  0  0  0  0  0  0  0  0
   18.0947  -16.3101   11.1017 C   0  0  0  0  0  0  0  0  0  0  0  0
   18.8057  -15.4467   11.6653 O   0  0  0  0  0  0  0  0  0  0  0  0
   18.7029  -17.1347   10.0273 C   0  0  0  0  0  0  0  0  0  0  0  0
   17.6992  -18.1112    9.5306 C   0  0  0  0  0  0  0  0  0  0  0  0
   17.9830  -18.6727    8.1610 C   0  0  2  0  0  0  0  0  0  0  0  0
   17.4362  -17.6724    7.2255 N   0  0  0  0  0  0  0  0  0  0  0  0
   17.2148  -19.9268    7.9888 C   0  0  0  0  0  0  0  0  0  0  0  0
   15.9897  -19.9814    7.7059 O   0  0  0  0  0  0  0  0  0  0  0  0
   19.3545  -25.8781    3.0971 O   0  0  0  0  0  0  0  0  0  0  0  0
   18.6710  -25.0177    3.9581 C   0  0  0  0  0  0  0  0  0  0  0  0
   17.5183  -25.4320    4.5934 C   0  0  0  0  0  0  0  0  0  0  0  0
   16.8108  -24.5931    5.4620 C   0  0  0  0  0  0  0  0  0  0  0  0
   17.2674  -23.3157    5.6976 C   0  0  0  0  0  0  0  0  0  0  0  0
   16.5345  -22.4067    6.6121 C   0  0  0  0  0  0  0  0  0  0  0  0
   17.1125  -22.4147    8.0059 C   0  0  2  0  0  0  0  0  0  0  0  0
   17.8654  -21.1842    8.1446 N   0  0  0  0  0  0  0  0  0  0  0  0
   17.9837  -23.5477    8.3020 C   0  0  0  0  0  0  0  0  0  0  0  0
   19.3295  -23.4202    8.6295 O   0  0  0  0  0  0  0  0  0  0  0  0
   18.4233  -22.9030    5.0594 C   0  0  0  0  0  0  0  0  0  0  0  0
   19.1207  -23.7362    4.2006 C   0  0  0  0  0  0  0  0  0  0  0  0
   17.5284  -24.7172    8.2689 O   0  0  0  0  0  0  0  0  0  0  0  0
  2  1  1  1
  2  3  1  0
  4  9  1  0
  4  3  1  0
  5  4  2  0
  6  7  2  0
  6  5  1  0
  7  8  1  0
  8  9  2  0
 10  2  1  0
 10 11  2  0
 12 13  1  0
 13 15  1  0
 14 13  2  0
 15 16  1  0
 17 16  1  1
 17 18  1  0
 18 10  1  0
 19 17  1  0
 20 19  2  0
 22 23  2  0
 22 21  1  0
 24 23  1  0
 25 24  2  0
 26 25  1  0
 27 26  1  6
 27 28  1  0
 28 19  1  0
 29 27  1  0
 30 29  1  0
 31 25  1  0
 31 32  2  0
 32 22  1  0
 33 29  2  0
M  END
$$$$
