FQY.pdb
     RDKit          3D

 33 34  0  0  1  0  0  0  0  0999 V2000
   26.3967  -11.7884  -19.4404 N   0  0  0  0  0  0  0  0  0  0  0  0
   26.0677  -10.7710  -18.4787 C   0  0  1  0  0  0  0  0  0  0  0  0
   27.2309  -10.4130  -17.5787 C   0  0  0  0  0  0  0  0  0  0  0  0
   27.7368  -11.5671  -16.8237 C   0  0  0  0  0  0  0  0  0  0  0  0
   27.0496  -12.0278  -15.7239 C   0  0  0  0  0  0  0  0  0  0  0  0
   27.5279  -13.1285  -15.0002 C   0  0  0  0  0  0  0  0  0  0  0  0
   28.6795  -13.7543  -15.3785 C   0  0  0  0  0  0  0  0  0  0  0  0
   29.3719  -13.3005  -16.4757 C   0  0  0  0  0  0  0  0  0  0  0  0
   28.8948  -12.2063  -17.1937 C   0  0  0  0  0  0  0  0  0  0  0  0
   25.6620   -9.5159  -19.1834 C   0  0  0  0  0  0  0  0  0  0  0  0
   25.9420   -9.3086  -20.3888 O   0  0  0  0  0  0  0  0  0  0  0  0
   21.6259   -9.3338  -21.7366 N   0  0  0  0  0  0  0  0  0  0  0  0
   21.6047   -7.9243  -21.8424 C   0  0  0  0  0  0  0  0  0  0  0  0
   20.8463   -7.3016  -22.6206 O   0  0  0  0  0  0  0  0  0  0  0  0
   22.5316   -7.1442  -20.9842 C   0  0  0  0  0  0  0  0  0  0  0  0
   23.3540   -8.0792  -20.1736 C   0  0  0  0  0  0  0  0  0  0  0  0
   24.3620   -7.4177  -19.2691 C   0  0  2  0  0  0  0  0  0  0  0  0
   24.9392   -8.5223  -18.4807 N   0  0  0  0  0  0  0  0  0  0  0  0
   23.6491   -6.5151  -18.3366 C   0  0  0  0  0  0  0  0  0  0  0  0
   22.7078   -6.8681  -17.5795 O   0  0  0  0  0  0  0  0  0  0  0  0
   21.6767    0.5038  -13.4242 O   0  0  0  0  0  0  0  0  0  0  0  0
   22.2744   -0.5298  -14.1475 C   0  0  0  0  0  0  0  0  0  0  0  0
   23.1817   -0.2508  -15.1491 C   0  0  0  0  0  0  0  0  0  0  0  0
   23.7975   -1.2647  -15.8918 C   0  0  0  0  0  0  0  0  0  0  0  0
   23.4982   -2.5819  -15.6253 C   0  0  0  0  0  0  0  0  0  0  0  0
   24.1359   -3.6745  -16.3996 C   0  0  0  0  0  0  0  0  0  0  0  0
   23.2242   -4.2191  -17.4715 C   0  0  2  0  0  0  0  0  0  0  0  0
   24.0196   -5.1421  -18.2561 N   0  0  0  0  0  0  0  0  0  0  0  0
   22.6458   -3.2114  -18.3549 C   0  0  0  0  0  0  0  0  0  0  0  0
   22.8894   -3.1548  -19.7232 O   0  0  0  0  0  0  0  0  0  0  0  0
   22.5884   -2.8587  -14.6206 C   0  0  0  0  0  0  0  0  0  0  0  0
   21.9810   -1.8526  -13.8878 C   0  0  0  0  0  0  0  0  0  0  0  0
   21.8816   -2.3307  -17.8896 O   0  0  0  0  0  0  0  0  0  0  0  0
  2  1  1  6
  2  3  1  0
  4  9  1  0
  4  3  1  0
  5  4  2  0
  6  7  2  0
  6  5  1  0
  7  8  1  0
  8  9  2  0
 10  2  1  0
 10 11  2  0
 12 13  1  0
 13 15  1  0
 14 13  2  0
 15 16  1  0
 17 16  1  6
 17 18  1  0
 18 10  1  0
 19 17  1  0
 20 19  2  0
 22 23  2  0
 22 21  1  0
 24 23  1  0
 25 24  2  0
 26 25  1  0
 27 26  1  1
 27 28  1  0
 28 19  1  0
 29 27  1  0
 30 29  1  0
 31 25  1  0
 31 32  2  0
 32 22  1  0
 33 29  2  0
M  END
$$$$
