FQY.pdb
     RDKit          3D

 33 34  0  0  1  0  0  0  0  0999 V2000
   26.1310  -15.0170  -19.1287 N   0  0  0  0  0  0  0  0  0  0  0  0
   26.9156  -15.7026  -18.1375 C   0  0  1  0  0  0  0  0  0  0  0  0
   26.7788  -15.0980  -16.7566 C   0  0  0  0  0  0  0  0  0  0  0  0
   27.2351  -13.7026  -16.7034 C   0  0  0  0  0  0  0  0  0  0  0  0
   28.5396  -13.3904  -17.0112 C   0  0  0  0  0  0  0  0  0  0  0  0
   28.9800  -12.0609  -16.9621 C   0  0  0  0  0  0  0  0  0  0  0  0
   28.1199  -11.0626  -16.6085 C   0  0  0  0  0  0  0  0  0  0  0  0
   26.8154  -11.3659  -16.2995 C   0  0  0  0  0  0  0  0  0  0  0  0
   26.3797  -12.6881  -16.3490 C   0  0  0  0  0  0  0  0  0  0  0  0
   26.4728  -17.1273  -18.0331 C   0  0  0  0  0  0  0  0  0  0  0  0
   25.3068  -17.4855  -18.3273 O   0  0  0  0  0  0  0  0  0  0  0  0
   29.4690  -21.6965  -16.1768 N   0  0  0  0  0  0  0  0  0  0  0  0
   28.5955  -22.4763  -16.9688 C   0  0  0  0  0  0  0  0  0  0  0  0
   28.4314  -23.7075  -16.8080 O   0  0  0  0  0  0  0  0  0  0  0  0
   27.8342  -21.7967  -18.0471 C   0  0  0  0  0  0  0  0  0  0  0  0
   28.0866  -20.3340  -17.9790 C   0  0  0  0  0  0  0  0  0  0  0  0
   26.9085  -19.5063  -17.5334 C   0  0  2  0  0  0  0  0  0  0  0  0
   27.3872  -18.1126  -17.5900 N   0  0  0  0  0  0  0  0  0  0  0  0
   26.6045  -19.8275  -16.1202 C   0  0  0  0  0  0  0  0  0  0  0  0
   27.0688  -19.2050  -15.1299 O   0  0  0  0  0  0  0  0  0  0  0  0
   23.1147  -21.3955   -8.4915 O   0  0  0  0  0  0  0  0  0  0  0  0
   23.5519  -21.0838   -9.7801 C   0  0  0  0  0  0  0  0  0  0  0  0
   24.8461  -20.6569   -9.9970 C   0  0  0  0  0  0  0  0  0  0  0  0
   25.3141  -20.3370  -11.2766 C   0  0  0  0  0  0  0  0  0  0  0  0
   24.4691  -20.4470  -12.3580 C   0  0  0  0  0  0  0  0  0  0  0  0
   24.9404  -20.1120  -13.7239 C   0  0  0  0  0  0  0  0  0  0  0  0
   25.5272  -21.3079  -14.4325 C   0  0  2  0  0  0  0  0  0  0  0  0
   25.7305  -20.9088  -15.8108 N   0  0  0  0  0  0  0  0  0  0  0  0
   24.6988  -22.5092  -14.3969 C   0  0  0  0  0  0  0  0  0  0  0  0
   24.7842  -23.4749  -13.3995 O   0  0  0  0  0  0  0  0  0  0  0  0
   23.1722  -20.8753  -12.1378 C   0  0  0  0  0  0  0  0  0  0  0  0
   22.7128  -21.1910  -10.8699 C   0  0  0  0  0  0  0  0  0  0  0  0
   23.8515  -22.7163  -15.2998 O   0  0  0  0  0  0  0  0  0  0  0  0
  2  1  1  6
  2  3  1  0
  4  9  1  0
  4  3  1  0
  5  4  2  0
  6  7  2  0
  6  5  1  0
  7  8  1  0
  8  9  2  0
 10  2  1  0
 10 11  2  0
 12 13  1  0
 13 15  1  0
 14 13  2  0
 15 16  1  0
 17 16  1  1
 17 18  1  0
 18 10  1  0
 19 17  1  0
 20 19  2  0
 22 23  2  0
 22 21  1  0
 24 23  1  0
 25 24  2  0
 26 25  1  0
 27 26  1  1
 27 28  1  0
 28 19  1  0
 29 27  1  0
 30 29  1  0
 31 25  1  0
 31 32  2  0
 32 22  1  0
 33 29  2  0
M  END
$$$$
