FQY.pdb
     RDKit          3D

 33 34  0  0  1  0  0  0  0  0999 V2000
   24.5844  -17.8091  -18.5130 N   0  0  0  0  0  0  0  0  0  0  0  0
   24.9482  -18.2203  -17.1838 C   0  0  1  0  0  0  0  0  0  0  0  0
   25.1553  -17.0534  -16.2423 C   0  0  0  0  0  0  0  0  0  0  0  0
   26.2653  -16.1844  -16.6557 C   0  0  0  0  0  0  0  0  0  0  0  0
   26.1093  -14.8170  -16.6543 C   0  0  0  0  0  0  0  0  0  0  0  0
   27.1651  -13.9836  -17.0476 C   0  0  0  0  0  0  0  0  0  0  0  0
   28.3582  -14.5193  -17.4359 C   0  0  0  0  0  0  0  0  0  0  0  0
   28.5222  -15.8839  -17.4402 C   0  0  0  0  0  0  0  0  0  0  0  0
   27.4715  -16.7106  -17.0488 C   0  0  0  0  0  0  0  0  0  0  0  0
   23.8623  -19.0643  -16.5963 C   0  0  0  0  0  0  0  0  0  0  0  0
   22.6608  -18.9332  -16.9336 O   0  0  0  0  0  0  0  0  0  0  0  0
   25.0239  -24.4735  -14.2453 N   0  0  0  0  0  0  0  0  0  0  0  0
   23.6608  -24.4518  -13.8712 C   0  0  0  0  0  0  0  0  0  0  0  0
   23.0802  -25.4159  -13.3216 O   0  0  0  0  0  0  0  0  0  0  0  0
   22.8794  -23.2196  -14.1457 C   0  0  0  0  0  0  0  0  0  0  0  0
   23.7824  -22.1801  -14.7040 C   0  0  0  0  0  0  0  0  0  0  0  0
   23.0946  -20.9171  -15.1551 C   0  0  2  0  0  0  0  0  0  0  0  0
   24.1857  -20.0453  -15.6287 N   0  0  0  0  0  0  0  0  0  0  0  0
   22.4681  -20.2674  -13.9812 C   0  0  0  0  0  0  0  0  0  0  0  0
   23.1040  -19.7221  -13.0419 O   0  0  0  0  0  0  0  0  0  0  0  0
   18.0765  -14.8961  -16.3476 O   0  0  0  0  0  0  0  0  0  0  0  0
   18.7664  -15.6981  -15.4368 C   0  0  0  0  0  0  0  0  0  0  0  0
   19.6697  -16.6429  -15.8789 C   0  0  0  0  0  0  0  0  0  0  0  0
   20.3767  -17.4618  -14.9910 C   0  0  0  0  0  0  0  0  0  0  0  0
   20.1742  -17.3308  -13.6354 C   0  0  0  0  0  0  0  0  0  0  0  0
   20.9096  -18.1880  -12.6740 C   0  0  0  0  0  0  0  0  0  0  0  0
   20.4305  -19.6185  -12.7054 C   0  0  2  0  0  0  0  0  0  0  0  0
   21.0491  -20.2327  -13.8632 N   0  0  0  0  0  0  0  0  0  0  0  0
   18.9823  -19.7785  -12.7922 C   0  0  0  0  0  0  0  0  0  0  0  0
   18.3367  -20.3842  -13.8650 O   0  0  0  0  0  0  0  0  0  0  0  0
   19.2681  -16.3827  -13.1950 C   0  0  0  0  0  0  0  0  0  0  0  0
   18.5704  -15.5742  -14.0768 C   0  0  0  0  0  0  0  0  0  0  0  0
   18.2462  -19.3582  -11.8661 O   0  0  0  0  0  0  0  0  0  0  0  0
  2  1  1  6
  2  3  1  0
  4  9  1  0
  4  3  1  0
  5  4  2  0
  6  7  2  0
  6  5  1  0
  7  8  1  0
  8  9  2  0
 10  2  1  0
 10 11  2  0
 12 13  1  0
 13 15  1  0
 14 13  2  0
 15 16  1  0
 17 16  1  1
 17 18  1  0
 18 10  1  0
 19 17  1  0
 20 19  2  0
 22 23  2  0
 22 21  1  0
 24 23  1  0
 25 24  2  0
 26 25  1  0
 27 26  1  6
 27 28  1  0
 28 19  1  0
 29 27  1  0
 30 29  1  0
 31 25  1  0
 31 32  2  0
 32 22  1  0
 33 29  2  0
M  END
$$$$
