FQY.pdb
     RDKit          3D

 33 34  0  0  1  0  0  0  0  0999 V2000
   25.0561  -14.5414  -18.1502 N   0  0  0  0  0  0  0  0  0  0  0  0
   24.6080  -13.3586  -17.4659 C   0  0  1  0  0  0  0  0  0  0  0  0
   25.6117  -12.2271  -17.5264 C   0  0  0  0  0  0  0  0  0  0  0  0
   26.9369  -12.6207  -17.0295 C   0  0  0  0  0  0  0  0  0  0  0  0
   27.1695  -12.7058  -15.6758 C   0  0  0  0  0  0  0  0  0  0  0  0
   28.4320  -13.0808  -15.1965 C   0  0  0  0  0  0  0  0  0  0  0  0
   29.4430  -13.3654  -16.0671 C   0  0  0  0  0  0  0  0  0  0  0  0
   29.2190  -13.2829  -17.4207 C   0  0  0  0  0  0  0  0  0  0  0  0
   27.9634  -12.9099  -17.8950 C   0  0  0  0  0  0  0  0  0  0  0  0
   23.3473  -12.8541  -18.0926 C   0  0  0  0  0  0  0  0  0  0  0  0
   22.7694  -13.4737  -19.0181 O   0  0  0  0  0  0  0  0  0  0  0  0
   19.1863  -14.3196  -16.1623 N   0  0  0  0  0  0  0  0  0  0  0  0
   18.3964  -13.3606  -16.8366 C   0  0  0  0  0  0  0  0  0  0  0  0
   17.1450  -13.3974  -16.8707 O   0  0  0  0  0  0  0  0  0  0  0  0
   19.0902  -12.2526  -17.5404 C   0  0  0  0  0  0  0  0  0  0  0  0
   20.5566  -12.3872  -17.3417 C   0  0  0  0  0  0  0  0  0  0  0  0
   21.3908  -11.3476  -18.0453 C   0  0  2  0  0  0  0  0  0  0  0  0
   22.7772  -11.6412  -17.6372 N   0  0  0  0  0  0  0  0  0  0  0  0
   21.0336  -10.0104  -17.5192 C   0  0  0  0  0  0  0  0  0  0  0  0
   19.9054   -9.4683  -17.6514 O   0  0  0  0  0  0  0  0  0  0  0  0
   22.5163   -1.9692  -14.0739 O   0  0  0  0  0  0  0  0  0  0  0  0
   22.5357   -3.3336  -14.3687 C   0  0  0  0  0  0  0  0  0  0  0  0
   23.4101   -3.8344  -15.3114 C   0  0  0  0  0  0  0  0  0  0  0  0
   23.4535   -5.1968  -15.6290 C   0  0  0  0  0  0  0  0  0  0  0  0
   22.6049   -6.0725  -14.9897 C   0  0  0  0  0  0  0  0  0  0  0  0
   22.6301   -7.5206  -15.3099 C   0  0  0  0  0  0  0  0  0  0  0  0
   21.7353   -7.8609  -16.4762 C   0  0  2  0  0  0  0  0  0  0  0  0
   22.0020   -9.2464  -16.8070 N   0  0  0  0  0  0  0  0  0  0  0  0
   21.9350   -7.0359  -17.6636 C   0  0  0  0  0  0  0  0  0  0  0  0
   21.1581   -5.9233  -17.9686 O   0  0  0  0  0  0  0  0  0  0  0  0
   21.7294   -5.5677  -14.0451 C   0  0  0  0  0  0  0  0  0  0  0  0
   21.6894   -4.2188  -13.7335 C   0  0  0  0  0  0  0  0  0  0  0  0
   22.8488   -7.3156  -18.4778 O   0  0  0  0  0  0  0  0  0  0  0  0
  2  1  1  6
  2  3  1  0
  4  9  1  0
  4  3  1  0
  5  4  2  0
  6  7  2  0
  6  5  1  0
  7  8  1  0
  8  9  2  0
 10  2  1  0
 10 11  2  0
 12 13  1  0
 13 15  1  0
 14 13  2  0
 15 16  1  0
 17 16  1  1
 17 18  1  0
 18 10  1  0
 19 17  1  0
 20 19  2  0
 22 23  2  0
 22 21  1  0
 24 23  1  0
 25 24  2  0
 26 25  1  0
 27 26  1  1
 27 28  1  0
 28 19  1  0
 29 27  1  0
 30 29  1  0
 31 25  1  0
 31 32  2  0
 32 22  1  0
 33 29  2  0
M  END
$$$$
