FQY.pdb
     RDKit          3D

 33 34  0  0  1  0  0  0  0  0999 V2000
   25.8081  -23.6940  -16.7715 N   0  0  0  0  0  0  0  0  0  0  0  0
   25.3368  -24.7963  -15.9772 C   0  0  1  0  0  0  0  0  0  0  0  0
   26.4611  -25.6163  -15.3816 C   0  0  0  0  0  0  0  0  0  0  0  0
   27.1353  -26.4585  -16.3788 C   0  0  0  0  0  0  0  0  0  0  0  0
   26.6530  -27.7164  -16.6599 C   0  0  0  0  0  0  0  0  0  0  0  0
   27.2924  -28.5238  -17.6103 C   0  0  0  0  0  0  0  0  0  0  0  0
   28.3994  -28.0709  -18.2665 C   0  0  0  0  0  0  0  0  0  0  0  0
   28.8875  -26.8158  -17.9917 C   0  0  0  0  0  0  0  0  0  0  0  0
   28.2505  -26.0148  -17.0466 C   0  0  0  0  0  0  0  0  0  0  0  0
   24.5185  -24.2871  -14.8336 C   0  0  0  0  0  0  0  0  0  0  0  0
   24.9386  -23.3927  -14.0603 O   0  0  0  0  0  0  0  0  0  0  0  0
   21.7635  -20.3289  -14.0882 N   0  0  0  0  0  0  0  0  0  0  0  0
   21.4034  -21.1691  -15.1665 C   0  0  0  0  0  0  0  0  0  0  0  0
   20.8815  -20.7491  -16.2247 O   0  0  0  0  0  0  0  0  0  0  0  0
   21.6586  -22.6257  -15.0341 C   0  0  0  0  0  0  0  0  0  0  0  0
   22.2006  -22.9078  -13.6797 C   0  0  0  0  0  0  0  0  0  0  0  0
   22.5041  -24.3587  -13.4066 C   0  0  2  0  0  0  0  0  0  0  0  0
   23.2281  -24.8218  -14.6050 N   0  0  0  0  0  0  0  0  0  0  0  0
   21.2293  -25.1076  -13.3255 C   0  0  0  0  0  0  0  0  0  0  0  0
   20.5525  -25.4765  -14.3204 O   0  0  0  0  0  0  0  0  0  0  0  0
   17.4884  -24.9199   -6.0325 O   0  0  0  0  0  0  0  0  0  0  0  0
   18.0349  -25.4646   -7.1959 C   0  0  0  0  0  0  0  0  0  0  0  0
   17.4538  -26.5632   -7.7954 C   0  0  0  0  0  0  0  0  0  0  0  0
   17.9778  -27.1320   -8.9619 C   0  0  0  0  0  0  0  0  0  0  0  0
   19.1047  -26.5893   -9.5375 C   0  0  0  0  0  0  0  0  0  0  0  0
   19.6806  -27.1750  -10.7725 C   0  0  0  0  0  0  0  0  0  0  0  0
   19.4973  -26.2736  -11.9686 C   0  0  2  0  0  0  0  0  0  0  0  0
   20.6918  -25.4573  -12.0537 N   0  0  0  0  0  0  0  0  0  0  0  0
   18.3251  -25.4060  -11.9088 C   0  0  0  0  0  0  0  0  0  0  0  0
   17.0363  -25.8296  -12.2154 O   0  0  0  0  0  0  0  0  0  0  0  0
   19.6852  -25.4879   -8.9343 C   0  0  0  0  0  0  0  0  0  0  0  0
   19.1637  -24.9279   -7.7800 C   0  0  0  0  0  0  0  0  0  0  0  0
   18.4483  -24.2046  -11.5659 O   0  0  0  0  0  0  0  0  0  0  0  0
  2  1  1  1
  2  3  1  0
  4  9  1  0
  4  3  1  0
  5  4  2  0
  6  7  2  0
  6  5  1  0
  7  8  1  0
  8  9  2  0
 10  2  1  0
 10 11  2  0
 12 13  1  0
 13 15  1  0
 14 13  2  0
 15 16  1  0
 17 16  1  6
 17 18  1  0
 18 10  1  0
 19 17  1  0
 20 19  2  0
 22 23  2  0
 22 21  1  0
 24 23  1  0
 25 24  2  0
 26 25  1  0
 27 26  1  1
 27 28  1  0
 28 19  1  0
 29 27  1  0
 30 29  1  0
 31 25  1  0
 31 32  2  0
 32 22  1  0
 33 29  2  0
M  END
$$$$
