MVL.pdb
     RDKit          3D

 24 23  0  0  1  0  0  0  0  0999 V2000
   13.9250  -19.4377   24.6647 C   0  0  0  0  0  0  0  0  0  0  0  0
   13.4575  -20.6966   23.4634 S   0  0  0  0  0  0  0  0  0  0  0  0
   12.8457  -20.0142   21.9265 C   0  0  0  0  0  0  0  0  0  0  0  0
   12.3094  -18.6232   22.1647 C   0  0  0  0  0  0  0  0  0  0  0  0
   11.8135  -17.9659   20.8984 C   0  0  2  0  0  0  0  0  0  0  0  0
   13.0046  -17.6247   20.1228 N   0  0  0  0  0  0  0  0  0  0  0  0
   11.0242  -16.7519   21.1696 C   0  0  0  0  0  0  0  0  0  0  0  0
   11.5431  -15.6121   21.3441 O   0  0  0  0  0  0  0  0  0  0  0  0
    6.8058  -14.2736   21.2195 C   0  0  0  0  0  0  0  0  0  0  0  0
    7.5704  -15.4896   20.7626 C   0  0  1  0  0  0  0  0  0  0  0  0
    8.0197  -15.2550   19.3339 C   0  0  0  0  0  0  0  0  0  0  0  0
    8.8180  -15.6125   21.5987 C   0  0  2  0  0  0  0  0  0  0  0  0
    9.6008  -16.7835   21.2532 N   0  0  0  0  0  0  0  0  0  0  0  0
    8.5558  -15.5494   23.0606 C   0  0  0  0  0  0  0  0  0  0  0  0
    8.6603  -16.5583   23.8025 O   0  0  0  0  0  0  0  0  0  0  0  0
    7.6239  -12.1801   27.6024 C   0  0  0  0  0  0  0  0  0  0  0  0
    6.5048  -12.7527   26.6665 C   0  0  1  0  0  0  0  0  0  0  0  0
    5.4337  -11.7079   26.6843 C   0  0  0  0  0  0  0  0  0  0  0  0
    7.1129  -13.0785   25.3622 C   0  0  0  0  0  0  0  0  0  0  0  0
    7.9220  -14.2937   25.1698 C   0  0  2  0  0  0  0  0  0  0  0  0
    8.1714  -14.3468   23.7084 N   0  0  0  0  0  0  0  0  0  0  0  0
    7.2219  -15.5461   25.4583 C   0  0  0  0  0  0  0  0  0  0  0  0
    7.5756  -16.2681   26.4105 O   0  0  0  0  0  0  0  0  0  0  0  0
    6.1404  -15.9972   24.7034 O   0  0  0  0  0  0  0  0  0  0  0  0
  2  1  1  0
  3  2  1  0
  4  3  1  0
  5  7  1  0
  5  4  1  0
  5  6  1  6
  7  8  2  0
 10  9  1  1
 10 11  1  0
 10 12  1  0
 12 13  1  1
 13  7  1  0
 14 12  1  0
 15 14  2  0
 17 16  1  1
 17 19  1  0
 18 17  1  0
 20 19  1  6
 20 21  1  0
 20 22  1  0
 21 14  1  0
 22 24  1  0
 23 22  2  0
M  END
$$$$
