MVL.pdb
     RDKit          3D

 24 23  0  0  1  0  0  0  0  0999 V2000
   14.0323  -18.0269   24.2364 C   0  0  0  0  0  0  0  0  0  0  0  0
   13.7371  -19.5326   23.2918 S   0  0  0  0  0  0  0  0  0  0  0  0
   12.7731  -19.2592   21.8092 C   0  0  0  0  0  0  0  0  0  0  0  0
   12.6139  -17.7768   21.5714 C   0  0  0  0  0  0  0  0  0  0  0  0
   11.7949  -17.4696   20.3402 C   0  0  2  0  0  0  0  0  0  0  0  0
   12.7498  -17.1011   19.2967 N   0  0  0  0  0  0  0  0  0  0  0  0
   10.8415  -16.3684   20.5621 C   0  0  0  0  0  0  0  0  0  0  0  0
   10.6823  -15.4146   19.7474 O   0  0  0  0  0  0  0  0  0  0  0  0
    6.6213  -14.9240   20.9650 C   0  0  0  0  0  0  0  0  0  0  0  0
    7.8947  -15.6761   20.6735 C   0  0  1  0  0  0  0  0  0  0  0  0
    8.5272  -15.0707   19.4358 C   0  0  0  0  0  0  0  0  0  0  0  0
    8.8559  -15.4488   21.8115 C   0  0  2  0  0  0  0  0  0  0  0  0
   10.0226  -16.3061   21.7280 N   0  0  0  0  0  0  0  0  0  0  0  0
    8.2151  -15.5363   23.1500 C   0  0  0  0  0  0  0  0  0  0  0  0
    8.1237  -16.6213   23.7774 O   0  0  0  0  0  0  0  0  0  0  0  0
    7.3568  -10.6878   26.7531 C   0  0  0  0  0  0  0  0  0  0  0  0
    7.2779  -12.2499   26.8525 C   0  0  1  0  0  0  0  0  0  0  0  0
    5.9978  -12.5127   27.5816 C   0  0  0  0  0  0  0  0  0  0  0  0
    7.4112  -12.8083   25.4932 C   0  0  0  0  0  0  0  0  0  0  0  0
    7.7727  -14.2181   25.2698 C   0  0  2  0  0  0  0  0  0  0  0  0
    7.6673  -14.4009   23.8015 N   0  0  0  0  0  0  0  0  0  0  0  0
    6.8233  -15.1870   25.8195 C   0  0  0  0  0  0  0  0  0  0  0  0
    5.7149  -15.3684   25.2795 O   0  0  0  0  0  0  0  0  0  0  0  0
    7.0952  -15.9495   26.9542 O   0  0  0  0  0  0  0  0  0  0  0  0
  2  1  1  0
  3  2  1  0
  4  3  1  0
  5  7  1  0
  5  4  1  0
  5  6  1  6
  7  8  2  0
 10  9  1  1
 10 11  1  0
 10 12  1  0
 12 13  1  1
 13  7  1  0
 14 12  1  0
 15 14  2  0
 17 16  1  6
 17 19  1  0
 18 17  1  0
 20 19  1  6
 20 21  1  0
 20 22  1  0
 21 14  1  0
 22 24  1  0
 23 22  2  0
M  END
$$$$
