MVL.pdb
     RDKit          3D

 24 23  0  0  1  0  0  0  0  0999 V2000
    5.2877  -11.5187   26.3065 C   0  0  0  0  0  0  0  0  0  0  0  0
    5.0491  -12.8923   27.4479 S   0  0  0  0  0  0  0  0  0  0  0  0
    4.7709  -14.4560   26.6234 C   0  0  0  0  0  0  0  0  0  0  0  0
    6.0336  -14.8928   25.9205 C   0  0  0  0  0  0  0  0  0  0  0  0
    5.7873  -15.9852   24.9071 C   0  0  2  0  0  0  0  0  0  0  0  0
    5.4784  -17.1907   25.6740 N   0  0  0  0  0  0  0  0  0  0  0  0
    6.9576  -16.2232   24.0444 C   0  0  0  0  0  0  0  0  0  0  0  0
    7.5087  -17.3544   23.9201 O   0  0  0  0  0  0  0  0  0  0  0  0
   10.1921  -14.5605   20.6776 C   0  0  0  0  0  0  0  0  0  0  0  0
    8.9716  -14.2438   21.5037 C   0  0  1  0  0  0  0  0  0  0  0  0
    7.7786  -14.1653   20.5717 C   0  0  0  0  0  0  0  0  0  0  0  0
    8.7177  -15.3945   22.4430 C   0  0  2  0  0  0  0  0  0  0  0  0
    7.5539  -15.1769   23.2803 N   0  0  0  0  0  0  0  0  0  0  0  0
    9.9065  -15.7652   23.2550 C   0  0  0  0  0  0  0  0  0  0  0  0
   11.0614  -15.8200   22.7628 O   0  0  0  0  0  0  0  0  0  0  0  0
   10.2522  -13.0707   28.2888 C   0  0  0  0  0  0  0  0  0  0  0  0
   11.0531  -14.2743   27.6837 C   0  0  1  0  0  0  0  0  0  0  0  0
   11.2617  -15.2016   28.8394 C   0  0  0  0  0  0  0  0  0  0  0  0
   10.3033  -14.7938   26.5239 C   0  0  0  0  0  0  0  0  0  0  0  0
   10.9027  -15.7580   25.5862 C   0  0  2  0  0  0  0  0  0  0  0  0
    9.8106  -16.0801   24.6354 N   0  0  0  0  0  0  0  0  0  0  0  0
   11.2529  -17.0497   26.1787 C   0  0  0  0  0  0  0  0  0  0  0  0
   12.1979  -17.1445   26.9855 O   0  0  0  0  0  0  0  0  0  0  0  0
   10.5656  -18.2261   25.8841 O   0  0  0  0  0  0  0  0  0  0  0  0
  2  1  1  0
  3  2  1  0
  4  3  1  0
  5  7  1  0
  5  4  1  0
  5  6  1  1
  7  8  2  0
 10  9  1  6
 10 11  1  0
 10 12  1  0
 12 13  1  1
 13  7  1  0
 14 12  1  0
 15 14  2  0
 17 16  1  1
 17 19  1  0
 18 17  1  0
 20 19  1  1
 20 21  1  0
 20 22  1  0
 21 14  1  0
 22 24  1  0
 23 22  2  0
M  END
$$$$
