MVL.pdb
     RDKit          3D

 24 23  0  0  1  0  0  0  0  0999 V2000
   13.1495  -19.6977   24.0028 C   0  0  0  0  0  0  0  0  0  0  0  0
   12.3287  -20.7151   22.7628 S   0  0  0  0  0  0  0  0  0  0  0  0
   11.3728  -19.7627   21.5874 C   0  0  0  0  0  0  0  0  0  0  0  0
   12.1304  -18.5129   21.2087 C   0  0  0  0  0  0  0  0  0  0  0  0
   11.3542  -17.6256   20.2645 C   0  0  2  0  0  0  0  0  0  0  0  0
   12.3110  -17.1621   19.2613 N   0  0  0  0  0  0  0  0  0  0  0  0
   10.7466  -16.4726   20.9515 C   0  0  0  0  0  0  0  0  0  0  0  0
   11.3968  -15.4383   21.2775 O   0  0  0  0  0  0  0  0  0  0  0  0
    6.9236  -13.7338   22.1911 C   0  0  0  0  0  0  0  0  0  0  0  0
    7.4482  -14.9122   21.4111 C   0  0  1  0  0  0  0  0  0  0  0  0
    7.7399  -14.4497   19.9972 C   0  0  0  0  0  0  0  0  0  0  0  0
    8.7631  -15.3369   22.0123 C   0  0  2  0  0  0  0  0  0  0  0  0
    9.3634  -16.4472   21.2982 N   0  0  0  0  0  0  0  0  0  0  0  0
    8.6822  -15.6124   23.4709 C   0  0  0  0  0  0  0  0  0  0  0  0
    8.7206  -16.7802   23.9335 O   0  0  0  0  0  0  0  0  0  0  0  0
    7.5549  -11.4361   27.4243 C   0  0  0  0  0  0  0  0  0  0  0  0
    7.2332  -12.8940   26.9477 C   0  0  1  0  0  0  0  0  0  0  0  0
    6.1657  -12.7209   25.9135 C   0  0  0  0  0  0  0  0  0  0  0  0
    8.4939  -13.5311   26.5211 C   0  0  0  0  0  0  0  0  0  0  0  0
    8.5111  -14.8593   25.8855 C   0  0  2  0  0  0  0  0  0  0  0  0
    8.5564  -14.5745   24.4304 N   0  0  0  0  0  0  0  0  0  0  0  0
    7.2828  -15.6360   26.0593 C   0  0  0  0  0  0  0  0  0  0  0  0
    6.3037  -15.4543   25.3103 O   0  0  0  0  0  0  0  0  0  0  0  0
    7.1370  -16.6053   27.0504 O   0  0  0  0  0  0  0  0  0  0  0  0
  2  1  1  0
  3  2  1  0
  4  3  1  0
  5  7  1  0
  5  4  1  0
  5  6  1  6
  7  8  2  0
 10  9  1  1
 10 11  1  0
 10 12  1  0
 12 13  1  6
 13  7  1  0
 14 12  1  0
 15 14  2  0
 17 16  1  6
 17 19  1  0
 18 17  1  0
 20 19  1  1
 20 21  1  0
 20 22  1  0
 21 14  1  0
 22 24  1  0
 23 22  2  0
M  END
$$$$
