RMD.pdb
     RDKit          3D

 28 27  0  0  1  0  0  0  0  0999 V2000
    9.5578  -13.4727   18.7288 N   0  0  0  0  0  0  0  0  0  0  0  0
    8.4945  -12.7252   19.3364 C   0  0  0  0  0  0  0  0  0  0  0  0
    8.5594  -11.4205   19.3559 N   0  0  0  0  0  0  0  0  0  0  0  0
    7.3699  -13.3483   19.9158 N   0  0  0  0  0  0  0  0  0  0  0  0
    7.4989  -14.5059   20.7460 C   0  0  0  0  0  0  0  0  0  0  0  0
    7.7581  -15.7077   19.8363 C   0  0  0  0  0  0  0  0  0  0  0  0
    9.1528  -16.1899   20.1775 C   0  0  0  0  0  0  0  0  0  0  0  0
    9.1135  -17.3133   21.1984 C   0  0  2  0  0  0  0  0  0  0  0  0
    7.7862  -17.7251   21.5502 N   0  0  0  0  0  0  0  0  0  0  0  0
    9.7958  -16.8110   22.4164 C   0  0  0  0  0  0  0  0  0  0  0  0
   10.9751  -16.3238   22.3340 O   0  0  0  0  0  0  0  0  0  0  0  0
    7.8187  -10.8820   19.8728 C   0  0  0  0  0  0  0  0  0  0  0  0
    9.2208  -13.0063   29.1261 S   0  0  0  0  0  0  0  0  0  0  0  0
    8.4642  -13.6851   27.6091 C   0  0  0  0  0  0  0  0  0  0  0  0
    9.5042  -14.9818   26.8724 C   0  0  0  0  0  0  0  0  0  0  0  0
    8.9021  -15.4848   25.5778 C   0  0  1  0  0  0  0  0  0  0  0  0
    9.8153  -16.4422   24.8603 N   0  0  0  0  0  0  0  0  0  0  0  0
    9.1475  -16.8734   23.6484 C   0  0  0  0  0  0  0  0  0  0  0  0
   10.1324  -17.6369   25.6471 O   0  0  0  0  0  0  0  0  0  0  0  0
    9.2846  -18.5193   25.9240 N   0  0  0  0  0  0  0  0  0  0  0  0
   11.4523  -17.8324   26.1326 C   0  0  1  0  0  0  0  0  0  0  0  0
   11.8507  -18.9881   26.9020 C   0  0  0  0  0  0  0  0  0  0  0  0
   13.2573  -19.3524   26.4735 C   0  0  0  0  0  0  0  0  0  0  0  0
   13.7832  -20.5076   27.2304 O   0  0  0  0  0  0  0  0  0  0  0  0
   13.0476  -21.4082   27.7063 C   0  0  0  0  0  0  0  0  0  0  0  0
   11.7733  -18.6740   28.3387 O   0  0  0  0  0  0  0  0  0  0  0  0
   11.5664  -19.6028   29.3342 O   0  0  0  0  0  0  0  0  0  0  0  0
   15.1511  -20.6091   27.4332 O   0  0  0  0  0  0  0  0  0  0  0  0
  2  1  1  0
  3  2  2  0
  4  2  1  0
  5  4  1  0
  6  5  1  0
  7  6  1  0
  8  7  1  0
  8  9  1  1
 10 11  2  0
 10  8  1  0
 12 13  1  0
 14 13  1  0
 15 14  1  0
 16 17  1  0
 16 15  1  6
 17 10  1  0
 18 16  1  0
 19 18  2  0
 20 18  1  0
 21 20  1  0
 21 22  1  1
 22 23  1  0
 23 24  2  0
 25 21  1  0
 25 26  1  0
 27 23  1  0
 28 25  2  0
M  END
$$$$
