RMD.pdb
     RDKit          3D

 28 27  0  0  1  0  0  0  0  0999 V2000
    7.7766  -15.0538   15.4792 N   0  0  0  0  0  0  0  0  0  0  0  0
    7.7997  -13.8526   16.2633 C   0  0  0  0  0  0  0  0  0  0  0  0
    8.6629  -12.9157   15.9735 N   0  0  0  0  0  0  0  0  0  0  0  0
    6.9172  -13.6393   17.3424 N   0  0  0  0  0  0  0  0  0  0  0  0
    6.8370  -14.5557   18.4377 C   0  0  0  0  0  0  0  0  0  0  0  0
    7.4544  -13.8772   19.6616 C   0  0  0  0  0  0  0  0  0  0  0  0
    8.7526  -14.6103   19.9284 C   0  0  0  0  0  0  0  0  0  0  0  0
    8.5337  -15.8062   20.8381 C   0  0  2  0  0  0  0  0  0  0  0  0
    7.1526  -16.1406   21.0268 N   0  0  0  0  0  0  0  0  0  0  0  0
    9.1247  -15.4590   22.1540 C   0  0  0  0  0  0  0  0  0  0  0  0
   10.3344  -15.0508   22.2242 O   0  0  0  0  0  0  0  0  0  0  0  0
    8.7023  -12.0559   16.5776 C   0  0  0  0  0  0  0  0  0  0  0  0
    6.8578  -11.6659   27.3210 S   0  0  0  0  0  0  0  0  0  0  0  0
    6.0810  -12.4839   25.8850 C   0  0  0  0  0  0  0  0  0  0  0  0
    7.3247  -13.2693   24.8163 C   0  0  0  0  0  0  0  0  0  0  0  0
    7.7907  -14.5828   25.4072 C   0  0  2  0  0  0  0  0  0  0  0  0
    8.8989  -15.2068   24.6023 N   0  0  0  0  0  0  0  0  0  0  0  0
    8.3574  -15.5807   23.3110 C   0  0  0  0  0  0  0  0  0  0  0  0
    9.4539  -16.4129   25.2222 O   0  0  0  0  0  0  0  0  0  0  0  0
    8.8061  -17.4804   25.3436 N   0  0  0  0  0  0  0  0  0  0  0  0
   10.7843  -16.4032   25.7182 C   0  0  1  0  0  0  0  0  0  0  0  0
   11.3774  -17.5188   26.4182 C   0  0  0  0  0  0  0  0  0  0  0  0
   12.8714  -17.4620   26.1742 C   0  0  0  0  0  0  0  0  0  0  0  0
   13.2171  -17.8161   24.7817 O   0  0  0  0  0  0  0  0  0  0  0  0
   12.5845  -18.6721   24.1143 C   0  0  0  0  0  0  0  0  0  0  0  0
   11.0465  -17.4337   27.8507 O   0  0  0  0  0  0  0  0  0  0  0  0
   11.2843  -18.4303   28.7709 O   0  0  0  0  0  0  0  0  0  0  0  0
   14.2910  -17.1816   24.1761 O   0  0  0  0  0  0  0  0  0  0  0  0
  2  1  1  0
  3  2  2  0
  4  2  1  0
  5  4  1  0
  6  5  1  0
  7  6  1  0
  8  7  1  0
  8  9  1  1
 10 11  2  0
 10  8  1  0
 12 13  1  0
 14 13  1  0
 15 14  1  0
 16 17  1  0
 16 15  1  6
 17 10  1  0
 18 16  1  0
 19 18  2  0
 20 18  1  0
 21 20  1  0
 21 22  1  1
 22 23  1  0
 23 24  2  0
 25 21  1  0
 25 26  1  0
 27 23  1  0
 28 25  2  0
M  END
$$$$
