RMD.pdb
     RDKit          3D

 28 27  0  0  1  0  0  0  0  0999 V2000
    7.6932  -12.8201   16.1408 N   0  0  0  0  0  0  0  0  0  0  0  0
    7.9726  -14.2273   16.1323 C   0  0  0  0  0  0  0  0  0  0  0  0
    7.8313  -14.9011   15.0219 N   0  0  0  0  0  0  0  0  0  0  0  0
    8.4010  -14.9180   17.2847 N   0  0  0  0  0  0  0  0  0  0  0  0
    7.5054  -15.2066   18.3620 C   0  0  0  0  0  0  0  0  0  0  0  0
    7.6058  -14.0633   19.3730 C   0  0  0  0  0  0  0  0  0  0  0  0
    8.9688  -14.2025   20.0188 C   0  0  0  0  0  0  0  0  0  0  0  0
    9.0092  -15.3834   20.9725 C   0  0  2  0  0  0  0  0  0  0  0  0
    7.8659  -16.2425   20.8733 N   0  0  0  0  0  0  0  0  0  0  0  0
    9.0687  -14.8250   22.3457 C   0  0  0  0  0  0  0  0  0  0  0  0
    9.9055  -13.8990   22.6239 O   0  0  0  0  0  0  0  0  0  0  0  0
    7.9882  -15.9408   15.0345 C   0  0  0  0  0  0  0  0  0  0  0  0
    7.9957  -11.9614   28.2341 S   0  0  0  0  0  0  0  0  0  0  0  0
    7.1445  -12.3888   26.6761 C   0  0  0  0  0  0  0  0  0  0  0  0
    6.7601  -14.1640   26.5958 C   0  0  0  0  0  0  0  0  0  0  0  0
    6.8308  -14.6667   25.1697 C   0  0  1  0  0  0  0  0  0  0  0  0
    8.2483  -14.7810   24.6768 N   0  0  0  0  0  0  0  0  0  0  0  0
    8.2113  -15.3139   23.3295 C   0  0  0  0  0  0  0  0  0  0  0  0
    9.0721  -15.6780   25.4914 O   0  0  0  0  0  0  0  0  0  0  0  0
    9.2512  -15.5140   26.7223 N   0  0  0  0  0  0  0  0  0  0  0  0
    9.7104  -16.7932   24.8874 C   0  0  1  0  0  0  0  0  0  0  0  0
   10.6104  -17.6718   25.5976 C   0  0  0  0  0  0  0  0  0  0  0  0
   10.1718  -19.0935   25.3125 C   0  0  0  0  0  0  0  0  0  0  0  0
    9.2314  -19.5967   26.3355 O   0  0  0  0  0  0  0  0  0  0  0  0
    9.3526  -20.7199   26.8853 C   0  0  0  0  0  0  0  0  0  0  0  0
   11.9933  -17.4203   25.1583 O   0  0  0  0  0  0  0  0  0  0  0  0
   13.1139  -17.6532   25.9241 O   0  0  0  0  0  0  0  0  0  0  0  0
    8.1599  -18.8005   26.7099 O   0  0  0  0  0  0  0  0  0  0  0  0
  2  1  1  0
  3  2  2  0
  4  2  1  0
  5  4  1  0
  6  5  1  0
  7  6  1  0
  8  7  1  0
  8  9  1  1
 10 11  2  0
 10  8  1  0
 12 13  1  0
 14 13  1  0
 15 14  1  0
 16 17  1  0
 16 15  1  6
 17 10  1  0
 18 16  1  0
 19 18  2  0
 20 18  1  0
 21 20  1  0
 21 22  1  1
 22 23  1  0
 23 24  2  0
 25 21  1  0
 25 26  1  0
 27 23  1  0
 28 25  2  0
M  END
$$$$
