RMD.pdb
     RDKit          3D

 28 27  0  0  1  0  0  0  0  0999 V2000
    8.1943  -13.3752   15.8345 N   0  0  0  0  0  0  0  0  0  0  0  0
    8.1124  -13.2629   17.2624 C   0  0  0  0  0  0  0  0  0  0  0  0
    8.5875  -12.1965   17.8488 N   0  0  0  0  0  0  0  0  0  0  0  0
    7.5310  -14.2657   18.0656 N   0  0  0  0  0  0  0  0  0  0  0  0
    7.9725  -15.6248   18.0047 C   0  0  0  0  0  0  0  0  0  0  0  0
    8.5460  -15.9925   19.3740 C   0  0  0  0  0  0  0  0  0  0  0  0
    7.3693  -16.4712   20.1988 C   0  0  0  0  0  0  0  0  0  0  0  0
    7.8310  -17.1474   21.4776 C   0  0  2  0  0  0  0  0  0  0  0  0
    6.7631  -17.7191   22.2442 N   0  0  0  0  0  0  0  0  0  0  0  0
    8.5019  -16.1072   22.2957 C   0  0  0  0  0  0  0  0  0  0  0  0
    9.5837  -15.5663   21.8808 O   0  0  0  0  0  0  0  0  0  0  0  0
    8.5550  -12.1359   18.8982 C   0  0  0  0  0  0  0  0  0  0  0  0
    5.3059  -12.9013   27.1282 S   0  0  0  0  0  0  0  0  0  0  0  0
    6.8522  -11.9725   26.8443 C   0  0  0  0  0  0  0  0  0  0  0  0
    8.1408  -13.0340   26.1244 C   0  0  0  0  0  0  0  0  0  0  0  0
    7.5509  -13.9760   25.0966 C   0  0  1  0  0  0  0  0  0  0  0  0
    8.6114  -14.7440   24.3545 N   0  0  0  0  0  0  0  0  0  0  0  0
    7.9496  -15.7238   23.5163 C   0  0  0  0  0  0  0  0  0  0  0  0
    9.5320  -15.4607   25.2410 O   0  0  0  0  0  0  0  0  0  0  0  0
    9.7055  -15.1496   26.4440 N   0  0  0  0  0  0  0  0  0  0  0  0
   10.2763  -16.5628   24.7436 C   0  0  1  0  0  0  0  0  0  0  0  0
   11.4584  -17.0789   25.3937 C   0  0  0  0  0  0  0  0  0  0  0  0
   11.1731  -18.5175   25.7729 C   0  0  0  0  0  0  0  0  0  0  0  0
   10.3442  -18.6129   26.9928 O   0  0  0  0  0  0  0  0  0  0  0  0
   10.0481  -17.6178   27.7003 C   0  0  0  0  0  0  0  0  0  0  0  0
   12.6108  -16.9641   24.4840 O   0  0  0  0  0  0  0  0  0  0  0  0
   12.5412  -16.5188   23.1827 O   0  0  0  0  0  0  0  0  0  0  0  0
    9.8697  -19.8553   27.3847 O   0  0  0  0  0  0  0  0  0  0  0  0
  2  1  1  0
  3  2  2  0
  4  2  1  0
  5  4  1  0
  6  5  1  0
  7  6  1  0
  8  7  1  0
  8  9  1  1
 10 11  2  0
 10  8  1  0
 12 13  1  0
 14 13  1  0
 15 14  1  0
 16 17  1  0
 16 15  1  6
 17 10  1  0
 18 16  1  0
 19 18  2  0
 20 18  1  0
 21 20  1  0
 21 22  1  1
 22 23  1  0
 23 24  2  0
 25 21  1  0
 25 26  1  0
 27 23  1  0
 28 25  2  0
M  END
$$$$
