RMD.pdb
     RDKit          3D

 28 27  0  0  1  0  0  0  0  0999 V2000
    8.9875  -14.9528   16.0599 N   0  0  0  0  0  0  0  0  0  0  0  0
    8.1360  -13.8713   15.6555 C   0  0  0  0  0  0  0  0  0  0  0  0
    7.9482  -13.6463   14.3823 N   0  0  0  0  0  0  0  0  0  0  0  0
    7.4849  -13.0355   16.5862 N   0  0  0  0  0  0  0  0  0  0  0  0
    7.6906  -13.1784   17.9944 C   0  0  0  0  0  0  0  0  0  0  0  0
    8.7412  -14.2697   18.2054 C   0  0  0  0  0  0  0  0  0  0  0  0
    9.1697  -14.1551   19.6536 C   0  0  0  0  0  0  0  0  0  0  0  0
    8.7540  -15.3792   20.4503 C   0  0  2  0  0  0  0  0  0  0  0  0
    7.3777  -15.7397   20.2750 N   0  0  0  0  0  0  0  0  0  0  0  0
    8.9853  -15.0599   21.8806 C   0  0  0  0  0  0  0  0  0  0  0  0
   10.1392  -14.6715   22.2708 O   0  0  0  0  0  0  0  0  0  0  0  0
    7.2287  -12.9364   14.0919 C   0  0  0  0  0  0  0  0  0  0  0  0
    7.5034  -11.5989   27.8845 S   0  0  0  0  0  0  0  0  0  0  0  0
    6.5408  -12.3125   26.5066 C   0  0  0  0  0  0  0  0  0  0  0  0
    6.9601  -14.0616   26.2407 C   0  0  0  0  0  0  0  0  0  0  0  0
    6.8414  -14.4277   24.7766 C   0  0  2  0  0  0  0  0  0  0  0  0
    8.1492  -14.9007   24.2011 N   0  0  0  0  0  0  0  0  0  0  0  0
    7.9416  -15.1861   22.7954 C   0  0  0  0  0  0  0  0  0  0  0  0
    8.6520  -16.1211   24.8371 O   0  0  0  0  0  0  0  0  0  0  0  0
    8.1072  -17.2422   24.6941 N   0  0  0  0  0  0  0  0  0  0  0  0
    9.8080  -16.0635   25.6597 C   0  0  1  0  0  0  0  0  0  0  0  0
   10.4018  -17.2277   26.2749 C   0  0  0  0  0  0  0  0  0  0  0  0
   11.8862  -17.1889   25.9749 C   0  0  0  0  0  0  0  0  0  0  0  0
   12.2892  -18.2629   25.0431 O   0  0  0  0  0  0  0  0  0  0  0  0
   11.4786  -19.0930   24.5612 C   0  0  0  0  0  0  0  0  0  0  0  0
   10.1287  -17.2135   27.7219 O   0  0  0  0  0  0  0  0  0  0  0  0
    9.1434  -17.9498   28.3411 O   0  0  0  0  0  0  0  0  0  0  0  0
   13.6234  -18.3696   24.6809 O   0  0  0  0  0  0  0  0  0  0  0  0
  2  1  1  0
  3  2  2  0
  4  2  1  0
  5  4  1  0
  6  5  1  0
  7  6  1  0
  8  7  1  0
  8  9  1  1
 10 11  2  0
 10  8  1  0
 12 13  1  0
 14 13  1  0
 15 14  1  0
 16 17  1  0
 16 15  1  6
 17 10  1  0
 18 16  1  0
 19 18  2  0
 20 18  1  0
 21 20  1  0
 21 22  1  1
 22 23  1  0
 23 24  2  0
 25 21  1  0
 25 26  1  0
 27 23  1  0
 28 25  2  0
M  END
$$$$
