RMD.pdb
     RDKit          3D

 28 27  0  0  1  0  0  0  0  0999 V2000
    7.3026  -13.0222   19.3991 N   0  0  0  0  0  0  0  0  0  0  0  0
    8.2950  -13.2188   18.3818 C   0  0  0  0  0  0  0  0  0  0  0  0
    8.6635  -12.2061   17.6431 N   0  0  0  0  0  0  0  0  0  0  0  0
    8.8966  -14.4725   18.1474 N   0  0  0  0  0  0  0  0  0  0  0  0
    8.1261  -15.6125   17.7568 C   0  0  0  0  0  0  0  0  0  0  0  0
    7.6254  -16.2973   19.0294 C   0  0  0  0  0  0  0  0  0  0  0  0
    8.8567  -16.5458   19.8757 C   0  0  0  0  0  0  0  0  0  0  0  0
    8.5455  -17.4612   21.0466 C   0  0  2  0  0  0  0  0  0  0  0  0
    7.1659  -17.8418   21.1287 N   0  0  0  0  0  0  0  0  0  0  0  0
    8.9106  -16.7211   22.2795 C   0  0  0  0  0  0  0  0  0  0  0  0
   10.0949  -16.2606   22.4222 O   0  0  0  0  0  0  0  0  0  0  0  0
    9.2944  -12.3800   16.8199 C   0  0  0  0  0  0  0  0  0  0  0  0
    7.6579  -11.7362   27.5413 S   0  0  0  0  0  0  0  0  0  0  0  0
    7.3964  -12.6806   26.0004 C   0  0  0  0  0  0  0  0  0  0  0  0
    7.2479  -14.4622   26.3316 C   0  0  0  0  0  0  0  0  0  0  0  0
    7.0146  -15.2312   25.0487 C   0  0  1  0  0  0  0  0  0  0  0  0
    8.2895  -15.8020   24.4882 N   0  0  0  0  0  0  0  0  0  0  0  0
    7.9593  -16.5313   23.2801 C   0  0  0  0  0  0  0  0  0  0  0  0
    8.9580  -16.7301   25.4040 O   0  0  0  0  0  0  0  0  0  0  0  0
    8.4140  -17.7734   25.8392 N   0  0  0  0  0  0  0  0  0  0  0  0
   10.2836  -16.4625   25.8366 C   0  0  1  0  0  0  0  0  0  0  0  0
   10.9987  -17.3044   26.7674 C   0  0  0  0  0  0  0  0  0  0  0  0
   12.4785  -17.0937   26.5214 C   0  0  0  0  0  0  0  0  0  0  0  0
   12.9171  -17.6958   25.2449 O   0  0  0  0  0  0  0  0  0  0  0  0
   12.1372  -18.3022   24.4687 C   0  0  0  0  0  0  0  0  0  0  0  0
   10.6112  -16.9559   28.1448 O   0  0  0  0  0  0  0  0  0  0  0  0
   10.7801  -17.7761   29.2380 O   0  0  0  0  0  0  0  0  0  0  0  0
   14.2510  -17.5951   24.8802 O   0  0  0  0  0  0  0  0  0  0  0  0
  2  1  1  0
  3  2  2  0
  4  2  1  0
  5  4  1  0
  6  5  1  0
  7  6  1  0
  8  7  1  0
  8  9  1  1
 10 11  2  0
 10  8  1  0
 12 13  1  0
 14 13  1  0
 15 14  1  0
 16 17  1  0
 16 15  1  6
 17 10  1  0
 18 16  1  0
 19 18  2  0
 20 18  1  0
 21 20  1  0
 21 22  1  1
 22 23  1  0
 23 24  2  0
 25 21  1  0
 25 26  1  0
 27 23  1  0
 28 25  2  0
M  END
$$$$
