DWY.pdb
     RDKit          3D

 35 37  0  0  1  0  0  0  0  0999 V2000
   11.5611  -16.4810   19.6230 N   0  0  0  0  0  0  0  0  0  0  0  0
   11.1177  -17.4192   20.6057 C   0  0  1  0  0  0  0  0  0  0  0  0
   12.2606  -18.3324   20.9606 C   0  0  0  0  0  0  0  0  0  0  0  0
   12.6673  -19.0692   19.7435 C   0  0  0  0  0  0  0  0  0  0  0  0
   11.8453  -19.7479   19.0861 O   0  0  0  0  0  0  0  0  0  0  0  0
   10.5884  -16.7112   21.8121 C   0  0  0  0  0  0  0  0  0  0  0  0
   11.2809  -15.8026   22.3270 O   0  0  0  0  0  0  0  0  0  0  0  0
   13.9819  -19.0086   19.3211 O   0  0  0  0  0  0  0  0  0  0  0  0
    9.3335  -17.0601   22.3594 N   0  0  0  0  0  0  0  0  0  0  0  0
    8.7945  -16.5162   23.5548 C   0  0  1  0  0  0  0  0  0  0  0  0
    7.2901  -16.2955   23.5671 C   0  0  0  0  0  0  0  0  0  0  0  0
    6.7904  -15.7234   24.8361 C   0  0  0  0  0  0  0  0  0  0  0  0
    6.2509  -16.3151   25.9437 C   0  0  0  0  0  0  0  0  0  0  0  0
    5.9575  -15.3576   26.8431 N   0  0  0  0  0  0  0  0  0  0  0  0
    6.2856  -14.1469   26.3688 C   0  0  0  0  0  0  0  0  0  0  0  0
    6.2081  -12.8601   26.8553 C   0  0  0  0  0  0  0  0  0  0  0  0
    6.6445  -11.7675   26.1130 C   0  0  0  0  0  0  0  0  0  0  0  0
    7.1622  -11.9774   24.8718 C   0  0  0  0  0  0  0  0  0  0  0  0
    7.2389  -13.2858   24.3816 C   0  0  0  0  0  0  0  0  0  0  0  0
    6.8089  -14.3498   25.1150 C   0  0  0  0  0  0  0  0  0  0  0  0
    9.2495  -17.0833   24.8098 C   0  0  0  0  0  0  0  0  0  0  0  0
    9.0805  -18.3238   25.0003 O   0  0  0  0  0  0  0  0  0  0  0  0
   15.6096  -15.8137   23.5933 O   0  0  0  0  0  0  0  0  0  0  0  0
   14.6182  -15.9184   24.5597 C   0  0  0  0  0  0  0  0  0  0  0  0
   14.4606  -17.0683   25.3095 C   0  0  0  0  0  0  0  0  0  0  0  0
   13.4802  -17.1890   26.2745 C   0  0  0  0  0  0  0  0  0  0  0  0
   12.6008  -16.1341   26.5281 C   0  0  0  0  0  0  0  0  0  0  0  0
   11.5488  -16.2764   27.5583 C   0  0  0  0  0  0  0  0  0  0  0  0
   10.3507  -17.0218   27.0697 C   0  0  2  0  0  0  0  0  0  0  0  0
    9.8770  -16.3646   25.8616 N   0  0  0  0  0  0  0  0  0  0  0  0
    9.2826  -17.2213   28.0495 C   0  0  0  0  0  0  0  0  0  0  0  0
    9.5461  -17.7820   29.1421 O   0  0  0  0  0  0  0  0  0  0  0  0
   12.7627  -14.9960   25.7802 C   0  0  0  0  0  0  0  0  0  0  0  0
   13.7527  -14.8630   24.8002 C   0  0  0  0  0  0  0  0  0  0  0  0
    7.9652  -16.8304   27.8647 O   0  0  0  0  0  0  0  0  0  0  0  0
  2  3  1  0
  2  1  1  6
  4  3  1  0
  5  4  2  0
  6  7  2  0
  6  2  1  0
  8  4  1  0
  9  6  1  0
 10  9  1  0
 10 11  1  6
 12 11  1  0
 13 12  2  0
 14 13  1  0
 15 14  1  0
 15 20  2  0
 16 15  1  0
 17 16  2  0
 17 18  1  0
 18 19  2  0
 19 20  1  0
 20 12  1  0
 21 30  1  0
 21 10  1  0
 22 21  2  0
 23 24  1  0
 24 34  2  0
 25 26  2  0
 25 24  1  0
 26 27  1  0
 27 28  1  0
 27 33  2  0
 29 28  1  1
 29 31  1  0
 29 30  1  0
 31 35  1  0
 32 31  2  0
 34 33  1  0
M  END
$$$$
