DWY.pdb
     RDKit          3D

 35 37  0  0  1  0  0  0  0  0999 V2000
   10.6588  -16.9706   19.3310 N   0  0  0  0  0  0  0  0  0  0  0  0
   11.6775  -16.9116   20.3316 C   0  0  1  0  0  0  0  0  0  0  0  0
   12.8250  -16.0867   19.8133 C   0  0  0  0  0  0  0  0  0  0  0  0
   13.2774  -16.6674   18.5296 C   0  0  0  0  0  0  0  0  0  0  0  0
   13.4498  -17.9006   18.3959 O   0  0  0  0  0  0  0  0  0  0  0  0
   11.1338  -16.3516   21.6075 C   0  0  0  0  0  0  0  0  0  0  0  0
   11.9361  -16.0587   22.5246 O   0  0  0  0  0  0  0  0  0  0  0  0
   13.5157  -15.8330   17.4538 O   0  0  0  0  0  0  0  0  0  0  0  0
    9.7445  -16.1569   21.7746 N   0  0  0  0  0  0  0  0  0  0  0  0
    9.1245  -15.7650   22.9900 C   0  0  1  0  0  0  0  0  0  0  0  0
    7.6465  -15.4186   22.9024 C   0  0  0  0  0  0  0  0  0  0  0  0
    7.0524  -15.0443   24.2041 C   0  0  0  0  0  0  0  0  0  0  0  0
    6.3838  -15.7844   25.1385 C   0  0  0  0  0  0  0  0  0  0  0  0
    6.0471  -14.9799   26.1638 N   0  0  0  0  0  0  0  0  0  0  0  0
    6.4714  -13.7274   25.9411 C   0  0  0  0  0  0  0  0  0  0  0  0
    6.4033  -12.5409   26.6385 C   0  0  0  0  0  0  0  0  0  0  0  0
    6.9559  -11.3650   26.1415 C   0  0  0  0  0  0  0  0  0  0  0  0
    7.5809  -11.3890   24.9327 C   0  0  0  0  0  0  0  0  0  0  0  0
    7.6477  -12.5960   24.2277 C   0  0  0  0  0  0  0  0  0  0  0  0
    7.1035  -13.7426   24.7216 C   0  0  0  0  0  0  0  0  0  0  0  0
    9.4051  -16.5620   24.1690 C   0  0  0  0  0  0  0  0  0  0  0  0
    9.7770  -17.7612   24.0040 O   0  0  0  0  0  0  0  0  0  0  0  0
   13.8337  -19.1474   31.1250 O   0  0  0  0  0  0  0  0  0  0  0  0
   13.2164  -18.5216   30.0502 C   0  0  0  0  0  0  0  0  0  0  0  0
   12.9992  -17.1570   30.0379 C   0  0  0  0  0  0  0  0  0  0  0  0
   12.3869  -16.5190   28.9772 C   0  0  0  0  0  0  0  0  0  0  0  0
   11.9600  -17.2450   27.8633 C   0  0  0  0  0  0  0  0  0  0  0  0
   11.2979  -16.5532   26.7358 C   0  0  0  0  0  0  0  0  0  0  0  0
    9.8445  -16.8777   26.6247 C   0  0  2  0  0  0  0  0  0  0  0  0
    9.2997  -16.1147   25.5126 N   0  0  0  0  0  0  0  0  0  0  0  0
    9.0607  -16.7128   27.8490 C   0  0  0  0  0  0  0  0  0  0  0  0
    8.7123  -17.7298   28.4988 O   0  0  0  0  0  0  0  0  0  0  0  0
   12.1785  -18.5989   27.8823 C   0  0  0  0  0  0  0  0  0  0  0  0
   12.7979  -19.2555   28.9516 C   0  0  0  0  0  0  0  0  0  0  0  0
    8.6595  -15.4901   28.3654 O   0  0  0  0  0  0  0  0  0  0  0  0
  2  3  1  0
  2  1  1  6
  4  3  1  0
  5  4  2  0
  6  7  2  0
  6  2  1  0
  8  4  1  0
  9  6  1  0
 10  9  1  0
 10 11  1  6
 12 11  1  0
 13 12  2  0
 14 13  1  0
 15 14  1  0
 15 20  2  0
 16 15  1  0
 17 16  2  0
 17 18  1  0
 18 19  2  0
 19 20  1  0
 20 12  1  0
 21 30  1  0
 21 10  1  0
 22 21  2  0
 23 24  1  0
 24 34  2  0
 25 26  2  0
 25 24  1  0
 26 27  1  0
 27 28  1  0
 27 33  2  0
 29 28  1  1
 29 31  1  0
 29 30  1  0
 31 35  1  0
 32 31  2  0
 34 33  1  0
M  END
$$$$
