DWY.pdb
     RDKit          3D

 35 37  0  0  1  0  0  0  0  0999 V2000
    9.5542  -18.0867   17.5511 N   0  0  0  0  0  0  0  0  0  0  0  0
    9.6764  -18.6423   18.8622 C   0  0  1  0  0  0  0  0  0  0  0  0
   10.8634  -19.5674   18.8926 C   0  0  0  0  0  0  0  0  0  0  0  0
   10.7421  -20.5228   17.7691 C   0  0  0  0  0  0  0  0  0  0  0  0
    9.6252  -20.9354   17.3810 O   0  0  0  0  0  0  0  0  0  0  0  0
    9.8008  -17.5591   19.8861 C   0  0  0  0  0  0  0  0  0  0  0  0
   10.8979  -16.9644   20.0007 O   0  0  0  0  0  0  0  0  0  0  0  0
   11.8843  -20.9708   17.1329 O   0  0  0  0  0  0  0  0  0  0  0  0
    8.7038  -17.2141   20.7068 N   0  0  0  0  0  0  0  0  0  0  0  0
    8.7338  -16.2187   21.7184 C   0  0  1  0  0  0  0  0  0  0  0  0
    7.4100  -15.5330   22.0178 C   0  0  0  0  0  0  0  0  0  0  0  0
    7.5606  -14.2646   22.7635 C   0  0  0  0  0  0  0  0  0  0  0  0
    8.0488  -13.0458   22.3840 C   0  0  0  0  0  0  0  0  0  0  0  0
    7.9669  -12.2046   23.4316 N   0  0  0  0  0  0  0  0  0  0  0  0
    7.4387  -12.8255   24.4964 C   0  0  0  0  0  0  0  0  0  0  0  0
    7.1349  -12.4504   25.7870 C   0  0  0  0  0  0  0  0  0  0  0  0
    6.5716  -13.3398   26.6963 C   0  0  0  0  0  0  0  0  0  0  0  0
    6.3141  -14.6156   26.2982 C   0  0  0  0  0  0  0  0  0  0  0  0
    6.6242  -14.9924   24.9867 C   0  0  0  0  0  0  0  0  0  0  0  0
    7.1760  -14.1151   24.1031 C   0  0  0  0  0  0  0  0  0  0  0  0
    9.4479  -16.5322   22.9414 C   0  0  0  0  0  0  0  0  0  0  0  0
    8.9193  -17.3537   23.7472 O   0  0  0  0  0  0  0  0  0  0  0  0
   10.9047  -14.9952   31.0746 O   0  0  0  0  0  0  0  0  0  0  0  0
   10.6789  -15.0438   29.7055 C   0  0  0  0  0  0  0  0  0  0  0  0
   10.2340  -16.1973   29.0884 C   0  0  0  0  0  0  0  0  0  0  0  0
   10.0044  -16.2626   27.7283 C   0  0  0  0  0  0  0  0  0  0  0  0
   10.2182  -15.1452   26.9183 C   0  0  0  0  0  0  0  0  0  0  0  0
    9.9770  -15.2278   25.4612 C   0  0  0  0  0  0  0  0  0  0  0  0
   11.1000  -15.8752   24.7197 C   0  0  2  0  0  0  0  0  0  0  0  0
   10.7050  -15.9944   23.3249 N   0  0  0  0  0  0  0  0  0  0  0  0
   11.5800  -17.1421   25.2719 C   0  0  0  0  0  0  0  0  0  0  0  0
   12.7834  -17.2472   25.6163 O   0  0  0  0  0  0  0  0  0  0  0  0
   10.6600  -14.0038   27.5373 C   0  0  0  0  0  0  0  0  0  0  0  0
   10.8957  -13.9266   28.9144 C   0  0  0  0  0  0  0  0  0  0  0  0
   10.7919  -18.2687   25.4512 O   0  0  0  0  0  0  0  0  0  0  0  0
  2  3  1  0
  2  1  1  6
  4  3  1  0
  5  4  2  0
  6  7  2  0
  6  2  1  0
  8  4  1  0
  9  6  1  0
 10  9  1  0
 10 11  1  1
 12 11  1  0
 13 12  2  0
 14 13  1  0
 15 14  1  0
 15 20  2  0
 16 15  1  0
 17 16  2  0
 17 18  1  0
 18 19  2  0
 19 20  1  0
 20 12  1  0
 21 30  1  0
 21 10  1  0
 22 21  2  0
 23 24  1  0
 24 34  2  0
 25 26  2  0
 25 24  1  0
 26 27  1  0
 27 28  1  0
 27 33  2  0
 29 28  1  1
 29 31  1  0
 29 30  1  0
 31 35  1  0
 32 31  2  0
 34 33  1  0
M  END
$$$$
