DWY.pdb
     RDKit          3D

 35 37  0  0  1  0  0  0  0  0999 V2000
   10.4784  -18.8459   18.3951 N   0  0  0  0  0  0  0  0  0  0  0  0
   11.5319  -17.9181   18.6633 C   0  0  1  0  0  0  0  0  0  0  0  0
   11.6934  -17.0055   17.4772 C   0  0  0  0  0  0  0  0  0  0  0  0
   12.5766  -17.6686   16.4924 C   0  0  0  0  0  0  0  0  0  0  0  0
   12.9584  -18.8509   16.6500 O   0  0  0  0  0  0  0  0  0  0  0  0
   11.2513  -17.1461   19.9132 C   0  0  0  0  0  0  0  0  0  0  0  0
   12.0703  -16.2686   20.2734 O   0  0  0  0  0  0  0  0  0  0  0  0
   12.9906  -16.9703   15.3738 O   0  0  0  0  0  0  0  0  0  0  0  0
   10.0870  -17.4013   20.6716 N   0  0  0  0  0  0  0  0  0  0  0  0
    9.7511  -16.7407   21.8824 C   0  0  1  0  0  0  0  0  0  0  0  0
    8.2687  -16.6694   22.2133 C   0  0  0  0  0  0  0  0  0  0  0  0
    7.4618  -16.0181   21.1587 C   0  0  0  0  0  0  0  0  0  0  0  0
    6.4799  -16.5049   20.3420 C   0  0  0  0  0  0  0  0  0  0  0  0
    6.0457  -15.5071   19.5497 N   0  0  0  0  0  0  0  0  0  0  0  0
    6.7076  -14.3712   19.8141 C   0  0  0  0  0  0  0  0  0  0  0  0
    6.6656  -13.0856   19.3200 C   0  0  0  0  0  0  0  0  0  0  0  0
    7.4978  -12.0839   19.8091 C   0  0  0  0  0  0  0  0  0  0  0  0
    8.3774  -12.3840   20.8035 C   0  0  0  0  0  0  0  0  0  0  0  0
    8.4168  -13.6908   21.3024 C   0  0  0  0  0  0  0  0  0  0  0  0
    7.5986  -14.6655   20.8173 C   0  0  0  0  0  0  0  0  0  0  0  0
   10.5338  -17.0668   23.0592 C   0  0  0  0  0  0  0  0  0  0  0  0
   10.7267  -18.2892   23.3277 O   0  0  0  0  0  0  0  0  0  0  0  0
   10.2653  -15.2978   31.7007 O   0  0  0  0  0  0  0  0  0  0  0  0
   10.3281  -15.2555   30.3144 C   0  0  0  0  0  0  0  0  0  0  0  0
    9.7090  -14.2515   29.5946 C   0  0  0  0  0  0  0  0  0  0  0  0
    9.7618  -14.1946   28.2159 C   0  0  0  0  0  0  0  0  0  0  0  0
   10.4548  -15.1671   27.4918 C   0  0  0  0  0  0  0  0  0  0  0  0
   10.4985  -15.1016   26.0146 C   0  0  0  0  0  0  0  0  0  0  0  0
   11.0962  -16.3211   25.3939 C   0  0  2  0  0  0  0  0  0  0  0  0
   11.1129  -16.1270   23.9525 N   0  0  0  0  0  0  0  0  0  0  0  0
   10.4850  -17.5942   25.7765 C   0  0  0  0  0  0  0  0  0  0  0  0
    9.3589  -17.9008   25.3122 O   0  0  0  0  0  0  0  0  0  0  0  0
   11.0667  -16.1607   28.2124 C   0  0  0  0  0  0  0  0  0  0  0  0
   11.0196  -16.2279   29.6093 C   0  0  0  0  0  0  0  0  0  0  0  0
   11.0645  -18.5164   26.6346 O   0  0  0  0  0  0  0  0  0  0  0  0
  2  3  1  0
  2  1  1  6
  4  3  1  0
  5  4  2  0
  6  7  2  0
  6  2  1  0
  8  4  1  0
  9  6  1  0
 10  9  1  0
 10 11  1  1
 12 11  1  0
 13 12  2  0
 14 13  1  0
 15 14  1  0
 15 20  2  0
 16 15  1  0
 17 16  2  0
 17 18  1  0
 18 19  2  0
 19 20  1  0
 20 12  1  0
 21 30  1  0
 21 10  1  0
 22 21  2  0
 23 24  1  0
 24 34  2  0
 25 26  2  0
 25 24  1  0
 26 27  1  0
 27 28  1  0
 27 33  2  0
 29 28  1  1
 29 31  1  0
 29 30  1  0
 31 35  1  0
 32 31  2  0
 34 33  1  0
M  END
$$$$
