DWY.pdb
     RDKit          3D

 35 37  0  0  1  0  0  0  0  0999 V2000
   10.9841  -16.2932   20.6605 N   0  0  0  0  0  0  0  0  0  0  0  0
   11.5363  -17.1994   21.6177 C   0  0  1  0  0  0  0  0  0  0  0  0
   13.0175  -17.3206   21.3785 C   0  0  0  0  0  0  0  0  0  0  0  0
   13.2389  -17.6055   19.9435 C   0  0  0  0  0  0  0  0  0  0  0  0
   12.5826  -18.4880   19.3444 O   0  0  0  0  0  0  0  0  0  0  0  0
   11.2430  -16.7408   23.0107 C   0  0  0  0  0  0  0  0  0  0  0  0
   11.9053  -15.7864   23.4806 O   0  0  0  0  0  0  0  0  0  0  0  0
   14.1899  -16.8837   19.2471 O   0  0  0  0  0  0  0  0  0  0  0  0
   10.2397  -17.3710   23.7804 N   0  0  0  0  0  0  0  0  0  0  0  0
    9.9125  -17.0265   25.1181 C   0  0  1  0  0  0  0  0  0  0  0  0
    8.4314  -16.8602   25.4199 C   0  0  0  0  0  0  0  0  0  0  0  0
    7.8449  -15.6376   24.8295 C   0  0  0  0  0  0  0  0  0  0  0  0
    7.3455  -15.3864   23.5824 C   0  0  0  0  0  0  0  0  0  0  0  0
    6.9179  -14.1108   23.5392 N   0  0  0  0  0  0  0  0  0  0  0  0
    7.1167  -13.5053   24.7192 C   0  0  0  0  0  0  0  0  0  0  0  0
    6.8713  -12.2440   25.2167 C   0  0  0  0  0  0  0  0  0  0  0  0
    7.1924  -11.8958   26.5247 C   0  0  0  0  0  0  0  0  0  0  0  0
    7.7648  -12.8284   27.3341 C   0  0  0  0  0  0  0  0  0  0  0  0
    8.0125  -14.1081   26.8249 C   0  0  0  0  0  0  0  0  0  0  0  0
    7.6953  -14.4403   25.5427 C   0  0  0  0  0  0  0  0  0  0  0  0
   10.5827  -17.7559   26.1776 C   0  0  0  0  0  0  0  0  0  0  0  0
   11.3786  -18.6853   25.8513 O   0  0  0  0  0  0  0  0  0  0  0  0
   15.4023  -21.1853   32.3816 O   0  0  0  0  0  0  0  0  0  0  0  0
   14.6906  -20.4173   31.4698 C   0  0  0  0  0  0  0  0  0  0  0  0
   14.7242  -20.6902   30.1156 C   0  0  0  0  0  0  0  0  0  0  0  0
   14.0224  -19.9366   29.1955 C   0  0  0  0  0  0  0  0  0  0  0  0
   13.2425  -18.8553   29.6113 C   0  0  0  0  0  0  0  0  0  0  0  0
   12.5010  -18.0494   28.6169 C   0  0  0  0  0  0  0  0  0  0  0  0
   11.0445  -18.3756   28.5705 C   0  0  2  0  0  0  0  0  0  0  0  0
   10.4264  -17.5206   27.5692 N   0  0  0  0  0  0  0  0  0  0  0  0
   10.3412  -18.3287   29.8526 C   0  0  0  0  0  0  0  0  0  0  0  0
   10.3429  -19.3431   30.5933 O   0  0  0  0  0  0  0  0  0  0  0  0
   13.2139  -18.5899   30.9566 C   0  0  0  0  0  0  0  0  0  0  0  0
   13.9209  -19.3470   31.8974 C   0  0  0  0  0  0  0  0  0  0  0  0
    9.6531  -17.2238   30.3302 O   0  0  0  0  0  0  0  0  0  0  0  0
  2  3  1  0
  2  1  1  6
  4  3  1  0
  5  4  2  0
  6  7  2  0
  6  2  1  0
  8  4  1  0
  9  6  1  0
 10  9  1  0
 10 11  1  6
 12 11  1  0
 13 12  2  0
 14 13  1  0
 15 14  1  0
 15 20  2  0
 16 15  1  0
 17 16  2  0
 17 18  1  0
 18 19  2  0
 19 20  1  0
 20 12  1  0
 21 30  1  0
 21 10  1  0
 22 21  2  0
 23 24  1  0
 24 34  2  0
 25 26  2  0
 25 24  1  0
 26 27  1  0
 27 28  1  0
 27 33  2  0
 29 28  1  1
 29 31  1  0
 29 30  1  0
 31 35  1  0
 32 31  2  0
 34 33  1  0
M  END
$$$$
