DWY.pdb
     RDKit          3D

 35 37  0  0  1  0  0  0  0  0999 V2000
   11.0548  -15.8132   18.6686 N   0  0  0  0  0  0  0  0  0  0  0  0
   11.3009  -16.7003   19.7617 C   0  0  1  0  0  0  0  0  0  0  0  0
   12.7554  -17.0882   19.7587 C   0  0  0  0  0  0  0  0  0  0  0  0
   13.0421  -17.8229   18.5067 C   0  0  0  0  0  0  0  0  0  0  0  0
   13.8459  -17.3756   17.6569 O   0  0  0  0  0  0  0  0  0  0  0  0
   10.9068  -16.0654   21.0572 C   0  0  0  0  0  0  0  0  0  0  0  0
   11.5518  -15.0685   21.4580 O   0  0  0  0  0  0  0  0  0  0  0  0
   12.4104  -19.0287   18.2676 O   0  0  0  0  0  0  0  0  0  0  0  0
    9.8295  -16.5793   21.8131 N   0  0  0  0  0  0  0  0  0  0  0  0
    9.4422  -16.1040   23.0934 C   0  0  1  0  0  0  0  0  0  0  0  0
    7.9481  -16.0933   23.3761 C   0  0  0  0  0  0  0  0  0  0  0  0
    7.3367  -14.7521   23.2552 C   0  0  0  0  0  0  0  0  0  0  0  0
    6.8435  -14.0780   22.1734 C   0  0  0  0  0  0  0  0  0  0  0  0
    6.3841  -12.8815   22.5850 N   0  0  0  0  0  0  0  0  0  0  0  0
    6.5557  -12.7386   23.9073 C   0  0  0  0  0  0  0  0  0  0  0  0
    6.2733  -11.7469   24.8213 C   0  0  0  0  0  0  0  0  0  0  0  0
    6.5723  -11.8876   26.1726 C   0  0  0  0  0  0  0  0  0  0  0  0
    7.1601  -13.0377   26.6020 C   0  0  0  0  0  0  0  0  0  0  0  0
    7.4453  -14.0422   25.6704 C   0  0  0  0  0  0  0  0  0  0  0  0
    7.1495  -13.8958   24.3491 C   0  0  0  0  0  0  0  0  0  0  0  0
   10.1869  -16.5910   24.2389 C   0  0  0  0  0  0  0  0  0  0  0  0
   10.5064  -17.8161   24.2659 O   0  0  0  0  0  0  0  0  0  0  0  0
   12.4037  -17.2545   32.8274 O   0  0  0  0  0  0  0  0  0  0  0  0
   12.0579  -16.7880   31.5663 C   0  0  0  0  0  0  0  0  0  0  0  0
   13.0095  -16.5931   30.5835 C   0  0  0  0  0  0  0  0  0  0  0  0
   12.6827  -16.1300   29.3243 C   0  0  0  0  0  0  0  0  0  0  0  0
   11.3565  -15.8387   28.9977 C   0  0  0  0  0  0  0  0  0  0  0  0
   11.0179  -15.3354   27.6485 C   0  0  0  0  0  0  0  0  0  0  0  0
   10.9956  -16.4112   26.6131 C   0  0  2  0  0  0  0  0  0  0  0  0
   10.5974  -15.8086   25.3505 N   0  0  0  0  0  0  0  0  0  0  0  0
   10.1981  -17.5931   26.9411 C   0  0  0  0  0  0  0  0  0  0  0  0
    8.9531  -17.5605   26.7781 O   0  0  0  0  0  0  0  0  0  0  0  0
   10.4173  -16.0342   29.9778 C   0  0  0  0  0  0  0  0  0  0  0  0
   10.7374  -16.5030   31.2568 C   0  0  0  0  0  0  0  0  0  0  0  0
   10.7199  -18.7805   27.4312 O   0  0  0  0  0  0  0  0  0  0  0  0
  2  3  1  0
  2  1  1  6
  4  3  1  0
  5  4  2  0
  6  7  2  0
  6  2  1  0
  8  4  1  0
  9  6  1  0
 10  9  1  0
 10 11  1  1
 12 11  1  0
 13 12  2  0
 14 13  1  0
 15 14  1  0
 15 20  2  0
 16 15  1  0
 17 16  2  0
 17 18  1  0
 18 19  2  0
 19 20  1  0
 20 12  1  0
 21 30  1  0
 21 10  1  0
 22 21  2  0
 23 24  1  0
 24 34  2  0
 25 26  2  0
 25 24  1  0
 26 27  1  0
 27 28  1  0
 27 33  2  0
 29 28  1  1
 29 31  1  0
 29 30  1  0
 31 35  1  0
 32 31  2  0
 34 33  1  0
M  END
$$$$
