DWY.pdb
     RDKit          3D

 35 37  0  0  1  0  0  0  0  0999 V2000
   11.6335  -15.0964   19.0612 N   0  0  0  0  0  0  0  0  0  0  0  0
   10.9183  -16.1436   19.7202 C   0  0  1  0  0  0  0  0  0  0  0  0
   11.7764  -17.3801   19.7469 C   0  0  0  0  0  0  0  0  0  0  0  0
   12.0542  -17.7881   18.3520 C   0  0  0  0  0  0  0  0  0  0  0  0
   11.4869  -17.2318   17.3839 O   0  0  0  0  0  0  0  0  0  0  0  0
   10.5193  -15.7248   21.0995 C   0  0  0  0  0  0  0  0  0  0  0  0
   11.4065  -15.3094   21.8810 O   0  0  0  0  0  0  0  0  0  0  0  0
   12.9588  -18.8046   18.1096 O   0  0  0  0  0  0  0  0  0  0  0  0
    9.1701  -15.7964   21.5122 N   0  0  0  0  0  0  0  0  0  0  0  0
    8.7221  -15.6037   22.8454 C   0  0  1  0  0  0  0  0  0  0  0  0
    7.2597  -15.2200   23.0078 C   0  0  0  0  0  0  0  0  0  0  0  0
    6.8668  -14.9838   24.4140 C   0  0  0  0  0  0  0  0  0  0  0  0
    6.3571  -15.8246   25.3633 C   0  0  0  0  0  0  0  0  0  0  0  0
    6.1714  -15.1278   26.4999 N   0  0  0  0  0  0  0  0  0  0  0  0
    6.5422  -13.8495   26.3367 C   0  0  0  0  0  0  0  0  0  0  0  0
    6.5675  -12.7350   27.1468 C   0  0  0  0  0  0  0  0  0  0  0  0
    7.0242  -11.5040   26.6871 C   0  0  0  0  0  0  0  0  0  0  0  0
    7.4577  -11.3994   25.4012 C   0  0  0  0  0  0  0  0  0  0  0  0
    7.4302  -12.5336   24.5820 C   0  0  0  0  0  0  0  0  0  0  0  0
    6.9810  -13.7349   25.0401 C   0  0  0  0  0  0  0  0  0  0  0  0
    9.1149  -16.5932   23.8305 C   0  0  0  0  0  0  0  0  0  0  0  0
    8.8877  -17.8125   23.5750 O   0  0  0  0  0  0  0  0  0  0  0  0
   16.0760  -15.9149   23.8723 O   0  0  0  0  0  0  0  0  0  0  0  0
   14.8534  -16.4937   24.1856 C   0  0  0  0  0  0  0  0  0  0  0  0
   14.4302  -16.6212   25.4948 C   0  0  0  0  0  0  0  0  0  0  0  0
   13.2175  -17.1941   25.8236 C   0  0  0  0  0  0  0  0  0  0  0  0
   12.3648  -17.6715   24.8260 C   0  0  0  0  0  0  0  0  0  0  0  0
   11.0715  -18.2909   25.1892 C   0  0  0  0  0  0  0  0  0  0  0  0
   10.1844  -17.3759   25.9675 C   0  0  2  0  0  0  0  0  0  0  0  0
    9.7408  -16.3166   25.0748 N   0  0  0  0  0  0  0  0  0  0  0  0
   10.7456  -16.8541   27.2138 C   0  0  0  0  0  0  0  0  0  0  0  0
   11.2010  -17.6554   28.0672 O   0  0  0  0  0  0  0  0  0  0  0  0
   12.7911  -17.5420   23.5289 C   0  0  0  0  0  0  0  0  0  0  0  0
   14.0177  -16.9631   23.1846 C   0  0  0  0  0  0  0  0  0  0  0  0
   10.8179  -15.5081   27.5389 O   0  0  0  0  0  0  0  0  0  0  0  0
  2  3  1  0
  2  1  1  1
  4  3  1  0
  5  4  2  0
  6  7  2  0
  6  2  1  0
  8  4  1  0
  9  6  1  0
 10  9  1  0
 10 11  1  6
 12 11  1  0
 13 12  2  0
 14 13  1  0
 15 14  1  0
 15 20  2  0
 16 15  1  0
 17 16  2  0
 17 18  1  0
 18 19  2  0
 19 20  1  0
 20 12  1  0
 21 30  1  0
 21 10  1  0
 22 21  2  0
 23 24  1  0
 24 34  2  0
 25 26  2  0
 25 24  1  0
 26 27  1  0
 27 28  1  0
 27 33  2  0
 29 28  1  6
 29 31  1  0
 29 30  1  0
 31 35  1  0
 32 31  2  0
 34 33  1  0
M  END
$$$$
