DWY.pdb
     RDKit          3D

 35 37  0  0  1  0  0  0  0  0999 V2000
    7.5806  -17.1100   20.3837 N   0  0  0  0  0  0  0  0  0  0  0  0
    8.6569  -16.2542   19.9945 C   0  0  1  0  0  0  0  0  0  0  0  0
    8.1806  -15.3356   18.9012 C   0  0  0  0  0  0  0  0  0  0  0  0
    7.9355  -16.1421   17.6850 C   0  0  0  0  0  0  0  0  0  0  0  0
    8.5561  -17.2091   17.4733 O   0  0  0  0  0  0  0  0  0  0  0  0
    9.1724  -15.4851   21.1691 C   0  0  0  0  0  0  0  0  0  0  0  0
    9.9278  -14.5070   20.9616 O   0  0  0  0  0  0  0  0  0  0  0  0
    7.0023  -15.7106   16.7613 O   0  0  0  0  0  0  0  0  0  0  0  0
    8.8147  -15.8542   22.4851 N   0  0  0  0  0  0  0  0  0  0  0  0
    9.6823  -15.7868   23.6067 C   0  0  1  0  0  0  0  0  0  0  0  0
    9.0648  -16.1457   24.9491 C   0  0  0  0  0  0  0  0  0  0  0  0
    7.7678  -15.4793   25.1963 C   0  0  0  0  0  0  0  0  0  0  0  0
    6.4862  -15.9522   25.1534 C   0  0  0  0  0  0  0  0  0  0  0  0
    5.6465  -14.9480   25.4668 N   0  0  0  0  0  0  0  0  0  0  0  0
    6.3294  -13.8215   25.7176 C   0  0  0  0  0  0  0  0  0  0  0  0
    5.9845  -12.5366   26.0767 C   0  0  0  0  0  0  0  0  0  0  0  0
    6.9429  -11.5487   26.2781 C   0  0  0  0  0  0  0  0  0  0  0  0
    8.2575  -11.8618   26.1156 C   0  0  0  0  0  0  0  0  0  0  0  0
    8.6034  -13.1677   25.7508 C   0  0  0  0  0  0  0  0  0  0  0  0
    7.6584  -14.1288   25.5552 C   0  0  0  0  0  0  0  0  0  0  0  0
   11.0016  -16.3728   23.4654 C   0  0  0  0  0  0  0  0  0  0  0  0
   11.6817  -16.0716   22.4405 O   0  0  0  0  0  0  0  0  0  0  0  0
    9.8365  -15.7009   30.6378 O   0  0  0  0  0  0  0  0  0  0  0  0
   10.5181  -15.6646   29.4287 C   0  0  0  0  0  0  0  0  0  0  0  0
   11.5780  -16.5133   29.1725 C   0  0  0  0  0  0  0  0  0  0  0  0
   12.2664  -16.4904   27.9757 C   0  0  0  0  0  0  0  0  0  0  0  0
   11.9073  -15.5928   26.9678 C   0  0  0  0  0  0  0  0  0  0  0  0
   12.6563  -15.5707   25.6924 C   0  0  0  0  0  0  0  0  0  0  0  0
   12.8334  -16.9283   25.0961 C   0  0  2  0  0  0  0  0  0  0  0  0
   11.6108  -17.2673   24.3847 N   0  0  0  0  0  0  0  0  0  0  0  0
   13.2472  -17.9813   26.0237 C   0  0  0  0  0  0  0  0  0  0  0  0
   14.4676  -18.1312   26.2804 O   0  0  0  0  0  0  0  0  0  0  0  0
   10.8546  -14.7533   27.2288 C   0  0  0  0  0  0  0  0  0  0  0  0
   10.1502  -14.7681   28.4378 C   0  0  0  0  0  0  0  0  0  0  0  0
   12.3767  -18.8523   26.6610 O   0  0  0  0  0  0  0  0  0  0  0  0
  2  3  1  0
  2  1  1  1
  4  3  1  0
  5  4  2  0
  6  7  2  0
  6  2  1  0
  8  4  1  0
  9  6  1  0
 10  9  1  0
 10 11  1  1
 12 11  1  0
 13 12  2  0
 14 13  1  0
 15 14  1  0
 15 20  2  0
 16 15  1  0
 17 16  2  0
 17 18  1  0
 18 19  2  0
 19 20  1  0
 20 12  1  0
 21 30  1  0
 21 10  1  0
 22 21  2  0
 23 24  1  0
 24 34  2  0
 25 26  2  0
 25 24  1  0
 26 27  1  0
 27 28  1  0
 27 33  2  0
 29 28  1  1
 29 31  1  0
 29 30  1  0
 31 35  1  0
 32 31  2  0
 34 33  1  0
M  END
$$$$
