DWY.pdb
     RDKit          3D

 35 37  0  0  1  0  0  0  0  0999 V2000
    9.7932  -17.4976   18.5620 N   0  0  0  0  0  0  0  0  0  0  0  0
   10.9283  -16.9302   19.2195 C   0  0  1  0  0  0  0  0  0  0  0  0
   11.5455  -15.8921   18.3211 C   0  0  0  0  0  0  0  0  0  0  0  0
   12.0717  -16.5690   17.1150 C   0  0  0  0  0  0  0  0  0  0  0  0
   11.3106  -16.9524   16.1974 O   0  0  0  0  0  0  0  0  0  0  0  0
   10.5378  -16.3479   20.5406 C   0  0  0  0  0  0  0  0  0  0  0  0
   11.4190  -15.7886   21.2342 O   0  0  0  0  0  0  0  0  0  0  0  0
   13.4318  -16.7838   16.9963 O   0  0  0  0  0  0  0  0  0  0  0  0
    9.2030  -16.4269   20.9966 N   0  0  0  0  0  0  0  0  0  0  0  0
    8.7470  -15.9368   22.2484 C   0  0  1  0  0  0  0  0  0  0  0  0
    7.2444  -15.9881   22.4766 C   0  0  0  0  0  0  0  0  0  0  0  0
    6.8340  -15.4825   23.8045 C   0  0  0  0  0  0  0  0  0  0  0  0
    6.3050  -16.1213   24.8907 C   0  0  0  0  0  0  0  0  0  0  0  0
    6.1089  -15.2170   25.8682 N   0  0  0  0  0  0  0  0  0  0  0  0
    6.4916  -13.9961   25.4665 C   0  0  0  0  0  0  0  0  0  0  0  0
    6.5141  -12.7462   26.0461 C   0  0  0  0  0  0  0  0  0  0  0  0
    6.9864  -11.6295   25.3640 C   0  0  0  0  0  0  0  0  0  0  0  0
    7.4384  -11.7777   24.0887 C   0  0  0  0  0  0  0  0  0  0  0  0
    7.4135  -13.0488   23.5039 C   0  0  0  0  0  0  0  0  0  0  0  0
    6.9491  -14.1366   24.1789 C   0  0  0  0  0  0  0  0  0  0  0  0
    9.4698  -16.3584   23.4331 C   0  0  0  0  0  0  0  0  0  0  0  0
    9.6927  -17.5954   23.5874 O   0  0  0  0  0  0  0  0  0  0  0  0
   11.0669  -16.5197   32.0114 O   0  0  0  0  0  0  0  0  0  0  0  0
   11.0253  -16.1237   30.6813 C   0  0  0  0  0  0  0  0  0  0  0  0
   10.3449  -14.9871   30.2882 C   0  0  0  0  0  0  0  0  0  0  0  0
   10.2936  -14.5792   28.9699 C   0  0  0  0  0  0  0  0  0  0  0  0
   10.9391  -15.3152   27.9740 C   0  0  0  0  0  0  0  0  0  0  0  0
   10.8713  -14.8741   26.5636 C   0  0  0  0  0  0  0  0  0  0  0  0
   10.6835  -16.0052   25.6069 C   0  0  2  0  0  0  0  0  0  0  0  0
    9.9585  -15.4986   24.4522 N   0  0  0  0  0  0  0  0  0  0  0  0
   10.0713  -17.2126   26.1619 C   0  0  0  0  0  0  0  0  0  0  0  0
    8.8217  -17.2740   26.2735 O   0  0  0  0  0  0  0  0  0  0  0  0
   11.6122  -16.4422   28.3711 C   0  0  0  0  0  0  0  0  0  0  0  0
   11.6707  -16.8645   29.7039 C   0  0  0  0  0  0  0  0  0  0  0  0
   10.7788  -18.3268   26.5869 O   0  0  0  0  0  0  0  0  0  0  0  0
  2  3  1  0
  2  1  1  6
  4  3  1  0
  5  4  2  0
  6  7  2  0
  6  2  1  0
  8  4  1  0
  9  6  1  0
 10  9  1  0
 10 11  1  1
 12 11  1  0
 13 12  2  0
 14 13  1  0
 15 14  1  0
 15 20  2  0
 16 15  1  0
 17 16  2  0
 17 18  1  0
 18 19  2  0
 19 20  1  0
 20 12  1  0
 21 30  1  0
 21 10  1  0
 22 21  2  0
 23 24  1  0
 24 34  2  0
 25 26  2  0
 25 24  1  0
 26 27  1  0
 27 28  1  0
 27 33  2  0
 29 28  1  1
 29 31  1  0
 29 30  1  0
 31 35  1  0
 32 31  2  0
 34 33  1  0
M  END
$$$$
