DWY.pdb
     RDKit          3D

 35 37  0  0  1  0  0  0  0  0999 V2000
    8.9282  -17.7706   18.7119 N   0  0  0  0  0  0  0  0  0  0  0  0
   10.1644  -17.0669   18.8500 C   0  0  1  0  0  0  0  0  0  0  0  0
   10.2879  -16.0705   17.7285 C   0  0  0  0  0  0  0  0  0  0  0  0
   10.3220  -16.8092   16.4468 C   0  0  0  0  0  0  0  0  0  0  0  0
    9.3522  -16.7872   15.6547 O   0  0  0  0  0  0  0  0  0  0  0  0
   10.2468  -16.3996   20.1860 C   0  0  0  0  0  0  0  0  0  0  0  0
   11.1839  -15.5954   20.3986 O   0  0  0  0  0  0  0  0  0  0  0  0
   11.4471  -17.5399   16.1144 O   0  0  0  0  0  0  0  0  0  0  0  0
    9.2875  -16.6709   21.1872 N   0  0  0  0  0  0  0  0  0  0  0  0
    9.4794  -16.4363   22.5740 C   0  0  1  0  0  0  0  0  0  0  0  0
    8.2158  -16.2498   23.3991 C   0  0  0  0  0  0  0  0  0  0  0  0
    7.5791  -14.9286   23.2087 C   0  0  0  0  0  0  0  0  0  0  0  0
    7.0752  -14.3207   22.0931 C   0  0  0  0  0  0  0  0  0  0  0  0
    6.5923  -13.1136   22.4421 N   0  0  0  0  0  0  0  0  0  0  0  0
    6.7587  -12.8995   23.7554 C   0  0  0  0  0  0  0  0  0  0  0  0
    6.4557  -11.8675   24.6168 C   0  0  0  0  0  0  0  0  0  0  0  0
    6.7549  -11.9326   25.9738 C   0  0  0  0  0  0  0  0  0  0  0  0
    7.3637  -13.0476   26.4624 C   0  0  0  0  0  0  0  0  0  0  0  0
    7.6697  -14.0931   25.5842 C   0  0  0  0  0  0  0  0  0  0  0  0
    7.3736  -14.0208   24.2568 C   0  0  0  0  0  0  0  0  0  0  0  0
   10.4359  -17.2783   23.2667 C   0  0  0  0  0  0  0  0  0  0  0  0
   10.2034  -18.5217   23.3259 O   0  0  0  0  0  0  0  0  0  0  0  0
   10.7704  -15.4633   31.5615 O   0  0  0  0  0  0  0  0  0  0  0  0
   10.8215  -15.5234   30.1753 C   0  0  0  0  0  0  0  0  0  0  0  0
   10.6717  -14.3907   29.3983 C   0  0  0  0  0  0  0  0  0  0  0  0
   10.7200  -14.4329   28.0189 C   0  0  0  0  0  0  0  0  0  0  0  0
   10.9256  -15.6432   27.3530 C   0  0  0  0  0  0  0  0  0  0  0  0
   10.9676  -15.6790   25.8748 C   0  0  0  0  0  0  0  0  0  0  0  0
   11.7787  -16.8137   25.3414 C   0  0  2  0  0  0  0  0  0  0  0  0
   11.6280  -16.8300   23.8948 N   0  0  0  0  0  0  0  0  0  0  0  0
   11.5156  -18.1213   25.9427 C   0  0  0  0  0  0  0  0  0  0  0  0
   10.4957  -18.7658   25.5932 O   0  0  0  0  0  0  0  0  0  0  0  0
   11.0732  -16.7634   28.1303 C   0  0  0  0  0  0  0  0  0  0  0  0
   11.0261  -16.7319   29.5285 C   0  0  0  0  0  0  0  0  0  0  0  0
   12.3239  -18.7244   26.8942 O   0  0  0  0  0  0  0  0  0  0  0  0
  2  3  1  0
  2  1  1  6
  4  3  1  0
  5  4  2  0
  6  7  2  0
  6  2  1  0
  8  4  1  0
  9  6  1  0
 10  9  1  0
 10 11  1  1
 12 11  1  0
 13 12  2  0
 14 13  1  0
 15 14  1  0
 15 20  2  0
 16 15  1  0
 17 16  2  0
 17 18  1  0
 18 19  2  0
 19 20  1  0
 20 12  1  0
 21 30  1  0
 21 10  1  0
 22 21  2  0
 23 24  1  0
 24 34  2  0
 25 26  2  0
 25 24  1  0
 26 27  1  0
 27 28  1  0
 27 33  2  0
 29 28  1  1
 29 31  1  0
 29 30  1  0
 31 35  1  0
 32 31  2  0
 34 33  1  0
M  END
$$$$
