QYC.pdb
     RDKit          3D

 28 28  0  0  1  0  0  0  0  0999 V2000
   11.7650  -21.2529   23.3337 N   0  0  0  0  0  0  0  0  0  0  0  0
   12.2269  -21.1326   22.0120 C   0  0  0  0  0  0  0  0  0  0  0  0
   13.0086  -21.9862   21.5566 O   0  0  0  0  0  0  0  0  0  0  0  0
   11.7781  -20.0039   21.1887 C   0  0  0  0  0  0  0  0  0  0  0  0
   10.8903  -19.0122   21.8302 C   0  0  0  0  0  0  0  0  0  0  0  0
   10.5176  -17.8040   21.0170 C   0  0  2  0  0  0  0  0  0  0  0  0
   11.2815  -17.5360   19.8704 N   0  0  0  0  0  0  0  0  0  0  0  0
   10.2266  -16.6779   21.9247 C   0  0  0  0  0  0  0  0  0  0  0  0
   11.1401  -15.8294   22.0940 O   0  0  0  0  0  0  0  0  0  0  0  0
    6.1307  -10.7324   26.9778 O   0  0  0  0  0  0  0  0  0  0  0  0
    6.4312  -11.8647   26.2280 C   0  0  0  0  0  0  0  0  0  0  0  0
    5.9511  -13.0864   26.6475 C   0  0  0  0  0  0  0  0  0  0  0  0
    6.2191  -14.2393   25.9422 C   0  0  0  0  0  0  0  0  0  0  0  0
    6.9912  -14.1678   24.7816 C   0  0  0  0  0  0  0  0  0  0  0  0
    7.3002  -15.3821   23.9860 C   0  0  0  0  0  0  0  0  0  0  0  0
    8.7110  -15.4303   23.4974 C   0  0  2  0  0  0  0  0  0  0  0  0
    8.9849  -16.5321   22.5913 N   0  0  0  0  0  0  0  0  0  0  0  0
    9.6815  -15.4180   24.6265 C   0  0  0  0  0  0  0  0  0  0  0  0
   10.4788  -14.4237   24.6931 O   0  0  0  0  0  0  0  0  0  0  0  0
    7.4625  -12.9310   24.3795 C   0  0  0  0  0  0  0  0  0  0  0  0
    7.2027  -11.7707   25.0740 C   0  0  0  0  0  0  0  0  0  0  0  0
    9.7226  -16.4630   25.5891 N   0  0  0  0  0  0  0  0  0  0  0  0
   10.2480  -16.2096   26.8957 C   0  0  1  0  0  0  0  0  0  0  0  0
    9.5282  -15.0819   27.6056 C   0  0  0  0  0  0  0  0  0  0  0  0
   10.5334  -14.4863   28.9925 S   0  0  0  0  0  0  0  0  0  0  0  0
   10.2208  -17.4468   27.7227 C   0  0  0  0  0  0  0  0  0  0  0  0
   11.3290  -17.7424   28.5139 O   0  0  0  0  0  0  0  0  0  0  0  0
    9.2161  -18.2238   27.7161 O   0  0  0  0  0  0  0  0  0  0  0  0
  1  2  1  0
  2  4  1  0
  2  3  2  0
  4  5  1  0
  5  6  1  0
  6  7  1  6
  6  8  1  0
  8  9  2  0
 10 11  1  0
 11 21  2  0
 11 12  1  0
 12 13  2  0
 13 14  1  0
 14 15  1  0
 16 15  1  1
 17  8  1  0
 17 16  1  0
 18 22  1  0
 18 16  1  0
 19 18  2  0
 20 14  2  0
 21 20  1  0
 23 24  1  1
 23 26  1  0
 23 22  1  0
 24 25  1  0
 26 27  1  0
 28 26  2  0
M  END
$$$$
