QYC.pdb
     RDKit          3D

 28 28  0  0  1  0  0  0  0  0999 V2000
    8.2034  -12.8622   18.3431 N   0  0  0  0  0  0  0  0  0  0  0  0
    7.6248  -13.9618   17.6868 C   0  0  0  0  0  0  0  0  0  0  0  0
    7.8856  -14.1658   16.4878 O   0  0  0  0  0  0  0  0  0  0  0  0
    6.7246  -14.8540   18.4263 C   0  0  0  0  0  0  0  0  0  0  0  0
    6.9233  -14.9529   19.8871 C   0  0  0  0  0  0  0  0  0  0  0  0
    8.3136  -15.2648   20.3664 C   0  0  2  0  0  0  0  0  0  0  0  0
    9.0308  -16.2511   19.6714 N   0  0  0  0  0  0  0  0  0  0  0  0
    8.3172  -15.3263   21.8405 C   0  0  0  0  0  0  0  0  0  0  0  0
    7.3720  -14.7505   22.4390 O   0  0  0  0  0  0  0  0  0  0  0  0
   10.6985  -16.5968   30.2444 O   0  0  0  0  0  0  0  0  0  0  0  0
   10.6395  -16.6462   28.8557 C   0  0  0  0  0  0  0  0  0  0  0  0
   10.2106  -17.8070   28.2494 C   0  0  0  0  0  0  0  0  0  0  0  0
   10.1334  -17.9096   26.8776 C   0  0  0  0  0  0  0  0  0  0  0  0
   10.4962  -16.8173   26.0880 C   0  0  0  0  0  0  0  0  0  0  0  0
   10.4232  -16.8794   24.6069 C   0  0  0  0  0  0  0  0  0  0  0  0
    9.3328  -16.0377   24.0290 C   0  0  2  0  0  0  0  0  0  0  0  0
    9.3262  -15.9947   22.5771 N   0  0  0  0  0  0  0  0  0  0  0  0
    9.3420  -14.6629   24.6005 C   0  0  0  0  0  0  0  0  0  0  0  0
    9.7504  -13.7230   23.8399 O   0  0  0  0  0  0  0  0  0  0  0  0
   10.9237  -15.6625   26.7181 C   0  0  0  0  0  0  0  0  0  0  0  0
   11.0060  -15.5454   28.0876 C   0  0  0  0  0  0  0  0  0  0  0  0
    8.9165  -14.4031   25.9316 N   0  0  0  0  0  0  0  0  0  0  0  0
    8.0481  -13.2981   26.2006 C   0  0  1  0  0  0  0  0  0  0  0  0
    6.7512  -13.3721   25.4219 C   0  0  0  0  0  0  0  0  0  0  0  0
    5.6194  -12.0722   25.9857 S   0  0  0  0  0  0  0  0  0  0  0  0
    7.7739  -13.1875   27.6593 C   0  0  0  0  0  0  0  0  0  0  0  0
    7.9359  -14.3204   28.4542 O   0  0  0  0  0  0  0  0  0  0  0  0
    7.4001  -12.0910   28.1799 O   0  0  0  0  0  0  0  0  0  0  0  0
  1  2  1  0
  2  4  1  0
  2  3  2  0
  4  5  1  0
  5  6  1  0
  6  7  1  6
  6  8  1  0
  8  9  2  0
 10 11  1  0
 11 21  2  0
 11 12  1  0
 12 13  2  0
 13 14  1  0
 14 15  1  0
 16 15  1  6
 17  8  1  0
 17 16  1  0
 18 22  1  0
 18 16  1  0
 19 18  2  0
 20 14  2  0
 21 20  1  0
 23 24  1  6
 23 26  1  0
 23 22  1  0
 24 25  1  0
 26 27  1  0
 28 26  2  0
M  END
$$$$
