QYC.pdb
     RDKit          3D

 28 28  0  0  1  0  0  0  0  0999 V2000
    7.7642  -13.4321   17.2888 N   0  0  0  0  0  0  0  0  0  0  0  0
    8.6297  -13.5447   18.3902 C   0  0  0  0  0  0  0  0  0  0  0  0
    9.3773  -12.5941   18.6810 O   0  0  0  0  0  0  0  0  0  0  0  0
    8.6363  -14.7803   19.1817 C   0  0  0  0  0  0  0  0  0  0  0  0
    9.2158  -14.7086   20.5390 C   0  0  0  0  0  0  0  0  0  0  0  0
    9.1994  -15.9711   21.3549 C   0  0  2  0  0  0  0  0  0  0  0  0
    8.1395  -16.8659   21.1397 N   0  0  0  0  0  0  0  0  0  0  0  0
    9.5538  -15.6523   22.7511 C   0  0  0  0  0  0  0  0  0  0  0  0
   10.5093  -14.8535   22.9303 O   0  0  0  0  0  0  0  0  0  0  0  0
    5.8579  -10.3457   26.0659 O   0  0  0  0  0  0  0  0  0  0  0  0
    6.3408  -11.6500   26.0560 C   0  0  0  0  0  0  0  0  0  0  0  0
    7.6631  -11.8718   26.3745 C   0  0  0  0  0  0  0  0  0  0  0  0
    8.1926  -13.1438   26.3799 C   0  0  0  0  0  0  0  0  0  0  0  0
    7.3741  -14.2273   26.0569 C   0  0  0  0  0  0  0  0  0  0  0  0
    7.8989  -15.6156   26.0558 C   0  0  0  0  0  0  0  0  0  0  0  0
    9.1299  -15.7859   25.2269 C   0  0  2  0  0  0  0  0  0  0  0  0
    8.8689  -16.2059   23.8610 N   0  0  0  0  0  0  0  0  0  0  0  0
   10.1098  -16.6946   25.8834 C   0  0  0  0  0  0  0  0  0  0  0  0
   10.2519  -17.8565   25.3748 O   0  0  0  0  0  0  0  0  0  0  0  0
    6.0502  -13.9810   25.7404 C   0  0  0  0  0  0  0  0  0  0  0  0
    5.5073  -12.7156   25.7309 C   0  0  0  0  0  0  0  0  0  0  0  0
   10.8556  -16.2919   27.0243 N   0  0  0  0  0  0  0  0  0  0  0  0
   11.7675  -17.2066   27.6402 C   0  0  1  0  0  0  0  0  0  0  0  0
   12.6348  -16.5466   28.6920 C   0  0  0  0  0  0  0  0  0  0  0  0
   11.5922  -15.6627   29.8838 S   0  0  0  0  0  0  0  0  0  0  0  0
   11.0376  -18.3667   28.2203 C   0  0  0  0  0  0  0  0  0  0  0  0
   11.7729  -19.4754   28.6347 O   0  0  0  0  0  0  0  0  0  0  0  0
    9.7732  -18.3586   28.3403 O   0  0  0  0  0  0  0  0  0  0  0  0
  1  2  1  0
  2  4  1  0
  2  3  2  0
  4  5  1  0
  5  6  1  0
  6  7  1  1
  6  8  1  0
  8  9  2  0
 10 11  1  0
 11 21  2  0
 11 12  1  0
 12 13  2  0
 13 14  1  0
 14 15  1  0
 16 15  1  1
 17  8  1  0
 17 16  1  0
 18 22  1  0
 18 16  1  0
 19 18  2  0
 20 14  2  0
 21 20  1  0
 23 24  1  1
 23 26  1  0
 23 22  1  0
 24 25  1  0
 26 27  1  0
 28 26  2  0
M  END
$$$$
