QYC.pdb
     RDKit          3D

 28 28  0  0  1  0  0  0  0  0999 V2000
   11.9103  -17.9579   16.8008 N   0  0  0  0  0  0  0  0  0  0  0  0
   10.5850  -17.6102   17.1128 C   0  0  0  0  0  0  0  0  0  0  0  0
    9.9338  -16.9068   16.3202 O   0  0  0  0  0  0  0  0  0  0  0  0
    9.9888  -18.0845   18.3669 C   0  0  0  0  0  0  0  0  0  0  0  0
   10.6145  -17.6292   19.6256 C   0  0  0  0  0  0  0  0  0  0  0  0
    9.9485  -18.0455   20.9075 C   0  0  2  0  0  0  0  0  0  0  0  0
    8.8658  -18.9338   20.8144 N   0  0  0  0  0  0  0  0  0  0  0  0
    9.7936  -16.8660   21.7801 C   0  0  0  0  0  0  0  0  0  0  0  0
   10.8127  -16.1506   21.9607 O   0  0  0  0  0  0  0  0  0  0  0  0
    6.4467  -10.7848   27.2578 O   0  0  0  0  0  0  0  0  0  0  0  0
    6.5992  -11.7644   26.2823 C   0  0  0  0  0  0  0  0  0  0  0  0
    7.3633  -11.4824   25.1707 C   0  0  0  0  0  0  0  0  0  0  0  0
    7.5468  -12.4165   24.1746 C   0  0  0  0  0  0  0  0  0  0  0  0
    6.9476  -13.6714   24.2943 C   0  0  0  0  0  0  0  0  0  0  0  0
    7.1225  -14.7113   23.2498 C   0  0  0  0  0  0  0  0  0  0  0  0
    8.4391  -15.4131   23.3233 C   0  0  2  0  0  0  0  0  0  0  0  0
    8.5659  -16.5289   22.4020 N   0  0  0  0  0  0  0  0  0  0  0  0
    8.7566  -15.8355   24.7153 C   0  0  0  0  0  0  0  0  0  0  0  0
    8.8538  -14.9130   25.5918 O   0  0  0  0  0  0  0  0  0  0  0  0
    6.1850  -13.9323   25.4185 C   0  0  0  0  0  0  0  0  0  0  0  0
    5.9929  -13.0090   26.4217 C   0  0  0  0  0  0  0  0  0  0  0  0
    8.9440  -17.2022   25.0580 N   0  0  0  0  0  0  0  0  0  0  0  0
    9.2028  -17.5683   26.4169 C   0  0  1  0  0  0  0  0  0  0  0  0
    7.9431  -17.9403   27.1711 C   0  0  0  0  0  0  0  0  0  0  0  0
    7.0743  -19.2723   26.2995 S   0  0  0  0  0  0  0  0  0  0  0  0
   10.1956  -18.6751   26.4835 C   0  0  0  0  0  0  0  0  0  0  0  0
   10.6703  -19.0683   27.7331 O   0  0  0  0  0  0  0  0  0  0  0  0
   10.6087  -19.2561   25.4324 O   0  0  0  0  0  0  0  0  0  0  0  0
  1  2  1  0
  2  4  1  0
  2  3  2  0
  4  5  1  0
  5  6  1  0
  6  7  1  6
  6  8  1  0
  8  9  2  0
 10 11  1  0
 11 21  2  0
 11 12  1  0
 12 13  2  0
 13 14  1  0
 14 15  1  0
 16 15  1  1
 17  8  1  0
 17 16  1  0
 18 22  1  0
 18 16  1  0
 19 18  2  0
 20 14  2  0
 21 20  1  0
 23 24  1  6
 23 26  1  0
 23 22  1  0
 24 25  1  0
 26 27  1  0
 28 26  2  0
M  END
$$$$
