QYC.pdb
     RDKit          3D

 28 28  0  0  1  0  0  0  0  0999 V2000
   10.8076  -16.5607   15.6283 N   0  0  0  0  0  0  0  0  0  0  0  0
    9.4351  -16.7976   15.4413 C   0  0  0  0  0  0  0  0  0  0  0  0
    9.0185  -17.1277   14.3168 O   0  0  0  0  0  0  0  0  0  0  0  0
    8.5153  -16.6549   16.5756 C   0  0  0  0  0  0  0  0  0  0  0  0
    9.0981  -16.2403   17.8686 C   0  0  0  0  0  0  0  0  0  0  0  0
    8.6961  -17.0309   19.0824 C   0  0  2  0  0  0  0  0  0  0  0  0
    7.5364  -17.8159   18.9874 N   0  0  0  0  0  0  0  0  0  0  0  0
    8.8584  -16.1917   20.2849 C   0  0  0  0  0  0  0  0  0  0  0  0
    9.9967  -15.6946   20.4857 O   0  0  0  0  0  0  0  0  0  0  0  0
    7.4771  -12.2752   28.0869 O   0  0  0  0  0  0  0  0  0  0  0  0
    7.3065  -12.8275   26.8218 C   0  0  0  0  0  0  0  0  0  0  0  0
    7.8006  -12.1497   25.7285 C   0  0  0  0  0  0  0  0  0  0  0  0
    7.6589  -12.6518   24.4532 C   0  0  0  0  0  0  0  0  0  0  0  0
    7.0027  -13.8694   24.2661 C   0  0  0  0  0  0  0  0  0  0  0  0
    6.8321  -14.4523   22.9118 C   0  0  0  0  0  0  0  0  0  0  0  0
    8.0041  -15.2608   22.4598 C   0  0  2  0  0  0  0  0  0  0  0  0
    7.7997  -15.9398   21.1921 N   0  0  0  0  0  0  0  0  0  0  0  0
    8.4448  -16.2195   23.5103 C   0  0  0  0  0  0  0  0  0  0  0  0
    7.7069  -17.2422   23.7063 O   0  0  0  0  0  0  0  0  0  0  0  0
    6.5149  -14.5322   25.3779 C   0  0  0  0  0  0  0  0  0  0  0  0
    6.6491  -14.0428   26.6579 C   0  0  0  0  0  0  0  0  0  0  0  0
    9.6320  -16.0105   24.2634 N   0  0  0  0  0  0  0  0  0  0  0  0
   10.1558  -17.0644   25.0774 C   0  0  1  0  0  0  0  0  0  0  0  0
   11.5511  -17.4831   24.6632 C   0  0  0  0  0  0  0  0  0  0  0  0
   12.6063  -16.0189   24.4858 S   0  0  0  0  0  0  0  0  0  0  0  0
   10.1328  -16.6797   26.5150 C   0  0  0  0  0  0  0  0  0  0  0  0
   10.4090  -17.6567   27.4693 O   0  0  0  0  0  0  0  0  0  0  0  0
    9.8687  -15.4912   26.8767 O   0  0  0  0  0  0  0  0  0  0  0  0
  1  2  1  0
  2  4  1  0
  2  3  2  0
  4  5  1  0
  5  6  1  0
  6  7  1  6
  6  8  1  0
  8  9  2  0
 10 11  1  0
 11 21  2  0
 11 12  1  0
 12 13  2  0
 13 14  1  0
 14 15  1  0
 16 15  1  1
 17  8  1  0
 17 16  1  0
 18 22  1  0
 18 16  1  0
 19 18  2  0
 20 14  2  0
 21 20  1  0
 23 24  1  6
 23 26  1  0
 23 22  1  0
 24 25  1  0
 26 27  1  0
 28 26  2  0
M  END
$$$$
