QYC.pdb
     RDKit          3D

 28 28  0  0  1  0  0  0  0  0999 V2000
   12.7439  -17.2615   17.3322 N   0  0  0  0  0  0  0  0  0  0  0  0
   11.5629  -18.0189   17.2532 C   0  0  0  0  0  0  0  0  0  0  0  0
   11.2820  -18.6063   16.1935 O   0  0  0  0  0  0  0  0  0  0  0  0
   10.6808  -18.1076   18.4226 C   0  0  0  0  0  0  0  0  0  0  0  0
   11.1024  -17.3869   19.6416 C   0  0  0  0  0  0  0  0  0  0  0  0
   10.5577  -17.8855   20.9511 C   0  0  2  0  0  0  0  0  0  0  0  0
    9.5019  -18.8091   20.9021 N   0  0  0  0  0  0  0  0  0  0  0  0
   10.4342  -16.7532   21.8889 C   0  0  0  0  0  0  0  0  0  0  0  0
   11.4368  -16.0037   22.0153 O   0  0  0  0  0  0  0  0  0  0  0  0
    7.0672  -12.8635   18.0494 O   0  0  0  0  0  0  0  0  0  0  0  0
    7.2812  -13.2664   19.3634 C   0  0  0  0  0  0  0  0  0  0  0  0
    6.6827  -14.4248   19.8094 C   0  0  0  0  0  0  0  0  0  0  0  0
    6.8613  -14.8691   21.1013 C   0  0  0  0  0  0  0  0  0  0  0  0
    7.6633  -14.1318   21.9739 C   0  0  0  0  0  0  0  0  0  0  0  0
    7.8896  -14.5748   23.3723 C   0  0  0  0  0  0  0  0  0  0  0  0
    9.1372  -15.3775   23.5478 C   0  0  2  0  0  0  0  0  0  0  0  0
    9.2536  -16.4966   22.6290 N   0  0  0  0  0  0  0  0  0  0  0  0
    9.3036  -15.8284   24.9570 C   0  0  0  0  0  0  0  0  0  0  0  0
    8.7402  -15.1242   25.8600 O   0  0  0  0  0  0  0  0  0  0  0  0
    8.2539  -12.9724   21.5046 C   0  0  0  0  0  0  0  0  0  0  0  0
    8.0845  -12.5162   20.2165 C   0  0  0  0  0  0  0  0  0  0  0  0
   10.0545  -16.9892   25.2874 N   0  0  0  0  0  0  0  0  0  0  0  0
   10.1634  -17.4042   26.6524 C   0  0  1  0  0  0  0  0  0  0  0  0
    8.9666  -18.2090   27.1149 C   0  0  0  0  0  0  0  0  0  0  0  0
    9.2573  -18.8366   28.7913 S   0  0  0  0  0  0  0  0  0  0  0  0
   11.4212  -18.1694   26.8708 C   0  0  0  0  0  0  0  0  0  0  0  0
   12.2337  -18.4410   25.7719 O   0  0  0  0  0  0  0  0  0  0  0  0
   11.7575  -18.5714   28.0277 O   0  0  0  0  0  0  0  0  0  0  0  0
  1  2  1  0
  2  4  1  0
  2  3  2  0
  4  5  1  0
  5  6  1  0
  6  7  1  6
  6  8  1  0
  8  9  2  0
 10 11  1  0
 11 21  2  0
 11 12  1  0
 12 13  2  0
 13 14  1  0
 14 15  1  0
 16 15  1  1
 17  8  1  0
 17 16  1  0
 18 22  1  0
 18 16  1  0
 19 18  2  0
 20 14  2  0
 21 20  1  0
 23 24  1  6
 23 26  1  0
 23 22  1  0
 24 25  1  0
 26 27  1  0
 28 26  2  0
M  END
$$$$
