QYC.pdb
     RDKit          3D

 28 28  0  0  1  0  0  0  0  0999 V2000
    5.9616  -20.4989   20.7893 N   0  0  0  0  0  0  0  0  0  0  0  0
    6.9901  -21.3982   20.4605 C   0  0  0  0  0  0  0  0  0  0  0  0
    6.7264  -22.4103   19.7872 O   0  0  0  0  0  0  0  0  0  0  0  0
    8.3594  -21.1283   20.9136 C   0  0  0  0  0  0  0  0  0  0  0  0
    8.5887  -19.8713   21.6558 C   0  0  0  0  0  0  0  0  0  0  0  0
    8.7382  -18.6165   20.8416 C   0  0  2  0  0  0  0  0  0  0  0  0
    9.4315  -18.7141   19.6251 N   0  0  0  0  0  0  0  0  0  0  0  0
    9.0798  -17.4942   21.7365 C   0  0  0  0  0  0  0  0  0  0  0  0
   10.3012  -17.2273   21.8779 O   0  0  0  0  0  0  0  0  0  0  0  0
    7.5555  -12.8604   17.5528 O   0  0  0  0  0  0  0  0  0  0  0  0
    7.5562  -13.2462   18.8891 C   0  0  0  0  0  0  0  0  0  0  0  0
    8.5772  -12.8114   19.7060 C   0  0  0  0  0  0  0  0  0  0  0  0
    8.6262  -13.1641   21.0370 C   0  0  0  0  0  0  0  0  0  0  0  0
    7.6228  -13.9768   21.5671 C   0  0  0  0  0  0  0  0  0  0  0  0
    7.6305  -14.3770   22.9963 C   0  0  0  0  0  0  0  0  0  0  0  0
    8.4398  -15.6032   23.2666 C   0  0  2  0  0  0  0  0  0  0  0  0
    8.0994  -16.7339   22.4206 N   0  0  0  0  0  0  0  0  0  0  0  0
    8.3923  -15.9836   24.7053 C   0  0  0  0  0  0  0  0  0  0  0  0
    7.2826  -16.4315   25.1488 O   0  0  0  0  0  0  0  0  0  0  0  0
    6.6079  -14.4014   20.7286 C   0  0  0  0  0  0  0  0  0  0  0  0
    6.5459  -14.0570   19.3968 C   0  0  0  0  0  0  0  0  0  0  0  0
    9.5277  -15.8561   25.5507 N   0  0  0  0  0  0  0  0  0  0  0  0
    9.7587  -16.8170   26.5855 C   0  0  1  0  0  0  0  0  0  0  0  0
    9.1405  -18.1652   26.2785 C   0  0  0  0  0  0  0  0  0  0  0  0
    8.9877  -19.1342   27.8037 S   0  0  0  0  0  0  0  0  0  0  0  0
   11.2156  -16.9613   26.8537 C   0  0  0  0  0  0  0  0  0  0  0  0
   12.0907  -17.0004   25.7700 O   0  0  0  0  0  0  0  0  0  0  0  0
   11.6637  -17.0480   28.0389 O   0  0  0  0  0  0  0  0  0  0  0  0
  1  2  1  0
  2  4  1  0
  2  3  2  0
  4  5  1  0
  5  6  1  0
  6  7  1  6
  6  8  1  0
  8  9  2  0
 10 11  1  0
 11 21  2  0
 11 12  1  0
 12 13  2  0
 13 14  1  0
 14 15  1  0
 16 15  1  1
 17  8  1  0
 17 16  1  0
 18 22  1  0
 18 16  1  0
 19 18  2  0
 20 14  2  0
 21 20  1  0
 23 24  1  6
 23 26  1  0
 23 22  1  0
 24 25  1  0
 26 27  1  0
 28 26  2  0
M  END
$$$$
