QYC.pdb
     RDKit          3D

 28 28  0  0  1  0  0  0  0  0999 V2000
   13.0287  -20.5654   20.9765 N   0  0  0  0  0  0  0  0  0  0  0  0
   12.3877  -20.5374   19.7263 C   0  0  0  0  0  0  0  0  0  0  0  0
   12.6620  -21.4048   18.8780 O   0  0  0  0  0  0  0  0  0  0  0  0
   11.4026  -19.4877   19.4417 C   0  0  0  0  0  0  0  0  0  0  0  0
   11.0714  -18.5577   20.5412 C   0  0  0  0  0  0  0  0  0  0  0  0
   10.0099  -17.5290   20.2675 C   0  0  2  0  0  0  0  0  0  0  0  0
    9.9881  -16.9469   18.9904 N   0  0  0  0  0  0  0  0  0  0  0  0
    9.8920  -16.6305   21.4318 C   0  0  0  0  0  0  0  0  0  0  0  0
   10.9635  -16.2224   21.9498 O   0  0  0  0  0  0  0  0  0  0  0  0
    6.7654  -11.5608   27.9524 O   0  0  0  0  0  0  0  0  0  0  0  0
    6.8650  -12.3398   26.8045 C   0  0  0  0  0  0  0  0  0  0  0  0
    7.6004  -11.8647   25.7403 C   0  0  0  0  0  0  0  0  0  0  0  0
    7.7314  -12.5957   24.5798 C   0  0  0  0  0  0  0  0  0  0  0  0
    7.1076  -13.8403   24.4807 C   0  0  0  0  0  0  0  0  0  0  0  0
    7.2260  -14.6658   23.2530 C   0  0  0  0  0  0  0  0  0  0  0  0
    8.5336  -15.3791   23.1393 C   0  0  2  0  0  0  0  0  0  0  0  0
    8.6428  -16.2289   21.9663 N   0  0  0  0  0  0  0  0  0  0  0  0
    8.8500  -16.1418   24.3783 C   0  0  0  0  0  0  0  0  0  0  0  0
    8.1742  -17.2030   24.5927 O   0  0  0  0  0  0  0  0  0  0  0  0
    6.3745  -14.2972   25.5612 C   0  0  0  0  0  0  0  0  0  0  0  0
    6.2349  -13.5779   26.7270 C   0  0  0  0  0  0  0  0  0  0  0  0
    9.8574  -15.7124   25.2844 N   0  0  0  0  0  0  0  0  0  0  0  0
   10.1698  -16.5064   26.4331 C   0  0  1  0  0  0  0  0  0  0  0  0
   11.6072  -16.9836   26.4392 C   0  0  0  0  0  0  0  0  0  0  0  0
   12.0452  -17.6398   24.8063 S   0  0  0  0  0  0  0  0  0  0  0  0
    9.8626  -15.7634   27.6855 C   0  0  0  0  0  0  0  0  0  0  0  0
    9.9544  -16.4403   28.9000 O   0  0  0  0  0  0  0  0  0  0  0  0
    9.5232  -14.5397   27.6614 O   0  0  0  0  0  0  0  0  0  0  0  0
  1  2  1  0
  2  4  1  0
  2  3  2  0
  4  5  1  0
  5  6  1  0
  6  7  1  6
  6  8  1  0
  8  9  2  0
 10 11  1  0
 11 21  2  0
 11 12  1  0
 12 13  2  0
 13 14  1  0
 14 15  1  0
 16 15  1  1
 17  8  1  0
 17 16  1  0
 18 22  1  0
 18 16  1  0
 19 18  2  0
 20 14  2  0
 21 20  1  0
 23 24  1  1
 23 26  1  0
 23 22  1  0
 24 25  1  0
 26 27  1  0
 28 26  2  0
M  END
$$$$
