QYC.pdb
     RDKit          3D

 28 28  0  0  1  0  0  0  0  0999 V2000
   10.3776  -16.9785   17.9366 N   0  0  0  0  0  0  0  0  0  0  0  0
    9.1700  -17.5888   17.5573 C   0  0  0  0  0  0  0  0  0  0  0  0
    9.1703  -18.4295   16.6406 O   0  0  0  0  0  0  0  0  0  0  0  0
    7.9280  -17.2276   18.2503 C   0  0  0  0  0  0  0  0  0  0  0  0
    8.0459  -16.3455   19.4298 C   0  0  0  0  0  0  0  0  0  0  0  0
    8.0400  -17.0075   20.7795 C   0  0  2  0  0  0  0  0  0  0  0  0
    7.3903  -18.2469   20.8886 N   0  0  0  0  0  0  0  0  0  0  0  0
    7.7626  -15.9952   21.8163 C   0  0  0  0  0  0  0  0  0  0  0  0
    8.4219  -14.9250   21.7613 O   0  0  0  0  0  0  0  0  0  0  0  0
    9.1261  -19.1175   29.7107 O   0  0  0  0  0  0  0  0  0  0  0  0
    8.8565  -18.7840   28.3876 C   0  0  0  0  0  0  0  0  0  0  0  0
    7.5848  -18.9863   27.8969 C   0  0  0  0  0  0  0  0  0  0  0  0
    7.2640  -18.6734   26.5940 C   0  0  0  0  0  0  0  0  0  0  0  0
    8.2456  -18.1416   25.7562 C   0  0  0  0  0  0  0  0  0  0  0  0
    7.9447  -17.7834   24.3476 C   0  0  0  0  0  0  0  0  0  0  0  0
    7.1784  -16.5087   24.2083 C   0  0  2  0  0  0  0  0  0  0  0  0
    6.8042  -16.1909   22.8413 N   0  0  0  0  0  0  0  0  0  0  0  0
    7.8957  -15.3676   24.8411 C   0  0  0  0  0  0  0  0  0  0  0  0
    9.0926  -15.1510   24.4549 O   0  0  0  0  0  0  0  0  0  0  0  0
    9.5150  -17.9471   26.2702 C   0  0  0  0  0  0  0  0  0  0  0  0
    9.8501  -18.2550   27.5697 C   0  0  0  0  0  0  0  0  0  0  0  0
    7.2804  -14.5533   25.8304 N   0  0  0  0  0  0  0  0  0  0  0  0
    7.9557  -13.3900   26.3183 C   0  0  1  0  0  0  0  0  0  0  0  0
    7.0003  -12.3339   26.8340 C   0  0  0  0  0  0  0  0  0  0  0  0
    5.6477  -12.0962   25.6497 S   0  0  0  0  0  0  0  0  0  0  0  0
    8.9429  -13.7570   27.3699 C   0  0  0  0  0  0  0  0  0  0  0  0
    9.8043  -12.7710   27.8467 O   0  0  0  0  0  0  0  0  0  0  0  0
    9.0089  -14.9388   27.8305 O   0  0  0  0  0  0  0  0  0  0  0  0
  1  2  1  0
  2  4  1  0
  2  3  2  0
  4  5  1  0
  5  6  1  0
  6  7  1  6
  6  8  1  0
  8  9  2  0
 10 11  1  0
 11 21  2  0
 11 12  1  0
 12 13  2  0
 13 14  1  0
 14 15  1  0
 16 15  1  6
 17  8  1  0
 17 16  1  0
 18 22  1  0
 18 16  1  0
 19 18  2  0
 20 14  2  0
 21 20  1  0
 23 24  1  1
 23 26  1  0
 23 22  1  0
 24 25  1  0
 26 27  1  0
 28 26  2  0
M  END
$$$$
