QYC.pdb
     RDKit          3D

 28 28  0  0  1  0  0  0  0  0999 V2000
    8.0305  -13.3792   16.8834 N   0  0  0  0  0  0  0  0  0  0  0  0
    8.4326  -14.6681   16.4939 C   0  0  0  0  0  0  0  0  0  0  0  0
    8.2024  -15.0573   15.3351 O   0  0  0  0  0  0  0  0  0  0  0  0
    9.1204  -15.5338   17.4587 C   0  0  0  0  0  0  0  0  0  0  0  0
    9.3843  -14.9727   18.7998 C   0  0  0  0  0  0  0  0  0  0  0  0
    9.9086  -15.9189   19.8436 C   0  0  2  0  0  0  0  0  0  0  0  0
    9.4988  -17.2591   19.7654 N   0  0  0  0  0  0  0  0  0  0  0  0
    9.8572  -15.2630   21.1642 C   0  0  0  0  0  0  0  0  0  0  0  0
   10.5974  -14.2598   21.3334 O   0  0  0  0  0  0  0  0  0  0  0  0
    6.5676  -11.5396   28.3516 O   0  0  0  0  0  0  0  0  0  0  0  0
    6.7548  -12.3282   27.2213 C   0  0  0  0  0  0  0  0  0  0  0  0
    7.2414  -11.7405   26.0738 C   0  0  0  0  0  0  0  0  0  0  0  0
    7.4454  -12.4755   24.9264 C   0  0  0  0  0  0  0  0  0  0  0  0
    7.1536  -13.8404   24.9270 C   0  0  0  0  0  0  0  0  0  0  0  0
    7.3634  -14.6735   23.7166 C   0  0  0  0  0  0  0  0  0  0  0  0
    8.8024  -14.9493   23.4261 C   0  0  2  0  0  0  0  0  0  0  0  0
    9.0233  -15.7198   22.2147 N   0  0  0  0  0  0  0  0  0  0  0  0
    9.4836  -15.5821   24.5890 C   0  0  0  0  0  0  0  0  0  0  0  0
    9.5832  -16.8544   24.5789 O   0  0  0  0  0  0  0  0  0  0  0  0
    6.6661  -14.4090   26.0900 C   0  0  0  0  0  0  0  0  0  0  0  0
    6.4573  -13.6872   27.2438 C   0  0  0  0  0  0  0  0  0  0  0  0
   10.0012  -14.8096   25.6640 N   0  0  0  0  0  0  0  0  0  0  0  0
   10.5927  -15.4621   26.7918 C   0  0  1  0  0  0  0  0  0  0  0  0
   10.8912  -14.5066   27.9284 C   0  0  0  0  0  0  0  0  0  0  0  0
   11.6590  -15.4059   29.3033 S   0  0  0  0  0  0  0  0  0  0  0  0
    9.7312  -16.5801   27.2642 C   0  0  0  0  0  0  0  0  0  0  0  0
   10.3406  -17.7731   27.6475 O   0  0  0  0  0  0  0  0  0  0  0  0
    8.4679  -16.4620   27.3214 O   0  0  0  0  0  0  0  0  0  0  0  0
  1  2  1  0
  2  4  1  0
  2  3  2  0
  4  5  1  0
  5  6  1  0
  6  7  1  1
  6  8  1  0
  8  9  2  0
 10 11  1  0
 11 21  2  0
 11 12  1  0
 12 13  2  0
 13 14  1  0
 14 15  1  0
 16 15  1  1
 17  8  1  0
 17 16  1  0
 18 22  1  0
 18 16  1  0
 19 18  2  0
 20 14  2  0
 21 20  1  0
 23 24  1  1
 23 26  1  0
 23 22  1  0
 24 25  1  0
 26 27  1  0
 28 26  2  0
M  END
$$$$
