HFT.pdb
     RDKit          3D

 29 30  0  0  1  0  0  0  0  0999 V2000
   19.1317   -9.1506  -17.1127 N   0  0  0  0  0  0  0  0  0  0  0  0
   18.3232   -8.1505  -16.4803 C   0  0  1  0  0  0  0  0  0  0  0  0
   16.9259   -8.0444  -16.9786 C   0  0  0  0  0  0  0  0  0  0  0  0
   16.9641   -7.5974  -18.4146 C   0  0  0  0  0  0  0  0  0  0  0  0
   17.2251   -6.3378  -18.9056 C   0  0  0  0  0  0  0  0  0  0  0  0
   17.1794   -6.3547  -20.2656 N   0  0  0  0  0  0  0  0  0  0  0  0
   16.8954   -7.6045  -20.5937 C   0  0  0  0  0  0  0  0  0  0  0  0
   16.7555   -8.3992  -19.4972 N   0  0  0  0  0  0  0  0  0  0  0  0
   18.4331   -8.1901  -14.9953 C   0  0  0  0  0  0  0  0  0  0  0  0
   18.0962   -9.2065  -14.3632 O   0  0  0  0  0  0  0  0  0  0  0  0
   18.9150   -7.0713  -14.3103 N   0  0  0  0  0  0  0  0  0  0  0  0
   19.2289   -6.9988  -12.8999 C   0  0  1  0  0  0  0  0  0  0  0  0
   20.6718   -6.7842  -12.6760 C   0  0  0  0  0  0  0  0  0  0  0  0
   21.5628   -7.8245  -13.1515 C   0  0  0  0  0  0  0  0  0  0  0  0
   22.2457   -7.7072  -14.3349 C   0  0  0  0  0  0  0  0  0  0  0  0
   23.0961   -8.7063  -14.7996 C   0  0  0  0  0  0  0  0  0  0  0  0
   23.2671   -9.8458  -14.0627 C   0  0  0  0  0  0  0  0  0  0  0  0
   22.5953  -10.0095  -12.8561 C   0  0  0  0  0  0  0  0  0  0  0  0
   21.7497   -8.9767  -12.4279 C   0  0  0  0  0  0  0  0  0  0  0  0
   18.3958   -5.9491  -12.2261 C   0  0  0  0  0  0  0  0  0  0  0  0
   18.5883   -4.7571  -12.5729 O   0  0  0  0  0  0  0  0  0  0  0  0
   14.7580   -5.6170  -12.2259 C   0  0  0  0  0  0  0  0  0  0  0  0
   15.1733   -5.6244  -10.7646 C   0  0  1  0  0  0  0  0  0  0  0  0
   15.0423   -6.9277  -10.2994 O   0  0  0  0  0  0  0  0  0  0  0  0
   16.6261   -5.2186  -10.5893 C   0  0  2  0  0  0  0  0  0  0  0  0
   17.4272   -6.2290  -11.2421 N   0  0  0  0  0  0  0  0  0  0  0  0
   16.8793   -5.1032   -9.1311 C   0  0  0  0  0  0  0  0  0  0  0  0
   17.5757   -5.9538   -8.5348 O   0  0  0  0  0  0  0  0  0  0  0  0
   16.3492   -4.0503   -8.4079 O   0  0  0  0  0  0  0  0  0  0  0  0
  2  1  1  6
  3  2  1  0
  4  3  1  0
  4  8  1  0
  5  6  1  0
  5  4  2  0
  6  7  1  0
  7  8  2  0
  9  2  1  0
 10  9  2  0
 11  9  1  0
 12 11  1  0
 12 13  1  6
 14 13  1  0
 15 14  2  0
 16 15  1  0
 17 18  1  0
 17 16  2  0
 18 19  2  0
 19 14  1  0
 20 12  1  0
 21 20  2  0
 23 22  1  6
 23 25  1  0
 24 23  1  0
 25 26  1  1
 26 20  1  0
 27 25  1  0
 27 29  1  0
 28 27  2  0
M  END
$$$$
