HFT.pdb
     RDKit          3D

 29 30  0  0  1  0  0  0  0  0999 V2000
   28.9424  -21.8968  -18.0833 N   0  0  0  0  0  0  0  0  0  0  0  0
   27.9033  -20.9878  -17.6989 C   0  0  1  0  0  0  0  0  0  0  0  0
   27.0052  -20.5377  -18.7957 C   0  0  0  0  0  0  0  0  0  0  0  0
   27.8148  -19.7326  -19.7753 C   0  0  0  0  0  0  0  0  0  0  0  0
   28.4692  -18.5405  -19.5594 C   0  0  0  0  0  0  0  0  0  0  0  0
   29.1002  -18.1482  -20.6995 N   0  0  0  0  0  0  0  0  0  0  0  0
   28.8326  -19.0873  -21.5921 C   0  0  0  0  0  0  0  0  0  0  0  0
   28.0519  -20.0747  -21.0734 N   0  0  0  0  0  0  0  0  0  0  0  0
   27.1830  -21.4370  -16.4749 C   0  0  0  0  0  0  0  0  0  0  0  0
   26.5587  -22.5123  -16.4674 O   0  0  0  0  0  0  0  0  0  0  0  0
   27.2077  -20.6376  -15.3288 N   0  0  0  0  0  0  0  0  0  0  0  0
   26.5266  -20.9062  -14.0810 C   0  0  1  0  0  0  0  0  0  0  0  0
   27.1971  -20.2454  -12.9443 C   0  0  0  0  0  0  0  0  0  0  0  0
   26.5952  -20.4335  -11.6388 C   0  0  0  0  0  0  0  0  0  0  0  0
   26.8501  -21.5455  -10.8778 C   0  0  0  0  0  0  0  0  0  0  0  0
   26.2685  -21.7346   -9.6275 C   0  0  0  0  0  0  0  0  0  0  0  0
   25.4152  -20.7893   -9.1284 C   0  0  0  0  0  0  0  0  0  0  0  0
   25.1265  -19.6451   -9.8642 C   0  0  0  0  0  0  0  0  0  0  0  0
   25.7357  -19.4974  -11.1181 C   0  0  0  0  0  0  0  0  0  0  0  0
   25.0792  -20.5242  -14.1758 C   0  0  0  0  0  0  0  0  0  0  0  0
   24.8212  -19.3335  -14.4822 O   0  0  0  0  0  0  0  0  0  0  0  0
   21.9543  -23.4484  -13.8279 C   0  0  0  0  0  0  0  0  0  0  0  0
   21.8377  -22.1368  -14.5854 C   0  0  1  0  0  0  0  0  0  0  0  0
   20.4979  -21.7668  -14.5767 O   0  0  0  0  0  0  0  0  0  0  0  0
   22.6248  -21.0256  -13.9132 C   0  0  2  0  0  0  0  0  0  0  0  0
   24.0155  -21.4179  -13.9421 N   0  0  0  0  0  0  0  0  0  0  0  0
   22.0766  -20.8629  -12.5432 C   0  0  0  0  0  0  0  0  0  0  0  0
   22.7400  -21.2171  -11.5440 O   0  0  0  0  0  0  0  0  0  0  0  0
   20.8218  -20.3147  -12.3499 O   0  0  0  0  0  0  0  0  0  0  0  0
  2  1  1  6
  3  2  1  0
  4  3  1  0
  4  8  1  0
  5  6  1  0
  5  4  2  0
  6  7  1  0
  7  8  2  0
  9  2  1  0
 10  9  2  0
 11  9  1  0
 12 11  1  0
 12 13  1  1
 14 13  1  0
 15 14  2  0
 16 15  1  0
 17 18  1  0
 17 16  2  0
 18 19  2  0
 19 14  1  0
 20 12  1  0
 21 20  2  0
 23 22  1  1
 23 25  1  0
 24 23  1  0
 25 26  1  1
 26 20  1  0
 27 25  1  0
 27 29  1  0
 28 27  2  0
M  END
$$$$
