HFT.pdb
     RDKit          3D

 29 30  0  0  1  0  0  0  0  0999 V2000
   28.2039  -23.3381  -16.9075 N   0  0  0  0  0  0  0  0  0  0  0  0
   27.6602  -22.0734  -16.5089 C   0  0  1  0  0  0  0  0  0  0  0  0
   27.0012  -21.2890  -17.5870 C   0  0  0  0  0  0  0  0  0  0  0  0
   28.0146  -21.0131  -18.6640 C   0  0  0  0  0  0  0  0  0  0  0  0
   28.7594  -19.8712  -18.8574 C   0  0  0  0  0  0  0  0  0  0  0  0
   29.5735  -20.0293  -19.9365 N   0  0  0  0  0  0  0  0  0  0  0  0
   29.3262  -21.2473  -20.3898 C   0  0  0  0  0  0  0  0  0  0  0  0
   28.3822  -21.8857  -19.6448 N   0  0  0  0  0  0  0  0  0  0  0  0
   26.8584  -22.1716  -15.2574 C   0  0  0  0  0  0  0  0  0  0  0  0
   25.9621  -23.0262  -15.1460 O   0  0  0  0  0  0  0  0  0  0  0  0
   27.1159  -21.2904  -14.2036 N   0  0  0  0  0  0  0  0  0  0  0  0
   26.4197  -21.2425  -12.9362 C   0  0  1  0  0  0  0  0  0  0  0  0
   27.2478  -20.6179  -11.8863 C   0  0  0  0  0  0  0  0  0  0  0  0
   26.6475  -20.5015  -10.5716 C   0  0  0  0  0  0  0  0  0  0  0  0
   26.6950  -21.5260   -9.6612 C   0  0  0  0  0  0  0  0  0  0  0  0
   26.1135  -21.4222   -8.4009 C   0  0  0  0  0  0  0  0  0  0  0  0
   25.4726  -20.2676   -8.0446 C   0  0  0  0  0  0  0  0  0  0  0  0
   25.3989  -19.2017   -8.9348 C   0  0  0  0  0  0  0  0  0  0  0  0
   25.9993  -19.3516  -10.1926 C   0  0  0  0  0  0  0  0  0  0  0  0
   25.0947  -20.5558  -13.0864 C   0  0  0  0  0  0  0  0  0  0  0  0
   25.1080  -19.3766  -13.5196 O   0  0  0  0  0  0  0  0  0  0  0  0
   22.5371  -20.8619  -15.3473 C   0  0  0  0  0  0  0  0  0  0  0  0
   21.8340  -21.1039  -14.0226 C   0  0  1  0  0  0  0  0  0  0  0  0
   21.8025  -22.4773  -13.8109 O   0  0  0  0  0  0  0  0  0  0  0  0
   22.5871  -20.4780  -12.8619 C   0  0  2  0  0  0  0  0  0  0  0  0
   23.8600  -21.1565  -12.7711 N   0  0  0  0  0  0  0  0  0  0  0  0
   21.7397  -20.6302  -11.6525 C   0  0  0  0  0  0  0  0  0  0  0  0
   22.0998  -21.3684  -10.7095 O   0  0  0  0  0  0  0  0  0  0  0  0
   20.5371  -19.9554  -11.5488 O   0  0  0  0  0  0  0  0  0  0  0  0
  2  1  1  6
  3  2  1  0
  4  3  1  0
  4  8  1  0
  5  6  1  0
  5  4  2  0
  6  7  1  0
  7  8  2  0
  9  2  1  0
 10  9  2  0
 11  9  1  0
 12 11  1  0
 12 13  1  1
 14 13  1  0
 15 14  2  0
 16 15  1  0
 17 18  1  0
 17 16  2  0
 18 19  2  0
 19 14  1  0
 20 12  1  0
 21 20  2  0
 23 22  1  6
 23 25  1  0
 24 23  1  0
 25 26  1  1
 26 20  1  0
 27 25  1  0
 27 29  1  0
 28 27  2  0
M  END
$$$$
