HFT.pdb
     RDKit          3D

 29 30  0  0  1  0  0  0  0  0999 V2000
   27.4557  -22.2187  -16.9818 N   0  0  0  0  0  0  0  0  0  0  0  0
   27.2018  -21.1053  -16.1160 C   0  0  1  0  0  0  0  0  0  0  0  0
   26.6716  -19.8839  -16.7787 C   0  0  0  0  0  0  0  0  0  0  0  0
   27.6693  -19.4286  -17.8085 C   0  0  0  0  0  0  0  0  0  0  0  0
   27.7389  -19.7806  -19.1378 C   0  0  0  0  0  0  0  0  0  0  0  0
   28.7808  -19.1367  -19.7311 N   0  0  0  0  0  0  0  0  0  0  0  0
   29.3338  -18.4062  -18.7767 C   0  0  0  0  0  0  0  0  0  0  0  0
   28.6893  -18.5517  -17.5864 N   0  0  0  0  0  0  0  0  0  0  0  0
   26.4525  -21.5008  -14.8909 C   0  0  0  0  0  0  0  0  0  0  0  0
   25.3990  -22.1557  -14.9778 O   0  0  0  0  0  0  0  0  0  0  0  0
   26.9387  -21.1265  -13.6352 N   0  0  0  0  0  0  0  0  0  0  0  0
   26.2103  -21.1689  -12.3860 C   0  0  1  0  0  0  0  0  0  0  0  0
   27.0606  -20.7665  -11.2488 C   0  0  0  0  0  0  0  0  0  0  0  0
   26.4085  -20.6597   -9.9582 C   0  0  0  0  0  0  0  0  0  0  0  0
   25.6921  -21.6986   -9.4213 C   0  0  0  0  0  0  0  0  0  0  0  0
   25.0576  -21.5984   -8.1865 C   0  0  0  0  0  0  0  0  0  0  0  0
   25.1438  -20.4340   -7.4742 C   0  0  0  0  0  0  0  0  0  0  0  0
   25.8592  -19.3534   -7.9785 C   0  0  0  0  0  0  0  0  0  0  0  0
   26.4819  -19.5003   -9.2258 C   0  0  0  0  0  0  0  0  0  0  0  0
   24.9630  -20.3404  -12.4728 C   0  0  0  0  0  0  0  0  0  0  0  0
   25.1087  -19.0957  -12.5611 O   0  0  0  0  0  0  0  0  0  0  0  0
   22.6891  -19.6389  -14.8981 C   0  0  0  0  0  0  0  0  0  0  0  0
   21.8089  -20.2090  -13.7990 C   0  0  1  0  0  0  0  0  0  0  0  0
   21.6427  -21.5646  -14.0575 O   0  0  0  0  0  0  0  0  0  0  0  0
   22.4581  -20.0789  -12.4323 C   0  0  2  0  0  0  0  0  0  0  0  0
   23.6613  -20.8791  -12.4599 N   0  0  0  0  0  0  0  0  0  0  0  0
   21.4629  -20.5280  -11.4264 C   0  0  0  0  0  0  0  0  0  0  0  0
   20.4215  -19.8672  -11.2196 O   0  0  0  0  0  0  0  0  0  0  0  0
   21.6716  -21.6872  -10.7017 O   0  0  0  0  0  0  0  0  0  0  0  0
  2  1  1  6
  3  2  1  0
  4  3  1  0
  4  8  1  0
  5  6  1  0
  5  4  2  0
  6  7  1  0
  7  8  2  0
  9  2  1  0
 10  9  2  0
 11  9  1  0
 12 11  1  0
 12 13  1  1
 14 13  1  0
 15 14  2  0
 16 15  1  0
 17 18  1  0
 17 16  2  0
 18 19  2  0
 19 14  1  0
 20 12  1  0
 21 20  2  0
 23 22  1  6
 23 25  1  0
 24 23  1  0
 25 26  1  6
 26 20  1  0
 27 25  1  0
 27 29  1  0
 28 27  2  0
M  END
$$$$
