HFT.pdb
     RDKit          3D

 29 30  0  0  1  0  0  0  0  0999 V2000
   35.9577  -24.6363  -18.1391 N   0  0  0  0  0  0  0  0  0  0  0  0
   34.6379  -24.2424  -18.5353 C   0  0  1  0  0  0  0  0  0  0  0  0
   34.3765  -24.2535  -19.9993 C   0  0  0  0  0  0  0  0  0  0  0  0
   35.3456  -23.3143  -20.6642 C   0  0  0  0  0  0  0  0  0  0  0  0
   36.2203  -23.5842  -21.6928 C   0  0  0  0  0  0  0  0  0  0  0  0
   36.9119  -22.4579  -22.0170 N   0  0  0  0  0  0  0  0  0  0  0  0
   36.4638  -21.5205  -21.1981 C   0  0  0  0  0  0  0  0  0  0  0  0
   35.5067  -21.9965  -20.3549 N   0  0  0  0  0  0  0  0  0  0  0  0
   33.5811  -24.9137  -17.7283 C   0  0  0  0  0  0  0  0  0  0  0  0
   33.5138  -26.1545  -17.6813 O   0  0  0  0  0  0  0  0  0  0  0  0
   32.6562  -24.1385  -17.0233 N   0  0  0  0  0  0  0  0  0  0  0  0
   31.6176  -24.6307  -16.1446 C   0  0  1  0  0  0  0  0  0  0  0  0
   31.5807  -23.8792  -14.8750 C   0  0  0  0  0  0  0  0  0  0  0  0
   32.7351  -24.0147  -14.0082 C   0  0  0  0  0  0  0  0  0  0  0  0
   33.5944  -25.0787  -14.1086 C   0  0  0  0  0  0  0  0  0  0  0  0
   34.6993  -25.2176  -13.2737 C   0  0  0  0  0  0  0  0  0  0  0  0
   34.9495  -24.2701  -12.3195 C   0  0  0  0  0  0  0  0  0  0  0  0
   34.1057  -23.1735  -12.1803 C   0  0  0  0  0  0  0  0  0  0  0  0
   33.0056  -23.0754  -13.0435 C   0  0  0  0  0  0  0  0  0  0  0  0
   30.2884  -24.6207  -16.8396 C   0  0  0  0  0  0  0  0  0  0  0  0
   30.1957  -23.9315  -17.8859 O   0  0  0  0  0  0  0  0  0  0  0  0
   28.7374  -27.6250  -18.1463 C   0  0  0  0  0  0  0  0  0  0  0  0
   28.2798  -26.2025  -18.4199 C   0  0  1  0  0  0  0  0  0  0  0  0
   27.1230  -26.2758  -19.1870 O   0  0  0  0  0  0  0  0  0  0  0  0
   27.9342  -25.4651  -17.1381 C   0  0  2  0  0  0  0  0  0  0  0  0
   29.1606  -25.3322  -16.3851 N   0  0  0  0  0  0  0  0  0  0  0  0
   26.8871  -26.2553  -16.4429 C   0  0  0  0  0  0  0  0  0  0  0  0
   27.1202  -26.7902  -15.3368 O   0  0  0  0  0  0  0  0  0  0  0  0
   25.6346  -26.4113  -17.0080 O   0  0  0  0  0  0  0  0  0  0  0  0
  2  1  1  6
  3  2  1  0
  4  3  1  0
  4  8  1  0
  5  6  1  0
  5  4  2  0
  6  7  1  0
  7  8  2  0
  9  2  1  0
 10  9  2  0
 11  9  1  0
 12 11  1  0
 12 13  1  1
 14 13  1  0
 15 14  2  0
 16 15  1  0
 17 18  1  0
 17 16  2  0
 18 19  2  0
 19 14  1  0
 20 12  1  0
 21 20  2  0
 23 22  1  1
 23 25  1  0
 24 23  1  0
 25 26  1  1
 26 20  1  0
 27 25  1  0
 27 29  1  0
 28 27  2  0
M  END
$$$$
