HFT.pdb
     RDKit          3D

 29 30  0  0  1  0  0  0  0  0999 V2000
   27.0104  -37.8380  -10.5788 N   0  0  0  0  0  0  0  0  0  0  0  0
   26.3734  -37.1370   -9.5033 C   0  0  1  0  0  0  0  0  0  0  0  0
   25.1215  -37.7523   -8.9877 C   0  0  0  0  0  0  0  0  0  0  0  0
   24.0746  -37.6788  -10.0656 C   0  0  0  0  0  0  0  0  0  0  0  0
   23.8893  -38.5328  -11.1296 C   0  0  0  0  0  0  0  0  0  0  0  0
   22.8201  -38.1256  -11.8666 N   0  0  0  0  0  0  0  0  0  0  0  0
   22.3647  -37.0422  -11.2590 C   0  0  0  0  0  0  0  0  0  0  0  0
   23.0983  -36.7315  -10.1550 N   0  0  0  0  0  0  0  0  0  0  0  0
   27.3357  -36.7423   -8.4370 C   0  0  0  0  0  0  0  0  0  0  0  0
   28.2662  -37.5006   -8.1126 O   0  0  0  0  0  0  0  0  0  0  0  0
   27.1848  -35.5102   -7.7948 N   0  0  0  0  0  0  0  0  0  0  0  0
   28.0169  -34.9894   -6.7320 C   0  0  1  0  0  0  0  0  0  0  0  0
   28.2990  -33.5529   -6.9190 C   0  0  0  0  0  0  0  0  0  0  0  0
   27.1696  -32.7099   -7.2595 C   0  0  0  0  0  0  0  0  0  0  0  0
   26.3067  -32.2358   -6.3049 C   0  0  0  0  0  0  0  0  0  0  0  0
   25.2165  -31.4329   -6.6274 C   0  0  0  0  0  0  0  0  0  0  0  0
   24.9869  -31.0966   -7.9332 C   0  0  0  0  0  0  0  0  0  0  0  0
   25.8351  -31.5539   -8.9359 C   0  0  0  0  0  0  0  0  0  0  0  0
   26.9202  -32.3595   -8.5638 C   0  0  0  0  0  0  0  0  0  0  0  0
   27.4013  -35.2692   -5.3931 C   0  0  0  0  0  0  0  0  0  0  0  0
   26.1545  -35.1457   -5.3003 O   0  0  0  0  0  0  0  0  0  0  0  0
   27.0122  -38.2610   -3.4829 C   0  0  0  0  0  0  0  0  0  0  0  0
   27.7954  -37.3180   -2.5854 C   0  0  1  0  0  0  0  0  0  0  0  0
   29.1462  -37.5825   -2.7788 O   0  0  0  0  0  0  0  0  0  0  0  0
   27.5558  -35.8635   -2.9504 C   0  0  2  0  0  0  0  0  0  0  0  0
   28.1384  -35.6557   -4.2566 N   0  0  0  0  0  0  0  0  0  0  0  0
   28.1683  -35.0339   -1.8824 C   0  0  0  0  0  0  0  0  0  0  0  0
   29.1797  -34.3368   -2.1167 O   0  0  0  0  0  0  0  0  0  0  0  0
   27.6281  -35.0178   -0.6095 O   0  0  0  0  0  0  0  0  0  0  0  0
  2  1  1  6
  3  2  1  0
  4  3  1  0
  4  8  1  0
  5  6  1  0
  5  4  2  0
  6  7  1  0
  7  8  2  0
  9  2  1  0
 10  9  2  0
 11  9  1  0
 12 11  1  0
 12 13  1  6
 14 13  1  0
 15 14  2  0
 16 15  1  0
 17 18  1  0
 17 16  2  0
 18 19  2  0
 19 14  1  0
 20 12  1  0
 21 20  2  0
 23 22  1  6
 23 25  1  0
 24 23  1  0
 25 26  1  6
 26 20  1  0
 27 25  1  0
 27 29  1  0
 28 27  2  0
M  END
$$$$
