HFT.pdb
     RDKit          3D

 29 30  0  0  1  0  0  0  0  0999 V2000
   27.2950  -22.2420  -17.1433 N   0  0  0  0  0  0  0  0  0  0  0  0
   26.8762  -21.0953  -16.3926 C   0  0  1  0  0  0  0  0  0  0  0  0
   26.1759  -20.0388  -17.1707 C   0  0  0  0  0  0  0  0  0  0  0  0
   27.1156  -19.5207  -18.2251 C   0  0  0  0  0  0  0  0  0  0  0  0
   28.1478  -18.6217  -18.0756 C   0  0  0  0  0  0  0  0  0  0  0  0
   28.7673  -18.4283  -19.2718 N   0  0  0  0  0  0  0  0  0  0  0  0
   28.1211  -19.1977  -20.1324 C   0  0  0  0  0  0  0  0  0  0  0  0
   27.1056  -19.8835  -19.5391 N   0  0  0  0  0  0  0  0  0  0  0  0
   26.1869  -21.4692  -15.1262 C   0  0  0  0  0  0  0  0  0  0  0  0
   25.2423  -22.2777  -15.1352 O   0  0  0  0  0  0  0  0  0  0  0  0
   26.6057  -20.9004  -13.9202 N   0  0  0  0  0  0  0  0  0  0  0  0
   25.9478  -21.0273  -12.6380 C   0  0  1  0  0  0  0  0  0  0  0  0
   26.8100  -20.5547  -11.5373 C   0  0  0  0  0  0  0  0  0  0  0  0
   26.2370  -20.5875  -10.2058 C   0  0  0  0  0  0  0  0  0  0  0  0
   25.6030  -21.7014   -9.7181 C   0  0  0  0  0  0  0  0  0  0  0  0
   25.0443  -21.7353   -8.4437 C   0  0  0  0  0  0  0  0  0  0  0  0
   25.1238  -20.6309   -7.6407 C   0  0  0  0  0  0  0  0  0  0  0  0
   25.7571  -19.4781   -8.0924 C   0  0  0  0  0  0  0  0  0  0  0  0
   26.3053  -19.4904   -9.3825 C   0  0  0  0  0  0  0  0  0  0  0  0
   24.6226  -20.3248  -12.6519 C   0  0  0  0  0  0  0  0  0  0  0  0
   24.6394  -19.0751  -12.7798 O   0  0  0  0  0  0  0  0  0  0  0  0
   22.0659  -20.1827  -15.0027 C   0  0  0  0  0  0  0  0  0  0  0  0
   21.3626  -20.6910  -13.7557 C   0  0  1  0  0  0  0  0  0  0  0  0
   21.3416  -22.0791  -13.8242 O   0  0  0  0  0  0  0  0  0  0  0  0
   22.1090  -20.3053  -12.4907 C   0  0  2  0  0  0  0  0  0  0  0  0
   23.3839  -20.9848  -12.5303 N   0  0  0  0  0  0  0  0  0  0  0  0
   21.2574  -20.6962  -11.3392 C   0  0  0  0  0  0  0  0  0  0  0  0
   21.6043  -21.6227  -10.5742 O   0  0  0  0  0  0  0  0  0  0  0  0
   20.0654  -20.0396  -11.0931 O   0  0  0  0  0  0  0  0  0  0  0  0
  2  1  1  6
  3  2  1  0
  4  3  1  0
  4  8  1  0
  5  6  1  0
  5  4  2  0
  6  7  1  0
  7  8  2  0
  9  2  1  0
 10  9  2  0
 11  9  1  0
 12 11  1  0
 12 13  1  1
 14 13  1  0
 15 14  2  0
 16 15  1  0
 17 18  1  0
 17 16  2  0
 18 19  2  0
 19 14  1  0
 20 12  1  0
 21 20  2  0
 23 22  1  6
 23 25  1  0
 24 23  1  0
 25 26  1  1
 26 20  1  0
 27 25  1  0
 27 29  1  0
 28 27  2  0
M  END
$$$$
