HFT.pdb
     RDKit          3D

 29 30  0  0  1  0  0  0  0  0999 V2000
   18.9534  -13.2870  -18.0676 N   0  0  0  0  0  0  0  0  0  0  0  0
   19.0973  -11.9227  -18.4820 C   0  0  1  0  0  0  0  0  0  0  0  0
   18.2446  -11.5056  -19.6268 C   0  0  0  0  0  0  0  0  0  0  0  0
   18.4613  -12.4714  -20.7598 C   0  0  0  0  0  0  0  0  0  0  0  0
   19.4865  -12.4866  -21.6788 C   0  0  0  0  0  0  0  0  0  0  0  0
   19.3252  -13.5347  -22.5318 N   0  0  0  0  0  0  0  0  0  0  0  0
   18.2200  -14.1448  -22.1363 C   0  0  0  0  0  0  0  0  0  0  0  0
   17.6584  -13.5320  -21.0580 N   0  0  0  0  0  0  0  0  0  0  0  0
   19.0690  -10.9763  -17.3320 C   0  0  0  0  0  0  0  0  0  0  0  0
   18.0881  -10.9376  -16.5689 O   0  0  0  0  0  0  0  0  0  0  0  0
   20.1545  -10.1231  -17.1153 N   0  0  0  0  0  0  0  0  0  0  0  0
   20.2522   -9.1016  -16.0956 C   0  0  1  0  0  0  0  0  0  0  0  0
   21.6036   -9.0533  -15.5044 C   0  0  0  0  0  0  0  0  0  0  0  0
   21.8381   -8.0273  -14.5071 C   0  0  0  0  0  0  0  0  0  0  0  0
   21.5870   -8.2412  -13.1760 C   0  0  0  0  0  0  0  0  0  0  0  0
   21.8029   -7.2570  -12.2158 C   0  0  0  0  0  0  0  0  0  0  0  0
   22.2818   -6.0338  -12.5967 C   0  0  0  0  0  0  0  0  0  0  0  0
   22.5510   -5.7707  -13.9355 C   0  0  0  0  0  0  0  0  0  0  0  0
   22.3187   -6.7921  -14.8669 C   0  0  0  0  0  0  0  0  0  0  0  0
   19.8318   -7.7687  -16.6403 C   0  0  0  0  0  0  0  0  0  0  0  0
   20.4142   -7.3660  -17.6780 O   0  0  0  0  0  0  0  0  0  0  0  0
   16.5483   -6.3163  -17.7991 C   0  0  0  0  0  0  0  0  0  0  0  0
   17.0516   -5.4905  -16.6276 C   0  0  1  0  0  0  0  0  0  0  0  0
   16.4644   -5.9990  -15.4749 O   0  0  0  0  0  0  0  0  0  0  0  0
   18.5571   -5.6035  -16.4637 C   0  0  2  0  0  0  0  0  0  0  0  0
   18.8355   -6.9619  -16.0563 N   0  0  0  0  0  0  0  0  0  0  0  0
   18.9705   -4.5829  -15.4680 C   0  0  0  0  0  0  0  0  0  0  0  0
   19.3381   -4.9216  -14.3217 O   0  0  0  0  0  0  0  0  0  0  0  0
   18.9571   -3.2389  -15.7936 O   0  0  0  0  0  0  0  0  0  0  0  0
  2  1  1  1
  3  2  1  0
  4  3  1  0
  4  8  1  0
  5  6  1  0
  5  4  2  0
  6  7  1  0
  7  8  2  0
  9  2  1  0
 10  9  2  0
 11  9  1  0
 12 11  1  0
 12 13  1  6
 14 13  1  0
 15 14  2  0
 16 15  1  0
 17 18  1  0
 17 16  2  0
 18 19  2  0
 19 14  1  0
 20 12  1  0
 21 20  2  0
 23 22  1  6
 23 25  1  0
 24 23  1  0
 25 26  1  1
 26 20  1  0
 27 25  1  0
 27 29  1  0
 28 27  2  0
M  END
$$$$
