HFT.pdb
     RDKit          3D

 29 30  0  0  1  0  0  0  0  0999 V2000
   45.3676  -11.4184   -6.7193 N   0  0  0  0  0  0  0  0  0  0  0  0
   44.2514  -10.7071   -6.1697 C   0  0  1  0  0  0  0  0  0  0  0  0
   44.5767   -9.4197   -5.4999 C   0  0  0  0  0  0  0  0  0  0  0  0
   45.5078   -9.7010   -4.3522 C   0  0  0  0  0  0  0  0  0  0  0  0
   45.1832   -9.9734   -3.0421 C   0  0  0  0  0  0  0  0  0  0  0  0
   46.3176  -10.1861   -2.3210 N   0  0  0  0  0  0  0  0  0  0  0  0
   47.3137  -10.0448   -3.1801 C   0  0  0  0  0  0  0  0  0  0  0  0
   46.8678   -9.7488   -4.4320 N   0  0  0  0  0  0  0  0  0  0  0  0
   43.1109  -10.6198   -7.1240 C   0  0  0  0  0  0  0  0  0  0  0  0
   43.3119  -10.3995   -8.3311 O   0  0  0  0  0  0  0  0  0  0  0  0
   41.8051  -10.7828   -6.6534 N   0  0  0  0  0  0  0  0  0  0  0  0
   40.5897  -10.4453   -7.3620 C   0  0  1  0  0  0  0  0  0  0  0  0
   39.4047  -11.0520   -6.7250 C   0  0  0  0  0  0  0  0  0  0  0  0
   38.1123  -10.6476   -7.2432 C   0  0  0  0  0  0  0  0  0  0  0  0
   37.3386   -9.7110   -6.6072 C   0  0  0  0  0  0  0  0  0  0  0  0
   36.0938   -9.3253   -7.0962 C   0  0  0  0  0  0  0  0  0  0  0  0
   35.6151   -9.8883   -8.2471 C   0  0  0  0  0  0  0  0  0  0  0  0
   36.3643  -10.8426   -8.9267 C   0  0  0  0  0  0  0  0  0  0  0  0
   37.6121  -11.1997   -8.3970 C   0  0  0  0  0  0  0  0  0  0  0  0
   40.4523   -8.9578   -7.4974 C   0  0  0  0  0  0  0  0  0  0  0  0
   40.4800   -8.2825   -6.4384 O   0  0  0  0  0  0  0  0  0  0  0  0
   42.2909   -6.1427   -8.9333 C   0  0  0  0  0  0  0  0  0  0  0  0
   40.9677   -6.2135   -9.6762 C   0  0  1  0  0  0  0  0  0  0  0  0
   41.1735   -6.9679  -10.8254 O   0  0  0  0  0  0  0  0  0  0  0  0
   39.8969   -6.9105   -8.8555 C   0  0  2  0  0  0  0  0  0  0  0  0
   40.2963   -8.2938   -8.7300 N   0  0  0  0  0  0  0  0  0  0  0  0
   38.6056   -6.7217   -9.5632 C   0  0  0  0  0  0  0  0  0  0  0  0
   38.0654   -7.6724  -10.1701 O   0  0  0  0  0  0  0  0  0  0  0  0
   37.9778   -5.4895   -9.5614 O   0  0  0  0  0  0  0  0  0  0  0  0
  2  1  1  6
  3  2  1  0
  4  3  1  0
  4  8  1  0
  5  6  1  0
  5  4  2  0
  6  7  1  0
  7  8  2  0
  9  2  1  0
 10  9  2  0
 11  9  1  0
 12 11  1  0
 12 13  1  1
 14 13  1  0
 15 14  2  0
 16 15  1  0
 17 18  1  0
 17 16  2  0
 18 19  2  0
 19 14  1  0
 20 12  1  0
 21 20  2  0
 23 22  1  1
 23 25  1  0
 24 23  1  0
 25 26  1  6
 26 20  1  0
 27 25  1  0
 27 29  1  0
 28 27  2  0
M  END
$$$$
