IVV.pdb
     RDKit          3D

 23 22  0  0  1  0  0  0  0  0999 V2000
   18.0939  -15.1753  -20.5763 C   0  0  0  0  0  0  0  0  0  0  0  0
   19.1822  -14.9984  -19.5781 C   0  0  0  0  0  0  0  0  0  0  0  0
   19.0255  -13.8216  -18.6464 C   0  0  2  0  0  0  0  0  0  0  0  0
   18.7981  -12.6008  -19.4644 C   0  0  0  0  0  0  0  0  0  0  0  0
   20.1826  -13.7994  -17.7059 C   0  0  2  0  0  0  0  0  0  0  0  0
   20.1041  -15.0891  -16.9670 N   0  0  0  0  0  0  0  0  0  0  0  0
   20.2187  -12.7674  -16.6902 C   0  0  0  0  0  0  0  0  0  0  0  0
   19.2157  -12.6148  -15.9418 O   0  0  0  0  0  0  0  0  0  0  0  0
   22.5848   -9.6407  -13.7249 C   0  0  0  0  0  0  0  0  0  0  0  0
   22.5396  -10.7848  -14.6821 C   0  0  2  0  0  0  0  0  0  0  0  0
   23.6772  -10.7197  -15.6869 C   0  0  0  0  0  0  0  0  0  0  0  0
   21.2239  -10.7867  -15.4813 C   0  0  2  0  0  0  0  0  0  0  0  0
   21.2905  -11.8704  -16.4186 N   0  0  0  0  0  0  0  0  0  0  0  0
   20.9848   -9.4713  -16.0449 C   0  0  0  0  0  0  0  0  0  0  0  0
   21.6791   -9.1105  -17.0309 O   0  0  0  0  0  0  0  0  0  0  0  0
   17.3970   -7.3401  -15.4941 C   0  0  0  0  0  0  0  0  0  0  0  0
   18.3255   -7.1002  -16.6582 C   0  0  2  0  0  0  0  0  0  0  0  0
   18.0380   -8.1546  -17.7043 C   0  0  0  0  0  0  0  0  0  0  0  0
   19.7497   -7.2733  -16.2166 C   0  0  2  0  0  0  0  0  0  0  0  0
   20.0223   -8.5327  -15.5844 N   0  0  0  0  0  0  0  0  0  0  0  0
   20.1000   -6.1309  -15.3351 C   0  0  0  0  0  0  0  0  0  0  0  0
   20.2105   -6.3613  -14.0838 O   0  0  0  0  0  0  0  0  0  0  0  0
   20.3109   -4.8583  -15.7673 O   0  0  0  0  0  0  0  0  0  0  0  0
  2  3  1  0
  2  1  1  0
  3  4  1  6
  5  7  1  0
  5  3  1  0
  5  6  1  1
  7 13  1  0
  8  7  2  0
 10  9  1  1
 10 11  1  0
 10 12  1  0
 12 14  1  0
 12 13  1  6
 14 20  1  0
 14 15  2  0
 17 16  1  1
 17 19  1  0
 18 17  1  0
 19 21  1  0
 19 20  1  1
 21 22  2  0
 21 23  1  0
M  END
$$$$
