IVV.pdb
     RDKit          3D

 23 22  0  0  1  0  0  0  0  0999 V2000
   27.7400  -25.0992  -16.6839 C   0  0  0  0  0  0  0  0  0  0  0  0
   27.1083  -23.7551  -16.6043 C   0  0  0  0  0  0  0  0  0  0  0  0
   25.9610  -23.6319  -15.6316 C   0  0  2  0  0  0  0  0  0  0  0  0
   24.9905  -24.7242  -15.9080 C   0  0  0  0  0  0  0  0  0  0  0  0
   25.4397  -22.2357  -15.6818 C   0  0  2  0  0  0  0  0  0  0  0  0
   26.5905  -21.3796  -15.2841 N   0  0  0  0  0  0  0  0  0  0  0  0
   24.3573  -21.8772  -14.7886 C   0  0  0  0  0  0  0  0  0  0  0  0
   24.5731  -21.8620  -13.5465 O   0  0  0  0  0  0  0  0  0  0  0  0
   20.0675  -19.6724  -14.0565 C   0  0  0  0  0  0  0  0  0  0  0  0
   21.5170  -19.8289  -14.3754 C   0  0  2  0  0  0  0  0  0  0  0  0
   21.8242  -19.4137  -15.8041 C   0  0  0  0  0  0  0  0  0  0  0  0
   21.9633  -21.2939  -14.2197 C   0  0  2  0  0  0  0  0  0  0  0  0
   23.0279  -21.5218  -15.1536 N   0  0  0  0  0  0  0  0  0  0  0  0
   20.8169  -22.1758  -14.3335 C   0  0  0  0  0  0  0  0  0  0  0  0
   20.3025  -22.3405  -15.4705 O   0  0  0  0  0  0  0  0  0  0  0  0
   19.0834  -24.4896  -11.0511 C   0  0  0  0  0  0  0  0  0  0  0  0
   19.2176  -25.0004  -12.4640 C   0  0  2  0  0  0  0  0  0  0  0  0
   20.5827  -25.6386  -12.5976 C   0  0  0  0  0  0  0  0  0  0  0  0
   19.1559  -23.8513  -13.4280 C   0  0  2  0  0  0  0  0  0  0  0  0
   20.2073  -22.8880  -13.2654 N   0  0  0  0  0  0  0  0  0  0  0  0
   17.8152  -23.2239  -13.3104 C   0  0  0  0  0  0  0  0  0  0  0  0
   16.8173  -23.8683  -13.7791 O   0  0  0  0  0  0  0  0  0  0  0  0
   17.5770  -22.0125  -12.7390 O   0  0  0  0  0  0  0  0  0  0  0  0
  2  3  1  0
  2  1  1  0
  3  4  1  6
  5  7  1  0
  5  3  1  0
  5  6  1  1
  7 13  1  0
  8  7  2  0
 10  9  1  6
 10 11  1  0
 10 12  1  0
 12 14  1  0
 12 13  1  6
 14 20  1  0
 14 15  2  0
 17 16  1  1
 17 19  1  0
 18 17  1  0
 19 21  1  0
 19 20  1  1
 21 22  2  0
 21 23  1  0
M  END
$$$$
