IVV.pdb
     RDKit          3D

 23 22  0  0  1  0  0  0  0  0999 V2000
   28.9740  -17.3861  -18.5357 C   0  0  0  0  0  0  0  0  0  0  0  0
   28.8098  -18.4551  -17.5148 C   0  0  0  0  0  0  0  0  0  0  0  0
   27.4038  -18.9735  -17.3359 C   0  0  2  0  0  0  0  0  0  0  0  0
   26.5041  -17.8163  -17.0852 C   0  0  0  0  0  0  0  0  0  0  0  0
   27.4197  -20.0527  -16.3069 C   0  0  2  0  0  0  0  0  0  0  0  0
   28.3550  -21.0805  -16.8402 N   0  0  0  0  0  0  0  0  0  0  0  0
   26.1825  -20.7537  -16.0318 C   0  0  0  0  0  0  0  0  0  0  0  0
   25.5225  -21.2251  -16.9971 O   0  0  0  0  0  0  0  0  0  0  0  0
   25.0803  -22.1892  -12.2260 C   0  0  0  0  0  0  0  0  0  0  0  0
   24.5539  -22.7505  -13.5047 C   0  0  2  0  0  0  0  0  0  0  0  0
   25.5154  -23.7578  -14.1120 C   0  0  0  0  0  0  0  0  0  0  0  0
   24.3360  -21.6404  -14.5487 C   0  0  2  0  0  0  0  0  0  0  0  0
   25.5974  -20.9895  -14.7555 N   0  0  0  0  0  0  0  0  0  0  0  0
   23.2376  -20.7850  -14.1404 C   0  0  0  0  0  0  0  0  0  0  0  0
   23.4162  -20.0115  -13.1636 O   0  0  0  0  0  0  0  0  0  0  0  0
   20.0542  -19.6124  -16.6120 C   0  0  0  0  0  0  0  0  0  0  0  0
   20.4169  -18.8954  -15.3355 C   0  0  2  0  0  0  0  0  0  0  0  0
   21.5758  -17.9710  -15.6373 C   0  0  0  0  0  0  0  0  0  0  0  0
   20.8812  -19.8877  -14.3094 C   0  0  2  0  0  0  0  0  0  0  0  0
   21.9547  -20.7327  -14.7495 N   0  0  0  0  0  0  0  0  0  0  0  0
   19.7047  -20.6806  -13.8710 C   0  0  0  0  0  0  0  0  0  0  0  0
   18.7643  -20.0603  -13.2693 O   0  0  0  0  0  0  0  0  0  0  0  0
   19.5596  -22.0191  -14.0655 O   0  0  0  0  0  0  0  0  0  0  0  0
  2  3  1  0
  2  1  1  0
  3  4  1  1
  5  7  1  0
  5  3  1  0
  5  6  1  6
  7 13  1  0
  8  7  2  0
 10  9  1  1
 10 11  1  0
 10 12  1  0
 12 14  1  0
 12 13  1  1
 14 20  1  0
 14 15  2  0
 17 16  1  6
 17 19  1  0
 18 17  1  0
 19 21  1  0
 19 20  1  6
 21 22  2  0
 21 23  1  0
M  END
$$$$
