IVV.pdb
     RDKit          3D

 23 22  0  0  1  0  0  0  0  0999 V2000
   17.4615  -17.1049  -18.2542 C   0  0  0  0  0  0  0  0  0  0  0  0
   18.8821  -16.6796  -18.1401 C   0  0  0  0  0  0  0  0  0  0  0  0
   19.1290  -15.4566  -17.2910 C   0  0  2  0  0  0  0  0  0  0  0  0
   18.2709  -14.3521  -17.7961 C   0  0  0  0  0  0  0  0  0  0  0  0
   20.5971  -15.2011  -17.2364 C   0  0  2  0  0  0  0  0  0  0  0  0
   21.1845  -16.4454  -16.6685 N   0  0  0  0  0  0  0  0  0  0  0  0
   21.0729  -14.1232  -16.3940 C   0  0  0  0  0  0  0  0  0  0  0  0
   20.7277  -14.1005  -15.1817 O   0  0  0  0  0  0  0  0  0  0  0  0
   24.2862  -11.7260  -17.4073 C   0  0  0  0  0  0  0  0  0  0  0  0
   23.8204  -11.8122  -15.9921 C   0  0  2  0  0  0  0  0  0  0  0  0
   24.4206  -13.0106  -15.2769 C   0  0  0  0  0  0  0  0  0  0  0  0
   22.2896  -11.9573  -15.9207 C   0  0  2  0  0  0  0  0  0  0  0  0
   21.9192  -13.0450  -16.7793 N   0  0  0  0  0  0  0  0  0  0  0  0
   21.6574  -10.6817  -16.2004 C   0  0  0  0  0  0  0  0  0  0  0  0
   21.5091  -10.3414  -17.4031 O   0  0  0  0  0  0  0  0  0  0  0  0
   18.5844   -7.0308  -15.3831 C   0  0  0  0  0  0  0  0  0  0  0  0
   19.1312   -8.3964  -15.0499 C   0  0  2  0  0  0  0  0  0  0  0  0
   19.1543   -8.5307  -13.5432 C   0  0  0  0  0  0  0  0  0  0  0  0
   20.5459   -8.5107  -15.5389 C   0  0  2  0  0  0  0  0  0  0  0  0
   21.1776   -9.7617  -15.2293 N   0  0  0  0  0  0  0  0  0  0  0  0
   21.3138   -7.3607  -14.9981 C   0  0  0  0  0  0  0  0  0  0  0  0
   22.0653   -7.5738  -13.9877 O   0  0  0  0  0  0  0  0  0  0  0  0
   21.2724   -6.0983  -15.5034 O   0  0  0  0  0  0  0  0  0  0  0  0
  2  3  1  0
  2  1  1  0
  3  4  1  6
  5  7  1  0
  5  3  1  0
  5  6  1  1
  7 13  1  0
  8  7  2  0
 10  9  1  6
 10 11  1  0
 10 12  1  0
 12 14  1  0
 12 13  1  6
 14 20  1  0
 14 15  2  0
 17 16  1  1
 17 19  1  0
 18 17  1  0
 19 21  1  0
 19 20  1  1
 21 22  2  0
 21 23  1  0
M  END
$$$$
