IVV.pdb
     RDKit          3D

 23 22  0  0  1  0  0  0  0  0999 V2000
   20.1599  -18.5958  -16.3636 C   0  0  0  0  0  0  0  0  0  0  0  0
   21.2367  -18.9225  -15.3912 C   0  0  0  0  0  0  0  0  0  0  0  0
   20.8334  -19.8287  -14.2538 C   0  0  2  0  0  0  0  0  0  0  0  0
   19.5698  -19.3110  -13.6652 C   0  0  0  0  0  0  0  0  0  0  0  0
   21.9949  -19.9840  -13.3316 C   0  0  2  0  0  0  0  0  0  0  0  0
   23.0664  -20.6004  -14.1608 N   0  0  0  0  0  0  0  0  0  0  0  0
   21.8433  -20.8499  -12.1805 C   0  0  0  0  0  0  0  0  0  0  0  0
   21.4774  -22.0429  -12.3604 O   0  0  0  0  0  0  0  0  0  0  0  0
   22.5956  -21.7529   -7.3408 C   0  0  0  0  0  0  0  0  0  0  0  0
   22.7140  -20.8642   -8.5338 C   0  0  2  0  0  0  0  0  0  0  0  0
   22.2068  -19.4625   -8.2405 C   0  0  0  0  0  0  0  0  0  0  0  0
   21.8911  -21.4098   -9.7148 C   0  0  2  0  0  0  0  0  0  0  0  0
   22.0688  -20.5088  -10.8167 N   0  0  0  0  0  0  0  0  0  0  0  0
   20.5211  -21.6433   -9.2980 C   0  0  0  0  0  0  0  0  0  0  0  0
   19.6904  -20.7069   -9.4299 O   0  0  0  0  0  0  0  0  0  0  0  0
   16.5212  -24.2627   -8.8089 C   0  0  0  0  0  0  0  0  0  0  0  0
   17.9292  -24.0441   -9.3037 C   0  0  2  0  0  0  0  0  0  0  0  0
   18.6598  -25.3662   -9.2195 C   0  0  0  0  0  0  0  0  0  0  0  0
   18.6389  -23.0737   -8.4049 C   0  0  2  0  0  0  0  0  0  0  0  0
   20.0151  -22.8514   -8.7465 N   0  0  0  0  0  0  0  0  0  0  0  0
   18.4920  -23.5502   -7.0062 C   0  0  0  0  0  0  0  0  0  0  0  0
   17.3370  -23.4599   -6.4687 O   0  0  0  0  0  0  0  0  0  0  0  0
   19.5005  -24.0752   -6.2593 O   0  0  0  0  0  0  0  0  0  0  0  0
  2  3  1  0
  2  1  1  0
  3  4  1  1
  5  7  1  0
  5  3  1  0
  5  6  1  6
  7 13  1  0
  8  7  2  0
 10  9  1  1
 10 11  1  0
 10 12  1  0
 12 14  1  0
 12 13  1  6
 14 20  1  0
 14 15  2  0
 17 16  1  1
 17 19  1  0
 18 17  1  0
 19 21  1  0
 19 20  1  6
 21 22  2  0
 21 23  1  0
M  END
$$$$
