IVV.pdb
     RDKit          3D

 23 22  0  0  1  0  0  0  0  0999 V2000
   21.2643  -20.2178  -13.2643 C   0  0  0  0  0  0  0  0  0  0  0  0
   22.7334  -20.3344  -13.4646 C   0  0  0  0  0  0  0  0  0  0  0  0
   23.4798  -21.0814  -12.3866 C   0  0  2  0  0  0  0  0  0  0  0  0
   22.5632  -22.0904  -11.7924 C   0  0  0  0  0  0  0  0  0  0  0  0
   24.0905  -20.0909  -11.4540 C   0  0  2  0  0  0  0  0  0  0  0  0
   24.8296  -19.1410  -12.3298 N   0  0  0  0  0  0  0  0  0  0  0  0
   25.0586  -20.5676  -10.4879 C   0  0  0  0  0  0  0  0  0  0  0  0
   24.6476  -21.1832   -9.4673 O   0  0  0  0  0  0  0  0  0  0  0  0
   29.7205  -21.7085   -9.2632 C   0  0  0  0  0  0  0  0  0  0  0  0
   28.7678  -21.0225  -10.1844 C   0  0  2  0  0  0  0  0  0  0  0  0
   29.2491  -19.6292  -10.5519 C   0  0  0  0  0  0  0  0  0  0  0  0
   27.3811  -20.8697   -9.5338 C   0  0  2  0  0  0  0  0  0  0  0  0
   26.4738  -20.4251  -10.5520 N   0  0  0  0  0  0  0  0  0  0  0  0
   27.4767  -20.0290   -8.3552 C   0  0  0  0  0  0  0  0  0  0  0  0
   27.1731  -18.8124   -8.4650 O   0  0  0  0  0  0  0  0  0  0  0  0
   29.1900  -21.2230   -4.5458 C   0  0  0  0  0  0  0  0  0  0  0  0
   27.9591  -20.3530   -4.5990 C   0  0  2  0  0  0  0  0  0  0  0  0
   26.7491  -21.2597   -4.5494 C   0  0  0  0  0  0  0  0  0  0  0  0
   27.9179  -19.6096   -5.9025 C   0  0  2  0  0  0  0  0  0  0  0  0
   27.8859  -20.4543   -7.0624 N   0  0  0  0  0  0  0  0  0  0  0  0
   29.0723  -18.6763   -5.9363 C   0  0  0  0  0  0  0  0  0  0  0  0
   30.0714  -18.9974   -6.6640 O   0  0  0  0  0  0  0  0  0  0  0  0
   29.1390  -17.5053   -5.2473 O   0  0  0  0  0  0  0  0  0  0  0  0
  2  3  1  0
  2  1  1  0
  3  4  1  1
  5  7  1  0
  5  3  1  0
  5  6  1  6
  7 13  1  0
  8  7  2  0
 10  9  1  1
 10 11  1  0
 10 12  1  0
 12 14  1  0
 12 13  1  6
 14 20  1  0
 14 15  2  0
 17 16  1  6
 17 19  1  0
 18 17  1  0
 19 21  1  0
 19 20  1  6
 21 22  2  0
 21 23  1  0
M  END
$$$$
