IVV.pdb
     RDKit          3D

 23 22  0  0  1  0  0  0  0  0999 V2000
   20.6748  -20.2719  -12.6713 C   0  0  0  0  0  0  0  0  0  0  0  0
   22.1449  -20.2148  -12.8892 C   0  0  0  0  0  0  0  0  0  0  0  0
   22.9877  -20.8487  -11.8097 C   0  0  2  0  0  0  0  0  0  0  0  0
   22.5085  -20.3588  -10.4900 C   0  0  0  0  0  0  0  0  0  0  0  0
   24.4261  -20.6238  -12.1326 C   0  0  2  0  0  0  0  0  0  0  0  0
   24.6614  -21.3793  -13.3933 N   0  0  0  0  0  0  0  0  0  0  0  0
   25.4206  -21.1049  -11.1959 C   0  0  0  0  0  0  0  0  0  0  0  0
   25.3912  -22.3156  -10.8455 O   0  0  0  0  0  0  0  0  0  0  0  0
   29.2591  -19.6312  -10.5932 C   0  0  0  0  0  0  0  0  0  0  0  0
   28.7471  -20.9593  -10.1447 C   0  0  2  0  0  0  0  0  0  0  0  0
   28.6753  -21.9493  -11.2948 C   0  0  0  0  0  0  0  0  0  0  0  0
   27.3290  -20.8370   -9.5584 C   0  0  2  0  0  0  0  0  0  0  0  0
   26.4719  -20.3513  -10.6009 N   0  0  0  0  0  0  0  0  0  0  0  0
   27.3624  -20.0470   -8.3419 C   0  0  0  0  0  0  0  0  0  0  0  0
   26.7819  -18.9301   -8.3407 O   0  0  0  0  0  0  0  0  0  0  0  0
   26.6037  -21.0717   -4.5652 C   0  0  0  0  0  0  0  0  0  0  0  0
   27.9427  -20.3839   -4.6607 C   0  0  2  0  0  0  0  0  0  0  0  0
   28.0376  -19.3955   -3.5194 C   0  0  0  0  0  0  0  0  0  0  0  0
   28.0253  -19.6081   -5.9431 C   0  0  2  0  0  0  0  0  0  0  0  0
   27.9973  -20.4199   -7.1264 N   0  0  0  0  0  0  0  0  0  0  0  0
   29.2427  -18.7596   -5.8897 C   0  0  0  0  0  0  0  0  0  0  0  0
   30.2719  -19.1607   -6.5307 O   0  0  0  0  0  0  0  0  0  0  0  0
   29.3375  -17.5870   -5.2065 O   0  0  0  0  0  0  0  0  0  0  0  0
  2  3  1  0
  2  1  1  0
  3  4  1  1
  5  7  1  0
  5  3  1  0
  5  6  1  6
  7 13  1  0
  8  7  2  0
 10  9  1  6
 10 11  1  0
 10 12  1  0
 12 14  1  0
 12 13  1  6
 14 20  1  0
 14 15  2  0
 17 16  1  6
 17 19  1  0
 18 17  1  0
 19 21  1  0
 19 20  1  6
 21 22  2  0
 21 23  1  0
M  END
$$$$
