GFT.pdb
     RDKit          3D

 23 23  0  0  1  0  0  0  0  0999 V2000
   23.5311   -9.7851  -21.1622 N   0  0  0  0  0  0  0  0  0  0  0  0
   24.3498   -9.0046  -20.2583 C   0  0  0  0  0  0  0  0  0  0  0  0
   23.6325   -8.8965  -18.9614 C   0  0  0  0  0  0  0  0  0  0  0  0
   22.8177   -9.8069  -18.6100 O   0  0  0  0  0  0  0  0  0  0  0  0
   23.8244   -7.8101  -18.0976 N   0  0  0  0  0  0  0  0  0  0  0  0
   23.1691   -7.7222  -16.7830 C   0  0  1  0  0  0  0  0  0  0  0  0
   24.2580   -7.3960  -15.8059 C   0  0  0  0  0  0  0  0  0  0  0  0
   25.2611   -8.4559  -15.6286 C   0  0  0  0  0  0  0  0  0  0  0  0
   24.9164   -9.5252  -14.7971 C   0  0  0  0  0  0  0  0  0  0  0  0
   25.7843  -10.5712  -14.5667 C   0  0  0  0  0  0  0  0  0  0  0  0
   27.0118  -10.5607  -15.1670 C   0  0  0  0  0  0  0  0  0  0  0  0
   27.3531   -9.5094  -15.9858 C   0  0  0  0  0  0  0  0  0  0  0  0
   26.4847   -8.4605  -16.2178 C   0  0  0  0  0  0  0  0  0  0  0  0
   22.1177   -6.6927  -16.8300 C   0  0  0  0  0  0  0  0  0  0  0  0
   22.3785   -5.5736  -17.2977 O   0  0  0  0  0  0  0  0  0  0  0  0
   17.3653   -5.5903  -17.0743 C   0  0  0  0  0  0  0  0  0  0  0  0
   18.4766   -6.6368  -17.0291 C   0  0  1  0  0  0  0  0  0  0  0  0
   18.6827   -7.0356  -18.3497 O   0  0  0  0  0  0  0  0  0  0  0  0
   19.7322   -6.0345  -16.4349 C   0  0  2  0  0  0  0  0  0  0  0  0
   20.8128   -6.9606  -16.3491 N   0  0  0  0  0  0  0  0  0  0  0  0
   19.4532   -5.3422  -15.1524 C   0  0  0  0  0  0  0  0  0  0  0  0
   19.0355   -4.1480  -15.1034 O   0  0  0  0  0  0  0  0  0  0  0  0
   19.6379   -5.9752  -13.9323 O   0  0  0  0  0  0  0  0  0  0  0  0
  2  1  1  0
  2  3  1  0
  3  5  1  0
  3  4  2  0
  5  6  1  0
  6  7  1  1
  6 14  1  0
  8  9  2  0
  8  7  1  0
 10  9  1  0
 11 10  2  0
 12 11  1  0
 12 13  2  0
 13  8  1  0
 14 20  1  0
 15 14  2  0
 17 16  1  6
 17 18  1  0
 19 21  1  0
 19 17  1  0
 19 20  1  1
 21 23  1  0
 22 21  2  0
M  END
$$$$
