GFT.pdb
     RDKit          3D

 23 23  0  0  1  0  0  0  0  0999 V2000
   27.5132  -23.3029  -17.3494 N   0  0  0  0  0  0  0  0  0  0  0  0
   27.7528  -22.1132  -16.5597 C   0  0  0  0  0  0  0  0  0  0  0  0
   26.8585  -22.1577  -15.3737 C   0  0  0  0  0  0  0  0  0  0  0  0
   25.8252  -22.8981  -15.3866 O   0  0  0  0  0  0  0  0  0  0  0  0
   27.1169  -21.4012  -14.2229 N   0  0  0  0  0  0  0  0  0  0  0  0
   26.2065  -21.3878  -13.0669 C   0  0  1  0  0  0  0  0  0  0  0  0
   27.0349  -20.9388  -11.9011 C   0  0  0  0  0  0  0  0  0  0  0  0
   26.2900  -20.7807  -10.6437 C   0  0  0  0  0  0  0  0  0  0  0  0
   27.0222  -20.4060   -9.5135 C   0  0  0  0  0  0  0  0  0  0  0  0
   26.4187  -20.2287   -8.2869 C   0  0  0  0  0  0  0  0  0  0  0  0
   25.0710  -20.4245   -8.1749 C   0  0  0  0  0  0  0  0  0  0  0  0
   24.3485  -20.7931   -9.2857 C   0  0  0  0  0  0  0  0  0  0  0  0
   24.9515  -20.9713  -10.5157 C   0  0  0  0  0  0  0  0  0  0  0  0
   25.0775  -20.4849  -13.3457 C   0  0  0  0  0  0  0  0  0  0  0  0
   25.2927  -19.2781  -13.5365 O   0  0  0  0  0  0  0  0  0  0  0  0
   23.3834  -19.7098  -15.9978 C   0  0  0  0  0  0  0  0  0  0  0  0
   22.2102  -20.1570  -15.1285 C   0  0  1  0  0  0  0  0  0  0  0  0
   21.8811  -21.4422  -15.5589 O   0  0  0  0  0  0  0  0  0  0  0  0
   22.6149  -20.1531  -13.6695 C   0  0  2  0  0  0  0  0  0  0  0  0
   23.7492  -20.9733  -13.3994 N   0  0  0  0  0  0  0  0  0  0  0  0
   21.4617  -20.4403  -12.7809 C   0  0  0  0  0  0  0  0  0  0  0  0
   21.4313  -21.4468  -12.0134 O   0  0  0  0  0  0  0  0  0  0  0  0
   20.3495  -19.6125  -12.7469 O   0  0  0  0  0  0  0  0  0  0  0  0
  2  1  1  0
  2  3  1  0
  3  5  1  0
  3  4  2  0
  5  6  1  0
  6  7  1  1
  6 14  1  0
  8  9  2  0
  8  7  1  0
 10  9  1  0
 11 10  2  0
 12 11  1  0
 12 13  2  0
 13  8  1  0
 14 20  1  0
 15 14  2  0
 17 16  1  6
 17 18  1  0
 19 21  1  0
 19 17  1  0
 19 20  1  6
 21 23  1  0
 22 21  2  0
M  END
$$$$
