GFT.pdb
     RDKit          3D

 23 23  0  0  1  0  0  0  0  0999 V2000
   31.1363  -22.0185  -10.5781 N   0  0  0  0  0  0  0  0  0  0  0  0
   30.5705  -20.7652  -10.1247 C   0  0  0  0  0  0  0  0  0  0  0  0
   29.1725  -21.0196   -9.6897 C   0  0  0  0  0  0  0  0  0  0  0  0
   28.6667  -22.1776   -9.8278 O   0  0  0  0  0  0  0  0  0  0  0  0
   28.3786  -20.0133   -9.1237 N   0  0  0  0  0  0  0  0  0  0  0  0
   26.9710  -20.2328   -8.7553 C   0  0  1  0  0  0  0  0  0  0  0  0
   26.7297  -19.3835   -7.5439 C   0  0  0  0  0  0  0  0  0  0  0  0
   27.5614  -19.7237   -6.3805 C   0  0  0  0  0  0  0  0  0  0  0  0
   28.5584  -18.8116   -6.0229 C   0  0  0  0  0  0  0  0  0  0  0  0
   29.3905  -19.0347   -4.9467 C   0  0  0  0  0  0  0  0  0  0  0  0
   29.2353  -20.1765   -4.2123 C   0  0  0  0  0  0  0  0  0  0  0  0
   28.2549  -21.0755   -4.5623 C   0  0  0  0  0  0  0  0  0  0  0  0
   27.4201  -20.8536   -5.6404 C   0  0  0  0  0  0  0  0  0  0  0  0
   26.1071  -19.8665   -9.8898 C   0  0  0  0  0  0  0  0  0  0  0  0
   26.4748  -18.9811  -10.6772 O   0  0  0  0  0  0  0  0  0  0  0  0
   25.1240  -22.6559  -12.1532 C   0  0  0  0  0  0  0  0  0  0  0  0
   24.9374  -21.1712  -12.4585 C   0  0  1  0  0  0  0  0  0  0  0  0
   24.2360  -21.1118  -13.6626 O   0  0  0  0  0  0  0  0  0  0  0  0
   24.1653  -20.5048  -11.3395 C   0  0  2  0  0  0  0  0  0  0  0  0
   24.8624  -20.5099  -10.0959 N   0  0  0  0  0  0  0  0  0  0  0  0
   22.7833  -21.0352  -11.2366 C   0  0  0  0  0  0  0  0  0  0  0  0
   22.3444  -21.5843  -10.1835 O   0  0  0  0  0  0  0  0  0  0  0  0
   21.8956  -20.9550  -12.2992 O   0  0  0  0  0  0  0  0  0  0  0  0
  2  1  1  0
  2  3  1  0
  3  5  1  0
  3  4  2  0
  5  6  1  0
  6  7  1  1
  6 14  1  0
  8  9  2  0
  8  7  1  0
 10  9  1  0
 11 10  2  0
 12 11  1  0
 12 13  2  0
 13  8  1  0
 14 20  1  0
 15 14  2  0
 17 16  1  1
 17 18  1  0
 19 21  1  0
 19 17  1  0
 19 20  1  1
 21 23  1  0
 22 21  2  0
M  END
$$$$
