GFT.pdb
     RDKit          3D

 23 23  0  0  1  0  0  0  0  0999 V2000
   24.6721  -34.9603  -17.5273 N   0  0  0  0  0  0  0  0  0  0  0  0
   24.2019  -33.8171  -16.7732 C   0  0  0  0  0  0  0  0  0  0  0  0
   24.4271  -34.0907  -15.3301 C   0  0  0  0  0  0  0  0  0  0  0  0
   24.9506  -35.1910  -14.9679 O   0  0  0  0  0  0  0  0  0  0  0  0
   24.0780  -33.1650  -14.3379 N   0  0  0  0  0  0  0  0  0  0  0  0
   24.3090  -33.4179  -12.9068 C   0  0  1  0  0  0  0  0  0  0  0  0
   24.5520  -32.0738  -12.2895 C   0  0  0  0  0  0  0  0  0  0  0  0
   24.8252  -32.1020  -10.8454 C   0  0  0  0  0  0  0  0  0  0  0  0
   26.0651  -32.6061  -10.4424 C   0  0  0  0  0  0  0  0  0  0  0  0
   26.4207  -32.6736   -9.1123 C   0  0  0  0  0  0  0  0  0  0  0  0
   25.5377  -32.2365   -8.1654 C   0  0  0  0  0  0  0  0  0  0  0  0
   24.3170  -31.7400   -8.5597 C   0  0  0  0  0  0  0  0  0  0  0  0
   23.9590  -31.6716   -9.8921 C   0  0  0  0  0  0  0  0  0  0  0  0
   23.1373  -34.1036  -12.3373 C   0  0  0  0  0  0  0  0  0  0  0  0
   21.9972  -33.7289  -12.6518 O   0  0  0  0  0  0  0  0  0  0  0  0
   21.7317  -37.2214  -12.8999 C   0  0  0  0  0  0  0  0  0  0  0  0
   22.0227  -37.2854  -11.4021 C   0  0  1  0  0  0  0  0  0  0  0  0
   23.1921  -38.0340  -11.2696 O   0  0  0  0  0  0  0  0  0  0  0  0
   22.1996  -35.8875  -10.8480 C   0  0  2  0  0  0  0  0  0  0  0  0
   23.2919  -35.1848  -11.4357 N   0  0  0  0  0  0  0  0  0  0  0  0
   22.2352  -35.8872   -9.3646 C   0  0  0  0  0  0  0  0  0  0  0  0
   23.2867  -35.6205   -8.7117 O   0  0  0  0  0  0  0  0  0  0  0  0
   21.1077  -36.1819   -8.6127 O   0  0  0  0  0  0  0  0  0  0  0  0
  2  1  1  0
  2  3  1  0
  3  5  1  0
  3  4  2  0
  5  6  1  0
  6  7  1  1
  6 14  1  0
  8  9  2  0
  8  7  1  0
 10  9  1  0
 11 10  2  0
 12 11  1  0
 12 13  2  0
 13  8  1  0
 14 20  1  0
 15 14  2  0
 17 16  1  6
 17 18  1  0
 19 21  1  0
 19 17  1  0
 19 20  1  6
 21 23  1  0
 22 21  2  0
M  END
$$$$
