GFT.pdb
     RDKit          3D

 23 23  0  0  1  0  0  0  0  0999 V2000
   31.2285  -22.5021  -10.1787 N   0  0  0  0  0  0  0  0  0  0  0  0
   30.6807  -21.1779   -9.9715 C   0  0  0  0  0  0  0  0  0  0  0  0
   29.2294  -21.3175   -9.6845 C   0  0  0  0  0  0  0  0  0  0  0  0
   28.6552  -22.4391   -9.8530 O   0  0  0  0  0  0  0  0  0  0  0  0
   28.4582  -20.2407   -9.2274 N   0  0  0  0  0  0  0  0  0  0  0  0
   27.0349  -20.3806   -8.8811 C   0  0  1  0  0  0  0  0  0  0  0  0
   26.7884  -19.4060   -7.7693 C   0  0  0  0  0  0  0  0  0  0  0  0
   27.5503  -19.6715   -6.5404 C   0  0  0  0  0  0  0  0  0  0  0  0
   27.2494  -20.8473   -5.8471 C   0  0  0  0  0  0  0  0  0  0  0  0
   27.9076  -21.1905   -4.6855 C   0  0  0  0  0  0  0  0  0  0  0  0
   28.8781  -20.3593   -4.2012 C   0  0  0  0  0  0  0  0  0  0  0  0
   29.1758  -19.2017   -4.8819 C   0  0  0  0  0  0  0  0  0  0  0  0
   28.5174  -18.8562   -6.0460 C   0  0  0  0  0  0  0  0  0  0  0  0
   26.2140  -20.1067  -10.0721 C   0  0  0  0  0  0  0  0  0  0  0  0
   26.4391  -19.0921  -10.7496 O   0  0  0  0  0  0  0  0  0  0  0  0
   26.1504  -21.4438  -13.1636 C   0  0  0  0  0  0  0  0  0  0  0  0
   24.6917  -21.6600  -12.7668 C   0  0  1  0  0  0  0  0  0  0  0  0
   24.5804  -23.0095  -12.4325 O   0  0  0  0  0  0  0  0  0  0  0  0
   24.3366  -20.7722  -11.5928 C   0  0  2  0  0  0  0  0  0  0  0  0
   25.1708  -20.9842  -10.4563 N   0  0  0  0  0  0  0  0  0  0  0  0
   22.8887  -20.8381  -11.2750 C   0  0  0  0  0  0  0  0  0  0  0  0
   22.4591  -21.2082  -10.1430 O   0  0  0  0  0  0  0  0  0  0  0  0
   21.9251  -20.4942  -12.2113 O   0  0  0  0  0  0  0  0  0  0  0  0
  2  1  1  0
  2  3  1  0
  3  5  1  0
  3  4  2  0
  5  6  1  0
  6  7  1  1
  6 14  1  0
  8  9  2  0
  8  7  1  0
 10  9  1  0
 11 10  2  0
 12 11  1  0
 12 13  2  0
 13  8  1  0
 14 20  1  0
 15 14  2  0
 17 16  1  1
 17 18  1  0
 19 21  1  0
 19 17  1  0
 19 20  1  1
 21 23  1  0
 22 21  2  0
M  END
$$$$
