GFT.pdb
     RDKit          3D

 23 23  0  0  1  0  0  0  0  0999 V2000
   22.4696    3.0539   -2.1671 N   0  0  0  0  0  0  0  0  0  0  0  0
   22.4192    3.5712   -3.5186 C   0  0  0  0  0  0  0  0  0  0  0  0
   23.7240    3.2879   -4.1710 C   0  0  0  0  0  0  0  0  0  0  0  0
   24.7935    3.7762   -3.6875 O   0  0  0  0  0  0  0  0  0  0  0  0
   23.8200    2.4894   -5.3183 N   0  0  0  0  0  0  0  0  0  0  0  0
   25.1079    2.1842   -5.9614 C   0  0  1  0  0  0  0  0  0  0  0  0
   25.2520    0.6935   -5.8978 C   0  0  0  0  0  0  0  0  0  0  0  0
   26.4978    0.1721   -6.4784 C   0  0  0  0  0  0  0  0  0  0  0  0
   27.6226    0.1433   -5.6491 C   0  0  0  0  0  0  0  0  0  0  0  0
   28.8383   -0.3291   -6.0954 C   0  0  0  0  0  0  0  0  0  0  0  0
   28.9446   -0.7800   -7.3810 C   0  0  0  0  0  0  0  0  0  0  0  0
   27.8390   -0.7526   -8.1988 C   0  0  0  0  0  0  0  0  0  0  0  0
   26.6200   -0.2796   -7.7532 C   0  0  0  0  0  0  0  0  0  0  0  0
   25.0980    2.6979   -7.3411 C   0  0  0  0  0  0  0  0  0  0  0  0
   24.0761    2.5713   -8.0331 O   0  0  0  0  0  0  0  0  0  0  0  0
   27.3237    5.4292  -10.8425 C   0  0  0  0  0  0  0  0  0  0  0  0
   27.3753    4.8836   -9.4171 C   0  0  1  0  0  0  0  0  0  0  0  0
   27.1739    5.9798   -8.5786 O   0  0  0  0  0  0  0  0  0  0  0  0
   26.2975    3.8380   -9.2228 C   0  0  2  0  0  0  0  0  0  0  0  0
   26.2376    3.3345   -7.8904 N   0  0  0  0  0  0  0  0  0  0  0  0
   26.3811    2.7686  -10.2481 C   0  0  0  0  0  0  0  0  0  0  0  0
   27.3226    1.9223  -10.2698 O   0  0  0  0  0  0  0  0  0  0  0  0
   25.4230    2.6421  -11.2428 O   0  0  0  0  0  0  0  0  0  0  0  0
  2  1  1  0
  2  3  1  0
  3  5  1  0
  3  4  2  0
  5  6  1  0
  6  7  1  6
  6 14  1  0
  8  9  2  0
  8  7  1  0
 10  9  1  0
 11 10  2  0
 12 11  1  0
 12 13  2  0
 13  8  1  0
 14 20  1  0
 15 14  2  0
 17 16  1  6
 17 18  1  0
 19 21  1  0
 19 17  1  0
 19 20  1  1
 21 23  1  0
 22 21  2  0
M  END
$$$$
