GFT.pdb
     RDKit          3D

 23 23  0  0  1  0  0  0  0  0999 V2000
   26.7061  -22.1851  -15.4983 N   0  0  0  0  0  0  0  0  0  0  0  0
   26.5181  -20.9008  -14.8565 C   0  0  0  0  0  0  0  0  0  0  0  0
   25.0593  -20.6250  -14.7925 C   0  0  0  0  0  0  0  0  0  0  0  0
   24.6449  -19.5024  -14.3638 O   0  0  0  0  0  0  0  0  0  0  0  0
   24.1085  -21.5726  -15.1941 N   0  0  0  0  0  0  0  0  0  0  0  0
   22.6807  -21.2460  -15.3362 C   0  0  1  0  0  0  0  0  0  0  0  0
   22.3207  -21.5985  -16.7479 C   0  0  0  0  0  0  0  0  0  0  0  0
   22.6875  -20.5838  -17.7463 C   0  0  0  0  0  0  0  0  0  0  0  0
   23.9939  -20.6224  -18.2420 C   0  0  0  0  0  0  0  0  0  0  0  0
   24.4375  -19.7177  -19.1828 C   0  0  0  0  0  0  0  0  0  0  0  0
   23.5773  -18.7600  -19.6411 C   0  0  0  0  0  0  0  0  0  0  0  0
   22.2913  -18.7202  -19.1547 C   0  0  0  0  0  0  0  0  0  0  0  0
   21.8450  -19.6259  -18.2121 C   0  0  0  0  0  0  0  0  0  0  0  0
   21.9051  -22.0071  -14.3428 C   0  0  0  0  0  0  0  0  0  0  0  0
   22.2619  -23.1556  -14.0382 O   0  0  0  0  0  0  0  0  0  0  0  0
   18.8030  -21.9533  -10.5347 C   0  0  0  0  0  0  0  0  0  0  0  0
   19.5314  -21.1662  -11.6219 C   0  0  1  0  0  0  0  0  0  0  0  0
   20.6065  -20.5422  -10.9894 O   0  0  0  0  0  0  0  0  0  0  0  0
   20.0047  -22.1042  -12.7122 C   0  0  2  0  0  0  0  0  0  0  0  0
   20.7575  -21.4479  -13.7296 N   0  0  0  0  0  0  0  0  0  0  0  0
   18.8919  -22.9267  -13.2478 C   0  0  0  0  0  0  0  0  0  0  0  0
   18.1357  -22.5207  -14.1786 O   0  0  0  0  0  0  0  0  0  0  0  0
   18.6225  -24.1930  -12.7505 O   0  0  0  0  0  0  0  0  0  0  0  0
  2  1  1  0
  2  3  1  0
  3  5  1  0
  3  4  2  0
  5  6  1  0
  6  7  1  6
  6 14  1  0
  8  9  2  0
  8  7  1  0
 10  9  1  0
 11 10  2  0
 12 11  1  0
 12 13  2  0
 13  8  1  0
 14 20  1  0
 15 14  2  0
 17 16  1  1
 17 18  1  0
 19 21  1  0
 19 17  1  0
 19 20  1  6
 21 23  1  0
 22 21  2  0
M  END
$$$$
