GFT.pdb
     RDKit          3D

 23 23  0  0  1  0  0  0  0  0999 V2000
   18.3412   -9.2813  -16.7903 N   0  0  0  0  0  0  0  0  0  0  0  0
   19.1966   -9.7476  -15.7191 C   0  0  0  0  0  0  0  0  0  0  0  0
   20.5786   -9.8704  -16.2512 C   0  0  0  0  0  0  0  0  0  0  0  0
   20.8558   -9.4161  -17.4057 O   0  0  0  0  0  0  0  0  0  0  0  0
   21.6041  -10.4783  -15.5150 N   0  0  0  0  0  0  0  0  0  0  0  0
   22.9881  -10.5591  -16.0082 C   0  0  1  0  0  0  0  0  0  0  0  0
   23.8367   -9.9278  -14.9461 C   0  0  0  0  0  0  0  0  0  0  0  0
   23.7795   -8.4594  -14.9073 C   0  0  0  0  0  0  0  0  0  0  0  0
   24.6335   -7.7667  -15.7703 C   0  0  0  0  0  0  0  0  0  0  0  0
   24.6559   -6.3890  -15.8137 C   0  0  0  0  0  0  0  0  0  0  0  0
   23.8218   -5.6846  -14.9918 C   0  0  0  0  0  0  0  0  0  0  0  0
   22.9806   -6.3642  -14.1418 C   0  0  0  0  0  0  0  0  0  0  0  0
   22.9567   -7.7447  -14.0970 C   0  0  0  0  0  0  0  0  0  0  0  0
   23.3368  -11.9682  -16.2540 C   0  0  0  0  0  0  0  0  0  0  0  0
   23.2826  -12.7832  -15.3203 O   0  0  0  0  0  0  0  0  0  0  0  0
   21.5973  -14.0275  -18.8214 C   0  0  0  0  0  0  0  0  0  0  0  0
   23.0891  -14.1826  -19.1090 C   0  0  1  0  0  0  0  0  0  0  0  0
   23.3596  -13.3500  -20.1948 O   0  0  0  0  0  0  0  0  0  0  0  0
   23.8963  -13.7793  -17.8932 C   0  0  2  0  0  0  0  0  0  0  0  0
   23.7331  -12.4076  -17.5408 N   0  0  0  0  0  0  0  0  0  0  0  0
   25.3180  -14.1843  -18.0211 C   0  0  0  0  0  0  0  0  0  0  0  0
   26.2578  -13.3408  -18.1125 O   0  0  0  0  0  0  0  0  0  0  0  0
   25.6913  -15.5198  -18.0473 O   0  0  0  0  0  0  0  0  0  0  0  0
  2  1  1  0
  2  3  1  0
  3  5  1  0
  3  4  2  0
  5  6  1  0
  6  7  1  1
  6 14  1  0
  8  9  2  0
  8  7  1  0
 10  9  1  0
 11 10  2  0
 12 11  1  0
 12 13  2  0
 13  8  1  0
 14 20  1  0
 15 14  2  0
 17 16  1  1
 17 18  1  0
 19 21  1  0
 19 17  1  0
 19 20  1  6
 21 23  1  0
 22 21  2  0
M  END
$$$$
