LHA.pdb
     RDKit          3D

 24 24  0  0  1  0  0  0  0  0999 V2000
    6.6845  -11.8614   24.5854 C   0  0  0  0  0  0  0  0  0  0  0  0
    6.2065  -12.6600   25.8058 C   0  0  2  0  0  0  0  0  0  0  0  0
    6.3075  -11.7858   27.0487 C   0  0  0  0  0  0  0  0  0  0  0  0
    7.0602  -13.8672   26.0117 C   0  0  0  0  0  0  0  0  0  0  0  0
    6.9363  -14.8275   24.8519 C   0  0  2  0  0  0  0  0  0  0  0  0
    5.7067  -15.5484   24.8184 N   0  0  0  0  0  0  0  0  0  0  0  0
    8.1298  -15.7108   24.8933 C   0  0  0  0  0  0  0  0  0  0  0  0
    8.1547  -16.7011   25.6695 O   0  0  0  0  0  0  0  0  0  0  0  0
    9.2847  -15.5107   24.0917 N   0  0  0  0  0  0  0  0  0  0  0  0
   10.4286  -16.4001   24.1316 C   0  0  1  0  0  0  0  0  0  0  0  0
   11.3051  -16.2533   22.9214 C   0  0  0  0  0  0  0  0  0  0  0  0
   10.6869  -16.7504   21.6737 C   0  0  0  0  0  0  0  0  0  0  0  0
    9.5160  -17.4682   21.5915 C   0  0  0  0  0  0  0  0  0  0  0  0
    9.2680  -17.7438   20.2968 N   0  0  0  0  0  0  0  0  0  0  0  0
   10.2586  -17.2143   19.5632 C   0  0  0  0  0  0  0  0  0  0  0  0
   11.1105  -16.6160   20.4098 N   0  0  0  0  0  0  0  0  0  0  0  0
   11.0961  -16.2304   25.4211 C   0  0  0  0  0  0  0  0  0  0  0  0
   11.9842  -15.3478   25.5379 O   0  0  0  0  0  0  0  0  0  0  0  0
   10.9062  -15.9275   28.7595 C   0  0  0  0  0  0  0  0  0  0  0  0
   11.5851  -16.8642   27.7519 C   0  0  2  0  0  0  0  0  0  0  0  0
   10.7973  -17.0158   26.5744 N   0  0  0  0  0  0  0  0  0  0  0  0
   11.9477  -18.1464   28.4142 C   0  0  0  0  0  0  0  0  0  0  0  0
   11.4261  -19.3037   27.8410 O   0  0  0  0  0  0  0  0  0  0  0  0
   12.6639  -18.2664   29.4173 O   0  0  0  0  0  0  0  0  0  0  0  0
  2  1  1  6
  3  2  1  0
  4  5  1  0
  4  2  1  0
  5  6  1  1
  7  5  1  0
  7  8  2  0
  9  7  1  0
 10  9  1  0
 10 11  1  6
 11 12  1  0
 12 13  2  0
 12 16  1  0
 13 14  1  0
 14 15  1  0
 16 15  2  0
 17 10  1  0
 18 17  2  0
 20 19  1  1
 20 21  1  0
 21 17  1  0
 22 20  1  0
 23 22  1  0
 24 22  2  0
M  END
$$$$
