LHA.pdb
     RDKit          3D

 24 24  0  0  1  0  0  0  0  0999 V2000
    8.2372  -12.3994   20.7259 C   0  0  0  0  0  0  0  0  0  0  0  0
    8.4329  -13.2242   19.4464 C   0  0  2  0  0  0  0  0  0  0  0  0
    7.4886  -12.7095   18.3681 C   0  0  0  0  0  0  0  0  0  0  0  0
    8.1204  -14.6626   19.6948 C   0  0  0  0  0  0  0  0  0  0  0  0
    9.0127  -15.5645   18.8742 C   0  0  2  0  0  0  0  0  0  0  0  0
    8.3422  -16.2435   17.8148 N   0  0  0  0  0  0  0  0  0  0  0  0
    9.6861  -16.4863   19.8244 C   0  0  0  0  0  0  0  0  0  0  0  0
    9.0412  -17.4295   20.3521 O   0  0  0  0  0  0  0  0  0  0  0  0
   11.0530  -16.3756   20.1928 N   0  0  0  0  0  0  0  0  0  0  0  0
   11.6998  -17.3119   21.0906 C   0  0  1  0  0  0  0  0  0  0  0  0
   12.9858  -17.8436   20.5270 C   0  0  0  0  0  0  0  0  0  0  0  0
   12.8101  -18.6569   19.3049 C   0  0  0  0  0  0  0  0  0  0  0  0
   12.3470  -19.9519   19.2651 C   0  0  0  0  0  0  0  0  0  0  0  0
   12.3206  -20.3622   17.9826 N   0  0  0  0  0  0  0  0  0  0  0  0
   12.7575  -19.3522   17.2152 C   0  0  0  0  0  0  0  0  0  0  0  0
   13.0503  -18.3263   18.0289 N   0  0  0  0  0  0  0  0  0  0  0  0
   11.7961  -16.6896   22.4099 C   0  0  0  0  0  0  0  0  0  0  0  0
   12.7205  -15.8664   22.6311 O   0  0  0  0  0  0  0  0  0  0  0  0
   10.6352  -18.7818   25.0893 C   0  0  0  0  0  0  0  0  0  0  0  0
   11.3879  -17.5029   24.7002 C   0  0  2  0  0  0  0  0  0  0  0  0
   10.8912  -16.9617   23.4793 N   0  0  0  0  0  0  0  0  0  0  0  0
   12.8544  -17.7546   24.7057 C   0  0  0  0  0  0  0  0  0  0  0  0
   13.5910  -17.0768   25.6744 O   0  0  0  0  0  0  0  0  0  0  0  0
   13.4636  -18.5053   23.9319 O   0  0  0  0  0  0  0  0  0  0  0  0
  2  1  1  1
  3  2  1  0
  4  5  1  0
  4  2  1  0
  5  6  1  6
  7  5  1  0
  7  8  2  0
  9  7  1  0
 10  9  1  0
 10 11  1  6
 11 12  1  0
 12 13  2  0
 12 16  1  0
 13 14  1  0
 14 15  1  0
 16 15  2  0
 17 10  1  0
 18 17  2  0
 20 19  1  6
 20 21  1  0
 21 17  1  0
 22 20  1  0
 23 22  1  0
 24 22  2  0
M  END
$$$$
