LHA.pdb
     RDKit          3D

 24 24  0  0  1  0  0  0  0  0999 V2000
    9.0186  -12.6212   18.8815 C   0  0  0  0  0  0  0  0  0  0  0  0
    7.9312  -13.3484   19.6841 C   0  0  2  0  0  0  0  0  0  0  0  0
    7.2401  -12.3544   20.6082 C   0  0  0  0  0  0  0  0  0  0  0  0
    8.5300  -14.4288   20.5224 C   0  0  0  0  0  0  0  0  0  0  0  0
    9.2079  -15.4722   19.6653 C   0  0  2  0  0  0  0  0  0  0  0  0
    8.3520  -16.0853   18.7039 N   0  0  0  0  0  0  0  0  0  0  0  0
    9.8394  -16.4474   20.5907 C   0  0  0  0  0  0  0  0  0  0  0  0
    9.1624  -17.3968   21.0642 O   0  0  0  0  0  0  0  0  0  0  0  0
   11.1996  -16.3828   20.9932 N   0  0  0  0  0  0  0  0  0  0  0  0
   11.8087  -17.3766   21.8549 C   0  0  1  0  0  0  0  0  0  0  0  0
   13.1929  -17.7463   21.4060 C   0  0  0  0  0  0  0  0  0  0  0  0
   13.2195  -18.6205   20.2139 C   0  0  0  0  0  0  0  0  0  0  0  0
   12.4849  -19.7722   20.0496 C   0  0  0  0  0  0  0  0  0  0  0  0
   12.7682  -20.2968   18.8420 N   0  0  0  0  0  0  0  0  0  0  0  0
   13.6656  -19.4990   18.2436 C   0  0  0  0  0  0  0  0  0  0  0  0
   13.9297  -18.4882   19.0856 N   0  0  0  0  0  0  0  0  0  0  0  0
   11.6933  -16.9165   23.2377 C   0  0  0  0  0  0  0  0  0  0  0  0
   12.4582  -16.0048   23.6441 O   0  0  0  0  0  0  0  0  0  0  0  0
    9.3062  -16.7332   26.0073 C   0  0  0  0  0  0  0  0  0  0  0  0
   10.7394  -16.9604   25.5096 C   0  0  2  0  0  0  0  0  0  0  0  0
   10.7510  -17.4451   24.1699 N   0  0  0  0  0  0  0  0  0  0  0  0
   11.4835  -17.8138   26.4752 C   0  0  0  0  0  0  0  0  0  0  0  0
   11.7683  -17.2389   27.7115 O   0  0  0  0  0  0  0  0  0  0  0  0
   11.8639  -18.9746   26.2724 O   0  0  0  0  0  0  0  0  0  0  0  0
  2  1  1  1
  3  2  1  0
  4  5  1  0
  4  2  1  0
  5  6  1  6
  7  5  1  0
  7  8  2  0
  9  7  1  0
 10  9  1  0
 10 11  1  6
 11 12  1  0
 12 13  2  0
 12 16  1  0
 13 14  1  0
 14 15  1  0
 16 15  2  0
 17 10  1  0
 18 17  2  0
 20 19  1  1
 20 21  1  0
 21 17  1  0
 22 20  1  0
 23 22  1  0
 24 22  2  0
M  END
$$$$
