LHA.pdb
     RDKit          3D

 24 24  0  0  1  0  0  0  0  0999 V2000
    9.2277  -12.9036   19.4279 C   0  0  0  0  0  0  0  0  0  0  0  0
    7.9205  -13.2548   20.1514 C   0  0  2  0  0  0  0  0  0  0  0  0
    7.2273  -11.9706   20.5872 C   0  0  0  0  0  0  0  0  0  0  0  0
    8.1965  -14.0741   21.3684 C   0  0  0  0  0  0  0  0  0  0  0  0
    8.9121  -15.3563   21.0122 C   0  0  2  0  0  0  0  0  0  0  0  0
    8.1969  -16.1928   20.1058 N   0  0  0  0  0  0  0  0  0  0  0  0
    9.2469  -16.0335   22.2911 C   0  0  0  0  0  0  0  0  0  0  0  0
    8.3550  -16.6491   22.9309 O   0  0  0  0  0  0  0  0  0  0  0  0
   10.5465  -16.0361   22.8631 N   0  0  0  0  0  0  0  0  0  0  0  0
   10.8467  -16.6915   24.1207 C   0  0  1  0  0  0  0  0  0  0  0  0
   12.0593  -17.5719   24.0274 C   0  0  0  0  0  0  0  0  0  0  0  0
   11.8276  -18.8289   23.2843 C   0  0  0  0  0  0  0  0  0  0  0  0
   10.7764  -19.6941   23.4833 C   0  0  0  0  0  0  0  0  0  0  0  0
   10.8965  -20.7247   22.6246 N   0  0  0  0  0  0  0  0  0  0  0  0
   12.0012  -20.5255   21.8898 C   0  0  0  0  0  0  0  0  0  0  0  0
   12.5548  -19.3741   22.2999 N   0  0  0  0  0  0  0  0  0  0  0  0
   10.8820  -15.6745   25.1704 C   0  0  0  0  0  0  0  0  0  0  0  0
   11.8466  -14.8687   25.2082 O   0  0  0  0  0  0  0  0  0  0  0  0
    8.9120  -13.6766   27.4305 C   0  0  0  0  0  0  0  0  0  0  0  0
   10.0858  -14.6506   27.2659 C   0  0  2  0  0  0  0  0  0  0  0  0
    9.8732  -15.5363   26.1702 N   0  0  0  0  0  0  0  0  0  0  0  0
   10.3652  -15.3329   28.5584 C   0  0  0  0  0  0  0  0  0  0  0  0
   10.7964  -14.5186   29.6030 O   0  0  0  0  0  0  0  0  0  0  0  0
   10.2475  -16.5460   28.7775 O   0  0  0  0  0  0  0  0  0  0  0  0
  2  1  1  1
  3  2  1  0
  4  5  1  0
  4  2  1  0
  5  6  1  6
  7  5  1  0
  7  8  2  0
  9  7  1  0
 10  9  1  0
 10 11  1  6
 11 12  1  0
 12 13  2  0
 12 16  1  0
 13 14  1  0
 14 15  1  0
 16 15  2  0
 17 10  1  0
 18 17  2  0
 20 19  1  1
 20 21  1  0
 21 17  1  0
 22 20  1  0
 23 22  1  0
 24 22  2  0
M  END
$$$$
