LHA.pdb
     RDKit          3D

 24 24  0  0  1  0  0  0  0  0999 V2000
    7.1796  -11.8858   25.7817 C   0  0  0  0  0  0  0  0  0  0  0  0
    6.5652  -12.9801   26.6653 C   0  0  2  0  0  0  0  0  0  0  0  0
    6.7257  -12.5920   28.1293 C   0  0  0  0  0  0  0  0  0  0  0  0
    7.2595  -14.2836   26.4476 C   0  0  0  0  0  0  0  0  0  0  0  0
    6.3571  -15.2720   25.7465 C   0  0  2  0  0  0  0  0  0  0  0  0
    6.0577  -16.4363   26.5131 N   0  0  0  0  0  0  0  0  0  0  0  0
    6.9891  -15.5812   24.4384 C   0  0  0  0  0  0  0  0  0  0  0  0
    7.5399  -16.6973   24.2523 O   0  0  0  0  0  0  0  0  0  0  0  0
    7.0172  -14.6758   23.3448 N   0  0  0  0  0  0  0  0  0  0  0  0
    7.6742  -14.9843   22.0901 C   0  0  1  0  0  0  0  0  0  0  0  0
    7.3582  -13.9788   21.0208 C   0  0  0  0  0  0  0  0  0  0  0  0
    7.9781  -14.2838   19.7137 C   0  0  0  0  0  0  0  0  0  0  0  0
    8.8012  -15.3540   19.4486 C   0  0  0  0  0  0  0  0  0  0  0  0
    9.1703  -15.3051   18.1543 N   0  0  0  0  0  0  0  0  0  0  0  0
    8.5965  -14.2264   17.6001 C   0  0  0  0  0  0  0  0  0  0  0  0
    7.8777  -13.6176   18.5556 N   0  0  0  0  0  0  0  0  0  0  0  0
    9.0954  -15.1985   22.3577 C   0  0  0  0  0  0  0  0  0  0  0  0
    9.7618  -14.2768   22.8941 O   0  0  0  0  0  0  0  0  0  0  0  0
   11.4143  -17.6503   23.3752 C   0  0  0  0  0  0  0  0  0  0  0  0
   11.1694  -16.5297   22.3564 C   0  0  2  0  0  0  0  0  0  0  0  0
    9.7845  -16.4081   22.0441 N   0  0  0  0  0  0  0  0  0  0  0  0
   12.0491  -16.7191   21.1713 C   0  0  0  0  0  0  0  0  0  0  0  0
   11.4046  -16.9237   19.9535 O   0  0  0  0  0  0  0  0  0  0  0  0
   13.2873  -16.7097   21.1793 O   0  0  0  0  0  0  0  0  0  0  0  0
  2  1  1  6
  3  2  1  0
  4  5  1  0
  4  2  1  0
  5  6  1  1
  7  5  1  0
  7  8  2  0
  9  7  1  0
 10  9  1  0
 10 11  1  6
 11 12  1  0
 12 13  2  0
 12 16  1  0
 13 14  1  0
 14 15  1  0
 16 15  2  0
 17 10  1  0
 18 17  2  0
 20 19  1  1
 20 21  1  0
 21 17  1  0
 22 20  1  0
 23 22  1  0
 24 22  2  0
M  END
$$$$
