LHA.pdb
     RDKit          3D

 24 24  0  0  1  0  0  0  0  0999 V2000
    7.2705  -12.1102   24.5345 C   0  0  0  0  0  0  0  0  0  0  0  0
    6.4798  -12.7371   25.6909 C   0  0  2  0  0  0  0  0  0  0  0  0
    6.6735  -11.8960   26.9457 C   0  0  0  0  0  0  0  0  0  0  0  0
    6.9682  -14.1192   25.9737 C   0  0  0  0  0  0  0  0  0  0  0  0
    6.8835  -14.9905   24.7422 C   0  0  2  0  0  0  0  0  0  0  0  0
    5.5571  -15.3748   24.3879 N   0  0  0  0  0  0  0  0  0  0  0  0
    7.7856  -16.1484   24.9697 C   0  0  0  0  0  0  0  0  0  0  0  0
    7.3670  -17.1621   25.5872 O   0  0  0  0  0  0  0  0  0  0  0  0
    9.1333  -16.1950   24.5249 N   0  0  0  0  0  0  0  0  0  0  0  0
    9.9558  -17.3827   24.6432 C   0  0  1  0  0  0  0  0  0  0  0  0
   11.0369  -17.4312   23.6024 C   0  0  0  0  0  0  0  0  0  0  0  0
   10.5276  -17.5310   22.2180 C   0  0  0  0  0  0  0  0  0  0  0  0
    9.7964  -18.5790   21.7079 C   0  0  0  0  0  0  0  0  0  0  0  0
    9.5100  -18.3186   20.4180 N   0  0  0  0  0  0  0  0  0  0  0  0
   10.0459  -17.1288   20.1063 C   0  0  0  0  0  0  0  0  0  0  0  0
   10.6589  -16.6635   21.2055 N   0  0  0  0  0  0  0  0  0  0  0  0
   10.4064  -17.4918   26.0297 C   0  0  0  0  0  0  0  0  0  0  0  0
   11.0952  -16.5626   26.5231 O   0  0  0  0  0  0  0  0  0  0  0  0
    9.6689  -19.4172   29.1341 C   0  0  0  0  0  0  0  0  0  0  0  0
   10.6030  -18.6281   28.2076 C   0  0  2  0  0  0  0  0  0  0  0  0
   10.1076  -18.6043   26.8719 N   0  0  0  0  0  0  0  0  0  0  0  0
   11.9950  -19.1385   28.3346 C   0  0  0  0  0  0  0  0  0  0  0  0
   12.5958  -19.5849   27.1598 O   0  0  0  0  0  0  0  0  0  0  0  0
   12.6521  -19.1978   29.3825 O   0  0  0  0  0  0  0  0  0  0  0  0
  2  1  1  6
  3  2  1  0
  4  5  1  0
  4  2  1  0
  5  6  1  1
  7  5  1  0
  7  8  2  0
  9  7  1  0
 10  9  1  0
 10 11  1  6
 11 12  1  0
 12 13  2  0
 12 16  1  0
 13 14  1  0
 14 15  1  0
 16 15  2  0
 17 10  1  0
 18 17  2  0
 20 19  1  1
 20 21  1  0
 21 17  1  0
 22 20  1  0
 23 22  1  0
 24 22  2  0
M  END
$$$$
