LHA.pdb
     RDKit          3D

 24 24  0  0  1  0  0  0  0  0999 V2000
    6.6000  -12.1002   24.7832 C   0  0  0  0  0  0  0  0  0  0  0  0
    6.3604  -12.7178   26.1676 C   0  0  2  0  0  0  0  0  0  0  0  0
    6.9508  -11.8044   27.2337 C   0  0  0  0  0  0  0  0  0  0  0  0
    7.0258  -14.0501   26.2716 C   0  0  0  0  0  0  0  0  0  0  0  0
    6.5225  -14.9961   25.2064 C   0  0  2  0  0  0  0  0  0  0  0  0
    5.3155  -15.6734   25.5488 N   0  0  0  0  0  0  0  0  0  0  0  0
    7.6402  -15.9207   24.8870 C   0  0  0  0  0  0  0  0  0  0  0  0
    7.7529  -17.0111   25.5053 O   0  0  0  0  0  0  0  0  0  0  0  0
    8.6249  -15.6529   23.8995 N   0  0  0  0  0  0  0  0  0  0  0  0
    9.6702  -16.5981   23.5603 C   0  0  1  0  0  0  0  0  0  0  0  0
   10.4358  -16.1839   22.3370 C   0  0  0  0  0  0  0  0  0  0  0  0
   11.4392  -17.1766   21.8970 C   0  0  0  0  0  0  0  0  0  0  0  0
   11.7261  -18.3613   22.5353 C   0  0  0  0  0  0  0  0  0  0  0  0
   12.6890  -19.0018   21.8452 N   0  0  0  0  0  0  0  0  0  0  0  0
   13.0137  -18.2445   20.7864 C   0  0  0  0  0  0  0  0  0  0  0  0
   12.2492  -17.1427   20.8304 N   0  0  0  0  0  0  0  0  0  0  0  0
   10.4733  -16.8421   24.7573 C   0  0  0  0  0  0  0  0  0  0  0  0
   11.1034  -15.8854   25.2758 O   0  0  0  0  0  0  0  0  0  0  0  0
   10.6498  -19.0351   27.6491 C   0  0  0  0  0  0  0  0  0  0  0  0
   11.3911  -18.2584   26.5532 C   0  0  2  0  0  0  0  0  0  0  0  0
   10.5878  -18.1187   25.3847 N   0  0  0  0  0  0  0  0  0  0  0  0
   12.7245  -18.8720   26.3087 C   0  0  0  0  0  0  0  0  0  0  0  0
   13.5923  -18.9113   27.3976 O   0  0  0  0  0  0  0  0  0  0  0  0
   13.1191  -19.3430   25.2336 O   0  0  0  0  0  0  0  0  0  0  0  0
  2  1  1  6
  3  2  1  0
  4  5  1  0
  4  2  1  0
  5  6  1  1
  7  5  1  0
  7  8  2  0
  9  7  1  0
 10  9  1  0
 10 11  1  6
 11 12  1  0
 12 13  2  0
 12 16  1  0
 13 14  1  0
 14 15  1  0
 16 15  2  0
 17 10  1  0
 18 17  2  0
 20 19  1  1
 20 21  1  0
 21 17  1  0
 22 20  1  0
 23 22  1  0
 24 22  2  0
M  END
$$$$
