LHA.pdb
     RDKit          3D

 24 24  0  0  1  0  0  0  0  0999 V2000
    9.1352  -12.5674   18.9367 C   0  0  0  0  0  0  0  0  0  0  0  0
    7.8309  -13.2916   19.2969 C   0  0  2  0  0  0  0  0  0  0  0  0
    6.9068  -12.3271   20.0286 C   0  0  0  0  0  0  0  0  0  0  0  0
    8.1042  -14.4514   20.1963 C   0  0  0  0  0  0  0  0  0  0  0  0
    9.0234  -15.4509   19.5338 C   0  0  2  0  0  0  0  0  0  0  0  0
    8.4495  -16.1197   18.4130 N   0  0  0  0  0  0  0  0  0  0  0  0
    9.4858  -16.3817   20.5949 C   0  0  0  0  0  0  0  0  0  0  0  0
    8.7409  -17.3209   20.9783 O   0  0  0  0  0  0  0  0  0  0  0  0
   10.7522  -16.2842   21.2297 N   0  0  0  0  0  0  0  0  0  0  0  0
   11.1749  -17.1934   22.2766 C   0  0  1  0  0  0  0  0  0  0  0  0
   12.6214  -17.5746   22.1482 C   0  0  0  0  0  0  0  0  0  0  0  0
   12.8888  -18.5426   21.0631 C   0  0  0  0  0  0  0  0  0  0  0  0
   12.1079  -19.6318   20.7519 C   0  0  0  0  0  0  0  0  0  0  0  0
   12.6630  -20.2776   19.7087 N   0  0  0  0  0  0  0  0  0  0  0  0
   13.7768  -19.6173   19.3573 C   0  0  0  0  0  0  0  0  0  0  0  0
   13.9011  -18.5691   20.1858 N   0  0  0  0  0  0  0  0  0  0  0  0
   10.7822  -16.6236   23.5644 C   0  0  0  0  0  0  0  0  0  0  0  0
   11.4772  -15.7011   24.0617 O   0  0  0  0  0  0  0  0  0  0  0  0
    7.8746  -16.3187   25.8236 C   0  0  0  0  0  0  0  0  0  0  0  0
    9.3803  -16.4937   25.5870 C   0  0  2  0  0  0  0  0  0  0  0  0
    9.6404  -17.0551   24.3036 N   0  0  0  0  0  0  0  0  0  0  0  0
    9.9885  -17.2455   26.7180 C   0  0  0  0  0  0  0  0  0  0  0  0
    9.9910  -16.6021   27.9534 O   0  0  0  0  0  0  0  0  0  0  0  0
   10.4846  -18.3782   26.6514 O   0  0  0  0  0  0  0  0  0  0  0  0
  2  1  1  1
  3  2  1  0
  4  5  1  0
  4  2  1  0
  5  6  1  6
  7  5  1  0
  7  8  2  0
  9  7  1  0
 10  9  1  0
 10 11  1  1
 11 12  1  0
 12 13  2  0
 12 16  1  0
 13 14  1  0
 14 15  1  0
 16 15  2  0
 17 10  1  0
 18 17  2  0
 20 19  1  1
 20 21  1  0
 21 17  1  0
 22 20  1  0
 23 22  1  0
 24 22  2  0
M  END
$$$$
