LHA.pdb
     RDKit          3D

 24 24  0  0  1  0  0  0  0  0999 V2000
    5.6153  -11.7741   25.2549 C   0  0  0  0  0  0  0  0  0  0  0  0
    5.7863  -12.4923   26.6005 C   0  0  2  0  0  0  0  0  0  0  0  0
    6.3327  -11.5098   27.6280 C   0  0  0  0  0  0  0  0  0  0  0  0
    6.7526  -13.6232   26.4741 C   0  0  0  0  0  0  0  0  0  0  0  0
    6.2995  -14.6134   25.4266 C   0  0  2  0  0  0  0  0  0  0  0  0
    5.1499  -15.3711   25.7967 N   0  0  0  0  0  0  0  0  0  0  0  0
    7.4745  -15.4596   25.0956 C   0  0  0  0  0  0  0  0  0  0  0  0
    7.5357  -16.6451   25.5139 O   0  0  0  0  0  0  0  0  0  0  0  0
    8.5717  -15.0111   24.3138 N   0  0  0  0  0  0  0  0  0  0  0  0
    9.6810  -15.8725   23.9550 C   0  0  1  0  0  0  0  0  0  0  0  0
   10.3256  -15.4605   22.6631 C   0  0  0  0  0  0  0  0  0  0  0  0
    9.3672  -15.2639   21.5546 C   0  0  0  0  0  0  0  0  0  0  0  0
    8.0338  -15.6025   21.5800 C   0  0  0  0  0  0  0  0  0  0  0  0
    7.4821  -15.2745   20.3961 N   0  0  0  0  0  0  0  0  0  0  0  0
    8.4406  -14.7367   19.6268 C   0  0  0  0  0  0  0  0  0  0  0  0
    9.5766  -14.7366   20.3409 N   0  0  0  0  0  0  0  0  0  0  0  0
   10.5764  -15.9700   25.1065 C   0  0  0  0  0  0  0  0  0  0  0  0
   11.7341  -16.4329   24.9427 O   0  0  0  0  0  0  0  0  0  0  0  0
   10.8950  -14.6819   28.5997 C   0  0  0  0  0  0  0  0  0  0  0  0
   11.1513  -15.7083   27.4886 C   0  0  2  0  0  0  0  0  0  0  0  0
   10.2132  -15.5652   26.4258 N   0  0  0  0  0  0  0  0  0  0  0  0
   11.2161  -17.0779   28.0668 C   0  0  0  0  0  0  0  0  0  0  0  0
   12.1954  -17.2913   29.0341 O   0  0  0  0  0  0  0  0  0  0  0  0
   10.4822  -18.0279   27.7631 O   0  0  0  0  0  0  0  0  0  0  0  0
  2  1  1  6
  3  2  1  0
  4  5  1  0
  4  2  1  0
  5  6  1  1
  7  5  1  0
  7  8  2  0
  9  7  1  0
 10  9  1  0
 10 11  1  6
 11 12  1  0
 12 13  2  0
 12 16  1  0
 13 14  1  0
 14 15  1  0
 16 15  2  0
 17 10  1  0
 18 17  2  0
 20 19  1  1
 20 21  1  0
 21 17  1  0
 22 20  1  0
 23 22  1  0
 24 22  2  0
M  END
$$$$
