ISA.pdb
     RDKit          3D

 20 19  0  0  1  0  0  0  0  0999 V2000
   16.8828   -9.3040  -18.9885 C   0  0  0  0  0  0  0  0  0  0  0  0
   18.3528   -9.1556  -18.5990 C   0  0  0  0  0  0  0  0  0  0  0  0
   18.4888   -8.3668  -17.3252 C   0  0  2  0  0  0  0  0  0  0  0  0
   17.6990   -7.0822  -17.3787 C   0  0  0  0  0  0  0  0  0  0  0  0
   19.8934   -8.1808  -16.8843 C   0  0  2  0  0  0  0  0  0  0  0  0
   20.4635   -9.5249  -16.7047 N   0  0  0  0  0  0  0  0  0  0  0  0
   20.0709   -7.4586  -15.6054 C   0  0  0  0  0  0  0  0  0  0  0  0
   19.6085   -7.8851  -14.4978 O   0  0  0  0  0  0  0  0  0  0  0  0
   22.5154   -4.7043  -12.7297 O   0  0  0  0  0  0  0  0  0  0  0  0
   22.3727   -5.4528  -13.8666 C   0  0  0  0  0  0  0  0  0  0  0  0
   20.9222   -5.4440  -14.3379 C   0  0  2  0  0  0  0  0  0  0  0  0
   20.7787   -6.2328  -15.5530 N   0  0  0  0  0  0  0  0  0  0  0  0
   20.5997   -4.0387  -14.6833 C   0  0  0  0  0  0  0  0  0  0  0  0
   21.0929   -3.5231  -15.7436 O   0  0  0  0  0  0  0  0  0  0  0  0
   18.4213   -1.2585  -13.3751 C   0  0  0  0  0  0  0  0  0  0  0  0
   19.4730   -1.8156  -14.3243 C   0  0  2  0  0  0  0  0  0  0  0  0
   19.7711   -3.1799  -13.9317 N   0  0  0  0  0  0  0  0  0  0  0  0
   20.6558   -0.9456  -14.2777 C   0  0  0  0  0  0  0  0  0  0  0  0
   21.6404   -1.1795  -13.5372 O   0  0  0  0  0  0  0  0  0  0  0  0
   20.6993    0.1821  -15.0784 O   0  0  0  0  0  0  0  0  0  0  0  0
  2  3  1  0
  2  1  1  0
  3  5  1  0
  3  4  1  6
  5  7  1  0
  5  6  1  1
  7  8  2  0
 10  9  1  0
 11 10  1  6
 11 13  1  0
 12 11  1  0
 12  7  1  0
 13 17  1  0
 13 14  2  0
 16 15  1  1
 16 18  1  0
 17 16  1  0
 18 19  2  0
 18 20  1  0
M  END
$$$$
