ISA.pdb
     RDKit          3D

 20 19  0  0  1  0  0  0  0  0999 V2000
   23.9370  -12.2328  -14.7402 C   0  0  0  0  0  0  0  0  0  0  0  0
   23.4190  -10.8913  -14.2240 C   0  0  0  0  0  0  0  0  0  0  0  0
   22.8831  -10.0568  -15.3551 C   0  0  2  0  0  0  0  0  0  0  0  0
   23.8666   -9.9679  -16.4961 C   0  0  0  0  0  0  0  0  0  0  0  0
   22.3522   -8.7391  -14.9265 C   0  0  2  0  0  0  0  0  0  0  0  0
   21.4171   -8.9975  -13.8208 N   0  0  0  0  0  0  0  0  0  0  0  0
   21.6077   -7.9845  -15.9585 C   0  0  0  0  0  0  0  0  0  0  0  0
   22.1565   -7.5215  -17.0107 O   0  0  0  0  0  0  0  0  0  0  0  0
   17.6735   -7.4005  -15.2532 O   0  0  0  0  0  0  0  0  0  0  0  0
   17.9532   -7.2070  -16.5789 C   0  0  0  0  0  0  0  0  0  0  0  0
   19.4455   -6.9684  -16.7845 C   0  0  2  0  0  0  0  0  0  0  0  0
   20.2198   -7.7367  -15.8207 N   0  0  0  0  0  0  0  0  0  0  0  0
   19.6861   -5.5333  -16.5003 C   0  0  0  0  0  0  0  0  0  0  0  0
   19.9295   -5.1621  -15.3019 O   0  0  0  0  0  0  0  0  0  0  0  0
   20.0118   -2.3084  -18.4171 C   0  0  0  0  0  0  0  0  0  0  0  0
   19.9110   -3.1038  -17.1231 C   0  0  2  0  0  0  0  0  0  0  0  0
   19.6736   -4.4958  -17.4555 N   0  0  0  0  0  0  0  0  0  0  0  0
   18.8364   -2.5305  -16.3018 C   0  0  0  0  0  0  0  0  0  0  0  0
   17.7382   -3.1087  -16.1227 O   0  0  0  0  0  0  0  0  0  0  0  0
   19.0298   -1.3023  -15.6944 O   0  0  0  0  0  0  0  0  0  0  0  0
  2  3  1  0
  2  1  1  0
  3  5  1  0
  3  4  1  6
  5  7  1  0
  5  6  1  1
  7  8  2  0
 10  9  1  0
 11 10  1  1
 11 13  1  0
 12 11  1  0
 12  7  1  0
 13 17  1  0
 13 14  2  0
 16 15  1  6
 16 18  1  0
 17 16  1  0
 18 19  2  0
 18 20  1  0
M  END
$$$$
