ISA.pdb
     RDKit          3D

 20 19  0  0  1  0  0  0  0  0999 V2000
   19.9792  -12.5355  -20.2362 C   0  0  0  0  0  0  0  0  0  0  0  0
   19.6725  -12.6945  -18.7478 C   0  0  0  0  0  0  0  0  0  0  0  0
   19.3617  -11.3617  -18.1232 C   0  0  2  0  0  0  0  0  0  0  0  0
   20.3908  -10.3210  -18.4908 C   0  0  0  0  0  0  0  0  0  0  0  0
   19.0859  -11.4337  -16.6670 C   0  0  2  0  0  0  0  0  0  0  0  0
   17.9831  -12.3911  -16.4907 N   0  0  0  0  0  0  0  0  0  0  0  0
   18.6658  -10.1647  -16.0332 C   0  0  0  0  0  0  0  0  0  0  0  0
   17.7514   -9.4188  -16.5131 O   0  0  0  0  0  0  0  0  0  0  0  0
   18.5326   -7.4604  -12.0678 O   0  0  0  0  0  0  0  0  0  0  0  0
   18.6687   -8.6611  -12.7104 C   0  0  0  0  0  0  0  0  0  0  0  0
   18.9352   -8.4485  -14.1969 C   0  0  2  0  0  0  0  0  0  0  0  0
   19.2744   -9.7110  -14.8373 N   0  0  0  0  0  0  0  0  0  0  0  0
   20.1273   -7.5719  -14.2903 C   0  0  0  0  0  0  0  0  0  0  0  0
   21.2812   -8.0491  -14.0177 O   0  0  0  0  0  0  0  0  0  0  0  0
   20.9638   -4.0710  -15.3870 C   0  0  0  0  0  0  0  0  0  0  0  0
   21.3106   -5.3888  -14.7085 C   0  0  2  0  0  0  0  0  0  0  0  0
   20.1170   -6.2123  -14.6647 N   0  0  0  0  0  0  0  0  0  0  0  0
   21.8454   -5.1020  -13.3707 C   0  0  0  0  0  0  0  0  0  0  0  0
   21.2000   -5.3290  -12.3197 O   0  0  0  0  0  0  0  0  0  0  0  0
   23.1123   -4.5587  -13.2497 O   0  0  0  0  0  0  0  0  0  0  0  0
  2  3  1  0
  2  1  1  0
  3  5  1  0
  3  4  1  1
  5  7  1  0
  5  6  1  6
  7  8  2  0
 10  9  1  0
 11 10  1  1
 11 13  1  0
 12 11  1  0
 12  7  1  0
 13 17  1  0
 13 14  2  0
 16 15  1  1
 16 18  1  0
 17 16  1  0
 18 19  2  0
 18 20  1  0
M  END
$$$$
