ISA.pdb
     RDKit          3D

 20 19  0  0  1  0  0  0  0  0999 V2000
   22.6911  -15.0631  -17.9889 C   0  0  0  0  0  0  0  0  0  0  0  0
   23.5705  -14.8952  -16.7507 C   0  0  0  0  0  0  0  0  0  0  0  0
   24.6017  -15.9881  -16.6782 C   0  0  2  0  0  0  0  0  0  0  0  0
   23.9851  -17.3500  -16.8837 C   0  0  0  0  0  0  0  0  0  0  0  0
   25.4750  -15.9076  -15.4812 C   0  0  2  0  0  0  0  0  0  0  0  0
   26.1700  -14.6130  -15.5491 N   0  0  0  0  0  0  0  0  0  0  0  0
   26.5149  -16.9548  -15.3780 C   0  0  0  0  0  0  0  0  0  0  0  0
   27.4987  -17.0374  -16.1831 O   0  0  0  0  0  0  0  0  0  0  0  0
   26.0104  -19.8596  -12.5269 O   0  0  0  0  0  0  0  0  0  0  0  0
   27.3253  -19.6616  -12.8507 C   0  0  0  0  0  0  0  0  0  0  0  0
   27.4485  -18.9975  -14.2181 C   0  0  2  0  0  0  0  0  0  0  0  0
   26.4632  -17.9350  -14.3569 N   0  0  0  0  0  0  0  0  0  0  0  0
   27.1209  -20.0374  -15.2228 C   0  0  0  0  0  0  0  0  0  0  0  0
   25.9614  -20.0487  -15.7604 O   0  0  0  0  0  0  0  0  0  0  0  0
   27.6172  -21.3333  -18.0307 C   0  0  0  0  0  0  0  0  0  0  0  0
   27.6336  -22.0285  -16.6766 C   0  0  2  0  0  0  0  0  0  0  0  0
   27.9928  -21.0545  -15.6633 N   0  0  0  0  0  0  0  0  0  0  0  0
   28.5780  -23.1521  -16.7368 C   0  0  0  0  0  0  0  0  0  0  0  0
   29.6312  -23.1894  -16.0572 O   0  0  0  0  0  0  0  0  0  0  0  0
   28.3074  -24.2204  -17.5736 O   0  0  0  0  0  0  0  0  0  0  0  0
  2  3  1  0
  2  1  1  0
  3  5  1  0
  3  4  1  1
  5  7  1  0
  5  6  1  6
  7  8  2  0
 10  9  1  0
 11 10  1  1
 11 13  1  0
 12 11  1  0
 12  7  1  0
 13 17  1  0
 13 14  2  0
 16 15  1  6
 16 18  1  0
 17 16  1  0
 18 19  2  0
 18 20  1  0
M  END
$$$$
