ISA.pdb
     RDKit          3D

 20 19  0  0  1  0  0  0  0  0999 V2000
   11.1375  -13.3840  -11.2850 C   0  0  0  0  0  0  0  0  0  0  0  0
   12.4292  -13.0630  -12.0354 C   0  0  0  0  0  0  0  0  0  0  0  0
   13.3118  -12.1627  -11.2146 C   0  0  2  0  0  0  0  0  0  0  0  0
   12.5519  -10.9725  -10.6826 C   0  0  0  0  0  0  0  0  0  0  0  0
   14.5853  -11.8011  -11.8850 C   0  0  2  0  0  0  0  0  0  0  0  0
   15.2796  -13.0625  -12.1859 N   0  0  0  0  0  0  0  0  0  0  0  0
   15.5148  -10.9729  -11.0858 C   0  0  0  0  0  0  0  0  0  0  0  0
   16.1814  -11.4311  -10.1017 O   0  0  0  0  0  0  0  0  0  0  0  0
   17.1781   -7.7259  -12.6914 O   0  0  0  0  0  0  0  0  0  0  0  0
   17.6939   -8.1726  -11.5050 C   0  0  0  0  0  0  0  0  0  0  0  0
   16.5895   -8.7338  -10.6155 C   0  0  2  0  0  0  0  0  0  0  0  0
   15.7103   -9.6022  -11.3848 N   0  0  0  0  0  0  0  0  0  0  0  0
   15.7815   -7.5752  -10.1649 C   0  0  0  0  0  0  0  0  0  0  0  0
   14.9008   -7.0806  -10.9479 O   0  0  0  0  0  0  0  0  0  0  0  0
   15.4161   -5.4286   -7.0894 C   0  0  0  0  0  0  0  0  0  0  0  0
   15.1250   -5.7617   -8.5459 C   0  0  2  0  0  0  0  0  0  0  0  0
   15.8899   -6.9390   -8.9109 N   0  0  0  0  0  0  0  0  0  0  0  0
   15.4617   -4.5939   -9.3712 C   0  0  0  0  0  0  0  0  0  0  0  0
   16.4798   -4.5514  -10.1020 O   0  0  0  0  0  0  0  0  0  0  0  0
   14.6304   -3.4879   -9.3514 O   0  0  0  0  0  0  0  0  0  0  0  0
  2  3  1  0
  2  1  1  0
  3  5  1  0
  3  4  1  6
  5  7  1  0
  5  6  1  1
  7  8  2  0
 10  9  1  0
 11 10  1  6
 11 13  1  0
 12 11  1  0
 12  7  1  0
 13 17  1  0
 13 14  2  0
 16 15  1  1
 16 18  1  0
 17 16  1  0
 18 19  2  0
 18 20  1  0
M  END
$$$$
