ISA.pdb
     RDKit          3D

 20 19  0  0  1  0  0  0  0  0999 V2000
   13.0781  -13.0171  -11.3118 C   0  0  0  0  0  0  0  0  0  0  0  0
   14.0670  -12.1021  -12.0326 C   0  0  0  0  0  0  0  0  0  0  0  0
   14.6187  -11.0674  -11.0902 C   0  0  2  0  0  0  0  0  0  0  0  0
   13.5190  -10.3382  -10.3581 C   0  0  0  0  0  0  0  0  0  0  0  0
   15.6166  -10.1629  -11.7133 C   0  0  2  0  0  0  0  0  0  0  0  0
   16.7419  -11.0058  -12.1454 N   0  0  0  0  0  0  0  0  0  0  0  0
   16.1719   -9.1172  -10.8263 C   0  0  0  0  0  0  0  0  0  0  0  0
   17.0880   -9.3470   -9.9716 O   0  0  0  0  0  0  0  0  0  0  0  0
   16.0163   -5.4653  -12.1805 O   0  0  0  0  0  0  0  0  0  0  0  0
   16.8669   -5.6439  -11.1233 C   0  0  0  0  0  0  0  0  0  0  0  0
   16.3116   -6.6839  -10.1558 C   0  0  2  0  0  0  0  0  0  0  0  0
   15.6999   -7.7831  -10.8883 N   0  0  0  0  0  0  0  0  0  0  0  0
   15.2357   -6.0127   -9.3874 C   0  0  0  0  0  0  0  0  0  0  0  0
   14.0922   -5.8363   -9.9301 O   0  0  0  0  0  0  0  0  0  0  0  0
   14.7831   -4.4250   -5.9985 C   0  0  0  0  0  0  0  0  0  0  0  0
   14.3167   -4.7537   -7.4098 C   0  0  2  0  0  0  0  0  0  0  0  0
   15.3504   -5.5311   -8.0669 N   0  0  0  0  0  0  0  0  0  0  0  0
   14.0252   -3.4973   -8.1128 C   0  0  0  0  0  0  0  0  0  0  0  0
   14.8754   -2.9008   -8.8156 O   0  0  0  0  0  0  0  0  0  0  0  0
   12.7646   -2.9371   -8.0044 O   0  0  0  0  0  0  0  0  0  0  0  0
  2  3  1  0
  2  1  1  0
  3  5  1  0
  3  4  1  6
  5  7  1  0
  5  6  1  1
  7  8  2  0
 10  9  1  0
 11 10  1  6
 11 13  1  0
 12 11  1  0
 12  7  1  0
 13 17  1  0
 13 14  2  0
 16 15  1  1
 16 18  1  0
 17 16  1  0
 18 19  2  0
 18 20  1  0
M  END
$$$$
