ISA.pdb
     RDKit          3D

 20 19  0  0  1  0  0  0  0  0999 V2000
   13.3740  -10.4099  -14.3376 C   0  0  0  0  0  0  0  0  0  0  0  0
   14.4781  -10.8450  -15.3000 C   0  0  0  0  0  0  0  0  0  0  0  0
   15.8029  -10.2632  -14.8881 C   0  0  2  0  0  0  0  0  0  0  0  0
   15.7122   -8.7732  -14.6674 C   0  0  0  0  0  0  0  0  0  0  0  0
   16.9307  -10.6647  -15.7649 C   0  0  2  0  0  0  0  0  0  0  0  0
   16.9793  -12.1348  -15.7475 N   0  0  0  0  0  0  0  0  0  0  0  0
   18.2656  -10.1804  -15.3501 C   0  0  0  0  0  0  0  0  0  0  0  0
   18.8762  -10.6231  -14.3236 O   0  0  0  0  0  0  0  0  0  0  0  0
   20.3425   -7.8246  -17.9853 O   0  0  0  0  0  0  0  0  0  0  0  0
   21.0856   -8.5154  -17.0667 C   0  0  0  0  0  0  0  0  0  0  0  0
   20.2902   -8.7301  -15.7833 C   0  0  2  0  0  0  0  0  0  0  0  0
   18.9406   -9.1801  -16.0918 N   0  0  0  0  0  0  0  0  0  0  0  0
   20.1749   -7.4033  -15.1317 C   0  0  0  0  0  0  0  0  0  0  0  0
   19.1714   -6.6579  -15.3972 O   0  0  0  0  0  0  0  0  0  0  0  0
   22.0784   -5.3271  -12.6281 C   0  0  0  0  0  0  0  0  0  0  0  0
   20.9687   -5.5280  -13.6506 C   0  0  2  0  0  0  0  0  0  0  0  0
   21.0958   -6.8594  -14.2125 N   0  0  0  0  0  0  0  0  0  0  0  0
   21.0727   -4.4751  -14.6697 C   0  0  0  0  0  0  0  0  0  0  0  0
   21.5711   -4.6754  -15.8028 O   0  0  0  0  0  0  0  0  0  0  0  0
   20.6057   -3.2048  -14.3815 O   0  0  0  0  0  0  0  0  0  0  0  0
  2  3  1  0
  2  1  1  0
  3  5  1  0
  3  4  1  6
  5  7  1  0
  5  6  1  1
  7  8  2  0
 10  9  1  0
 11 10  1  6
 11 13  1  0
 12 11  1  0
 12  7  1  0
 13 17  1  0
 13 14  2  0
 16 15  1  1
 16 18  1  0
 17 16  1  0
 18 19  2  0
 18 20  1  0
M  END
$$$$
