QDR.pdb
     RDKit          3D

 29 28  0  0  1  0  0  0  0  0999 V2000
   27.8785  -25.7846  -17.0204 N   0  0  0  0  0  0  0  0  0  0  0  0
   28.4943  -26.8631  -16.3283 C   0  0  0  0  0  0  0  0  0  0  0  0
   27.8479  -27.4444  -15.4033 O   0  0  0  0  0  0  0  0  0  0  0  0
   29.8673  -27.3148  -16.6676 C   0  0  0  0  0  0  0  0  0  0  0  0
   30.3963  -26.5017  -17.8109 C   0  0  0  0  0  0  0  0  0  0  0  0
   31.4757  -25.5363  -17.3823 C   0  0  2  0  0  0  0  0  0  0  0  0
   32.0578  -26.0693  -16.1653 N   0  0  0  0  0  0  0  0  0  0  0  0
   30.8591  -24.2158  -17.0955 C   0  0  0  0  0  0  0  0  0  0  0  0
   31.2767  -23.5218  -16.1567 O   0  0  0  0  0  0  0  0  0  0  0  0
   29.7831  -23.7041  -17.8739 N   0  0  0  0  0  0  0  0  0  0  0  0
   29.3742  -22.3327  -17.8616 C   0  0  1  0  0  0  0  0  0  0  0  0
   29.2969  -21.6852  -19.2079 C   0  0  0  0  0  0  0  0  0  0  0  0
   28.9663  -20.2684  -19.0778 C   0  0  0  0  0  0  0  0  0  0  0  0
   28.8297  -19.7523  -17.9253 O   0  0  0  0  0  0  0  0  0  0  0  0
   28.0293  -22.2253  -17.2149 C   0  0  0  0  0  0  0  0  0  0  0  0
   27.0231  -22.7629  -17.7976 O   0  0  0  0  0  0  0  0  0  0  0  0
   28.7819  -19.4094  -20.1453 O   0  0  0  0  0  0  0  0  0  0  0  0
   25.5326  -20.4785   -8.7356 N   0  0  0  0  0  0  0  0  0  0  0  0
   24.3822  -20.8031   -9.4864 C   0  0  0  0  0  0  0  0  0  0  0  0
   23.2220  -20.8548   -8.8978 N   0  0  0  0  0  0  0  0  0  0  0  0
   24.4668  -21.0744  -10.8769 N   0  0  0  0  0  0  0  0  0  0  0  0
   25.6979  -20.9539  -11.6258 C   0  0  0  0  0  0  0  0  0  0  0  0
   25.4766  -21.2936  -13.0947 C   0  0  0  0  0  0  0  0  0  0  0  0
   26.7371  -21.1851  -13.8842 C   0  0  0  0  0  0  0  0  0  0  0  0
   26.5487  -21.5442  -15.3350 C   0  0  2  0  0  0  0  0  0  0  0  0
   27.8792  -21.5412  -15.9820 N   0  0  0  0  0  0  0  0  0  0  0  0
   25.7172  -20.5077  -15.9850 C   0  0  0  0  0  0  0  0  0  0  0  0
   24.3684  -20.6278  -16.2186 O   0  0  0  0  0  0  0  0  0  0  0  0
   26.2880  -19.4221  -16.3605 O   0  0  0  0  0  0  0  0  0  0  0  0
  2  1  1  0
  2  3  2  0
  4  2  1  0
  5  4  1  0
  5  6  1  0
  6  7  1  1
  8  9  2  0
  8  6  1  0
 10  8  1  0
 11 10  1  0
 12 13  1  0
 11 12  1  6
 13 17  1  0
 13 14  2  0
 15 16  2  0
 15 11  1  0
 19 20  2  0
 19 18  1  0
 21 19  1  0
 22 21  1  0
 23 22  1  0
 25 24  1  1
 24 23  1  0
 25 26  1  0
 26 15  1  0
 27 25  1  0
 28 27  1  0
 29 27  2  0
M  END
$$$$
