QDR.pdb
     RDKit          3D

 29 28  0  0  1  0  0  0  0  0999 V2000
   30.7293  -21.2562  -10.8774 N   0  0  0  0  0  0  0  0  0  0  0  0
   30.2896  -21.3014   -9.5261 C   0  0  0  0  0  0  0  0  0  0  0  0
   31.1448  -21.5097   -8.6116 O   0  0  0  0  0  0  0  0  0  0  0  0
   28.8602  -21.1105   -9.1725 C   0  0  0  0  0  0  0  0  0  0  0  0
   28.0743  -20.7914  -10.4089 C   0  0  0  0  0  0  0  0  0  0  0  0
   26.6219  -20.5034  -10.1116 C   0  0  2  0  0  0  0  0  0  0  0  0
   26.0758  -21.6941   -9.4889 N   0  0  0  0  0  0  0  0  0  0  0  0
   25.9080  -20.2440  -11.3881 C   0  0  0  0  0  0  0  0  0  0  0  0
   26.1138  -19.1956  -12.0171 O   0  0  0  0  0  0  0  0  0  0  0  0
   24.9759  -21.1730  -11.9298 N   0  0  0  0  0  0  0  0  0  0  0  0
   24.2882  -20.9787  -13.1697 C   0  0  1  0  0  0  0  0  0  0  0  0
   24.4769  -22.0713  -14.1739 C   0  0  0  0  0  0  0  0  0  0  0  0
   25.7650  -21.9318  -14.8484 C   0  0  0  0  0  0  0  0  0  0  0  0
   26.2632  -20.7780  -15.0315 O   0  0  0  0  0  0  0  0  0  0  0  0
   22.8226  -20.8382  -12.9038 C   0  0  0  0  0  0  0  0  0  0  0  0
   22.3797  -21.1284  -11.7373 O   0  0  0  0  0  0  0  0  0  0  0  0
   26.5156  -22.9914  -15.3228 O   0  0  0  0  0  0  0  0  0  0  0  0
   18.9937  -16.5950  -18.7943 N   0  0  0  0  0  0  0  0  0  0  0  0
   17.9713  -17.0219  -17.9196 C   0  0  0  0  0  0  0  0  0  0  0  0
   16.7344  -17.0231  -18.3263 N   0  0  0  0  0  0  0  0  0  0  0  0
   18.2678  -17.4525  -16.6002 N   0  0  0  0  0  0  0  0  0  0  0  0
   19.6005  -17.4059  -16.0411 C   0  0  0  0  0  0  0  0  0  0  0  0
   20.0446  -18.7880  -15.5776 C   0  0  0  0  0  0  0  0  0  0  0  0
   20.0600  -18.8949  -14.0902 C   0  0  0  0  0  0  0  0  0  0  0  0
   20.5103  -20.2491  -13.6080 C   0  0  2  0  0  0  0  0  0  0  0  0
   21.9480  -20.3918  -13.9267 N   0  0  0  0  0  0  0  0  0  0  0  0
   19.7682  -21.2954  -14.3448 C   0  0  0  0  0  0  0  0  0  0  0  0
   18.4741  -21.6679  -14.0717 O   0  0  0  0  0  0  0  0  0  0  0  0
   20.3683  -21.9014  -15.3028 O   0  0  0  0  0  0  0  0  0  0  0  0
  2  1  1  0
  2  3  2  0
  4  2  1  0
  5  4  1  0
  5  6  1  0
  6  7  1  6
  8  9  2  0
  8  6  1  0
 10  8  1  0
 11 10  1  0
 12 13  1  0
 11 12  1  6
 13 17  1  0
 13 14  2  0
 15 16  2  0
 15 11  1  0
 19 20  2  0
 19 18  1  0
 21 19  1  0
 22 21  1  0
 23 22  1  0
 25 24  1  6
 24 23  1  0
 25 26  1  0
 26 15  1  0
 27 25  1  0
 28 27  1  0
 29 27  2  0
M  END
$$$$
