QDR.pdb
     RDKit          3D

 29 28  0  0  1  0  0  0  0  0999 V2000
   27.7079  -23.2008  -17.9721 N   0  0  0  0  0  0  0  0  0  0  0  0
   27.5270  -22.3928  -19.1279 C   0  0  0  0  0  0  0  0  0  0  0  0
   27.8634  -22.8600  -20.2591 O   0  0  0  0  0  0  0  0  0  0  0  0
   26.9565  -21.0254  -19.0323 C   0  0  0  0  0  0  0  0  0  0  0  0
   26.4221  -20.7986  -17.6499 C   0  0  0  0  0  0  0  0  0  0  0  0
   27.4182  -20.1035  -16.7525 C   0  0  2  0  0  0  0  0  0  0  0  0
   28.7364  -20.3918  -17.2844 N   0  0  0  0  0  0  0  0  0  0  0  0
   27.3078  -20.6628  -15.3810 C   0  0  0  0  0  0  0  0  0  0  0  0
   26.6543  -21.6969  -15.1786 O   0  0  0  0  0  0  0  0  0  0  0  0
   27.9372  -20.0442  -14.2644 N   0  0  0  0  0  0  0  0  0  0  0  0
   27.8671  -20.5535  -12.9288 C   0  0  1  0  0  0  0  0  0  0  0  0
   29.1332  -20.4346  -12.1409 C   0  0  0  0  0  0  0  0  0  0  0  0
   30.2163  -21.1626  -12.7970 C   0  0  0  0  0  0  0  0  0  0  0  0
   30.0248  -22.3487  -13.2087 O   0  0  0  0  0  0  0  0  0  0  0  0
   26.7857  -19.8363  -12.1840 C   0  0  0  0  0  0  0  0  0  0  0  0
   26.5731  -18.6011  -12.4487 O   0  0  0  0  0  0  0  0  0  0  0  0
   31.4812  -20.6489  -13.0150 O   0  0  0  0  0  0  0  0  0  0  0  0
   20.6720  -18.4362  -14.6678 N   0  0  0  0  0  0  0  0  0  0  0  0
   19.8495  -19.4866  -14.2065 C   0  0  0  0  0  0  0  0  0  0  0  0
   18.5564  -19.3347  -14.1945 N   0  0  0  0  0  0  0  0  0  0  0  0
   20.4079  -20.7106  -13.7546 N   0  0  0  0  0  0  0  0  0  0  0  0
   21.8314  -20.9637  -13.7370 C   0  0  0  0  0  0  0  0  0  0  0  0
   22.4537  -20.4813  -12.4322 C   0  0  0  0  0  0  0  0  0  0  0  0
   23.9292  -20.6969  -12.4094 C   0  0  0  0  0  0  0  0  0  0  0  0
   24.5670  -20.2268  -11.1282 C   0  0  2  0  0  0  0  0  0  0  0  0
   26.0157  -20.5167  -11.2069 N   0  0  0  0  0  0  0  0  0  0  0  0
   24.0032  -20.9961   -9.9975 C   0  0  0  0  0  0  0  0  0  0  0  0
   22.7508  -20.7950   -9.4691 O   0  0  0  0  0  0  0  0  0  0  0  0
   24.7280  -21.9125   -9.4684 O   0  0  0  0  0  0  0  0  0  0  0  0
  2  1  1  0
  2  3  2  0
  4  2  1  0
  5  4  1  0
  5  6  1  0
  6  7  1  6
  8  9  2  0
  8  6  1  0
 10  8  1  0
 11 10  1  0
 12 13  1  0
 11 12  1  1
 13 17  1  0
 13 14  2  0
 15 16  2  0
 15 11  1  0
 19 20  2  0
 19 18  1  0
 21 19  1  0
 22 21  1  0
 23 22  1  0
 25 24  1  6
 24 23  1  0
 25 26  1  0
 26 15  1  0
 27 25  1  0
 28 27  1  0
 29 27  2  0
M  END
$$$$
