QDR.pdb
     RDKit          3D

 29 28  0  0  1  0  0  0  0  0999 V2000
   20.9011  -20.3433  -11.2672 N   0  0  0  0  0  0  0  0  0  0  0  0
   20.5085  -19.7714  -12.5082 C   0  0  0  0  0  0  0  0  0  0  0  0
   20.7239  -18.5365  -12.7076 O   0  0  0  0  0  0  0  0  0  0  0  0
   19.8573  -20.5883  -13.5632 C   0  0  0  0  0  0  0  0  0  0  0  0
   19.7924  -22.0200  -13.1227 C   0  0  0  0  0  0  0  0  0  0  0  0
   18.4764  -22.3630  -12.4659 C   0  0  2  0  0  0  0  0  0  0  0  0
   17.9883  -21.1480  -11.8420 N   0  0  0  0  0  0  0  0  0  0  0  0
   18.7097  -23.3931  -11.4216 C   0  0  0  0  0  0  0  0  0  0  0  0
   19.2092  -24.4870  -11.7235 O   0  0  0  0  0  0  0  0  0  0  0  0
   18.3750  -23.1684  -10.0567 N   0  0  0  0  0  0  0  0  0  0  0  0
   18.6111  -24.1187   -9.0129 C   0  0  1  0  0  0  0  0  0  0  0  0
   19.0628  -23.5300   -7.7140 C   0  0  0  0  0  0  0  0  0  0  0  0
   19.3352  -24.5838   -6.7399 C   0  0  0  0  0  0  0  0  0  0  0  0
   19.9180  -25.6510   -7.1066 O   0  0  0  0  0  0  0  0  0  0  0  0
   17.3578  -24.8961   -8.7614 C   0  0  0  0  0  0  0  0  0  0  0  0
   16.2369  -24.2762   -8.7784 O   0  0  0  0  0  0  0  0  0  0  0  0
   18.9981  -24.5142   -5.4009 O   0  0  0  0  0  0  0  0  0  0  0  0
   16.4904  -33.5681   -7.9035 N   0  0  0  0  0  0  0  0  0  0  0  0
   17.0932  -32.4964   -7.2102 C   0  0  0  0  0  0  0  0  0  0  0  0
   18.1357  -32.7180   -6.4624 N   0  0  0  0  0  0  0  0  0  0  0  0
   16.5826  -31.1763   -7.3144 N   0  0  0  0  0  0  0  0  0  0  0  0
   15.5355  -30.8116   -8.2425 C   0  0  0  0  0  0  0  0  0  0  0  0
   15.2187  -29.3240   -8.1480 C   0  0  0  0  0  0  0  0  0  0  0  0
   16.4489  -28.4878   -8.2545 C   0  0  0  0  0  0  0  0  0  0  0  0
   16.1521  -27.0110   -8.2482 C   0  0  2  0  0  0  0  0  0  0  0  0
   17.4173  -26.2905   -8.5105 N   0  0  0  0  0  0  0  0  0  0  0  0
   15.6689  -26.6213   -6.9054 C   0  0  0  0  0  0  0  0  0  0  0  0
   14.3496  -26.4070   -6.5867 O   0  0  0  0  0  0  0  0  0  0  0  0
   16.5351  -26.4693   -5.9717 O   0  0  0  0  0  0  0  0  0  0  0  0
  2  1  1  0
  2  3  2  0
  4  2  1  0
  5  4  1  0
  5  6  1  0
  6  7  1  1
  8  9  2  0
  8  6  1  0
 10  8  1  0
 11 10  1  0
 12 13  1  0
 11 12  1  1
 13 17  1  0
 13 14  2  0
 15 16  2  0
 15 11  1  0
 19 20  2  0
 19 18  1  0
 21 19  1  0
 22 21  1  0
 23 22  1  0
 25 24  1  1
 24 23  1  0
 25 26  1  0
 26 15  1  0
 27 25  1  0
 28 27  1  0
 29 27  2  0
M  END
$$$$
