QDR.pdb
     RDKit          3D

 29 28  0  0  1  0  0  0  0  0999 V2000
   18.7646  -25.6548   -5.9922 N   0  0  0  0  0  0  0  0  0  0  0  0
   17.4615  -26.1048   -6.3401 C   0  0  0  0  0  0  0  0  0  0  0  0
   16.9904  -27.1265   -5.7523 O   0  0  0  0  0  0  0  0  0  0  0  0
   16.6523  -25.4050   -7.3697 C   0  0  0  0  0  0  0  0  0  0  0  0
   17.4477  -24.2760   -7.9532 C   0  0  0  0  0  0  0  0  0  0  0  0
   16.7782  -23.6605   -9.1589 C   0  0  2  0  0  0  0  0  0  0  0  0
   15.7863  -24.6125   -9.6210 N   0  0  0  0  0  0  0  0  0  0  0  0
   17.7932  -23.4516  -10.2230 C   0  0  0  0  0  0  0  0  0  0  0  0
   18.8756  -22.9088   -9.9562 O   0  0  0  0  0  0  0  0  0  0  0  0
   17.5668  -23.8594  -11.5676 N   0  0  0  0  0  0  0  0  0  0  0  0
   18.5446  -23.7509  -12.6070 C   0  0  1  0  0  0  0  0  0  0  0  0
   18.4335  -24.7795  -13.6876 C   0  0  0  0  0  0  0  0  0  0  0  0
   19.5284  -24.6393  -14.6442 C   0  0  0  0  0  0  0  0  0  0  0  0
   20.7319  -24.6718  -14.2398 O   0  0  0  0  0  0  0  0  0  0  0  0
   18.4442  -22.3985  -13.2390 C   0  0  0  0  0  0  0  0  0  0  0  0
   17.3296  -21.7707  -13.1719 O   0  0  0  0  0  0  0  0  0  0  0  0
   19.3575  -24.4669  -16.0053 O   0  0  0  0  0  0  0  0  0  0  0  0
   24.5754  -16.4812  -16.2582 N   0  0  0  0  0  0  0  0  0  0  0  0
   23.2985  -15.8796  -16.2756 C   0  0  0  0  0  0  0  0  0  0  0  0
   23.1858  -14.6154  -16.5661 N   0  0  0  0  0  0  0  0  0  0  0  0
   22.1304  -16.6305  -15.9823 N   0  0  0  0  0  0  0  0  0  0  0  0
   22.1749  -17.9640  -15.4251 C   0  0  0  0  0  0  0  0  0  0  0  0
   20.7701  -18.5298  -15.2552 C   0  0  0  0  0  0  0  0  0  0  0  0
   20.7889  -19.8747  -14.6110 C   0  0  0  0  0  0  0  0  0  0  0  0
   19.4168  -20.4862  -14.4987 C   0  0  2  0  0  0  0  0  0  0  0  0
   19.5642  -21.8295  -13.8964 N   0  0  0  0  0  0  0  0  0  0  0  0
   18.8478  -20.6482  -15.8545 C   0  0  0  0  0  0  0  0  0  0  0  0
   18.0799  -19.7039  -16.4924 O   0  0  0  0  0  0  0  0  0  0  0  0
   19.0812  -21.7425  -16.4815 O   0  0  0  0  0  0  0  0  0  0  0  0
  2  1  1  0
  2  3  2  0
  4  2  1  0
  5  4  1  0
  5  6  1  0
  6  7  1  6
  8  9  2  0
  8  6  1  0
 10  8  1  0
 11 10  1  0
 12 13  1  0
 11 12  1  6
 13 17  1  0
 13 14  2  0
 15 16  2  0
 15 11  1  0
 19 20  2  0
 19 18  1  0
 21 19  1  0
 22 21  1  0
 23 22  1  0
 25 24  1  6
 24 23  1  0
 25 26  1  0
 26 15  1  0
 27 25  1  0
 28 27  1  0
 29 27  2  0
M  END
$$$$
