QDR.pdb
     RDKit          3D

 29 28  0  0  1  0  0  0  0  0999 V2000
   26.5314  -16.5473  -22.6038 N   0  0  0  0  0  0  0  0  0  0  0  0
   27.9065  -16.5581  -22.2425 C   0  0  0  0  0  0  0  0  0  0  0  0
   28.7033  -15.7760  -22.8463 O   0  0  0  0  0  0  0  0  0  0  0  0
   28.4187  -17.4609  -21.1809 C   0  0  0  0  0  0  0  0  0  0  0  0
   27.3114  -18.3489  -20.6980 C   0  0  0  0  0  0  0  0  0  0  0  0
   26.5590  -17.7520  -19.5324 C   0  0  2  0  0  0  0  0  0  0  0  0
   27.5423  -17.1081  -18.6824 N   0  0  0  0  0  0  0  0  0  0  0  0
   25.8929  -18.8427  -18.7756 C   0  0  0  0  0  0  0  0  0  0  0  0
   25.1368  -19.6350  -19.3568 O   0  0  0  0  0  0  0  0  0  0  0  0
   26.0933  -19.0181  -17.3776 N   0  0  0  0  0  0  0  0  0  0  0  0
   25.4551  -20.0394  -16.6045 C   0  0  1  0  0  0  0  0  0  0  0  0
   26.3407  -20.7277  -15.6146 C   0  0  0  0  0  0  0  0  0  0  0  0
   27.1588  -21.7413  -16.2756 C   0  0  0  0  0  0  0  0  0  0  0  0
   26.9699  -22.0071  -17.5030 O   0  0  0  0  0  0  0  0  0  0  0  0
   24.2994  -19.4462  -15.8623 C   0  0  0  0  0  0  0  0  0  0  0  0
   24.5388  -18.6310  -14.9036 O   0  0  0  0  0  0  0  0  0  0  0  0
   28.1595  -22.4636  -15.6525 O   0  0  0  0  0  0  0  0  0  0  0  0
   18.2216  -14.6279  -17.5384 N   0  0  0  0  0  0  0  0  0  0  0  0
   17.3380  -15.6577  -17.1491 C   0  0  0  0  0  0  0  0  0  0  0  0
   16.0561  -15.5051  -17.3185 N   0  0  0  0  0  0  0  0  0  0  0  0
   17.8231  -16.8616  -16.5750 N   0  0  0  0  0  0  0  0  0  0  0  0
   19.1716  -17.0031  -16.0729 C   0  0  0  0  0  0  0  0  0  0  0  0
   19.4793  -18.4587  -15.7429 C   0  0  0  0  0  0  0  0  0  0  0  0
   20.7191  -18.9309  -16.4241 C   0  0  0  0  0  0  0  0  0  0  0  0
   21.8603  -19.1559  -15.4668 C   0  0  2  0  0  0  0  0  0  0  0  0
   22.9691  -19.7836  -16.2187 N   0  0  0  0  0  0  0  0  0  0  0  0
   21.4270  -20.0977  -14.4116 C   0  0  0  0  0  0  0  0  0  0  0  0
   20.8789  -19.7189  -13.2099 O   0  0  0  0  0  0  0  0  0  0  0  0
   21.5721  -21.3540  -14.6256 O   0  0  0  0  0  0  0  0  0  0  0  0
  2  1  1  0
  2  3  2  0
  4  2  1  0
  5  4  1  0
  5  6  1  0
  6  7  1  1
  8  9  2  0
  8  6  1  0
 10  8  1  0
 11 10  1  0
 12 13  1  0
 11 12  1  1
 13 17  1  0
 13 14  2  0
 15 16  2  0
 15 11  1  0
 19 20  2  0
 19 18  1  0
 21 19  1  0
 22 21  1  0
 23 22  1  0
 25 24  1  6
 24 23  1  0
 25 26  1  0
 26 15  1  0
 27 25  1  0
 28 27  1  0
 29 27  2  0
M  END
$$$$
