QDR.pdb
     RDKit          3D

 29 28  0  0  1  0  0  0  0  0999 V2000
   31.6918  -22.1704  -10.7447 N   0  0  0  0  0  0  0  0  0  0  0  0
   31.1781  -22.1330   -9.4194 C   0  0  0  0  0  0  0  0  0  0  0  0
   31.7449  -22.8317   -8.5241 O   0  0  0  0  0  0  0  0  0  0  0  0
   30.0011  -21.2977   -9.0710 C   0  0  0  0  0  0  0  0  0  0  0  0
   29.5302  -20.5591  -10.2879 C   0  0  0  0  0  0  0  0  0  0  0  0
   28.0553  -20.7542  -10.5472 C   0  0  2  0  0  0  0  0  0  0  0  0
   27.8196  -22.1851  -10.5795 N   0  0  0  0  0  0  0  0  0  0  0  0
   27.7139  -20.1693  -11.8691 C   0  0  0  0  0  0  0  0  0  0  0  0
   27.8085  -18.9470  -12.0547 O   0  0  0  0  0  0  0  0  0  0  0  0
   27.2725  -20.9751  -12.9559 N   0  0  0  0  0  0  0  0  0  0  0  0
   26.9278  -20.4544  -14.2436 C   0  0  1  0  0  0  0  0  0  0  0  0
   27.4783  -21.2230  -15.4030 C   0  0  0  0  0  0  0  0  0  0  0  0
   27.1732  -20.5444  -16.6600 C   0  0  0  0  0  0  0  0  0  0  0  0
   28.0371  -19.7827  -17.1953 O   0  0  0  0  0  0  0  0  0  0  0  0
   25.4381  -20.4143  -14.3764 C   0  0  0  0  0  0  0  0  0  0  0  0
   24.7543  -21.3965  -13.9196 O   0  0  0  0  0  0  0  0  0  0  0  0
   25.9765  -20.6662  -17.3415 O   0  0  0  0  0  0  0  0  0  0  0  0
   22.3235  -13.9059  -17.8718 N   0  0  0  0  0  0  0  0  0  0  0  0
   21.1683  -14.6983  -17.6975 C   0  0  0  0  0  0  0  0  0  0  0  0
   20.0050  -14.2260  -18.0424 N   0  0  0  0  0  0  0  0  0  0  0  0
   21.2518  -16.0058  -17.1520 N   0  0  0  0  0  0  0  0  0  0  0  0
   21.0071  -16.2899  -15.7556 C   0  0  0  0  0  0  0  0  0  0  0  0
   21.4146  -17.7174  -15.4113 C   0  0  0  0  0  0  0  0  0  0  0  0
   22.8963  -17.8860  -15.4125 C   0  0  0  0  0  0  0  0  0  0  0  0
   23.3244  -19.2808  -15.0380 C   0  0  2  0  0  0  0  0  0  0  0  0
   24.8031  -19.3081  -14.9958 N   0  0  0  0  0  0  0  0  0  0  0  0
   22.8752  -20.2219  -16.0872 C   0  0  0  0  0  0  0  0  0  0  0  0
   21.7506  -21.0062  -15.9972 O   0  0  0  0  0  0  0  0  0  0  0  0
   23.5799  -20.3189  -17.1545 O   0  0  0  0  0  0  0  0  0  0  0  0
  2  1  1  0
  2  3  2  0
  4  2  1  0
  5  4  1  0
  5  6  1  0
  6  7  1  6
  8  9  2  0
  8  6  1  0
 10  8  1  0
 11 10  1  0
 12 13  1  0
 11 12  1  6
 13 17  1  0
 13 14  2  0
 15 16  2  0
 15 11  1  0
 19 20  2  0
 19 18  1  0
 21 19  1  0
 22 21  1  0
 23 22  1  0
 25 24  1  6
 24 23  1  0
 25 26  1  0
 26 15  1  0
 27 25  1  0
 28 27  1  0
 29 27  2  0
M  END
$$$$
