EWT.pdb
     RDKit          3D

 31 32  0  0  1  0  0  0  0  0999 V2000
   28.5358  -21.9438  -14.9118 N   0  0  0  0  0  0  0  0  0  0  0  0
   28.0216  -20.7877  -14.2468 C   0  0  1  0  0  0  0  0  0  0  0  0
   27.5566  -19.6737  -15.1246 C   0  0  0  0  0  0  0  0  0  0  0  0
   26.3707  -19.9382  -15.9679 C   0  0  0  0  0  0  0  0  0  0  0  0
   25.3426  -18.8924  -16.0358 C   0  0  0  0  0  0  0  0  0  0  0  0
   25.4783  -17.6754  -15.8853 O   0  0  0  0  0  0  0  0  0  0  0  0
   26.9351  -21.1754  -13.2697 C   0  0  0  0  0  0  0  0  0  0  0  0
   26.3053  -22.2183  -13.4951 O   0  0  0  0  0  0  0  0  0  0  0  0
   24.0275  -19.3368  -16.3090 O   0  0  0  0  0  0  0  0  0  0  0  0
   26.6371  -20.3810  -12.1319 N   0  0  0  0  0  0  0  0  0  0  0  0
   25.6451  -20.8228  -11.1385 C   0  0  1  0  0  0  0  0  0  0  0  0
   25.9126  -20.1888   -9.8101 C   0  0  0  0  0  0  0  0  0  0  0  0
   27.1947  -20.5087   -9.2035 C   0  0  0  0  0  0  0  0  0  0  0  0
   28.1643  -21.3267   -9.7360 C   0  0  0  0  0  0  0  0  0  0  0  0
   29.2118  -21.3774   -8.8697 N   0  0  0  0  0  0  0  0  0  0  0  0
   28.9569  -20.6244   -7.7993 C   0  0  0  0  0  0  0  0  0  0  0  0
   29.6386  -20.3147   -6.6452 C   0  0  0  0  0  0  0  0  0  0  0  0
   29.1385  -19.4830   -5.6642 C   0  0  0  0  0  0  0  0  0  0  0  0
   27.8869  -18.9492   -5.8805 C   0  0  0  0  0  0  0  0  0  0  0  0
   27.1913  -19.2501   -7.0319 C   0  0  0  0  0  0  0  0  0  0  0  0
   27.7062  -20.0822   -8.0000 C   0  0  0  0  0  0  0  0  0  0  0  0
   24.3177  -20.3596  -11.6212 C   0  0  0  0  0  0  0  0  0  0  0  0
   24.0264  -19.1341  -11.6520 O   0  0  0  0  0  0  0  0  0  0  0  0
   22.8657  -21.0409  -14.9492 C   0  0  0  0  0  0  0  0  0  0  0  0
   21.8725  -21.5377  -13.9260 C   0  0  1  0  0  0  0  0  0  0  0  0
   22.0427  -22.9195  -13.7224 O   0  0  0  0  0  0  0  0  0  0  0  0
   22.0802  -20.8361  -12.5911 C   0  0  2  0  0  0  0  0  0  0  0  0
   23.3447  -21.3101  -12.0615 N   0  0  0  0  0  0  0  0  0  0  0  0
   20.9706  -21.2803  -11.6897 C   0  0  0  0  0  0  0  0  0  0  0  0
   19.6639  -20.9119  -11.9034 O   0  0  0  0  0  0  0  0  0  0  0  0
   21.2232  -22.0091  -10.7077 O   0  0  0  0  0  0  0  0  0  0  0  0
  2  1  1  6
  3  2  1  0
  3  4  1  0
  5  4  1  0
  5  9  1  0
  6  5  2  0
  7  8  2  0
  7  2  1  0
 10  7  1  0
 11 10  1  0
 11 12  1  1
 12 13  1  0
 13 14  2  0
 13 21  1  0
 14 15  1  0
 15 16  1  0
 16 17  2  0
 18 17  1  0
 19 18  2  0
 20 21  2  0
 20 19  1  0
 21 16  1  0
 22 11  1  0
 23 22  2  0
 25 24  1  6
 25 27  1  0
 26 25  1  0
 27 29  1  0
 27 28  1  1
 28 22  1  0
 29 30  1  0
 31 29  2  0
M  END
$$$$
