EWT.pdb
     RDKit          3D

 31 32  0  0  1  0  0  0  0  0999 V2000
   28.4196  -22.2128  -14.9105 N   0  0  0  0  0  0  0  0  0  0  0  0
   27.4712  -21.1749  -14.6527 C   0  0  1  0  0  0  0  0  0  0  0  0
   26.4586  -20.9263  -15.7207 C   0  0  0  0  0  0  0  0  0  0  0  0
   26.9402  -20.2794  -16.9605 C   0  0  0  0  0  0  0  0  0  0  0  0
   28.1561  -19.4619  -16.8680 C   0  0  0  0  0  0  0  0  0  0  0  0
   29.3322  -19.8331  -16.9038 O   0  0  0  0  0  0  0  0  0  0  0  0
   26.7882  -21.3968  -13.3225 C   0  0  0  0  0  0  0  0  0  0  0  0
   25.7962  -22.1389  -13.3028 O   0  0  0  0  0  0  0  0  0  0  0  0
   27.9536  -18.0696  -16.7186 O   0  0  0  0  0  0  0  0  0  0  0  0
   27.2564  -20.7820  -12.1319 N   0  0  0  0  0  0  0  0  0  0  0  0
   26.5620  -20.9863  -10.8504 C   0  0  1  0  0  0  0  0  0  0  0  0
   27.3782  -20.4478   -9.7182 C   0  0  0  0  0  0  0  0  0  0  0  0
   26.7816  -20.5644   -8.3973 C   0  0  0  0  0  0  0  0  0  0  0  0
   25.5423  -21.0868   -8.1084 C   0  0  0  0  0  0  0  0  0  0  0  0
   25.3455  -21.0174   -6.7642 N   0  0  0  0  0  0  0  0  0  0  0  0
   26.4088  -20.4709   -6.1740 C   0  0  0  0  0  0  0  0  0  0  0  0
   26.7501  -20.1667   -4.8765 C   0  0  0  0  0  0  0  0  0  0  0  0
   27.9505  -19.5873   -4.5196 C   0  0  0  0  0  0  0  0  0  0  0  0
   28.8345  -19.3102   -5.5395 C   0  0  0  0  0  0  0  0  0  0  0  0
   28.5071  -19.6090   -6.8448 C   0  0  0  0  0  0  0  0  0  0  0  0
   27.3043  -20.1872   -7.1821 C   0  0  0  0  0  0  0  0  0  0  0  0
   25.2924  -20.2164  -10.9219 C   0  0  0  0  0  0  0  0  0  0  0  0
   25.2859  -18.9598  -10.8294 O   0  0  0  0  0  0  0  0  0  0  0  0
   23.0936  -19.6633  -13.6429 C   0  0  0  0  0  0  0  0  0  0  0  0
   22.2696  -20.3827  -12.6019 C   0  0  1  0  0  0  0  0  0  0  0  0
   22.3015  -21.7695  -12.8379 O   0  0  0  0  0  0  0  0  0  0  0  0
   22.8257  -20.1296  -11.2077 C   0  0  2  0  0  0  0  0  0  0  0  0
   24.0496  -20.9005  -11.0989 N   0  0  0  0  0  0  0  0  0  0  0  0
   21.8195  -20.6620  -10.2354 C   0  0  0  0  0  0  0  0  0  0  0  0
   22.0755  -21.7573   -9.4456 O   0  0  0  0  0  0  0  0  0  0  0  0
   20.7073  -20.1050  -10.1262 O   0  0  0  0  0  0  0  0  0  0  0  0
  2  1  1  6
  3  2  1  0
  3  4  1  0
  5  4  1  0
  5  9  1  0
  6  5  2  0
  7  8  2  0
  7  2  1  0
 10  7  1  0
 11 10  1  0
 11 12  1  1
 12 13  1  0
 13 14  2  0
 13 21  1  0
 14 15  1  0
 15 16  1  0
 16 17  2  0
 18 17  1  0
 19 18  2  0
 20 21  2  0
 20 19  1  0
 21 16  1  0
 22 11  1  0
 23 22  2  0
 25 24  1  6
 25 27  1  0
 26 25  1  0
 27 29  1  0
 27 28  1  6
 28 22  1  0
 29 30  1  0
 31 29  2  0
M  END
$$$$
