EWT.pdb
     RDKit          3D

 31 32  0  0  1  0  0  0  0  0999 V2000
   28.4801  -21.2531  -14.9000 N   0  0  0  0  0  0  0  0  0  0  0  0
   27.7615  -20.2425  -14.1891 C   0  0  1  0  0  0  0  0  0  0  0  0
   27.1558  -19.1579  -15.0165 C   0  0  0  0  0  0  0  0  0  0  0  0
   28.0737  -18.3868  -15.8827 C   0  0  0  0  0  0  0  0  0  0  0  0
   28.2745  -18.8700  -17.2543 C   0  0  0  0  0  0  0  0  0  0  0  0
   27.4205  -19.1462  -18.1008 O   0  0  0  0  0  0  0  0  0  0  0  0
   26.7161  -20.8648  -13.2917 C   0  0  0  0  0  0  0  0  0  0  0  0
   26.0845  -21.8352  -13.7327 O   0  0  0  0  0  0  0  0  0  0  0  0
   29.6198  -19.0411  -17.6574 O   0  0  0  0  0  0  0  0  0  0  0  0
   26.4575  -20.3638  -11.9891 N   0  0  0  0  0  0  0  0  0  0  0  0
   25.4762  -21.0167  -11.1076 C   0  0  1  0  0  0  0  0  0  0  0  0
   25.7311  -20.6556   -9.6783 C   0  0  0  0  0  0  0  0  0  0  0  0
   27.0913  -20.8609   -9.2072 C   0  0  0  0  0  0  0  0  0  0  0  0
   28.0815  -21.5569   -9.8609 C   0  0  0  0  0  0  0  0  0  0  0  0
   29.2076  -21.5271   -9.0984 N   0  0  0  0  0  0  0  0  0  0  0  0
   28.9834  -20.8394   -7.9784 C   0  0  0  0  0  0  0  0  0  0  0  0
   29.7390  -20.4982   -6.8806 C   0  0  0  0  0  0  0  0  0  0  0  0
   29.2556  -19.7545   -5.8235 C   0  0  0  0  0  0  0  0  0  0  0  0
   27.9420  -19.3460   -5.9003 C   0  0  0  0  0  0  0  0  0  0  0  0
   27.1720  -19.6799   -6.9938 C   0  0  0  0  0  0  0  0  0  0  0  0
   27.6714  -20.4228   -8.0394 C   0  0  0  0  0  0  0  0  0  0  0  0
   24.1386  -20.4951  -11.4925 C   0  0  0  0  0  0  0  0  0  0  0  0
   23.7468  -19.3601  -11.1106 O   0  0  0  0  0  0  0  0  0  0  0  0
   22.7848  -20.3821  -15.0925 C   0  0  0  0  0  0  0  0  0  0  0  0
   21.8245  -21.1343  -14.2024 C   0  0  1  0  0  0  0  0  0  0  0  0
   22.0641  -22.5175  -14.2975 O   0  0  0  0  0  0  0  0  0  0  0  0
   22.0066  -20.7239  -12.7479 C   0  0  2  0  0  0  0  0  0  0  0  0
   23.2710  -21.2841  -12.3101 N   0  0  0  0  0  0  0  0  0  0  0  0
   20.8923  -21.3579  -11.9749 C   0  0  0  0  0  0  0  0  0  0  0  0
   21.1065  -22.4039  -11.1094 O   0  0  0  0  0  0  0  0  0  0  0  0
   19.7251  -20.9350  -12.1092 O   0  0  0  0  0  0  0  0  0  0  0  0
  2  1  1  6
  3  2  1  0
  3  4  1  0
  5  4  1  0
  5  9  1  0
  6  5  2  0
  7  8  2  0
  7  2  1  0
 10  7  1  0
 11 10  1  0
 11 12  1  1
 12 13  1  0
 13 14  2  0
 13 21  1  0
 14 15  1  0
 15 16  1  0
 16 17  2  0
 18 17  1  0
 19 18  2  0
 20 21  2  0
 20 19  1  0
 21 16  1  0
 22 11  1  0
 23 22  2  0
 25 24  1  6
 25 27  1  0
 26 25  1  0
 27 29  1  0
 27 28  1  1
 28 22  1  0
 29 30  1  0
 31 29  2  0
M  END
$$$$
