EWT.pdb
     RDKit          3D

 31 32  0  0  1  0  0  0  0  0999 V2000
   28.5095  -21.5815  -14.4046 N   0  0  0  0  0  0  0  0  0  0  0  0
   27.2175  -20.9939  -14.5733 C   0  0  1  0  0  0  0  0  0  0  0  0
   26.5580  -21.2179  -15.8934 C   0  0  0  0  0  0  0  0  0  0  0  0
   26.9248  -20.2942  -16.9887 C   0  0  0  0  0  0  0  0  0  0  0  0
   28.2306  -19.6287  -16.9030 C   0  0  0  0  0  0  0  0  0  0  0  0
   29.3278  -20.0448  -17.2843 O   0  0  0  0  0  0  0  0  0  0  0  0
   26.2950  -21.4054  -13.4486 C   0  0  0  0  0  0  0  0  0  0  0  0
   25.7190  -22.4978  -13.5487 O   0  0  0  0  0  0  0  0  0  0  0  0
   28.2313  -18.3457  -16.3068 O   0  0  0  0  0  0  0  0  0  0  0  0
   26.0872  -20.5784  -12.3139 N   0  0  0  0  0  0  0  0  0  0  0  0
   25.2238  -21.0164  -11.2054 C   0  0  1  0  0  0  0  0  0  0  0  0
   25.6640  -20.3941   -9.9182 C   0  0  0  0  0  0  0  0  0  0  0  0
   26.9840  -20.7817   -9.4474 C   0  0  0  0  0  0  0  0  0  0  0  0
   27.8674  -21.6119  -10.0976 C   0  0  0  0  0  0  0  0  0  0  0  0
   28.9886  -21.7325   -9.3368 N   0  0  0  0  0  0  0  0  0  0  0  0
   28.8639  -21.0129   -8.2213 C   0  0  0  0  0  0  0  0  0  0  0  0
   29.6617  -20.7717   -7.1269 C   0  0  0  0  0  0  0  0  0  0  0  0
   29.2878  -19.9614   -6.0744 C   0  0  0  0  0  0  0  0  0  0  0  0
   28.0429  -19.3763   -6.1523 C   0  0  0  0  0  0  0  0  0  0  0  0
   27.2317  -19.6082   -7.2425 C   0  0  0  0  0  0  0  0  0  0  0  0
   27.6217  -20.4199   -8.2835 C   0  0  0  0  0  0  0  0  0  0  0  0
   23.8513  -20.5363  -11.5140 C   0  0  0  0  0  0  0  0  0  0  0  0
   23.5227  -19.3348  -11.3238 O   0  0  0  0  0  0  0  0  0  0  0  0
   22.1513  -20.7356  -14.8366 C   0  0  0  0  0  0  0  0  0  0  0  0
   21.2944  -21.4557  -13.8230 C   0  0  1  0  0  0  0  0  0  0  0  0
   21.5819  -22.8330  -13.8423 O   0  0  0  0  0  0  0  0  0  0  0  0
   21.5722  -20.9365  -12.4192 C   0  0  2  0  0  0  0  0  0  0  0  0
   22.8767  -21.4424  -12.0364 N   0  0  0  0  0  0  0  0  0  0  0  0
   20.5306  -21.5301  -11.5225 C   0  0  0  0  0  0  0  0  0  0  0  0
   19.2034  -21.1855  -11.6165 O   0  0  0  0  0  0  0  0  0  0  0  0
   20.8614  -22.3663  -10.6562 O   0  0  0  0  0  0  0  0  0  0  0  0
  2  1  1  6
  3  2  1  0
  3  4  1  0
  5  4  1  0
  5  9  1  0
  6  5  2  0
  7  8  2  0
  7  2  1  0
 10  7  1  0
 11 10  1  0
 11 12  1  1
 12 13  1  0
 13 14  2  0
 13 21  1  0
 14 15  1  0
 15 16  1  0
 16 17  2  0
 18 17  1  0
 19 18  2  0
 20 21  2  0
 20 19  1  0
 21 16  1  0
 22 11  1  0
 23 22  2  0
 25 24  1  6
 25 27  1  0
 26 25  1  0
 27 29  1  0
 27 28  1  1
 28 22  1  0
 29 30  1  0
 31 29  2  0
M  END
$$$$
