EWT.pdb
     RDKit          3D

 31 32  0  0  1  0  0  0  0  0999 V2000
   28.6527  -21.9185  -15.0041 N   0  0  0  0  0  0  0  0  0  0  0  0
   27.6753  -20.9117  -14.7319 C   0  0  1  0  0  0  0  0  0  0  0  0
   26.8949  -20.4158  -15.9037 C   0  0  0  0  0  0  0  0  0  0  0  0
   27.6449  -19.6735  -16.9399 C   0  0  0  0  0  0  0  0  0  0  0  0
   28.1398  -18.3366  -16.5890 C   0  0  0  0  0  0  0  0  0  0  0  0
   29.1895  -18.0358  -16.0146 O   0  0  0  0  0  0  0  0  0  0  0  0
   26.7417  -21.3606  -13.6309 C   0  0  0  0  0  0  0  0  0  0  0  0
   26.1640  -22.4471  -13.7751 O   0  0  0  0  0  0  0  0  0  0  0  0
   27.3063  -17.2540  -16.9563 O   0  0  0  0  0  0  0  0  0  0  0  0
   26.5257  -20.5740  -12.4693 N   0  0  0  0  0  0  0  0  0  0  0  0
   25.5331  -20.9728  -11.4584 C   0  0  1  0  0  0  0  0  0  0  0  0
   25.8379  -20.3328  -10.1410 C   0  0  0  0  0  0  0  0  0  0  0  0
   27.1082  -20.7021   -9.5374 C   0  0  0  0  0  0  0  0  0  0  0  0
   28.0948  -21.4625  -10.1211 C   0  0  0  0  0  0  0  0  0  0  0  0
   29.1229  -21.5890   -9.2395 N   0  0  0  0  0  0  0  0  0  0  0  0
   28.8390  -20.9402   -8.1098 C   0  0  0  0  0  0  0  0  0  0  0  0
   29.4924  -20.7362   -6.9165 C   0  0  0  0  0  0  0  0  0  0  0  0
   28.9649  -20.0017   -5.8742 C   0  0  0  0  0  0  0  0  0  0  0  0
   27.7150  -19.4556   -6.0687 C   0  0  0  0  0  0  0  0  0  0  0  0
   27.0475  -19.6512   -7.2588 C   0  0  0  0  0  0  0  0  0  0  0  0
   27.5896  -20.3872   -8.2879 C   0  0  0  0  0  0  0  0  0  0  0  0
   24.2149  -20.4730  -11.9297 C   0  0  0  0  0  0  0  0  0  0  0  0
   23.9973  -19.2398  -12.0694 O   0  0  0  0  0  0  0  0  0  0  0  0
   22.6960  -21.2780  -15.1415 C   0  0  0  0  0  0  0  0  0  0  0  0
   21.6899  -21.6751  -14.0876 C   0  0  1  0  0  0  0  0  0  0  0  0
   21.8129  -23.0466  -13.7984 O   0  0  0  0  0  0  0  0  0  0  0  0
   21.9268  -20.8993  -12.7996 C   0  0  2  0  0  0  0  0  0  0  0  0
   23.1665  -21.3962  -12.2336 N   0  0  0  0  0  0  0  0  0  0  0  0
   20.7954  -21.2324  -11.8775 C   0  0  0  0  0  0  0  0  0  0  0  0
   19.5132  -20.7938  -12.1063 O   0  0  0  0  0  0  0  0  0  0  0  0
   21.0064  -21.9301  -10.8636 O   0  0  0  0  0  0  0  0  0  0  0  0
  2  1  1  6
  3  2  1  0
  3  4  1  0
  5  4  1  0
  5  9  1  0
  6  5  2  0
  7  8  2  0
  7  2  1  0
 10  7  1  0
 11 10  1  0
 11 12  1  1
 12 13  1  0
 13 14  2  0
 13 21  1  0
 14 15  1  0
 15 16  1  0
 16 17  2  0
 18 17  1  0
 19 18  2  0
 20 21  2  0
 20 19  1  0
 21 16  1  0
 22 11  1  0
 23 22  2  0
 25 24  1  6
 25 27  1  0
 26 25  1  0
 27 29  1  0
 27 28  1  1
 28 22  1  0
 29 30  1  0
 31 29  2  0
M  END
$$$$
