EWT.pdb
     RDKit          3D

 31 32  0  0  1  0  0  0  0  0999 V2000
   27.8383  -23.4341  -16.4028 N   0  0  0  0  0  0  0  0  0  0  0  0
   27.6062  -22.1135  -15.9075 C   0  0  1  0  0  0  0  0  0  0  0  0
   26.9078  -21.1745  -16.8339 C   0  0  0  0  0  0  0  0  0  0  0  0
   27.6194  -20.8114  -18.0786 C   0  0  0  0  0  0  0  0  0  0  0  0
   28.8283  -19.9884  -17.9507 C   0  0  0  0  0  0  0  0  0  0  0  0
   29.9984  -20.3611  -17.8313 O   0  0  0  0  0  0  0  0  0  0  0  0
   26.8948  -22.1627  -14.5745 C   0  0  0  0  0  0  0  0  0  0  0  0
   25.8986  -22.8936  -14.4818 O   0  0  0  0  0  0  0  0  0  0  0  0
   28.6260  -18.5882  -17.9662 O   0  0  0  0  0  0  0  0  0  0  0  0
   27.3416  -21.4029  -13.4621 N   0  0  0  0  0  0  0  0  0  0  0  0
   26.6196  -21.4405  -12.1801 C   0  0  1  0  0  0  0  0  0  0  0  0
   27.4653  -20.8747  -11.0834 C   0  0  0  0  0  0  0  0  0  0  0  0
   26.7910  -20.6558   -9.8139 C   0  0  0  0  0  0  0  0  0  0  0  0
   25.4320  -20.5648   -9.6204 C   0  0  0  0  0  0  0  0  0  0  0  0
   25.1959  -20.3544   -8.2974 N   0  0  0  0  0  0  0  0  0  0  0  0
   26.3487  -20.3059   -7.6292 C   0  0  0  0  0  0  0  0  0  0  0  0
   26.7007  -20.1242   -6.3118 C   0  0  0  0  0  0  0  0  0  0  0  0
   28.0064  -20.1173   -5.8654 C   0  0  0  0  0  0  0  0  0  0  0  0
   28.9883  -20.3051   -6.8134 C   0  0  0  0  0  0  0  0  0  0  0  0
   28.6516  -20.4885   -8.1375 C   0  0  0  0  0  0  0  0  0  0  0  0
   27.3431  -20.4923   -8.5646 C   0  0  0  0  0  0  0  0  0  0  0  0
   25.4179  -20.5799  -12.3382 C   0  0  0  0  0  0  0  0  0  0  0  0
   25.5255  -19.3424  -12.5493 O   0  0  0  0  0  0  0  0  0  0  0  0
   23.3987  -19.9190  -14.8295 C   0  0  0  0  0  0  0  0  0  0  0  0
   22.4364  -20.5036  -13.8232 C   0  0  1  0  0  0  0  0  0  0  0  0
   22.2980  -21.8872  -14.0382 O   0  0  0  0  0  0  0  0  0  0  0  0
   22.9503  -20.2965  -12.4054 C   0  0  2  0  0  0  0  0  0  0  0  0
   24.1110  -21.1529  -12.2517 N   0  0  0  0  0  0  0  0  0  0  0  0
   21.8693  -20.7604  -11.4795 C   0  0  0  0  0  0  0  0  0  0  0  0
   20.6870  -20.0746  -11.3352 O   0  0  0  0  0  0  0  0  0  0  0  0
   22.0309  -21.8017  -10.8095 O   0  0  0  0  0  0  0  0  0  0  0  0
  2  1  1  6
  3  2  1  0
  3  4  1  0
  5  4  1  0
  5  9  1  0
  6  5  2  0
  7  8  2  0
  7  2  1  0
 10  7  1  0
 11 10  1  0
 11 12  1  1
 12 13  1  0
 13 14  2  0
 13 21  1  0
 14 15  1  0
 15 16  1  0
 16 17  2  0
 18 17  1  0
 19 18  2  0
 20 21  2  0
 20 19  1  0
 21 16  1  0
 22 11  1  0
 23 22  2  0
 25 24  1  6
 25 27  1  0
 26 25  1  0
 27 29  1  0
 27 28  1  6
 28 22  1  0
 29 30  1  0
 31 29  2  0
M  END
$$$$
