EWT.pdb
     RDKit          3D

 31 32  0  0  1  0  0  0  0  0999 V2000
   27.7827  -23.4993  -16.6662 N   0  0  0  0  0  0  0  0  0  0  0  0
   27.4234  -22.1712  -16.2787 C   0  0  1  0  0  0  0  0  0  0  0  0
   26.5902  -21.4030  -17.2500 C   0  0  0  0  0  0  0  0  0  0  0  0
   27.2462  -20.9834  -18.5073 C   0  0  0  0  0  0  0  0  0  0  0  0
   28.3338  -20.0023  -18.4076 C   0  0  0  0  0  0  0  0  0  0  0  0
   28.2560  -18.7969  -18.1562 O   0  0  0  0  0  0  0  0  0  0  0  0
   26.7723  -22.1730  -14.9143 C   0  0  0  0  0  0  0  0  0  0  0  0
   25.8364  -22.9627  -14.7255 O   0  0  0  0  0  0  0  0  0  0  0  0
   29.6385  -20.5029  -18.6282 O   0  0  0  0  0  0  0  0  0  0  0  0
   27.2080  -21.3054  -13.8789 N   0  0  0  0  0  0  0  0  0  0  0  0
   26.4975  -21.2464  -12.5912 C   0  0  1  0  0  0  0  0  0  0  0  0
   27.2816  -20.4539  -11.5937 C   0  0  0  0  0  0  0  0  0  0  0  0
   26.6117  -20.1866  -10.3312 C   0  0  0  0  0  0  0  0  0  0  0  0
   25.2937  -19.8265  -10.1707 C   0  0  0  0  0  0  0  0  0  0  0  0
   25.0479  -19.6628   -8.8429 N   0  0  0  0  0  0  0  0  0  0  0  0
   26.1551  -19.9031   -8.1399 C   0  0  0  0  0  0  0  0  0  0  0  0
   26.4783  -19.8903   -6.8028 C   0  0  0  0  0  0  0  0  0  0  0  0
   27.7362  -20.1879   -6.3195 C   0  0  0  0  0  0  0  0  0  0  0  0
   28.6991  -20.5116   -7.2504 C   0  0  0  0  0  0  0  0  0  0  0  0
   28.3906  -20.5287   -8.5938 C   0  0  0  0  0  0  0  0  0  0  0  0
   27.1298  -20.2289   -9.0576 C   0  0  0  0  0  0  0  0  0  0  0  0
   25.2111  -20.5450  -12.8417 C   0  0  0  0  0  0  0  0  0  0  0  0
   25.1834  -19.3213  -13.1411 O   0  0  0  0  0  0  0  0  0  0  0  0
   22.7512  -20.7601  -15.3963 C   0  0  0  0  0  0  0  0  0  0  0  0
   22.0322  -21.1429  -14.1247 C   0  0  1  0  0  0  0  0  0  0  0  0
   22.0322  -22.5419  -13.9751 O   0  0  0  0  0  0  0  0  0  0  0  0
   22.7274  -20.5397  -12.9123 C   0  0  2  0  0  0  0  0  0  0  0  0
   23.9762  -21.2586  -12.7452 N   0  0  0  0  0  0  0  0  0  0  0  0
   21.8458  -20.8018  -11.7310 C   0  0  0  0  0  0  0  0  0  0  0  0
   20.6312  -20.1782  -11.5734 O   0  0  0  0  0  0  0  0  0  0  0  0
   22.2107  -21.6099  -10.8518 O   0  0  0  0  0  0  0  0  0  0  0  0
  2  1  1  6
  3  2  1  0
  3  4  1  0
  5  4  1  0
  5  9  1  0
  6  5  2  0
  7  8  2  0
  7  2  1  0
 10  7  1  0
 11 10  1  0
 11 12  1  1
 12 13  1  0
 13 14  2  0
 13 21  1  0
 14 15  1  0
 15 16  1  0
 16 17  2  0
 18 17  1  0
 19 18  2  0
 20 21  2  0
 20 19  1  0
 21 16  1  0
 22 11  1  0
 23 22  2  0
 25 24  1  6
 25 27  1  0
 26 25  1  0
 27 29  1  0
 27 28  1  1
 28 22  1  0
 29 30  1  0
 31 29  2  0
M  END
$$$$
