EWT.pdb
     RDKit          3D

 31 32  0  0  1  0  0  0  0  0999 V2000
   28.0031  -22.5454  -15.4168 N   0  0  0  0  0  0  0  0  0  0  0  0
   28.2865  -21.4263  -14.5739 C   0  0  1  0  0  0  0  0  0  0  0  0
   28.2731  -20.0858  -15.2302 C   0  0  0  0  0  0  0  0  0  0  0  0
   27.2061  -19.8394  -16.2244 C   0  0  0  0  0  0  0  0  0  0  0  0
   26.1951  -18.8274  -15.8942 C   0  0  0  0  0  0  0  0  0  0  0  0
   24.9878  -18.9880  -15.6971 O   0  0  0  0  0  0  0  0  0  0  0  0
   27.3795  -21.4282  -13.3645 C   0  0  0  0  0  0  0  0  0  0  0  0
   26.2912  -22.0120  -13.4636 O   0  0  0  0  0  0  0  0  0  0  0  0
   26.6652  -17.4972  -15.7882 O   0  0  0  0  0  0  0  0  0  0  0  0
   27.7498  -20.7870  -12.1535 N   0  0  0  0  0  0  0  0  0  0  0  0
   26.9140  -20.9048  -10.9478 C   0  0  1  0  0  0  0  0  0  0  0  0
   27.5834  -20.2553   -9.7782 C   0  0  0  0  0  0  0  0  0  0  0  0
   26.9197  -20.4245   -8.4956 C   0  0  0  0  0  0  0  0  0  0  0  0
   25.6433  -20.8977   -8.2972 C   0  0  0  0  0  0  0  0  0  0  0  0
   25.3866  -20.9044   -6.9614 N   0  0  0  0  0  0  0  0  0  0  0  0
   26.4468  -20.4543   -6.2897 C   0  0  0  0  0  0  0  0  0  0  0  0
   26.7408  -20.2526   -4.9610 C   0  0  0  0  0  0  0  0  0  0  0  0
   27.9505  -19.7620   -4.5136 C   0  0  0  0  0  0  0  0  0  0  0  0
   28.8947  -19.4675   -5.4728 C   0  0  0  0  0  0  0  0  0  0  0  0
   28.6152  -19.6640   -6.8083 C   0  0  0  0  0  0  0  0  0  0  0  0
   27.4023  -20.1545   -7.2361 C   0  0  0  0  0  0  0  0  0  0  0  0
   25.6490  -20.1766  -11.2289 C   0  0  0  0  0  0  0  0  0  0  0  0
   25.6317  -18.9225  -11.3500 O   0  0  0  0  0  0  0  0  0  0  0  0
   23.5795  -20.1882  -14.0861 C   0  0  0  0  0  0  0  0  0  0  0  0
   22.6724  -20.6468  -12.9693 C   0  0  1  0  0  0  0  0  0  0  0  0
   22.6175  -22.0525  -12.9412 O   0  0  0  0  0  0  0  0  0  0  0  0
   23.1955  -20.1691  -11.6220 C   0  0  2  0  0  0  0  0  0  0  0  0
   24.4229  -20.8988  -11.3670 N   0  0  0  0  0  0  0  0  0  0  0  0
   22.1725  -20.5519  -10.5983 C   0  0  0  0  0  0  0  0  0  0  0  0
   20.9372  -19.9522  -10.5401 O   0  0  0  0  0  0  0  0  0  0  0  0
   22.4338  -21.4428   -9.7632 O   0  0  0  0  0  0  0  0  0  0  0  0
  2  1  1  6
  3  2  1  0
  3  4  1  0
  5  4  1  0
  5  9  1  0
  6  5  2  0
  7  8  2  0
  7  2  1  0
 10  7  1  0
 11 10  1  0
 11 12  1  1
 12 13  1  0
 13 14  2  0
 13 21  1  0
 14 15  1  0
 15 16  1  0
 16 17  2  0
 18 17  1  0
 19 18  2  0
 20 21  2  0
 20 19  1  0
 21 16  1  0
 22 11  1  0
 23 22  2  0
 25 24  1  6
 25 27  1  0
 26 25  1  0
 27 29  1  0
 27 28  1  1
 28 22  1  0
 29 30  1  0
 31 29  2  0
M  END
$$$$
