EWT.pdb
     RDKit          3D

 31 32  0  0  1  0  0  0  0  0999 V2000
   28.6194  -22.5148  -15.4264 N   0  0  0  0  0  0  0  0  0  0  0  0
   27.5796  -21.5379  -15.3391 C   0  0  1  0  0  0  0  0  0  0  0  0
   26.7224  -21.3765  -16.5503 C   0  0  0  0  0  0  0  0  0  0  0  0
   27.4107  -21.0432  -17.8162 C   0  0  0  0  0  0  0  0  0  0  0  0
   28.1140  -19.7564  -17.8849 C   0  0  0  0  0  0  0  0  0  0  0  0
   27.6419  -18.6205  -17.7891 O   0  0  0  0  0  0  0  0  0  0  0  0
   26.7228  -21.7807  -14.1175 C   0  0  0  0  0  0  0  0  0  0  0  0
   26.2797  -22.9248  -13.9450 O   0  0  0  0  0  0  0  0  0  0  0  0
   29.5125  -19.8275  -18.0867 O   0  0  0  0  0  0  0  0  0  0  0  0
   26.4286  -20.7432  -13.1946 N   0  0  0  0  0  0  0  0  0  0  0  0
   25.5436  -20.9823  -12.0432 C   0  0  1  0  0  0  0  0  0  0  0  0
   25.9905  -20.1817  -10.8611 C   0  0  0  0  0  0  0  0  0  0  0  0
   27.1914  -20.6570  -10.1930 C   0  0  0  0  0  0  0  0  0  0  0  0
   28.2198  -21.3620  -10.7742 C   0  0  0  0  0  0  0  0  0  0  0  0
   29.1559  -21.6257   -9.8231 N   0  0  0  0  0  0  0  0  0  0  0  0
   28.7725  -21.1186   -8.6511 C   0  0  0  0  0  0  0  0  0  0  0  0
   29.3099  -21.0847   -7.3852 C   0  0  0  0  0  0  0  0  0  0  0  0
   28.6936  -20.4753   -6.3113 C   0  0  0  0  0  0  0  0  0  0  0  0
   27.4757  -19.8773   -6.5509 C   0  0  0  0  0  0  0  0  0  0  0  0
   26.9241  -19.9029   -7.8139 C   0  0  0  0  0  0  0  0  0  0  0  0
   27.5536  -20.5158   -8.8736 C   0  0  0  0  0  0  0  0  0  0  0  0
   24.1880  -20.5184  -12.4393 C   0  0  0  0  0  0  0  0  0  0  0  0
   23.9389  -19.2936  -12.5988 O   0  0  0  0  0  0  0  0  0  0  0  0
   22.4020  -21.4431  -15.4953 C   0  0  0  0  0  0  0  0  0  0  0  0
   21.4986  -21.8165  -14.3443 C   0  0  1  0  0  0  0  0  0  0  0  0
   21.6593  -23.1784  -14.0294 O   0  0  0  0  0  0  0  0  0  0  0  0
   21.8436  -21.0028  -13.1049 C   0  0  2  0  0  0  0  0  0  0  0  0
   23.1391  -21.4674  -12.6465 N   0  0  0  0  0  0  0  0  0  0  0  0
   20.8099  -21.3261  -12.0714 C   0  0  0  0  0  0  0  0  0  0  0  0
   19.5056  -20.9084  -12.1872 O   0  0  0  0  0  0  0  0  0  0  0  0
   21.1262  -21.9956  -11.0659 O   0  0  0  0  0  0  0  0  0  0  0  0
  2  1  1  6
  3  2  1  0
  3  4  1  0
  5  4  1  0
  5  9  1  0
  6  5  2  0
  7  8  2  0
  7  2  1  0
 10  7  1  0
 11 10  1  0
 11 12  1  1
 12 13  1  0
 13 14  2  0
 13 21  1  0
 14 15  1  0
 15 16  1  0
 16 17  2  0
 18 17  1  0
 19 18  2  0
 20 21  2  0
 20 19  1  0
 21 16  1  0
 22 11  1  0
 23 22  2  0
 25 24  1  6
 25 27  1  0
 26 25  1  0
 27 29  1  0
 27 28  1  1
 28 22  1  0
 29 30  1  0
 31 29  2  0
M  END
$$$$
