QVE.pdb
     RDKit          3D

 26 25  0  0  1  0  0  0  0  0999 V2000
   18.2125  -21.2832  -11.4467 N   0  0  0  0  0  0  0  0  0  0  0  0
   19.3371  -21.8384  -10.8134 C   0  0  0  0  0  0  0  0  0  0  0  0
   19.3221  -22.1561   -9.5836 O   0  0  0  0  0  0  0  0  0  0  0  0
   20.6074  -22.0753  -11.5566 C   0  0  0  0  0  0  0  0  0  0  0  0
   20.4148  -21.6054  -12.9601 C   0  0  0  0  0  0  0  0  0  0  0  0
   21.5719  -21.6882  -13.8636 C   0  0  2  0  0  0  0  0  0  0  0  0
   22.1929  -23.0152  -13.8648 N   0  0  0  0  0  0  0  0  0  0  0  0
   22.6385  -20.6401  -13.6733 C   0  0  0  0  0  0  0  0  0  0  0  0
   22.2509  -19.4668  -13.5645 O   0  0  0  0  0  0  0  0  0  0  0  0
   25.3721  -21.5973  -11.4212 C   0  0  0  0  0  0  0  0  0  0  0  0
   26.1328  -20.9050  -12.5570 C   0  0  1  0  0  0  0  0  0  0  0  0
   26.5912  -22.1118  -13.4161 C   0  0  0  0  0  0  0  0  0  0  0  0
   25.1500  -20.1615  -13.4633 C   0  0  2  0  0  0  0  0  0  0  0  0
   23.9752  -21.0189  -13.6358 N   0  0  0  0  0  0  0  0  0  0  0  0
   25.7124  -20.0492  -14.8363 C   0  0  0  0  0  0  0  0  0  0  0  0
   25.6815  -21.0687  -15.5727 O   0  0  0  0  0  0  0  0  0  0  0  0
   26.2772  -18.8738  -15.3892 N   0  0  0  0  0  0  0  0  0  0  0  0
   26.7360  -18.7976  -16.7748 C   0  0  1  0  0  0  0  0  0  0  0  0
   26.9057  -17.3443  -17.1139 C   0  0  0  0  0  0  0  0  0  0  0  0
   27.2824  -17.0976  -18.5625 C   0  0  0  0  0  0  0  0  0  0  0  0
   27.3549  -15.6203  -18.8705 C   0  0  0  0  0  0  0  0  0  0  0  0
   27.2427  -14.8078  -17.9635 O   0  0  0  0  0  0  0  0  0  0  0  0
   28.0071  -19.5036  -16.9586 C   0  0  0  0  0  0  0  0  0  0  0  0
   28.9799  -19.5713  -15.9396 O   0  0  0  0  0  0  0  0  0  0  0  0
   27.5512  -15.1928  -20.1752 O   0  0  0  0  0  0  0  0  0  0  0  0
   28.3340  -20.0830  -18.0038 O   0  0  0  0  0  0  0  0  0  0  0  0
  2  1  1  0
  2  3  2  0
  4  5  1  0
  4  2  1  0
  6  7  1  1
  6  5  1  0
  8  6  1  0
  9  8  2  0
 11 10  1  1
 11 13  1  0
 12 11  1  0
 13 15  1  0
 13 14  1  6
 14  8  1  0
 15 16  2  0
 17 18  1  0
 17 15  1  0
 18 19  1  1
 19 20  1  0
 20 21  1  0
 21 25  1  0
 21 22  2  0
 23 24  1  0
 23 18  1  0
 26 23  2  0
M  END
$$$$
