QVE.pdb
     RDKit          3D

 26 25  0  0  1  0  0  0  0  0999 V2000
   26.2157  -17.0018  -14.7226 N   0  0  0  0  0  0  0  0  0  0  0  0
   26.3451  -17.5141  -16.0244 C   0  0  0  0  0  0  0  0  0  0  0  0
   25.5853  -17.1360  -16.9695 O   0  0  0  0  0  0  0  0  0  0  0  0
   27.3798  -18.5343  -16.3569 C   0  0  0  0  0  0  0  0  0  0  0  0
   28.1320  -18.8519  -15.1075 C   0  0  0  0  0  0  0  0  0  0  0  0
   28.2118  -20.2652  -14.7093 C   0  0  2  0  0  0  0  0  0  0  0  0
   28.6353  -21.1377  -15.8076 N   0  0  0  0  0  0  0  0  0  0  0  0
   26.9787  -20.8428  -14.0625 C   0  0  0  0  0  0  0  0  0  0  0  0
   26.1704  -21.4084  -14.8144 O   0  0  0  0  0  0  0  0  0  0  0  0
   25.9058  -19.2761  -10.3146 C   0  0  0  0  0  0  0  0  0  0  0  0
   25.9564  -20.8034  -10.4287 C   0  0  1  0  0  0  0  0  0  0  0  0
   24.6655  -21.2224   -9.6787 C   0  0  0  0  0  0  0  0  0  0  0  0
   25.6939  -21.2255  -11.8754 C   0  0  2  0  0  0  0  0  0  0  0  0
   26.7989  -20.7154  -12.6902 N   0  0  0  0  0  0  0  0  0  0  0  0
   24.5023  -20.5082  -12.4042 C   0  0  0  0  0  0  0  0  0  0  0  0
   24.5862  -19.2638  -12.5683 O   0  0  0  0  0  0  0  0  0  0  0  0
   23.2724  -21.1204  -12.7492 N   0  0  0  0  0  0  0  0  0  0  0  0
   22.1377  -20.3649  -13.2762 C   0  0  1  0  0  0  0  0  0  0  0  0
   21.7913  -20.9483  -14.6162 C   0  0  0  0  0  0  0  0  0  0  0  0
   20.5619  -20.3266  -15.2510 C   0  0  0  0  0  0  0  0  0  0  0  0
   20.2194  -20.9947  -16.5621 C   0  0  0  0  0  0  0  0  0  0  0  0
   20.8986  -21.9312  -16.9585 O   0  0  0  0  0  0  0  0  0  0  0  0
   20.9783  -20.4455  -12.3833 C   0  0  0  0  0  0  0  0  0  0  0  0
   19.9184  -19.5171  -12.4473 O   0  0  0  0  0  0  0  0  0  0  0  0
   19.1380  -20.5477  -17.3065 O   0  0  0  0  0  0  0  0  0  0  0  0
   20.8346  -21.3117  -11.5093 O   0  0  0  0  0  0  0  0  0  0  0  0
  2  1  1  0
  2  3  2  0
  4  5  1  0
  4  2  1  0
  6  7  1  6
  6  5  1  0
  8  6  1  0
  9  8  2  0
 11 10  1  6
 11 13  1  0
 12 11  1  0
 13 15  1  0
 13 14  1  6
 14  8  1  0
 15 16  2  0
 17 18  1  0
 17 15  1  0
 18 19  1  6
 19 20  1  0
 20 21  1  0
 21 25  1  0
 21 22  2  0
 23 24  1  0
 23 18  1  0
 26 23  2  0
M  END
$$$$
