QVE.pdb
     RDKit          3D

 26 25  0  0  1  0  0  0  0  0999 V2000
   17.1374  -12.4855  -13.4158 N   0  0  0  0  0  0  0  0  0  0  0  0
   16.2722  -13.4871  -12.9442 C   0  0  0  0  0  0  0  0  0  0  0  0
   16.3804  -14.6951  -13.3218 O   0  0  0  0  0  0  0  0  0  0  0  0
   15.1786  -13.1763  -11.9802 C   0  0  0  0  0  0  0  0  0  0  0  0
   15.2952  -11.7379  -11.5990 C   0  0  0  0  0  0  0  0  0  0  0  0
   14.3529  -11.2289  -10.5914 C   0  0  2  0  0  0  0  0  0  0  0  0
   13.0352  -11.8633  -10.6800 N   0  0  0  0  0  0  0  0  0  0  0  0
   14.1818   -9.7322  -10.5394 C   0  0  0  0  0  0  0  0  0  0  0  0
   13.2661   -9.2538  -11.2258 O   0  0  0  0  0  0  0  0  0  0  0  0
   15.3596   -5.8292   -7.6993 C   0  0  0  0  0  0  0  0  0  0  0  0
   15.1301   -7.3148   -7.9964 C   0  0  1  0  0  0  0  0  0  0  0  0
   13.6944   -7.5311   -7.4519 C   0  0  0  0  0  0  0  0  0  0  0  0
   14.9866   -7.5271   -9.5045 C   0  0  2  0  0  0  0  0  0  0  0  0
   15.0372   -8.9697   -9.7528 N   0  0  0  0  0  0  0  0  0  0  0  0
   16.1896   -7.0037  -10.2065 C   0  0  0  0  0  0  0  0  0  0  0  0
   17.3209   -7.3458   -9.7756 O   0  0  0  0  0  0  0  0  0  0  0  0
   16.1635   -6.1504  -11.3368 N   0  0  0  0  0  0  0  0  0  0  0  0
   17.3799   -5.6884  -12.0024 C   0  0  1  0  0  0  0  0  0  0  0  0
   17.7205   -6.6925  -13.0663 C   0  0  0  0  0  0  0  0  0  0  0  0
   16.6661   -6.8118  -14.1502 C   0  0  0  0  0  0  0  0  0  0  0  0
   17.1348   -7.6962  -15.2819 C   0  0  0  0  0  0  0  0  0  0  0  0
   18.1544   -7.4072  -15.8919 O   0  0  0  0  0  0  0  0  0  0  0  0
   17.1918   -4.3667  -12.6071 C   0  0  0  0  0  0  0  0  0  0  0  0
   18.2721   -3.6148  -13.1139 O   0  0  0  0  0  0  0  0  0  0  0  0
   16.4117   -8.8301  -15.6210 O   0  0  0  0  0  0  0  0  0  0  0  0
   16.0935   -3.8040  -12.7167 O   0  0  0  0  0  0  0  0  0  0  0  0
  2  1  1  0
  2  3  2  0
  4  5  1  0
  4  2  1  0
  6  7  1  6
  6  5  1  0
  8  6  1  0
  9  8  2  0
 11 10  1  6
 11 13  1  0
 12 11  1  0
 13 15  1  0
 13 14  1  1
 14  8  1  0
 15 16  2  0
 17 18  1  0
 17 15  1  0
 18 19  1  6
 19 20  1  0
 20 21  1  0
 21 25  1  0
 21 22  2  0
 23 24  1  0
 23 18  1  0
 26 23  2  0
M  END
$$$$
