QVE.pdb
     RDKit          3D

 26 25  0  0  1  0  0  0  0  0999 V2000
   24.3603  -24.4500  -14.1622 N   0  0  0  0  0  0  0  0  0  0  0  0
   25.4642  -23.8417  -14.7831 C   0  0  0  0  0  0  0  0  0  0  0  0
   26.2359  -24.4893  -15.5568 O   0  0  0  0  0  0  0  0  0  0  0  0
   25.7862  -22.4040  -14.5565 C   0  0  0  0  0  0  0  0  0  0  0  0
   24.7455  -21.8359  -13.6499 C   0  0  0  0  0  0  0  0  0  0  0  0
   23.4659  -21.4401  -14.2567 C   0  0  2  0  0  0  0  0  0  0  0  0
   23.6382  -20.5404  -15.4002 N   0  0  0  0  0  0  0  0  0  0  0  0
   22.4379  -20.8608  -13.3186 C   0  0  0  0  0  0  0  0  0  0  0  0
   22.7296  -19.7875  -12.7695 O   0  0  0  0  0  0  0  0  0  0  0  0
   19.7098  -19.2342  -13.8567 C   0  0  0  0  0  0  0  0  0  0  0  0
   19.0837  -20.4563  -13.1768 C   0  0  1  0  0  0  0  0  0  0  0  0
   18.9354  -21.4416  -14.3650 C   0  0  0  0  0  0  0  0  0  0  0  0
   20.1132  -21.1298  -12.2677 C   0  0  2  0  0  0  0  0  0  0  0  0
   21.2422  -21.5370  -13.1073 N   0  0  0  0  0  0  0  0  0  0  0  0
   19.5707  -22.4164  -11.7539 C   0  0  0  0  0  0  0  0  0  0  0  0
   19.4579  -23.3747  -12.5611 O   0  0  0  0  0  0  0  0  0  0  0  0
   19.1753  -22.6543  -10.4146 N   0  0  0  0  0  0  0  0  0  0  0  0
   18.5380  -23.8997   -9.9915 C   0  0  1  0  0  0  0  0  0  0  0  0
   18.7714  -24.0463   -8.5151 C   0  0  0  0  0  0  0  0  0  0  0  0
   18.0987  -25.2642   -7.9107 C   0  0  0  0  0  0  0  0  0  0  0  0
   18.3551  -25.3564   -6.4247 C   0  0  0  0  0  0  0  0  0  0  0  0
   19.4696  -25.1077   -5.9872 O   0  0  0  0  0  0  0  0  0  0  0  0
   17.0990  -23.8874  -10.2693 C   0  0  0  0  0  0  0  0  0  0  0  0
   16.3823  -25.0674  -10.5575 O   0  0  0  0  0  0  0  0  0  0  0  0
   17.3284  -25.7177   -5.5650 O   0  0  0  0  0  0  0  0  0  0  0  0
   16.4038  -22.8620  -10.2825 O   0  0  0  0  0  0  0  0  0  0  0  0
  2  1  1  0
  2  3  2  0
  4  5  1  0
  4  2  1  0
  6  7  1  6
  6  5  1  0
  8  6  1  0
  9  8  2  0
 11 10  1  6
 11 13  1  0
 12 11  1  0
 13 15  1  0
 13 14  1  6
 14  8  1  0
 15 16  2  0
 17 18  1  0
 17 15  1  0
 18 19  1  1
 19 20  1  0
 20 21  1  0
 21 25  1  0
 21 22  2  0
 23 24  1  0
 23 18  1  0
 26 23  2  0
M  END
$$$$
