QVE.pdb
     RDKit          3D

 26 25  0  0  1  0  0  0  0  0999 V2000
   16.3085  -12.5855  -15.4716 N   0  0  0  0  0  0  0  0  0  0  0  0
   15.8071  -12.2901  -16.7504 C   0  0  0  0  0  0  0  0  0  0  0  0
   14.6046  -11.9209  -16.9273 O   0  0  0  0  0  0  0  0  0  0  0  0
   16.6644  -12.4030  -17.9646 C   0  0  0  0  0  0  0  0  0  0  0  0
   17.8418  -11.5039  -17.7827 C   0  0  0  0  0  0  0  0  0  0  0  0
   18.9072  -11.5753  -18.7937 C   0  0  2  0  0  0  0  0  0  0  0  0
   19.4741  -12.9203  -18.9217 N   0  0  0  0  0  0  0  0  0  0  0  0
   20.0262  -10.5756  -18.6500 C   0  0  0  0  0  0  0  0  0  0  0  0
   20.9990  -10.9257  -17.9647 O   0  0  0  0  0  0  0  0  0  0  0  0
   21.5704   -6.1557  -20.4627 C   0  0  0  0  0  0  0  0  0  0  0  0
   20.6468   -7.3782  -20.4836 C   0  0  1  0  0  0  0  0  0  0  0  0
   21.2609   -8.2225  -21.6302 C   0  0  0  0  0  0  0  0  0  0  0  0
   20.8824   -8.2291  -19.2344 C   0  0  2  0  0  0  0  0  0  0  0  0
   19.9223   -9.3346  -19.2672 N   0  0  0  0  0  0  0  0  0  0  0  0
   20.4986   -7.4616  -18.0189 C   0  0  0  0  0  0  0  0  0  0  0  0
   19.3208   -7.0264  -17.9421 O   0  0  0  0  0  0  0  0  0  0  0  0
   21.3579   -7.1862  -16.9270 N   0  0  0  0  0  0  0  0  0  0  0  0
   20.9146   -6.4556  -15.7413 C   0  0  1  0  0  0  0  0  0  0  0  0
   20.5578   -7.4711  -14.6937 C   0  0  0  0  0  0  0  0  0  0  0  0
   20.0769   -6.8589  -13.3917 C   0  0  0  0  0  0  0  0  0  0  0  0
   19.7529   -7.9217  -12.3680 C   0  0  0  0  0  0  0  0  0  0  0  0
   19.3819   -7.5912  -11.2507 O   0  0  0  0  0  0  0  0  0  0  0  0
   21.9639   -5.5662  -15.2356 C   0  0  0  0  0  0  0  0  0  0  0  0
   21.6881   -4.5258  -14.3241 O   0  0  0  0  0  0  0  0  0  0  0  0
   19.8734   -9.2631  -12.6991 O   0  0  0  0  0  0  0  0  0  0  0  0
   23.1563   -5.6437  -15.5628 O   0  0  0  0  0  0  0  0  0  0  0  0
  2  1  1  0
  2  3  2  0
  4  5  1  0
  4  2  1  0
  6  7  1  1
  6  5  1  0
  8  6  1  0
  9  8  2  0
 11 10  1  1
 11 13  1  0
 12 11  1  0
 13 15  1  0
 13 14  1  6
 14  8  1  0
 15 16  2  0
 17 18  1  0
 17 15  1  0
 18 19  1  1
 19 20  1  0
 20 21  1  0
 21 25  1  0
 21 22  2  0
 23 24  1  0
 23 18  1  0
 26 23  2  0
M  END
$$$$
