QVE.pdb
     RDKit          3D

 26 25  0  0  1  0  0  0  0  0999 V2000
   16.4338  -13.0885  -17.1444 N   0  0  0  0  0  0  0  0  0  0  0  0
   16.6073  -12.7278  -18.4911 C   0  0  0  0  0  0  0  0  0  0  0  0
   15.9831  -13.3185  -19.4265 O   0  0  0  0  0  0  0  0  0  0  0  0
   17.5409  -11.6352  -18.8871 C   0  0  0  0  0  0  0  0  0  0  0  0
   18.0785  -11.0142  -17.6409 C   0  0  0  0  0  0  0  0  0  0  0  0
   19.4578  -11.3528  -17.2597 C   0  0  2  0  0  0  0  0  0  0  0  0
   19.7013  -12.7975  -17.2480 N   0  0  0  0  0  0  0  0  0  0  0  0
   19.9552  -10.7541  -15.9688 C   0  0  0  0  0  0  0  0  0  0  0  0
   19.2604  -10.9526  -14.9607 O   0  0  0  0  0  0  0  0  0  0  0  0
   23.3103  -11.3685  -15.0148 C   0  0  0  0  0  0  0  0  0  0  0  0
   23.2496   -9.8513  -14.8083 C   0  0  1  0  0  0  0  0  0  0  0  0
   23.8195   -9.3236  -16.1504 C   0  0  0  0  0  0  0  0  0  0  0  0
   21.7933   -9.3833  -14.8185 C   0  0  2  0  0  0  0  0  0  0  0  0
   21.1346  -10.0188  -15.9619 N   0  0  0  0  0  0  0  0  0  0  0  0
   21.7302   -7.9307  -15.1347 C   0  0  0  0  0  0  0  0  0  0  0  0
   21.9808   -7.5711  -16.3139 O   0  0  0  0  0  0  0  0  0  0  0  0
   21.3991   -6.9113  -14.2086 N   0  0  0  0  0  0  0  0  0  0  0  0
   21.3650   -5.4966  -14.5742 C   0  0  1  0  0  0  0  0  0  0  0  0
   19.9408   -5.0346  -14.4548 C   0  0  0  0  0  0  0  0  0  0  0  0
   19.7390   -3.5802  -14.8356 C   0  0  0  0  0  0  0  0  0  0  0  0
   18.2915   -3.1694  -14.7002 C   0  0  0  0  0  0  0  0  0  0  0  0
   17.4665   -3.9831  -14.3094 O   0  0  0  0  0  0  0  0  0  0  0  0
   22.2237   -4.6951  -13.6978 C   0  0  0  0  0  0  0  0  0  0  0  0
   22.7213   -3.4340  -14.0870 O   0  0  0  0  0  0  0  0  0  0  0  0
   17.9056   -1.8750  -15.0150 O   0  0  0  0  0  0  0  0  0  0  0  0
   22.5854   -5.0502  -12.5674 O   0  0  0  0  0  0  0  0  0  0  0  0
  2  1  1  0
  2  3  2  0
  4  5  1  0
  4  2  1  0
  6  7  1  1
  6  5  1  0
  8  6  1  0
  9  8  2  0
 11 10  1  6
 11 13  1  0
 12 11  1  0
 13 15  1  0
 13 14  1  6
 14  8  1  0
 15 16  2  0
 17 18  1  0
 17 15  1  0
 18 19  1  1
 19 20  1  0
 20 21  1  0
 21 25  1  0
 21 22  2  0
 23 24  1  0
 23 18  1  0
 26 23  2  0
M  END
$$$$
