QVE.pdb
     RDKit          3D

 26 25  0  0  1  0  0  0  0  0999 V2000
   16.1491  -12.9809  -15.2346 N   0  0  0  0  0  0  0  0  0  0  0  0
   16.1581  -13.0288  -16.6388 C   0  0  0  0  0  0  0  0  0  0  0  0
   15.1519  -13.4344  -17.2996 O   0  0  0  0  0  0  0  0  0  0  0  0
   17.3559  -12.6108  -17.4213 C   0  0  0  0  0  0  0  0  0  0  0  0
   18.4134  -12.1900  -16.4556 C   0  0  0  0  0  0  0  0  0  0  0  0
   19.1881  -10.9848  -16.7870 C   0  0  2  0  0  0  0  0  0  0  0  0
   20.1813  -11.2238  -17.8373 N   0  0  0  0  0  0  0  0  0  0  0  0
   19.8484  -10.2814  -15.6288 C   0  0  0  0  0  0  0  0  0  0  0  0
   19.1592  -10.1220  -14.6100 O   0  0  0  0  0  0  0  0  0  0  0  0
   23.4738  -11.0867  -14.9207 C   0  0  0  0  0  0  0  0  0  0  0  0
   23.4092   -9.5558  -14.9110 C   0  0  1  0  0  0  0  0  0  0  0  0
   23.7677   -9.2119  -16.3799 C   0  0  0  0  0  0  0  0  0  0  0  0
   21.9565   -9.0978  -14.7708 C   0  0  2  0  0  0  0  0  0  0  0  0
   21.1628   -9.8457  -15.7485 N   0  0  0  0  0  0  0  0  0  0  0  0
   21.8260   -7.6836  -15.2148 C   0  0  0  0  0  0  0  0  0  0  0  0
   21.9589   -7.4344  -16.4407 O   0  0  0  0  0  0  0  0  0  0  0  0
   21.5530   -6.5862  -14.3618 N   0  0  0  0  0  0  0  0  0  0  0  0
   21.5373   -5.2044  -14.8376 C   0  0  1  0  0  0  0  0  0  0  0  0
   20.1018   -4.7680  -14.9067 C   0  0  0  0  0  0  0  0  0  0  0  0
   19.9194   -3.3571  -15.4332 C   0  0  0  0  0  0  0  0  0  0  0  0
   18.4627   -2.9570  -15.4483 C   0  0  0  0  0  0  0  0  0  0  0  0
   18.1606   -1.7804  -15.5887 O   0  0  0  0  0  0  0  0  0  0  0  0
   22.2842   -4.3192  -13.9397 C   0  0  0  0  0  0  0  0  0  0  0  0
   22.7775   -3.0673  -14.3625 O   0  0  0  0  0  0  0  0  0  0  0  0
   17.4770   -3.9224  -15.3071 O   0  0  0  0  0  0  0  0  0  0  0  0
   22.5481   -4.5901  -12.7599 O   0  0  0  0  0  0  0  0  0  0  0  0
  2  1  1  0
  2  3  2  0
  4  5  1  0
  4  2  1  0
  6  7  1  6
  6  5  1  0
  8  6  1  0
  9  8  2  0
 11 10  1  6
 11 13  1  0
 12 11  1  0
 13 15  1  0
 13 14  1  6
 14  8  1  0
 15 16  2  0
 17 18  1  0
 17 15  1  0
 18 19  1  1
 19 20  1  0
 20 21  1  0
 21 25  1  0
 21 22  2  0
 23 24  1  0
 23 18  1  0
 26 23  2  0
M  END
$$$$
