TTH.pdb
     RDKit          3D

 25 25  0  0  1  0  0  0  0  0999 V2000
    7.5139  -12.1149   18.8199 C   0  0  0  0  0  0  0  0  0  0  0  0
    8.4951  -13.2008   19.1298 C   0  0  1  0  0  0  0  0  0  0  0  0
    7.8873  -14.2931   19.7313 O   0  0  0  0  0  0  0  0  0  0  0  0
    9.2740  -13.6641   17.9289 C   0  0  2  0  0  0  0  0  0  0  0  0
    8.4406  -14.0889   16.8459 N   0  0  0  0  0  0  0  0  0  0  0  0
   10.2578  -14.7053   18.2362 C   0  0  0  0  0  0  0  0  0  0  0  0
   10.0694  -15.9390   18.0167 O   0  0  0  0  0  0  0  0  0  0  0  0
   13.7850  -15.2387   17.1684 C   0  0  0  0  0  0  0  0  0  0  0  0
   13.8260  -15.1955   18.6810 C   0  0  1  0  0  0  0  0  0  0  0  0
   14.3843  -13.9595   19.0120 O   0  0  0  0  0  0  0  0  0  0  0  0
   12.4522  -15.3685   19.2827 C   0  0  2  0  0  0  0  0  0  0  0  0
   11.5193  -14.3702   18.8172 N   0  0  0  0  0  0  0  0  0  0  0  0
   12.5757  -15.3957   20.7504 C   0  0  0  0  0  0  0  0  0  0  0  0
   12.7353  -14.2981   21.3494 O   0  0  0  0  0  0  0  0  0  0  0  0
   12.5183  -16.6131   21.4753 N   0  0  0  0  0  0  0  0  0  0  0  0
   12.7237  -16.5578   22.9298 C   0  0  1  0  0  0  0  0  0  0  0  0
   11.5574  -17.1951   23.6208 C   0  0  0  0  0  0  0  0  0  0  0  0
   10.2745  -16.5153   23.4632 C   0  0  0  0  0  0  0  0  0  0  0  0
    9.8753  -15.2623   23.7988 C   0  0  0  0  0  0  0  0  0  0  0  0
    8.5868  -15.0743   23.3841 N   0  0  0  0  0  0  0  0  0  0  0  0
    8.2083  -16.2089   22.7986 C   0  0  0  0  0  0  0  0  0  0  0  0
    9.2017  -17.0870   22.8331 N   0  0  0  0  0  0  0  0  0  0  0  0
   13.9007  -17.4610   23.1998 C   0  0  0  0  0  0  0  0  0  0  0  0
   14.4467  -18.1628   22.3465 O   0  0  0  0  0  0  0  0  0  0  0  0
   14.4504  -17.5439   24.4994 O   0  0  0  0  0  0  0  0  0  0  0  0
  2  1  1  6
  2  3  1  0
  4  2  1  0
  4  5  1  6
  6  4  1  0
  6  7  2  0
  9  8  1  6
  9 11  1  0
 10  9  1  0
 11 12  1  1
 11 13  1  0
 12  6  1  0
 13 14  2  0
 13 15  1  0
 15 16  1  0
 16 17  1  1
 17 18  1  0
 18 22  1  0
 19 18  2  0
 19 20  1  0
 20 21  1  0
 22 21  2  0
 23 25  1  0
 23 16  1  0
 24 23  2  0
M  END
$$$$
