TTH.pdb
     RDKit          3D

 25 25  0  0  1  0  0  0  0  0999 V2000
   11.7614  -14.5126   17.6071 C   0  0  0  0  0  0  0  0  0  0  0  0
   10.9870  -14.5047   18.8871 C   0  0  1  0  0  0  0  0  0  0  0  0
   11.4194  -13.5074   19.7489 O   0  0  0  0  0  0  0  0  0  0  0  0
    9.5012  -14.3788   18.6866 C   0  0  2  0  0  0  0  0  0  0  0  0
    9.1236  -13.1767   18.0081 N   0  0  0  0  0  0  0  0  0  0  0  0
    8.7307  -14.5126   19.9254 C   0  0  0  0  0  0  0  0  0  0  0  0
    8.0800  -13.5634   20.4560 O   0  0  0  0  0  0  0  0  0  0  0  0
    6.2656  -17.4578   20.5419 C   0  0  0  0  0  0  0  0  0  0  0  0
    7.1473  -17.3047   21.7627 C   0  0  1  0  0  0  0  0  0  0  0  0
    8.0569  -18.3625   21.7111 O   0  0  0  0  0  0  0  0  0  0  0  0
    7.8456  -15.9663   21.7838 C   0  0  2  0  0  0  0  0  0  0  0  0
    8.6729  -15.7603   20.6190 N   0  0  0  0  0  0  0  0  0  0  0  0
    8.5940  -15.8402   23.0464 C   0  0  0  0  0  0  0  0  0  0  0  0
    9.8497  -15.7502   22.9814 O   0  0  0  0  0  0  0  0  0  0  0  0
    7.9318  -15.8197   24.3002 N   0  0  0  0  0  0  0  0  0  0  0  0
    8.7423  -15.5761   25.5022 C   0  0  1  0  0  0  0  0  0  0  0  0
    7.8659  -15.0387   26.5916 C   0  0  0  0  0  0  0  0  0  0  0  0
    7.3415  -13.6921   26.3813 C   0  0  0  0  0  0  0  0  0  0  0  0
    7.5901  -12.7728   25.4142 C   0  0  0  0  0  0  0  0  0  0  0  0
    6.7979  -11.6782   25.6195 N   0  0  0  0  0  0  0  0  0  0  0  0
    6.0719  -11.9349   26.7060 C   0  0  0  0  0  0  0  0  0  0  0  0
    6.3791  -13.1349   27.1802 N   0  0  0  0  0  0  0  0  0  0  0  0
    9.1819  -16.9411   25.9687 C   0  0  0  0  0  0  0  0  0  0  0  0
    8.8210  -18.0002   25.4524 O   0  0  0  0  0  0  0  0  0  0  0  0
   10.0646  -17.0679   27.0654 O   0  0  0  0  0  0  0  0  0  0  0  0
  2  1  1  6
  2  3  1  0
  4  2  1  0
  4  5  1  1
  6  4  1  0
  6  7  2  0
  9  8  1  6
  9 11  1  0
 10  9  1  0
 11 12  1  6
 11 13  1  0
 12  6  1  0
 13 14  2  0
 13 15  1  0
 15 16  1  0
 16 17  1  1
 17 18  1  0
 18 22  1  0
 19 18  2  0
 19 20  1  0
 20 21  1  0
 22 21  2  0
 23 25  1  0
 23 16  1  0
 24 23  2  0
M  END
$$$$
