TTH.pdb
     RDKit          3D

 25 25  0  0  1  0  0  0  0  0999 V2000
    9.7405  -20.3576   18.8547 C   0  0  0  0  0  0  0  0  0  0  0  0
    9.6987  -19.1800   19.7766 C   0  0  1  0  0  0  0  0  0  0  0  0
   10.6472  -19.2762   20.7843 O   0  0  0  0  0  0  0  0  0  0  0  0
    9.8559  -17.8611   19.0700 C   0  0  2  0  0  0  0  0  0  0  0  0
   11.0170  -17.8034   18.2355 N   0  0  0  0  0  0  0  0  0  0  0  0
    9.8359  -16.7079   19.9733 C   0  0  0  0  0  0  0  0  0  0  0  0
   10.8573  -16.0089   20.2456 O   0  0  0  0  0  0  0  0  0  0  0  0
    7.0525  -13.7658   20.1588 C   0  0  0  0  0  0  0  0  0  0  0  0
    7.2476  -14.4676   21.4857 C   0  0  1  0  0  0  0  0  0  0  0  0
    6.1659  -15.3403   21.6180 O   0  0  0  0  0  0  0  0  0  0  0  0
    8.5671  -15.1989   21.5428 C   0  0  2  0  0  0  0  0  0  0  0  0
    8.6247  -16.3011   20.6125 N   0  0  0  0  0  0  0  0  0  0  0  0
    8.8230  -15.6106   22.9339 C   0  0  0  0  0  0  0  0  0  0  0  0
    8.7577  -16.8396   23.2069 O   0  0  0  0  0  0  0  0  0  0  0  0
    9.1336  -14.6620   23.9412 N   0  0  0  0  0  0  0  0  0  0  0  0
    9.4129  -15.1625   25.2948 C   0  0  1  0  0  0  0  0  0  0  0  0
    9.9184  -14.0381   26.1457 C   0  0  0  0  0  0  0  0  0  0  0  0
   10.1682  -14.3625   27.5474 C   0  0  0  0  0  0  0  0  0  0  0  0
    9.4989  -14.0270   28.6795 C   0  0  0  0  0  0  0  0  0  0  0  0
   10.0941  -14.6327   29.7503 N   0  0  0  0  0  0  0  0  0  0  0  0
   11.1187  -15.3331   29.2677 C   0  0  0  0  0  0  0  0  0  0  0  0
   11.1837  -15.1875   27.9509 N   0  0  0  0  0  0  0  0  0  0  0  0
    8.0680  -15.5339   25.8669 C   0  0  0  0  0  0  0  0  0  0  0  0
    7.0012  -15.0248   25.5182 O   0  0  0  0  0  0  0  0  0  0  0  0
    7.9708  -16.5244   26.8705 O   0  0  0  0  0  0  0  0  0  0  0  0
  2  1  1  6
  2  3  1  0
  4  2  1  0
  4  5  1  1
  6  4  1  0
  6  7  2  0
  9  8  1  6
  9 11  1  0
 10  9  1  0
 11 12  1  6
 11 13  1  0
 12  6  1  0
 13 14  2  0
 13 15  1  0
 15 16  1  0
 16 17  1  1
 17 18  1  0
 18 22  1  0
 19 18  2  0
 19 20  1  0
 20 21  1  0
 22 21  2  0
 23 25  1  0
 23 16  1  0
 24 23  2  0
M  END
$$$$
