TTH.pdb
     RDKit          3D

 25 25  0  0  1  0  0  0  0  0999 V2000
    9.3866  -12.7811   18.4378 C   0  0  0  0  0  0  0  0  0  0  0  0
    8.5488  -13.4990   17.4274 C   0  0  1  0  0  0  0  0  0  0  0  0
    8.0792  -12.6441   16.4411 O   0  0  0  0  0  0  0  0  0  0  0  0
    9.2535  -14.6618   16.7833 C   0  0  2  0  0  0  0  0  0  0  0  0
    8.5191  -15.2345   15.6967 N   0  0  0  0  0  0  0  0  0  0  0  0
    9.6368  -15.7111   17.7311 C   0  0  0  0  0  0  0  0  0  0  0  0
    8.8374  -16.5925   18.1670 O   0  0  0  0  0  0  0  0  0  0  0  0
   12.6901  -18.0635   17.4656 C   0  0  0  0  0  0  0  0  0  0  0  0
   12.7201  -17.4100   18.8305 C   0  0  1  0  0  0  0  0  0  0  0  0
   13.7352  -16.4533   18.7729 O   0  0  0  0  0  0  0  0  0  0  0  0
   11.3885  -16.7928   19.1843 C   0  0  2  0  0  0  0  0  0  0  0  0
   10.9741  -15.7952   18.2268 N   0  0  0  0  0  0  0  0  0  0  0  0
   11.4565  -16.2712   20.5603 C   0  0  0  0  0  0  0  0  0  0  0  0
   11.8354  -15.0799   20.7217 O   0  0  0  0  0  0  0  0  0  0  0  0
   11.1086  -17.0763   21.6748 N   0  0  0  0  0  0  0  0  0  0  0  0
   11.2196  -16.4813   23.0144 C   0  0  1  0  0  0  0  0  0  0  0  0
    9.8525  -16.3415   23.6105 C   0  0  0  0  0  0  0  0  0  0  0  0
    9.0000  -15.3160   23.0154 C   0  0  0  0  0  0  0  0  0  0  0  0
    9.2144  -14.4558   21.9877 C   0  0  0  0  0  0  0  0  0  0  0  0
    8.0787  -13.7289   21.7649 N   0  0  0  0  0  0  0  0  0  0  0  0
    7.1802  -14.1487   22.6536 C   0  0  0  0  0  0  0  0  0  0  0  0
    7.7080  -15.0991   23.4136 N   0  0  0  0  0  0  0  0  0  0  0  0
   11.9257  -17.5173   23.8524 C   0  0  0  0  0  0  0  0  0  0  0  0
   12.1636  -18.6673   23.4787 O   0  0  0  0  0  0  0  0  0  0  0  0
   12.3629  -17.1986   25.1582 O   0  0  0  0  0  0  0  0  0  0  0  0
  2  1  1  1
  2  3  1  0
  4  2  1  0
  4  5  1  6
  6  4  1  0
  6  7  2  0
  9  8  1  6
  9 11  1  0
 10  9  1  0
 11 12  1  6
 11 13  1  0
 12  6  1  0
 13 14  2  0
 13 15  1  0
 15 16  1  0
 16 17  1  1
 17 18  1  0
 18 22  1  0
 19 18  2  0
 19 20  1  0
 20 21  1  0
 22 21  2  0
 23 25  1  0
 23 16  1  0
 24 23  2  0
M  END
$$$$
