TTH.pdb
     RDKit          3D

 25 25  0  0  1  0  0  0  0  0999 V2000
    8.5315  -19.8042   18.6129 C   0  0  0  0  0  0  0  0  0  0  0  0
    8.8491  -19.0784   17.3438 C   0  0  1  0  0  0  0  0  0  0  0  0
    8.4279  -19.7815   16.2247 O   0  0  0  0  0  0  0  0  0  0  0  0
    8.2872  -17.6836   17.2954 C   0  0  2  0  0  0  0  0  0  0  0  0
    8.3952  -17.0768   16.0039 N   0  0  0  0  0  0  0  0  0  0  0  0
    8.8496  -16.7911   18.3119 C   0  0  0  0  0  0  0  0  0  0  0  0
   10.0083  -16.2831   18.2397 O   0  0  0  0  0  0  0  0  0  0  0  0
    6.7603  -14.0721   20.6316 C   0  0  0  0  0  0  0  0  0  0  0  0
    7.6050  -15.0418   21.4299 C   0  0  1  0  0  0  0  0  0  0  0  0
    6.7138  -15.9767   21.9599 O   0  0  0  0  0  0  0  0  0  0  0  0
    8.6620  -15.6980   20.5747 C   0  0  2  0  0  0  0  0  0  0  0  0
    8.0950  -16.4379   19.4725 N   0  0  0  0  0  0  0  0  0  0  0  0
    9.5242  -16.5258   21.4358 C   0  0  0  0  0  0  0  0  0  0  0  0
    9.3624  -17.7755   21.4057 O   0  0  0  0  0  0  0  0  0  0  0  0
   10.5080  -15.9443   22.2755 N   0  0  0  0  0  0  0  0  0  0  0  0
   11.3083  -16.8419   23.1209 C   0  0  1  0  0  0  0  0  0  0  0  0
   12.7528  -16.4565   23.0263 C   0  0  0  0  0  0  0  0  0  0  0  0
   13.6742  -17.2308   23.8533 C   0  0  0  0  0  0  0  0  0  0  0  0
   13.4665  -18.2842   24.6835 C   0  0  0  0  0  0  0  0  0  0  0  0
   14.6659  -18.7042   25.1863 N   0  0  0  0  0  0  0  0  0  0  0  0
   15.5958  -17.9086   24.6613 C   0  0  0  0  0  0  0  0  0  0  0  0
   15.0268  -17.0183   23.8595 N   0  0  0  0  0  0  0  0  0  0  0  0
   10.8947  -16.5284   24.5369 C   0  0  0  0  0  0  0  0  0  0  0  0
   11.3472  -17.0950   25.5333 O   0  0  0  0  0  0  0  0  0  0  0  0
    9.9289  -15.5281   24.7909 O   0  0  0  0  0  0  0  0  0  0  0  0
  2  1  1  1
  2  3  1  0
  4  2  1  0
  4  5  1  6
  6  4  1  0
  6  7  2  0
  9  8  1  6
  9 11  1  0
 10  9  1  0
 11 12  1  6
 11 13  1  0
 12  6  1  0
 13 14  2  0
 13 15  1  0
 15 16  1  0
 16 17  1  1
 17 18  1  0
 18 22  1  0
 19 18  2  0
 19 20  1  0
 20 21  1  0
 22 21  2  0
 23 25  1  0
 23 16  1  0
 24 23  2  0
M  END
$$$$
