TTH.pdb
     RDKit          3D

 25 25  0  0  1  0  0  0  0  0999 V2000
    7.3522  -18.9977   18.9904 C   0  0  0  0  0  0  0  0  0  0  0  0
    8.1578  -18.7071   17.7637 C   0  0  1  0  0  0  0  0  0  0  0  0
    7.6629  -19.3685   16.6492 O   0  0  0  0  0  0  0  0  0  0  0  0
    8.2752  -17.2385   17.4589 C   0  0  2  0  0  0  0  0  0  0  0  0
    8.9103  -16.9720   16.2044 N   0  0  0  0  0  0  0  0  0  0  0  0
    8.9319  -16.4717   18.5205 C   0  0  0  0  0  0  0  0  0  0  0  0
   10.1867  -16.3161   18.6038 O   0  0  0  0  0  0  0  0  0  0  0  0
    7.6996  -12.9418   20.2114 C   0  0  0  0  0  0  0  0  0  0  0  0
    7.8923  -14.0599   21.2134 C   0  0  1  0  0  0  0  0  0  0  0  0
    6.6115  -14.5259   21.5155 O   0  0  0  0  0  0  0  0  0  0  0  0
    8.7723  -15.1570   20.6645 C   0  0  2  0  0  0  0  0  0  0  0  0
    8.1650  -15.8410   19.5478 N   0  0  0  0  0  0  0  0  0  0  0  0
    9.1377  -16.0681   21.7630 C   0  0  0  0  0  0  0  0  0  0  0  0
    8.4945  -17.1465   21.8737 O   0  0  0  0  0  0  0  0  0  0  0  0
   10.1785  -15.7507   22.6723 N   0  0  0  0  0  0  0  0  0  0  0  0
   10.4890  -16.7240   23.7293 C   0  0  1  0  0  0  0  0  0  0  0  0
   11.9750  -16.8704   23.8487 C   0  0  0  0  0  0  0  0  0  0  0  0
   12.6132  -17.7239   22.8504 C   0  0  0  0  0  0  0  0  0  0  0  0
   12.0901  -18.5494   21.9085 C   0  0  0  0  0  0  0  0  0  0  0  0
   13.1048  -19.0862   21.1669 N   0  0  0  0  0  0  0  0  0  0  0  0
   14.2375  -18.5864   21.6575 C   0  0  0  0  0  0  0  0  0  0  0  0
   13.9693  -17.7677   22.6660 N   0  0  0  0  0  0  0  0  0  0  0  0
   10.0389  -16.0737   25.0134 C   0  0  0  0  0  0  0  0  0  0  0  0
    9.5980  -14.9257   25.0921 O   0  0  0  0  0  0  0  0  0  0  0  0
   10.1073  -16.7850   26.2329 O   0  0  0  0  0  0  0  0  0  0  0  0
  2  1  1  1
  2  3  1  0
  4  2  1  0
  4  5  1  6
  6  4  1  0
  6  7  2  0
  9  8  1  6
  9 11  1  0
 10  9  1  0
 11 12  1  6
 11 13  1  0
 12  6  1  0
 13 14  2  0
 13 15  1  0
 15 16  1  0
 16 17  1  1
 17 18  1  0
 18 22  1  0
 19 18  2  0
 19 20  1  0
 20 21  1  0
 22 21  2  0
 23 25  1  0
 23 16  1  0
 24 23  2  0
M  END
$$$$
