TTH.pdb
     RDKit          3D

 25 25  0  0  1  0  0  0  0  0999 V2000
   11.3182  -16.9194   15.6372 C   0  0  0  0  0  0  0  0  0  0  0  0
   10.0824  -16.9636   14.7951 C   0  0  1  0  0  0  0  0  0  0  0  0
   10.3790  -17.0226   13.4413 O   0  0  0  0  0  0  0  0  0  0  0  0
    9.1560  -18.0944   15.1509 C   0  0  2  0  0  0  0  0  0  0  0  0
    8.0575  -18.2300   14.2438 N   0  0  0  0  0  0  0  0  0  0  0  0
    8.6584  -18.0316   16.5274 C   0  0  0  0  0  0  0  0  0  0  0  0
    7.6176  -17.3958   16.8716 O   0  0  0  0  0  0  0  0  0  0  0  0
    7.9961  -20.9638   18.9604 C   0  0  0  0  0  0  0  0  0  0  0  0
    8.9326  -19.9856   19.6366 C   0  0  1  0  0  0  0  0  0  0  0  0
   10.1981  -20.5731   19.5871 O   0  0  0  0  0  0  0  0  0  0  0  0
    8.9149  -18.6360   18.9603 C   0  0  2  0  0  0  0  0  0  0  0  0
    9.3441  -18.7059   17.5839 N   0  0  0  0  0  0  0  0  0  0  0  0
    9.7137  -17.6922   19.7612 C   0  0  0  0  0  0  0  0  0  0  0  0
   10.8590  -17.3804   19.3366 O   0  0  0  0  0  0  0  0  0  0  0  0
    9.2187  -17.1463   20.9727 N   0  0  0  0  0  0  0  0  0  0  0  0
    9.9910  -16.0688   21.6079 C   0  0  1  0  0  0  0  0  0  0  0  0
    9.0977  -14.8897   21.8435 C   0  0  0  0  0  0  0  0  0  0  0  0
    8.7519  -14.1061   20.6607 C   0  0  0  0  0  0  0  0  0  0  0  0
    9.1225  -14.2314   19.3610 C   0  0  0  0  0  0  0  0  0  0  0  0
    8.4763  -13.2855   18.6157 N   0  0  0  0  0  0  0  0  0  0  0  0
    7.7167  -12.5915   19.4611 C   0  0  0  0  0  0  0  0  0  0  0  0
    7.8643  -13.0640   20.6916 N   0  0  0  0  0  0  0  0  0  0  0  0
   10.3483  -16.5896   22.9773 C   0  0  0  0  0  0  0  0  0  0  0  0
    9.9086  -17.6355   23.4582 O   0  0  0  0  0  0  0  0  0  0  0  0
   11.2413  -15.8683   23.8020 O   0  0  0  0  0  0  0  0  0  0  0  0
  2  1  1  1
  2  3  1  0
  4  2  1  0
  4  5  1  6
  6  4  1  0
  6  7  2  0
  9  8  1  6
  9 11  1  0
 10  9  1  0
 11 12  1  6
 11 13  1  0
 12  6  1  0
 13 14  2  0
 13 15  1  0
 15 16  1  0
 16 17  1  1
 17 18  1  0
 18 22  1  0
 19 18  2  0
 19 20  1  0
 20 21  1  0
 22 21  2  0
 23 25  1  0
 23 16  1  0
 24 23  2  0
M  END
$$$$
