TTH.pdb
     RDKit          3D

 25 25  0  0  1  0  0  0  0  0999 V2000
    7.5941  -17.4332   13.0867 C   0  0  0  0  0  0  0  0  0  0  0  0
    8.3971  -16.7319   14.1363 C   0  0  1  0  0  0  0  0  0  0  0  0
    9.7594  -16.8136   13.8881 O   0  0  0  0  0  0  0  0  0  0  0  0
    8.0109  -15.2895   14.3208 C   0  0  2  0  0  0  0  0  0  0  0  0
    8.0274  -14.5410   13.1012 N   0  0  0  0  0  0  0  0  0  0  0  0
    8.8050  -14.5973   15.3389 C   0  0  0  0  0  0  0  0  0  0  0  0
    9.8029  -13.8624   15.0743 O   0  0  0  0  0  0  0  0  0  0  0  0
    7.1532  -13.1445   18.8040 C   0  0  0  0  0  0  0  0  0  0  0  0
    8.4447  -13.8989   19.0370 C   0  0  1  0  0  0  0  0  0  0  0  0
    8.0736  -15.1335   19.5729 O   0  0  0  0  0  0  0  0  0  0  0  0
    9.2375  -14.0574   17.7621 C   0  0  2  0  0  0  0  0  0  0  0  0
    8.4832  -14.7207   16.7254 N   0  0  0  0  0  0  0  0  0  0  0  0
   10.5057  -14.7398   18.0723 C   0  0  0  0  0  0  0  0  0  0  0  0
   10.6769  -15.9024   17.6162 O   0  0  0  0  0  0  0  0  0  0  0  0
   11.5082  -14.1167   18.8582 N   0  0  0  0  0  0  0  0  0  0  0  0
   12.7906  -14.8172   19.0187 C   0  0  1  0  0  0  0  0  0  0  0  0
   13.9136  -13.8362   18.8760 C   0  0  0  0  0  0  0  0  0  0  0  0
   15.2602  -14.3867   19.0024 C   0  0  0  0  0  0  0  0  0  0  0  0
   15.6948  -15.6508   19.2377 C   0  0  0  0  0  0  0  0  0  0  0  0
   17.0609  -15.6709   19.2023 N   0  0  0  0  0  0  0  0  0  0  0  0
   17.4512  -14.4239   18.9452 C   0  0  0  0  0  0  0  0  0  0  0  0
   16.3911  -13.6364   18.8210 N   0  0  0  0  0  0  0  0  0  0  0  0
   12.8214  -15.2656   20.4582 C   0  0  0  0  0  0  0  0  0  0  0  0
   13.7598  -15.8746   20.9751 O   0  0  0  0  0  0  0  0  0  0  0  0
   11.7278  -14.9941   21.3114 O   0  0  0  0  0  0  0  0  0  0  0  0
  2  1  1  6
  2  3  1  0
  4  2  1  0
  4  5  1  6
  6  4  1  0
  6  7  2  0
  9  8  1  6
  9 11  1  0
 10  9  1  0
 11 12  1  6
 11 13  1  0
 12  6  1  0
 13 14  2  0
 13 15  1  0
 15 16  1  0
 16 17  1  1
 17 18  1  0
 18 22  1  0
 19 18  2  0
 19 20  1  0
 20 21  1  0
 22 21  2  0
 23 25  1  0
 23 16  1  0
 24 23  2  0
M  END
$$$$
