TTH.pdb
     RDKit          3D

 25 25  0  0  1  0  0  0  0  0999 V2000
    8.5632  -17.8243   17.2556 C   0  0  0  0  0  0  0  0  0  0  0  0
    8.6957  -16.7805   16.1921 C   0  0  1  0  0  0  0  0  0  0  0  0
    8.2950  -17.2513   14.9503 O   0  0  0  0  0  0  0  0  0  0  0  0
    7.9536  -15.5097   16.5051 C   0  0  2  0  0  0  0  0  0  0  0  0
    7.8833  -14.6098   15.3947 N   0  0  0  0  0  0  0  0  0  0  0  0
    8.4693  -14.8064   17.6823 C   0  0  0  0  0  0  0  0  0  0  0  0
    8.6009  -13.5478   17.7491 O   0  0  0  0  0  0  0  0  0  0  0  0
    7.6304  -12.9734   19.4321 C   0  0  0  0  0  0  0  0  0  0  0  0
    7.9505  -13.9769   20.5193 C   0  0  1  0  0  0  0  0  0  0  0  0
    6.7708  -14.6903   20.7389 O   0  0  0  0  0  0  0  0  0  0  0  0
    9.0892  -14.8858   20.1235 C   0  0  2  0  0  0  0  0  0  0  0  0
    8.8620  -15.5282   18.8510 N   0  0  0  0  0  0  0  0  0  0  0  0
    9.3321  -15.8462   21.2138 C   0  0  0  0  0  0  0  0  0  0  0  0
    8.6918  -16.9319   21.1972 O   0  0  0  0  0  0  0  0  0  0  0  0
   10.2550  -15.5673   22.2537 N   0  0  0  0  0  0  0  0  0  0  0  0
   10.5581  -16.6411   23.2107 C   0  0  1  0  0  0  0  0  0  0  0  0
   12.0071  -16.5781   23.5854 C   0  0  0  0  0  0  0  0  0  0  0  0
   12.9484  -17.0428   22.5703 C   0  0  0  0  0  0  0  0  0  0  0  0
   12.7515  -17.5229   21.3162 C   0  0  0  0  0  0  0  0  0  0  0  0
   13.9629  -17.7654   20.7319 N   0  0  0  0  0  0  0  0  0  0  0  0
   14.8892  -17.4320   21.6286 C   0  0  0  0  0  0  0  0  0  0  0  0
   14.3065  -16.9961   22.7376 N   0  0  0  0  0  0  0  0  0  0  0  0
    9.7973  -16.2843   24.4629 C   0  0  0  0  0  0  0  0  0  0  0  0
    9.1316  -15.2565   24.6010 O   0  0  0  0  0  0  0  0  0  0  0  0
    9.8170  -17.1517   25.5787 O   0  0  0  0  0  0  0  0  0  0  0  0
  2  1  1  1
  2  3  1  0
  4  2  1  0
  4  5  1  6
  6  4  1  0
  6  7  2  0
  9  8  1  6
  9 11  1  0
 10  9  1  0
 11 12  1  6
 11 13  1  0
 12  6  1  0
 13 14  2  0
 13 15  1  0
 15 16  1  0
 16 17  1  1
 17 18  1  0
 18 22  1  0
 19 18  2  0
 19 20  1  0
 20 21  1  0
 22 21  2  0
 23 25  1  0
 23 16  1  0
 24 23  2  0
M  END
$$$$
