TTH.pdb
     RDKit          3D

 25 25  0  0  1  0  0  0  0  0999 V2000
   13.5692  -16.0910   15.1454 C   0  0  0  0  0  0  0  0  0  0  0  0
   12.9548  -15.8222   16.4827 C   0  0  1  0  0  0  0  0  0  0  0  0
   13.5811  -16.5355   17.4943 O   0  0  0  0  0  0  0  0  0  0  0  0
   12.9283  -14.3626   16.8465 C   0  0  2  0  0  0  0  0  0  0  0  0
   14.2169  -13.7431   16.7867 N   0  0  0  0  0  0  0  0  0  0  0  0
   12.3088  -14.0953   18.1469 C   0  0  0  0  0  0  0  0  0  0  0  0
   12.9531  -13.7110   19.1682 O   0  0  0  0  0  0  0  0  0  0  0  0
    8.4275  -12.6040   18.7892 C   0  0  0  0  0  0  0  0  0  0  0  0
    8.7696  -13.8997   19.4930 C   0  0  1  0  0  0  0  0  0  0  0  0
    8.1783  -14.9125   18.7355 O   0  0  0  0  0  0  0  0  0  0  0  0
   10.2619  -14.0917   19.6168 C   0  0  2  0  0  0  0  0  0  0  0  0
   10.9021  -14.2601   18.3340 N   0  0  0  0  0  0  0  0  0  0  0  0
   10.5227  -15.2117   20.5375 C   0  0  0  0  0  0  0  0  0  0  0  0
   11.0157  -16.2678   20.0572 O   0  0  0  0  0  0  0  0  0  0  0  0
   10.2315  -15.1146   21.9220 N   0  0  0  0  0  0  0  0  0  0  0  0
   10.4932  -16.2908   22.7640 C   0  0  1  0  0  0  0  0  0  0  0  0
   10.3571  -15.9093   24.2062 C   0  0  0  0  0  0  0  0  0  0  0  0
   10.6185  -16.9717   25.1735 C   0  0  0  0  0  0  0  0  0  0  0  0
   10.9517  -18.2766   25.0055 C   0  0  0  0  0  0  0  0  0  0  0  0
   11.1548  -18.8503   26.2292 N   0  0  0  0  0  0  0  0  0  0  0  0
   10.9467  -17.8956   27.1339 C   0  0  0  0  0  0  0  0  0  0  0  0
   10.6245  -16.7614   26.5265 N   0  0  0  0  0  0  0  0  0  0  0  0
    9.3559  -17.2408   22.4846 C   0  0  0  0  0  0  0  0  0  0  0  0
    8.2561  -16.8969   22.0478 O   0  0  0  0  0  0  0  0  0  0  0  0
    9.5109  -18.6255   22.7225 O   0  0  0  0  0  0  0  0  0  0  0  0
  2  1  1  6
  2  3  1  0
  4  2  1  0
  4  5  1  1
  6  4  1  0
  6  7  2  0
  9  8  1  6
  9 11  1  0
 10  9  1  0
 11 12  1  6
 11 13  1  0
 12  6  1  0
 13 14  2  0
 13 15  1  0
 15 16  1  0
 16 17  1  1
 17 18  1  0
 18 22  1  0
 19 18  2  0
 19 20  1  0
 20 21  1  0
 22 21  2  0
 23 25  1  0
 23 16  1  0
 24 23  2  0
M  END
$$$$
