YKT.pdb
     RDKit          3D

 29 29  0  0  1  0  0  0  0  0999 V2000
   24.5339  -10.9977  -21.2196 O   0  0  0  0  0  0  0  0  0  0  0  0
   24.1381  -12.2105  -20.6655 C   0  0  0  0  0  0  0  0  0  0  0  0
   24.6601  -12.6486  -19.4669 C   0  0  0  0  0  0  0  0  0  0  0  0
   24.2857  -13.8421  -18.8990 C   0  0  0  0  0  0  0  0  0  0  0  0
   23.3659  -14.6427  -19.5219 C   0  0  0  0  0  0  0  0  0  0  0  0
   22.9703  -15.9179  -18.9084 C   0  0  0  0  0  0  0  0  0  0  0  0
   24.2292  -16.7441  -18.7163 C   0  0  2  0  0  0  0  0  0  0  0  0
   24.8019  -17.1589  -19.9608 N   0  0  0  0  0  0  0  0  0  0  0  0
   23.8475  -17.9588  -17.9422 C   0  0  0  0  0  0  0  0  0  0  0  0
   23.2821  -18.9279  -18.5274 O   0  0  0  0  0  0  0  0  0  0  0  0
   22.8184  -14.2505  -20.7153 C   0  0  0  0  0  0  0  0  0  0  0  0
   23.2153  -13.0400  -21.2655 C   0  0  0  0  0  0  0  0  0  0  0  0
   24.0880  -18.0865  -16.5664 N   0  0  0  0  0  0  0  0  0  0  0  0
   23.7619  -19.2337  -15.7840 C   0  0  1  0  0  0  0  0  0  0  0  0
   24.7929  -19.4105  -14.6957 C   0  0  0  0  0  0  0  0  0  0  0  0
   24.6448  -20.6601  -13.8949 C   0  0  0  0  0  0  0  0  0  0  0  0
   25.7888  -20.8898  -12.9396 C   0  0  0  0  0  0  0  0  0  0  0  0
   25.5871  -22.1902  -12.1933 C   0  0  0  0  0  0  0  0  0  0  0  0
   26.7063  -22.4071  -11.2986 N   0  0  0  0  0  0  0  0  0  0  0  0
   22.4252  -19.1152  -15.1344 C   0  0  0  0  0  0  0  0  0  0  0  0
   22.1876  -18.1494  -14.3636 O   0  0  0  0  0  0  0  0  0  0  0  0
   19.1985  -18.4557  -16.5437 C   0  0  0  0  0  0  0  0  0  0  0  0
   19.0683  -19.7979  -15.8608 C   0  0  1  0  0  0  0  0  0  0  0  0
   19.4601  -20.7596  -16.8205 O   0  0  0  0  0  0  0  0  0  0  0  0
   20.0689  -19.9221  -14.7254 C   0  0  2  0  0  0  0  0  0  0  0  0
   21.3903  -20.0614  -15.3514 N   0  0  0  0  0  0  0  0  0  0  0  0
   19.7382  -21.1486  -13.9792 C   0  0  0  0  0  0  0  0  0  0  0  0
   20.4326  -22.1713  -14.1238 O   0  0  0  0  0  0  0  0  0  0  0  0
   18.6635  -21.1678  -13.1220 O   0  0  0  0  0  0  0  0  0  0  0  0
  2  1  1  0
  2  3  2  0
  4  3  1  0
  5  4  2  0
  6  5  1  0
  7  6  1  0
  7  8  1  6
  9  7  1  0
 10  9  2  0
 11 12  2  0
 11  5  1  0
 12  2  1  0
 13  9  1  0
 14 13  1  0
 15 16  1  0
 14 15  1  1
 16 17  1  0
 18 17  1  0
 19 18  1  0
 20 14  1  0
 20 21  2  0
 23 22  1  6
 24 23  1  0
 25 23  1  0
 25 26  1  6
 26 20  1  0
 27 25  1  0
 28 27  2  0
 29 27  1  0
M  END
$$$$
