YKT.pdb
     RDKit          3D

 29 29  0  0  1  0  0  0  0  0999 V2000
   31.9634  -30.2316  -19.4662 O   0  0  0  0  0  0  0  0  0  0  0  0
   31.0552  -29.3511  -18.8879 C   0  0  0  0  0  0  0  0  0  0  0  0
   29.8039  -29.1596  -19.4344 C   0  0  0  0  0  0  0  0  0  0  0  0
   28.8893  -28.2959  -18.8823 C   0  0  0  0  0  0  0  0  0  0  0  0
   29.2041  -27.5893  -17.7525 C   0  0  0  0  0  0  0  0  0  0  0  0
   28.2206  -26.6674  -17.1677 C   0  0  0  0  0  0  0  0  0  0  0  0
   28.2350  -25.3957  -17.9968 C   0  0  2  0  0  0  0  0  0  0  0  0
   29.4272  -24.6297  -17.7956 N   0  0  0  0  0  0  0  0  0  0  0  0
   27.0670  -24.5754  -17.5690 C   0  0  0  0  0  0  0  0  0  0  0  0
   27.1624  -23.8212  -16.5573 O   0  0  0  0  0  0  0  0  0  0  0  0
   30.4356  -27.7454  -17.1722 C   0  0  0  0  0  0  0  0  0  0  0  0
   31.3394  -28.6246  -17.7515 C   0  0  0  0  0  0  0  0  0  0  0  0
   25.8385  -24.5964  -18.2454 N   0  0  0  0  0  0  0  0  0  0  0  0
   24.6952  -23.8234  -17.8850 C   0  0  1  0  0  0  0  0  0  0  0  0
   24.0053  -23.3324  -19.1346 C   0  0  0  0  0  0  0  0  0  0  0  0
   24.4921  -22.0154  -19.6379 C   0  0  0  0  0  0  0  0  0  0  0  0
   23.7521  -21.5398  -20.8628 C   0  0  0  0  0  0  0  0  0  0  0  0
   24.2906  -20.1967  -21.3041 C   0  0  0  0  0  0  0  0  0  0  0  0
   23.7496  -19.8691  -22.6080 N   0  0  0  0  0  0  0  0  0  0  0  0
   23.7059  -24.6098  -17.0940 C   0  0  0  0  0  0  0  0  0  0  0  0
   23.4389  -25.7938  -17.4259 O   0  0  0  0  0  0  0  0  0  0  0  0
   21.7502  -25.5212  -12.7569 C   0  0  0  0  0  0  0  0  0  0  0  0
   22.6793  -24.8161  -13.7185 C   0  0  1  0  0  0  0  0  0  0  0  0
   23.8720  -25.5756  -13.7306 O   0  0  0  0  0  0  0  0  0  0  0  0
   22.1376  -24.8830  -15.1354 C   0  0  2  0  0  0  0  0  0  0  0  0
   23.0401  -24.0715  -15.9625 N   0  0  0  0  0  0  0  0  0  0  0  0
   20.7939  -24.2788  -15.1222 C   0  0  0  0  0  0  0  0  0  0  0  0
   20.6142  -23.1506  -15.6158 O   0  0  0  0  0  0  0  0  0  0  0  0
   19.7360  -24.9578  -14.5656 O   0  0  0  0  0  0  0  0  0  0  0  0
  2  1  1  0
  2  3  2  0
  4  3  1  0
  5  4  2  0
  6  5  1  0
  7  6  1  0
  7  8  1  1
  9  7  1  0
 10  9  2  0
 11 12  2  0
 11  5  1  0
 12  2  1  0
 13  9  1  0
 14 13  1  0
 15 16  1  0
 14 15  1  6
 16 17  1  0
 18 17  1  0
 19 18  1  0
 20 14  1  0
 20 21  2  0
 23 22  1  1
 24 23  1  0
 25 23  1  0
 25 26  1  6
 26 20  1  0
 27 25  1  0
 28 27  2  0
 29 27  1  0
M  END
$$$$
