YKT.pdb
     RDKit          3D

 29 29  0  0  1  0  0  0  0  0999 V2000
   15.2481  -17.0474  -21.5546 O   0  0  0  0  0  0  0  0  0  0  0  0
   15.8189  -16.1254  -20.6836 C   0  0  0  0  0  0  0  0  0  0  0  0
   15.3894  -16.0205  -19.3777 C   0  0  0  0  0  0  0  0  0  0  0  0
   15.9368  -15.1183  -18.4982 C   0  0  0  0  0  0  0  0  0  0  0  0
   16.9431  -14.2836  -18.9049 C   0  0  0  0  0  0  0  0  0  0  0  0
   17.5236  -13.3211  -17.9585 C   0  0  0  0  0  0  0  0  0  0  0  0
   18.8163  -13.9185  -17.4325 C   0  0  2  0  0  0  0  0  0  0  0  0
   18.5875  -15.0566  -16.5952 N   0  0  0  0  0  0  0  0  0  0  0  0
   19.4942  -12.8652  -16.6253 C   0  0  0  0  0  0  0  0  0  0  0  0
   19.0703  -12.5887  -15.4655 O   0  0  0  0  0  0  0  0  0  0  0  0
   17.4043  -14.3499  -20.1936 C   0  0  0  0  0  0  0  0  0  0  0  0
   16.8328  -15.2709  -21.0601 C   0  0  0  0  0  0  0  0  0  0  0  0
   20.6037  -12.1476  -17.0956 N   0  0  0  0  0  0  0  0  0  0  0  0
   21.3657  -11.2233  -16.3213 C   0  0  1  0  0  0  0  0  0  0  0  0
   22.8340  -11.4068  -16.6197 C   0  0  0  0  0  0  0  0  0  0  0  0
   23.4642  -12.5792  -15.9467 C   0  0  0  0  0  0  0  0  0  0  0  0
   24.9078  -12.7786  -16.3347 C   0  0  0  0  0  0  0  0  0  0  0  0
   25.4148  -14.0937  -15.7848 C   0  0  0  0  0  0  0  0  0  0  0  0
   26.7608  -14.3275  -16.2683 N   0  0  0  0  0  0  0  0  0  0  0  0
   21.0107   -9.8063  -16.6198 C   0  0  0  0  0  0  0  0  0  0  0  0
   20.9506   -9.4148  -17.8141 O   0  0  0  0  0  0  0  0  0  0  0  0
   18.8237   -5.6826  -15.0778 C   0  0  0  0  0  0  0  0  0  0  0  0
   19.1961   -7.1431  -14.9634 C   0  0  1  0  0  0  0  0  0  0  0  0
   18.0805   -7.8655  -15.4461 O   0  0  0  0  0  0  0  0  0  0  0  0
   20.3398   -7.4811  -15.9032 C   0  0  2  0  0  0  0  0  0  0  0  0
   20.7327   -8.8629  -15.5971 N   0  0  0  0  0  0  0  0  0  0  0  0
   21.4511   -6.5654  -15.5916 C   0  0  0  0  0  0  0  0  0  0  0  0
   22.3842   -6.9453  -14.8610 O   0  0  0  0  0  0  0  0  0  0  0  0
   21.4613   -5.2904  -16.1059 O   0  0  0  0  0  0  0  0  0  0  0  0
  2  1  1  0
  2  3  2  0
  4  3  1  0
  5  4  2  0
  6  5  1  0
  7  6  1  0
  7  8  1  1
  9  7  1  0
 10  9  2  0
 11 12  2  0
 11  5  1  0
 12  2  1  0
 13  9  1  0
 14 13  1  0
 15 16  1  0
 14 15  1  6
 16 17  1  0
 18 17  1  0
 19 18  1  0
 20 14  1  0
 20 21  2  0
 23 22  1  6
 24 23  1  0
 25 23  1  0
 25 26  1  1
 26 20  1  0
 27 25  1  0
 28 27  2  0
 29 27  1  0
M  END
$$$$
