YKT.pdb
     RDKit          3D

 29 29  0  0  1  0  0  0  0  0999 V2000
   20.6068  -22.3359   -5.9804 O   0  0  0  0  0  0  0  0  0  0  0  0
   21.2282  -21.8770   -7.1370 C   0  0  0  0  0  0  0  0  0  0  0  0
   20.5452  -21.1049   -8.0526 C   0  0  0  0  0  0  0  0  0  0  0  0
   21.1362  -20.6396   -9.2021 C   0  0  0  0  0  0  0  0  0  0  0  0
   22.4451  -20.9371   -9.4726 C   0  0  0  0  0  0  0  0  0  0  0  0
   23.0705  -20.4358  -10.7042 C   0  0  0  0  0  0  0  0  0  0  0  0
   24.5493  -20.7720  -10.6369 C   0  0  2  0  0  0  0  0  0  0  0  0
   25.2522  -19.9458   -9.7031 N   0  0  0  0  0  0  0  0  0  0  0  0
   25.1178  -20.5416  -11.9948 C   0  0  0  0  0  0  0  0  0  0  0  0
   25.7695  -19.4837  -12.2348 O   0  0  0  0  0  0  0  0  0  0  0  0
   23.1660  -21.7014   -8.5929 C   0  0  0  0  0  0  0  0  0  0  0  0
   22.5432  -22.1577   -7.4399 C   0  0  0  0  0  0  0  0  0  0  0  0
   24.9643  -21.4579  -13.0455 N   0  0  0  0  0  0  0  0  0  0  0  0
   25.4046  -21.2445  -14.3853 C   0  0  1  0  0  0  0  0  0  0  0  0
   25.8893  -22.5491  -14.9698 C   0  0  0  0  0  0  0  0  0  0  0  0
   26.4172  -22.4499  -16.3613 C   0  0  0  0  0  0  0  0  0  0  0  0
   27.7886  -23.0572  -16.5185 C   0  0  0  0  0  0  0  0  0  0  0  0
   28.2980  -22.8284  -17.9245 C   0  0  0  0  0  0  0  0  0  0  0  0
   29.5452  -23.5442  -18.1041 N   0  0  0  0  0  0  0  0  0  0  0  0
   24.3172  -20.7248  -15.2631 C   0  0  0  0  0  0  0  0  0  0  0  0
   23.1482  -21.1748  -15.1439 O   0  0  0  0  0  0  0  0  0  0  0  0
   23.8567  -16.8337  -16.2939 C   0  0  0  0  0  0  0  0  0  0  0  0
   23.8965  -17.7797  -17.4721 C   0  0  1  0  0  0  0  0  0  0  0  0
   25.2604  -17.9004  -17.8252 O   0  0  0  0  0  0  0  0  0  0  0  0
   23.4566  -19.1727  -17.0577 C   0  0  2  0  0  0  0  0  0  0  0  0
   24.5474  -19.7266  -16.2449 N   0  0  0  0  0  0  0  0  0  0  0  0
   23.2967  -19.9681  -18.2874 C   0  0  0  0  0  0  0  0  0  0  0  0
   22.2016  -19.9870  -18.8783 O   0  0  0  0  0  0  0  0  0  0  0  0
   24.3547  -20.6911  -18.7856 O   0  0  0  0  0  0  0  0  0  0  0  0
  2  1  1  0
  2  3  2  0
  4  3  1  0
  5  4  2  0
  6  5  1  0
  7  6  1  0
  7  8  1  1
  9  7  1  0
 10  9  2  0
 11 12  2  0
 11  5  1  0
 12  2  1  0
 13  9  1  0
 14 13  1  0
 15 16  1  0
 14 15  1  6
 16 17  1  0
 18 17  1  0
 19 18  1  0
 20 14  1  0
 20 21  2  0
 23 22  1  1
 24 23  1  0
 25 23  1  0
 25 26  1  1
 26 20  1  0
 27 25  1  0
 28 27  2  0
 29 27  1  0
M  END
$$$$
