YKT.pdb
     RDKit          3D

 29 29  0  0  1  0  0  0  0  0999 V2000
   30.2045  -20.0757   -6.4591 O   0  0  0  0  0  0  0  0  0  0  0  0
   29.0706  -20.2152   -7.2524 C   0  0  0  0  0  0  0  0  0  0  0  0
   27.9168  -19.5139   -6.9732 C   0  0  0  0  0  0  0  0  0  0  0  0
   26.7842  -19.6342   -7.7412 C   0  0  0  0  0  0  0  0  0  0  0  0
   26.7727  -20.4706   -8.8252 C   0  0  0  0  0  0  0  0  0  0  0  0
   25.5574  -20.5940   -9.6420 C   0  0  0  0  0  0  0  0  0  0  0  0
   25.9915  -20.8629  -11.0716 C   0  0  2  0  0  0  0  0  0  0  0  0
   27.0734  -20.0188  -11.4786 N   0  0  0  0  0  0  0  0  0  0  0  0
   24.8193  -20.5870  -11.9492 C   0  0  0  0  0  0  0  0  0  0  0  0
   24.3234  -19.4235  -11.9922 O   0  0  0  0  0  0  0  0  0  0  0  0
   27.8953  -21.1891   -9.1434 C   0  0  0  0  0  0  0  0  0  0  0  0
   29.0249  -21.0478   -8.3499 C   0  0  0  0  0  0  0  0  0  0  0  0
   24.2231  -21.5731  -12.7487 N   0  0  0  0  0  0  0  0  0  0  0  0
   23.1063  -21.3603  -13.6101 C   0  0  1  0  0  0  0  0  0  0  0  0
   23.5426  -21.5120  -15.0471 C   0  0  0  0  0  0  0  0  0  0  0  0
   24.6214  -20.5739  -15.4725 C   0  0  0  0  0  0  0  0  0  0  0  0
   25.1044  -20.8262  -16.8786 C   0  0  0  0  0  0  0  0  0  0  0  0
   26.0969  -19.7590  -17.2844 C   0  0  0  0  0  0  0  0  0  0  0  0
   26.5270  -19.9987  -18.6474 N   0  0  0  0  0  0  0  0  0  0  0  0
   22.0046  -22.3333  -13.3602 C   0  0  0  0  0  0  0  0  0  0  0  0
   22.2463  -23.5681  -13.3704 O   0  0  0  0  0  0  0  0  0  0  0  0
   19.1903  -21.9324  -10.5686 C   0  0  0  0  0  0  0  0  0  0  0  0
   18.5999  -22.1761  -11.9385 C   0  0  1  0  0  0  0  0  0  0  0  0
   18.4145  -20.8973  -12.5128 O   0  0  0  0  0  0  0  0  0  0  0  0
   19.5985  -22.8861  -12.8354 C   0  0  2  0  0  0  0  0  0  0  0  0
   20.6711  -21.9201  -13.1069 N   0  0  0  0  0  0  0  0  0  0  0  0
   18.9021  -23.2242  -14.0889 C   0  0  0  0  0  0  0  0  0  0  0  0
   19.1334  -22.5736  -15.1242 O   0  0  0  0  0  0  0  0  0  0  0  0
   17.9960  -24.2578  -14.1192 O   0  0  0  0  0  0  0  0  0  0  0  0
  2  1  1  0
  2  3  2  0
  4  3  1  0
  5  4  2  0
  6  5  1  0
  7  6  1  0
  7  8  1  6
  9  7  1  0
 10  9  2  0
 11 12  2  0
 11  5  1  0
 12  2  1  0
 13  9  1  0
 14 13  1  0
 15 16  1  0
 14 15  1  6
 16 17  1  0
 18 17  1  0
 19 18  1  0
 20 14  1  0
 20 21  2  0
 23 22  1  1
 24 23  1  0
 25 23  1  0
 25 26  1  6
 26 20  1  0
 27 25  1  0
 28 27  2  0
 29 27  1  0
M  END
$$$$
