YKT.pdb
     RDKit          3D

 29 29  0  0  1  0  0  0  0  0999 V2000
   28.7193  -19.9676   -3.5802 O   0  0  0  0  0  0  0  0  0  0  0  0
   28.2044  -19.8211   -4.8639 C   0  0  0  0  0  0  0  0  0  0  0  0
   28.8011  -18.9782   -5.7774 C   0  0  0  0  0  0  0  0  0  0  0  0
   28.3120  -18.8163   -7.0509 C   0  0  0  0  0  0  0  0  0  0  0  0
   27.1971  -19.5019   -7.4529 C   0  0  0  0  0  0  0  0  0  0  0  0
   26.6798  -19.3235   -8.8167 C   0  0  0  0  0  0  0  0  0  0  0  0
   26.0350  -20.6320   -9.2371 C   0  0  2  0  0  0  0  0  0  0  0  0
   26.9992  -21.6671   -9.4554 N   0  0  0  0  0  0  0  0  0  0  0  0
   25.3137  -20.3789  -10.5161 C   0  0  0  0  0  0  0  0  0  0  0  0
   24.5093  -19.4061  -10.6050 O   0  0  0  0  0  0  0  0  0  0  0  0
   26.5685  -20.3517   -6.5809 C   0  0  0  0  0  0  0  0  0  0  0  0
   27.0846  -20.4957   -5.3009 C   0  0  0  0  0  0  0  0  0  0  0  0
   25.4842  -21.1820  -11.6533 N   0  0  0  0  0  0  0  0  0  0  0  0
   24.7999  -20.9992  -12.8914 C   0  0  1  0  0  0  0  0  0  0  0  0
   25.4783  -21.8132  -13.9665 C   0  0  0  0  0  0  0  0  0  0  0  0
   24.9753  -21.5622  -15.3480 C   0  0  0  0  0  0  0  0  0  0  0  0
   25.7028  -22.3645  -16.3974 C   0  0  0  0  0  0  0  0  0  0  0  0
   25.2530  -21.9398  -17.7780 C   0  0  0  0  0  0  0  0  0  0  0  0
   25.9315  -22.7473  -18.7719 N   0  0  0  0  0  0  0  0  0  0  0  0
   23.3746  -21.4309  -12.8202 C   0  0  0  0  0  0  0  0  0  0  0  0
   22.9913  -22.1702  -11.8769 O   0  0  0  0  0  0  0  0  0  0  0  0
   21.1532  -21.1864  -11.1353 C   0  0  0  0  0  0  0  0  0  0  0  0
   20.5416  -20.5721  -12.3736 C   0  0  1  0  0  0  0  0  0  0  0  0
   21.1080  -19.2814  -12.4850 O   0  0  0  0  0  0  0  0  0  0  0  0
   20.9828  -21.3210  -13.6187 C   0  0  2  0  0  0  0  0  0  0  0  0
   22.4140  -21.0371  -13.7873 N   0  0  0  0  0  0  0  0  0  0  0  0
   20.2268  -20.7685  -14.7561 C   0  0  0  0  0  0  0  0  0  0  0  0
   20.8066  -20.0722  -15.6093 O   0  0  0  0  0  0  0  0  0  0  0  0
   18.8807  -21.0196  -14.8789 O   0  0  0  0  0  0  0  0  0  0  0  0
  2  1  1  0
  2  3  2  0
  4  3  1  0
  5  4  2  0
  6  5  1  0
  7  6  1  0
  7  8  1  6
  9  7  1  0
 10  9  2  0
 11 12  2  0
 11  5  1  0
 12  2  1  0
 13  9  1  0
 14 13  1  0
 15 16  1  0
 14 15  1  6
 16 17  1  0
 18 17  1  0
 19 18  1  0
 20 14  1  0
 20 21  2  0
 23 22  1  1
 24 23  1  0
 25 23  1  0
 25 26  1  6
 26 20  1  0
 27 25  1  0
 28 27  2  0
 29 27  1  0
M  END
$$$$
