YKT.pdb
     RDKit          3D

 29 29  0  0  1  0  0  0  0  0999 V2000
   21.4980  -21.1606   -6.0245 O   0  0  0  0  0  0  0  0  0  0  0  0
   21.9868  -21.1970   -7.3261 C   0  0  0  0  0  0  0  0  0  0  0  0
   23.2550  -20.7443   -7.6222 C   0  0  0  0  0  0  0  0  0  0  0  0
   23.7607  -20.7696   -8.8992 C   0  0  0  0  0  0  0  0  0  0  0  0
   23.0024  -21.2551   -9.9308 C   0  0  0  0  0  0  0  0  0  0  0  0
   23.5502  -21.2790  -11.2941 C   0  0  0  0  0  0  0  0  0  0  0  0
   23.4024  -19.8831  -11.8720 C   0  0  2  0  0  0  0  0  0  0  0  0
   22.0400  -19.5596  -12.1687 N   0  0  0  0  0  0  0  0  0  0  0  0
   24.1855  -19.8435  -13.1391 C   0  0  0  0  0  0  0  0  0  0  0  0
   23.6313  -20.1551  -14.2332 O   0  0  0  0  0  0  0  0  0  0  0  0
   21.7355  -21.7166   -9.6867 C   0  0  0  0  0  0  0  0  0  0  0  0
   21.2507  -21.6788   -8.3871 C   0  0  0  0  0  0  0  0  0  0  0  0
   25.5367  -19.4701  -13.1828 N   0  0  0  0  0  0  0  0  0  0  0  0
   26.3283  -19.4080  -14.3678 C   0  0  1  0  0  0  0  0  0  0  0  0
   27.5971  -18.6404  -14.0860 C   0  0  0  0  0  0  0  0  0  0  0  0
   28.5341  -18.5406  -15.2422 C   0  0  0  0  0  0  0  0  0  0  0  0
   28.0819  -17.5511  -16.2865 C   0  0  0  0  0  0  0  0  0  0  0  0
   29.1413  -17.4074  -17.3568 C   0  0  0  0  0  0  0  0  0  0  0  0
   28.7294  -16.3916  -18.3047 N   0  0  0  0  0  0  0  0  0  0  0  0
   26.7114  -20.7605  -14.8647 C   0  0  0  0  0  0  0  0  0  0  0  0
   27.1037  -21.6375  -14.0521 O   0  0  0  0  0  0  0  0  0  0  0  0
   26.4419  -24.0187  -18.5929 C   0  0  0  0  0  0  0  0  0  0  0  0
   26.1797  -22.6513  -18.0043 C   0  0  1  0  0  0  0  0  0  0  0  0
   24.8134  -22.6425  -17.6402 O   0  0  0  0  0  0  0  0  0  0  0  0
   26.9494  -22.4677  -16.7083 C   0  0  2  0  0  0  0  0  0  0  0  0
   26.6519  -21.1081  -16.2390 N   0  0  0  0  0  0  0  0  0  0  0  0
   28.3831  -22.5832  -17.0274 C   0  0  0  0  0  0  0  0  0  0  0  0
   29.0546  -23.5141  -16.5464 O   0  0  0  0  0  0  0  0  0  0  0  0
   28.9831  -21.6648  -17.8560 O   0  0  0  0  0  0  0  0  0  0  0  0
  2  1  1  0
  2  3  2  0
  4  3  1  0
  5  4  2  0
  6  5  1  0
  7  6  1  0
  7  8  1  6
  9  7  1  0
 10  9  2  0
 11 12  2  0
 11  5  1  0
 12  2  1  0
 13  9  1  0
 14 13  1  0
 15 16  1  0
 14 15  1  1
 16 17  1  0
 18 17  1  0
 19 18  1  0
 20 14  1  0
 20 21  2  0
 23 22  1  1
 24 23  1  0
 25 23  1  0
 25 26  1  6
 26 20  1  0
 27 25  1  0
 28 27  2  0
 29 27  1  0
M  END
$$$$
