YKT.pdb
     RDKit          3D

 29 29  0  0  1  0  0  0  0  0999 V2000
   28.8223  -18.8388   -3.7715 O   0  0  0  0  0  0  0  0  0  0  0  0
   28.4830  -19.2504   -5.0560 C   0  0  0  0  0  0  0  0  0  0  0  0
   28.9282  -18.5614   -6.1642 C   0  0  0  0  0  0  0  0  0  0  0  0
   28.6071  -18.9475   -7.4429 C   0  0  0  0  0  0  0  0  0  0  0  0
   27.8209  -20.0487   -7.6529 C   0  0  0  0  0  0  0  0  0  0  0  0
   27.4817  -20.4556   -9.0235 C   0  0  0  0  0  0  0  0  0  0  0  0
   25.9845  -20.2752   -9.1978 C   0  0  2  0  0  0  0  0  0  0  0  0
   25.2305  -21.2094   -8.4185 N   0  0  0  0  0  0  0  0  0  0  0  0
   25.6763  -20.5018  -10.6379 C   0  0  0  0  0  0  0  0  0  0  0  0
   26.3866  -19.9520  -11.5293 O   0  0  0  0  0  0  0  0  0  0  0  0
   27.3540  -20.7665   -6.5832 C   0  0  0  0  0  0  0  0  0  0  0  0
   27.6942  -20.3534   -5.3029 C   0  0  0  0  0  0  0  0  0  0  0  0
   24.6147  -21.3119  -11.0668 N   0  0  0  0  0  0  0  0  0  0  0  0
   24.2372  -21.5097  -12.4280 C   0  0  1  0  0  0  0  0  0  0  0  0
   23.6730  -22.8995  -12.5972 C   0  0  0  0  0  0  0  0  0  0  0  0
   23.4631  -23.3180  -14.0134 C   0  0  0  0  0  0  0  0  0  0  0  0
   24.6330  -24.0786  -14.5852 C   0  0  0  0  0  0  0  0  0  0  0  0
   24.4103  -24.3403  -16.0584 C   0  0  0  0  0  0  0  0  0  0  0  0
   25.5651  -25.0260  -16.6027 N   0  0  0  0  0  0  0  0  0  0  0  0
   23.2003  -20.5363  -12.8755 C   0  0  0  0  0  0  0  0  0  0  0  0
   22.2598  -20.2235  -12.1003 O   0  0  0  0  0  0  0  0  0  0  0  0
   23.8896  -17.3273  -15.4485 C   0  0  0  0  0  0  0  0  0  0  0  0
   22.7709  -18.2741  -15.8188 C   0  0  1  0  0  0  0  0  0  0  0  0
   23.3704  -19.2996  -16.5859 O   0  0  0  0  0  0  0  0  0  0  0  0
   22.2159  -18.9593  -14.5827 C   0  0  2  0  0  0  0  0  0  0  0  0
   23.2284  -19.9362  -14.1609 N   0  0  0  0  0  0  0  0  0  0  0  0
   20.9831  -19.6595  -14.9834 C   0  0  0  0  0  0  0  0  0  0  0  0
   19.9110  -19.0330  -15.0676 O   0  0  0  0  0  0  0  0  0  0  0  0
   21.0125  -21.0048  -15.2651 O   0  0  0  0  0  0  0  0  0  0  0  0
  2  1  1  0
  2  3  2  0
  4  3  1  0
  5  4  2  0
  6  5  1  0
  7  6  1  0
  7  8  1  1
  9  7  1  0
 10  9  2  0
 11 12  2  0
 11  5  1  0
 12  2  1  0
 13  9  1  0
 14 13  1  0
 15 16  1  0
 14 15  1  1
 16 17  1  0
 18 17  1  0
 19 18  1  0
 20 14  1  0
 20 21  2  0
 23 22  1  1
 24 23  1  0
 25 23  1  0
 25 26  1  6
 26 20  1  0
 27 25  1  0
 28 27  2  0
 29 27  1  0
M  END
$$$$
