YKT.pdb
     RDKit          3D

 29 29  0  0  1  0  0  0  0  0999 V2000
   20.1809  -11.3102  -24.7270 O   0  0  0  0  0  0  0  0  0  0  0  0
   19.8704  -10.4296  -23.6961 C   0  0  0  0  0  0  0  0  0  0  0  0
   18.6240  -10.4360  -23.1067 C   0  0  0  0  0  0  0  0  0  0  0  0
   18.2929   -9.5768  -22.0873 C   0  0  0  0  0  0  0  0  0  0  0  0
   19.2113   -8.6742  -21.6216 C   0  0  0  0  0  0  0  0  0  0  0  0
   18.8499   -7.7583  -20.5309 C   0  0  0  0  0  0  0  0  0  0  0  0
   19.4092   -8.3358  -19.2432 C   0  0  2  0  0  0  0  0  0  0  0  0
   18.7470   -9.5447  -18.8574 N   0  0  0  0  0  0  0  0  0  0  0  0
   19.1996   -7.3189  -18.1745 C   0  0  0  0  0  0  0  0  0  0  0  0
   18.0736   -7.2256  -17.6045 O   0  0  0  0  0  0  0  0  0  0  0  0
   20.4639   -8.6293  -22.1754 C   0  0  0  0  0  0  0  0  0  0  0  0
   20.7705   -9.5091  -23.2038 C   0  0  0  0  0  0  0  0  0  0  0  0
   20.2092   -6.4392  -17.7577 N   0  0  0  0  0  0  0  0  0  0  0  0
   20.0696   -5.4685  -16.7219 C   0  0  1  0  0  0  0  0  0  0  0  0
   21.0818   -5.7418  -15.6360 C   0  0  0  0  0  0  0  0  0  0  0  0
   20.6340   -6.7148  -14.5980 C   0  0  0  0  0  0  0  0  0  0  0  0
   21.6733   -6.9655  -13.5344 C   0  0  0  0  0  0  0  0  0  0  0  0
   21.1705   -8.0015  -12.5533 C   0  0  0  0  0  0  0  0  0  0  0  0
   22.1741   -8.2189  -11.5306 N   0  0  0  0  0  0  0  0  0  0  0  0
   20.2895   -4.0786  -17.2145 C   0  0  0  0  0  0  0  0  0  0  0  0
   21.3067   -3.8137  -17.9061 O   0  0  0  0  0  0  0  0  0  0  0  0
   18.3195   -2.0491  -19.5071 C   0  0  0  0  0  0  0  0  0  0  0  0
   18.3841   -1.2687  -18.2142 C   0  0  1  0  0  0  0  0  0  0  0  0
   17.2799   -1.7030  -17.4450 O   0  0  0  0  0  0  0  0  0  0  0  0
   19.6161   -1.6544  -17.4149 C   0  0  2  0  0  0  0  0  0  0  0  0
   19.3852   -3.0223  -16.9323 N   0  0  0  0  0  0  0  0  0  0  0  0
   19.7063   -0.7301  -16.2712 C   0  0  0  0  0  0  0  0  0  0  0  0
   19.4349   -1.1306  -15.1246 O   0  0  0  0  0  0  0  0  0  0  0  0
   20.0898    0.5757  -16.4662 O   0  0  0  0  0  0  0  0  0  0  0  0
  2  1  1  0
  2  3  2  0
  4  3  1  0
  5  4  2  0
  6  5  1  0
  7  6  1  0
  7  8  1  1
  9  7  1  0
 10  9  2  0
 11 12  2  0
 11  5  1  0
 12  2  1  0
 13  9  1  0
 14 13  1  0
 15 16  1  0
 14 15  1  1
 16 17  1  0
 18 17  1  0
 19 18  1  0
 20 14  1  0
 20 21  2  0
 23 22  1  6
 24 23  1  0
 25 23  1  0
 25 26  1  1
 26 20  1  0
 27 25  1  0
 28 27  2  0
 29 27  1  0
M  END
$$$$
