YKT.pdb
     RDKit          3D

 29 29  0  0  1  0  0  0  0  0999 V2000
   15.1867  -19.4510  -18.0308 O   0  0  0  0  0  0  0  0  0  0  0  0
   16.4917  -18.9731  -17.9763 C   0  0  0  0  0  0  0  0  0  0  0  0
   17.4396  -19.3882  -18.8874 C   0  0  0  0  0  0  0  0  0  0  0  0
   18.7347  -18.9312  -18.8547 C   0  0  0  0  0  0  0  0  0  0  0  0
   19.1244  -18.0336  -17.8969 C   0  0  0  0  0  0  0  0  0  0  0  0
   20.5113  -17.5492  -17.8682 C   0  0  0  0  0  0  0  0  0  0  0  0
   21.3879  -18.6966  -17.3998 C   0  0  2  0  0  0  0  0  0  0  0  0
   21.2186  -18.9756  -16.0062 N   0  0  0  0  0  0  0  0  0  0  0  0
   22.8038  -18.2960  -17.6341 C   0  0  0  0  0  0  0  0  0  0  0  0
   23.3786  -17.5088  -16.8270 O   0  0  0  0  0  0  0  0  0  0  0  0
   18.2183  -17.5910  -16.9690 C   0  0  0  0  0  0  0  0  0  0  0  0
   16.9171  -18.0697  -17.0261 C   0  0  0  0  0  0  0  0  0  0  0  0
   23.5500  -18.7569  -18.7286 N   0  0  0  0  0  0  0  0  0  0  0  0
   24.9091  -18.4137  -18.9924 C   0  0  1  0  0  0  0  0  0  0  0  0
   25.7099  -19.6717  -19.2261 C   0  0  0  0  0  0  0  0  0  0  0  0
   26.0134  -20.4545  -17.9933 C   0  0  0  0  0  0  0  0  0  0  0  0
   26.8819  -21.6590  -18.2560 C   0  0  0  0  0  0  0  0  0  0  0  0
   27.0188  -22.4836  -16.9951 C   0  0  0  0  0  0  0  0  0  0  0  0
   27.8488  -23.6400  -17.2672 N   0  0  0  0  0  0  0  0  0  0  0  0
   25.0512  -17.5490  -20.1986 C   0  0  0  0  0  0  0  0  0  0  0  0
   24.5913  -17.9365  -21.3038 O   0  0  0  0  0  0  0  0  0  0  0  0
   24.0730  -13.8211  -20.5022 C   0  0  0  0  0  0  0  0  0  0  0  0
   25.5304  -14.0052  -20.8585 C   0  0  1  0  0  0  0  0  0  0  0  0
   26.2444  -13.8769  -19.6448 O   0  0  0  0  0  0  0  0  0  0  0  0
   25.7912  -15.4221  -21.3384 C   0  0  2  0  0  0  0  0  0  0  0  0
   25.6942  -16.2849  -20.1538 N   0  0  0  0  0  0  0  0  0  0  0  0
   27.1635  -15.4605  -21.8730 C   0  0  0  0  0  0  0  0  0  0  0  0
   28.0559  -16.0676  -21.2535 O   0  0  0  0  0  0  0  0  0  0  0  0
   27.4625  -14.8270  -23.0560 O   0  0  0  0  0  0  0  0  0  0  0  0
  2  1  1  0
  2  3  2  0
  4  3  1  0
  5  4  2  0
  6  5  1  0
  7  6  1  0
  7  8  1  1
  9  7  1  0
 10  9  2  0
 11 12  2  0
 11  5  1  0
 12  2  1  0
 13  9  1  0
 14 13  1  0
 15 16  1  0
 14 15  1  6
 16 17  1  0
 18 17  1  0
 19 18  1  0
 20 14  1  0
 20 21  2  0
 23 22  1  1
 24 23  1  0
 25 23  1  0
 25 26  1  1
 26 20  1  0
 27 25  1  0
 28 27  2  0
 29 27  1  0
M  END
$$$$
