SVT.pdb
     RDKit          3D

 21 20  0  0  1  0  0  0  0  0999 V2000
    6.4542  -16.9048   20.0351 O   0  0  0  0  0  0  0  0  0  0  0  0
    6.8753  -16.5541   21.2928 C   0  0  0  0  0  0  0  0  0  0  0  0
    7.5029  -15.1837   21.3689 C   0  0  2  0  0  0  0  0  0  0  0  0
    8.5051  -14.9724   20.3754 N   0  0  0  0  0  0  0  0  0  0  0  0
    8.0477  -14.8932   22.7191 C   0  0  0  0  0  0  0  0  0  0  0  0
    9.2435  -15.1503   22.9764 O   0  0  0  0  0  0  0  0  0  0  0  0
    7.3718  -13.2044   27.3145 C   0  0  0  0  0  0  0  0  0  0  0  0
    6.8063  -13.2168   25.8983 C   0  0  1  0  0  0  0  0  0  0  0  0
    6.7886  -11.8367   25.3726 C   0  0  0  0  0  0  0  0  0  0  0  0
    7.5644  -14.2415   25.1301 C   0  0  2  0  0  0  0  0  0  0  0  0
    7.2276  -14.3239   23.7314 N   0  0  0  0  0  0  0  0  0  0  0  0
    7.6519  -15.5682   25.8067 C   0  0  0  0  0  0  0  0  0  0  0  0
    6.5795  -16.1692   26.0729 O   0  0  0  0  0  0  0  0  0  0  0  0
    8.3270  -18.9026   24.8569 C   0  0  0  0  0  0  0  0  0  0  0  0
    9.3477  -18.5823   25.9133 C   0  0  1  0  0  0  0  0  0  0  0  0
   10.5761  -18.1805   25.3782 O   0  0  0  0  0  0  0  0  0  0  0  0
    8.8807  -17.4915   26.8637 C   0  0  2  0  0  0  0  0  0  0  0  0
    8.8548  -16.2126   26.1799 N   0  0  0  0  0  0  0  0  0  0  0  0
    9.8956  -17.4022   27.9417 C   0  0  0  0  0  0  0  0  0  0  0  0
   10.6067  -16.3687   28.0474 O   0  0  0  0  0  0  0  0  0  0  0  0
   10.0947  -18.4342   28.8553 O   0  0  0  0  0  0  0  0  0  0  0  0
  2  3  1  0
  2  1  1  0
  3  4  1  6
  5  6  2  0
  5  3  1  0
  8  7  1  1
  8 10  1  0
  9  8  1  0
 10 12  1  0
 10 11  1  6
 11  5  1  0
 12 18  1  0
 13 12  2  0
 15 16  1  0
 15 14  1  6
 17 15  1  0
 17 18  1  6
 19 21  1  0
 19 17  1  0
 20 19  2  0
M  END
$$$$
