SVT.pdb
     RDKit          3D

 21 20  0  0  1  0  0  0  0  0999 V2000
    5.4933  -16.6311   20.9087 O   0  0  0  0  0  0  0  0  0  0  0  0
    6.7809  -16.4687   21.3536 C   0  0  0  0  0  0  0  0  0  0  0  0
    7.2311  -15.0296   21.4145 C   0  0  2  0  0  0  0  0  0  0  0  0
    7.9696  -14.6260   20.2622 N   0  0  0  0  0  0  0  0  0  0  0  0
    8.0034  -14.7379   22.6486 C   0  0  0  0  0  0  0  0  0  0  0  0
    9.2227  -15.0079   22.6983 O   0  0  0  0  0  0  0  0  0  0  0  0
    5.9618  -13.1602   26.1360 C   0  0  0  0  0  0  0  0  0  0  0  0
    7.4369  -12.8633   25.8876 C   0  0  1  0  0  0  0  0  0  0  0  0
    8.0928  -12.5606   27.1758 C   0  0  0  0  0  0  0  0  0  0  0  0
    7.9825  -13.9872   25.0791 C   0  0  2  0  0  0  0  0  0  0  0  0
    7.3759  -14.1530   23.7824 N   0  0  0  0  0  0  0  0  0  0  0  0
    8.1393  -15.2624   25.8370 C   0  0  0  0  0  0  0  0  0  0  0  0
    7.0994  -15.8970   26.1503 O   0  0  0  0  0  0  0  0  0  0  0  0
    9.7001  -18.5412   24.9082 C   0  0  0  0  0  0  0  0  0  0  0  0
   10.3525  -18.0517   26.1711 C   0  0  1  0  0  0  0  0  0  0  0  0
   11.5765  -17.4155   25.9394 O   0  0  0  0  0  0  0  0  0  0  0  0
    9.4710  -17.0854   26.9461 C   0  0  2  0  0  0  0  0  0  0  0  0
    9.3747  -15.8225   26.2391 N   0  0  0  0  0  0  0  0  0  0  0  0
   10.1552  -16.8252   28.2361 C   0  0  0  0  0  0  0  0  0  0  0  0
   10.5845  -15.6703   28.4948 O   0  0  0  0  0  0  0  0  0  0  0  0
   10.3436  -17.8254   29.1866 O   0  0  0  0  0  0  0  0  0  0  0  0
  2  3  1  0
  2  1  1  0
  3  4  1  6
  5  6  2  0
  5  3  1  0
  8  7  1  1
  8 10  1  0
  9  8  1  0
 10 12  1  0
 10 11  1  6
 11  5  1  0
 12 18  1  0
 13 12  2  0
 15 16  1  0
 15 14  1  6
 17 15  1  0
 17 18  1  6
 19 21  1  0
 19 17  1  0
 20 19  2  0
M  END
$$$$
