SVT.pdb
     RDKit          3D

 21 20  0  0  1  0  0  0  0  0999 V2000
    6.9814  -19.4981   17.6732 O   0  0  0  0  0  0  0  0  0  0  0  0
    7.5201  -18.7367   18.6793 C   0  0  0  0  0  0  0  0  0  0  0  0
    8.1963  -17.4761   18.1986 C   0  0  2  0  0  0  0  0  0  0  0  0
    9.2654  -17.7281   17.2877 N   0  0  0  0  0  0  0  0  0  0  0  0
    8.6683  -16.6314   19.3247 C   0  0  0  0  0  0  0  0  0  0  0  0
    9.8182  -16.7953   19.7864 O   0  0  0  0  0  0  0  0  0  0  0  0
    7.9434  -12.7853   22.3385 C   0  0  0  0  0  0  0  0  0  0  0  0
    7.3843  -13.5524   21.1450 C   0  0  1  0  0  0  0  0  0  0  0  0
    7.3565  -12.6614   19.9674 C   0  0  0  0  0  0  0  0  0  0  0  0
    8.1547  -14.8210   21.0364 C   0  0  2  0  0  0  0  0  0  0  0  0
    7.8296  -15.6327   19.8909 N   0  0  0  0  0  0  0  0  0  0  0  0
    8.2451  -15.5895   22.3118 C   0  0  0  0  0  0  0  0  0  0  0  0
    7.1741  -15.9637   22.8550 O   0  0  0  0  0  0  0  0  0  0  0  0
    9.6800  -19.0046   22.9691 C   0  0  0  0  0  0  0  0  0  0  0  0
   10.3530  -18.0079   23.8713 C   0  0  1  0  0  0  0  0  0  0  0  0
   11.5758  -17.5553   23.3649 O   0  0  0  0  0  0  0  0  0  0  0  0
    9.4869  -16.7881   24.1416 C   0  0  2  0  0  0  0  0  0  0  0  0
    9.4493  -15.9343   22.9695 N   0  0  0  0  0  0  0  0  0  0  0  0
   10.1497  -16.0271   25.2285 C   0  0  0  0  0  0  0  0  0  0  0  0
   10.6999  -14.9236   24.9742 O   0  0  0  0  0  0  0  0  0  0  0  0
   10.1870  -16.4941   26.5400 O   0  0  0  0  0  0  0  0  0  0  0  0
  2  3  1  0
  2  1  1  0
  3  4  1  6
  5  6  2  0
  5  3  1  0
  8  7  1  1
  8 10  1  0
  9  8  1  0
 10 12  1  0
 10 11  1  6
 11  5  1  0
 12 18  1  0
 13 12  2  0
 15 16  1  0
 15 14  1  6
 17 15  1  0
 17 18  1  6
 19 21  1  0
 19 17  1  0
 20 19  2  0
M  END
$$$$
