SVT.pdb
     RDKit          3D

 21 20  0  0  1  0  0  0  0  0999 V2000
    6.9917  -16.5480   21.4979 O   0  0  0  0  0  0  0  0  0  0  0  0
    6.3421  -15.3577   21.2901 C   0  0  0  0  0  0  0  0  0  0  0  0
    7.2292  -14.1441   21.4231 C   0  0  2  0  0  0  0  0  0  0  0  0
    8.1613  -14.0133   20.3506 N   0  0  0  0  0  0  0  0  0  0  0  0
    7.9379  -14.1107   22.7274 C   0  0  0  0  0  0  0  0  0  0  0  0
    9.1458  -14.4260   22.7878 O   0  0  0  0  0  0  0  0  0  0  0  0
    7.5033  -11.4441   25.7593 C   0  0  0  0  0  0  0  0  0  0  0  0
    7.1936  -12.8612   26.2299 C   0  0  1  0  0  0  0  0  0  0  0  0
    5.7428  -12.9818   26.4790 C   0  0  0  0  0  0  0  0  0  0  0  0
    7.8083  -13.7958   25.2484 C   0  0  2  0  0  0  0  0  0  0  0  0
    7.2619  -13.7237   23.9169 N   0  0  0  0  0  0  0  0  0  0  0  0
    7.9744  -15.1888   25.7556 C   0  0  0  0  0  0  0  0  0  0  0  0
    6.9481  -15.9095   25.8543 O   0  0  0  0  0  0  0  0  0  0  0  0
    9.6288  -18.1452   24.2936 C   0  0  0  0  0  0  0  0  0  0  0  0
   10.2357  -17.9230   25.6510 C   0  0  1  0  0  0  0  0  0  0  0  0
   11.4545  -17.2387   25.5960 O   0  0  0  0  0  0  0  0  0  0  0  0
    9.3154  -17.1498   26.5818 C   0  0  2  0  0  0  0  0  0  0  0  0
    9.2041  -15.7723   26.1412 N   0  0  0  0  0  0  0  0  0  0  0  0
    9.9658  -17.1423   27.9148 C   0  0  0  0  0  0  0  0  0  0  0  0
   10.4076  -16.0631   28.3893 O   0  0  0  0  0  0  0  0  0  0  0  0
   10.1084  -18.3017   28.6731 O   0  0  0  0  0  0  0  0  0  0  0  0
  2  3  1  0
  2  1  1  0
  3  4  1  6
  5  6  2  0
  5  3  1  0
  8  7  1  6
  8 10  1  0
  9  8  1  0
 10 12  1  0
 10 11  1  6
 11  5  1  0
 12 18  1  0
 13 12  2  0
 15 16  1  0
 15 14  1  6
 17 15  1  0
 17 18  1  6
 19 21  1  0
 19 17  1  0
 20 19  2  0
M  END
$$$$
