SVT.pdb
     RDKit          3D

 21 20  0  0  1  0  0  0  0  0999 V2000
    8.0810  -19.6909   17.5194 O   0  0  0  0  0  0  0  0  0  0  0  0
    7.3091  -18.5574   17.5598 C   0  0  0  0  0  0  0  0  0  0  0  0
    8.0232  -17.3130   17.0920 C   0  0  2  0  0  0  0  0  0  0  0  0
    8.9213  -17.5574   16.0105 N   0  0  0  0  0  0  0  0  0  0  0  0
    8.7294  -16.6240   18.2015 C   0  0  0  0  0  0  0  0  0  0  0  0
    9.9628  -16.7709   18.3405 O   0  0  0  0  0  0  0  0  0  0  0  0
    6.4490  -14.5811   21.2583 C   0  0  0  0  0  0  0  0  0  0  0  0
    7.7986  -14.0225   20.8199 C   0  0  1  0  0  0  0  0  0  0  0  0
    8.3841  -13.2449   21.9308 C   0  0  0  0  0  0  0  0  0  0  0  0
    8.5906  -15.1592   20.2767 C   0  0  2  0  0  0  0  0  0  0  0  0
    8.0226  -15.7946   19.1146 N   0  0  0  0  0  0  0  0  0  0  0  0
    9.0680  -16.1193   21.3139 C   0  0  0  0  0  0  0  0  0  0  0  0
    8.3239  -17.0891   21.6106 O   0  0  0  0  0  0  0  0  0  0  0  0
   12.7522  -17.9471   24.1427 C   0  0  0  0  0  0  0  0  0  0  0  0
   12.2478  -17.0519   23.0451 C   0  0  1  0  0  0  0  0  0  0  0  0
   12.7149  -17.4260   21.7808 O   0  0  0  0  0  0  0  0  0  0  0  0
   10.7296  -17.0074   22.9803 C   0  0  2  0  0  0  0  0  0  0  0  0
   10.3014  -16.0271   22.0007 N   0  0  0  0  0  0  0  0  0  0  0  0
   10.2595  -16.5469   24.3095 C   0  0  0  0  0  0  0  0  0  0  0  0
    9.9885  -15.3308   24.4905 O   0  0  0  0  0  0  0  0  0  0  0  0
   10.1041  -17.4222   25.3815 O   0  0  0  0  0  0  0  0  0  0  0  0
  2  3  1  0
  2  1  1  0
  3  4  1  6
  5  6  2  0
  5  3  1  0
  8  7  1  1
  8 10  1  0
  9  8  1  0
 10 12  1  0
 10 11  1  6
 11  5  1  0
 12 18  1  0
 13 12  2  0
 15 16  1  0
 15 14  1  1
 17 15  1  0
 17 18  1  6
 19 21  1  0
 19 17  1  0
 20 19  2  0
M  END
$$$$
