SVT.pdb
     RDKit          3D

 21 20  0  0  1  0  0  0  0  0999 V2000
    7.3335  -19.4307   19.3584 O   0  0  0  0  0  0  0  0  0  0  0  0
    6.4872  -18.4231   18.9703 C   0  0  0  0  0  0  0  0  0  0  0  0
    7.1540  -17.3432   18.1539 C   0  0  2  0  0  0  0  0  0  0  0  0
    7.7863  -17.8432   16.9764 N   0  0  0  0  0  0  0  0  0  0  0  0
    8.1177  -16.5500   18.9579 C   0  0  0  0  0  0  0  0  0  0  0  0
    9.3378  -16.8162   18.9076 O   0  0  0  0  0  0  0  0  0  0  0  0
    7.9171  -12.6254   19.7263 C   0  0  0  0  0  0  0  0  0  0  0  0
    8.0175  -13.3864   21.0441 C   0  0  1  0  0  0  0  0  0  0  0  0
    6.7419  -13.2549   21.7769 C   0  0  0  0  0  0  0  0  0  0  0  0
    8.4951  -14.7592   20.7248 C   0  0  2  0  0  0  0  0  0  0  0  0
    7.6739  -15.4857   19.7897 N   0  0  0  0  0  0  0  0  0  0  0  0
    8.8961  -15.5575   21.9195 C   0  0  0  0  0  0  0  0  0  0  0  0
    8.0222  -15.7980   22.7917 O   0  0  0  0  0  0  0  0  0  0  0  0
    9.8795  -19.1628   22.3543 C   0  0  0  0  0  0  0  0  0  0  0  0
   10.9999  -18.2720   22.8140 C   0  0  1  0  0  0  0  0  0  0  0  0
   11.9588  -18.0479   21.8205 O   0  0  0  0  0  0  0  0  0  0  0  0
   10.5075  -16.9156   23.2927 C   0  0  2  0  0  0  0  0  0  0  0  0
   10.1931  -16.0705   22.1565 N   0  0  0  0  0  0  0  0  0  0  0  0
   11.6355  -16.2854   24.0209 C   0  0  0  0  0  0  0  0  0  0  0  0
   12.2219  -15.2883   23.5238 O   0  0  0  0  0  0  0  0  0  0  0  0
   12.0773  -16.7620   25.2526 O   0  0  0  0  0  0  0  0  0  0  0  0
  2  3  1  0
  2  1  1  0
  3  4  1  6
  5  6  2  0
  5  3  1  0
  8  7  1  6
  8 10  1  0
  9  8  1  0
 10 12  1  0
 10 11  1  1
 11  5  1  0
 12 18  1  0
 13 12  2  0
 15 16  1  0
 15 14  1  6
 17 15  1  0
 17 18  1  6
 19 21  1  0
 19 17  1  0
 20 19  2  0
M  END
$$$$
