SVT.pdb
     RDKit          3D

 21 20  0  0  1  0  0  0  0  0999 V2000
    6.4394  -18.9605   16.8736 O   0  0  0  0  0  0  0  0  0  0  0  0
    7.2911  -18.4000   17.7916 C   0  0  0  0  0  0  0  0  0  0  0  0
    7.9003  -17.0938   17.3444 C   0  0  2  0  0  0  0  0  0  0  0  0
    8.7151  -17.2269   16.1804 N   0  0  0  0  0  0  0  0  0  0  0  0
    8.6626  -16.4316   18.4329 C   0  0  0  0  0  0  0  0  0  0  0  0
    9.8759  -16.6884   18.5886 O   0  0  0  0  0  0  0  0  0  0  0  0
    7.7883  -12.7362   19.9025 C   0  0  0  0  0  0  0  0  0  0  0  0
    7.9202  -13.7460   21.0377 C   0  0  1  0  0  0  0  0  0  0  0  0
    6.5944  -13.9574   21.6533 C   0  0  0  0  0  0  0  0  0  0  0  0
    8.6276  -14.9351   20.4897 C   0  0  2  0  0  0  0  0  0  0  0  0
    8.0324  -15.5041   19.3071 N   0  0  0  0  0  0  0  0  0  0  0  0
    9.0053  -15.9466   21.5190 C   0  0  0  0  0  0  0  0  0  0  0  0
    8.1261  -16.7623   21.8985 O   0  0  0  0  0  0  0  0  0  0  0  0
   12.8422  -17.3799   21.8791 C   0  0  0  0  0  0  0  0  0  0  0  0
   11.6175  -18.0823   22.3958 C   0  0  1  0  0  0  0  0  0  0  0  0
   11.9162  -19.0769   23.3330 O   0  0  0  0  0  0  0  0  0  0  0  0
   10.6250  -17.1270   23.0389 C   0  0  2  0  0  0  0  0  0  0  0  0
   10.2843  -16.0645   22.1121 N   0  0  0  0  0  0  0  0  0  0  0  0
   11.3174  -16.5076   24.1951 C   0  0  0  0  0  0  0  0  0  0  0  0
   11.5463  -15.2696   24.1974 O   0  0  0  0  0  0  0  0  0  0  0  0
   11.7302  -17.2551   25.2952 O   0  0  0  0  0  0  0  0  0  0  0  0
  2  3  1  0
  2  1  1  0
  3  4  1  6
  5  6  2  0
  5  3  1  0
  8  7  1  6
  8 10  1  0
  9  8  1  0
 10 12  1  0
 10 11  1  6
 11  5  1  0
 12 18  1  0
 13 12  2  0
 15 16  1  0
 15 14  1  1
 17 15  1  0
 17 18  1  6
 19 21  1  0
 19 17  1  0
 20 19  2  0
M  END
$$$$
