GGV.pdb
     RDKit          3D

 16 15  0  0  1  0  0  0  0  0999 V2000
    8.7805  -16.7624   18.4015 N   0  0  0  0  0  0  0  0  0  0  0  0
    8.9485  -16.9770   19.8124 C   0  0  0  0  0  0  0  0  0  0  0  0
    8.1668  -15.9699   20.5668 C   0  0  0  0  0  0  0  0  0  0  0  0
    7.7235  -14.9506   19.9749 O   0  0  0  0  0  0  0  0  0  0  0  0
    7.8882  -16.1049   21.9590 N   0  0  0  0  0  0  0  0  0  0  0  0
    7.0621  -15.1363   22.6035 C   0  0  0  0  0  0  0  0  0  0  0  0
    7.7567  -14.5182   23.7663 C   0  0  0  0  0  0  0  0  0  0  0  0
    8.9997  -14.7423   23.9580 O   0  0  0  0  0  0  0  0  0  0  0  0
    5.7546  -12.4545   26.9334 C   0  0  0  0  0  0  0  0  0  0  0  0
    7.0703  -11.9293   26.4040 C   0  0  2  0  0  0  0  0  0  0  0  0
    6.7953  -10.8506   25.3998 C   0  0  0  0  0  0  0  0  0  0  0  0
    7.8383  -13.0931   25.8344 C   0  0  2  0  0  0  0  0  0  0  0  0
    7.1165  -13.6815   24.6918 N   0  0  0  0  0  0  0  0  0  0  0  0
    8.0982  -14.1305   26.8608 C   0  0  0  0  0  0  0  0  0  0  0  0
    9.0622  -13.9963   27.8441 O   0  0  0  0  0  0  0  0  0  0  0  0
    7.4199  -15.1818   26.8474 O   0  0  0  0  0  0  0  0  0  0  0  0
  2  1  1  0
  3  2  1  0
  3  5  1  0
  4  3  2  0
  6  5  1  0
  7  6  1  0
  8  7  2  0
 10  9  1  6
 10 11  1  0
 10 12  1  0
 12 13  1  6
 13  7  1  0
 14 12  1  0
 14 15  1  0
 16 14  2  0
M  END
$$$$
