GGV.pdb
     RDKit          3D

 16 15  0  0  1  0  0  0  0  0999 V2000
    5.7860  -20.1137   23.1593 N   0  0  0  0  0  0  0  0  0  0  0  0
    5.7992  -18.8395   23.8234 C   0  0  0  0  0  0  0  0  0  0  0  0
    7.0959  -18.1647   23.5826 C   0  0  0  0  0  0  0  0  0  0  0  0
    8.1669  -18.7218   23.9408 O   0  0  0  0  0  0  0  0  0  0  0  0
    7.1879  -16.8890   22.9516 N   0  0  0  0  0  0  0  0  0  0  0  0
    8.4706  -16.2921   22.7660 C   0  0  0  0  0  0  0  0  0  0  0  0
    8.7134  -15.2083   23.7575 C   0  0  0  0  0  0  0  0  0  0  0  0
    9.8650  -14.6604   23.8324 O   0  0  0  0  0  0  0  0  0  0  0  0
    7.2065  -11.7334   26.8401 C   0  0  0  0  0  0  0  0  0  0  0  0
    6.8064  -12.8507   25.9026 C   0  0  2  0  0  0  0  0  0  0  0  0
    5.6713  -13.6161   26.5136 C   0  0  0  0  0  0  0  0  0  0  0  0
    8.0254  -13.6967   25.6432 C   0  0  2  0  0  0  0  0  0  0  0  0
    7.7315  -14.7360   24.6402 N   0  0  0  0  0  0  0  0  0  0  0  0
    8.5322  -14.3205   26.8888 C   0  0  0  0  0  0  0  0  0  0  0  0
    9.2849  -13.6349   27.8255 O   0  0  0  0  0  0  0  0  0  0  0  0
    8.2732  -15.5236   27.1146 O   0  0  0  0  0  0  0  0  0  0  0  0
  2  1  1  0
  3  2  1  0
  3  5  1  0
  4  3  2  0
  6  5  1  0
  7  6  1  0
  8  7  2  0
 10  9  1  1
 10 11  1  0
 10 12  1  0
 12 13  1  6
 13  7  1  0
 14 12  1  0
 14 15  1  0
 16 14  2  0
M  END
$$$$
