GGV.pdb
     RDKit          3D

 16 15  0  0  1  0  0  0  0  0999 V2000
    6.1481  -20.2574   22.9349 N   0  0  0  0  0  0  0  0  0  0  0  0
    6.0915  -19.3460   24.0444 C   0  0  0  0  0  0  0  0  0  0  0  0
    6.1026  -17.9512   23.5453 C   0  0  0  0  0  0  0  0  0  0  0  0
    5.0184  -17.3229   23.4210 O   0  0  0  0  0  0  0  0  0  0  0  0
    7.3079  -17.2752   23.1928 N   0  0  0  0  0  0  0  0  0  0  0  0
    7.2473  -15.9143   22.7682 C   0  0  0  0  0  0  0  0  0  0  0  0
    7.9533  -15.0161   23.7230 C   0  0  0  0  0  0  0  0  0  0  0  0
    8.9434  -14.3145   23.3235 O   0  0  0  0  0  0  0  0  0  0  0  0
    6.3700  -13.2377   27.1159 C   0  0  0  0  0  0  0  0  0  0  0  0
    7.6293  -12.8209   26.3894 C   0  0  2  0  0  0  0  0  0  0  0  0
    7.2538  -11.9741   25.2106 C   0  0  0  0  0  0  0  0  0  0  0  0
    8.3811  -14.0702   26.0113 C   0  0  2  0  0  0  0  0  0  0  0  0
    7.5916  -14.8863   25.0715 N   0  0  0  0  0  0  0  0  0  0  0  0
    8.7408  -14.8731   27.2044 C   0  0  0  0  0  0  0  0  0  0  0  0
    9.6655  -14.4563   28.1453 O   0  0  0  0  0  0  0  0  0  0  0  0
    8.1884  -15.9820   27.3794 O   0  0  0  0  0  0  0  0  0  0  0  0
  2  1  1  0
  3  2  1  0
  3  5  1  0
  4  3  2  0
  6  5  1  0
  7  6  1  0
  8  7  2  0
 10  9  1  6
 10 11  1  0
 10 12  1  0
 12 13  1  6
 13  7  1  0
 14 12  1  0
 14 15  1  0
 16 14  2  0
M  END
$$$$
