GGV.pdb
     RDKit          3D

 16 15  0  0  1  0  0  0  0  0999 V2000
    7.2944  -19.7479   22.0856 N   0  0  0  0  0  0  0  0  0  0  0  0
    7.4083  -20.2126   23.4405 C   0  0  0  0  0  0  0  0  0  0  0  0
    6.8469  -19.1997   24.3643 C   0  0  0  0  0  0  0  0  0  0  0  0
    6.8244  -19.4269   25.6027 O   0  0  0  0  0  0  0  0  0  0  0  0
    6.3209  -17.9557   23.9061 N   0  0  0  0  0  0  0  0  0  0  0  0
    5.9144  -16.9752   24.8597 C   0  0  0  0  0  0  0  0  0  0  0  0
    6.9450  -15.9123   25.0181 C   0  0  0  0  0  0  0  0  0  0  0  0
    7.9936  -15.9286   24.2886 O   0  0  0  0  0  0  0  0  0  0  0  0
    6.4758  -12.5148   27.5937 C   0  0  0  0  0  0  0  0  0  0  0  0
    7.1581  -12.4538   26.2453 C   0  0  2  0  0  0  0  0  0  0  0  0
    6.1406  -12.1084   25.1999 C   0  0  0  0  0  0  0  0  0  0  0  0
    7.8324  -13.7794   26.0068 C   0  0  2  0  0  0  0  0  0  0  0  0
    6.8363  -14.8640   25.9430 N   0  0  0  0  0  0  0  0  0  0  0  0
    8.8404  -14.0752   27.0526 C   0  0  0  0  0  0  0  0  0  0  0  0
   10.0482  -13.4073   27.1488 O   0  0  0  0  0  0  0  0  0  0  0  0
    8.5987  -14.9693   27.8938 O   0  0  0  0  0  0  0  0  0  0  0  0
  2  1  1  0
  3  2  1  0
  3  5  1  0
  4  3  2  0
  6  5  1  0
  7  6  1  0
  8  7  2  0
 10  9  1  1
 10 11  1  0
 10 12  1  0
 12 13  1  1
 13  7  1  0
 14 12  1  0
 14 15  1  0
 16 14  2  0
M  END
$$$$
