GGV.pdb
     RDKit          3D

 16 15  0  0  1  0  0  0  0  0999 V2000
    8.3904  -17.1861   18.2414 N   0  0  0  0  0  0  0  0  0  0  0  0
    8.8773  -17.1815   19.5934 C   0  0  0  0  0  0  0  0  0  0  0  0
    7.9558  -16.4026   20.4528 C   0  0  0  0  0  0  0  0  0  0  0  0
    6.7460  -16.2823   20.1247 O   0  0  0  0  0  0  0  0  0  0  0  0
    8.3846  -15.7711   21.6576 N   0  0  0  0  0  0  0  0  0  0  0  0
    7.4083  -15.2774   22.5736 C   0  0  0  0  0  0  0  0  0  0  0  0
    8.0481  -14.6335   23.7538 C   0  0  0  0  0  0  0  0  0  0  0  0
    9.3189  -14.6596   23.8822 O   0  0  0  0  0  0  0  0  0  0  0  0
    5.8886  -12.6749   26.9394 C   0  0  0  0  0  0  0  0  0  0  0  0
    7.1902  -12.1453   26.3802 C   0  0  2  0  0  0  0  0  0  0  0  0
    6.8872  -11.1479   25.3027 C   0  0  0  0  0  0  0  0  0  0  0  0
    7.9985  -13.3203   25.8956 C   0  0  2  0  0  0  0  0  0  0  0  0
    7.3254  -13.9811   24.7629 N   0  0  0  0  0  0  0  0  0  0  0  0
    8.2453  -14.2984   26.9817 C   0  0  0  0  0  0  0  0  0  0  0  0
    9.1814  -14.0985   27.9807 O   0  0  0  0  0  0  0  0  0  0  0  0
    7.5817  -15.3587   27.0067 O   0  0  0  0  0  0  0  0  0  0  0  0
  2  1  1  0
  3  2  1  0
  3  5  1  0
  4  3  2  0
  6  5  1  0
  7  6  1  0
  8  7  2  0
 10  9  1  6
 10 11  1  0
 10 12  1  0
 12 13  1  6
 13  7  1  0
 14 12  1  0
 14 15  1  0
 16 14  2  0
M  END
$$$$
