GGV.pdb
     RDKit          3D

 16 15  0  0  1  0  0  0  0  0999 V2000
    6.3870  -21.6558   22.4088 N   0  0  0  0  0  0  0  0  0  0  0  0
    6.5045  -20.2721   22.0390 C   0  0  0  0  0  0  0  0  0  0  0  0
    6.0311  -19.4164   23.1518 C   0  0  0  0  0  0  0  0  0  0  0  0
    4.9781  -19.7217   23.7713 O   0  0  0  0  0  0  0  0  0  0  0  0
    6.7268  -18.2405   23.5608 N   0  0  0  0  0  0  0  0  0  0  0  0
    6.2458  -17.4978   24.6802 C   0  0  0  0  0  0  0  0  0  0  0  0
    7.0719  -16.2826   24.9207 C   0  0  0  0  0  0  0  0  0  0  0  0
    8.3077  -16.2788   24.5972 O   0  0  0  0  0  0  0  0  0  0  0  0
    7.4907  -11.5147   26.1055 C   0  0  0  0  0  0  0  0  0  0  0  0
    6.5699  -12.7096   25.9987 C   0  0  2  0  0  0  0  0  0  0  0  0
    5.7752  -12.8267   27.2645 C   0  0  0  0  0  0  0  0  0  0  0  0
    7.4158  -13.9222   25.7108 C   0  0  2  0  0  0  0  0  0  0  0  0
    6.5668  -15.1077   25.4958 N   0  0  0  0  0  0  0  0  0  0  0  0
    8.3861  -14.1822   26.8008 C   0  0  0  0  0  0  0  0  0  0  0  0
    9.5962  -13.5205   26.9095 O   0  0  0  0  0  0  0  0  0  0  0  0
    8.1086  -15.0386   27.6698 O   0  0  0  0  0  0  0  0  0  0  0  0
  2  1  1  0
  3  2  1  0
  3  5  1  0
  4  3  2  0
  6  5  1  0
  7  6  1  0
  8  7  2  0
 10  9  1  1
 10 11  1  0
 10 12  1  0
 12 13  1  1
 13  7  1  0
 14 12  1  0
 14 15  1  0
 16 14  2  0
M  END
$$$$
