GGV.pdb
     RDKit          3D

 16 15  0  0  1  0  0  0  0  0999 V2000
    9.4099  -18.6355   21.1538 N   0  0  0  0  0  0  0  0  0  0  0  0
    7.9822  -18.7968   21.1315 C   0  0  0  0  0  0  0  0  0  0  0  0
    7.3868  -18.1349   22.3156 C   0  0  0  0  0  0  0  0  0  0  0  0
    7.4126  -18.7128   23.4341 O   0  0  0  0  0  0  0  0  0  0  0  0
    6.7745  -16.8488   22.2448 N   0  0  0  0  0  0  0  0  0  0  0  0
    6.2625  -16.2521   23.4355 C   0  0  0  0  0  0  0  0  0  0  0  0
    7.2814  -15.3859   24.0899 C   0  0  0  0  0  0  0  0  0  0  0  0
    8.4423  -15.2650   23.5705 O   0  0  0  0  0  0  0  0  0  0  0  0
    6.3704  -12.7068   27.2250 C   0  0  0  0  0  0  0  0  0  0  0  0
    7.5177  -12.4835   26.2652 C   0  0  2  0  0  0  0  0  0  0  0  0
    7.0210  -11.7024   25.0860 C   0  0  0  0  0  0  0  0  0  0  0  0
    8.0805  -13.8306   25.8945 C   0  0  2  0  0  0  0  0  0  0  0  0
    7.0427  -14.6734   25.2738 N   0  0  0  0  0  0  0  0  0  0  0  0
    8.6614  -14.5219   27.0700 C   0  0  0  0  0  0  0  0  0  0  0  0
    9.8373  -14.1203   27.6783 O   0  0  0  0  0  0  0  0  0  0  0  0
    8.0691  -15.5171   27.5435 O   0  0  0  0  0  0  0  0  0  0  0  0
  2  1  1  0
  3  2  1  0
  3  5  1  0
  4  3  2  0
  6  5  1  0
  7  6  1  0
  8  7  2  0
 10  9  1  1
 10 11  1  0
 10 12  1  0
 12 13  1  1
 13  7  1  0
 14 12  1  0
 14 15  1  0
 16 14  2  0
M  END
$$$$
