GGV.pdb
     RDKit          3D

 16 15  0  0  1  0  0  0  0  0999 V2000
    6.6251  -19.3018   20.3100 N   0  0  0  0  0  0  0  0  0  0  0  0
    7.4464  -18.2027   20.7369 C   0  0  0  0  0  0  0  0  0  0  0  0
    6.7960  -17.5044   21.8700 C   0  0  0  0  0  0  0  0  0  0  0  0
    5.9310  -16.6175   21.6446 O   0  0  0  0  0  0  0  0  0  0  0  0
    7.1109  -17.7966   23.2300 N   0  0  0  0  0  0  0  0  0  0  0  0
    6.4360  -17.0912   24.2707 C   0  0  0  0  0  0  0  0  0  0  0  0
    7.2042  -15.8896   24.6984 C   0  0  0  0  0  0  0  0  0  0  0  0
    8.3133  -15.6078   24.1306 O   0  0  0  0  0  0  0  0  0  0  0  0
    5.6292  -12.4134   25.9696 C   0  0  0  0  0  0  0  0  0  0  0  0
    6.7382  -12.8726   26.8896 C   0  0  2  0  0  0  0  0  0  0  0  0
    7.5054  -11.6747   27.3631 C   0  0  0  0  0  0  0  0  0  0  0  0
    7.5853  -13.8639   26.1355 C   0  0  2  0  0  0  0  0  0  0  0  0
    6.7768  -15.0218   25.7136 N   0  0  0  0  0  0  0  0  0  0  0  0
    8.7427  -14.3183   26.9424 C   0  0  0  0  0  0  0  0  0  0  0  0
    9.9997  -13.7480   26.8493 O   0  0  0  0  0  0  0  0  0  0  0  0
    8.5876  -15.2617   27.7496 O   0  0  0  0  0  0  0  0  0  0  0  0
  2  1  1  0
  3  2  1  0
  3  5  1  0
  4  3  2  0
  6  5  1  0
  7  6  1  0
  8  7  2  0
 10  9  1  6
 10 11  1  0
 10 12  1  0
 12 13  1  1
 13  7  1  0
 14 12  1  0
 14 15  1  0
 16 14  2  0
M  END
$$$$
