GGV.pdb
     RDKit          3D

 16 15  0  0  1  0  0  0  0  0999 V2000
    8.6860  -19.2521   20.5729 N   0  0  0  0  0  0  0  0  0  0  0  0
    7.3330  -18.8289   20.8078 C   0  0  0  0  0  0  0  0  0  0  0  0
    7.1585  -18.4866   22.2385 C   0  0  0  0  0  0  0  0  0  0  0  0
    7.7810  -19.1384   23.1179 O   0  0  0  0  0  0  0  0  0  0  0  0
    6.3016  -17.4326   22.6731 N   0  0  0  0  0  0  0  0  0  0  0  0
    6.2275  -17.1206   24.0635 C   0  0  0  0  0  0  0  0  0  0  0  0
    7.0430  -15.9197   24.3945 C   0  0  0  0  0  0  0  0  0  0  0  0
    7.9705  -15.5418   23.6015 O   0  0  0  0  0  0  0  0  0  0  0  0
    5.7670  -12.5402   25.6837 C   0  0  0  0  0  0  0  0  0  0  0  0
    6.9251  -12.9282   26.5757 C   0  0  2  0  0  0  0  0  0  0  0  0
    7.7323  -11.7036   26.8861 C   0  0  0  0  0  0  0  0  0  0  0  0
    7.7141  -14.0002   25.8706 C   0  0  2  0  0  0  0  0  0  0  0  0
    6.8536  -15.1541   25.5539 N   0  0  0  0  0  0  0  0  0  0  0  0
    8.8787  -14.4396   26.6756 C   0  0  0  0  0  0  0  0  0  0  0  0
    8.9651  -15.6910   27.2593 O   0  0  0  0  0  0  0  0  0  0  0  0
    9.8348  -13.6501   26.8421 O   0  0  0  0  0  0  0  0  0  0  0  0
  2  1  1  0
  3  2  1  0
  3  5  1  0
  4  3  2  0
  6  5  1  0
  7  6  1  0
  8  7  2  0
 10  9  1  6
 10 11  1  0
 10 12  1  0
 12 13  1  1
 13  7  1  0
 14 12  1  0
 14 15  1  0
 16 14  2  0
M  END
$$$$
