GGV.pdb
     RDKit          3D

 16 15  0  0  1  0  0  0  0  0999 V2000
    9.0574  -18.1396   19.5772 N   0  0  0  0  0  0  0  0  0  0  0  0
   10.0254  -17.7132   20.5498 C   0  0  0  0  0  0  0  0  0  0  0  0
    9.3312  -17.2309   21.7664 C   0  0  0  0  0  0  0  0  0  0  0  0
    8.1802  -16.7287   21.6721 O   0  0  0  0  0  0  0  0  0  0  0  0
    9.9182  -17.3110   23.0638 N   0  0  0  0  0  0  0  0  0  0  0  0
    9.1709  -16.8720   24.1972 C   0  0  0  0  0  0  0  0  0  0  0  0
   10.0637  -16.3361   25.2614 C   0  0  0  0  0  0  0  0  0  0  0  0
   11.3282  -16.3164   25.0812 O   0  0  0  0  0  0  0  0  0  0  0  0
    8.7557  -14.3010   28.8739 C   0  0  0  0  0  0  0  0  0  0  0  0
   10.0015  -14.0113   28.0668 C   0  0  2  0  0  0  0  0  0  0  0  0
    9.6708  -13.0059   27.0049 C   0  0  0  0  0  0  0  0  0  0  0  0
   10.5100  -15.3171   27.5146 C   0  0  2  0  0  0  0  0  0  0  0  0
    9.5930  -15.8369   26.4844 N   0  0  0  0  0  0  0  0  0  0  0  0
   10.6980  -16.3260   28.5843 C   0  0  0  0  0  0  0  0  0  0  0  0
   11.7189  -16.2591   29.5155 O   0  0  0  0  0  0  0  0  0  0  0  0
    9.9017  -17.2882   28.6585 O   0  0  0  0  0  0  0  0  0  0  0  0
  2  1  1  0
  3  2  1  0
  3  5  1  0
  4  3  2  0
  6  5  1  0
  7  6  1  0
  8  7  2  0
 10  9  1  6
 10 11  1  0
 10 12  1  0
 12 13  1  6
 13  7  1  0
 14 12  1  0
 14 15  1  0
 16 14  2  0
M  END
$$$$
