GGV.pdb
     RDKit          3D

 16 15  0  0  1  0  0  0  0  0999 V2000
    6.6068  -19.5720   24.2494 N   0  0  0  0  0  0  0  0  0  0  0  0
    5.9056  -18.4243   23.7434 C   0  0  0  0  0  0  0  0  0  0  0  0
    6.8742  -17.3528   23.4145 C   0  0  0  0  0  0  0  0  0  0  0  0
    8.1031  -17.5360   23.6197 O   0  0  0  0  0  0  0  0  0  0  0  0
    6.4706  -16.0997   22.8658 N   0  0  0  0  0  0  0  0  0  0  0  0
    7.4630  -15.1993   22.3756 C   0  0  0  0  0  0  0  0  0  0  0  0
    7.9855  -14.3244   23.4610 C   0  0  0  0  0  0  0  0  0  0  0  0
    9.0274  -13.6131   23.2593 O   0  0  0  0  0  0  0  0  0  0  0  0
    5.8845  -13.1257   26.9398 C   0  0  0  0  0  0  0  0  0  0  0  0
    7.0960  -12.4275   26.3635 C   0  0  2  0  0  0  0  0  0  0  0  0
    6.6442  -11.4498   25.3206 C   0  0  0  0  0  0  0  0  0  0  0  0
    8.0281  -13.4827   25.8283 C   0  0  2  0  0  0  0  0  0  0  0  0
    7.3911  -14.2274   24.7273 N   0  0  0  0  0  0  0  0  0  0  0  0
    8.4610  -14.4193   26.8925 C   0  0  0  0  0  0  0  0  0  0  0  0
    8.1560  -15.7687   26.8819 O   0  0  0  0  0  0  0  0  0  0  0  0
    9.1348  -13.9803   27.8510 O   0  0  0  0  0  0  0  0  0  0  0  0
  2  1  1  0
  3  2  1  0
  3  5  1  0
  4  3  2  0
  6  5  1  0
  7  6  1  0
  8  7  2  0
 10  9  1  6
 10 11  1  0
 10 12  1  0
 12 13  1  6
 13  7  1  0
 14 12  1  0
 14 15  1  0
 16 14  2  0
M  END
$$$$
