TWQ.pdb
     RDKit          3D

 31 32  0  0  1  0  0  0  0  0999 V2000
   28.2632  -18.7909  -14.8800 C   0  0  0  0  0  0  0  0  0  0  0  0
   27.3169  -19.2494  -13.8135 C   0  0  1  0  0  0  0  0  0  0  0  0
   26.0577  -19.4300  -14.4368 O   0  0  0  0  0  0  0  0  0  0  0  0
   27.6835  -20.6003  -13.2456 C   0  0  2  0  0  0  0  0  0  0  0  0
   27.6203  -21.5913  -14.3112 N   0  0  0  0  0  0  0  0  0  0  0  0
   26.7371  -21.0243  -12.1794 C   0  0  0  0  0  0  0  0  0  0  0  0
   26.1519  -22.1347  -12.3003 O   0  0  0  0  0  0  0  0  0  0  0  0
   26.4808  -20.2393  -11.0631 N   0  0  0  0  0  0  0  0  0  0  0  0
   25.5828  -20.6227   -9.9533 C   0  0  1  0  0  0  0  0  0  0  0  0
   26.0180  -19.9769   -8.7085 C   0  0  0  0  0  0  0  0  0  0  0  0
   27.3399  -20.3666   -8.2368 C   0  0  0  0  0  0  0  0  0  0  0  0
   28.3239  -21.1483   -8.8026 C   0  0  0  0  0  0  0  0  0  0  0  0
   29.3803  -21.2112   -7.9748 N   0  0  0  0  0  0  0  0  0  0  0  0
   29.1622  -20.5085   -6.8712 C   0  0  0  0  0  0  0  0  0  0  0  0
   29.9402  -20.2559   -5.7604 C   0  0  0  0  0  0  0  0  0  0  0  0
   29.4647  -19.4426   -4.7354 C   0  0  0  0  0  0  0  0  0  0  0  0
   28.2030  -18.9006   -4.8580 C   0  0  0  0  0  0  0  0  0  0  0  0
   27.4331  -19.1650   -5.9807 C   0  0  0  0  0  0  0  0  0  0  0  0
   27.8830  -19.9672   -7.0111 C   0  0  0  0  0  0  0  0  0  0  0  0
   24.2275  -20.4570  -10.4441 C   0  0  0  0  0  0  0  0  0  0  0  0
   23.2732  -20.4780   -9.5937 O   0  0  0  0  0  0  0  0  0  0  0  0
   21.9121  -17.1596  -15.1804 N   0  0  0  0  0  0  0  0  0  0  0  0
   20.7988  -18.0099  -14.8708 C   0  0  0  0  0  0  0  0  0  0  0  0
   19.6889  -17.6922  -15.3318 O   0  0  0  0  0  0  0  0  0  0  0  0
   20.9620  -19.1961  -14.0445 C   0  0  0  0  0  0  0  0  0  0  0  0
   22.3058  -19.5205  -13.5382 C   0  0  0  0  0  0  0  0  0  0  0  0
   22.3936  -20.0029  -12.0975 C   0  0  2  0  0  0  0  0  0  0  0  0
   23.8268  -20.2553  -11.8090 N   0  0  0  0  0  0  0  0  0  0  0  0
   21.6590  -21.2219  -11.7998 C   0  0  0  0  0  0  0  0  0  0  0  0
   22.0521  -22.4015  -12.0930 O   0  0  0  0  0  0  0  0  0  0  0  0
   20.4403  -21.1615  -11.1488 O   0  0  0  0  0  0  0  0  0  0  0  0
  2  1  1  6
  2  3  1  0
  4  2  1  0
  4  5  1  6
  6  8  1  0
  6  4  1  0
  7  6  2  0
  9 10  1  1
  9  8  1  0
 10 11  1  0
 11 19  1  0
 11 12  2  0
 12 13  1  0
 14 13  1  0
 14 15  2  0
 16 15  1  0
 17 16  2  0
 18 19  2  0
 18 17  1  0
 19 14  1  0
 20  9  1  0
 20 21  2  0
 22 23  1  0
 23 24  2  0
 25 23  1  0
 25 26  1  0
 27 26  1  6
 27 29  1  0
 27 28  1  0
 28 20  1  0
 29 31  1  0
 30 29  2  0
M  END
$$$$
