TWQ.pdb
     RDKit          3D

 31 32  0  0  1  0  0  0  0  0999 V2000
   27.3298  -19.1530  -14.9198 C   0  0  0  0  0  0  0  0  0  0  0  0
   27.3909  -20.4200  -15.7163 C   0  0  1  0  0  0  0  0  0  0  0  0
   28.3618  -20.2184  -16.7279 O   0  0  0  0  0  0  0  0  0  0  0  0
   27.8873  -21.5965  -14.9092 C   0  0  2  0  0  0  0  0  0  0  0  0
   27.7203  -22.8106  -15.6963 N   0  0  0  0  0  0  0  0  0  0  0  0
   27.1137  -21.7659  -13.6502 C   0  0  0  0  0  0  0  0  0  0  0  0
   26.0001  -22.3551  -13.7022 O   0  0  0  0  0  0  0  0  0  0  0  0
   27.5781  -21.2976  -12.4283 N   0  0  0  0  0  0  0  0  0  0  0  0
   26.7899  -21.2844  -11.1778 C   0  0  1  0  0  0  0  0  0  0  0  0
   27.6709  -21.0305  -10.0309 C   0  0  0  0  0  0  0  0  0  0  0  0
   26.9915  -20.6604   -8.7968 C   0  0  0  0  0  0  0  0  0  0  0  0
   25.6550  -20.5263   -8.4881 C   0  0  0  0  0  0  0  0  0  0  0  0
   25.5244  -20.1665   -7.2002 N   0  0  0  0  0  0  0  0  0  0  0  0
   26.7097  -20.0494   -6.6166 C   0  0  0  0  0  0  0  0  0  0  0  0
   27.0844  -19.7312   -5.3277 C   0  0  0  0  0  0  0  0  0  0  0  0
   28.4294  -19.7060   -4.9692 C   0  0  0  0  0  0  0  0  0  0  0  0
   29.3716  -20.0044   -5.9305 C   0  0  0  0  0  0  0  0  0  0  0  0
   28.9785  -20.3214   -7.2220 C   0  0  0  0  0  0  0  0  0  0  0  0
   27.6508  -20.3543   -7.6016 C   0  0  0  0  0  0  0  0  0  0  0  0
   25.6332  -20.4453  -11.4288 C   0  0  0  0  0  0  0  0  0  0  0  0
   25.8278  -19.2911  -11.9429 O   0  0  0  0  0  0  0  0  0  0  0  0
   23.7694  -20.4728  -16.2433 N   0  0  0  0  0  0  0  0  0  0  0  0
   22.6234  -19.7912  -15.7140 C   0  0  0  0  0  0  0  0  0  0  0  0
   21.8003  -19.3366  -16.5271 O   0  0  0  0  0  0  0  0  0  0  0  0
   22.4345  -19.6338  -14.2800 C   0  0  0  0  0  0  0  0  0  0  0  0
   23.4468  -20.1976  -13.3718 C   0  0  0  0  0  0  0  0  0  0  0  0
   23.2009  -20.0177  -11.8807 C   0  0  2  0  0  0  0  0  0  0  0  0
   24.2593  -20.7764  -11.1699 N   0  0  0  0  0  0  0  0  0  0  0  0
   21.9139  -20.4910  -11.3972 C   0  0  0  0  0  0  0  0  0  0  0  0
   21.7232  -21.6023  -10.7965 O   0  0  0  0  0  0  0  0  0  0  0  0
   20.7776  -19.7216  -11.5684 O   0  0  0  0  0  0  0  0  0  0  0  0
  2  1  1  1
  2  3  1  0
  4  2  1  0
  4  5  1  6
  6  8  1  0
  6  4  1  0
  7  6  2  0
  9 10  1  1
  9  8  1  0
 10 11  1  0
 11 19  1  0
 11 12  2  0
 12 13  1  0
 14 13  1  0
 14 15  2  0
 16 15  1  0
 17 16  2  0
 18 19  2  0
 18 17  1  0
 19 14  1  0
 20  9  1  0
 20 21  2  0
 22 23  1  0
 23 24  2  0
 25 23  1  0
 25 26  1  0
 27 26  1  6
 27 29  1  0
 27 28  1  0
 28 20  1  0
 29 31  1  0
 30 29  2  0
M  END
$$$$
