TWQ.pdb
     RDKit          3D

 31 32  0  0  1  0  0  0  0  0999 V2000
   28.5194  -18.2951  -15.6740 C   0  0  0  0  0  0  0  0  0  0  0  0
   27.4638  -19.0000  -14.8789 C   0  0  1  0  0  0  0  0  0  0  0  0
   26.5298  -19.5168  -15.8101 O   0  0  0  0  0  0  0  0  0  0  0  0
   27.9960  -20.2006  -14.1324 C   0  0  2  0  0  0  0  0  0  0  0  0
   28.4189  -21.2053  -15.0984 N   0  0  0  0  0  0  0  0  0  0  0  0
   26.9546  -20.8172  -13.2678 C   0  0  0  0  0  0  0  0  0  0  0  0
   26.3758  -21.8614  -13.6736 O   0  0  0  0  0  0  0  0  0  0  0  0
   26.6033  -20.2807  -12.0362 N   0  0  0  0  0  0  0  0  0  0  0  0
   25.5317  -20.8066  -11.1644 C   0  0  1  0  0  0  0  0  0  0  0  0
   25.8347  -20.5073   -9.7591 C   0  0  0  0  0  0  0  0  0  0  0  0
   27.1681  -20.8920   -9.3166 C   0  0  0  0  0  0  0  0  0  0  0  0
   28.1111  -21.7342   -9.8652 C   0  0  0  0  0  0  0  0  0  0  0  0
   29.2012  -21.7614   -9.0802 N   0  0  0  0  0  0  0  0  0  0  0  0
   29.0451  -20.9768   -8.0223 C   0  0  0  0  0  0  0  0  0  0  0  0
   29.8757  -20.6629   -6.9665 C   0  0  0  0  0  0  0  0  0  0  0  0
   29.4613  -19.7679   -5.9840 C   0  0  0  0  0  0  0  0  0  0  0  0
   28.2062  -19.2076   -6.0923 C   0  0  0  0  0  0  0  0  0  0  0  0
   27.3831  -19.5343   -7.1595 C   0  0  0  0  0  0  0  0  0  0  0  0
   27.7719  -20.4182   -8.1471 C   0  0  0  0  0  0  0  0  0  0  0  0
   24.2754  -20.3922  -11.7601 C   0  0  0  0  0  0  0  0  0  0  0  0
   24.3129  -19.5336  -12.7065 O   0  0  0  0  0  0  0  0  0  0  0  0
   20.4527  -24.1641  -13.6835 N   0  0  0  0  0  0  0  0  0  0  0  0
   20.3125  -23.0998  -14.6351 C   0  0  0  0  0  0  0  0  0  0  0  0
   19.4703  -23.2448  -15.5380 O   0  0  0  0  0  0  0  0  0  0  0  0
   21.1287  -21.8984  -14.5496 C   0  0  0  0  0  0  0  0  0  0  0  0
   22.1230  -21.7999  -13.4683 C   0  0  0  0  0  0  0  0  0  0  0  0
   21.8744  -20.7367  -12.4082 C   0  0  2  0  0  0  0  0  0  0  0  0
   22.9625  -20.8569  -11.4069 N   0  0  0  0  0  0  0  0  0  0  0  0
   20.6074  -20.8408  -11.7024 C   0  0  0  0  0  0  0  0  0  0  0  0
   19.5430  -20.2073  -12.0151 O   0  0  0  0  0  0  0  0  0  0  0  0
   20.4852  -21.6753  -10.6063 O   0  0  0  0  0  0  0  0  0  0  0  0
  2  1  1  6
  2  3  1  0
  4  2  1  0
  4  5  1  6
  6  8  1  0
  6  4  1  0
  7  6  2  0
  9 10  1  1
  9  8  1  0
 10 11  1  0
 11 19  1  0
 11 12  2  0
 12 13  1  0
 14 13  1  0
 14 15  2  0
 16 15  1  0
 17 16  2  0
 18 19  2  0
 18 17  1  0
 19 14  1  0
 20  9  1  0
 20 21  2  0
 22 23  1  0
 23 24  2  0
 25 23  1  0
 25 26  1  0
 27 26  1  6
 27 29  1  0
 27 28  1  0
 28 20  1  0
 29 31  1  0
 30 29  2  0
M  END
$$$$
