TWQ.pdb
     RDKit          3D

 31 32  0  0  1  0  0  0  0  0999 V2000
   25.7862  -20.8495  -17.7313 C   0  0  0  0  0  0  0  0  0  0  0  0
   26.8026  -21.9492  -17.7631 C   0  0  1  0  0  0  0  0  0  0  0  0
   27.5318  -21.7949  -18.9677 O   0  0  0  0  0  0  0  0  0  0  0  0
   27.8238  -21.8358  -16.6558 C   0  0  2  0  0  0  0  0  0  0  0  0
   28.7081  -22.9919  -16.7114 N   0  0  0  0  0  0  0  0  0  0  0  0
   27.1819  -21.8238  -15.3141 C   0  0  0  0  0  0  0  0  0  0  0  0
   26.7702  -22.9146  -14.8337 O   0  0  0  0  0  0  0  0  0  0  0  0
   27.0236  -20.6556  -14.5805 N   0  0  0  0  0  0  0  0  0  0  0  0
   26.4482  -20.5878  -13.2205 C   0  0  1  0  0  0  0  0  0  0  0  0
   27.2201  -19.6508  -12.3944 C   0  0  0  0  0  0  0  0  0  0  0  0
   28.0801  -20.2689  -11.3945 C   0  0  0  0  0  0  0  0  0  0  0  0
   29.2782  -20.9416  -11.5021 C   0  0  0  0  0  0  0  0  0  0  0  0
   29.6906  -21.3244  -10.2820 N   0  0  0  0  0  0  0  0  0  0  0  0
   28.8295  -20.9437   -9.3478 C   0  0  0  0  0  0  0  0  0  0  0  0
   28.8256  -21.0806   -7.9751 C   0  0  0  0  0  0  0  0  0  0  0  0
   27.7865  -20.5501   -7.2156 C   0  0  0  0  0  0  0  0  0  0  0  0
   26.7668  -19.8895   -7.8671 C   0  0  0  0  0  0  0  0  0  0  0  0
   26.7851  -19.7613   -9.2478 C   0  0  0  0  0  0  0  0  0  0  0  0
   27.8052  -20.2775  -10.0229 C   0  0  0  0  0  0  0  0  0  0  0  0
   25.0157  -20.4286  -13.3867 C   0  0  0  0  0  0  0  0  0  0  0  0
   24.5953  -19.4144  -14.0415 O   0  0  0  0  0  0  0  0  0  0  0  0
   22.0724  -21.7812  -17.6355 N   0  0  0  0  0  0  0  0  0  0  0  0
   21.5752  -21.7480  -16.2902 C   0  0  0  0  0  0  0  0  0  0  0  0
   20.4761  -21.1997  -16.0983 O   0  0  0  0  0  0  0  0  0  0  0  0
   22.3313  -22.3294  -15.1915 C   0  0  0  0  0  0  0  0  0  0  0  0
   21.8855  -22.0639  -13.8137 C   0  0  0  0  0  0  0  0  0  0  0  0
   22.5721  -20.9185  -13.0838 C   0  0  2  0  0  0  0  0  0  0  0  0
   23.9912  -21.3089  -12.8973 N   0  0  0  0  0  0  0  0  0  0  0  0
   22.0253  -20.5923  -11.7766 C   0  0  0  0  0  0  0  0  0  0  0  0
   22.6337  -20.7653  -10.6666 O   0  0  0  0  0  0  0  0  0  0  0  0
   20.7588  -20.0480  -11.6653 O   0  0  0  0  0  0  0  0  0  0  0  0
  2  1  1  1
  2  3  1  0
  4  2  1  0
  4  5  1  1
  6  8  1  0
  6  4  1  0
  7  6  2  0
  9 10  1  6
  9  8  1  0
 10 11  1  0
 11 19  1  0
 11 12  2  0
 12 13  1  0
 14 13  1  0
 14 15  2  0
 16 15  1  0
 17 16  2  0
 18 19  2  0
 18 17  1  0
 19 14  1  0
 20  9  1  0
 20 21  2  0
 22 23  1  0
 23 24  2  0
 25 23  1  0
 25 26  1  0
 27 26  1  1
 27 29  1  0
 27 28  1  0
 28 20  1  0
 29 31  1  0
 30 29  2  0
M  END
$$$$
