TWQ.pdb
     RDKit          3D

 31 32  0  0  1  0  0  0  0  0999 V2000
   28.8183  -18.5254  -15.8166 C   0  0  0  0  0  0  0  0  0  0  0  0
   27.9365  -19.0801  -14.7405 C   0  0  1  0  0  0  0  0  0  0  0  0
   26.6321  -19.1646  -15.2863 O   0  0  0  0  0  0  0  0  0  0  0  0
   28.3038  -20.4929  -14.3518 C   0  0  2  0  0  0  0  0  0  0  0  0
   28.0327  -21.3759  -15.4780 N   0  0  0  0  0  0  0  0  0  0  0  0
   27.4973  -20.9736  -13.1982 C   0  0  0  0  0  0  0  0  0  0  0  0
   26.4659  -21.6612  -13.4294 O   0  0  0  0  0  0  0  0  0  0  0  0
   27.8441  -20.6897  -11.8841 N   0  0  0  0  0  0  0  0  0  0  0  0
   27.0633  -21.1047  -10.6995 C   0  0  1  0  0  0  0  0  0  0  0  0
   27.8882  -20.9943   -9.4898 C   0  0  0  0  0  0  0  0  0  0  0  0
   27.1476  -20.8164   -8.2482 C   0  0  0  0  0  0  0  0  0  0  0  0
   25.8199  -21.0108   -7.9341 C   0  0  0  0  0  0  0  0  0  0  0  0
   25.6150  -20.7123   -6.6402 N   0  0  0  0  0  0  0  0  0  0  0  0
   26.7415  -20.3237   -6.0577 C   0  0  0  0  0  0  0  0  0  0  0  0
   27.0372  -19.9448   -4.7646 C   0  0  0  0  0  0  0  0  0  0  0  0
   28.3393  -19.6038   -4.4091 C   0  0  0  0  0  0  0  0  0  0  0  0
   29.3195  -19.6533   -5.3774 C   0  0  0  0  0  0  0  0  0  0  0  0
   29.0055  -20.0355   -6.6729 C   0  0  0  0  0  0  0  0  0  0  0  0
   27.7220  -20.3795   -7.0498 C   0  0  0  0  0  0  0  0  0  0  0  0
   25.7830  -20.4285  -10.7924 C   0  0  0  0  0  0  0  0  0  0  0  0
   25.7830  -19.1612  -10.9605 O   0  0  0  0  0  0  0  0  0  0  0  0
   23.2728  -21.3560  -15.6786 N   0  0  0  0  0  0  0  0  0  0  0  0
   22.2039  -20.6125  -15.0763 C   0  0  0  0  0  0  0  0  0  0  0  0
   21.2581  -20.2728  -15.8080 O   0  0  0  0  0  0  0  0  0  0  0  0
   22.2286  -20.2649  -13.6637 C   0  0  0  0  0  0  0  0  0  0  0  0
   23.3646  -20.7232  -12.8470 C   0  0  0  0  0  0  0  0  0  0  0  0
   23.3420  -20.3437  -11.3735 C   0  0  2  0  0  0  0  0  0  0  0  0
   24.4832  -21.0373  -10.7272 N   0  0  0  0  0  0  0  0  0  0  0  0
   22.1337  -20.7087  -10.6517 C   0  0  0  0  0  0  0  0  0  0  0  0
   21.0627  -20.0129  -10.6215 O   0  0  0  0  0  0  0  0  0  0  0  0
   22.0804  -21.8873   -9.9302 O   0  0  0  0  0  0  0  0  0  0  0  0
  2  1  1  6
  2  3  1  0
  4  2  1  0
  4  5  1  6
  6  8  1  0
  6  4  1  0
  7  6  2  0
  9 10  1  1
  9  8  1  0
 10 11  1  0
 11 19  1  0
 11 12  2  0
 12 13  1  0
 14 13  1  0
 14 15  2  0
 16 15  1  0
 17 16  2  0
 18 19  2  0
 18 17  1  0
 19 14  1  0
 20  9  1  0
 20 21  2  0
 22 23  1  0
 23 24  2  0
 25 23  1  0
 25 26  1  0
 27 26  1  6
 27 29  1  0
 27 28  1  0
 28 20  1  0
 29 31  1  0
 30 29  2  0
M  END
$$$$
