VDN.pdb
     RDKit          3D

 24 23  0  0  1  0  0  0  0  0999 V2000
   14.9460   -7.7794   -8.0087 C   0  0  0  0  0  0  0  0  0  0  0  0
   13.8593   -7.6569   -9.0841 C   0  0  2  0  0  0  0  0  0  0  0  0
   12.5665   -7.3765   -8.4029 C   0  0  0  0  0  0  0  0  0  0  0  0
   13.9047   -8.8977   -9.8951 C   0  0  2  0  0  0  0  0  0  0  0  0
   13.4570  -10.0164   -9.0750 N   0  0  0  0  0  0  0  0  0  0  0  0
   15.1457   -9.1615  -10.5968 C   0  0  0  0  0  0  0  0  0  0  0  0
   16.0352   -9.8799  -10.0974 O   0  0  0  0  0  0  0  0  0  0  0  0
   15.3879   -8.6107  -11.8716 N   0  0  0  0  0  0  0  0  0  0  0  0
   16.5495   -8.9907  -12.6981 C   0  0  1  0  0  0  0  0  0  0  0  0
   16.0024   -9.8036  -13.8358 C   0  0  0  0  0  0  0  0  0  0  0  0
   17.0291  -10.3179  -14.7479 C   0  0  0  0  0  0  0  0  0  0  0  0
   17.8537   -9.5187  -15.2708 O   0  0  0  0  0  0  0  0  0  0  0  0
   17.3259   -7.8158  -13.0915 C   0  0  0  0  0  0  0  0  0  0  0  0
   16.7715   -6.7853  -13.5236 O   0  0  0  0  0  0  0  0  0  0  0  0
   17.0807  -11.6725  -15.0227 O   0  0  0  0  0  0  0  0  0  0  0  0
   21.2233   -4.5955  -14.1723 N   0  0  0  0  0  0  0  0  0  0  0  0
   21.8108   -5.7297  -13.5569 C   0  0  0  0  0  0  0  0  0  0  0  0
   23.0648   -5.7422  -13.3425 O   0  0  0  0  0  0  0  0  0  0  0  0
   21.0327   -6.9165  -13.1428 C   0  0  0  0  0  0  0  0  0  0  0  0
   19.5569   -6.7062  -13.4120 C   0  0  2  0  0  0  0  0  0  0  0  0
   18.7493   -7.8128  -12.9937 N   0  0  0  0  0  0  0  0  0  0  0  0
   19.4052   -6.5220  -14.8936 C   0  0  0  0  0  0  0  0  0  0  0  0
   19.6339   -7.4795  -15.6683 O   0  0  0  0  0  0  0  0  0  0  0  0
   19.0167   -5.3109  -15.4100 O   0  0  0  0  0  0  0  0  0  0  0  0
  2  1  1  1
  2  4  1  0
  3  2  1  0
  4  6  1  0
  4  5  1  1
  6  7  2  0
  8  9  1  0
  8  6  1  0
  9 10  1  6
 10 11  1  0
 11 12  2  0
 11 15  1  0
 13 14  2  0
 13  9  1  0
 16 17  1  0
 17 18  2  0
 17 19  1  0
 20 19  1  6
 20 22  1  0
 20 21  1  0
 21 13  1  0
 22 24  1  0
 23 22  2  0
M  END
$$$$
