VDN.pdb
     RDKit          3D

 24 23  0  0  1  0  0  0  0  0999 V2000
   13.9230  -12.1553  -10.8970 C   0  0  0  0  0  0  0  0  0  0  0  0
   14.2460  -11.8708  -12.3691 C   0  0  2  0  0  0  0  0  0  0  0  0
   13.6342  -12.9491  -13.1919 C   0  0  0  0  0  0  0  0  0  0  0  0
   15.7191  -11.7361  -12.4755 C   0  0  2  0  0  0  0  0  0  0  0  0
   16.3336  -13.0311  -12.2111 N   0  0  0  0  0  0  0  0  0  0  0  0
   16.3209  -10.6517  -11.7246 C   0  0  0  0  0  0  0  0  0  0  0  0
   16.8982  -10.8553  -10.6373 O   0  0  0  0  0  0  0  0  0  0  0  0
   16.2715   -9.3260  -12.2014 N   0  0  0  0  0  0  0  0  0  0  0  0
   16.8435   -8.1878  -11.4570 C   0  0  1  0  0  0  0  0  0  0  0  0
   17.6485   -7.4025  -12.4519 C   0  0  0  0  0  0  0  0  0  0  0  0
   18.8907   -8.0624  -12.8665 C   0  0  0  0  0  0  0  0  0  0  0  0
   19.7766   -8.3185  -12.0052 O   0  0  0  0  0  0  0  0  0  0  0  0
   15.8013   -7.4305  -10.7655 C   0  0  0  0  0  0  0  0  0  0  0  0
   14.7373   -7.1183  -11.3368 O   0  0  0  0  0  0  0  0  0  0  0  0
   19.0749   -8.3964  -14.1960 O   0  0  0  0  0  0  0  0  0  0  0  0
   14.4966   -4.3738   -5.6324 N   0  0  0  0  0  0  0  0  0  0  0  0
   14.1885   -5.4325   -6.5237 C   0  0  0  0  0  0  0  0  0  0  0  0
   12.9701   -5.7104   -6.7630 O   0  0  0  0  0  0  0  0  0  0  0  0
   15.2223   -6.2427   -7.2020 C   0  0  0  0  0  0  0  0  0  0  0  0
   14.9958   -6.2493   -8.6997 C   0  0  2  0  0  0  0  0  0  0  0  0
   15.9712   -7.0223   -9.4090 N   0  0  0  0  0  0  0  0  0  0  0  0
   15.0732   -4.8228   -9.1594 C   0  0  0  0  0  0  0  0  0  0  0  0
   14.0769   -4.0732   -9.0383 O   0  0  0  0  0  0  0  0  0  0  0  0
   16.2287   -4.3297   -9.7125 O   0  0  0  0  0  0  0  0  0  0  0  0
  2  1  1  1
  2  4  1  0
  3  2  1  0
  4  6  1  0
  4  5  1  1
  6  7  2  0
  8  9  1  0
  8  6  1  0
  9 10  1  6
 10 11  1  0
 11 12  2  0
 11 15  1  0
 13 14  2  0
 13  9  1  0
 16 17  1  0
 17 18  2  0
 17 19  1  0
 20 19  1  1
 20 22  1  0
 20 21  1  0
 21 13  1  0
 22 24  1  0
 23 22  2  0
M  END
$$$$
