VDN.pdb
     RDKit          3D

 24 23  0  0  1  0  0  0  0  0999 V2000
   16.6529  -13.1928  -17.0507 C   0  0  0  0  0  0  0  0  0  0  0  0
   16.8925  -11.9512  -16.1826 C   0  0  2  0  0  0  0  0  0  0  0  0
   15.9790  -10.8757  -16.6547 C   0  0  0  0  0  0  0  0  0  0  0  0
   18.3413  -11.6424  -16.2514 C   0  0  2  0  0  0  0  0  0  0  0  0
   19.0978  -12.8399  -15.9076 N   0  0  0  0  0  0  0  0  0  0  0  0
   18.7811  -10.4610  -15.5353 C   0  0  0  0  0  0  0  0  0  0  0  0
   18.7301  -10.3984  -14.2902 O   0  0  0  0  0  0  0  0  0  0  0  0
   19.2818   -9.3395  -16.2272 N   0  0  0  0  0  0  0  0  0  0  0  0
   19.6767   -8.0917  -15.5460 C   0  0  1  0  0  0  0  0  0  0  0  0
   21.1287   -7.8842  -15.8670 C   0  0  0  0  0  0  0  0  0  0  0  0
   22.0296   -8.8140  -15.1783 C   0  0  0  0  0  0  0  0  0  0  0  0
   22.8726   -9.4735  -15.8466 O   0  0  0  0  0  0  0  0  0  0  0  0
   18.7949   -6.9854  -15.9153 C   0  0  0  0  0  0  0  0  0  0  0  0
   18.5215   -6.7424  -17.1078 O   0  0  0  0  0  0  0  0  0  0  0  0
   21.9442   -8.9556  -13.8051 O   0  0  0  0  0  0  0  0  0  0  0  0
   14.5330   -5.1873  -15.6673 N   0  0  0  0  0  0  0  0  0  0  0  0
   14.9979   -4.8600  -14.3685 C   0  0  0  0  0  0  0  0  0  0  0  0
   14.1557   -4.6906  -13.4299 O   0  0  0  0  0  0  0  0  0  0  0  0
   16.4308   -4.7039  -14.0401 C   0  0  0  0  0  0  0  0  0  0  0  0
   17.2936   -5.0940  -15.2224 C   0  0  2  0  0  0  0  0  0  0  0  0
   18.2180   -6.1448  -14.9172 N   0  0  0  0  0  0  0  0  0  0  0  0
   18.0610   -3.8690  -15.6260 C   0  0  0  0  0  0  0  0  0  0  0  0
   19.1564   -3.6095  -15.0766 O   0  0  0  0  0  0  0  0  0  0  0  0
   17.5730   -3.0276  -16.5947 O   0  0  0  0  0  0  0  0  0  0  0  0
  2  1  1  6
  2  4  1  0
  3  2  1  0
  4  6  1  0
  4  5  1  1
  6  7  2  0
  8  9  1  0
  8  6  1  0
  9 10  1  6
 10 11  1  0
 11 12  2  0
 11 15  1  0
 13 14  2  0
 13  9  1  0
 16 17  1  0
 17 18  2  0
 17 19  1  0
 20 19  1  1
 20 22  1  0
 20 21  1  0
 21 13  1  0
 22 24  1  0
 23 22  2  0
M  END
$$$$
