VDN.pdb
     RDKit          3D

 24 23  0  0  1  0  0  0  0  0999 V2000
   14.4852  -13.2571  -16.6660 C   0  0  0  0  0  0  0  0  0  0  0  0
   15.8724  -13.8669  -16.4291 C   0  0  2  0  0  0  0  0  0  0  0  0
   15.6872  -15.2766  -15.9903 C   0  0  0  0  0  0  0  0  0  0  0  0
   16.5817  -12.9823  -15.4732 C   0  0  2  0  0  0  0  0  0  0  0  0
   16.0900  -13.2482  -14.1271 N   0  0  0  0  0  0  0  0  0  0  0  0
   16.6114  -11.5711  -15.8045 C   0  0  0  0  0  0  0  0  0  0  0  0
   17.1571  -11.1594  -16.8483 O   0  0  0  0  0  0  0  0  0  0  0  0
   16.0225  -10.6148  -14.9526 N   0  0  0  0  0  0  0  0  0  0  0  0
   16.0422   -9.1681  -15.2415 C   0  0  1  0  0  0  0  0  0  0  0  0
   14.7793   -8.6090  -14.6525 C   0  0  0  0  0  0  0  0  0  0  0  0
   13.5634   -8.9938  -15.3764 C   0  0  0  0  0  0  0  0  0  0  0  0
   13.5641   -8.9934  -16.6382 O   0  0  0  0  0  0  0  0  0  0  0  0
   17.2775   -8.5497  -14.7624 C   0  0  0  0  0  0  0  0  0  0  0  0
   17.5891   -8.5711  -13.5548 O   0  0  0  0  0  0  0  0  0  0  0  0
   12.4318   -9.3529  -14.6667 O   0  0  0  0  0  0  0  0  0  0  0  0
   22.9108   -7.2078  -16.1236 N   0  0  0  0  0  0  0  0  0  0  0  0
   21.8799   -7.6223  -15.2430 C   0  0  0  0  0  0  0  0  0  0  0  0
   22.0419   -7.4894  -13.9880 O   0  0  0  0  0  0  0  0  0  0  0  0
   20.6060   -8.2084  -15.7113 C   0  0  0  0  0  0  0  0  0  0  0  0
   19.4333   -7.3609  -15.2629 C   0  0  2  0  0  0  0  0  0  0  0  0
   18.1686   -7.8986  -15.6666 N   0  0  0  0  0  0  0  0  0  0  0  0
   19.6104   -6.0065  -15.8846 C   0  0  0  0  0  0  0  0  0  0  0  0
   19.1816   -5.7900  -17.0415 O   0  0  0  0  0  0  0  0  0  0  0  0
   20.2390   -4.9993  -15.1957 O   0  0  0  0  0  0  0  0  0  0  0  0
  2  1  1  1
  2  4  1  0
  3  2  1  0
  4  6  1  0
  4  5  1  1
  6  7  2  0
  8  9  1  0
  8  6  1  0
  9 10  1  1
 10 11  1  0
 11 12  2  0
 11 15  1  0
 13 14  2  0
 13  9  1  0
 16 17  1  0
 17 18  2  0
 17 19  1  0
 20 19  1  6
 20 22  1  0
 20 21  1  0
 21 13  1  0
 22 24  1  0
 23 22  2  0
M  END
$$$$
