VDN.pdb
     RDKit          3D

 24 23  0  0  1  0  0  0  0  0999 V2000
   19.9584  -17.0135  -18.1507 C   0  0  0  0  0  0  0  0  0  0  0  0
   20.2568  -15.9734  -17.0638 C   0  0  2  0  0  0  0  0  0  0  0  0
   19.2737  -16.1623  -15.9629 C   0  0  0  0  0  0  0  0  0  0  0  0
   20.2448  -14.6422  -17.7172 C   0  0  2  0  0  0  0  0  0  0  0  0
   20.9250  -14.7392  -19.0027 N   0  0  0  0  0  0  0  0  0  0  0  0
   20.6994  -13.5265  -16.9106 C   0  0  0  0  0  0  0  0  0  0  0  0
   20.2155  -13.2991  -15.7833 O   0  0  0  0  0  0  0  0  0  0  0  0
   21.7069  -12.6583  -17.3778 N   0  0  0  0  0  0  0  0  0  0  0  0
   22.2816  -11.5821  -16.5482 C   0  0  1  0  0  0  0  0  0  0  0  0
   23.7382  -11.5137  -16.9061 C   0  0  0  0  0  0  0  0  0  0  0  0
   24.5312  -12.6347  -16.3912 C   0  0  0  0  0  0  0  0  0  0  0  0
   24.9703  -13.5057  -17.1916 O   0  0  0  0  0  0  0  0  0  0  0  0
   21.5417  -10.3322  -16.7162 C   0  0  0  0  0  0  0  0  0  0  0  0
   21.3093   -9.8616  -17.8478 O   0  0  0  0  0  0  0  0  0  0  0  0
   24.7881  -12.7223  -15.0349 O   0  0  0  0  0  0  0  0  0  0  0  0
   18.8256   -6.0308  -15.8286 N   0  0  0  0  0  0  0  0  0  0  0  0
   18.5264   -6.9636  -14.8035 C   0  0  0  0  0  0  0  0  0  0  0  0
   17.5967   -6.7017  -13.9752 O   0  0  0  0  0  0  0  0  0  0  0  0
   19.2462   -8.2449  -14.6435 C   0  0  0  0  0  0  0  0  0  0  0  0
   20.3255   -8.3845  -15.6971 C   0  0  2  0  0  0  0  0  0  0  0  0
   21.0614   -9.6082  -15.5845 N   0  0  0  0  0  0  0  0  0  0  0  0
   21.2659   -7.2292  -15.5146 C   0  0  0  0  0  0  0  0  0  0  0  0
   22.3992   -7.4197  -15.0160 O   0  0  0  0  0  0  0  0  0  0  0  0
   20.8955   -5.9619  -15.8903 O   0  0  0  0  0  0  0  0  0  0  0  0
  2  1  1  6
  2  4  1  0
  3  2  1  0
  4  6  1  0
  4  5  1  6
  6  7  2  0
  8  9  1  0
  8  6  1  0
  9 10  1  6
 10 11  1  0
 11 12  2  0
 11 15  1  0
 13 14  2  0
 13  9  1  0
 16 17  1  0
 17 18  2  0
 17 19  1  0
 20 19  1  1
 20 22  1  0
 20 21  1  0
 21 13  1  0
 22 24  1  0
 23 22  2  0
M  END
$$$$
