YFI.pdb
     RDKit          3D

 32 33  0  0  1  0  0  0  0  0999 V2000
   12.0248  -21.8065   16.5509 O   0  0  0  0  0  0  0  0  0  0  0  0
   11.9311  -20.9834   17.6606 C   0  0  0  0  0  0  0  0  0  0  0  0
   13.0313  -20.2647   18.0916 C   0  0  0  0  0  0  0  0  0  0  0  0
   12.9245  -19.4404   19.2088 C   0  0  0  0  0  0  0  0  0  0  0  0
   11.7471  -19.3114   19.9120 C   0  0  0  0  0  0  0  0  0  0  0  0
   11.6354  -18.4308   21.1048 C   0  0  0  0  0  0  0  0  0  0  0  0
   10.8674  -17.1981   20.6818 C   0  0  2  0  0  0  0  0  0  0  0  0
   11.7342  -16.4154   19.8393 N   0  0  0  0  0  0  0  0  0  0  0  0
   10.4829  -16.3885   21.8637 C   0  0  0  0  0  0  0  0  0  0  0  0
   11.3277  -15.7024   22.4507 O   0  0  0  0  0  0  0  0  0  0  0  0
   10.6622  -20.0473   19.4516 C   0  0  0  0  0  0  0  0  0  0  0  0
   10.7579  -20.8681   18.3440 C   0  0  0  0  0  0  0  0  0  0  0  0
    9.1508  -16.3840   22.3416 N   0  0  0  0  0  0  0  0  0  0  0  0
    8.7966  -15.5129   23.4190 C   0  0  1  0  0  0  0  0  0  0  0  0
    7.3434  -15.1044   23.4041 C   0  0  0  0  0  0  0  0  0  0  0  0
    7.0131  -14.1557   24.5123 C   0  0  0  0  0  0  0  0  0  0  0  0
    6.3993  -14.5145   25.6654 C   0  0  0  0  0  0  0  0  0  0  0  0
    6.1346  -13.5727   26.6311 C   0  0  0  0  0  0  0  0  0  0  0  0
    6.4808  -12.2510   26.4591 C   0  0  0  0  0  0  0  0  0  0  0  0
    7.1060  -11.8646   25.2935 C   0  0  0  0  0  0  0  0  0  0  0  0
    7.3571  -12.8305   24.3463 C   0  0  0  0  0  0  0  0  0  0  0  0
    9.0351  -16.2163   24.6987 C   0  0  0  0  0  0  0  0  0  0  0  0
    8.8397  -17.4457   24.8688 O   0  0  0  0  0  0  0  0  0  0  0  0
    9.6478  -13.4548   29.7465 C   0  0  0  0  0  0  0  0  0  0  0  0
    9.3167  -14.4680   28.7060 C   0  0  0  0  0  0  0  0  0  0  0  0
   10.4363  -15.1055   27.9897 C   0  0  2  0  0  0  0  0  0  0  0  0
   11.4932  -14.0946   27.5814 C   0  0  0  0  0  0  0  0  0  0  0  0
   10.1161  -16.1458   26.9870 C   0  0  2  0  0  0  0  0  0  0  0  0
    9.5112  -15.4758   25.8060 N   0  0  0  0  0  0  0  0  0  0  0  0
    9.2270  -17.1904   27.4457 C   0  0  0  0  0  0  0  0  0  0  0  0
    9.6369  -18.1038   28.2419 O   0  0  0  0  0  0  0  0  0  0  0  0
    7.9028  -17.2733   27.0731 O   0  0  0  0  0  0  0  0  0  0  0  0
  2  3  2  0
  2  1  1  0
  4  3  1  0
  5  4  2  0
  6  7  1  0
  6  5  1  0
  7  9  1  0
  7  8  1  6
  9 10  2  0
 11  5  1  0
 11 12  2  0
 12  2  1  0
 13  9  1  0
 14 13  1  0
 14 15  1  6
 16 15  1  0
 17 16  2  0
 18 17  1  0
 19 18  2  0
 19 20  1  0
 20 21  2  0
 21 16  1  0
 22 29  1  0
 22 14  1  0
 23 22  2  0
 24 25  1  0
 25 26  1  0
 26 27  1  6
 28 29  1  6
 28 26  1  0
 30 28  1  0
 31 30  2  0
 32 30  1  0
M  END
$$$$
