YFI.pdb
     RDKit          3D

 32 33  0  0  1  0  0  0  0  0999 V2000
    8.5990  -23.2669   18.7271 O   0  0  0  0  0  0  0  0  0  0  0  0
    8.9914  -22.2022   19.5209 C   0  0  0  0  0  0  0  0  0  0  0  0
    8.3984  -20.9621   19.3687 C   0  0  0  0  0  0  0  0  0  0  0  0
    8.8018  -19.8993   20.1729 C   0  0  0  0  0  0  0  0  0  0  0  0
    9.7838  -20.0378   21.1289 C   0  0  0  0  0  0  0  0  0  0  0  0
   10.2130  -18.9016   21.9864 C   0  0  0  0  0  0  0  0  0  0  0  0
    9.7684  -17.6289   21.3001 C   0  0  2  0  0  0  0  0  0  0  0  0
   10.7521  -17.3106   20.2979 N   0  0  0  0  0  0  0  0  0  0  0  0
    9.6882  -16.5101   22.2708 C   0  0  0  0  0  0  0  0  0  0  0  0
   10.7020  -15.8653   22.5635 O   0  0  0  0  0  0  0  0  0  0  0  0
   10.3580  -21.2968   21.2549 C   0  0  0  0  0  0  0  0  0  0  0  0
    9.9648  -22.3578   20.4616 C   0  0  0  0  0  0  0  0  0  0  0  0
    8.4592  -16.1592   22.8783 N   0  0  0  0  0  0  0  0  0  0  0  0
    8.4389  -15.1351   23.8762 C   0  0  1  0  0  0  0  0  0  0  0  0
    7.1037  -14.4400   23.9920 C   0  0  0  0  0  0  0  0  0  0  0  0
    7.0913  -13.4221   25.0879 C   0  0  0  0  0  0  0  0  0  0  0  0
    6.5543  -13.6287   26.3142 C   0  0  0  0  0  0  0  0  0  0  0  0
    6.5883  -12.6335   27.2618 C   0  0  0  0  0  0  0  0  0  0  0  0
    7.1623  -11.4099   26.9976 C   0  0  0  0  0  0  0  0  0  0  0  0
    7.7144  -11.1787   25.7565 C   0  0  0  0  0  0  0  0  0  0  0  0
    7.6646  -12.1946   24.8298 C   0  0  0  0  0  0  0  0  0  0  0  0
    8.7236  -15.7470   25.1930 C   0  0  0  0  0  0  0  0  0  0  0  0
    8.1206  -16.7536   25.6423 O   0  0  0  0  0  0  0  0  0  0  0  0
   13.9466  -15.4013   25.5362 C   0  0  0  0  0  0  0  0  0  0  0  0
   12.5254  -15.8318   25.6542 C   0  0  0  0  0  0  0  0  0  0  0  0
   11.8717  -15.6841   26.9672 C   0  0  2  0  0  0  0  0  0  0  0  0
   12.7281  -16.2428   28.0897 C   0  0  0  0  0  0  0  0  0  0  0  0
   10.4224  -15.9704   27.0567 C   0  0  2  0  0  0  0  0  0  0  0  0
    9.7310  -15.1776   26.0066 N   0  0  0  0  0  0  0  0  0  0  0  0
    9.8168  -15.6874   28.3394 C   0  0  0  0  0  0  0  0  0  0  0  0
    9.3224  -14.5361   28.5965 O   0  0  0  0  0  0  0  0  0  0  0  0
    9.7242  -16.6168   29.3528 O   0  0  0  0  0  0  0  0  0  0  0  0
  2  3  2  0
  2  1  1  0
  4  3  1  0
  5  4  2  0
  6  7  1  0
  6  5  1  0
  7  9  1  0
  7  8  1  6
  9 10  2  0
 11  5  1  0
 11 12  2  0
 12  2  1  0
 13  9  1  0
 14 13  1  0
 14 15  1  1
 16 15  1  0
 17 16  2  0
 18 17  1  0
 19 18  2  0
 19 20  1  0
 20 21  2  0
 21 16  1  0
 22 29  1  0
 22 14  1  0
 23 22  2  0
 24 25  1  0
 25 26  1  0
 26 27  1  1
 28 29  1  6
 28 26  1  0
 30 28  1  0
 31 30  2  0
 32 30  1  0
M  END
$$$$
