YFI.pdb
     RDKit          3D

 32 33  0  0  1  0  0  0  0  0999 V2000
    3.5773  -24.6056   23.4106 O   0  0  0  0  0  0  0  0  0  0  0  0
    4.4785  -23.5716   23.6015 C   0  0  0  0  0  0  0  0  0  0  0  0
    5.8351  -23.7901   23.4441 C   0  0  0  0  0  0  0  0  0  0  0  0
    6.7314  -22.7423   23.6388 C   0  0  0  0  0  0  0  0  0  0  0  0
    6.3123  -21.4773   23.9875 C   0  0  0  0  0  0  0  0  0  0  0  0
    7.2712  -20.3601   24.1951 C   0  0  0  0  0  0  0  0  0  0  0  0
    7.0051  -19.3343   23.1156 C   0  0  2  0  0  0  0  0  0  0  0  0
    7.7306  -19.7434   21.9409 N   0  0  0  0  0  0  0  0  0  0  0  0
    7.4828  -17.9945   23.5361 C   0  0  0  0  0  0  0  0  0  0  0  0
    8.6014  -17.5954   23.1919 O   0  0  0  0  0  0  0  0  0  0  0  0
    4.9433  -21.2932   24.1372 C   0  0  0  0  0  0  0  0  0  0  0  0
    4.0457  -22.3265   23.9462 C   0  0  0  0  0  0  0  0  0  0  0  0
    6.6748  -17.1503   24.3343 N   0  0  0  0  0  0  0  0  0  0  0  0
    7.2247  -15.9328   24.8445 C   0  0  1  0  0  0  0  0  0  0  0  0
    6.1826  -14.9949   25.4045 C   0  0  0  0  0  0  0  0  0  0  0  0
    6.7797  -13.7091   25.8816 C   0  0  0  0  0  0  0  0  0  0  0  0
    7.4075  -12.8161   25.0796 C   0  0  0  0  0  0  0  0  0  0  0  0
    7.9271  -11.6577   25.6064 C   0  0  0  0  0  0  0  0  0  0  0  0
    7.8272  -11.3719   26.9498 C   0  0  0  0  0  0  0  0  0  0  0  0
    7.1925  -12.2667   27.7835 C   0  0  0  0  0  0  0  0  0  0  0  0
    6.6830  -13.4169   27.2260 C   0  0  0  0  0  0  0  0  0  0  0  0
    8.1544  -16.2558   25.9493 C   0  0  0  0  0  0  0  0  0  0  0  0
    7.9019  -17.0882   26.8560 O   0  0  0  0  0  0  0  0  0  0  0  0
   12.9171  -15.8920   23.6880 C   0  0  0  0  0  0  0  0  0  0  0  0
   11.7002  -16.1774   24.4984 C   0  0  0  0  0  0  0  0  0  0  0  0
   11.7785  -15.9553   25.9535 C   0  0  2  0  0  0  0  0  0  0  0  0
   13.0612  -16.5161   26.5415 C   0  0  0  0  0  0  0  0  0  0  0  0
   10.5530  -16.1696   26.7550 C   0  0  2  0  0  0  0  0  0  0  0  0
    9.4055  -15.5977   26.0029 N   0  0  0  0  0  0  0  0  0  0  0  0
   10.5790  -15.6001   28.0843 C   0  0  0  0  0  0  0  0  0  0  0  0
   11.2458  -16.1520   29.0261 O   0  0  0  0  0  0  0  0  0  0  0  0
    9.9086  -14.4452   28.4248 O   0  0  0  0  0  0  0  0  0  0  0  0
  2  3  2  0
  2  1  1  0
  4  3  1  0
  5  4  2  0
  6  7  1  0
  6  5  1  0
  7  9  1  0
  7  8  1  6
  9 10  2  0
 11  5  1  0
 11 12  2  0
 12  2  1  0
 13  9  1  0
 14 13  1  0
 14 15  1  1
 16 15  1  0
 17 16  2  0
 18 17  1  0
 19 18  2  0
 19 20  1  0
 20 21  2  0
 21 16  1  0
 22 29  1  0
 22 14  1  0
 23 22  2  0
 24 25  1  0
 25 26  1  0
 26 27  1  1
 28 29  1  6
 28 26  1  0
 30 28  1  0
 31 30  2  0
 32 30  1  0
M  END
$$$$
