YFI.pdb
     RDKit          3D

 32 33  0  0  1  0  0  0  0  0999 V2000
    8.6502  -15.3328   13.7696 O   0  0  0  0  0  0  0  0  0  0  0  0
    8.8433  -15.0338   15.1079 C   0  0  0  0  0  0  0  0  0  0  0  0
    7.8444  -14.4129   15.8356 C   0  0  0  0  0  0  0  0  0  0  0  0
    8.0507  -14.1173   17.1807 C   0  0  0  0  0  0  0  0  0  0  0  0
    9.2293  -14.4243   17.8240 C   0  0  0  0  0  0  0  0  0  0  0  0
    9.4474  -14.1076   19.2603 C   0  0  0  0  0  0  0  0  0  0  0  0
    9.8779  -15.3879   19.9415 C   0  0  2  0  0  0  0  0  0  0  0  0
    8.9203  -16.4061   19.5953 N   0  0  0  0  0  0  0  0  0  0  0  0
    9.8918  -15.2188   21.4150 C   0  0  0  0  0  0  0  0  0  0  0  0
   10.8124  -14.6011   21.9627 O   0  0  0  0  0  0  0  0  0  0  0  0
   10.2109  -15.0474   17.0632 C   0  0  0  0  0  0  0  0  0  0  0  0
   10.0160  -15.3449   15.7278 C   0  0  0  0  0  0  0  0  0  0  0  0
    8.8596  -15.7568   22.2199 N   0  0  0  0  0  0  0  0  0  0  0  0
    8.6113  -15.1919   23.5099 C   0  0  1  0  0  0  0  0  0  0  0  0
    7.1450  -14.9714   23.7936 C   0  0  0  0  0  0  0  0  0  0  0  0
    6.9270  -14.1017   24.9908 C   0  0  0  0  0  0  0  0  0  0  0  0
    6.3397  -14.5176   26.1385 C   0  0  0  0  0  0  0  0  0  0  0  0
    6.1805  -13.6468   27.1901 C   0  0  0  0  0  0  0  0  0  0  0  0
    6.6078  -12.3401   27.1112 C   0  0  0  0  0  0  0  0  0  0  0  0
    7.2079  -11.8963   25.9528 C   0  0  0  0  0  0  0  0  0  0  0  0
    7.3526  -12.7919   24.9183 C   0  0  0  0  0  0  0  0  0  0  0  0
    9.1166  -16.1227   24.5432 C   0  0  0  0  0  0  0  0  0  0  0  0
    9.1386  -17.3718   24.4097 O   0  0  0  0  0  0  0  0  0  0  0  0
    9.9794  -14.3241   30.0152 C   0  0  0  0  0  0  0  0  0  0  0  0
    9.5791  -15.1665   28.8537 C   0  0  0  0  0  0  0  0  0  0  0  0
   10.6387  -15.6028   27.9264 C   0  0  2  0  0  0  0  0  0  0  0  0
   11.6131  -14.4806   27.6152 C   0  0  0  0  0  0  0  0  0  0  0  0
   10.2506  -16.4571   26.7819 C   0  0  2  0  0  0  0  0  0  0  0  0
    9.6075  -15.5915   25.7590 N   0  0  0  0  0  0  0  0  0  0  0  0
    9.3608  -17.5510   27.1038 C   0  0  0  0  0  0  0  0  0  0  0  0
    8.1227  -17.5107   26.7851 O   0  0  0  0  0  0  0  0  0  0  0  0
    9.7725  -18.6930   27.7563 O   0  0  0  0  0  0  0  0  0  0  0  0
  2  3  2  0
  2  1  1  0
  4  3  1  0
  5  4  2  0
  6  7  1  0
  6  5  1  0
  7  9  1  0
  7  8  1  1
  9 10  2  0
 11  5  1  0
 11 12  2  0
 12  2  1  0
 13  9  1  0
 14 13  1  0
 14 15  1  1
 16 15  1  0
 17 16  2  0
 18 17  1  0
 19 18  2  0
 19 20  1  0
 20 21  2  0
 21 16  1  0
 22 29  1  0
 22 14  1  0
 23 22  2  0
 24 25  1  0
 25 26  1  0
 26 27  1  6
 28 29  1  6
 28 26  1  0
 30 28  1  0
 31 30  2  0
 32 30  1  0
M  END
$$$$
