RPG.pdb
     RDKit          3D

 23 23  0  0  1  0  0  0  0  0999 V2000
   20.8641  -23.9494  -13.9244 N   0  0  0  0  0  0  0  0  0  0  0  0
   19.9822  -22.9861  -13.3580 C   0  0  0  0  0  0  0  0  0  0  0  0
   19.0369  -23.2897  -12.5322 N   0  0  0  0  0  0  0  0  0  0  0  0
   20.1258  -21.6079  -13.7014 N   0  0  0  0  0  0  0  0  0  0  0  0
   21.0449  -21.1499  -14.7067 C   0  0  0  0  0  0  0  0  0  0  0  0
   22.4350  -21.1280  -14.1097 C   0  0  0  0  0  0  0  0  0  0  0  0
   22.9267  -19.7384  -13.8603 C   0  0  0  0  0  0  0  0  0  0  0  0
   23.3446  -19.0908  -15.1611 C   0  0  2  0  0  0  0  0  0  0  0  0
   22.3270  -19.2799  -16.1389 N   0  0  0  0  0  0  0  0  0  0  0  0
   24.6282  -19.6014  -15.6496 C   0  0  0  0  0  0  0  0  0  0  0  0
   24.5902  -20.6434  -16.3667 O   0  0  0  0  0  0  0  0  0  0  0  0
   18.4216  -22.5392  -12.1389 N   0  0  0  0  0  0  0  0  0  0  0  0
   25.8673  -18.9722  -15.3427 C   0  0  0  0  0  0  0  0  0  0  0  0
   26.0406  -17.8178  -14.4951 C   0  0  0  0  0  0  0  0  0  0  0  0
   27.5062  -17.4393  -14.6548 C   0  0  0  0  0  0  0  0  0  0  0  0
   28.1723  -18.7267  -15.0357 C   0  0  2  0  0  0  0  0  0  0  0  0
   27.1205  -19.4315  -15.8495 C   0  0  0  0  0  0  0  0  0  0  0  0
   27.3143  -20.9109  -15.7309 O   0  0  0  0  0  0  0  0  0  0  0  0
   26.7678  -21.5172  -14.7903 N   0  0  0  0  0  0  0  0  0  0  0  0
   28.0993  -21.6136  -16.6623 C   0  0  0  0  0  0  0  0  0  0  0  0
   28.2932  -23.0464  -16.6369 C   0  0  0  0  0  0  0  0  0  0  0  0
   27.1823  -23.7767  -17.2781 O   0  0  0  0  0  0  0  0  0  0  0  0
   26.5210  -24.5956  -16.6068 O   0  0  0  0  0  0  0  0  0  0  0  0
  2  4  1  0
  2  1  1  0
  3  2  2  0
  5  4  1  0
  6  5  1  0
  7  8  1  0
  7  6  1  0
  8 10  1  0
  8  9  1  6
 10 12  1  0
 11 10  2  0
 12 13  1  0
 12 16  1  0
 13 14  1  0
 14 15  1  0
 16 15  1  0
 16 17  1  1
 17 18  2  0
 19 17  1  0
 20 19  1  0
 20 21  1  0
 21 22  2  0
 21 23  1  0
M  END
$$$$
