RPG.pdb
     RDKit          3D

 23 23  0  0  1  0  0  0  0  0999 V2000
   13.4695  -12.7681  -15.1764 N   0  0  0  0  0  0  0  0  0  0  0  0
   13.3141  -12.4013  -16.5430 C   0  0  0  0  0  0  0  0  0  0  0  0
   13.0285  -13.2474  -17.4759 N   0  0  0  0  0  0  0  0  0  0  0  0
   13.4761  -11.0372  -16.9318 N   0  0  0  0  0  0  0  0  0  0  0  0
   14.2055  -10.0854  -16.1399 C   0  0  0  0  0  0  0  0  0  0  0  0
   15.6846  -10.3570  -16.3078 C   0  0  0  0  0  0  0  0  0  0  0  0
   16.5331   -9.3517  -15.5976 C   0  0  0  0  0  0  0  0  0  0  0  0
   17.4721  -10.0460  -14.6371 C   0  0  2  0  0  0  0  0  0  0  0  0
   16.7675  -10.4035  -13.4527 N   0  0  0  0  0  0  0  0  0  0  0  0
   18.6418   -9.2256  -14.3118 C   0  0  0  0  0  0  0  0  0  0  0  0
   18.4552   -8.2591  -13.5166 O   0  0  0  0  0  0  0  0  0  0  0  0
   12.9725  -12.9314  -18.4727 N   0  0  0  0  0  0  0  0  0  0  0  0
   19.9317   -9.4854  -14.8539 C   0  0  0  0  0  0  0  0  0  0  0  0
   20.2956  -10.6275  -15.6566 C   0  0  0  0  0  0  0  0  0  0  0  0
   21.8067  -10.5259  -15.8084 C   0  0  0  0  0  0  0  0  0  0  0  0
   22.0875   -9.0618  -15.6544 C   0  0  2  0  0  0  0  0  0  0  0  0
   21.0460   -8.6132  -14.6646 C   0  0  0  0  0  0  0  0  0  0  0  0
   20.7300   -7.1695  -14.9015 O   0  0  0  0  0  0  0  0  0  0  0  0
   19.8918   -6.8708  -15.7729 N   0  0  0  0  0  0  0  0  0  0  0  0
   21.3646   -6.1595  -14.1567 C   0  0  0  0  0  0  0  0  0  0  0  0
   21.0939   -4.7479  -14.3161 C   0  0  0  0  0  0  0  0  0  0  0  0
   21.9116   -3.9122  -13.4152 O   0  0  0  0  0  0  0  0  0  0  0  0
   22.4781   -4.4417  -12.4367 O   0  0  0  0  0  0  0  0  0  0  0  0
  2  4  1  0
  2  1  1  0
  3  2  2  0
  5  4  1  0
  6  5  1  0
  7  8  1  0
  7  6  1  0
  8 10  1  0
  8  9  1  1
 10 12  1  0
 11 10  2  0
 12 13  1  0
 12 16  1  0
 13 14  1  0
 14 15  1  0
 16 15  1  0
 16 17  1  6
 17 18  2  0
 19 17  1  0
 20 19  1  0
 20 21  1  0
 21 22  2  0
 21 23  1  0
M  END
$$$$
