RPG.pdb
     RDKit          3D

 23 23  0  0  1  0  0  0  0  0999 V2000
   24.0408  -26.1595  -14.1564 N   0  0  0  0  0  0  0  0  0  0  0  0
   22.6971  -25.8055  -14.4658 C   0  0  0  0  0  0  0  0  0  0  0  0
   21.6721  -26.3568  -13.9062 N   0  0  0  0  0  0  0  0  0  0  0  0
   22.4388  -24.7938  -15.4394 N   0  0  0  0  0  0  0  0  0  0  0  0
   23.0888  -23.5123  -15.4189 C   0  0  0  0  0  0  0  0  0  0  0  0
   22.8976  -22.9008  -14.0481 C   0  0  0  0  0  0  0  0  0  0  0  0
   23.0857  -21.4177  -14.0542 C   0  0  0  0  0  0  0  0  0  0  0  0
   24.4184  -21.0627  -14.6739 C   0  0  2  0  0  0  0  0  0  0  0  0
   25.4357  -21.1041  -13.6786 N   0  0  0  0  0  0  0  0  0  0  0  0
   24.3952  -19.7533  -15.3312 C   0  0  0  0  0  0  0  0  0  0  0  0
   23.9332  -18.7868  -14.6576 O   0  0  0  0  0  0  0  0  0  0  0  0
   20.7041  -26.0889  -14.2028 N   0  0  0  0  0  0  0  0  0  0  0  0
   24.8628  -19.5578  -16.6610 C   0  0  0  0  0  0  0  0  0  0  0  0
   25.4714  -20.5627  -17.4981 C   0  0  0  0  0  0  0  0  0  0  0  0
   25.9574  -19.8011  -18.7230 C   0  0  0  0  0  0  0  0  0  0  0  0
   25.0518  -18.6088  -18.7898 C   0  0  2  0  0  0  0  0  0  0  0  0
   24.7730  -18.3062  -17.3420 C   0  0  0  0  0  0  0  0  0  0  0  0
   23.4331  -17.6496  -17.2246 O   0  0  0  0  0  0  0  0  0  0  0  0
   22.5395  -18.2158  -16.5674 N   0  0  0  0  0  0  0  0  0  0  0  0
   23.1780  -16.4127  -17.8432 C   0  0  0  0  0  0  0  0  0  0  0  0
   21.8944  -15.7473  -17.8188 C   0  0  0  0  0  0  0  0  0  0  0  0
   21.9688  -14.4011  -17.2180 O   0  0  0  0  0  0  0  0  0  0  0  0
   22.4406  -14.2695  -16.0696 O   0  0  0  0  0  0  0  0  0  0  0  0
  2  4  1  0
  2  1  1  0
  3  2  2  0
  5  4  1  0
  6  5  1  0
  7  8  1  0
  7  6  1  0
  8 10  1  0
  8  9  1  1
 10 12  1  0
 11 10  2  0
 12 13  1  0
 12 16  1  0
 13 14  1  0
 14 15  1  0
 16 15  1  0
 16 17  1  6
 17 18  2  0
 19 17  1  0
 20 19  1  0
 20 21  1  0
 21 22  2  0
 21 23  1  0
M  END
$$$$
