RPG.pdb
     RDKit          3D

 23 23  0  0  1  0  0  0  0  0999 V2000
   17.9968  -24.0239   -9.0460 N   0  0  0  0  0  0  0  0  0  0  0  0
   18.4396  -24.0180   -7.6931 C   0  0  0  0  0  0  0  0  0  0  0  0
   17.6789  -24.3290   -6.6969 N   0  0  0  0  0  0  0  0  0  0  0  0
   19.7869  -23.6544   -7.3917 N   0  0  0  0  0  0  0  0  0  0  0  0
   20.7005  -23.1656   -8.3874 C   0  0  0  0  0  0  0  0  0  0  0  0
   20.2842  -21.7625   -8.7712 C   0  0  0  0  0  0  0  0  0  0  0  0
   20.8795  -21.3265  -10.0714 C   0  0  0  0  0  0  0  0  0  0  0  0
   22.3444  -20.9980   -9.8910 C   0  0  2  0  0  0  0  0  0  0  0  0
   22.4939  -20.0249   -8.8625 N   0  0  0  0  0  0  0  0  0  0  0  0
   22.9673  -20.5331  -11.1332 C   0  0  0  0  0  0  0  0  0  0  0  0
   22.3722  -19.6059  -11.7556 O   0  0  0  0  0  0  0  0  0  0  0  0
   18.0661  -24.3418   -5.7240 N   0  0  0  0  0  0  0  0  0  0  0  0
   24.1802  -21.0852  -11.6326 C   0  0  0  0  0  0  0  0  0  0  0  0
   24.9988  -22.0673  -10.9644 C   0  0  0  0  0  0  0  0  0  0  0  0
   26.2547  -22.1673  -11.8183 C   0  0  0  0  0  0  0  0  0  0  0  0
   25.7967  -21.7540  -13.1841 C   0  0  2  0  0  0  0  0  0  0  0  0
   24.7386  -20.7231  -12.8957 C   0  0  0  0  0  0  0  0  0  0  0  0
   23.7443  -20.7107  -14.0143 O   0  0  0  0  0  0  0  0  0  0  0  0
   22.8931  -21.6178  -14.0747 N   0  0  0  0  0  0  0  0  0  0  0  0
   23.7632  -19.6946  -14.9864 C   0  0  0  0  0  0  0  0  0  0  0  0
   22.8596  -19.6392  -16.1140 C   0  0  0  0  0  0  0  0  0  0  0  0
   21.6109  -18.9173  -15.8004 O   0  0  0  0  0  0  0  0  0  0  0  0
   20.7726  -19.4469  -15.0419 O   0  0  0  0  0  0  0  0  0  0  0  0
  2  4  1  0
  2  1  1  0
  3  2  2  0
  5  4  1  0
  6  5  1  0
  7  8  1  0
  7  6  1  0
  8 10  1  0
  8  9  1  1
 10 12  1  0
 11 10  2  0
 12 13  1  0
 12 16  1  0
 13 14  1  0
 14 15  1  0
 16 15  1  0
 16 17  1  6
 17 18  2  0
 19 17  1  0
 20 19  1  0
 20 21  1  0
 21 22  2  0
 21 23  1  0
M  END
$$$$
