RPG.pdb
     RDKit          3D

 23 23  0  0  1  0  0  0  0  0999 V2000
   20.1537  -21.9755   -9.7890 N   0  0  0  0  0  0  0  0  0  0  0  0
   20.5566  -20.6550  -10.1364 C   0  0  0  0  0  0  0  0  0  0  0  0
   21.2746  -19.9074   -9.3662 N   0  0  0  0  0  0  0  0  0  0  0  0
   20.1621  -20.1029  -11.3924 N   0  0  0  0  0  0  0  0  0  0  0  0
   20.7020  -20.5573  -12.6443 C   0  0  0  0  0  0  0  0  0  0  0  0
   21.9870  -19.8048  -12.9125 C   0  0  0  0  0  0  0  0  0  0  0  0
   21.7885  -18.6506  -13.8417 C   0  0  0  0  0  0  0  0  0  0  0  0
   21.8874  -19.1132  -15.2778 C   0  0  2  0  0  0  0  0  0  0  0  0
   21.1938  -20.3470  -15.4324 N   0  0  0  0  0  0  0  0  0  0  0  0
   23.2764  -19.2446  -15.7255 C   0  0  0  0  0  0  0  0  0  0  0  0
   23.7473  -20.4179  -15.7819 O   0  0  0  0  0  0  0  0  0  0  0  0
   21.5327  -18.9380   -9.6668 N   0  0  0  0  0  0  0  0  0  0  0  0
   24.0736  -18.1210  -16.0821 C   0  0  0  0  0  0  0  0  0  0  0  0
   23.6280  -16.7496  -16.1259 C   0  0  0  0  0  0  0  0  0  0  0  0
   24.7907  -15.9863  -16.7440 C   0  0  0  0  0  0  0  0  0  0  0  0
   25.9896  -16.8209  -16.4090 C   0  0  2  0  0  0  0  0  0  0  0  0
   25.4513  -18.2262  -16.4416 C   0  0  0  0  0  0  0  0  0  0  0  0
   26.2539  -19.0833  -15.5134 O   0  0  0  0  0  0  0  0  0  0  0  0
   25.8526  -19.2479  -14.3459 N   0  0  0  0  0  0  0  0  0  0  0  0
   27.4436  -19.6971  -15.9439 C   0  0  0  0  0  0  0  0  0  0  0  0
   28.2481  -20.5681  -15.1161 C   0  0  0  0  0  0  0  0  0  0  0  0
   27.9046  -21.9922  -15.2965 O   0  0  0  0  0  0  0  0  0  0  0  0
   26.8284  -22.4247  -14.8345 O   0  0  0  0  0  0  0  0  0  0  0  0
  2  4  1  0
  2  1  1  0
  3  2  2  0
  5  4  1  0
  6  5  1  0
  7  8  1  0
  7  6  1  0
  8 10  1  0
  8  9  1  1
 10 12  1  0
 11 10  2  0
 12 13  1  0
 12 16  1  0
 13 14  1  0
 14 15  1  0
 16 15  1  0
 16 17  1  1
 17 18  2  0
 19 17  1  0
 20 19  1  0
 20 21  1  0
 21 22  2  0
 21 23  1  0
M  END
$$$$
