RPG.pdb
     RDKit          3D

 23 23  0  0  1  0  0  0  0  0999 V2000
   16.9757  -15.4565  -17.9371 N   0  0  0  0  0  0  0  0  0  0  0  0
   17.6435  -15.9059  -16.7630 C   0  0  0  0  0  0  0  0  0  0  0  0
   17.2034  -16.8670  -16.0211 N   0  0  0  0  0  0  0  0  0  0  0  0
   18.8630  -15.2821  -16.3606 N   0  0  0  0  0  0  0  0  0  0  0  0
   19.4068  -14.1344  -17.0330 C   0  0  0  0  0  0  0  0  0  0  0  0
   20.7179  -13.7693  -16.3718 C   0  0  0  0  0  0  0  0  0  0  0  0
   20.9213  -12.2907  -16.2868 C   0  0  0  0  0  0  0  0  0  0  0  0
   22.3597  -11.9426  -16.5965 C   0  0  2  0  0  0  0  0  0  0  0  0
   23.2281  -12.8235  -15.8914 N   0  0  0  0  0  0  0  0  0  0  0  0
   22.6752  -10.5472  -16.2797 C   0  0  0  0  0  0  0  0  0  0  0  0
   22.8078  -10.2580  -15.0549 O   0  0  0  0  0  0  0  0  0  0  0  0
   17.7638  -17.1959  -15.2000 N   0  0  0  0  0  0  0  0  0  0  0  0
   22.8271   -9.5512  -17.2848 C   0  0  0  0  0  0  0  0  0  0  0  0
   22.8055   -9.7792  -18.7091 C   0  0  0  0  0  0  0  0  0  0  0  0
   23.2013   -8.4422  -19.3193 C   0  0  0  0  0  0  0  0  0  0  0  0
   22.7923   -7.4378  -18.2849 C   0  0  2  0  0  0  0  0  0  0  0  0
   23.0170   -8.1678  -16.9878 C   0  0  0  0  0  0  0  0  0  0  0  0
   22.0741   -7.6371  -15.9536 O   0  0  0  0  0  0  0  0  0  0  0  0
   20.9622   -8.1808  -15.8156 N   0  0  0  0  0  0  0  0  0  0  0  0
   22.4296   -6.5423  -15.1458 C   0  0  0  0  0  0  0  0  0  0  0  0
   21.5716   -5.9778  -14.1278 C   0  0  0  0  0  0  0  0  0  0  0  0
   22.2054   -4.8486  -13.4194 O   0  0  0  0  0  0  0  0  0  0  0  0
   22.5102   -4.9761  -12.2154 O   0  0  0  0  0  0  0  0  0  0  0  0
  2  4  1  0
  2  1  1  0
  3  2  2  0
  5  4  1  0
  6  5  1  0
  7  8  1  0
  7  6  1  0
  8 10  1  0
  8  9  1  1
 10 12  1  0
 11 10  2  0
 12 13  1  0
 12 16  1  0
 13 14  1  0
 14 15  1  0
 16 15  1  0
 16 17  1  6
 17 18  2  0
 19 17  1  0
 20 19  1  0
 20 21  1  0
 21 22  2  0
 21 23  1  0
M  END
$$$$
