RPG.pdb
     RDKit          3D

 23 23  0  0  1  0  0  0  0  0999 V2000
   19.5616  -17.7576  -16.4618 N   0  0  0  0  0  0  0  0  0  0  0  0
   20.8713  -17.8345  -17.0143 C   0  0  0  0  0  0  0  0  0  0  0  0
   21.1704  -17.3977  -18.1922 N   0  0  0  0  0  0  0  0  0  0  0  0
   21.9273  -18.4186  -16.2515 N   0  0  0  0  0  0  0  0  0  0  0  0
   21.7476  -19.6010  -15.4548 C   0  0  0  0  0  0  0  0  0  0  0  0
   20.5955  -19.3657  -14.5026 C   0  0  0  0  0  0  0  0  0  0  0  0
   21.0304  -19.3587  -13.0722 C   0  0  0  0  0  0  0  0  0  0  0  0
   22.0436  -20.4543  -12.8290 C   0  0  2  0  0  0  0  0  0  0  0  0
   22.0879  -21.3244  -13.9551 N   0  0  0  0  0  0  0  0  0  0  0  0
   21.7626  -21.2104  -11.6057 C   0  0  0  0  0  0  0  0  0  0  0  0
   20.7470  -21.9652  -11.6243 O   0  0  0  0  0  0  0  0  0  0  0  0
   22.1463  -17.4994  -18.5582 N   0  0  0  0  0  0  0  0  0  0  0  0
   22.5781  -21.1135  -10.4434 C   0  0  0  0  0  0  0  0  0  0  0  0
   23.7309  -20.2600  -10.2899 C   0  0  0  0  0  0  0  0  0  0  0  0
   24.3433  -20.6754   -8.9598 C   0  0  0  0  0  0  0  0  0  0  0  0
   23.1867  -21.2359   -8.1890 C   0  0  2  0  0  0  0  0  0  0  0  0
   22.3353  -21.8690   -9.2566 C   0  0  0  0  0  0  0  0  0  0  0  0
   20.9047  -21.8595   -8.8167 O   0  0  0  0  0  0  0  0  0  0  0  0
   20.1838  -20.8935   -9.1299 N   0  0  0  0  0  0  0  0  0  0  0  0
   20.3742  -22.9204   -8.0612 C   0  0  0  0  0  0  0  0  0  0  0  0
   19.0073  -22.9731   -7.5923 C   0  0  0  0  0  0  0  0  0  0  0  0
   18.7259  -24.1942   -6.8123 O   0  0  0  0  0  0  0  0  0  0  0  0
   18.6713  -25.2951   -7.3987 O   0  0  0  0  0  0  0  0  0  0  0  0
  2  4  1  0
  2  1  1  0
  3  2  2  0
  5  4  1  0
  6  5  1  0
  7  8  1  0
  7  6  1  0
  8 10  1  0
  8  9  1  6
 10 12  1  0
 11 10  2  0
 12 13  1  0
 12 16  1  0
 13 14  1  0
 14 15  1  0
 16 15  1  0
 16 17  1  1
 17 18  2  0
 19 17  1  0
 20 19  1  0
 20 21  1  0
 21 22  2  0
 21 23  1  0
M  END
$$$$
