RPG.pdb
     RDKit          3D

 23 23  0  0  1  0  0  0  0  0999 V2000
   22.5643  -21.0153   -9.5103 N   0  0  0  0  0  0  0  0  0  0  0  0
   23.4675  -20.9211   -8.4140 C   0  0  0  0  0  0  0  0  0  0  0  0
   23.1188  -21.1306   -7.1884 N   0  0  0  0  0  0  0  0  0  0  0  0
   24.8334  -20.5798   -8.6507 N   0  0  0  0  0  0  0  0  0  0  0  0
   25.3464  -20.2940   -9.9622 C   0  0  0  0  0  0  0  0  0  0  0  0
   25.6233  -21.6057  -10.6638 C   0  0  0  0  0  0  0  0  0  0  0  0
   26.1847  -21.4111  -12.0357 C   0  0  0  0  0  0  0  0  0  0  0  0
   25.2596  -20.5449  -12.8605 C   0  0  2  0  0  0  0  0  0  0  0  0
   23.9449  -21.0910  -12.8376 N   0  0  0  0  0  0  0  0  0  0  0  0
   25.7273  -20.3881  -14.2403 C   0  0  0  0  0  0  0  0  0  0  0  0
   25.4872  -21.3438  -15.0343 O   0  0  0  0  0  0  0  0  0  0  0  0
   23.8206  -21.0292   -6.4178 N   0  0  0  0  0  0  0  0  0  0  0  0
   26.4202  -19.2273  -14.6848 C   0  0  0  0  0  0  0  0  0  0  0  0
   26.5222  -17.9792  -13.9687 C   0  0  0  0  0  0  0  0  0  0  0  0
   27.1883  -17.0253  -14.9501 C   0  0  0  0  0  0  0  0  0  0  0  0
   27.9722  -17.9271  -15.8547 C   0  0  2  0  0  0  0  0  0  0  0  0
   27.1218  -19.1670  -15.9267 C   0  0  0  0  0  0  0  0  0  0  0  0
   27.9990  -20.3524  -16.1831 O   0  0  0  0  0  0  0  0  0  0  0  0
   28.3244  -21.0799  -15.2261 N   0  0  0  0  0  0  0  0  0  0  0  0
   28.4532  -20.6478  -17.4808 C   0  0  0  0  0  0  0  0  0  0  0  0
   29.2766  -21.7908  -17.8072 C   0  0  0  0  0  0  0  0  0  0  0  0
   28.5147  -22.8595  -18.4826 O   0  0  0  0  0  0  0  0  0  0  0  0
   29.1228  -23.8521  -18.9339 O   0  0  0  0  0  0  0  0  0  0  0  0
  2  4  1  0
  2  1  1  0
  3  2  2  0
  5  4  1  0
  6  5  1  0
  7  8  1  0
  7  6  1  0
  8 10  1  0
  8  9  1  6
 10 12  1  0
 11 10  2  0
 12 13  1  0
 12 16  1  0
 13 14  1  0
 14 15  1  0
 16 15  1  0
 16 17  1  1
 17 18  2  0
 19 17  1  0
 20 19  1  0
 20 21  1  0
 21 22  2  0
 21 23  1  0
M  END
$$$$
