RGQ.pdb
     RDKit          3D

 25 24  0  0  1  0  0  0  0  0999 V2000
    8.1229  -12.5218   17.5347 N   0  0  0  0  0  0  0  0  0  0  0  0
    7.7951  -13.9158   17.3570 C   0  0  0  0  0  0  0  0  0  0  0  0
    8.4002  -14.6031   16.4545 N   0  0  0  0  0  0  0  0  0  0  0  0
    6.8172  -14.5436   18.1590 N   0  0  0  0  0  0  0  0  0  0  0  0
    7.0804  -14.8725   19.5364 C   0  0  0  0  0  0  0  0  0  0  0  0
    8.5291  -14.6240   19.7868 C   0  0  0  0  0  0  0  0  0  0  0  0
    9.0400  -15.0071   21.1199 C   0  0  0  0  0  0  0  0  0  0  0  0
    8.5698  -16.2928   21.6946 C   0  0  2  0  0  0  0  0  0  0  0  0
    7.4635  -16.1491   22.5941 N   0  0  0  0  0  0  0  0  0  0  0  0
    9.7238  -16.8500   22.4909 C   0  0  0  0  0  0  0  0  0  0  0  0
   10.4603  -17.7316   21.9752 O   0  0  0  0  0  0  0  0  0  0  0  0
    8.2002  -15.5960   16.2826 N   0  0  0  0  0  0  0  0  0  0  0  0
   10.0011  -16.4100   23.7999 C   0  0  0  0  0  0  0  0  0  0  0  0
   11.3613  -16.0594   24.2304 C   0  0  0  0  0  0  0  0  0  0  0  0
   11.3391  -15.6585   25.6621 O   0  0  0  0  0  0  0  0  0  0  0  0
   12.4079  -15.3383   26.2328 N   0  0  0  0  0  0  0  0  0  0  0  0
    7.6775  -11.1183   26.0090 C   0  0  0  0  0  0  0  0  0  0  0  0
    7.7631  -12.2688   26.8545 O   0  0  0  0  0  0  0  0  0  0  0  0
    6.8328  -12.5733   27.6717 C   0  0  0  0  0  0  0  0  0  0  0  0
    8.9605  -13.1249   26.7666 C   0  0  0  0  0  0  0  0  0  0  0  0
    8.9744  -14.1765   27.7877 C   0  0  2  0  0  0  0  0  0  0  0  0
   10.1432  -15.1221   27.7761 N   0  0  0  0  0  0  0  0  0  0  0  0
   10.1200  -15.6411   26.3666 C   0  0  0  0  0  0  0  0  0  0  0  0
    9.9932  -16.2583   28.6896 O   0  0  0  0  0  0  0  0  0  0  0  0
   10.2757  -16.2151   30.0583 O   0  0  0  0  0  0  0  0  0  0  0  0
  1  2  1  0
  2  3  2  0
  4  5  1  0
  4  2  1  0
  6  7  1  0
  6  5  1  0
  7  8  1  0
  8 10  1  0
  8  9  1  1
 10 12  1  0
 11 10  2  0
 12 13  1  0
 14 15  2  0
 14 13  1  0
 16 17  1  0
 17 19  1  0
 17 18  2  0
 19 20  1  0
 21 20  1  6
 21 23  1  0
 21 22  1  0
 22 14  1  0
 23 24  1  0
 25 23  2  0
M  END
$$$$
