RGQ.pdb
     RDKit          3D

 25 24  0  0  1  0  0  0  0  0999 V2000
    8.2063  -13.0116   18.2703 N   0  0  0  0  0  0  0  0  0  0  0  0
    8.1254  -12.9203   19.7081 C   0  0  0  0  0  0  0  0  0  0  0  0
    8.2527  -11.7771   20.2826 N   0  0  0  0  0  0  0  0  0  0  0  0
    7.9082  -14.0680   20.5012 N   0  0  0  0  0  0  0  0  0  0  0  0
    8.5991  -15.3029   20.2321 C   0  0  0  0  0  0  0  0  0  0  0  0
    7.6296  -16.2233   19.5716 C   0  0  0  0  0  0  0  0  0  0  0  0
    8.1648  -17.5236   19.1158 C   0  0  0  0  0  0  0  0  0  0  0  0
    8.3381  -18.5917   20.1324 C   0  0  2  0  0  0  0  0  0  0  0  0
    7.7235  -18.2910   21.3916 N   0  0  0  0  0  0  0  0  0  0  0  0
    9.8224  -18.7097   20.3765 C   0  0  0  0  0  0  0  0  0  0  0  0
   10.5843  -18.9976   19.4162 O   0  0  0  0  0  0  0  0  0  0  0  0
    8.1460  -11.6478   21.2962 N   0  0  0  0  0  0  0  0  0  0  0  0
   10.3813  -18.5061   21.6532 C   0  0  0  0  0  0  0  0  0  0  0  0
   11.5652  -17.6604   21.8577 C   0  0  0  0  0  0  0  0  0  0  0  0
   11.5324  -17.0869   23.2292 O   0  0  0  0  0  0  0  0  0  0  0  0
   12.4895  -16.3842   23.6303 N   0  0  0  0  0  0  0  0  0  0  0  0
    7.2161  -14.2613   25.9383 C   0  0  0  0  0  0  0  0  0  0  0  0
    6.9315  -15.5370   25.3575 O   0  0  0  0  0  0  0  0  0  0  0  0
    5.7447  -15.8845   25.0464 C   0  0  0  0  0  0  0  0  0  0  0  0
    8.0485  -16.4670   25.1085 C   0  0  0  0  0  0  0  0  0  0  0  0
    9.3292  -15.9494   25.5987 C   0  0  1  0  0  0  0  0  0  0  0  0
   10.5194  -16.8616   25.4897 N   0  0  0  0  0  0  0  0  0  0  0  0
   10.4288  -17.3362   24.0674 C   0  0  0  0  0  0  0  0  0  0  0  0
   10.4515  -18.0298   26.3721 O   0  0  0  0  0  0  0  0  0  0  0  0
   10.6998  -17.9971   27.7477 O   0  0  0  0  0  0  0  0  0  0  0  0
  1  2  1  0
  2  3  2  0
  4  5  1  0
  4  2  1  0
  6  7  1  0
  6  5  1  0
  7  8  1  0
  8 10  1  0
  8  9  1  1
 10 12  1  0
 11 10  2  0
 12 13  1  0
 14 15  2  0
 14 13  1  0
 16 17  1  0
 17 19  1  0
 17 18  2  0
 19 20  1  0
 21 20  1  6
 21 23  1  0
 21 22  1  0
 22 14  1  0
 23 24  1  0
 25 23  2  0
M  END
$$$$
