RGQ.pdb
     RDKit          3D

 25 24  0  0  1  0  0  0  0  0999 V2000
    8.8038  -11.8364   13.7224 N   0  0  0  0  0  0  0  0  0  0  0  0
    8.6148  -13.2555   13.9026 C   0  0  0  0  0  0  0  0  0  0  0  0
    9.5951  -14.0609   13.6942 N   0  0  0  0  0  0  0  0  0  0  0  0
    7.3675  -13.7804   14.3054 N   0  0  0  0  0  0  0  0  0  0  0  0
    7.2126  -14.4476   15.5724 C   0  0  0  0  0  0  0  0  0  0  0  0
    7.7892  -13.5573   16.6204 C   0  0  0  0  0  0  0  0  0  0  0  0
    7.5960  -13.9833   18.0226 C   0  0  0  0  0  0  0  0  0  0  0  0
    8.3280  -15.1902   18.4830 C   0  0  2  0  0  0  0  0  0  0  0  0
    8.0249  -16.3689   17.7263 N   0  0  0  0  0  0  0  0  0  0  0  0
    7.8813  -15.4430   19.9018 C   0  0  0  0  0  0  0  0  0  0  0  0
    6.6792  -15.7435   20.1258 O   0  0  0  0  0  0  0  0  0  0  0  0
    9.5389  -15.0687   13.8858 N   0  0  0  0  0  0  0  0  0  0  0  0
    8.7749  -15.3516   20.9868 C   0  0  0  0  0  0  0  0  0  0  0  0
    8.3687  -15.6857   22.3587 C   0  0  0  0  0  0  0  0  0  0  0  0
    9.5543  -15.6249   23.2541 O   0  0  0  0  0  0  0  0  0  0  0  0
   10.6949  -15.4589   22.7620 N   0  0  0  0  0  0  0  0  0  0  0  0
   10.0928  -13.1577   29.1921 C   0  0  0  0  0  0  0  0  0  0  0  0
   10.4614  -14.5383   29.1305 O   0  0  0  0  0  0  0  0  0  0  0  0
   10.2661  -15.3307   30.1104 C   0  0  0  0  0  0  0  0  0  0  0  0
   11.0770  -15.0526   27.8932 C   0  0  0  0  0  0  0  0  0  0  0  0
   10.1085  -15.1956   26.8023 C   0  0  1  0  0  0  0  0  0  0  0  0
   10.6277  -15.7278   25.4955 N   0  0  0  0  0  0  0  0  0  0  0  0
    9.3888  -15.7538   24.6465 C   0  0  0  0  0  0  0  0  0  0  0  0
   11.1579  -17.0914   25.5816 O   0  0  0  0  0  0  0  0  0  0  0  0
   12.4861  -17.4057   25.8852 O   0  0  0  0  0  0  0  0  0  0  0  0
  1  2  1  0
  2  3  2  0
  4  5  1  0
  4  2  1  0
  6  7  1  0
  6  5  1  0
  7  8  1  0
  8 10  1  0
  8  9  1  6
 10 12  1  0
 11 10  2  0
 12 13  1  0
 14 15  2  0
 14 13  1  0
 16 17  1  0
 17 19  1  0
 17 18  2  0
 19 20  1  0
 21 20  1  6
 21 23  1  0
 21 22  1  0
 22 14  1  0
 23 24  1  0
 25 23  2  0
M  END
$$$$
