RGQ.pdb
     RDKit          3D

 25 24  0  0  1  0  0  0  0  0999 V2000
    8.6545  -14.7963   15.9672 N   0  0  0  0  0  0  0  0  0  0  0  0
    7.7941  -13.6989   16.3378 C   0  0  0  0  0  0  0  0  0  0  0  0
    7.1607  -13.0494   15.4267 N   0  0  0  0  0  0  0  0  0  0  0  0
    7.6331  -13.3217   17.6889 N   0  0  0  0  0  0  0  0  0  0  0  0
    8.1633  -14.1291   18.7574 C   0  0  0  0  0  0  0  0  0  0  0  0
    7.7548  -13.4940   20.0431 C   0  0  0  0  0  0  0  0  0  0  0  0
    8.0271  -14.2674   21.2730 C   0  0  0  0  0  0  0  0  0  0  0  0
    9.3138  -15.0039   21.3529 C   0  0  2  0  0  0  0  0  0  0  0  0
    9.8926  -15.2889   20.0733 N   0  0  0  0  0  0  0  0  0  0  0  0
    9.0062  -16.3273   22.0090 C   0  0  0  0  0  0  0  0  0  0  0  0
    8.8616  -17.3523   21.2921 O   0  0  0  0  0  0  0  0  0  0  0  0
    6.4812  -12.3090   15.6404 N   0  0  0  0  0  0  0  0  0  0  0  0
    8.8758  -16.4484   23.4063 C   0  0  0  0  0  0  0  0  0  0  0  0
    8.6336  -17.7442   24.0550 C   0  0  0  0  0  0  0  0  0  0  0  0
    8.5081  -17.5464   25.5234 O   0  0  0  0  0  0  0  0  0  0  0  0
    8.6559  -16.4006   26.0093 N   0  0  0  0  0  0  0  0  0  0  0  0
    7.3018  -22.3207   29.0856 C   0  0  0  0  0  0  0  0  0  0  0  0
    6.4248  -21.7874   28.0895 O   0  0  0  0  0  0  0  0  0  0  0  0
    5.4786  -22.4789   27.5870 C   0  0  0  0  0  0  0  0  0  0  0  0
    6.6232  -20.3962   27.6426 C   0  0  0  0  0  0  0  0  0  0  0  0
    7.7038  -19.7225   28.3684 C   0  0  2  0  0  0  0  0  0  0  0  0
    8.1554  -18.3910   27.8362 N   0  0  0  0  0  0  0  0  0  0  0  0
    8.2246  -18.6450   26.3573 C   0  0  0  0  0  0  0  0  0  0  0  0
    9.4870  -17.9902   28.2992 O   0  0  0  0  0  0  0  0  0  0  0  0
   10.6345  -17.9882   27.5004 O   0  0  0  0  0  0  0  0  0  0  0  0
  1  2  1  0
  2  3  2  0
  4  5  1  0
  4  2  1  0
  6  7  1  0
  6  5  1  0
  7  8  1  0
  8 10  1  0
  8  9  1  6
 10 12  1  0
 11 10  2  0
 12 13  1  0
 14 15  2  0
 14 13  1  0
 16 17  1  0
 17 19  1  0
 17 18  2  0
 19 20  1  0
 21 20  1  6
 21 23  1  0
 21 22  1  0
 22 14  1  0
 23 24  1  0
 25 23  2  0
M  END
$$$$
