RGQ.pdb
     RDKit          3D

 25 24  0  0  1  0  0  0  0  0999 V2000
   10.3310  -12.9712   19.2773 N   0  0  0  0  0  0  0  0  0  0  0  0
    9.3027  -13.5920   18.4777 C   0  0  0  0  0  0  0  0  0  0  0  0
    8.3769  -12.8684   17.9558 N   0  0  0  0  0  0  0  0  0  0  0  0
    9.2927  -14.9864   18.2560 N   0  0  0  0  0  0  0  0  0  0  0  0
    8.0799  -15.7532   18.3804 C   0  0  0  0  0  0  0  0  0  0  0  0
    7.5719  -15.5650   19.7696 C   0  0  0  0  0  0  0  0  0  0  0  0
    7.7836  -16.6906   20.7041 C   0  0  0  0  0  0  0  0  0  0  0  0
    6.5983  -17.2196   21.4250 C   0  0  2  0  0  0  0  0  0  0  0  0
    5.5656  -16.2462   21.6237 N   0  0  0  0  0  0  0  0  0  0  0  0
    7.0840  -17.6409   22.7900 C   0  0  0  0  0  0  0  0  0  0  0  0
    7.6928  -18.7357   22.9172 O   0  0  0  0  0  0  0  0  0  0  0  0
    7.5997  -13.2642   17.4128 N   0  0  0  0  0  0  0  0  0  0  0  0
    6.8743  -16.8407   23.9300 C   0  0  0  0  0  0  0  0  0  0  0  0
    7.3404  -17.2483   25.2624 C   0  0  0  0  0  0  0  0  0  0  0  0
    7.1454  -16.1269   26.2191 O   0  0  0  0  0  0  0  0  0  0  0  0
    5.9862  -15.8110   26.5759 N   0  0  0  0  0  0  0  0  0  0  0  0
   10.7441  -16.0428   27.8637 C   0  0  0  0  0  0  0  0  0  0  0  0
   10.3672  -15.5082   29.1357 O   0  0  0  0  0  0  0  0  0  0  0  0
   10.6596  -16.0997   30.2269 C   0  0  0  0  0  0  0  0  0  0  0  0
    9.6268  -14.2337   29.1771 C   0  0  0  0  0  0  0  0  0  0  0  0
    9.3627  -13.6946   27.8399 C   0  0  2  0  0  0  0  0  0  0  0  0
    8.0350  -14.0307   27.2197 N   0  0  0  0  0  0  0  0  0  0  0  0
    8.2616  -15.4281   26.7175 C   0  0  0  0  0  0  0  0  0  0  0  0
    7.6836  -13.1806   26.0787 O   0  0  0  0  0  0  0  0  0  0  0  0
    7.0038  -11.9629   26.1796 O   0  0  0  0  0  0  0  0  0  0  0  0
  1  2  1  0
  2  3  2  0
  4  5  1  0
  4  2  1  0
  6  7  1  0
  6  5  1  0
  7  8  1  0
  8 10  1  0
  8  9  1  1
 10 12  1  0
 11 10  2  0
 12 13  1  0
 14 15  2  0
 14 13  1  0
 16 17  1  0
 17 19  1  0
 17 18  2  0
 19 20  1  0
 21 20  1  1
 21 23  1  0
 21 22  1  0
 22 14  1  0
 23 24  1  0
 25 23  2  0
M  END
$$$$
