RGQ.pdb
     RDKit          3D

 25 24  0  0  1  0  0  0  0  0999 V2000
    9.1291  -12.0085   19.5839 N   0  0  0  0  0  0  0  0  0  0  0  0
    8.1661  -12.9120   19.0022 C   0  0  0  0  0  0  0  0  0  0  0  0
    6.9725  -12.9642   19.4774 N   0  0  0  0  0  0  0  0  0  0  0  0
    8.5104  -13.7449   17.9153 N   0  0  0  0  0  0  0  0  0  0  0  0
    8.7112  -15.1599   18.0938 C   0  0  0  0  0  0  0  0  0  0  0  0
    9.4968  -15.3458   19.3474 C   0  0  0  0  0  0  0  0  0  0  0  0
    8.9177  -16.2582   20.3560 C   0  0  0  0  0  0  0  0  0  0  0  0
    9.1664  -17.7128   20.1926 C   0  0  2  0  0  0  0  0  0  0  0  0
    8.2926  -18.3420   19.2470 N   0  0  0  0  0  0  0  0  0  0  0  0
    8.8989  -18.3435   21.5368 C   0  0  0  0  0  0  0  0  0  0  0  0
    7.8740  -19.0590   21.6894 O   0  0  0  0  0  0  0  0  0  0  0  0
    6.2500  -13.5906   19.1019 N   0  0  0  0  0  0  0  0  0  0  0  0
    9.7668  -18.1535   22.6298 C   0  0  0  0  0  0  0  0  0  0  0  0
    9.5336  -18.7987   23.9290 C   0  0  0  0  0  0  0  0  0  0  0  0
   10.5347  -18.3069   24.9123 O   0  0  0  0  0  0  0  0  0  0  0  0
   11.7096  -18.0798   24.5398 N   0  0  0  0  0  0  0  0  0  0  0  0
    8.9953  -13.8738   29.9393 C   0  0  0  0  0  0  0  0  0  0  0  0
    9.3032  -14.0091   28.5491 O   0  0  0  0  0  0  0  0  0  0  0  0
    8.6575  -13.3726   27.6524 C   0  0  0  0  0  0  0  0  0  0  0  0
   10.4041  -14.9060   28.1515 C   0  0  0  0  0  0  0  0  0  0  0  0
    9.9282  -16.1008   27.4483 C   0  0  2  0  0  0  0  0  0  0  0  0
   10.9636  -17.1171   27.0541 N   0  0  0  0  0  0  0  0  0  0  0  0
   10.1577  -18.0997   26.2530 C   0  0  0  0  0  0  0  0  0  0  0  0
   11.5591  -17.8254   28.1906 O   0  0  0  0  0  0  0  0  0  0  0  0
   12.6534  -17.3607   28.9264 O   0  0  0  0  0  0  0  0  0  0  0  0
  1  2  1  0
  2  3  2  0
  4  5  1  0
  4  2  1  0
  6  7  1  0
  6  5  1  0
  7  8  1  0
  8 10  1  0
  8  9  1  6
 10 12  1  0
 11 10  2  0
 12 13  1  0
 14 15  2  0
 14 13  1  0
 16 17  1  0
 17 19  1  0
 17 18  2  0
 19 20  1  0
 21 20  1  6
 21 23  1  0
 21 22  1  0
 22 14  1  0
 23 24  1  0
 25 23  2  0
M  END
$$$$
