RGQ.pdb
     RDKit          3D

 25 24  0  0  1  0  0  0  0  0999 V2000
    8.5037  -13.0429   17.3395 N   0  0  0  0  0  0  0  0  0  0  0  0
    9.1145  -13.6606   18.4916 C   0  0  0  0  0  0  0  0  0  0  0  0
   10.3331  -14.0656   18.4270 N   0  0  0  0  0  0  0  0  0  0  0  0
    8.3965  -13.8304   19.6954 N   0  0  0  0  0  0  0  0  0  0  0  0
    6.9740  -13.6117   19.7531 C   0  0  0  0  0  0  0  0  0  0  0  0
    6.3354  -14.9116   20.1077 C   0  0  0  0  0  0  0  0  0  0  0  0
    6.8046  -15.5556   21.3527 C   0  0  0  0  0  0  0  0  0  0  0  0
    6.2365  -16.8832   21.6980 C   0  0  2  0  0  0  0  0  0  0  0  0
    4.8074  -16.8863   21.8033 N   0  0  0  0  0  0  0  0  0  0  0  0
    6.7856  -17.2401   23.0573 C   0  0  0  0  0  0  0  0  0  0  0  0
    6.2273  -16.7805   24.0881 O   0  0  0  0  0  0  0  0  0  0  0  0
   10.7885  -14.5858   19.1869 N   0  0  0  0  0  0  0  0  0  0  0  0
    7.9095  -18.0761   23.2056 C   0  0  0  0  0  0  0  0  0  0  0  0
    8.4620  -18.4087   24.5257 C   0  0  0  0  0  0  0  0  0  0  0  0
    9.4978  -17.4077   24.8948 O   0  0  0  0  0  0  0  0  0  0  0  0
    9.8453  -16.5390   24.0609 N   0  0  0  0  0  0  0  0  0  0  0  0
    9.6710  -13.5018   29.7801 C   0  0  0  0  0  0  0  0  0  0  0  0
    9.7961  -14.9238   29.6902 O   0  0  0  0  0  0  0  0  0  0  0  0
    9.9823  -15.6490   30.7224 C   0  0  0  0  0  0  0  0  0  0  0  0
    9.6984  -15.5610   28.3639 C   0  0  0  0  0  0  0  0  0  0  0  0
   10.9556  -16.1909   27.9502 C   0  0  2  0  0  0  0  0  0  0  0  0
   11.1470  -16.4275   26.4779 N   0  0  0  0  0  0  0  0  0  0  0  0
   10.0807  -17.4416   26.1761 C   0  0  0  0  0  0  0  0  0  0  0  0
   12.4482  -17.0095   26.1371 O   0  0  0  0  0  0  0  0  0  0  0  0
   13.6241  -16.2724   25.9676 O   0  0  0  0  0  0  0  0  0  0  0  0
  1  2  1  0
  2  3  2  0
  4  5  1  0
  4  2  1  0
  6  7  1  0
  6  5  1  0
  7  8  1  0
  8 10  1  0
  8  9  1  1
 10 12  1  0
 11 10  2  0
 12 13  1  0
 14 15  2  0
 14 13  1  0
 16 17  1  0
 17 19  1  0
 17 18  2  0
 19 20  1  0
 21 20  1  6
 21 23  1  0
 21 22  1  0
 22 14  1  0
 23 24  1  0
 25 23  2  0
M  END
$$$$
