NAR.pdb
     RDKit          3D

 25 24  0  0  1  0  0  0  0  0999 V2000
   22.9649  -14.4508  -18.4521 N   0  0  0  0  0  0  0  0  0  0  0  0
   23.1503  -15.6325  -19.2160 C   0  0  0  0  0  0  0  0  0  0  0  0
   22.6322  -15.8108  -20.3383 O   0  0  0  0  0  0  0  0  0  0  0  0
   23.9988  -16.7028  -18.6526 C   0  0  0  0  0  0  0  0  0  0  0  0
   24.2444  -16.3736  -17.1742 C   0  0  2  0  0  0  0  0  0  0  0  0
   25.0489  -15.1823  -17.1614 N   0  0  0  0  0  0  0  0  0  0  0  0
   24.9647  -17.5473  -16.6182 C   0  0  0  0  0  0  0  0  0  0  0  0
   24.3978  -18.6709  -16.6181 O   0  0  0  0  0  0  0  0  0  0  0  0
   28.2994  -18.3242  -14.9718 C   0  0  0  0  0  0  0  0  0  0  0  0
   26.8792  -18.6344  -15.4590 C   0  0  2  0  0  0  0  0  0  0  0  0
   26.2745  -17.4941  -16.0748 N   0  0  0  0  0  0  0  0  0  0  0  0
   26.1158  -18.9786  -14.2280 C   0  0  0  0  0  0  0  0  0  0  0  0
   25.6958  -18.0457  -13.4977 O   0  0  0  0  0  0  0  0  0  0  0  0
   18.4279  -22.2270  -12.8087 N   0  0  0  0  0  0  0  0  0  0  0  0
   18.9566  -21.9528  -11.5273 C   0  0  0  0  0  0  0  0  0  0  0  0
   18.1760  -21.9438  -10.4827 N   0  0  0  0  0  0  0  0  0  0  0  0
   20.3488  -21.6816  -11.3546 N   0  0  0  0  0  0  0  0  0  0  0  0
   21.2742  -21.5737  -12.4624 C   0  0  0  0  0  0  0  0  0  0  0  0
   22.6644  -21.2142  -12.0043 C   0  0  0  0  0  0  0  0  0  0  0  0
   23.5953  -20.9064  -13.1200 C   0  0  0  0  0  0  0  0  0  0  0  0
   25.0056  -20.5575  -12.6949 C   0  0  2  0  0  0  0  0  0  0  0  0
   25.8469  -20.3182  -13.8513 N   0  0  0  0  0  0  0  0  0  0  0  0
   25.6539  -21.6000  -11.8808 C   0  0  0  0  0  0  0  0  0  0  0  0
   25.3613  -21.7177  -10.5437 O   0  0  0  0  0  0  0  0  0  0  0  0
   26.4743  -22.3815  -12.4027 O   0  0  0  0  0  0  0  0  0  0  0  0
  1  2  1  0
  2  3  2  0
  4  5  1  0
  4  2  1  0
  5  6  1  6
  7  8  2  0
  7  5  1  0
 10  9  1  1
 10 11  1  0
 11  7  1  0
 12 22  1  0
 12 10  1  0
 13 12  2  0
 15 14  1  0
 16 15  2  0
 17 15  1  0
 18 17  1  0
 19 18  1  0
 20 19  1  0
 21 20  1  6
 21 22  1  0
 23 21  1  0
 24 23  1  0
 25 23  2  0
M  END
$$$$
