NAR.pdb
     RDKit          3D

 25 24  0  0  1  0  0  0  0  0999 V2000
   24.0880  -21.8762   -7.5740 N   0  0  0  0  0  0  0  0  0  0  0  0
   23.1908  -21.4499   -8.5878 C   0  0  0  0  0  0  0  0  0  0  0  0
   21.9488  -21.5018   -8.4691 O   0  0  0  0  0  0  0  0  0  0  0  0
   23.7580  -20.9190   -9.8446 C   0  0  0  0  0  0  0  0  0  0  0  0
   25.2832  -21.0665   -9.7670 C   0  0  2  0  0  0  0  0  0  0  0  0
   25.7025  -20.2682   -8.6474 N   0  0  0  0  0  0  0  0  0  0  0  0
   25.8010  -20.5452  -11.0576 C   0  0  0  0  0  0  0  0  0  0  0  0
   25.7225  -19.3121  -11.2964 O   0  0  0  0  0  0  0  0  0  0  0  0
   27.7925  -21.7635  -14.0319 C   0  0  0  0  0  0  0  0  0  0  0  0
   26.8564  -20.7973  -13.2966 C   0  0  2  0  0  0  0  0  0  0  0  0
   26.3908  -21.3533  -12.0640 N   0  0  0  0  0  0  0  0  0  0  0  0
   25.6961  -20.6137  -14.2111 C   0  0  0  0  0  0  0  0  0  0  0  0
   24.7426  -21.4303  -14.1478 O   0  0  0  0  0  0  0  0  0  0  0  0
   20.3010  -14.1063  -15.8629 N   0  0  0  0  0  0  0  0  0  0  0  0
   20.2160  -14.9251  -17.0115 C   0  0  0  0  0  0  0  0  0  0  0  0
   19.4849  -14.5583  -18.0270 N   0  0  0  0  0  0  0  0  0  0  0  0
   20.9260  -16.1632  -17.0797 N   0  0  0  0  0  0  0  0  0  0  0  0
   21.6765  -16.7038  -15.9663 C   0  0  0  0  0  0  0  0  0  0  0  0
   22.3962  -17.9758  -16.3347 C   0  0  0  0  0  0  0  0  0  0  0  0
   23.6376  -18.2029  -15.5513 C   0  0  0  0  0  0  0  0  0  0  0  0
   24.4361  -19.4214  -15.9624 C   0  0  2  0  0  0  0  0  0  0  0  0
   25.6290  -19.5530  -15.1488 N   0  0  0  0  0  0  0  0  0  0  0  0
   24.8592  -19.4040  -17.3733 C   0  0  0  0  0  0  0  0  0  0  0  0
   26.1318  -19.0119  -17.7109 O   0  0  0  0  0  0  0  0  0  0  0  0
   24.0617  -19.7449  -18.2700 O   0  0  0  0  0  0  0  0  0  0  0  0
  1  2  1  0
  2  3  2  0
  4  5  1  0
  4  2  1  0
  5  6  1  1
  7  8  2  0
  7  5  1  0
 10  9  1  6
 10 11  1  0
 11  7  1  0
 12 22  1  0
 12 10  1  0
 13 12  2  0
 15 14  1  0
 16 15  2  0
 17 15  1  0
 18 17  1  0
 19 18  1  0
 20 19  1  0
 21 20  1  1
 21 22  1  0
 23 21  1  0
 24 23  1  0
 25 23  2  0
M  END
$$$$
