NAR.pdb
     RDKit          3D

 25 24  0  0  1  0  0  0  0  0999 V2000
   31.6026  -22.9666  -10.6742 N   0  0  0  0  0  0  0  0  0  0  0  0
   31.5612  -21.6770  -10.0827 C   0  0  0  0  0  0  0  0  0  0  0  0
   32.4478  -21.2468   -9.3156 O   0  0  0  0  0  0  0  0  0  0  0  0
   30.4109  -20.8031  -10.3921 C   0  0  0  0  0  0  0  0  0  0  0  0
   29.4897  -21.5669  -11.3524 C   0  0  2  0  0  0  0  0  0  0  0  0
   30.3347  -22.0566  -12.4072 N   0  0  0  0  0  0  0  0  0  0  0  0
   28.5023  -20.5690  -11.8370 C   0  0  0  0  0  0  0  0  0  0  0  0
   27.6302  -20.1331  -11.0412 O   0  0  0  0  0  0  0  0  0  0  0  0
   27.7295  -18.5769  -14.9668 C   0  0  0  0  0  0  0  0  0  0  0  0
   27.3984  -19.2298  -13.6197 C   0  0  2  0  0  0  0  0  0  0  0  0
   28.4691  -20.0593  -13.1609 N   0  0  0  0  0  0  0  0  0  0  0  0
   26.2082  -20.0833  -13.8871 C   0  0  0  0  0  0  0  0  0  0  0  0
   26.3162  -21.3285  -13.7532 O   0  0  0  0  0  0  0  0  0  0  0  0
   19.2482  -21.2468  -10.8067 N   0  0  0  0  0  0  0  0  0  0  0  0
   20.0287  -22.0608   -9.9552 C   0  0  0  0  0  0  0  0  0  0  0  0
   19.4731  -23.0297   -9.2821 N   0  0  0  0  0  0  0  0  0  0  0  0
   21.4331  -21.8373   -9.8172 N   0  0  0  0  0  0  0  0  0  0  0  0
   22.1234  -20.7391  -10.4596 C   0  0  0  0  0  0  0  0  0  0  0  0
   22.4111  -21.0244  -11.9113 C   0  0  0  0  0  0  0  0  0  0  0  0
   23.6592  -20.3880  -12.4047 C   0  0  0  0  0  0  0  0  0  0  0  0
   23.7485  -20.2427  -13.9088 C   0  0  2  0  0  0  0  0  0  0  0  0
   24.9606  -19.5425  -14.2867 N   0  0  0  0  0  0  0  0  0  0  0  0
   22.6120  -19.5176  -14.5024 C   0  0  0  0  0  0  0  0  0  0  0  0
   21.5456  -20.2082  -15.0251 O   0  0  0  0  0  0  0  0  0  0  0  0
   22.6133  -18.2706  -14.5343 O   0  0  0  0  0  0  0  0  0  0  0  0
  1  2  1  0
  2  3  2  0
  4  5  1  0
  4  2  1  0
  5  6  1  6
  7  8  2  0
  7  5  1  0
 10  9  1  6
 10 11  1  0
 11  7  1  0
 12 22  1  0
 12 10  1  0
 13 12  2  0
 15 14  1  0
 16 15  2  0
 17 15  1  0
 18 17  1  0
 19 18  1  0
 20 19  1  0
 21 20  1  1
 21 22  1  0
 23 21  1  0
 24 23  1  0
 25 23  2  0
M  END
$$$$
