NAR.pdb
     RDKit          3D

 25 24  0  0  1  0  0  0  0  0999 V2000
   17.8795  -13.7351  -18.6397 N   0  0  0  0  0  0  0  0  0  0  0  0
   16.9194  -13.2578  -17.7098 C   0  0  0  0  0  0  0  0  0  0  0  0
   15.7104  -13.5678  -17.7538 O   0  0  0  0  0  0  0  0  0  0  0  0
   17.3764  -12.3494  -16.6379 C   0  0  0  0  0  0  0  0  0  0  0  0
   18.8955  -12.1871  -16.7801 C   0  0  2  0  0  0  0  0  0  0  0  0
   19.4764  -13.3679  -16.2013 N   0  0  0  0  0  0  0  0  0  0  0  0
   19.2386  -10.9582  -16.0201 C   0  0  0  0  0  0  0  0  0  0  0  0
   19.2840  -11.0072  -14.7634 O   0  0  0  0  0  0  0  0  0  0  0  0
   20.3454   -7.3966  -16.7009 C   0  0  0  0  0  0  0  0  0  0  0  0
   19.8136   -8.5446  -15.8350 C   0  0  2  0  0  0  0  0  0  0  0  0
   19.5255   -9.7046  -16.6200 N   0  0  0  0  0  0  0  0  0  0  0  0
   18.5443   -8.0308  -15.2507 C   0  0  0  0  0  0  0  0  0  0  0  0
   17.4731   -8.2084  -15.8840 O   0  0  0  0  0  0  0  0  0  0  0  0
   15.0688   -7.1109   -7.0289 N   0  0  0  0  0  0  0  0  0  0  0  0
   14.1083   -6.8061   -8.0195 C   0  0  0  0  0  0  0  0  0  0  0  0
   12.8402   -6.7737   -7.7171 N   0  0  0  0  0  0  0  0  0  0  0  0
   14.5077   -6.5297   -9.3633 N   0  0  0  0  0  0  0  0  0  0  0  0
   15.5992   -7.2185  -10.0186 C   0  0  0  0  0  0  0  0  0  0  0  0
   15.8035   -6.7370  -11.4322 C   0  0  0  0  0  0  0  0  0  0  0  0
   16.9772   -7.3514  -12.1040 C   0  0  0  0  0  0  0  0  0  0  0  0
   17.2202   -6.8773  -13.5209 C   0  0  2  0  0  0  0  0  0  0  0  0
   18.5014   -7.3496  -14.0086 N   0  0  0  0  0  0  0  0  0  0  0  0
   17.2014   -5.4116  -13.6666 C   0  0  0  0  0  0  0  0  0  0  0  0
   16.0071   -4.7393  -13.7607 O   0  0  0  0  0  0  0  0  0  0  0  0
   18.2723   -4.7729  -13.7065 O   0  0  0  0  0  0  0  0  0  0  0  0
  1  2  1  0
  2  3  2  0
  4  5  1  0
  4  2  1  0
  5  6  1  1
  7  8  2  0
  7  5  1  0
 10  9  1  6
 10 11  1  0
 11  7  1  0
 12 22  1  0
 12 10  1  0
 13 12  2  0
 15 14  1  0
 16 15  2  0
 17 15  1  0
 18 17  1  0
 19 18  1  0
 20 19  1  0
 21 20  1  1
 21 22  1  0
 23 21  1  0
 24 23  1  0
 25 23  2  0
M  END
$$$$
