NAR.pdb
     RDKit          3D

 25 24  0  0  1  0  0  0  0  0999 V2000
   15.5941  -14.9416  -15.4072 N   0  0  0  0  0  0  0  0  0  0  0  0
   16.8940  -15.1418  -14.8738 C   0  0  0  0  0  0  0  0  0  0  0  0
   17.2814  -16.2327  -14.4054 O   0  0  0  0  0  0  0  0  0  0  0  0
   17.8327  -14.0008  -14.8740 C   0  0  0  0  0  0  0  0  0  0  0  0
   17.0735  -12.7724  -15.3924 C   0  0  2  0  0  0  0  0  0  0  0  0
   17.0869  -12.8736  -16.8263 N   0  0  0  0  0  0  0  0  0  0  0  0
   17.8358  -11.5958  -14.9022 C   0  0  0  0  0  0  0  0  0  0  0  0
   17.9191  -11.3922  -13.6631 O   0  0  0  0  0  0  0  0  0  0  0  0
   20.0882   -8.8711  -16.2426 C   0  0  0  0  0  0  0  0  0  0  0  0
   19.1244   -9.4920  -15.2247 C   0  0  2  0  0  0  0  0  0  0  0  0
   18.4919  -10.6634  -15.7471 N   0  0  0  0  0  0  0  0  0  0  0  0
   18.0882   -8.4493  -14.9890 C   0  0  0  0  0  0  0  0  0  0  0  0
   17.0488   -8.4609  -15.6958 O   0  0  0  0  0  0  0  0  0  0  0  0
   15.1128   -7.2487   -7.5067 N   0  0  0  0  0  0  0  0  0  0  0  0
   14.4323   -8.0500   -8.4510 C   0  0  0  0  0  0  0  0  0  0  0  0
   13.5296   -8.9050   -8.0580 N   0  0  0  0  0  0  0  0  0  0  0  0
   14.7204   -7.9381   -9.8460 N   0  0  0  0  0  0  0  0  0  0  0  0
   15.5990   -6.9249  -10.3907 C   0  0  0  0  0  0  0  0  0  0  0  0
   15.8376   -7.1180  -11.8663 C   0  0  0  0  0  0  0  0  0  0  0  0
   16.8504   -6.1890  -12.4297 C   0  0  0  0  0  0  0  0  0  0  0  0
   17.2010   -6.4337  -13.8818 C   0  0  2  0  0  0  0  0  0  0  0  0
   18.2323   -7.4461  -13.9983 N   0  0  0  0  0  0  0  0  0  0  0  0
   17.6762   -5.2310  -14.5872 C   0  0  0  0  0  0  0  0  0  0  0  0
   16.7787   -4.3064  -15.0637 O   0  0  0  0  0  0  0  0  0  0  0  0
   18.8983   -5.0469  -14.7567 O   0  0  0  0  0  0  0  0  0  0  0  0
  1  2  1  0
  2  3  2  0
  4  5  1  0
  4  2  1  0
  5  6  1  6
  7  8  2  0
  7  5  1  0
 10  9  1  6
 10 11  1  0
 11  7  1  0
 12 22  1  0
 12 10  1  0
 13 12  2  0
 15 14  1  0
 16 15  2  0
 17 15  1  0
 18 17  1  0
 19 18  1  0
 20 19  1  0
 21 20  1  1
 21 22  1  0
 23 21  1  0
 24 23  1  0
 25 23  2  0
M  END
$$$$
