NAR.pdb
     RDKit          3D

 25 24  0  0  1  0  0  0  0  0999 V2000
   28.7391  -21.6302  -16.7629 N   0  0  0  0  0  0  0  0  0  0  0  0
   27.8144  -22.4065  -16.0168 C   0  0  0  0  0  0  0  0  0  0  0  0
   28.0160  -23.5988  -15.7050 O   0  0  0  0  0  0  0  0  0  0  0  0
   26.5517  -21.7692  -15.5897 C   0  0  0  0  0  0  0  0  0  0  0  0
   26.5872  -20.3070  -16.0531 C   0  0  2  0  0  0  0  0  0  0  0  0
   27.6226  -19.6721  -15.2840 N   0  0  0  0  0  0  0  0  0  0  0  0
   25.2409  -19.7589  -15.7485 C   0  0  0  0  0  0  0  0  0  0  0  0
   24.9153  -19.5645  -14.5485 O   0  0  0  0  0  0  0  0  0  0  0  0
   22.4114  -18.0612  -17.5480 C   0  0  0  0  0  0  0  0  0  0  0  0
   23.0101  -18.8581  -16.3831 C   0  0  2  0  0  0  0  0  0  0  0  0
   24.2729  -19.4309  -16.7329 N   0  0  0  0  0  0  0  0  0  0  0  0
   22.0376  -19.9559  -16.1268 C   0  0  0  0  0  0  0  0  0  0  0  0
   22.2806  -21.0981  -16.5920 O   0  0  0  0  0  0  0  0  0  0  0  0
   17.9335  -24.4980   -9.9605 N   0  0  0  0  0  0  0  0  0  0  0  0
   19.0583  -25.0250  -10.6343 C   0  0  0  0  0  0  0  0  0  0  0  0
   19.4513  -26.2463  -10.4007 N   0  0  0  0  0  0  0  0  0  0  0  0
   19.7812  -24.2328  -11.5784 N   0  0  0  0  0  0  0  0  0  0  0  0
   19.3274  -22.9343  -12.0292 C   0  0  0  0  0  0  0  0  0  0  0  0
   20.2213  -22.3640  -13.1003 C   0  0  0  0  0  0  0  0  0  0  0  0
   19.7280  -21.0811  -13.6633 C   0  0  0  0  0  0  0  0  0  0  0  0
   19.9818  -20.8960  -15.1441 C   0  0  2  0  0  0  0  0  0  0  0  0
   20.8501  -19.7587  -15.3788 N   0  0  0  0  0  0  0  0  0  0  0  0
   18.7557  -20.6904  -15.9341 C   0  0  0  0  0  0  0  0  0  0  0  0
   18.1195  -19.4729  -15.9231 O   0  0  0  0  0  0  0  0  0  0  0  0
   18.2878  -21.6234  -16.6173 O   0  0  0  0  0  0  0  0  0  0  0  0
  1  2  1  0
  2  3  2  0
  4  5  1  0
  4  2  1  0
  5  6  1  1
  7  8  2  0
  7  5  1  0
 10  9  1  6
 10 11  1  0
 11  7  1  0
 12 22  1  0
 12 10  1  0
 13 12  2  0
 15 14  1  0
 16 15  2  0
 17 15  1  0
 18 17  1  0
 19 18  1  0
 20 19  1  0
 21 20  1  1
 21 22  1  0
 23 21  1  0
 24 23  1  0
 25 23  2  0
M  END
$$$$
