GFL.pdb
     RDKit          3D

 24 24  0  0  1  0  0  0  0  0999 V2000
   28.0444  -19.7489  -15.1290 N   0  0  0  0  0  0  0  0  0  0  0  0
   27.7683  -20.7902  -14.1873 C   0  0  0  0  0  0  0  0  0  0  0  0
   27.0972  -20.2556  -12.9509 C   0  0  0  0  0  0  0  0  0  0  0  0
   27.0850  -19.0251  -12.7018 O   0  0  0  0  0  0  0  0  0  0  0  0
   26.4575  -21.1226  -12.0279 N   0  0  0  0  0  0  0  0  0  0  0  0
   25.6704  -20.7693  -10.9055 C   0  0  1  0  0  0  0  0  0  0  0  0
   24.2285  -21.2136  -11.0263 C   0  0  0  0  0  0  0  0  0  0  0  0
   23.5291  -20.6365  -12.2008 C   0  0  0  0  0  0  0  0  0  0  0  0
   23.5570  -21.3156  -13.4328 C   0  0  0  0  0  0  0  0  0  0  0  0
   22.9319  -20.7867  -14.5117 C   0  0  0  0  0  0  0  0  0  0  0  0
   22.2671  -19.6040  -14.4469 C   0  0  0  0  0  0  0  0  0  0  0  0
   22.2267  -18.9281  -13.2638 C   0  0  0  0  0  0  0  0  0  0  0  0
   22.8635  -19.4568  -12.1464 C   0  0  0  0  0  0  0  0  0  0  0  0
   26.2642  -21.0477   -9.6015 C   0  0  0  0  0  0  0  0  0  0  0  0
   26.5662  -22.2642   -9.3433 O   0  0  0  0  0  0  0  0  0  0  0  0
   28.4030  -18.1989   -4.5210 C   0  0  0  0  0  0  0  0  0  0  0  0
   28.3351  -19.5223   -5.2812 C   0  0  2  0  0  0  0  0  0  0  0  0
   29.5696  -20.3131   -5.0944 C   0  0  0  0  0  0  0  0  0  0  0  0
   27.8485  -19.3497   -6.6739 C   0  0  0  0  0  0  0  0  0  0  0  0
   27.0512  -20.4276   -7.2825 C   0  0  2  0  0  0  0  0  0  0  0  0
   26.5375  -20.1092   -8.5993 N   0  0  0  0  0  0  0  0  0  0  0  0
   26.0053  -21.0101   -6.4065 C   0  0  0  0  0  0  0  0  0  0  0  0
   24.6520  -20.7677   -6.5897 O   0  0  0  0  0  0  0  0  0  0  0  0
   26.3171  -21.7606   -5.4464 O   0  0  0  0  0  0  0  0  0  0  0  0
  2  1  1  0
  3  2  1  0
  4  3  2  0
  5  3  1  0
  6 14  1  0
  6  5  1  0
  6  7  1  6
  8  7  1  0
  9  8  2  0
 10  9  1  0
 11 10  2  0
 11 12  1  0
 12 13  2  0
 13  8  1  0
 14 15  2  0
 17 16  1  6
 17 19  1  0
 18 17  1  0
 20 19  1  1
 21 20  1  0
 21 14  1  0
 22 23  1  0
 22 20  1  0
 24 22  2  0
M  END
$$$$
