GFL.pdb
     RDKit          3D

 24 24  0  0  1  0  0  0  0  0999 V2000
   28.3032  -19.4206  -19.1702 N   0  0  0  0  0  0  0  0  0  0  0  0
   27.8974  -18.6083  -18.0644 C   0  0  0  0  0  0  0  0  0  0  0  0
   27.3079  -19.4368  -16.9549 C   0  0  0  0  0  0  0  0  0  0  0  0
   26.6172  -20.4551  -17.2046 O   0  0  0  0  0  0  0  0  0  0  0  0
   27.5126  -19.0952  -15.5933 N   0  0  0  0  0  0  0  0  0  0  0  0
   26.7990  -19.5621  -14.4632 C   0  0  1  0  0  0  0  0  0  0  0  0
   27.5550  -19.3789  -13.1648 C   0  0  0  0  0  0  0  0  0  0  0  0
   26.7986  -19.8331  -11.9719 C   0  0  0  0  0  0  0  0  0  0  0  0
   26.6947  -21.2084  -11.6933 C   0  0  0  0  0  0  0  0  0  0  0  0
   25.9940  -21.6294  -10.6133 C   0  0  0  0  0  0  0  0  0  0  0  0
   25.3771  -20.7573   -9.7744 C   0  0  0  0  0  0  0  0  0  0  0  0
   25.4638  -19.4201  -10.0244 C   0  0  0  0  0  0  0  0  0  0  0  0
   26.1791  -18.9709  -11.1290 C   0  0  0  0  0  0  0  0  0  0  0  0
   25.3971  -19.1626  -14.3888 C   0  0  0  0  0  0  0  0  0  0  0  0
   25.1432  -17.9086  -14.4201 O   0  0  0  0  0  0  0  0  0  0  0  0
   22.2027  -18.8720  -17.8456 C   0  0  0  0  0  0  0  0  0  0  0  0
   22.5377  -19.7444  -16.6370 C   0  0  2  0  0  0  0  0  0  0  0  0
   21.9458  -21.0923  -16.7671 C   0  0  0  0  0  0  0  0  0  0  0  0
   22.3225  -19.0341  -15.3504 C   0  0  0  0  0  0  0  0  0  0  0  0
   22.9216  -19.5921  -14.1265 C   0  0  2  0  0  0  0  0  0  0  0  0
   24.2963  -20.0212  -14.2860 N   0  0  0  0  0  0  0  0  0  0  0  0
   22.1003  -20.6132  -13.4312 C   0  0  0  0  0  0  0  0  0  0  0  0
   22.5829  -21.8733  -13.1100 O   0  0  0  0  0  0  0  0  0  0  0  0
   20.9119  -20.3655  -13.1018 O   0  0  0  0  0  0  0  0  0  0  0  0
  2  1  1  0
  3  2  1  0
  4  3  2  0
  5  3  1  0
  6 14  1  0
  6  5  1  0
  6  7  1  1
  8  7  1  0
  9  8  2  0
 10  9  1  0
 11 10  2  0
 11 12  1  0
 12 13  2  0
 13  8  1  0
 14 15  2  0
 17 16  1  6
 17 19  1  0
 18 17  1  0
 20 19  1  6
 21 20  1  0
 21 14  1  0
 22 23  1  0
 22 20  1  0
 24 22  2  0
M  END
$$$$
