GFL.pdb
     RDKit          3D

 24 24  0  0  1  0  0  0  0  0999 V2000
   22.9194  -36.2348   -8.0200 N   0  0  0  0  0  0  0  0  0  0  0  0
   22.8928  -35.4353   -6.8337 C   0  0  0  0  0  0  0  0  0  0  0  0
   24.2489  -35.3601   -6.1855 C   0  0  0  0  0  0  0  0  0  0  0  0
   25.2285  -35.9860   -6.6599 O   0  0  0  0  0  0  0  0  0  0  0  0
   24.4648  -34.5813   -5.0195 N   0  0  0  0  0  0  0  0  0  0  0  0
   25.6948  -34.2999   -4.3776 C   0  0  1  0  0  0  0  0  0  0  0  0
   26.1738  -32.8821   -4.6049 C   0  0  0  0  0  0  0  0  0  0  0  0
   26.2728  -32.5151   -6.0391 C   0  0  0  0  0  0  0  0  0  0  0  0
   27.4122  -32.8848   -6.7771 C   0  0  0  0  0  0  0  0  0  0  0  0
   27.5141  -32.5406   -8.0832 C   0  0  0  0  0  0  0  0  0  0  0  0
   26.5394  -31.8391   -8.7178 C   0  0  0  0  0  0  0  0  0  0  0  0
   25.4264  -31.4697   -8.0229 C   0  0  0  0  0  0  0  0  0  0  0  0
   25.3059  -31.8148   -6.6814 C   0  0  0  0  0  0  0  0  0  0  0  0
   25.8019  -34.7415   -2.9904 C   0  0  0  0  0  0  0  0  0  0  0  0
   24.9503  -34.2713   -2.1588 O   0  0  0  0  0  0  0  0  0  0  0  0
   25.1241  -38.4826   -0.8989 C   0  0  0  0  0  0  0  0  0  0  0  0
   26.5660  -38.4765   -1.4040 C   0  0  2  0  0  0  0  0  0  0  0  0
   27.1667  -39.8247   -1.3299 C   0  0  0  0  0  0  0  0  0  0  0  0
   27.3574  -37.3531   -0.8402 C   0  0  0  0  0  0  0  0  0  0  0  0
   26.8956  -35.9750   -1.0764 C   0  0  2  0  0  0  0  0  0  0  0  0
   26.7502  -35.6341   -2.4771 N   0  0  0  0  0  0  0  0  0  0  0  0
   27.6283  -34.9268   -0.3249 C   0  0  0  0  0  0  0  0  0  0  0  0
   28.0890  -33.7609   -0.9185 O   0  0  0  0  0  0  0  0  0  0  0  0
   27.8618  -35.0624    0.9036 O   0  0  0  0  0  0  0  0  0  0  0  0
  2  1  1  0
  3  2  1  0
  4  3  2  0
  5  3  1  0
  6 14  1  0
  6  5  1  0
  6  7  1  1
  8  7  1  0
  9  8  2  0
 10  9  1  0
 11 10  2  0
 11 12  1  0
 12 13  2  0
 13  8  1  0
 14 15  2  0
 17 16  1  1
 17 19  1  0
 18 17  1  0
 20 19  1  6
 21 20  1  0
 21 14  1  0
 22 23  1  0
 22 20  1  0
 24 22  2  0
M  END
$$$$
