GFL.pdb
     RDKit          3D

 24 24  0  0  1  0  0  0  0  0999 V2000
   23.4018  -20.8200  -14.2320 N   0  0  0  0  0  0  0  0  0  0  0  0
   24.8247  -20.6876  -14.1600 C   0  0  0  0  0  0  0  0  0  0  0  0
   25.3810  -21.3466  -12.9267 C   0  0  0  0  0  0  0  0  0  0  0  0
   25.5324  -22.5918  -12.8708 O   0  0  0  0  0  0  0  0  0  0  0  0
   25.7520  -20.5845  -11.7892 N   0  0  0  0  0  0  0  0  0  0  0  0
   26.8641  -20.7818  -10.9356 C   0  0  1  0  0  0  0  0  0  0  0  0
   28.1585  -21.0070  -11.6873 C   0  0  0  0  0  0  0  0  0  0  0  0
   29.2781  -21.4444  -10.8175 C   0  0  0  0  0  0  0  0  0  0  0  0
   30.4883  -20.7269  -10.8240 C   0  0  0  0  0  0  0  0  0  0  0  0
   31.5185  -21.1296  -10.0422 C   0  0  0  0  0  0  0  0  0  0  0  0
   31.4244  -22.2200   -9.2378 C   0  0  0  0  0  0  0  0  0  0  0  0
   30.2616  -22.9310   -9.2151 C   0  0  0  0  0  0  0  0  0  0  0  0
   29.1943  -22.5314  -10.0117 C   0  0  0  0  0  0  0  0  0  0  0  0
   26.9852  -19.8432   -9.8243 C   0  0  0  0  0  0  0  0  0  0  0  0
   27.7496  -18.8308   -9.9935 O   0  0  0  0  0  0  0  0  0  0  0  0
   27.2383  -20.2158   -4.4010 C   0  0  0  0  0  0  0  0  0  0  0  0
   28.4027  -20.1079   -5.3841 C   0  0  2  0  0  0  0  0  0  0  0  0
   29.5211  -19.3317   -4.8088 C   0  0  0  0  0  0  0  0  0  0  0  0
   27.9557  -19.7358   -6.7508 C   0  0  0  0  0  0  0  0  0  0  0  0
   26.9155  -20.5507   -7.4003 C   0  0  2  0  0  0  0  0  0  0  0  0
   26.3434  -19.9420   -8.5841 N   0  0  0  0  0  0  0  0  0  0  0  0
   25.8704  -21.0812   -6.4909 C   0  0  0  0  0  0  0  0  0  0  0  0
   26.0993  -22.1342   -5.6175 O   0  0  0  0  0  0  0  0  0  0  0  0
   24.7155  -20.5830   -6.4804 O   0  0  0  0  0  0  0  0  0  0  0  0
  2  1  1  0
  3  2  1  0
  4  3  2  0
  5  3  1  0
  6 14  1  0
  6  5  1  0
  6  7  1  6
  8  7  1  0
  9  8  2  0
 10  9  1  0
 11 10  2  0
 11 12  1  0
 12 13  2  0
 13  8  1  0
 14 15  2  0
 17 16  1  1
 17 19  1  0
 18 17  1  0
 20 19  1  1
 21 20  1  0
 21 14  1  0
 22 23  1  0
 22 20  1  0
 24 22  2  0
M  END
$$$$
