GFL.pdb
     RDKit          3D

 24 24  0  0  1  0  0  0  0  0999 V2000
   18.2831  -11.1478    7.9046 N   0  0  0  0  0  0  0  0  0  0  0  0
   19.1167  -12.2981    7.7336 C   0  0  0  0  0  0  0  0  0  0  0  0
   18.3092  -13.5229    7.3979 C   0  0  0  0  0  0  0  0  0  0  0  0
   17.0577  -13.5207    7.4992 O   0  0  0  0  0  0  0  0  0  0  0  0
   18.9340  -14.7177    6.9568 N   0  0  0  0  0  0  0  0  0  0  0  0
   18.3143  -15.9258    6.5559 C   0  0  1  0  0  0  0  0  0  0  0  0
   18.4941  -16.2266    5.0834 C   0  0  0  0  0  0  0  0  0  0  0  0
   17.8387  -15.2362    4.1940 C   0  0  0  0  0  0  0  0  0  0  0  0
   18.5692  -14.1295    3.7238 C   0  0  0  0  0  0  0  0  0  0  0  0
   17.9722  -13.2149    2.9227 C   0  0  0  0  0  0  0  0  0  0  0  0
   16.6711  -13.3290    2.5499 C   0  0  0  0  0  0  0  0  0  0  0  0
   15.9434  -14.3929    2.9934 C   0  0  0  0  0  0  0  0  0  0  0  0
   16.5408  -15.3409    3.8167 C   0  0  0  0  0  0  0  0  0  0  0  0
   18.5466  -17.0763    7.4237 C   0  0  0  0  0  0  0  0  0  0  0  0
   19.7631  -17.4057    7.6462 O   0  0  0  0  0  0  0  0  0  0  0  0
   18.5306  -17.7097   11.8714 C   0  0  0  0  0  0  0  0  0  0  0  0
   17.2538  -17.7025   11.0326 C   0  0  2  0  0  0  0  0  0  0  0  0
   16.0820  -17.3064   11.8414 C   0  0  0  0  0  0  0  0  0  0  0  0
   17.1173  -18.9255   10.2007 C   0  0  0  0  0  0  0  0  0  0  0  0
   17.8272  -18.9864    8.9122 C   0  0  2  0  0  0  0  0  0  0  0  0
   17.5638  -17.8595    8.0403 N   0  0  0  0  0  0  0  0  0  0  0  0
   17.7195  -20.2794    8.1932 C   0  0  0  0  0  0  0  0  0  0  0  0
   18.0276  -21.4954    8.7851 O   0  0  0  0  0  0  0  0  0  0  0  0
   17.3366  -20.3180    6.9956 O   0  0  0  0  0  0  0  0  0  0  0  0
  2  1  1  0
  3  2  1  0
  4  3  2  0
  5  3  1  0
  6 14  1  0
  6  5  1  0
  6  7  1  6
  8  7  1  0
  9  8  2  0
 10  9  1  0
 11 10  2  0
 11 12  1  0
 12 13  2  0
 13  8  1  0
 14 15  2  0
 17 16  1  1
 17 19  1  0
 18 17  1  0
 20 19  1  1
 21 20  1  0
 21 14  1  0
 22 23  1  0
 22 20  1  0
 24 22  2  0
M  END
$$$$
