GFL.pdb
     RDKit          3D

 24 24  0  0  1  0  0  0  0  0999 V2000
   28.7848  -21.8153  -16.5913 N   0  0  0  0  0  0  0  0  0  0  0  0
   28.0512  -20.7365  -16.0036 C   0  0  0  0  0  0  0  0  0  0  0  0
   27.1709  -21.2123  -14.8795 C   0  0  0  0  0  0  0  0  0  0  0  0
   26.7296  -22.3875  -14.8562 O   0  0  0  0  0  0  0  0  0  0  0  0
   26.8114  -20.3505  -13.8115 N   0  0  0  0  0  0  0  0  0  0  0  0
   25.9737  -20.6379  -12.7070 C   0  0  1  0  0  0  0  0  0  0  0  0
   26.5538  -20.1814  -11.3856 C   0  0  0  0  0  0  0  0  0  0  0  0
   27.9466  -20.6414  -11.1617 C   0  0  0  0  0  0  0  0  0  0  0  0
   28.2103  -21.6183  -10.1841 C   0  0  0  0  0  0  0  0  0  0  0  0
   29.4815  -22.0321   -9.9660 C   0  0  0  0  0  0  0  0  0  0  0  0
   30.5295  -21.5297  -10.6690 C   0  0  0  0  0  0  0  0  0  0  0  0
   30.2982  -20.5821  -11.6211 C   0  0  0  0  0  0  0  0  0  0  0  0
   28.9993  -20.1460  -11.8576 C   0  0  0  0  0  0  0  0  0  0  0  0
   24.5631  -20.3032  -12.8769 C   0  0  0  0  0  0  0  0  0  0  0  0
   24.2786  -19.0848  -13.1459 O   0  0  0  0  0  0  0  0  0  0  0  0
   21.5606  -19.4100  -15.8352 C   0  0  0  0  0  0  0  0  0  0  0  0
   22.1642  -20.8116  -15.7617 C   0  0  2  0  0  0  0  0  0  0  0  0
   21.9789  -21.5434  -17.0323 C   0  0  0  0  0  0  0  0  0  0  0  0
   21.7906  -21.5230  -14.5125 C   0  0  0  0  0  0  0  0  0  0  0  0
   22.1345  -20.9083  -13.2195 C   0  0  2  0  0  0  0  0  0  0  0  0
   23.4842  -21.1893  -12.7738 N   0  0  0  0  0  0  0  0  0  0  0  0
   21.1403  -21.1155  -12.1383 C   0  0  0  0  0  0  0  0  0  0  0  0
   20.0045  -20.3310  -12.0024 O   0  0  0  0  0  0  0  0  0  0  0  0
   21.2969  -22.0301  -11.2890 O   0  0  0  0  0  0  0  0  0  0  0  0
  2  1  1  0
  3  2  1  0
  4  3  2  0
  5  3  1  0
  6 14  1  0
  6  5  1  0
  6  7  1  1
  8  7  1  0
  9  8  2  0
 10  9  1  0
 11 10  2  0
 11 12  1  0
 12 13  2  0
 13  8  1  0
 14 15  2  0
 17 16  1  6
 17 19  1  0
 18 17  1  0
 20 19  1  6
 21 20  1  0
 21 14  1  0
 22 23  1  0
 22 20  1  0
 24 22  2  0
M  END
$$$$
