GFL.pdb
     RDKit          3D

 24 24  0  0  1  0  0  0  0  0999 V2000
   27.5030   -6.7063  -23.0397 N   0  0  0  0  0  0  0  0  0  0  0  0
   27.7868   -6.8982  -21.6505 C   0  0  0  0  0  0  0  0  0  0  0  0
   28.5446   -5.7331  -21.0735 C   0  0  0  0  0  0  0  0  0  0  0  0
   29.2003   -4.9579  -21.8122 O   0  0  0  0  0  0  0  0  0  0  0  0
   28.5433   -5.4727  -19.6789 N   0  0  0  0  0  0  0  0  0  0  0  0
   29.1785   -4.4099  -18.9925 C   0  0  1  0  0  0  0  0  0  0  0  0
   28.3714   -3.8910  -17.8219 C   0  0  0  0  0  0  0  0  0  0  0  0
   27.1644   -3.1296  -18.2281 C   0  0  0  0  0  0  0  0  0  0  0  0
   26.2381   -2.7176  -17.2525 C   0  0  0  0  0  0  0  0  0  0  0  0
   25.1276   -2.0341  -17.6190 C   0  0  0  0  0  0  0  0  0  0  0  0
   24.8710   -1.7262  -18.9168 C   0  0  0  0  0  0  0  0  0  0  0  0
   25.7542   -2.1152  -19.8795 C   0  0  0  0  0  0  0  0  0  0  0  0
   26.8991   -2.8178  -19.5205 C   0  0  0  0  0  0  0  0  0  0  0  0
   30.5932   -4.6056  -18.6907 C   0  0  0  0  0  0  0  0  0  0  0  0
   31.2239   -3.6185  -18.1751 O   0  0  0  0  0  0  0  0  0  0  0  0
   32.8605   -6.6584  -15.5834 C   0  0  0  0  0  0  0  0  0  0  0  0
   32.4612   -7.6155  -16.7054 C   0  0  2  0  0  0  0  0  0  0  0  0
   32.5904   -9.0250  -16.2803 C   0  0  0  0  0  0  0  0  0  0  0  0
   33.0711   -7.2449  -18.0080 C   0  0  0  0  0  0  0  0  0  0  0  0
   32.7375   -5.9377  -18.5979 C   0  0  2  0  0  0  0  0  0  0  0  0
   31.3324   -5.7737  -18.9111 N   0  0  0  0  0  0  0  0  0  0  0  0
   33.6081   -5.5118  -19.7210 C   0  0  0  0  0  0  0  0  0  0  0  0
   34.8988   -5.0400  -19.5331 O   0  0  0  0  0  0  0  0  0  0  0  0
   33.1963   -5.5654  -20.9083 O   0  0  0  0  0  0  0  0  0  0  0  0
  2  1  1  0
  3  2  1  0
  4  3  2  0
  5  3  1  0
  6 14  1  0
  6  5  1  0
  6  7  1  1
  8  7  1  0
  9  8  2  0
 10  9  1  0
 11 10  2  0
 11 12  1  0
 12 13  2  0
 13  8  1  0
 14 15  2  0
 17 16  1  1
 17 19  1  0
 18 17  1  0
 20 19  1  6
 21 20  1  0
 21 14  1  0
 22 23  1  0
 22 20  1  0
 24 22  2  0
M  END
$$$$
