MGV.pdb
     RDKit          3D

 20 19  0  0  1  0  0  0  0  0999 V2000
   25.8951  -19.1283   -7.9354 C   0  0  0  0  0  0  0  0  0  0  0  0
   26.8806  -20.5881   -8.3094 S   0  0  0  0  0  0  0  0  0  0  0  0
   26.2321  -21.3858   -9.7801 C   0  0  0  0  0  0  0  0  0  0  0  0
   26.0709  -20.4491  -10.9386 C   0  0  0  0  0  0  0  0  0  0  0  0
   25.3186  -21.1124  -12.0834 C   0  0  2  0  0  0  0  0  0  0  0  0
   25.9869  -22.3322  -12.4155 N   0  0  0  0  0  0  0  0  0  0  0  0
   25.3437  -20.1812  -13.2483 C   0  0  0  0  0  0  0  0  0  0  0  0
   26.2029  -20.3624  -14.1544 O   0  0  0  0  0  0  0  0  0  0  0  0
   24.4276  -19.1006  -13.3610 N   0  0  0  0  0  0  0  0  0  0  0  0
   23.8818  -18.6961  -14.6070 C   0  0  0  0  0  0  0  0  0  0  0  0
   22.8597  -19.5755  -15.1867 C   0  0  0  0  0  0  0  0  0  0  0  0
   22.8881  -19.7601  -16.4359 O   0  0  0  0  0  0  0  0  0  0  0  0
   21.3189  -22.8664  -13.3958 C   0  0  0  0  0  0  0  0  0  0  0  0
   21.3391  -22.6278  -14.8875 C   0  0  1  0  0  0  0  0  0  0  0  0
   20.3841  -23.6151  -15.5279 C   0  0  0  0  0  0  0  0  0  0  0  0
   20.9440  -21.2083  -15.1292 C   0  0  2  0  0  0  0  0  0  0  0  0
   21.8325  -20.2489  -14.5107 N   0  0  0  0  0  0  0  0  0  0  0  0
   19.5732  -21.0007  -14.6137 C   0  0  0  0  0  0  0  0  0  0  0  0
   18.4417  -21.3370  -15.3392 O   0  0  0  0  0  0  0  0  0  0  0  0
   19.4627  -20.4857  -13.4452 O   0  0  0  0  0  0  0  0  0  0  0  0
  1  2  1  0
  3  4  1  0
  3  2  1  0
  4  5  1  0
  5  7  1  0
  5  6  1  6
  7  8  2  0
  9 10  1  0
  9  7  1  0
 11 10  1  0
 11 17  1  0
 12 11  2  0
 14 13  1  1
 14 15  1  0
 14 16  1  0
 16 17  1  1
 16 18  1  0
 18 20  2  0
 18 19  1  0
M  END
$$$$
