MGV.pdb
     RDKit          3D

 20 19  0  0  1  0  0  0  0  0999 V2000
   28.0814  -19.9718   -7.9075 C   0  0  0  0  0  0  0  0  0  0  0  0
   26.4583  -19.2700   -7.5683 S   0  0  0  0  0  0  0  0  0  0  0  0
   25.1995  -20.5211   -7.8327 C   0  0  0  0  0  0  0  0  0  0  0  0
   24.9167  -20.7785   -9.2817 C   0  0  0  0  0  0  0  0  0  0  0  0
   23.5010  -20.3586   -9.6502 C   0  0  2  0  0  0  0  0  0  0  0  0
   22.5835  -21.2085   -8.9570 N   0  0  0  0  0  0  0  0  0  0  0  0
   23.3422  -20.5272  -11.1236 C   0  0  0  0  0  0  0  0  0  0  0  0
   23.1025  -21.6780  -11.5826 O   0  0  0  0  0  0  0  0  0  0  0  0
   23.4538  -19.4284  -12.0179 N   0  0  0  0  0  0  0  0  0  0  0  0
   23.3943  -19.5883  -13.4267 C   0  0  0  0  0  0  0  0  0  0  0  0
   24.6810  -19.6567  -14.1295 C   0  0  0  0  0  0  0  0  0  0  0  0
   24.6712  -19.5007  -15.3829 O   0  0  0  0  0  0  0  0  0  0  0  0
   28.5412  -20.5206  -12.4257 C   0  0  0  0  0  0  0  0  0  0  0  0
   28.3590  -19.4224  -13.4470 C   0  0  1  0  0  0  0  0  0  0  0  0
   29.6462  -19.3072  -14.2386 C   0  0  0  0  0  0  0  0  0  0  0  0
   27.1896  -19.7829  -14.3027 C   0  0  2  0  0  0  0  0  0  0  0  0
   25.9466  -19.8806  -13.5695 N   0  0  0  0  0  0  0  0  0  0  0  0
   27.4642  -21.0769  -14.9646 C   0  0  0  0  0  0  0  0  0  0  0  0
   26.9322  -22.2749  -14.5158 O   0  0  0  0  0  0  0  0  0  0  0  0
   28.2302  -21.0540  -15.9919 O   0  0  0  0  0  0  0  0  0  0  0  0
  1  2  1  0
  3  4  1  0
  3  2  1  0
  4  5  1  0
  5  7  1  0
  5  6  1  1
  7  8  2  0
  9 10  1  0
  9  7  1  0
 11 10  1  0
 11 17  1  0
 12 11  2  0
 14 13  1  1
 14 15  1  0
 14 16  1  0
 16 17  1  1
 16 18  1  0
 18 20  2  0
 18 19  1  0
M  END
$$$$
