MGV.pdb
     RDKit          3D

 20 19  0  0  1  0  0  0  0  0999 V2000
   21.5414  -21.4870   -9.9369 C   0  0  0  0  0  0  0  0  0  0  0  0
   22.3273  -21.6402   -8.3241 S   0  0  0  0  0  0  0  0  0  0  0  0
   24.1042  -21.4700   -8.5071 C   0  0  0  0  0  0  0  0  0  0  0  0
   24.5221  -21.0903   -9.8952 C   0  0  0  0  0  0  0  0  0  0  0  0
   26.0306  -20.9107   -9.9871 C   0  0  2  0  0  0  0  0  0  0  0  0
   26.4209  -19.8928   -9.0617 N   0  0  0  0  0  0  0  0  0  0  0  0
   26.3576  -20.4892  -11.3800 C   0  0  0  0  0  0  0  0  0  0  0  0
   26.1695  -19.2865  -11.7123 O   0  0  0  0  0  0  0  0  0  0  0  0
   26.8732  -21.4052  -12.3364 N   0  0  0  0  0  0  0  0  0  0  0  0
   26.0666  -21.9669  -13.3599 C   0  0  0  0  0  0  0  0  0  0  0  0
   25.3589  -21.0170  -14.2267 C   0  0  0  0  0  0  0  0  0  0  0  0
   25.9889  -19.9892  -14.6040 O   0  0  0  0  0  0  0  0  0  0  0  0
   24.7989  -20.6168  -17.5103 C   0  0  0  0  0  0  0  0  0  0  0  0
   23.3775  -20.5697  -17.0006 C   0  0  1  0  0  0  0  0  0  0  0  0
   22.7752  -21.9490  -17.1785 C   0  0  0  0  0  0  0  0  0  0  0  0
   23.4182  -20.1416  -15.5706 C   0  0  2  0  0  0  0  0  0  0  0  0
   24.0412  -21.1107  -14.6960 N   0  0  0  0  0  0  0  0  0  0  0  0
   22.0356  -19.8910  -15.1085 C   0  0  0  0  0  0  0  0  0  0  0  0
   21.3858  -18.6842  -15.3113 O   0  0  0  0  0  0  0  0  0  0  0  0
   21.4433  -20.8498  -14.4982 O   0  0  0  0  0  0  0  0  0  0  0  0
  1  2  1  0
  3  4  1  0
  3  2  1  0
  4  5  1  0
  5  7  1  0
  5  6  1  1
  7  8  2  0
  9 10  1  0
  9  7  1  0
 11 10  1  0
 11 17  1  0
 12 11  2  0
 14 13  1  1
 14 15  1  0
 14 16  1  0
 16 17  1  1
 16 18  1  0
 18 20  2  0
 18 19  1  0
M  END
$$$$
