MGV.pdb
     RDKit          3D

 20 19  0  0  1  0  0  0  0  0999 V2000
   26.3895  -24.3427  -18.0269 C   0  0  0  0  0  0  0  0  0  0  0  0
   27.4177  -24.6748  -16.5866 S   0  0  0  0  0  0  0  0  0  0  0  0
   27.5593  -23.1844  -15.5973 C   0  0  0  0  0  0  0  0  0  0  0  0
   26.3596  -22.9302  -14.7360 C   0  0  0  0  0  0  0  0  0  0  0  0
   25.3943  -21.9634  -15.4067 C   0  0  2  0  0  0  0  0  0  0  0  0
   26.0087  -20.6730  -15.4544 N   0  0  0  0  0  0  0  0  0  0  0  0
   24.1530  -21.9094  -14.5815 C   0  0  0  0  0  0  0  0  0  0  0  0
   23.4326  -22.9418  -14.4968 O   0  0  0  0  0  0  0  0  0  0  0  0
   23.7647  -20.7288  -13.8920 N   0  0  0  0  0  0  0  0  0  0  0  0
   22.5483  -20.6397  -13.1667 C   0  0  0  0  0  0  0  0  0  0  0  0
   21.3149  -20.8439  -13.9357 C   0  0  0  0  0  0  0  0  0  0  0  0
   21.1360  -20.1209  -14.9559 O   0  0  0  0  0  0  0  0  0  0  0  0
   17.6897  -23.5050  -15.7357 C   0  0  0  0  0  0  0  0  0  0  0  0
   18.9269  -23.4183  -14.8729 C   0  0  1  0  0  0  0  0  0  0  0  0
   20.0789  -24.0198  -15.6526 C   0  0  0  0  0  0  0  0  0  0  0  0
   19.1503  -21.9807  -14.5368 C   0  0  2  0  0  0  0  0  0  0  0  0
   20.2879  -21.7608  -13.6710 N   0  0  0  0  0  0  0  0  0  0  0  0
   17.9346  -21.4495  -13.8829 C   0  0  0  0  0  0  0  0  0  0  0  0
   16.9332  -20.7957  -14.5826 O   0  0  0  0  0  0  0  0  0  0  0  0
   17.8349  -21.6167  -12.6161 O   0  0  0  0  0  0  0  0  0  0  0  0
  1  2  1  0
  3  4  1  0
  3  2  1  0
  4  5  1  0
  5  7  1  0
  5  6  1  1
  7  8  2  0
  9 10  1  0
  9  7  1  0
 11 10  1  0
 11 17  1  0
 12 11  2  0
 14 13  1  6
 14 15  1  0
 14 16  1  0
 16 17  1  1
 16 18  1  0
 18 20  2  0
 18 19  1  0
M  END
$$$$
