MGV.pdb
     RDKit          3D

 20 19  0  0  1  0  0  0  0  0999 V2000
   25.3183  -20.1026   -9.0410 C   0  0  0  0  0  0  0  0  0  0  0  0
   26.7127  -20.1499  -10.1792 S   0  0  0  0  0  0  0  0  0  0  0  0
   26.2740  -21.1241  -11.6209 C   0  0  0  0  0  0  0  0  0  0  0  0
   24.7962  -21.3181  -11.7761 C   0  0  0  0  0  0  0  0  0  0  0  0
   24.4807  -22.2317  -12.9518 C   0  0  2  0  0  0  0  0  0  0  0  0
   25.6793  -22.4251  -13.7072 N   0  0  0  0  0  0  0  0  0  0  0  0
   23.4491  -21.5573  -13.7919 C   0  0  0  0  0  0  0  0  0  0  0  0
   22.3164  -21.3178  -13.2900 O   0  0  0  0  0  0  0  0  0  0  0  0
   23.7105  -21.1802  -15.1369 N   0  0  0  0  0  0  0  0  0  0  0  0
   22.7566  -20.4915  -15.9303 C   0  0  0  0  0  0  0  0  0  0  0  0
   22.9550  -19.0448  -16.0783 C   0  0  0  0  0  0  0  0  0  0  0  0
   23.5446  -18.4371  -15.1410 O   0  0  0  0  0  0  0  0  0  0  0  0
   24.1144  -15.0991  -18.4940 C   0  0  0  0  0  0  0  0  0  0  0  0
   23.8890  -16.5905  -18.4072 C   0  0  1  0  0  0  0  0  0  0  0  0
   25.2326  -17.2494  -18.1678 C   0  0  0  0  0  0  0  0  0  0  0  0
   22.9206  -16.8431  -17.2990 C   0  0  2  0  0  0  0  0  0  0  0  0
   22.5608  -18.2365  -17.1538 N   0  0  0  0  0  0  0  0  0  0  0  0
   21.6965  -16.0503  -17.5457 C   0  0  0  0  0  0  0  0  0  0  0  0
   21.4508  -14.8385  -16.9205 O   0  0  0  0  0  0  0  0  0  0  0  0
   20.8483  -16.5329  -18.3766 O   0  0  0  0  0  0  0  0  0  0  0  0
  1  2  1  0
  3  4  1  0
  3  2  1  0
  4  5  1  0
  5  7  1  0
  5  6  1  6
  7  8  2  0
  9 10  1  0
  9  7  1  0
 11 10  1  0
 11 17  1  0
 12 11  2  0
 14 13  1  1
 14 15  1  0
 14 16  1  0
 16 17  1  6
 16 18  1  0
 18 20  2  0
 18 19  1  0
M  END
$$$$
