MGV.pdb
     RDKit          3D

 20 19  0  0  1  0  0  0  0  0999 V2000
   27.7117  -20.3906   -4.5080 C   0  0  0  0  0  0  0  0  0  0  0  0
   28.2823  -19.2671   -5.7943 S   0  0  0  0  0  0  0  0  0  0  0  0
   28.7561  -20.2111   -7.2448 C   0  0  0  0  0  0  0  0  0  0  0  0
   27.6480  -21.0645   -7.7829 C   0  0  0  0  0  0  0  0  0  0  0  0
   26.5452  -20.2137   -8.3963 C   0  0  2  0  0  0  0  0  0  0  0  0
   25.4295  -20.2080   -7.5018 N   0  0  0  0  0  0  0  0  0  0  0  0
   26.1567  -20.8347   -9.6955 C   0  0  0  0  0  0  0  0  0  0  0  0
   25.2969  -21.7583   -9.6962 O   0  0  0  0  0  0  0  0  0  0  0  0
   26.7290  -20.4130  -10.9261 N   0  0  0  0  0  0  0  0  0  0  0  0
   26.4027  -21.0261  -12.1636 C   0  0  0  0  0  0  0  0  0  0  0  0
   25.1766  -20.5569  -12.8198 C   0  0  0  0  0  0  0  0  0  0  0  0
   25.0684  -19.3175  -13.0382 O   0  0  0  0  0  0  0  0  0  0  0  0
   21.5729  -20.8055  -15.9735 C   0  0  0  0  0  0  0  0  0  0  0  0
   22.7557  -21.4657  -15.3044 C   0  0  1  0  0  0  0  0  0  0  0  0
   23.9540  -21.3064  -16.2185 C   0  0  0  0  0  0  0  0  0  0  0  0
   22.9552  -20.8105  -13.9776 C   0  0  2  0  0  0  0  0  0  0  0  0
   24.0863  -21.3310  -13.2415 N   0  0  0  0  0  0  0  0  0  0  0  0
   21.7291  -20.9872  -13.1694 C   0  0  0  0  0  0  0  0  0  0  0  0
   20.8607  -19.9446  -12.8888 O   0  0  0  0  0  0  0  0  0  0  0  0
   21.4900  -22.1653  -12.7248 O   0  0  0  0  0  0  0  0  0  0  0  0
  1  2  1  0
  3  4  1  0
  3  2  1  0
  4  5  1  0
  5  7  1  0
  5  6  1  1
  7  8  2  0
  9 10  1  0
  9  7  1  0
 11 10  1  0
 11 17  1  0
 12 11  2  0
 14 13  1  6
 14 15  1  0
 14 16  1  0
 16 17  1  1
 16 18  1  0
 18 20  2  0
 18 19  1  0
M  END
$$$$
