MGV.pdb
     RDKit          3D

 20 19  0  0  1  0  0  0  0  0999 V2000
   20.0156  -17.6144  -14.7385 C   0  0  0  0  0  0  0  0  0  0  0  0
   18.4127  -17.6153  -15.5588 S   0  0  0  0  0  0  0  0  0  0  0  0
   18.5297  -16.7030  -17.0995 C   0  0  0  0  0  0  0  0  0  0  0  0
   19.4782  -15.5448  -17.0304 C   0  0  0  0  0  0  0  0  0  0  0  0
   19.4994  -14.7706  -18.3405 C   0  0  2  0  0  0  0  0  0  0  0  0
   20.0416  -15.6182  -19.3566 N   0  0  0  0  0  0  0  0  0  0  0  0
   20.3711  -13.5751  -18.1520 C   0  0  0  0  0  0  0  0  0  0  0  0
   21.5564  -13.6114  -18.5833 O   0  0  0  0  0  0  0  0  0  0  0  0
   19.9006  -12.4024  -17.5015 N   0  0  0  0  0  0  0  0  0  0  0  0
   20.7280  -11.2690  -17.2898 C   0  0  0  0  0  0  0  0  0  0  0  0
   20.1068  -10.1272  -16.6082 C   0  0  0  0  0  0  0  0  0  0  0  0
   18.8975  -10.2409  -16.2618 O   0  0  0  0  0  0  0  0  0  0  0  0
   21.8441   -8.8955  -13.6149 C   0  0  0  0  0  0  0  0  0  0  0  0
   20.3784   -8.6294  -13.8670 C   0  0  1  0  0  0  0  0  0  0  0  0
   19.8795   -7.7074  -12.7725 C   0  0  0  0  0  0  0  0  0  0  0  0
   20.2503   -8.0269  -15.2273 C   0  0  2  0  0  0  0  0  0  0  0  0
   20.7023   -8.8987  -16.2892 N   0  0  0  0  0  0  0  0  0  0  0  0
   21.0300   -6.7706  -15.2675 C   0  0  0  0  0  0  0  0  0  0  0  0
   20.5395   -5.5692  -14.7818 O   0  0  0  0  0  0  0  0  0  0  0  0
   22.2033   -6.8301  -15.7800 O   0  0  0  0  0  0  0  0  0  0  0  0
  1  2  1  0
  3  4  1  0
  3  2  1  0
  4  5  1  0
  5  7  1  0
  5  6  1  6
  7  8  2  0
  9 10  1  0
  9  7  1  0
 11 10  1  0
 11 17  1  0
 12 11  2  0
 14 13  1  1
 14 15  1  0
 14 16  1  0
 16 17  1  6
 16 18  1  0
 18 20  2  0
 18 19  1  0
M  END
$$$$
