MGV.pdb
     RDKit          3D

 20 19  0  0  1  0  0  0  0  0999 V2000
   22.7714  -23.1845  -14.1990 C   0  0  0  0  0  0  0  0  0  0  0  0
   22.2708  -22.0704  -12.8760 S   0  0  0  0  0  0  0  0  0  0  0  0
   23.1497  -20.5147  -13.0405 C   0  0  0  0  0  0  0  0  0  0  0  0
   24.1884  -20.3074  -11.9804 C   0  0  0  0  0  0  0  0  0  0  0  0
   25.5580  -20.7748  -12.4517 C   0  0  2  0  0  0  0  0  0  0  0  0
   25.5476  -22.2030  -12.5220 N   0  0  0  0  0  0  0  0  0  0  0  0
   26.5666  -20.3187  -11.4519 C   0  0  0  0  0  0  0  0  0  0  0  0
   26.5560  -19.1120  -11.0832 O   0  0  0  0  0  0  0  0  0  0  0  0
   27.5339  -21.2064  -10.9078 N   0  0  0  0  0  0  0  0  0  0  0  0
   28.5214  -20.7775   -9.9834 C   0  0  0  0  0  0  0  0  0  0  0  0
   28.1645  -20.8636   -8.5623 C   0  0  0  0  0  0  0  0  0  0  0  0
   27.0625  -21.4063   -8.2685 O   0  0  0  0  0  0  0  0  0  0  0  0
   30.0360  -18.9043   -5.1719 C   0  0  0  0  0  0  0  0  0  0  0  0
   29.6166  -20.3545   -5.1128 C   0  0  1  0  0  0  0  0  0  0  0  0
   29.2032  -20.6598   -3.6870 C   0  0  0  0  0  0  0  0  0  0  0  0
   28.5020  -20.5485   -6.0873 C   0  0  2  0  0  0  0  0  0  0  0  0
   28.9111  -20.4061   -7.4673 N   0  0  0  0  0  0  0  0  0  0  0  0
   27.4363  -19.5655   -5.7945 C   0  0  0  0  0  0  0  0  0  0  0  0
   27.1595  -18.4918   -6.6253 O   0  0  0  0  0  0  0  0  0  0  0  0
   26.7606  -19.7426   -4.7198 O   0  0  0  0  0  0  0  0  0  0  0  0
  1  2  1  0
  3  4  1  0
  3  2  1  0
  4  5  1  0
  5  7  1  0
  5  6  1  1
  7  8  2  0
  9 10  1  0
  9  7  1  0
 11 10  1  0
 11 17  1  0
 12 11  2  0
 14 13  1  1
 14 15  1  0
 14 16  1  0
 16 17  1  6
 16 18  1  0
 18 20  2  0
 18 19  1  0
M  END
$$$$
