MGV.pdb
     RDKit          3D

 20 19  0  0  1  0  0  0  0  0999 V2000
   10.6915  -19.1153    5.2789 C   0  0  0  0  0  0  0  0  0  0  0  0
   10.0292  -17.4531    5.4804 S   0  0  0  0  0  0  0  0  0  0  0  0
   11.3387  -16.3492    6.0157 C   0  0  0  0  0  0  0  0  0  0  0  0
   12.3272  -16.0360    4.9339 C   0  0  0  0  0  0  0  0  0  0  0  0
   13.4819  -15.2003    5.4674 C   0  0  2  0  0  0  0  0  0  0  0  0
   13.0722  -13.8305    5.4952 N   0  0  0  0  0  0  0  0  0  0  0  0
   14.6373  -15.3704    4.5396 C   0  0  0  0  0  0  0  0  0  0  0  0
   15.1827  -14.3427    4.0511 O   0  0  0  0  0  0  0  0  0  0  0  0
   15.1358  -16.6559    4.1947 N   0  0  0  0  0  0  0  0  0  0  0  0
   16.2618  -16.8306    3.3489 C   0  0  0  0  0  0  0  0  0  0  0  0
   16.6649  -18.2158    3.0788 C   0  0  0  0  0  0  0  0  0  0  0  0
   17.6835  -18.3971    2.3542 O   0  0  0  0  0  0  0  0  0  0  0  0
   18.2099  -20.6871    4.9824 C   0  0  0  0  0  0  0  0  0  0  0  0
   17.0224  -21.4510    4.4451 C   0  0  1  0  0  0  0  0  0  0  0  0
   15.9891  -21.5391    5.5503 C   0  0  0  0  0  0  0  0  0  0  0  0
   16.5162  -20.7237    3.2432 C   0  0  2  0  0  0  0  0  0  0  0  0
   16.0443  -19.3877    3.5338 N   0  0  0  0  0  0  0  0  0  0  0  0
   15.4145  -21.5060    2.6416 C   0  0  0  0  0  0  0  0  0  0  0  0
   15.6265  -22.6864    1.9477 O   0  0  0  0  0  0  0  0  0  0  0  0
   14.2273  -21.0448    2.7855 O   0  0  0  0  0  0  0  0  0  0  0  0
  1  2  1  0
  3  4  1  0
  3  2  1  0
  4  5  1  0
  5  7  1  0
  5  6  1  6
  7  8  2  0
  9 10  1  0
  9  7  1  0
 11 10  1  0
 11 17  1  0
 12 11  2  0
 14 13  1  1
 14 15  1  0
 14 16  1  0
 16 17  1  1
 16 18  1  0
 18 20  2  0
 18 19  1  0
M  END
$$$$
