MGV.pdb
     RDKit          3D

 20 19  0  0  1  0  0  0  0  0999 V2000
   19.0486  -16.4067  -17.5226 C   0  0  0  0  0  0  0  0  0  0  0  0
   18.4821  -14.9633  -18.4379 S   0  0  0  0  0  0  0  0  0  0  0  0
   17.2013  -14.1264  -17.5003 C   0  0  0  0  0  0  0  0  0  0  0  0
   16.8612  -14.8185  -16.2154 C   0  0  0  0  0  0  0  0  0  0  0  0
   15.7646  -14.0777  -15.4637 C   0  0  2  0  0  0  0  0  0  0  0  0
   14.7845  -13.6420  -16.4095 N   0  0  0  0  0  0  0  0  0  0  0  0
   16.3856  -12.9005  -14.7906 C   0  0  0  0  0  0  0  0  0  0  0  0
   17.2707  -13.0975  -13.9131 O   0  0  0  0  0  0  0  0  0  0  0  0
   16.0059  -11.5693  -15.1125 N   0  0  0  0  0  0  0  0  0  0  0  0
   16.6856  -10.4392  -14.5884 C   0  0  0  0  0  0  0  0  0  0  0  0
   17.5405   -9.7008  -15.5254 C   0  0  0  0  0  0  0  0  0  0  0  0
   17.7906  -10.2421  -16.6390 O   0  0  0  0  0  0  0  0  0  0  0  0
   17.2538   -8.5057  -18.1058 C   0  0  0  0  0  0  0  0  0  0  0  0
   17.7868   -7.2507  -17.4552 C   0  0  1  0  0  0  0  0  0  0  0  0
   16.6051   -6.4708  -16.9147 C   0  0  0  0  0  0  0  0  0  0  0  0
   18.7418   -7.6613  -16.3833 C   0  0  2  0  0  0  0  0  0  0  0  0
   18.1280   -8.4426  -15.3322 N   0  0  0  0  0  0  0  0  0  0  0  0
   19.3470   -6.4473  -15.7935 C   0  0  0  0  0  0  0  0  0  0  0  0
   20.3559   -5.7337  -16.4201 O   0  0  0  0  0  0  0  0  0  0  0  0
   18.8976   -6.0675  -14.6548 O   0  0  0  0  0  0  0  0  0  0  0  0
  1  2  1  0
  3  4  1  0
  3  2  1  0
  4  5  1  0
  5  7  1  0
  5  6  1  6
  7  8  2  0
  9 10  1  0
  9  7  1  0
 11 10  1  0
 11 17  1  0
 12 11  2  0
 14 13  1  1
 14 15  1  0
 14 16  1  0
 16 17  1  1
 16 18  1  0
 18 20  2  0
 18 19  1  0
M  END
$$$$
