MGV.pdb
     RDKit          3D

 20 19  0  0  1  0  0  0  0  0999 V2000
   27.3063  -21.9496  -17.0363 C   0  0  0  0  0  0  0  0  0  0  0  0
   28.5714  -22.0424  -15.7584 S   0  0  0  0  0  0  0  0  0  0  0  0
   27.8467  -21.6300  -14.1695 C   0  0  0  0  0  0  0  0  0  0  0  0
   26.3510  -21.5450  -14.2059 C   0  0  0  0  0  0  0  0  0  0  0  0
   25.8021  -20.9353  -12.9240 C   0  0  2  0  0  0  0  0  0  0  0  0
   26.2704  -21.7121  -11.8185 N   0  0  0  0  0  0  0  0  0  0  0  0
   24.3131  -20.9881  -12.9928 C   0  0  0  0  0  0  0  0  0  0  0  0
   23.6885  -21.6837  -12.1453 O   0  0  0  0  0  0  0  0  0  0  0  0
   23.5851  -20.2772  -13.9850 N   0  0  0  0  0  0  0  0  0  0  0  0
   22.1675  -20.2131  -13.9850 C   0  0  0  0  0  0  0  0  0  0  0  0
   21.5528  -19.3871  -15.0310 C   0  0  0  0  0  0  0  0  0  0  0  0
   22.3225  -18.8305  -15.8636 O   0  0  0  0  0  0  0  0  0  0  0  0
   21.1873  -20.4566  -17.4739 C   0  0  0  0  0  0  0  0  0  0  0  0
   19.7264  -20.0725  -17.4476 C   0  0  1  0  0  0  0  0  0  0  0  0
   18.9357  -21.2868  -17.0036 C   0  0  0  0  0  0  0  0  0  0  0  0
   19.5741  -18.9164  -16.5150 C   0  0  2  0  0  0  0  0  0  0  0  0
   20.1875  -19.1327  -15.2230 N   0  0  0  0  0  0  0  0  0  0  0  0
   18.1328  -18.6425  -16.3266 C   0  0  0  0  0  0  0  0  0  0  0  0
   17.3609  -18.0036  -17.2836 O   0  0  0  0  0  0  0  0  0  0  0  0
   17.6076  -19.0240  -15.2214 O   0  0  0  0  0  0  0  0  0  0  0  0
  1  2  1  0
  3  4  1  0
  3  2  1  0
  4  5  1  0
  5  7  1  0
  5  6  1  1
  7  8  2  0
  9 10  1  0
  9  7  1  0
 11 10  1  0
 11 17  1  0
 12 11  2  0
 14 13  1  1
 14 15  1  0
 14 16  1  0
 16 17  1  1
 16 18  1  0
 18 20  2  0
 18 19  1  0
M  END
$$$$
