NCG.pdb
     RDKit          3D

 19 18  0  0  1  0  0  0  0  0999 V2000
    8.0538  -14.9933   13.1072 N   0  0  0  0  0  0  0  0  0  0  0  0
    9.0710  -15.5678   13.9193 C   0  0  0  0  0  0  0  0  0  0  0  0
    9.7441  -16.4785   13.4178 O   0  0  0  0  0  0  0  0  0  0  0  0
    9.2679  -15.0786   15.2525 C   0  0  0  0  0  0  0  0  0  0  0  0
    9.5365  -16.0689   16.3537 C   0  0  2  0  0  0  0  0  0  0  0  0
    8.2149  -16.7639   16.4958 N   0  0  0  0  0  0  0  0  0  0  0  0
    9.7619  -15.4636   17.6822 C   0  0  0  0  0  0  0  0  0  0  0  0
   10.9207  -15.0862   17.9894 O   0  0  0  0  0  0  0  0  0  0  0  0
    8.7476  -15.2725   18.6485 N   0  0  0  0  0  0  0  0  0  0  0  0
    9.0219  -14.8042   20.0020 C   0  0  1  0  0  0  0  0  0  0  0  0
    7.7518  -14.1857   20.5308 C   0  0  0  0  0  0  0  0  0  0  0  0
    7.3408  -12.6506   19.6595 S   0  0  0  0  0  0  0  0  0  0  0  0
    9.4623  -15.9016   20.8718 C   0  0  0  0  0  0  0  0  0  0  0  0
    8.7885  -16.9751   20.9603 O   0  0  0  0  0  0  0  0  0  0  0  0
   10.6363  -15.7995   21.6291 N   0  0  0  0  0  0  0  0  0  0  0  0
   11.0548  -16.8941   22.4856 C   0  0  0  0  0  0  0  0  0  0  0  0
   12.3706  -16.6262   23.0890 C   0  0  0  0  0  0  0  0  0  0  0  0
   12.4886  -15.7653   23.9932 O   0  0  0  0  0  0  0  0  0  0  0  0
   13.4779  -17.3323   22.6504 O   0  0  0  0  0  0  0  0  0  0  0  0
  1  2  1  0
  2  3  2  0
  4  5  1  0
  4  2  1  0
  5  6  1  1
  7  5  1  0
  7  8  2  0
  9  7  1  0
 10  9  1  0
 10 11  1  1
 12 11  1  0
 13 10  1  0
 14 13  2  0
 15 13  1  0
 16 15  1  0
 17 19  1  0
 17 16  1  0
 18 17  2  0
M  END
$$$$
