NCG.pdb
     RDKit          3D

 19 18  0  0  1  0  0  0  0  0999 V2000
    8.1171  -15.7904   13.2583 N   0  0  0  0  0  0  0  0  0  0  0  0
    8.1357  -14.4153   13.6231 C   0  0  0  0  0  0  0  0  0  0  0  0
    7.9319  -13.5911   12.7214 O   0  0  0  0  0  0  0  0  0  0  0  0
    8.3837  -14.0521   14.9877 C   0  0  0  0  0  0  0  0  0  0  0  0
    8.6092  -15.1454   15.9973 C   0  0  2  0  0  0  0  0  0  0  0  0
    7.2348  -15.7225   16.1645 N   0  0  0  0  0  0  0  0  0  0  0  0
    8.9591  -14.6686   17.3509 C   0  0  0  0  0  0  0  0  0  0  0  0
   10.1272  -14.2587   17.5678 O   0  0  0  0  0  0  0  0  0  0  0  0
    8.0558  -14.6370   18.4381 N   0  0  0  0  0  0  0  0  0  0  0  0
    8.4773  -14.3792   19.8102 C   0  0  1  0  0  0  0  0  0  0  0  0
    7.2476  -13.9948   20.5947 C   0  0  0  0  0  0  0  0  0  0  0  0
    7.5804  -13.9343   22.3751 S   0  0  0  0  0  0  0  0  0  0  0  0
    9.1215  -15.5566   20.4050 C   0  0  0  0  0  0  0  0  0  0  0  0
    8.5398  -16.6861   20.4103 O   0  0  0  0  0  0  0  0  0  0  0  0
   10.3945  -15.4714   20.9833 N   0  0  0  0  0  0  0  0  0  0  0  0
   10.9637  -16.6127   21.6763 C   0  0  0  0  0  0  0  0  0  0  0  0
   12.2745  -16.2830   22.2597 C   0  0  0  0  0  0  0  0  0  0  0  0
   12.9011  -17.1370   22.9311 O   0  0  0  0  0  0  0  0  0  0  0  0
   12.8109  -15.0221   22.0614 O   0  0  0  0  0  0  0  0  0  0  0  0
  1  2  1  0
  2  3  2  0
  4  5  1  0
  4  2  1  0
  5  6  1  1
  7  5  1  0
  7  8  2  0
  9  7  1  0
 10  9  1  0
 10 11  1  1
 12 11  1  0
 13 10  1  0
 14 13  2  0
 15 13  1  0
 16 15  1  0
 17 19  1  0
 17 16  1  0
 18 17  2  0
M  END
$$$$
