NCG.pdb
     RDKit          3D

 19 18  0  0  1  0  0  0  0  0999 V2000
    9.3647  -18.5464   15.3370 N   0  0  0  0  0  0  0  0  0  0  0  0
    8.4180  -17.8494   16.1382 C   0  0  0  0  0  0  0  0  0  0  0  0
    7.2205  -18.0258   15.8759 O   0  0  0  0  0  0  0  0  0  0  0  0
    8.8810  -16.9929   17.1906 C   0  0  0  0  0  0  0  0  0  0  0  0
    9.1744  -17.5967   18.5379 C   0  0  2  0  0  0  0  0  0  0  0  0
    7.8170  -18.0374   18.9995 N   0  0  0  0  0  0  0  0  0  0  0  0
    9.5993  -16.6254   19.5666 C   0  0  0  0  0  0  0  0  0  0  0  0
   10.6912  -16.0213   19.4179 O   0  0  0  0  0  0  0  0  0  0  0  0
    8.8493  -16.3196   20.7255 N   0  0  0  0  0  0  0  0  0  0  0  0
    9.3974  -15.5652   21.8467 C   0  0  1  0  0  0  0  0  0  0  0  0
    8.2360  -15.1142   22.6970 C   0  0  0  0  0  0  0  0  0  0  0  0
    8.7945  -14.3250   24.2299 S   0  0  0  0  0  0  0  0  0  0  0  0
   10.3304  -16.3778   22.6368 C   0  0  0  0  0  0  0  0  0  0  0  0
   10.0236  -17.5560   23.0001 O   0  0  0  0  0  0  0  0  0  0  0  0
   11.5847  -15.8806   23.0134 N   0  0  0  0  0  0  0  0  0  0  0  0
   12.5208  -16.7221   23.7361 C   0  0  0  0  0  0  0  0  0  0  0  0
   13.8749  -16.1446   23.7255 C   0  0  0  0  0  0  0  0  0  0  0  0
   14.5111  -16.0431   22.6496 O   0  0  0  0  0  0  0  0  0  0  0  0
   14.4415  -15.7139   24.9132 O   0  0  0  0  0  0  0  0  0  0  0  0
  1  2  1  0
  2  3  2  0
  4  5  1  0
  4  2  1  0
  5  6  1  1
  7  5  1  0
  7  8  2  0
  9  7  1  0
 10  9  1  0
 10 11  1  1
 12 11  1  0
 13 10  1  0
 14 13  2  0
 15 13  1  0
 16 15  1  0
 17 19  1  0
 17 16  1  0
 18 17  2  0
M  END
$$$$
