NCG.pdb
     RDKit          3D

 19 18  0  0  1  0  0  0  0  0999 V2000
    8.0294  -12.9067   16.4733 N   0  0  0  0  0  0  0  0  0  0  0  0
    8.1908  -14.0742   17.2702 C   0  0  0  0  0  0  0  0  0  0  0  0
    8.1277  -15.1657   16.6883 O   0  0  0  0  0  0  0  0  0  0  0  0
    8.4144  -13.9394   18.6799 C   0  0  0  0  0  0  0  0  0  0  0  0
    8.7929  -15.1620   19.4721 C   0  0  2  0  0  0  0  0  0  0  0  0
    7.4578  -15.7500   19.8208 N   0  0  0  0  0  0  0  0  0  0  0  0
    9.4073  -14.8770   20.7849 C   0  0  0  0  0  0  0  0  0  0  0  0
   10.5898  -14.4534   20.8234 O   0  0  0  0  0  0  0  0  0  0  0  0
    8.7459  -15.0471   22.0229 N   0  0  0  0  0  0  0  0  0  0  0  0
    9.4293  -14.9393   23.3067 C   0  0  1  0  0  0  0  0  0  0  0  0
    8.3687  -14.8550   24.3760 C   0  0  0  0  0  0  0  0  0  0  0  0
    6.9509  -13.8633   23.8367 S   0  0  0  0  0  0  0  0  0  0  0  0
   10.3114  -16.0884   23.5444 C   0  0  0  0  0  0  0  0  0  0  0  0
    9.8323  -17.2402   23.7858 O   0  0  0  0  0  0  0  0  0  0  0  0
   11.7050  -15.9510   23.5123 N   0  0  0  0  0  0  0  0  0  0  0  0
   12.5614  -17.0992   23.7469 C   0  0  0  0  0  0  0  0  0  0  0  0
   13.9811  -16.7495   23.5760 C   0  0  0  0  0  0  0  0  0  0  0  0
   14.3119  -15.5803   23.2657 O   0  0  0  0  0  0  0  0  0  0  0  0
   14.9495  -17.7217   23.7605 O   0  0  0  0  0  0  0  0  0  0  0  0
  1  2  1  0
  2  3  2  0
  4  5  1  0
  4  2  1  0
  5  6  1  1
  7  5  1  0
  7  8  2  0
  9  7  1  0
 10  9  1  0
 10 11  1  1
 12 11  1  0
 13 10  1  0
 14 13  2  0
 15 13  1  0
 16 15  1  0
 17 19  1  0
 17 16  1  0
 18 17  2  0
M  END
$$$$
