NCG.pdb
     RDKit          3D

 19 18  0  0  1  0  0  0  0  0999 V2000
    7.0795  -13.5582   15.2589 N   0  0  0  0  0  0  0  0  0  0  0  0
    8.3574  -13.9278   15.7634 C   0  0  0  0  0  0  0  0  0  0  0  0
    9.1499  -14.4447   14.9643 O   0  0  0  0  0  0  0  0  0  0  0  0
    8.6650  -13.6910   17.1435 C   0  0  0  0  0  0  0  0  0  0  0  0
    8.9213  -14.8725   18.0402 C   0  0  2  0  0  0  0  0  0  0  0  0
    7.5812  -15.5448   18.0835 N   0  0  0  0  0  0  0  0  0  0  0  0
    9.1884  -14.5260   19.4511 C   0  0  0  0  0  0  0  0  0  0  0  0
   10.2331  -13.8866   19.7325 O   0  0  0  0  0  0  0  0  0  0  0  0
    8.3351  -14.8661   20.5259 N   0  0  0  0  0  0  0  0  0  0  0  0
    8.7149  -14.6935   21.9233 C   0  0  1  0  0  0  0  0  0  0  0  0
    7.4423  -14.5817   22.7255 C   0  0  0  0  0  0  0  0  0  0  0  0
    7.7807  -14.3983   24.4965 S   0  0  0  0  0  0  0  0  0  0  0  0
    9.5295  -15.8170   22.4018 C   0  0  0  0  0  0  0  0  0  0  0  0
    9.2500  -17.0122   22.0738 O   0  0  0  0  0  0  0  0  0  0  0  0
   10.6375  -15.6065   23.2326 N   0  0  0  0  0  0  0  0  0  0  0  0
   11.4825  -16.7195   23.6251 C   0  0  0  0  0  0  0  0  0  0  0  0
   11.1755  -17.1653   24.9941 C   0  0  0  0  0  0  0  0  0  0  0  0
    9.9852  -17.3224   25.3565 O   0  0  0  0  0  0  0  0  0  0  0  0
   12.2115  -17.4101   25.8795 O   0  0  0  0  0  0  0  0  0  0  0  0
  1  2  1  0
  2  3  2  0
  4  5  1  0
  4  2  1  0
  5  6  1  1
  7  5  1  0
  7  8  2  0
  9  7  1  0
 10  9  1  0
 10 11  1  1
 12 11  1  0
 13 10  1  0
 14 13  2  0
 15 13  1  0
 16 15  1  0
 17 19  1  0
 17 16  1  0
 18 17  2  0
M  END
$$$$
