NCG.pdb
     RDKit          3D

 19 18  0  0  1  0  0  0  0  0999 V2000
    9.5528  -16.4664   18.2976 N   0  0  0  0  0  0  0  0  0  0  0  0
    8.4365  -16.0961   19.0983 C   0  0  0  0  0  0  0  0  0  0  0  0
    7.3230  -16.4934   18.7294 O   0  0  0  0  0  0  0  0  0  0  0  0
    8.6447  -15.2976   20.2707 C   0  0  0  0  0  0  0  0  0  0  0  0
    8.3329  -15.8946   21.6168 C   0  0  2  0  0  0  0  0  0  0  0  0
    6.8345  -15.9623   21.6034 N   0  0  0  0  0  0  0  0  0  0  0  0
    8.6366  -15.0148   22.7639 C   0  0  0  0  0  0  0  0  0  0  0  0
    9.8168  -14.6149   22.9273 O   0  0  0  0  0  0  0  0  0  0  0  0
    7.6757  -14.5805   23.7057 N   0  0  0  0  0  0  0  0  0  0  0  0
    8.0362  -13.9995   24.9938 C   0  0  1  0  0  0  0  0  0  0  0  0
    7.0138  -12.9365   25.3105 C   0  0  0  0  0  0  0  0  0  0  0  0
    7.2428  -12.2621   26.9770 S   0  0  0  0  0  0  0  0  0  0  0  0
    8.0683  -15.0162   26.0522 C   0  0  0  0  0  0  0  0  0  0  0  0
    7.0151  -15.6425   26.3879 O   0  0  0  0  0  0  0  0  0  0  0  0
    9.2583  -15.3267   26.7228 N   0  0  0  0  0  0  0  0  0  0  0  0
    9.2752  -16.3498   27.7522 C   0  0  0  0  0  0  0  0  0  0  0  0
   10.6051  -16.4590   28.3739 C   0  0  0  0  0  0  0  0  0  0  0  0
   11.5545  -15.7484   27.9661 O   0  0  0  0  0  0  0  0  0  0  0  0
   10.8002  -17.3528   29.4132 O   0  0  0  0  0  0  0  0  0  0  0  0
  1  2  1  0
  2  3  2  0
  4  5  1  0
  4  2  1  0
  5  6  1  6
  7  5  1  0
  7  8  2  0
  9  7  1  0
 10  9  1  0
 10 11  1  1
 12 11  1  0
 13 10  1  0
 14 13  2  0
 15 13  1  0
 16 15  1  0
 17 19  1  0
 17 16  1  0
 18 17  2  0
M  END
$$$$
