NCG.pdb
     RDKit          3D

 19 18  0  0  1  0  0  0  0  0999 V2000
    7.0797  -14.3407   15.0339 N   0  0  0  0  0  0  0  0  0  0  0  0
    7.9188  -15.3401   15.6007 C   0  0  0  0  0  0  0  0  0  0  0  0
    8.2565  -16.2760   14.8632 O   0  0  0  0  0  0  0  0  0  0  0  0
    8.3278  -15.2227   16.9699 C   0  0  0  0  0  0  0  0  0  0  0  0
    7.7241  -14.1323   17.8138 C   0  0  2  0  0  0  0  0  0  0  0  0
    8.1934  -12.8874   17.1213 N   0  0  0  0  0  0  0  0  0  0  0  0
    8.2960  -14.0186   19.1711 C   0  0  0  0  0  0  0  0  0  0  0  0
    9.4735  -13.5990   19.3012 O   0  0  0  0  0  0  0  0  0  0  0  0
    7.5988  -14.3512   20.3552 N   0  0  0  0  0  0  0  0  0  0  0  0
    8.2111  -14.2920   21.6774 C   0  0  1  0  0  0  0  0  0  0  0  0
    7.1434  -13.8549   22.6492 C   0  0  0  0  0  0  0  0  0  0  0  0
    7.7236  -13.9382   24.3641 S   0  0  0  0  0  0  0  0  0  0  0  0
    8.7663  -15.5925   22.0716 C   0  0  0  0  0  0  0  0  0  0  0  0
    8.0689  -16.6515   21.9911 O   0  0  0  0  0  0  0  0  0  0  0  0
   10.0790  -15.7059   22.5473 N   0  0  0  0  0  0  0  0  0  0  0  0
   10.5855  -16.9865   23.0057 C   0  0  0  0  0  0  0  0  0  0  0  0
   11.9390  -16.8539   23.5693 C   0  0  0  0  0  0  0  0  0  0  0  0
   12.5221  -15.7437   23.5606 O   0  0  0  0  0  0  0  0  0  0  0  0
   12.5641  -17.9650   24.1094 O   0  0  0  0  0  0  0  0  0  0  0  0
  1  2  1  0
  2  3  2  0
  4  5  1  0
  4  2  1  0
  5  6  1  6
  7  5  1  0
  7  8  2  0
  9  7  1  0
 10  9  1  0
 10 11  1  1
 12 11  1  0
 13 10  1  0
 14 13  2  0
 15 13  1  0
 16 15  1  0
 17 19  1  0
 17 16  1  0
 18 17  2  0
M  END
$$$$
