CHL.pdb
     RDKit          3D

 25 25  0  0  1  0  0  0  0  0999 V2000
   26.0527  -34.3250  -10.0692 N   0  0  0  0  0  0  0  0  0  0  0  0
   26.5039  -33.3476   -9.1007 C   0  0  1  0  0  0  0  0  0  0  0  0
   25.2995  -32.6155   -8.5506 C   0  0  0  0  0  0  0  0  0  0  0  0
   25.7552  -31.5351   -7.1649 S   0  0  0  0  0  0  0  0  0  0  0  0
   27.2613  -34.0104   -7.9952 C   0  0  0  0  0  0  0  0  0  0  0  0
   26.7566  -35.0804   -7.5188 O   0  0  0  0  0  0  0  0  0  0  0  0
   28.4755  -33.4800   -7.5009 N   0  0  0  0  0  0  0  0  0  0  0  0
   29.1748  -34.1277   -6.4461 C   0  0  1  0  0  0  0  0  0  0  0  0
   30.6401  -33.7442   -6.5443 C   0  0  0  0  0  0  0  0  0  0  0  0
   31.4969  -34.4837   -5.5922 C   0  0  0  0  0  0  0  0  0  0  0  0
   31.0350  -35.4699   -4.7249 C   0  0  0  0  0  0  0  0  0  0  0  0
   32.1003  -35.9030   -4.0258 N   0  0  0  0  0  0  0  0  0  0  0  0
   33.1953  -35.2156   -4.4363 C   0  0  0  0  0  0  0  0  0  0  0  0
   32.8174  -34.3592   -5.3850 N   0  0  0  0  0  0  0  0  0  0  0  0
   28.6169  -33.8476   -5.1072 C   0  0  0  0  0  0  0  0  0  0  0  0
   28.1538  -32.7035   -4.8942 O   0  0  0  0  0  0  0  0  0  0  0  0
   23.9718  -34.3642   -2.5796 C   0  0  0  0  0  0  0  0  0  0  0  0
   25.3822  -34.2923   -2.0971 C   0  0  1  0  0  0  0  0  0  0  0  0
   25.4464  -35.2055   -0.8618 C   0  0  0  0  0  0  0  0  0  0  0  0
   26.4141  -34.6098   -3.0778 C   0  0  0  0  0  0  0  0  0  0  0  0
   27.8559  -34.4955   -2.7745 C   0  0  2  0  0  0  0  0  0  0  0  0
   28.5754  -34.7889   -4.0593 N   0  0  0  0  0  0  0  0  0  0  0  0
   28.3637  -35.4703   -1.8224 C   0  0  0  0  0  0  0  0  0  0  0  0
   28.7337  -36.6149   -2.2581 O   0  0  0  0  0  0  0  0  0  0  0  0
   28.5059  -35.2915   -0.4490 O   0  0  0  0  0  0  0  0  0  0  0  0
  2  1  1  6
  2  5  1  0
  3  2  1  0
  4  3  1  0
  5  7  1  0
  6  5  2  0
  7  8  1  0
  8  9  1  1
  9 10  1  0
 10 11  2  0
 12 11  1  0
 13 12  1  0
 14 10  1  0
 14 13  2  0
 15 22  1  0
 15  8  1  0
 16 15  2  0
 18 19  1  1
 18 17  1  0
 20 18  1  0
 21 20  1  6
 21 22  1  0
 23 21  1  0
 24 23  2  0
 25 23  1  0
M  END
$$$$
