CHL.pdb
     RDKit          3D

 25 25  0  0  1  0  0  0  0  0999 V2000
   24.3179  -12.9899  -17.6761 N   0  0  0  0  0  0  0  0  0  0  0  0
   24.4253  -11.9754  -16.6484 C   0  0  1  0  0  0  0  0  0  0  0  0
   25.8236  -11.3985  -16.6782 C   0  0  0  0  0  0  0  0  0  0  0  0
   27.0446  -12.5845  -16.0473 S   0  0  0  0  0  0  0  0  0  0  0  0
   23.4117  -10.8975  -16.8625 C   0  0  0  0  0  0  0  0  0  0  0  0
   23.1695  -10.5736  -18.0719 O   0  0  0  0  0  0  0  0  0  0  0  0
   22.7536  -10.2676  -15.7808 N   0  0  0  0  0  0  0  0  0  0  0  0
   21.8471   -9.1959  -16.0070 C   0  0  1  0  0  0  0  0  0  0  0  0
   20.5081   -9.5728  -15.3998 C   0  0  0  0  0  0  0  0  0  0  0  0
   19.8103  -10.6373  -16.1530 C   0  0  0  0  0  0  0  0  0  0  0  0
   19.6210  -11.9343  -15.6837 C   0  0  0  0  0  0  0  0  0  0  0  0
   18.9520  -12.6010  -16.6424 N   0  0  0  0  0  0  0  0  0  0  0  0
   18.7269  -11.7563  -17.6795 C   0  0  0  0  0  0  0  0  0  0  0  0
   19.2511  -10.5703  -17.3716 N   0  0  0  0  0  0  0  0  0  0  0  0
   22.3350   -7.8937  -15.5087 C   0  0  0  0  0  0  0  0  0  0  0  0
   22.8277   -7.8551  -14.3578 O   0  0  0  0  0  0  0  0  0  0  0  0
   25.2416   -3.2619  -16.3124 C   0  0  0  0  0  0  0  0  0  0  0  0
   23.8290   -3.2894  -16.7931 C   0  0  1  0  0  0  0  0  0  0  0  0
   23.8292   -2.5281  -18.1291 C   0  0  0  0  0  0  0  0  0  0  0  0
   23.2130   -4.6069  -16.9039 C   0  0  0  0  0  0  0  0  0  0  0  0
   22.8696   -5.4217  -15.7198 C   0  0  2  0  0  0  0  0  0  0  0  0
   22.2788   -6.6964  -16.2499 N   0  0  0  0  0  0  0  0  0  0  0  0
   21.8433   -4.8552  -14.8595 C   0  0  0  0  0  0  0  0  0  0  0  0
   20.6165   -5.0091  -15.1884 O   0  0  0  0  0  0  0  0  0  0  0  0
   22.0495   -4.1497  -13.6769 O   0  0  0  0  0  0  0  0  0  0  0  0
  2  1  1  6
  2  5  1  0
  3  2  1  0
  4  3  1  0
  5  7  1  0
  6  5  2  0
  7  8  1  0
  8  9  1  1
  9 10  1  0
 10 11  2  0
 12 11  1  0
 13 12  1  0
 14 10  1  0
 14 13  2  0
 15 22  1  0
 15  8  1  0
 16 15  2  0
 18 19  1  6
 18 17  1  0
 20 18  1  0
 21 20  1  6
 21 22  1  0
 23 21  1  0
 24 23  2  0
 25 23  1  0
M  END
$$$$
