CHL.pdb
     RDKit          3D

 25 25  0  0  1  0  0  0  0  0999 V2000
   23.0953  -12.4589  -19.6315 N   0  0  0  0  0  0  0  0  0  0  0  0
   22.4618  -12.2259  -18.3504 C   0  0  1  0  0  0  0  0  0  0  0  0
   23.5061  -12.3454  -17.2621 C   0  0  0  0  0  0  0  0  0  0  0  0
   24.5678  -10.8744  -17.1963 S   0  0  0  0  0  0  0  0  0  0  0  0
   21.8238  -10.8743  -18.3148 C   0  0  0  0  0  0  0  0  0  0  0  0
   22.0718  -10.0998  -19.2972 O   0  0  0  0  0  0  0  0  0  0  0  0
   20.9874  -10.4727  -17.2476 N   0  0  0  0  0  0  0  0  0  0  0  0
   20.3198   -9.2179  -17.2807 C   0  0  1  0  0  0  0  0  0  0  0  0
   18.8269   -9.4735  -17.1837 C   0  0  0  0  0  0  0  0  0  0  0  0
   18.2485  -10.0069  -18.4361 C   0  0  0  0  0  0  0  0  0  0  0  0
   17.8870  -11.3375  -18.6282 C   0  0  0  0  0  0  0  0  0  0  0  0
   17.4044  -11.4324  -19.8809 N   0  0  0  0  0  0  0  0  0  0  0  0
   17.4589  -10.2067  -20.4592 C   0  0  0  0  0  0  0  0  0  0  0  0
   17.9718   -9.3518  -19.5747 N   0  0  0  0  0  0  0  0  0  0  0  0
   20.7885   -8.2712  -16.2481 C   0  0  0  0  0  0  0  0  0  0  0  0
   21.0624   -8.7299  -15.1152 O   0  0  0  0  0  0  0  0  0  0  0  0
   24.2925   -4.9670  -15.7392 C   0  0  0  0  0  0  0  0  0  0  0  0
   23.0806   -4.1054  -15.6127 C   0  0  1  0  0  0  0  0  0  0  0  0
   23.3794   -2.8433  -16.4387 C   0  0  0  0  0  0  0  0  0  0  0  0
   21.8114   -4.7230  -15.9803 C   0  0  0  0  0  0  0  0  0  0  0  0
   21.3196   -5.9613  -15.3410 C   0  0  2  0  0  0  0  0  0  0  0  0
   20.9449   -6.8872  -16.4622 N   0  0  0  0  0  0  0  0  0  0  0  0
   20.1073   -5.8075  -14.5528 C   0  0  0  0  0  0  0  0  0  0  0  0
   18.9773   -5.8940  -15.1464 O   0  0  0  0  0  0  0  0  0  0  0  0
   20.0336   -5.5783  -13.1815 O   0  0  0  0  0  0  0  0  0  0  0  0
  2  1  1  6
  2  5  1  0
  3  2  1  0
  4  3  1  0
  5  7  1  0
  6  5  2  0
  7  8  1  0
  8  9  1  1
  9 10  1  0
 10 11  2  0
 12 11  1  0
 13 12  1  0
 14 10  1  0
 14 13  2  0
 15 22  1  0
 15  8  1  0
 16 15  2  0
 18 19  1  6
 18 17  1  0
 20 18  1  0
 21 20  1  6
 21 22  1  0
 23 21  1  0
 24 23  2  0
 25 23  1  0
M  END
$$$$
