CHL.pdb
     RDKit          3D

 25 25  0  0  1  0  0  0  0  0999 V2000
   26.8412  -22.4985  -17.3438 N   0  0  0  0  0  0  0  0  0  0  0  0
   28.0974  -21.9315  -16.8997 C   0  0  1  0  0  0  0  0  0  0  0  0
   28.7166  -21.1626  -18.0462 C   0  0  0  0  0  0  0  0  0  0  0  0
   29.3148  -22.2781  -19.3474 S   0  0  0  0  0  0  0  0  0  0  0  0
   27.8850  -21.0333  -15.7237 C   0  0  0  0  0  0  0  0  0  0  0  0
   28.9132  -20.4260  -15.2760 O   0  0  0  0  0  0  0  0  0  0  0  0
   26.6101  -20.8638  -15.1357 N   0  0  0  0  0  0  0  0  0  0  0  0
   26.4273  -19.9745  -14.0416 C   0  0  1  0  0  0  0  0  0  0  0  0
   25.4316  -18.9081  -14.4600 C   0  0  0  0  0  0  0  0  0  0  0  0
   26.0210  -17.8824  -15.3477 C   0  0  0  0  0  0  0  0  0  0  0  0
   26.6495  -16.7243  -14.8982 C   0  0  0  0  0  0  0  0  0  0  0  0
   27.0500  -16.0498  -15.9918 N   0  0  0  0  0  0  0  0  0  0  0  0
   26.6878  -16.7558  -17.0919 C   0  0  0  0  0  0  0  0  0  0  0  0
   26.0655  -17.8634  -16.6892 N   0  0  0  0  0  0  0  0  0  0  0  0
   26.0237  -20.6500  -12.7915 C   0  0  0  0  0  0  0  0  0  0  0  0
   25.4363  -21.7522  -12.8856 O   0  0  0  0  0  0  0  0  0  0  0  0
   26.8055  -21.6519   -7.2002 C   0  0  0  0  0  0  0  0  0  0  0  0
   26.0828  -20.4639   -7.7422 C   0  0  1  0  0  0  0  0  0  0  0  0
   26.3817  -19.3142   -6.7660 C   0  0  0  0  0  0  0  0  0  0  0  0
   26.3764  -20.1090   -9.1262 C   0  0  0  0  0  0  0  0  0  0  0  0
   25.8395  -20.8749  -10.2703 C   0  0  2  0  0  0  0  0  0  0  0  0
   26.2601  -20.1288  -11.5037 N   0  0  0  0  0  0  0  0  0  0  0  0
   24.3885  -20.9399  -10.3408 C   0  0  0  0  0  0  0  0  0  0  0  0
   23.7576  -19.9591  -10.8670 O   0  0  0  0  0  0  0  0  0  0  0  0
   23.5829  -21.9843   -9.8950 O   0  0  0  0  0  0  0  0  0  0  0  0
  2  1  1  6
  2  5  1  0
  3  2  1  0
  4  3  1  0
  5  7  1  0
  6  5  2  0
  7  8  1  0
  8  9  1  6
  9 10  1  0
 10 11  2  0
 12 11  1  0
 13 12  1  0
 14 10  1  0
 14 13  2  0
 15 22  1  0
 15  8  1  0
 16 15  2  0
 18 19  1  1
 18 17  1  0
 20 18  1  0
 21 20  1  1
 21 22  1  0
 23 21  1  0
 24 23  2  0
 25 23  1  0
M  END
$$$$
