CHL.pdb
     RDKit          3D

 25 25  0  0  1  0  0  0  0  0999 V2000
   26.6975  -20.7070  -16.8694 N   0  0  0  0  0  0  0  0  0  0  0  0
   27.0303  -21.4198  -15.6537 C   0  0  1  0  0  0  0  0  0  0  0  0
   28.5362  -21.4728  -15.5174 C   0  0  0  0  0  0  0  0  0  0  0  0
   29.1795  -23.1271  -15.8983 S   0  0  0  0  0  0  0  0  0  0  0  0
   26.4222  -20.7483  -14.4644 C   0  0  0  0  0  0  0  0  0  0  0  0
   26.7755  -19.5423  -14.2469 O   0  0  0  0  0  0  0  0  0  0  0  0
   25.5020  -21.4141  -13.6219 N   0  0  0  0  0  0  0  0  0  0  0  0
   24.9513  -20.7588  -12.4867 C   0  0  1  0  0  0  0  0  0  0  0  0
   23.4504  -20.9848  -12.4920 C   0  0  0  0  0  0  0  0  0  0  0  0
   22.7451  -20.1632  -13.4994 C   0  0  0  0  0  0  0  0  0  0  0  0
   23.3754  -19.2776  -14.3693 C   0  0  0  0  0  0  0  0  0  0  0  0
   22.4105  -18.7226  -15.1257 N   0  0  0  0  0  0  0  0  0  0  0  0
   21.2144  -19.2385  -14.7477 C   0  0  0  0  0  0  0  0  0  0  0  0
   21.4297  -20.1096  -13.7623 N   0  0  0  0  0  0  0  0  0  0  0  0
   25.5693  -21.1694  -11.2093 C   0  0  0  0  0  0  0  0  0  0  0  0
   25.7358  -22.3942  -11.0071 O   0  0  0  0  0  0  0  0  0  0  0  0
   28.1803  -18.4554   -6.3346 C   0  0  0  0  0  0  0  0  0  0  0  0
   28.0430  -19.7397   -7.0822 C   0  0  1  0  0  0  0  0  0  0  0  0
   27.3396  -20.7092   -6.1181 C   0  0  0  0  0  0  0  0  0  0  0  0
   27.3763  -19.6616   -8.3772 C   0  0  0  0  0  0  0  0  0  0  0  0
   26.5238  -20.7519   -8.8952 C   0  0  2  0  0  0  0  0  0  0  0  0
   25.9811  -20.2668  -10.2085 N   0  0  0  0  0  0  0  0  0  0  0  0
   25.3529  -21.0542   -8.0876 C   0  0  0  0  0  0  0  0  0  0  0  0
   24.3043  -20.3369   -8.2387 O   0  0  0  0  0  0  0  0  0  0  0  0
   25.2362  -22.0726   -7.1454 O   0  0  0  0  0  0  0  0  0  0  0  0
  2  1  1  6
  2  5  1  0
  3  2  1  0
  4  3  1  0
  5  7  1  0
  6  5  2  0
  7  8  1  0
  8  9  1  1
  9 10  1  0
 10 11  2  0
 12 11  1  0
 13 12  1  0
 14 10  1  0
 14 13  2  0
 15 22  1  0
 15  8  1  0
 16 15  2  0
 18 19  1  1
 18 17  1  0
 20 18  1  0
 21 20  1  1
 21 22  1  0
 23 21  1  0
 24 23  2  0
 25 23  1  0
M  END
$$$$
