CHL.pdb
     RDKit          3D

 25 25  0  0  1  0  0  0  0  0999 V2000
   27.5333  -19.6329  -15.4591 N   0  0  0  0  0  0  0  0  0  0  0  0
   27.8135  -20.4497  -14.2967 C   0  0  1  0  0  0  0  0  0  0  0  0
   29.2681  -20.2756  -13.9186 C   0  0  0  0  0  0  0  0  0  0  0  0
   30.0293  -21.8589  -13.4613 S   0  0  0  0  0  0  0  0  0  0  0  0
   26.9281  -20.0650  -13.1551 C   0  0  0  0  0  0  0  0  0  0  0  0
   26.8437  -18.8199  -12.8925 O   0  0  0  0  0  0  0  0  0  0  0  0
   26.2194  -21.0305  -12.4031 N   0  0  0  0  0  0  0  0  0  0  0  0
   25.4521  -20.6478  -11.2691 C   0  0  1  0  0  0  0  0  0  0  0  0
   24.0257  -21.1212  -11.4812 C   0  0  0  0  0  0  0  0  0  0  0  0
   23.2902  -20.3135  -12.4782 C   0  0  0  0  0  0  0  0  0  0  0  0
   23.8509  -19.2697  -13.2092 C   0  0  0  0  0  0  0  0  0  0  0  0
   22.8786  -18.7849  -14.0034 N   0  0  0  0  0  0  0  0  0  0  0  0
   21.7450  -19.4962  -13.7824 C   0  0  0  0  0  0  0  0  0  0  0  0
   22.0066  -20.4189  -12.8570 N   0  0  0  0  0  0  0  0  0  0  0  0
   26.0106  -21.1268   -9.9882 C   0  0  0  0  0  0  0  0  0  0  0  0
   26.4146  -22.3111   -9.9327 O   0  0  0  0  0  0  0  0  0  0  0  0
   28.5040  -18.3060   -5.7060 C   0  0  0  0  0  0  0  0  0  0  0  0
   28.1519  -19.4273   -6.6257 C   0  0  1  0  0  0  0  0  0  0  0  0
   29.1486  -20.5543   -6.3083 C   0  0  0  0  0  0  0  0  0  0  0  0
   26.7666  -19.8820   -6.5842 C   0  0  0  0  0  0  0  0  0  0  0  0
   26.2580  -20.9512   -7.4685 C   0  0  2  0  0  0  0  0  0  0  0  0
   26.1151  -20.3322   -8.8291 N   0  0  0  0  0  0  0  0  0  0  0  0
   24.9325  -21.4474   -7.1348 C   0  0  0  0  0  0  0  0  0  0  0  0
   23.9231  -20.9535   -7.7463 O   0  0  0  0  0  0  0  0  0  0  0  0
   24.6277  -22.4358   -6.2028 O   0  0  0  0  0  0  0  0  0  0  0  0
  2  1  1  6
  2  5  1  0
  3  2  1  0
  4  3  1  0
  5  7  1  0
  6  5  2  0
  7  8  1  0
  8  9  1  6
  9 10  1  0
 10 11  2  0
 12 11  1  0
 13 12  1  0
 14 10  1  0
 14 13  2  0
 15 22  1  0
 15  8  1  0
 16 15  2  0
 18 19  1  1
 18 17  1  0
 20 18  1  0
 21 20  1  1
 21 22  1  0
 23 21  1  0
 24 23  2  0
 25 23  1  0
M  END
$$$$
