LNN.pdb
     RDKit          3D

 25 24  0  0  1  0  0  0  0  0999 V2000
    8.8721  -12.1949   18.5242 C   0  0  0  0  0  0  0  0  0  0  0  0
    7.7896  -13.1715   18.8566 C   0  0  2  0  0  0  0  0  0  0  0  0
    7.1068  -12.6499   20.1308 C   0  0  0  0  0  0  0  0  0  0  0  0
    8.2344  -14.5590   19.1505 C   0  0  0  0  0  0  0  0  0  0  0  0
    9.0040  -15.2509   18.0702 C   0  0  2  0  0  0  0  0  0  0  0  0
    8.1647  -15.5219   16.9559 N   0  0  0  0  0  0  0  0  0  0  0  0
    9.6685  -16.4263   18.6724 C   0  0  0  0  0  0  0  0  0  0  0  0
    9.1281  -17.5609   18.4414 O   0  0  0  0  0  0  0  0  0  0  0  0
   10.5333  -18.6448   16.2226 N   0  0  0  0  0  0  0  0  0  0  0  0
   11.1650  -18.8804   17.4754 C   0  0  0  0  0  0  0  0  0  0  0  0
   10.9195  -19.9825   18.0489 O   0  0  0  0  0  0  0  0  0  0  0  0
   12.0795  -17.9252   18.1361 C   0  0  0  0  0  0  0  0  0  0  0  0
   11.6402  -17.6241   19.5633 C   0  0  2  0  0  0  0  0  0  0  0  0
   10.8243  -16.4223   19.4660 N   0  0  0  0  0  0  0  0  0  0  0  0
   12.8199  -17.4155   20.4259 C   0  0  0  0  0  0  0  0  0  0  0  0
   13.1900  -18.3611   21.1636 O   0  0  0  0  0  0  0  0  0  0  0  0
   17.2810  -14.8309   21.3049 N   0  0  0  0  0  0  0  0  0  0  0  0
   16.1486  -14.1392   20.8035 C   0  0  0  0  0  0  0  0  0  0  0  0
   16.2987  -13.3564   19.8493 O   0  0  0  0  0  0  0  0  0  0  0  0
   14.8465  -14.3562   21.4074 C   0  0  0  0  0  0  0  0  0  0  0  0
   14.4431  -15.8096   21.5045 C   0  0  2  0  0  0  0  0  0  0  0  0
   13.5439  -16.1971   20.4515 N   0  0  0  0  0  0  0  0  0  0  0  0
   13.8729  -16.1316   22.8381 C   0  0  0  0  0  0  0  0  0  0  0  0
   14.6153  -16.3629   23.8207 O   0  0  0  0  0  0  0  0  0  0  0  0
   12.5016  -16.1874   23.0423 O   0  0  0  0  0  0  0  0  0  0  0  0
  2  1  1  1
  3  2  1  0
  4  2  1  0
  4  5  1  0
  5  6  1  6
  7  5  1  0
  7  8  2  0
 10 12  1  0
 10  9  1  0
 11 10  2  0
 13 12  1  6
 13 14  1  0
 14  7  1  0
 15 13  1  0
 16 15  2  0
 18 17  1  0
 19 18  2  0
 20 18  1  0
 21 20  1  1
 21 22  1  0
 22 15  1  0
 23 21  1  0
 24 23  2  0
 25 23  1  0
M  END
$$$$
