LNN.pdb
     RDKit          3D

 25 24  0  0  1  0  0  0  0  0999 V2000
    7.9802  -12.5246   21.5355 C   0  0  0  0  0  0  0  0  0  0  0  0
    8.0746  -13.3861   20.3169 C   0  0  2  0  0  0  0  0  0  0  0  0
    7.4939  -12.5644   19.1551 C   0  0  0  0  0  0  0  0  0  0  0  0
    7.3093  -14.6595   20.3608 C   0  0  0  0  0  0  0  0  0  0  0  0
    7.3445  -15.4094   21.6549 C   0  0  2  0  0  0  0  0  0  0  0  0
    8.2103  -14.7661   22.5801 N   0  0  0  0  0  0  0  0  0  0  0  0
    7.6670  -16.8196   21.3498 C   0  0  0  0  0  0  0  0  0  0  0  0
    6.8586  -17.4279   20.5693 O   0  0  0  0  0  0  0  0  0  0  0  0
   11.2666  -18.7610   18.3656 N   0  0  0  0  0  0  0  0  0  0  0  0
    9.8552  -18.6012   18.4471 C   0  0  0  0  0  0  0  0  0  0  0  0
    9.1578  -19.1496   17.5435 O   0  0  0  0  0  0  0  0  0  0  0  0
    9.1664  -17.8424   19.5124 C   0  0  0  0  0  0  0  0  0  0  0  0
    9.5794  -18.3213   20.8984 C   0  0  2  0  0  0  0  0  0  0  0  0
    8.7631  -17.5524   21.8268 N   0  0  0  0  0  0  0  0  0  0  0  0
   11.0207  -18.0827   21.1110 C   0  0  0  0  0  0  0  0  0  0  0  0
   11.8392  -18.7894   20.4739 O   0  0  0  0  0  0  0  0  0  0  0  0
   12.9894  -18.1194   25.8097 N   0  0  0  0  0  0  0  0  0  0  0  0
   11.6807  -18.5391   25.4586 C   0  0  0  0  0  0  0  0  0  0  0  0
   11.0140  -19.1804   26.2893 O   0  0  0  0  0  0  0  0  0  0  0  0
   11.1479  -18.2148   24.1478 C   0  0  0  0  0  0  0  0  0  0  0  0
   12.0688  -17.3720   23.2958 C   0  0  2  0  0  0  0  0  0  0  0  0
   11.5099  -17.0934   22.0005 N   0  0  0  0  0  0  0  0  0  0  0  0
   13.4165  -17.9853   23.1745 C   0  0  0  0  0  0  0  0  0  0  0  0
   14.1516  -18.1364   24.1779 O   0  0  0  0  0  0  0  0  0  0  0  0
   13.9077  -18.4116   21.9487 O   0  0  0  0  0  0  0  0  0  0  0  0
  2  1  1  1
  3  2  1  0
  4  2  1  0
  4  5  1  0
  5  6  1  1
  7  5  1  0
  7  8  2  0
 10 12  1  0
 10  9  1  0
 11 10  2  0
 13 12  1  6
 13 14  1  0
 14  7  1  0
 15 13  1  0
 16 15  2  0
 18 17  1  0
 19 18  2  0
 20 18  1  0
 21 20  1  6
 21 22  1  0
 22 15  1  0
 23 21  1  0
 24 23  2  0
 25 23  1  0
M  END
$$$$
