LNN.pdb
     RDKit          3D

 25 24  0  0  1  0  0  0  0  0999 V2000
    7.9483  -13.4753   21.3348 C   0  0  0  0  0  0  0  0  0  0  0  0
    8.6451  -13.1501   20.0524 C   0  0  2  0  0  0  0  0  0  0  0  0
    8.1987  -11.7327   19.6599 C   0  0  0  0  0  0  0  0  0  0  0  0
    8.3260  -14.0308   18.8983 C   0  0  0  0  0  0  0  0  0  0  0  0
    8.7486  -15.4608   19.0195 C   0  0  2  0  0  0  0  0  0  0  0  0
    8.2788  -16.0175   20.2396 N   0  0  0  0  0  0  0  0  0  0  0  0
   10.2111  -15.5177   18.8106 C   0  0  0  0  0  0  0  0  0  0  0  0
   10.6441  -15.0321   17.7108 O   0  0  0  0  0  0  0  0  0  0  0  0
   14.8996  -14.2605   17.6286 N   0  0  0  0  0  0  0  0  0  0  0  0
   14.3163  -14.2578   18.9263 C   0  0  0  0  0  0  0  0  0  0  0  0
   15.0868  -14.0360   19.9065 O   0  0  0  0  0  0  0  0  0  0  0  0
   12.8815  -14.4953   19.1914 C   0  0  0  0  0  0  0  0  0  0  0  0
   12.5794  -15.9797   19.3527 C   0  0  2  0  0  0  0  0  0  0  0  0
   11.1651  -16.0467   19.6914 N   0  0  0  0  0  0  0  0  0  0  0  0
   13.4242  -16.5586   20.4160 C   0  0  0  0  0  0  0  0  0  0  0  0
   14.6657  -16.5920   20.2350 O   0  0  0  0  0  0  0  0  0  0  0  0
   13.2099  -21.5167   22.6901 N   0  0  0  0  0  0  0  0  0  0  0  0
   14.0893  -20.6022   22.0553 C   0  0  0  0  0  0  0  0  0  0  0  0
   15.3103  -20.8358   22.0714 O   0  0  0  0  0  0  0  0  0  0  0  0
   13.5525  -19.4212   21.4039 C   0  0  0  0  0  0  0  0  0  0  0  0
   13.4065  -18.2237   22.3144 C   0  0  2  0  0  0  0  0  0  0  0  0
   12.8893  -17.0736   21.6235 N   0  0  0  0  0  0  0  0  0  0  0  0
   14.6820  -17.9022   23.0049 C   0  0  0  0  0  0  0  0  0  0  0  0
   15.5891  -17.2621   22.4238 O   0  0  0  0  0  0  0  0  0  0  0  0
   14.9134  -18.2981   24.3146 O   0  0  0  0  0  0  0  0  0  0  0  0
  2  1  1  1
  3  2  1  0
  4  2  1  0
  4  5  1  0
  5  6  1  1
  7  5  1  0
  7  8  2  0
 10 12  1  0
 10  9  1  0
 11 10  2  0
 13 12  1  1
 13 14  1  0
 14  7  1  0
 15 13  1  0
 16 15  2  0
 18 17  1  0
 19 18  2  0
 20 18  1  0
 21 20  1  6
 21 22  1  0
 22 15  1  0
 23 21  1  0
 24 23  2  0
 25 23  1  0
M  END
$$$$
