LNN.pdb
     RDKit          3D

 25 24  0  0  1  0  0  0  0  0999 V2000
    7.0098  -13.5435   20.6169 C   0  0  0  0  0  0  0  0  0  0  0  0
    8.2961  -12.8798   20.2415 C   0  0  2  0  0  0  0  0  0  0  0  0
    7.9244  -11.6629   19.3794 C   0  0  0  0  0  0  0  0  0  0  0  0
    9.2388  -13.6991   19.4356 C   0  0  0  0  0  0  0  0  0  0  0  0
    9.7671  -14.9365   20.0898 C   0  0  2  0  0  0  0  0  0  0  0  0
    9.7496  -14.7988   21.5041 N   0  0  0  0  0  0  0  0  0  0  0  0
   11.0857  -15.2346   19.4915 C   0  0  0  0  0  0  0  0  0  0  0  0
   11.0718  -15.8373   18.3649 O   0  0  0  0  0  0  0  0  0  0  0  0
   15.3289  -14.6778   16.6810 N   0  0  0  0  0  0  0  0  0  0  0  0
   15.2038  -13.9443   17.8936 C   0  0  0  0  0  0  0  0  0  0  0  0
   16.2360  -13.3446   18.3162 O   0  0  0  0  0  0  0  0  0  0  0  0
   13.9542  -13.8434   18.6770 C   0  0  0  0  0  0  0  0  0  0  0  0
   13.5475  -15.1909   19.2598 C   0  0  2  0  0  0  0  0  0  0  0  0
   12.3421  -14.9248   20.0315 N   0  0  0  0  0  0  0  0  0  0  0  0
   14.6313  -15.7274   20.1066 C   0  0  0  0  0  0  0  0  0  0  0  0
   15.6939  -16.0940   19.5484 O   0  0  0  0  0  0  0  0  0  0  0  0
   17.2392  -15.1581   21.3043 N   0  0  0  0  0  0  0  0  0  0  0  0
   17.1781  -15.2974   22.7147 C   0  0  0  0  0  0  0  0  0  0  0  0
   18.0093  -14.6917   23.4132 O   0  0  0  0  0  0  0  0  0  0  0  0
   16.1551  -16.1368   23.3117 C   0  0  0  0  0  0  0  0  0  0  0  0
   15.2359  -16.7995   22.3116 C   0  0  2  0  0  0  0  0  0  0  0  0
   14.5169  -15.8425   21.5148 N   0  0  0  0  0  0  0  0  0  0  0  0
   14.3050  -17.7515   22.9706 C   0  0  0  0  0  0  0  0  0  0  0  0
   13.2862  -17.3458   23.5767 O   0  0  0  0  0  0  0  0  0  0  0  0
   14.5303  -19.1203   22.9381 O   0  0  0  0  0  0  0  0  0  0  0  0
  2  1  1  6
  3  2  1  0
  4  2  1  0
  4  5  1  0
  5  6  1  1
  7  5  1  0
  7  8  2  0
 10 12  1  0
 10  9  1  0
 11 10  2  0
 13 12  1  1
 13 14  1  0
 14  7  1  0
 15 13  1  0
 16 15  2  0
 18 17  1  0
 19 18  2  0
 20 18  1  0
 21 20  1  1
 21 22  1  0
 22 15  1  0
 23 21  1  0
 24 23  2  0
 25 23  1  0
M  END
$$$$
