LNN.pdb
     RDKit          3D

 25 24  0  0  1  0  0  0  0  0999 V2000
    6.0489  -12.3099   25.3799 C   0  0  0  0  0  0  0  0  0  0  0  0
    6.5932  -13.1364   26.5009 C   0  0  2  0  0  0  0  0  0  0  0  0
    7.4978  -12.2092   27.3280 C   0  0  0  0  0  0  0  0  0  0  0  0
    7.4277  -14.3006   26.1039 C   0  0  0  0  0  0  0  0  0  0  0  0
    6.8115  -15.2569   25.1324 C   0  0  2  0  0  0  0  0  0  0  0  0
    5.9188  -16.1388   25.7995 N   0  0  0  0  0  0  0  0  0  0  0  0
    7.9074  -15.9035   24.3798 C   0  0  0  0  0  0  0  0  0  0  0  0
    8.0471  -17.1616   24.5540 O   0  0  0  0  0  0  0  0  0  0  0  0
    9.7194  -17.1391   19.4087 N   0  0  0  0  0  0  0  0  0  0  0  0
   10.1420  -15.9810   20.1190 C   0  0  0  0  0  0  0  0  0  0  0  0
   11.2570  -15.4771   19.7928 O   0  0  0  0  0  0  0  0  0  0  0  0
    9.3636  -15.3412   21.2006 C   0  0  0  0  0  0  0  0  0  0  0  0
    9.5325  -16.0772   22.5237 C   0  0  2  0  0  0  0  0  0  0  0  0
    8.8033  -15.2801   23.4996 N   0  0  0  0  0  0  0  0  0  0  0  0
   10.9643  -16.1857   22.8668 C   0  0  0  0  0  0  0  0  0  0  0  0
   11.7269  -16.7626   22.0539 O   0  0  0  0  0  0  0  0  0  0  0  0
   13.2285  -18.9595   27.0971 N   0  0  0  0  0  0  0  0  0  0  0  0
   12.2999  -17.9248   26.8153 C   0  0  0  0  0  0  0  0  0  0  0  0
   11.8299  -17.2678   27.7604 O   0  0  0  0  0  0  0  0  0  0  0  0
   11.9191  -17.6536   25.4410 C   0  0  0  0  0  0  0  0  0  0  0  0
   12.4631  -16.3547   24.8921 C   0  0  2  0  0  0  0  0  0  0  0  0
   11.5047  -15.6666   24.0700 N   0  0  0  0  0  0  0  0  0  0  0  0
   13.7409  -16.5608   24.1628 C   0  0  0  0  0  0  0  0  0  0  0  0
   14.7754  -15.9278   24.4778 O   0  0  0  0  0  0  0  0  0  0  0  0
   13.8338  -17.4596   23.1097 O   0  0  0  0  0  0  0  0  0  0  0  0
  2  1  1  6
  3  2  1  0
  4  2  1  0
  4  5  1  0
  5  6  1  1
  7  5  1  0
  7  8  2  0
 10 12  1  0
 10  9  1  0
 11 10  2  0
 13 12  1  6
 13 14  1  0
 14  7  1  0
 15 13  1  0
 16 15  2  0
 18 17  1  0
 19 18  2  0
 20 18  1  0
 21 20  1  6
 21 22  1  0
 22 15  1  0
 23 21  1  0
 24 23  2  0
 25 23  1  0
M  END
$$$$
