WFF.pdb
     RDKit          3D

 37 40  0  0  1  0  0  0  0  0999 V2000
   27.4454  -21.1467  -17.0133 N   0  0  0  0  0  0  0  0  0  0  0  0
   27.3913  -20.2066  -15.9226 C   0  0  1  0  0  0  0  0  0  0  0  0
   26.4723  -19.0194  -16.2090 C   0  0  0  0  0  0  0  0  0  0  0  0
   27.0293  -18.2671  -17.3586 C   0  0  0  0  0  0  0  0  0  0  0  0
   26.3330  -17.8992  -18.5194 C   0  0  0  0  0  0  0  0  0  0  0  0
   27.1729  -17.2637  -19.3401 N   0  0  0  0  0  0  0  0  0  0  0  0
   28.4082  -17.1743  -18.8063 C   0  0  0  0  0  0  0  0  0  0  0  0
   29.5892  -16.6164  -19.2517 C   0  0  0  0  0  0  0  0  0  0  0  0
   30.6965  -16.6867  -18.4425 C   0  0  0  0  0  0  0  0  0  0  0  0
   30.6323  -17.2996  -17.2133 C   0  0  0  0  0  0  0  0  0  0  0  0
   29.4454  -17.8565  -16.7740 C   0  0  0  0  0  0  0  0  0  0  0  0
   28.3115  -17.8050  -17.5630 C   0  0  0  0  0  0  0  0  0  0  0  0
   26.9278  -20.7952  -14.6508 C   0  0  0  0  0  0  0  0  0  0  0  0
   26.2038  -21.8061  -14.6620 O   0  0  0  0  0  0  0  0  0  0  0  0
   27.3126  -20.2058  -13.4363 N   0  0  0  0  0  0  0  0  0  0  0  0
   26.7855  -20.7551  -12.1752 C   0  0  1  0  0  0  0  0  0  0  0  0
   27.5728  -20.1090  -11.0840 C   0  0  0  0  0  0  0  0  0  0  0  0
   27.0775  -20.2809   -9.7110 C   0  0  0  0  0  0  0  0  0  0  0  0
   26.2193  -19.3902   -9.1159 C   0  0  0  0  0  0  0  0  0  0  0  0
   25.7952  -19.5902   -7.8188 C   0  0  0  0  0  0  0  0  0  0  0  0
   26.1974  -20.6620   -7.0736 C   0  0  0  0  0  0  0  0  0  0  0  0
   27.0523  -21.5577   -7.6547 C   0  0  0  0  0  0  0  0  0  0  0  0
   27.4761  -21.3667   -8.9366 C   0  0  0  0  0  0  0  0  0  0  0  0
   25.3463  -20.4738  -12.1453 C   0  0  0  0  0  0  0  0  0  0  0  0
   24.9698  -19.3126  -12.5535 O   0  0  0  0  0  0  0  0  0  0  0  0
   24.3083  -21.3382  -11.7237 N   0  0  0  0  0  0  0  0  0  0  0  0
   22.9103  -20.9242  -11.8876 C   0  0  1  0  0  0  0  0  0  0  0  0
   22.2697  -21.8665  -12.9064 C   0  0  0  0  0  0  0  0  0  0  0  0
   20.8305  -21.6405  -13.0582 C   0  0  0  0  0  0  0  0  0  0  0  0
   19.9246  -22.1401  -12.1505 C   0  0  0  0  0  0  0  0  0  0  0  0
   18.5801  -21.8835  -12.3497 C   0  0  0  0  0  0  0  0  0  0  0  0
   18.1095  -21.1483  -13.4197 C   0  0  0  0  0  0  0  0  0  0  0  0
   19.0178  -20.6411  -14.3397 C   0  0  0  0  0  0  0  0  0  0  0  0
   20.3555  -20.9012  -14.1341 C   0  0  0  0  0  0  0  0  0  0  0  0
   22.2272  -21.0215  -10.6043 C   0  0  0  0  0  0  0  0  0  0  0  0
   22.6296  -21.8384   -9.7459 O   0  0  0  0  0  0  0  0  0  0  0  0
   21.1469  -20.2341  -10.3098 O   0  0  0  0  0  0  0  0  0  0  0  0
  2  1  1  6
  3  2  1  0
  4  5  2  0
  4  3  1  0
  6  5  1  0
  7 12  2  0
  7  6  1  0
  8  7  1  0
  9 10  1  0
  9  8  2  0
 10 11  2  0
 11 12  1  0
 12  4  1  0
 13  2  1  0
 14 13  2  0
 15 13  1  0
 16 24  1  0
 16 15  1  0
 16 17  1  1
 18 17  1  0
 19 18  2  0
 20 19  1  0
 21 20  2  0
 21 22  1  0
 22 23  2  0
 23 18  1  0
 24 26  1  0
 25 24  2  0
 26 27  1  0
 27 28  1  6
 28 29  1  0
 29 30  2  0
 29 34  1  0
 30 31  1  0
 31 32  2  0
 33 32  1  0
 34 33  2  0
 35 37  1  0
 35 27  1  0
 36 35  2  0
M  END
$$$$
