WFF.pdb
     RDKit          3D

 37 40  0  0  1  0  0  0  0  0999 V2000
   36.3124  -26.6927    4.0432 N   0  0  0  0  0  0  0  0  0  0  0  0
   36.2703  -25.4209    4.7193 C   0  0  1  0  0  0  0  0  0  0  0  0
   34.9749  -25.2089    5.5023 C   0  0  0  0  0  0  0  0  0  0  0  0
   33.9079  -24.8356    4.5431 C   0  0  0  0  0  0  0  0  0  0  0  0
   33.1653  -25.7219    3.7488 C   0  0  0  0  0  0  0  0  0  0  0  0
   32.3231  -25.0157    2.9908 N   0  0  0  0  0  0  0  0  0  0  0  0
   32.4459  -23.6925    3.2213 C   0  0  0  0  0  0  0  0  0  0  0  0
   31.8079  -22.5828    2.7055 C   0  0  0  0  0  0  0  0  0  0  0  0
   32.1672  -21.3417    3.1707 C   0  0  0  0  0  0  0  0  0  0  0  0
   33.1420  -21.2050    4.1308 C   0  0  0  0  0  0  0  0  0  0  0  0
   33.7769  -22.3216    4.6425 C   0  0  0  0  0  0  0  0  0  0  0  0
   33.4412  -23.5861    4.1964 C   0  0  0  0  0  0  0  0  0  0  0  0
   37.3745  -25.2186    5.6777 C   0  0  0  0  0  0  0  0  0  0  0  0
   37.6379  -26.0983    6.5162 O   0  0  0  0  0  0  0  0  0  0  0  0
   38.1203  -24.0302    5.6311 N   0  0  0  0  0  0  0  0  0  0  0  0
   39.1523  -23.7920    6.6549 C   0  0  1  0  0  0  0  0  0  0  0  0
   40.1855  -22.9324    6.0056 C   0  0  0  0  0  0  0  0  0  0  0  0
   41.2666  -22.4249    6.8621 C   0  0  0  0  0  0  0  0  0  0  0  0
   41.3308  -21.1185    7.2783 C   0  0  0  0  0  0  0  0  0  0  0  0
   42.3752  -20.6890    8.0702 C   0  0  0  0  0  0  0  0  0  0  0  0
   43.3792  -21.5225    8.4740 C   0  0  0  0  0  0  0  0  0  0  0  0
   43.3272  -22.8272    8.0667 C   0  0  0  0  0  0  0  0  0  0  0  0
   42.2980  -23.2592    7.2836 C   0  0  0  0  0  0  0  0  0  0  0  0
   38.4860  -23.1856    7.8124 C   0  0  0  0  0  0  0  0  0  0  0  0
   37.4231  -22.4978    7.5799 O   0  0  0  0  0  0  0  0  0  0  0  0
   38.8711  -23.2725    9.1713 N   0  0  0  0  0  0  0  0  0  0  0  0
   37.9057  -22.9272   10.2207 C   0  0  1  0  0  0  0  0  0  0  0  0
   36.6522  -23.7696    9.9856 C   0  0  0  0  0  0  0  0  0  0  0  0
   35.7057  -23.6976   11.1011 C   0  0  0  0  0  0  0  0  0  0  0  0
   35.7370  -24.6105   12.1306 C   0  0  0  0  0  0  0  0  0  0  0  0
   34.8188  -24.4805   13.1569 C   0  0  0  0  0  0  0  0  0  0  0  0
   33.8734  -23.4746   13.1915 C   0  0  0  0  0  0  0  0  0  0  0  0
   33.8357  -22.5499   12.1560 C   0  0  0  0  0  0  0  0  0  0  0  0
   34.7539  -22.6864   11.1374 C   0  0  0  0  0  0  0  0  0  0  0  0
   38.4846  -23.2283   11.5235 C   0  0  0  0  0  0  0  0  0  0  0  0
   39.4026  -24.0737   11.6156 O   0  0  0  0  0  0  0  0  0  0  0  0
   38.0470  -22.6036   12.6601 O   0  0  0  0  0  0  0  0  0  0  0  0
  2  1  1  1
  3  2  1  0
  4  5  2  0
  4  3  1  0
  6  5  1  0
  7 12  2  0
  7  6  1  0
  8  7  1  0
  9 10  1  0
  9  8  2  0
 10 11  2  0
 11 12  1  0
 12  4  1  0
 13  2  1  0
 14 13  2  0
 15 13  1  0
 16 24  1  0
 16 15  1  0
 16 17  1  6
 18 17  1  0
 19 18  2  0
 20 19  1  0
 21 20  2  0
 21 22  1  0
 22 23  2  0
 23 18  1  0
 24 26  1  0
 25 24  2  0
 26 27  1  0
 27 28  1  6
 28 29  1  0
 29 30  2  0
 29 34  1  0
 30 31  1  0
 31 32  2  0
 33 32  1  0
 34 33  2  0
 35 37  1  0
 35 27  1  0
 36 35  2  0
M  END
$$$$
