WFF.pdb
     RDKit          3D

 37 40  0  0  1  0  0  0  0  0999 V2000
   28.6865  -21.1295  -15.0569 N   0  0  0  0  0  0  0  0  0  0  0  0
   27.6309  -20.2841  -14.5597 C   0  0  1  0  0  0  0  0  0  0  0  0
   26.6232  -19.8965  -15.6416 C   0  0  0  0  0  0  0  0  0  0  0  0
   27.2113  -18.8057  -16.4551 C   0  0  0  0  0  0  0  0  0  0  0  0
   27.8331  -18.9510  -17.7042 C   0  0  0  0  0  0  0  0  0  0  0  0
   28.2655  -17.7547  -18.1097 N   0  0  0  0  0  0  0  0  0  0  0  0
   27.9741  -16.7951  -17.2080 C   0  0  0  0  0  0  0  0  0  0  0  0
   28.2000  -15.4340  -17.1738 C   0  0  0  0  0  0  0  0  0  0  0  0
   27.7570  -14.7206  -16.0872 C   0  0  0  0  0  0  0  0  0  0  0  0
   27.1015  -15.3471  -15.0535 C   0  0  0  0  0  0  0  0  0  0  0  0
   26.8792  -16.7112  -15.0949 C   0  0  0  0  0  0  0  0  0  0  0  0
   27.3124  -17.4606  -16.1726 C   0  0  0  0  0  0  0  0  0  0  0  0
   26.8514  -20.8878  -13.4611 C   0  0  0  0  0  0  0  0  0  0  0  0
   26.5440  -22.0918  -13.5066 O   0  0  0  0  0  0  0  0  0  0  0  0
   26.4650  -20.0927  -12.3706 N   0  0  0  0  0  0  0  0  0  0  0  0
   25.4977  -20.6314  -11.3990 C   0  0  1  0  0  0  0  0  0  0  0  0
   25.7093  -19.8619  -10.1377 C   0  0  0  0  0  0  0  0  0  0  0  0
   26.8472  -20.2583   -9.2961 C   0  0  0  0  0  0  0  0  0  0  0  0
   26.9625  -19.8825   -7.9810 C   0  0  0  0  0  0  0  0  0  0  0  0
   28.0584  -20.2694   -7.2383 C   0  0  0  0  0  0  0  0  0  0  0  0
   29.0653  -21.0308   -7.7602 C   0  0  0  0  0  0  0  0  0  0  0  0
   28.9627  -21.4126   -9.0696 C   0  0  0  0  0  0  0  0  0  0  0  0
   27.8824  -21.0339   -9.8103 C   0  0  0  0  0  0  0  0  0  0  0  0
   24.1625  -20.4903  -11.9894 C   0  0  0  0  0  0  0  0  0  0  0  0
   23.8177  -19.3127  -12.3783 O   0  0  0  0  0  0  0  0  0  0  0  0
   23.1985  -21.5061  -12.1924 N   0  0  0  0  0  0  0  0  0  0  0  0
   21.9343  -21.1809  -12.8621 C   0  0  1  0  0  0  0  0  0  0  0  0
   21.9988  -21.7665  -14.2725 C   0  0  0  0  0  0  0  0  0  0  0  0
   22.2886  -23.2023  -14.2753 C   0  0  0  0  0  0  0  0  0  0  0  0
   21.2997  -24.1359  -14.0637 C   0  0  0  0  0  0  0  0  0  0  0  0
   21.6408  -25.4762  -14.0865 C   0  0  0  0  0  0  0  0  0  0  0  0
   22.9302  -25.9159  -14.3122 C   0  0  0  0  0  0  0  0  0  0  0  0
   23.9333  -24.9797  -14.5263 C   0  0  0  0  0  0  0  0  0  0  0  0
   23.5853  -23.6464  -14.5020 C   0  0  0  0  0  0  0  0  0  0  0  0
   20.8303  -21.7705  -12.1160 C   0  0  0  0  0  0  0  0  0  0  0  0
   19.6517  -21.5643  -12.4825 O   0  0  0  0  0  0  0  0  0  0  0  0
   21.0510  -22.5527  -11.0147 O   0  0  0  0  0  0  0  0  0  0  0  0
  2  1  1  6
  3  2  1  0
  4  5  2  0
  4  3  1  0
  6  5  1  0
  7 12  2  0
  7  6  1  0
  8  7  1  0
  9 10  1  0
  9  8  2  0
 10 11  2  0
 11 12  1  0
 12  4  1  0
 13  2  1  0
 14 13  2  0
 15 13  1  0
 16 24  1  0
 16 15  1  0
 16 17  1  1
 18 17  1  0
 19 18  2  0
 20 19  1  0
 21 20  2  0
 21 22  1  0
 22 23  2  0
 23 18  1  0
 24 26  1  0
 25 24  2  0
 26 27  1  0
 27 28  1  6
 28 29  1  0
 29 30  2  0
 29 34  1  0
 30 31  1  0
 31 32  2  0
 33 32  1  0
 34 33  2  0
 35 37  1  0
 35 27  1  0
 36 35  2  0
M  END
$$$$
