WFF.pdb
     RDKit          3D

 37 40  0  0  1  0  0  0  0  0999 V2000
   26.8093  -19.3284  -11.4616 N   0  0  0  0  0  0  0  0  0  0  0  0
   26.5862  -20.7519  -11.4752 C   0  0  1  0  0  0  0  0  0  0  0  0
   25.9924  -21.2709  -10.1660 C   0  0  0  0  0  0  0  0  0  0  0  0
   26.7644  -20.6884   -9.0424 C   0  0  0  0  0  0  0  0  0  0  0  0
   26.2480  -19.8833   -8.0162 C   0  0  0  0  0  0  0  0  0  0  0  0
   27.2487  -19.5232   -7.2090 N   0  0  0  0  0  0  0  0  0  0  0  0
   28.4244  -20.0374   -7.6240 C   0  0  0  0  0  0  0  0  0  0  0  0
   29.7123  -19.9602   -7.1340 C   0  0  0  0  0  0  0  0  0  0  0  0
   30.7114  -20.6248   -7.8020 C   0  0  0  0  0  0  0  0  0  0  0  0
   30.4367  -21.3528   -8.9357 C   0  0  0  0  0  0  0  0  0  0  0  0
   29.1438  -21.4251   -9.4207 C   0  0  0  0  0  0  0  0  0  0  0  0
   28.1139  -20.7679   -8.7742 C   0  0  0  0  0  0  0  0  0  0  0  0
   25.6816  -21.2031  -12.5509 C   0  0  0  0  0  0  0  0  0  0  0  0
   24.6985  -20.5104  -12.8667 O   0  0  0  0  0  0  0  0  0  0  0  0
   25.9432  -22.4144  -13.2103 N   0  0  0  0  0  0  0  0  0  0  0  0
   25.1101  -22.7962  -14.3636 C   0  0  1  0  0  0  0  0  0  0  0  0
   25.8933  -23.8198  -15.1163 C   0  0  0  0  0  0  0  0  0  0  0  0
   25.2119  -24.4981  -16.2279 C   0  0  0  0  0  0  0  0  0  0  0  0
   24.9695  -23.8860  -17.4323 C   0  0  0  0  0  0  0  0  0  0  0  0
   24.3128  -24.5625  -18.4390 C   0  0  0  0  0  0  0  0  0  0  0  0
   23.8787  -25.8496  -18.2947 C   0  0  0  0  0  0  0  0  0  0  0  0
   24.1143  -26.4716  -17.0995 C   0  0  0  0  0  0  0  0  0  0  0  0
   24.7627  -25.8092  -16.0994 C   0  0  0  0  0  0  0  0  0  0  0  0
   23.8259  -23.2693  -13.8359 C   0  0  0  0  0  0  0  0  0  0  0  0
   23.8691  -24.1196  -12.8706 O   0  0  0  0  0  0  0  0  0  0  0  0
   22.5292  -22.8936  -14.2602 N   0  0  0  0  0  0  0  0  0  0  0  0
   21.3553  -23.5125  -13.6344 C   0  0  1  0  0  0  0  0  0  0  0  0
   20.6834  -22.4480  -12.7676 C   0  0  0  0  0  0  0  0  0  0  0  0
   19.4269  -22.9124  -12.1751 C   0  0  0  0  0  0  0  0  0  0  0  0
   19.4133  -23.7778  -11.1050 C   0  0  0  0  0  0  0  0  0  0  0  0
   18.1916  -24.1712  -10.5892 C   0  0  0  0  0  0  0  0  0  0  0  0
   16.9870  -23.7326  -11.1024 C   0  0  0  0  0  0  0  0  0  0  0  0
   16.9929  -22.8594  -12.1823 C   0  0  0  0  0  0  0  0  0  0  0  0
   18.2142  -22.4723  -12.6903 C   0  0  0  0  0  0  0  0  0  0  0  0
   20.4438  -23.9725  -14.6739 C   0  0  0  0  0  0  0  0  0  0  0  0
   20.3253  -23.3156  -15.7324 O   0  0  0  0  0  0  0  0  0  0  0  0
   19.7075  -25.1163  -14.5219 O   0  0  0  0  0  0  0  0  0  0  0  0
  2  1  1  1
  3  2  1  0
  4  5  2  0
  4  3  1  0
  6  5  1  0
  7 12  2  0
  7  6  1  0
  8  7  1  0
  9 10  1  0
  9  8  2  0
 10 11  2  0
 11 12  1  0
 12  4  1  0
 13  2  1  0
 14 13  2  0
 15 13  1  0
 16 24  1  0
 16 15  1  0
 16 17  1  1
 18 17  1  0
 19 18  2  0
 20 19  1  0
 21 20  2  0
 21 22  1  0
 22 23  2  0
 23 18  1  0
 24 26  1  0
 25 24  2  0
 26 27  1  0
 27 28  1  1
 28 29  1  0
 29 30  2  0
 29 34  1  0
 30 31  1  0
 31 32  2  0
 33 32  1  0
 34 33  2  0
 35 37  1  0
 35 27  1  0
 36 35  2  0
M  END
$$$$
