WFF.pdb
     RDKit          3D

 37 40  0  0  1  0  0  0  0  0999 V2000
   27.6104  -21.7942  -16.9777 N   0  0  0  0  0  0  0  0  0  0  0  0
   26.5166  -21.3774  -16.1374 C   0  0  1  0  0  0  0  0  0  0  0  0
   25.1745  -21.9598  -16.5798 C   0  0  0  0  0  0  0  0  0  0  0  0
   24.8418  -21.4009  -17.9119 C   0  0  0  0  0  0  0  0  0  0  0  0
   25.5788  -21.5845  -19.0914 C   0  0  0  0  0  0  0  0  0  0  0  0
   24.9884  -20.9034  -20.0763 N   0  0  0  0  0  0  0  0  0  0  0  0
   23.8856  -20.2623  -19.6383 C   0  0  0  0  0  0  0  0  0  0  0  0
   22.9549  -19.4554  -20.2607 C   0  0  0  0  0  0  0  0  0  0  0  0
   21.9156  -18.9543  -19.5158 C   0  0  0  0  0  0  0  0  0  0  0  0
   21.8025  -19.2490  -18.1775 C   0  0  0  0  0  0  0  0  0  0  0  0
   22.7392  -20.0580  -17.5610 C   0  0  0  0  0  0  0  0  0  0  0  0
   23.7987  -20.5788  -18.2800 C   0  0  0  0  0  0  0  0  0  0  0  0
   26.6825  -21.7445  -14.7173 C   0  0  0  0  0  0  0  0  0  0  0  0
   26.7038  -22.9423  -14.3841 O   0  0  0  0  0  0  0  0  0  0  0  0
   26.8168  -20.7326  -13.7537 N   0  0  0  0  0  0  0  0  0  0  0  0
   26.8508  -21.1017  -12.3280 C   0  0  1  0  0  0  0  0  0  0  0  0
   27.4528  -19.9365  -11.6155 C   0  0  0  0  0  0  0  0  0  0  0  0
   27.6559  -20.0718  -10.1662 C   0  0  0  0  0  0  0  0  0  0  0  0
   26.8535  -19.4474   -9.2441 C   0  0  0  0  0  0  0  0  0  0  0  0
   27.0957  -19.5954   -7.8944 C   0  0  0  0  0  0  0  0  0  0  0  0
   28.1242  -20.3551   -7.4137 C   0  0  0  0  0  0  0  0  0  0  0  0
   28.9314  -20.9833   -8.3218 C   0  0  0  0  0  0  0  0  0  0  0  0
   28.6983  -20.8415   -9.6578 C   0  0  0  0  0  0  0  0  0  0  0  0
   25.4769  -21.4245  -11.9286 C   0  0  0  0  0  0  0  0  0  0  0  0
   25.2812  -21.7105  -10.6890 O   0  0  0  0  0  0  0  0  0  0  0  0
   24.3250  -21.4525  -12.7501 N   0  0  0  0  0  0  0  0  0  0  0  0
   22.9969  -21.3284  -12.1390 C   0  0  1  0  0  0  0  0  0  0  0  0
   22.6499  -19.8405  -12.0950 C   0  0  0  0  0  0  0  0  0  0  0  0
   22.3905  -19.2814  -13.4237 C   0  0  0  0  0  0  0  0  0  0  0  0
   21.1104  -19.1557  -13.9135 C   0  0  0  0  0  0  0  0  0  0  0  0
   20.9357  -18.6126  -15.1735 C   0  0  0  0  0  0  0  0  0  0  0  0
   21.9904  -18.1921  -15.9595 C   0  0  0  0  0  0  0  0  0  0  0  0
   23.2848  -18.3160  -15.4720 C   0  0  0  0  0  0  0  0  0  0  0  0
   23.4504  -18.8581  -14.2157 C   0  0  0  0  0  0  0  0  0  0  0  0
   22.0265  -22.0539  -12.9483 C   0  0  0  0  0  0  0  0  0  0  0  0
   20.8301  -22.1078  -12.5851 O   0  0  0  0  0  0  0  0  0  0  0  0
   22.3926  -22.6831  -14.1075 O   0  0  0  0  0  0  0  0  0  0  0  0
  2  1  1  6
  3  2  1  0
  4  5  2  0
  4  3  1  0
  6  5  1  0
  7 12  2  0
  7  6  1  0
  8  7  1  0
  9 10  1  0
  9  8  2  0
 10 11  2  0
 11 12  1  0
 12  4  1  0
 13  2  1  0
 14 13  2  0
 15 13  1  0
 16 24  1  0
 16 15  1  0
 16 17  1  1
 18 17  1  0
 19 18  2  0
 20 19  1  0
 21 20  2  0
 21 22  1  0
 22 23  2  0
 23 18  1  0
 24 26  1  0
 25 24  2  0
 26 27  1  0
 27 28  1  6
 28 29  1  0
 29 30  2  0
 29 34  1  0
 30 31  1  0
 31 32  2  0
 33 32  1  0
 34 33  2  0
 35 37  1  0
 35 27  1  0
 36 35  2  0
M  END
$$$$
