WFF.pdb
     RDKit          3D

 37 40  0  0  1  0  0  0  0  0999 V2000
   28.1107  -21.8564  -17.0714 N   0  0  0  0  0  0  0  0  0  0  0  0
   27.5520  -20.8324  -16.2254 C   0  0  1  0  0  0  0  0  0  0  0  0
   26.2722  -20.2240  -16.7982 C   0  0  0  0  0  0  0  0  0  0  0  0
   26.6382  -19.3831  -17.9630 C   0  0  0  0  0  0  0  0  0  0  0  0
   26.2911  -19.6289  -19.2998 C   0  0  0  0  0  0  0  0  0  0  0  0
   26.8267  -18.6743  -20.0643 N   0  0  0  0  0  0  0  0  0  0  0  0
   27.5224  -17.7856  -19.3259 C   0  0  0  0  0  0  0  0  0  0  0  0
   28.2332  -16.6466  -19.6450 C   0  0  0  0  0  0  0  0  0  0  0  0
   28.8335  -15.9401  -18.6318 C   0  0  0  0  0  0  0  0  0  0  0  0
   28.7296  -16.3569  -17.3256 C   0  0  0  0  0  0  0  0  0  0  0  0
   28.0159  -17.4993  -17.0138 C   0  0  0  0  0  0  0  0  0  0  0  0
   27.3998  -18.2354  -18.0085 C   0  0  0  0  0  0  0  0  0  0  0  0
   27.2191  -21.2990  -14.8651 C   0  0  0  0  0  0  0  0  0  0  0  0
   26.6291  -22.3822  -14.7074 O   0  0  0  0  0  0  0  0  0  0  0  0
   27.5754  -20.5120  -13.7587 N   0  0  0  0  0  0  0  0  0  0  0  0
   27.2075  -20.9685  -12.4073 C   0  0  1  0  0  0  0  0  0  0  0  0
   28.0552  -20.1829  -11.4626 C   0  0  0  0  0  0  0  0  0  0  0  0
   27.7954  -20.3597  -10.0269 C   0  0  0  0  0  0  0  0  0  0  0  0
   28.5003  -21.2449   -9.2499 C   0  0  0  0  0  0  0  0  0  0  0  0
   28.2074  -21.3834   -7.9093 C   0  0  0  0  0  0  0  0  0  0  0  0
   27.2221  -20.6626   -7.2964 C   0  0  0  0  0  0  0  0  0  0  0  0
   26.5122  -19.7765   -8.0591 C   0  0  0  0  0  0  0  0  0  0  0  0
   26.7958  -19.6341   -9.3852 C   0  0  0  0  0  0  0  0  0  0  0  0
   25.7634  -20.7620  -12.2557 C   0  0  0  0  0  0  0  0  0  0  0  0
   25.2611  -19.7174  -12.8155 O   0  0  0  0  0  0  0  0  0  0  0  0
   24.8430  -21.5864  -11.5661 N   0  0  0  0  0  0  0  0  0  0  0  0
   23.4247  -21.2127  -11.5269 C   0  0  1  0  0  0  0  0  0  0  0  0
   22.6479  -22.2804  -12.2968 C   0  0  0  0  0  0  0  0  0  0  0  0
   21.1976  -22.0919  -12.2165 C   0  0  0  0  0  0  0  0  0  0  0  0
   20.4425  -22.7243  -11.2552 C   0  0  0  0  0  0  0  0  0  0  0  0
   19.0784  -22.4966  -11.2313 C   0  0  0  0  0  0  0  0  0  0  0  0
   18.4435  -21.6626  -12.1304 C   0  0  0  0  0  0  0  0  0  0  0  0
   19.1990  -21.0213  -13.1032 C   0  0  0  0  0  0  0  0  0  0  0  0
   20.5573  -21.2534  -13.1203 C   0  0  0  0  0  0  0  0  0  0  0  0
   22.9802  -21.1604  -10.1402 C   0  0  0  0  0  0  0  0  0  0  0  0
   22.0626  -20.3761   -9.8105 O   0  0  0  0  0  0  0  0  0  0  0  0
   23.5450  -21.9554   -9.1797 O   0  0  0  0  0  0  0  0  0  0  0  0
  2  1  1  6
  3  2  1  0
  4  5  2  0
  4  3  1  0
  6  5  1  0
  7 12  2  0
  7  6  1  0
  8  7  1  0
  9 10  1  0
  9  8  2  0
 10 11  2  0
 11 12  1  0
 12  4  1  0
 13  2  1  0
 14 13  2  0
 15 13  1  0
 16 24  1  0
 16 15  1  0
 16 17  1  1
 18 17  1  0
 19 18  2  0
 20 19  1  0
 21 20  2  0
 21 22  1  0
 22 23  2  0
 23 18  1  0
 24 26  1  0
 25 24  2  0
 26 27  1  0
 27 28  1  6
 28 29  1  0
 29 30  2  0
 29 34  1  0
 30 31  1  0
 31 32  2  0
 33 32  1  0
 34 33  2  0
 35 37  1  0
 35 27  1  0
 36 35  2  0
M  END
$$$$
