AQC.pdb
     RDKit          3D

 21 20  0  0  1  0  0  0  0  0999 V2000
   14.8723  -11.9856  -12.1216 C   0  0  0  0  0  0  0  0  0  0  0  0
   14.4039  -11.3211  -10.8533 C   0  0  2  0  0  0  0  0  0  0  0  0
   12.9419  -11.4637  -10.8226 N   0  0  0  0  0  0  0  0  0  0  0  0
   14.7067   -9.8814  -10.8127 C   0  0  0  0  0  0  0  0  0  0  0  0
   13.9956   -9.1291  -11.5523 O   0  0  0  0  0  0  0  0  0  0  0  0
   14.8890   -4.9888   -8.8999 N   0  0  0  0  0  0  0  0  0  0  0  0
   14.1261   -5.9552   -8.2142 C   0  0  0  0  0  0  0  0  0  0  0  0
   12.9742   -5.6367   -7.8404 O   0  0  0  0  0  0  0  0  0  0  0  0
   14.7032   -7.3259   -7.9508 C   0  0  0  0  0  0  0  0  0  0  0  0
   16.0335   -7.3825   -8.6247 C   0  0  0  0  0  0  0  0  0  0  0  0
   15.9554   -7.8292  -10.0629 C   0  0  2  0  0  0  0  0  0  0  0  0
   15.7070   -9.2857  -10.0299 N   0  0  0  0  0  0  0  0  0  0  0  0
   17.1793   -7.5490  -10.8161 C   0  0  0  0  0  0  0  0  0  0  0  0
   18.2872   -7.9330  -10.3935 O   0  0  0  0  0  0  0  0  0  0  0  0
   17.1412   -6.8359  -12.0432 N   0  0  0  0  0  0  0  0  0  0  0  0
   18.3502   -6.5788  -12.8140 C   0  0  1  0  0  0  0  0  0  0  0  0
   18.2664   -7.4177  -14.0644 C   0  0  0  0  0  0  0  0  0  0  0  0
   18.2214   -9.1787  -13.6859 S   0  0  0  0  0  0  0  0  0  0  0  0
   18.4932   -5.1457  -13.1419 C   0  0  0  0  0  0  0  0  0  0  0  0
   19.6775   -4.5694  -13.5331 O   0  0  0  0  0  0  0  0  0  0  0  0
   17.4690   -4.4217  -13.0553 O   0  0  0  0  0  0  0  0  0  0  0  0
  2  1  1  6
  3  2  1  0
  4  2  1  0
  4  5  2  0
  6  7  1  0
  7  9  1  0
  8  7  2  0
  9 10  1  0
 11 10  1  1
 11 12  1  0
 12  4  1  0
 13 11  1  0
 13 15  1  0
 14 13  2  0
 16 15  1  0
 16 19  1  0
 17 18  1  0
 16 17  1  6
 19 21  2  0
 19 20  1  0
M  END
$$$$
