AQC.pdb
     RDKit          3D

 21 20  0  0  1  0  0  0  0  0999 V2000
   16.3492  -12.0616  -13.3440 C   0  0  0  0  0  0  0  0  0  0  0  0
   15.4907  -11.2721  -12.3904 C   0  0  2  0  0  0  0  0  0  0  0  0
   14.1347  -11.2667  -12.9560 N   0  0  0  0  0  0  0  0  0  0  0  0
   15.9181   -9.8700  -12.2579 C   0  0  0  0  0  0  0  0  0  0  0  0
   15.6762   -9.1054  -13.2456 O   0  0  0  0  0  0  0  0  0  0  0  0
   15.6400   -6.2819   -7.4317 N   0  0  0  0  0  0  0  0  0  0  0  0
   14.6034   -6.6324   -8.3197 C   0  0  0  0  0  0  0  0  0  0  0  0
   13.4229   -6.4386   -7.9498 O   0  0  0  0  0  0  0  0  0  0  0  0
   14.9327   -7.2221   -9.6707 C   0  0  0  0  0  0  0  0  0  0  0  0
   16.4130   -7.4034   -9.7249 C   0  0  0  0  0  0  0  0  0  0  0  0
   16.9064   -7.8863  -11.0656 C   0  0  2  0  0  0  0  0  0  0  0  0
   16.5633   -9.3220  -11.1391 N   0  0  0  0  0  0  0  0  0  0  0  0
   18.3489   -7.7087  -11.2421 C   0  0  0  0  0  0  0  0  0  0  0  0
   19.1511   -8.5600  -10.8115 O   0  0  0  0  0  0  0  0  0  0  0  0
   18.8743   -6.5685  -11.9051 N   0  0  0  0  0  0  0  0  0  0  0  0
   20.2982   -6.4361  -12.1827 C   0  0  1  0  0  0  0  0  0  0  0  0
   20.7383   -7.7085  -12.8620 C   0  0  0  0  0  0  0  0  0  0  0  0
   22.4689   -7.6369  -13.3586 S   0  0  0  0  0  0  0  0  0  0  0  0
   20.5820   -5.2563  -13.0249 C   0  0  0  0  0  0  0  0  0  0  0  0
   21.7336   -4.5130  -12.9297 O   0  0  0  0  0  0  0  0  0  0  0  0
   19.7158   -4.9219  -13.8726 O   0  0  0  0  0  0  0  0  0  0  0  0
  2  1  1  6
  3  2  1  0
  4  2  1  0
  4  5  2  0
  6  7  1  0
  7  9  1  0
  8  7  2  0
  9 10  1  0
 11 10  1  1
 11 12  1  0
 12  4  1  0
 13 11  1  0
 13 15  1  0
 14 13  2  0
 16 15  1  0
 16 19  1  0
 17 18  1  0
 16 17  1  6
 19 21  2  0
 19 20  1  0
M  END
$$$$
