AQC.pdb
     RDKit          3D

 21 20  0  0  1  0  0  0  0  0999 V2000
   15.8741  -12.5507  -14.6062 C   0  0  0  0  0  0  0  0  0  0  0  0
   16.0167  -11.0510  -14.6119 C   0  0  2  0  0  0  0  0  0  0  0  0
   15.2836  -10.5664  -15.7894 N   0  0  0  0  0  0  0  0  0  0  0  0
   17.4131  -10.6066  -14.7492 C   0  0  0  0  0  0  0  0  0  0  0  0
   18.2043  -10.9151  -13.8018 O   0  0  0  0  0  0  0  0  0  0  0  0
   18.8303  -11.2713  -19.8133 N   0  0  0  0  0  0  0  0  0  0  0  0
   19.0736  -11.5022  -18.4445 C   0  0  0  0  0  0  0  0  0  0  0  0
   18.3055  -12.2809  -17.8349 O   0  0  0  0  0  0  0  0  0  0  0  0
   20.2319  -10.8189  -17.7571 C   0  0  0  0  0  0  0  0  0  0  0  0
   19.7547   -9.4750  -17.3174 C   0  0  0  0  0  0  0  0  0  0  0  0
   19.3380   -9.4342  -15.8687 C   0  0  2  0  0  0  0  0  0  0  0  0
   17.9289   -9.8784  -15.8317 N   0  0  0  0  0  0  0  0  0  0  0  0
   19.4560   -8.1002  -15.2769 C   0  0  0  0  0  0  0  0  0  0  0  0
   18.5041   -7.2971  -15.3259 O   0  0  0  0  0  0  0  0  0  0  0  0
   20.6510   -7.6838  -14.6333 N   0  0  0  0  0  0  0  0  0  0  0  0
   20.8451   -6.3058  -14.2025 C   0  0  1  0  0  0  0  0  0  0  0  0
   21.9767   -6.3075  -13.2056 C   0  0  0  0  0  0  0  0  0  0  0  0
   22.3334   -4.6496  -12.5967 S   0  0  0  0  0  0  0  0  0  0  0  0
   21.1405   -5.4147  -15.3429 C   0  0  0  0  0  0  0  0  0  0  0  0
   20.6834   -4.1224  -15.4367 O   0  0  0  0  0  0  0  0  0  0  0  0
   21.8500   -5.8732  -16.2740 O   0  0  0  0  0  0  0  0  0  0  0  0
  2  1  1  6
  3  2  1  0
  4  2  1  0
  4  5  2  0
  6  7  1  0
  7  9  1  0
  8  7  2  0
  9 10  1  0
 11 10  1  6
 11 12  1  0
 12  4  1  0
 13 11  1  0
 13 15  1  0
 14 13  2  0
 16 15  1  0
 16 19  1  0
 17 18  1  0
 16 17  1  1
 19 21  2  0
 19 20  1  0
M  END
$$$$
