AQC.pdb
     RDKit          3D

 21 20  0  0  1  0  0  0  0  0999 V2000
   27.2766  -18.0272  -16.5661 C   0  0  0  0  0  0  0  0  0  0  0  0
   27.5419  -19.0623  -15.5041 C   0  0  2  0  0  0  0  0  0  0  0  0
   28.3223  -20.1287  -16.1462 N   0  0  0  0  0  0  0  0  0  0  0  0
   26.3114  -19.6737  -14.9768 C   0  0  0  0  0  0  0  0  0  0  0  0
   25.7627  -20.5643  -15.7011 O   0  0  0  0  0  0  0  0  0  0  0  0
   24.4112  -22.4837  -11.9608 N   0  0  0  0  0  0  0  0  0  0  0  0
   25.4561  -21.9276  -11.1959 C   0  0  0  0  0  0  0  0  0  0  0  0
   26.2620  -22.7119  -10.6451 O   0  0  0  0  0  0  0  0  0  0  0  0
   25.5782  -20.4283  -11.0603 C   0  0  0  0  0  0  0  0  0  0  0  0
   24.4269  -19.8230  -11.7920 C   0  0  0  0  0  0  0  0  0  0  0  0
   24.4866  -20.0406  -13.2830 C   0  0  2  0  0  0  0  0  0  0  0  0
   25.7072  -19.3519  -13.7522 N   0  0  0  0  0  0  0  0  0  0  0  0
   23.3153  -19.5132  -13.9854 C   0  0  0  0  0  0  0  0  0  0  0  0
   23.0870  -18.2880  -14.0089 O   0  0  0  0  0  0  0  0  0  0  0  0
   22.4096  -20.3760  -14.6568 N   0  0  0  0  0  0  0  0  0  0  0  0
   21.2107  -19.8658  -15.3083 C   0  0  1  0  0  0  0  0  0  0  0  0
   21.2219  -20.3811  -16.7255 C   0  0  0  0  0  0  0  0  0  0  0  0
   19.7567  -19.8624  -17.6369 S   0  0  0  0  0  0  0  0  0  0  0  0
   19.9846  -20.2842  -14.5985 C   0  0  0  0  0  0  0  0  0  0  0  0
   18.8405  -19.5254  -14.5447 O   0  0  0  0  0  0  0  0  0  0  0  0
   19.9988  -21.3976  -14.0148 O   0  0  0  0  0  0  0  0  0  0  0  0
  2  1  1  6
  3  2  1  0
  4  2  1  0
  4  5  2  0
  6  7  1  0
  7  9  1  0
  8  7  2  0
  9 10  1  0
 11 10  1  1
 11 12  1  0
 12  4  1  0
 13 11  1  0
 13 15  1  0
 14 13  2  0
 16 15  1  0
 16 19  1  0
 17 18  1  0
 16 17  1  6
 19 21  2  0
 19 20  1  0
M  END
$$$$
