KPT.pdb
     RDKit          3D

 24 24  0  0  1  0  0  0  0  0999 V2000
   19.0667  -12.5632  -16.4152 N   0  0  0  0  0  0  0  0  0  0  0  0
   20.1024  -11.7119  -17.0041 C   0  0  1  0  0  0  0  0  0  0  0  0
   19.5090  -10.9298  -18.1607 C   0  0  0  0  0  0  0  0  0  0  0  0
   18.3726  -11.6122  -18.8157 C   0  0  0  0  0  0  0  0  0  0  0  0
   17.0859  -10.9004  -18.9158 C   0  0  0  0  0  0  0  0  0  0  0  0
   16.0249  -11.5501  -19.7311 C   0  0  0  0  0  0  0  0  0  0  0  0
   14.8154  -10.7133  -19.7935 N   0  0  0  0  0  0  0  0  0  0  0  0
   20.5506  -10.8230  -15.9114 C   0  0  0  0  0  0  0  0  0  0  0  0
   19.7109  -10.0793  -15.2936 O   0  0  0  0  0  0  0  0  0  0  0  0
   21.8890  -10.7350  -15.4845 N   0  0  0  0  0  0  0  0  0  0  0  0
   22.9606  -11.5951  -15.9397 C   0  0  0  0  0  0  0  0  0  0  0  0
   24.1351  -10.6043  -15.8926 C   0  0  0  0  0  0  0  0  0  0  0  0
   23.9018  -10.0727  -14.4702 C   0  0  0  0  0  0  0  0  0  0  0  0
   22.4429   -9.7701  -14.5177 C   0  0  1  0  0  0  0  0  0  0  0  0
   22.1565   -8.3808  -14.9557 C   0  0  0  0  0  0  0  0  0  0  0  0
   22.3405   -8.0865  -16.1605 O   0  0  0  0  0  0  0  0  0  0  0  0
   19.1871   -6.2620  -15.1138 C   0  0  0  0  0  0  0  0  0  0  0  0
   20.1227   -5.5681  -14.1795 C   0  0  1  0  0  0  0  0  0  0  0  0
   19.7925   -5.9614  -12.8656 O   0  0  0  0  0  0  0  0  0  0  0  0
   21.5591   -5.9921  -14.4236 C   0  0  2  0  0  0  0  0  0  0  0  0
   21.6873   -7.3781  -14.0786 N   0  0  0  0  0  0  0  0  0  0  0  0
   22.4209   -5.1339  -13.5723 C   0  0  0  0  0  0  0  0  0  0  0  0
   22.6507   -3.8028  -13.8861 O   0  0  0  0  0  0  0  0  0  0  0  0
   22.9585   -5.6105  -12.5445 O   0  0  0  0  0  0  0  0  0  0  0  0
  2  1  1  1
  3  2  1  0
  4  3  1  0
  5  6  1  0
  5  4  1  0
  7  6  1  0
  8  9  2  0
  8  2  1  0
 10  8  1  0
 11 10  1  0
 12 13  1  0
 12 11  1  0
 13 14  1  0
 14 10  1  0
 14 15  1  6
 16 15  2  0
 18 17  1  6
 19 18  1  0
 20 18  1  0
 20 21  1  1
 21 15  1  0
 22 23  1  0
 22 20  1  0
 24 22  2  0
M  END
$$$$
