KPT.pdb
     RDKit          3D

 24 24  0  0  1  0  0  0  0  0999 V2000
   21.9611  -14.9115  -17.6585 N   0  0  0  0  0  0  0  0  0  0  0  0
   20.6928  -14.1969  -17.8166 C   0  0  1  0  0  0  0  0  0  0  0  0
   19.7545  -14.5885  -16.6908 C   0  0  0  0  0  0  0  0  0  0  0  0
   19.5530  -16.0482  -16.5686 C   0  0  0  0  0  0  0  0  0  0  0  0
   18.5377  -16.6932  -17.4205 C   0  0  0  0  0  0  0  0  0  0  0  0
   18.2035  -18.1081  -17.1064 C   0  0  0  0  0  0  0  0  0  0  0  0
   18.2636  -18.3591  -15.6571 N   0  0  0  0  0  0  0  0  0  0  0  0
   21.0405  -12.7610  -17.7687 C   0  0  0  0  0  0  0  0  0  0  0  0
   21.8238  -12.3127  -16.8601 O   0  0  0  0  0  0  0  0  0  0  0  0
   20.5528  -11.8149  -18.6896 N   0  0  0  0  0  0  0  0  0  0  0  0
   19.7718  -12.1326  -19.8663 C   0  0  0  0  0  0  0  0  0  0  0  0
   18.8742  -10.8863  -19.9341 C   0  0  0  0  0  0  0  0  0  0  0  0
   19.9790   -9.8270  -19.8021 C   0  0  0  0  0  0  0  0  0  0  0  0
   20.7367  -10.3537  -18.6314 C   0  0  1  0  0  0  0  0  0  0  0  0
   20.2389   -9.8237  -17.3370 C   0  0  0  0  0  0  0  0  0  0  0  0
   19.1887  -10.3129  -16.8577 O   0  0  0  0  0  0  0  0  0  0  0  0
   22.1484   -9.7088  -14.1992 C   0  0  0  0  0  0  0  0  0  0  0  0
   21.6474   -8.3167  -14.4011 C   0  0  1  0  0  0  0  0  0  0  0  0
   22.6801   -7.5687  -15.0045 O   0  0  0  0  0  0  0  0  0  0  0  0
   20.4645   -8.2901  -15.3513 C   0  0  2  0  0  0  0  0  0  0  0  0
   20.8933   -8.7958  -16.6229 N   0  0  0  0  0  0  0  0  0  0  0  0
   20.0107   -6.8799  -15.4477 C   0  0  0  0  0  0  0  0  0  0  0  0
   19.3767   -6.2504  -14.3869 O   0  0  0  0  0  0  0  0  0  0  0  0
   20.1983   -6.2327  -16.5053 O   0  0  0  0  0  0  0  0  0  0  0  0
  2  1  1  1
  3  2  1  0
  4  3  1  0
  5  6  1  0
  5  4  1  0
  7  6  1  0
  8  9  2  0
  8  2  1  0
 10  8  1  0
 11 10  1  0
 12 13  1  0
 12 11  1  0
 13 14  1  0
 14 10  1  0
 14 15  1  1
 16 15  2  0
 18 17  1  6
 19 18  1  0
 20 18  1  0
 20 21  1  6
 21 15  1  0
 22 23  1  0
 22 20  1  0
 24 22  2  0
M  END
$$$$
