KPT.pdb
     RDKit          3D

 24 24  0  0  1  0  0  0  0  0999 V2000
   21.5359  -19.3408  -14.3882 N   0  0  0  0  0  0  0  0  0  0  0  0
   22.2521  -20.5079  -13.8694 C   0  0  1  0  0  0  0  0  0  0  0  0
   21.8812  -21.7281  -14.6909 C   0  0  0  0  0  0  0  0  0  0  0  0
   20.5568  -22.2906  -14.3507 C   0  0  0  0  0  0  0  0  0  0  0  0
   19.3617  -21.4523  -14.5542 C   0  0  0  0  0  0  0  0  0  0  0  0
   18.5990  -21.6709  -15.8124 C   0  0  0  0  0  0  0  0  0  0  0  0
   17.2606  -22.2171  -15.5344 N   0  0  0  0  0  0  0  0  0  0  0  0
   23.6874  -20.1769  -13.9929 C   0  0  0  0  0  0  0  0  0  0  0  0
   24.1030  -19.4381  -14.9529 O   0  0  0  0  0  0  0  0  0  0  0  0
   24.6678  -20.6338  -13.0923 N   0  0  0  0  0  0  0  0  0  0  0  0
   24.3916  -21.2928  -11.8334 C   0  0  0  0  0  0  0  0  0  0  0  0
   25.5951  -22.2468  -11.7630 C   0  0  0  0  0  0  0  0  0  0  0  0
   26.6952  -21.2157  -12.0580 C   0  0  0  0  0  0  0  0  0  0  0  0
   26.1292  -20.5341  -13.2568 C   0  0  1  0  0  0  0  0  0  0  0  0
   26.5479  -21.1688  -14.5318 C   0  0  0  0  0  0  0  0  0  0  0  0
   26.5922  -22.4206  -14.5874 O   0  0  0  0  0  0  0  0  0  0  0  0
   25.0772  -21.6943  -17.6670 C   0  0  0  0  0  0  0  0  0  0  0  0
   26.2535  -20.8209  -17.9550 C   0  0  1  0  0  0  0  0  0  0  0  0
   25.8264  -19.4790  -17.8718 O   0  0  0  0  0  0  0  0  0  0  0  0
   27.3441  -21.0065  -16.9163 C   0  0  2  0  0  0  0  0  0  0  0  0
   26.8977  -20.4280  -15.6824 N   0  0  0  0  0  0  0  0  0  0  0  0
   28.5602  -20.3281  -17.4307 C   0  0  0  0  0  0  0  0  0  0  0  0
   29.3454  -20.9030  -18.4188 O   0  0  0  0  0  0  0  0  0  0  0  0
   28.8960  -19.2110  -16.9705 O   0  0  0  0  0  0  0  0  0  0  0  0
  2  1  1  6
  3  2  1  0
  4  3  1  0
  5  6  1  0
  5  4  1  0
  7  6  1  0
  8  9  2  0
  8  2  1  0
 10  8  1  0
 11 10  1  0
 12 13  1  0
 12 11  1  0
 13 14  1  0
 14 10  1  0
 14 15  1  6
 16 15  2  0
 18 17  1  1
 19 18  1  0
 20 18  1  0
 20 21  1  1
 21 15  1  0
 22 23  1  0
 22 20  1  0
 24 22  2  0
M  END
$$$$
