KPT.pdb
     RDKit          3D

 24 24  0  0  1  0  0  0  0  0999 V2000
   19.5345  -13.4275  -16.3773 N   0  0  0  0  0  0  0  0  0  0  0  0
   19.3869  -12.1490  -17.0759 C   0  0  1  0  0  0  0  0  0  0  0  0
   17.9328  -11.7190  -17.0299 C   0  0  0  0  0  0  0  0  0  0  0  0
   17.0296  -12.6026  -17.7978 C   0  0  0  0  0  0  0  0  0  0  0  0
   15.5845  -12.3125  -17.7888 C   0  0  0  0  0  0  0  0  0  0  0  0
   14.7128  -13.2378  -18.5611 C   0  0  0  0  0  0  0  0  0  0  0  0
   13.2897  -12.9827  -18.2838 N   0  0  0  0  0  0  0  0  0  0  0  0
   20.2636  -11.2022  -16.3550 C   0  0  0  0  0  0  0  0  0  0  0  0
   20.1041  -10.9954  -15.1013 O   0  0  0  0  0  0  0  0  0  0  0  0
   21.3041  -10.4848  -16.9747 N   0  0  0  0  0  0  0  0  0  0  0  0
   21.7471  -10.6828  -18.3385 C   0  0  0  0  0  0  0  0  0  0  0  0
   22.1565   -9.2448  -18.6965 C   0  0  0  0  0  0  0  0  0  0  0  0
   23.0259   -8.9626  -17.4617 C   0  0  0  0  0  0  0  0  0  0  0  0
   22.1199   -9.4173  -16.3687 C   0  0  1  0  0  0  0  0  0  0  0  0
   21.2473   -8.3318  -15.8546 C   0  0  0  0  0  0  0  0  0  0  0  0
   20.3039   -7.9333  -16.5781 O   0  0  0  0  0  0  0  0  0  0  0  0
   18.9307   -8.1725  -13.2401 C   0  0  0  0  0  0  0  0  0  0  0  0
   19.8798   -7.0750  -12.8877 C   0  0  1  0  0  0  0  0  0  0  0  0
   20.8097   -7.5888  -11.9597 O   0  0  0  0  0  0  0  0  0  0  0  0
   20.6678   -6.6182  -14.1014 C   0  0  2  0  0  0  0  0  0  0  0  0
   21.4312   -7.7293  -14.5905 N   0  0  0  0  0  0  0  0  0  0  0  0
   21.5438   -5.5032  -13.6618 C   0  0  0  0  0  0  0  0  0  0  0  0
   21.0191   -4.2724  -13.2969 O   0  0  0  0  0  0  0  0  0  0  0  0
   22.7865   -5.6644  -13.6150 O   0  0  0  0  0  0  0  0  0  0  0  0
  2  1  1  1
  3  2  1  0
  4  3  1  0
  5  6  1  0
  5  4  1  0
  7  6  1  0
  8  9  2  0
  8  2  1  0
 10  8  1  0
 11 10  1  0
 12 13  1  0
 12 11  1  0
 13 14  1  0
 14 10  1  0
 14 15  1  6
 16 15  2  0
 18 17  1  6
 19 18  1  0
 20 18  1  0
 20 21  1  1
 21 15  1  0
 22 23  1  0
 22 20  1  0
 24 22  2  0
M  END
$$$$
