KPT.pdb
     RDKit          3D

 24 24  0  0  1  0  0  0  0  0999 V2000
   25.3706  -21.6782  -12.8266 N   0  0  0  0  0  0  0  0  0  0  0  0
   24.1310  -20.9200  -13.0071 C   0  0  1  0  0  0  0  0  0  0  0  0
   23.9197  -20.0144  -11.8085 C   0  0  0  0  0  0  0  0  0  0  0  0
   24.6507  -20.4516  -10.6000 C   0  0  0  0  0  0  0  0  0  0  0  0
   23.8741  -20.9000   -9.4302 C   0  0  0  0  0  0  0  0  0  0  0  0
   24.6410  -21.1799   -8.1869 C   0  0  0  0  0  0  0  0  0  0  0  0
   23.7631  -21.7035   -7.1276 N   0  0  0  0  0  0  0  0  0  0  0  0
   24.3187  -20.1481  -14.2536 C   0  0  0  0  0  0  0  0  0  0  0  0
   25.4575  -19.6334  -14.5332 O   0  0  0  0  0  0  0  0  0  0  0  0
   23.2928  -19.9323  -15.1928 N   0  0  0  0  0  0  0  0  0  0  0  0
   21.9856  -20.5523  -15.1468 C   0  0  0  0  0  0  0  0  0  0  0  0
   21.1333  -19.4206  -15.7438 C   0  0  0  0  0  0  0  0  0  0  0  0
   21.9949  -19.1444  -16.9854 C   0  0  0  0  0  0  0  0  0  0  0  0
   23.3509  -19.0514  -16.3731 C   0  0  1  0  0  0  0  0  0  0  0  0
   23.7057  -17.6685  -15.9661 C   0  0  0  0  0  0  0  0  0  0  0  0
   23.1882  -17.2035  -14.9229 O   0  0  0  0  0  0  0  0  0  0  0  0
   26.6648  -16.0807  -14.6677 C   0  0  0  0  0  0  0  0  0  0  0  0
   26.4081  -15.4529  -15.9980 C   0  0  1  0  0  0  0  0  0  0  0  0
   27.0965  -16.2064  -16.9718 O   0  0  0  0  0  0  0  0  0  0  0  0
   24.9342  -15.5039  -16.3552 C   0  0  2  0  0  0  0  0  0  0  0  0
   24.5977  -16.8549  -16.6990 N   0  0  0  0  0  0  0  0  0  0  0  0
   24.7275  -14.5802  -17.4989 C   0  0  0  0  0  0  0  0  0  0  0  0
   24.7736  -13.2040  -17.3341 O   0  0  0  0  0  0  0  0  0  0  0  0
   24.5056  -15.0412  -18.6438 O   0  0  0  0  0  0  0  0  0  0  0  0
  2  1  1  1
  3  2  1  0
  4  3  1  0
  5  6  1  0
  5  4  1  0
  7  6  1  0
  8  9  2  0
  8  2  1  0
 10  8  1  0
 11 10  1  0
 12 13  1  0
 12 11  1  0
 13 14  1  0
 14 10  1  0
 14 15  1  1
 16 15  2  0
 18 17  1  1
 19 18  1  0
 20 18  1  0
 20 21  1  6
 21 15  1  0
 22 23  1  0
 22 20  1  0
 24 22  2  0
M  END
$$$$
