KPT.pdb
     RDKit          3D

 24 24  0  0  1  0  0  0  0  0999 V2000
   20.8408  -20.1698  -13.5028 N   0  0  0  0  0  0  0  0  0  0  0  0
   21.7995  -20.9801  -12.7487 C   0  0  1  0  0  0  0  0  0  0  0  0
   21.6255  -22.4395  -13.1246 C   0  0  0  0  0  0  0  0  0  0  0  0
   20.6260  -22.6611  -14.1914 C   0  0  0  0  0  0  0  0  0  0  0  0
   21.0292  -22.4404  -15.5918 C   0  0  0  0  0  0  0  0  0  0  0  0
   20.0295  -22.7872  -16.6372 C   0  0  0  0  0  0  0  0  0  0  0  0
   20.4536  -22.3008  -17.9602 N   0  0  0  0  0  0  0  0  0  0  0  0
   23.1332  -20.4691  -13.1293 C   0  0  0  0  0  0  0  0  0  0  0  0
   23.2710  -19.7149  -14.1551 O   0  0  0  0  0  0  0  0  0  0  0  0
   24.3087  -20.7638  -12.4135 N   0  0  0  0  0  0  0  0  0  0  0  0
   24.3469  -21.3692  -11.0992 C   0  0  0  0  0  0  0  0  0  0  0  0
   25.6442  -22.1852  -11.2197 C   0  0  0  0  0  0  0  0  0  0  0  0
   26.5452  -21.0644  -11.7603 C   0  0  0  0  0  0  0  0  0  0  0  0
   25.6934  -20.5214  -12.8566 C   0  0  1  0  0  0  0  0  0  0  0  0
   25.9401  -21.1862  -14.1609 C   0  0  0  0  0  0  0  0  0  0  0  0
   25.5369  -22.3634  -14.3149 O   0  0  0  0  0  0  0  0  0  0  0  0
   25.4581  -19.3232  -17.6366 C   0  0  0  0  0  0  0  0  0  0  0  0
   26.7866  -20.0002  -17.5565 C   0  0  1  0  0  0  0  0  0  0  0  0
   27.7294  -19.0511  -17.1091 O   0  0  0  0  0  0  0  0  0  0  0  0
   26.7700  -21.1256  -16.5387 C   0  0  2  0  0  0  0  0  0  0  0  0
   26.6067  -20.5539  -15.2336 N   0  0  0  0  0  0  0  0  0  0  0  0
   28.0610  -21.8482  -16.6622 C   0  0  0  0  0  0  0  0  0  0  0  0
   28.3656  -22.5964  -17.7895 O   0  0  0  0  0  0  0  0  0  0  0  0
   28.9028  -21.7890  -15.7347 O   0  0  0  0  0  0  0  0  0  0  0  0
  2  1  1  6
  3  2  1  0
  4  3  1  0
  5  6  1  0
  5  4  1  0
  7  6  1  0
  8  9  2  0
  8  2  1  0
 10  8  1  0
 11 10  1  0
 12 13  1  0
 12 11  1  0
 13 14  1  0
 14 10  1  0
 14 15  1  6
 16 15  2  0
 18 17  1  1
 19 18  1  0
 20 18  1  0
 20 21  1  1
 21 15  1  0
 22 23  1  0
 22 20  1  0
 24 22  2  0
M  END
$$$$
