KPT.pdb
     RDKit          3D

 24 24  0  0  1  0  0  0  0  0999 V2000
   21.6129  -13.4937  -16.6139 N   0  0  0  0  0  0  0  0  0  0  0  0
   22.5733  -12.5763  -17.2305 C   0  0  1  0  0  0  0  0  0  0  0  0
   22.0263  -12.1014  -18.5635 C   0  0  0  0  0  0  0  0  0  0  0  0
   22.1958  -13.0826  -19.6564 C   0  0  0  0  0  0  0  0  0  0  0  0
   22.1441  -14.5187  -19.3286 C   0  0  0  0  0  0  0  0  0  0  0  0
   22.3627  -15.4685  -20.4522 C   0  0  0  0  0  0  0  0  0  0  0  0
   22.3305  -16.8634  -19.9829 N   0  0  0  0  0  0  0  0  0  0  0  0
   22.7271  -11.4627  -16.2708 C   0  0  0  0  0  0  0  0  0  0  0  0
   21.6970  -10.8711  -15.7923 O   0  0  0  0  0  0  0  0  0  0  0  0
   23.9762  -10.9897  -15.8270 N   0  0  0  0  0  0  0  0  0  0  0  0
   25.2538  -11.5723  -16.1791 C   0  0  0  0  0  0  0  0  0  0  0  0
   26.1264  -10.3068  -16.2004 C   0  0  0  0  0  0  0  0  0  0  0  0
   25.7008   -9.7379  -14.8382 C   0  0  0  0  0  0  0  0  0  0  0  0
   24.2170   -9.8353  -14.9427 C   0  0  1  0  0  0  0  0  0  0  0  0
   23.5979   -8.6124  -15.5130 C   0  0  0  0  0  0  0  0  0  0  0  0
   23.8174   -8.3400  -16.7171 O   0  0  0  0  0  0  0  0  0  0  0  0
   20.2747   -7.5247  -16.2938 C   0  0  0  0  0  0  0  0  0  0  0  0
   20.7559   -6.5577  -15.2628 C   0  0  1  0  0  0  0  0  0  0  0  0
   20.3427   -7.0309  -13.9998 O   0  0  0  0  0  0  0  0  0  0  0  0
   22.2716   -6.4884  -15.2384 C   0  0  2  0  0  0  0  0  0  0  0  0
   22.7750   -7.7440  -14.7624 N   0  0  0  0  0  0  0  0  0  0  0  0
   22.6454   -5.3709  -14.3355 C   0  0  0  0  0  0  0  0  0  0  0  0
   22.4683   -4.0477  -14.7112 O   0  0  0  0  0  0  0  0  0  0  0  0
   23.1328   -5.6148  -13.2061 O   0  0  0  0  0  0  0  0  0  0  0  0
  2  1  1  1
  3  2  1  0
  4  3  1  0
  5  6  1  0
  5  4  1  0
  7  6  1  0
  8  9  2  0
  8  2  1  0
 10  8  1  0
 11 10  1  0
 12 13  1  0
 12 11  1  0
 13 14  1  0
 14 10  1  0
 14 15  1  6
 16 15  2  0
 18 17  1  6
 19 18  1  0
 20 18  1  0
 20 21  1  1
 21 15  1  0
 22 23  1  0
 22 20  1  0
 24 22  2  0
M  END
$$$$
