KPT.pdb
     RDKit          3D

 24 24  0  0  1  0  0  0  0  0999 V2000
   20.6604  -20.9261  -12.4198 N   0  0  0  0  0  0  0  0  0  0  0  0
   21.5230  -21.3051  -13.5408 C   0  0  1  0  0  0  0  0  0  0  0  0
   20.8309  -20.9557  -14.8448 C   0  0  0  0  0  0  0  0  0  0  0  0
   20.2775  -22.1290  -15.5542 C   0  0  0  0  0  0  0  0  0  0  0  0
   20.4092  -23.4573  -14.9291 C   0  0  0  0  0  0  0  0  0  0  0  0
   19.8570  -24.6106  -15.6889 C   0  0  0  0  0  0  0  0  0  0  0  0
   18.3850  -24.5927  -15.6865 N   0  0  0  0  0  0  0  0  0  0  0  0
   22.7707  -20.5344  -13.3564 C   0  0  0  0  0  0  0  0  0  0  0  0
   22.7468  -19.2540  -13.3421 O   0  0  0  0  0  0  0  0  0  0  0  0
   24.0331  -21.1333  -13.1870 N   0  0  0  0  0  0  0  0  0  0  0  0
   24.2528  -22.5406  -12.9287 C   0  0  0  0  0  0  0  0  0  0  0  0
   25.5868  -22.7412  -13.6661 C   0  0  0  0  0  0  0  0  0  0  0  0
   26.3416  -21.5491  -13.0583 C   0  0  0  0  0  0  0  0  0  0  0  0
   25.3423  -20.4585  -13.2426 C   0  0  1  0  0  0  0  0  0  0  0  0
   25.4992  -19.7457  -14.5354 C   0  0  0  0  0  0  0  0  0  0  0  0
   24.8378  -20.1485  -15.5215 O   0  0  0  0  0  0  0  0  0  0  0  0
   25.2903  -15.9150  -14.9152 C   0  0  0  0  0  0  0  0  0  0  0  0
   26.5594  -16.4000  -15.5347 C   0  0  1  0  0  0  0  0  0  0  0  0
   27.5826  -16.2855  -14.5705 O   0  0  0  0  0  0  0  0  0  0  0  0
   26.4629  -17.8673  -15.9097 C   0  0  2  0  0  0  0  0  0  0  0  0
   26.3578  -18.6371  -14.7043 N   0  0  0  0  0  0  0  0  0  0  0  0
   27.6911  -18.2074  -16.6711 C   0  0  0  0  0  0  0  0  0  0  0  0
   27.9214  -17.6937  -17.9386 O   0  0  0  0  0  0  0  0  0  0  0  0
   28.5468  -18.9744  -16.1690 O   0  0  0  0  0  0  0  0  0  0  0  0
  2  1  1  1
  3  2  1  0
  4  3  1  0
  5  6  1  0
  5  4  1  0
  7  6  1  0
  8  9  2  0
  8  2  1  0
 10  8  1  0
 11 10  1  0
 12 13  1  0
 12 11  1  0
 13 14  1  0
 14 10  1  0
 14 15  1  6
 16 15  2  0
 18 17  1  1
 19 18  1  0
 20 18  1  0
 20 21  1  1
 21 15  1  0
 22 23  1  0
 22 20  1  0
 24 22  2  0
M  END
$$$$
