QDL.pdb
     RDKit          3D

 26 25  0  0  1  0  0  0  0  0999 V2000
   23.2617  -19.8061  -17.2546 N   0  0  0  0  0  0  0  0  0  0  0  0
   24.2790  -19.5655  -18.2097 C   0  0  0  0  0  0  0  0  0  0  0  0
   24.1508  -20.1464  -19.3323 O   0  0  0  0  0  0  0  0  0  0  0  0
   25.4434  -18.6830  -17.9321 C   0  0  0  0  0  0  0  0  0  0  0  0
   25.3379  -18.2025  -16.5096 C   0  0  0  0  0  0  0  0  0  0  0  0
   26.1553  -19.0150  -15.5566 C   0  0  2  0  0  0  0  0  0  0  0  0
   26.4152  -20.3340  -16.0433 N   0  0  0  0  0  0  0  0  0  0  0  0
   25.4736  -19.0886  -14.2361 C   0  0  0  0  0  0  0  0  0  0  0  0
   25.2528  -18.0049  -13.6094 O   0  0  0  0  0  0  0  0  0  0  0  0
   25.0677  -20.3209  -13.6627 N   0  0  0  0  0  0  0  0  0  0  0  0
   24.3553  -20.3183  -12.3993 C   0  0  1  0  0  0  0  0  0  0  0  0
   23.1325  -21.1870  -12.5456 C   0  0  0  0  0  0  0  0  0  0  0  0
   22.1156  -20.5909  -13.4273 C   0  0  0  0  0  0  0  0  0  0  0  0
   21.8330  -21.0075  -14.5844 O   0  0  0  0  0  0  0  0  0  0  0  0
   25.2364  -20.7068  -11.2772 C   0  0  0  0  0  0  0  0  0  0  0  0
   26.0702  -21.6283  -11.4266 O   0  0  0  0  0  0  0  0  0  0  0  0
   21.4214  -19.4760  -12.9209 O   0  0  0  0  0  0  0  0  0  0  0  0
   27.8292  -18.6601   -6.2410 C   0  0  0  0  0  0  0  0  0  0  0  0
   27.5080  -19.9610   -6.9964 C   0  0  2  0  0  0  0  0  0  0  0  0
   28.8108  -20.6531   -7.2466 C   0  0  0  0  0  0  0  0  0  0  0  0
   26.7805  -19.5545   -8.2241 C   0  0  0  0  0  0  0  0  0  0  0  0
   25.8858  -20.5893   -8.8301 C   0  0  2  0  0  0  0  0  0  0  0  0
   25.1745  -20.0583   -9.9966 N   0  0  0  0  0  0  0  0  0  0  0  0
   24.9240  -21.2044   -7.8914 C   0  0  0  0  0  0  0  0  0  0  0  0
   25.3327  -22.0384   -6.8481 O   0  0  0  0  0  0  0  0  0  0  0  0
   23.7065  -20.9841   -8.0183 O   0  0  0  0  0  0  0  0  0  0  0  0
  1  2  1  0
  2  3  2  0
  4  5  1  0
  4  2  1  0
  6  7  1  6
  6  5  1  0
  8  6  1  0
  8 10  1  0
  9  8  2  0
 11 10  1  0
 11 12  1  6
 13 12  1  0
 13 17  1  0
 14 13  2  0
 15 11  1  0
 16 15  2  0
 19 18  1  1
 20 19  1  0
 21 19  1  0
 22 21  1  1
 22 23  1  0
 23 15  1  0
 24 25  1  0
 24 22  1  0
 26 24  2  0
M  END
$$$$
