QDL.pdb
     RDKit          3D

 26 25  0  0  1  0  0  0  0  0999 V2000
   15.2226  -14.0402  -16.0497 N   0  0  0  0  0  0  0  0  0  0  0  0
   16.2488  -15.0103  -16.1539 C   0  0  0  0  0  0  0  0  0  0  0  0
   16.3258  -15.8569  -15.2098 O   0  0  0  0  0  0  0  0  0  0  0  0
   17.1958  -15.0521  -17.2998 C   0  0  0  0  0  0  0  0  0  0  0  0
   17.8849  -13.7168  -17.3864 C   0  0  0  0  0  0  0  0  0  0  0  0
   19.3585  -13.8337  -17.6138 C   0  0  2  0  0  0  0  0  0  0  0  0
   19.9324  -14.9491  -16.9278 N   0  0  0  0  0  0  0  0  0  0  0  0
   20.0391  -12.5785  -17.1959 C   0  0  0  0  0  0  0  0  0  0  0  0
   20.4970  -12.5051  -16.0123 O   0  0  0  0  0  0  0  0  0  0  0  0
   20.1896  -11.4727  -18.0716 N   0  0  0  0  0  0  0  0  0  0  0  0
   20.9331  -10.3090  -17.6283 C   0  0  1  0  0  0  0  0  0  0  0  0
   21.3641   -9.5326  -18.8459 C   0  0  0  0  0  0  0  0  0  0  0  0
   22.1661   -8.3457  -18.5071 C   0  0  0  0  0  0  0  0  0  0  0  0
   22.9381   -8.2587  -17.5127 O   0  0  0  0  0  0  0  0  0  0  0  0
   20.1626   -9.5115  -16.6500 C   0  0  0  0  0  0  0  0  0  0  0  0
   18.9128   -9.5777  -16.6348 O   0  0  0  0  0  0  0  0  0  0  0  0
   22.0462   -7.2399  -19.3697 O   0  0  0  0  0  0  0  0  0  0  0  0
   18.4973   -9.4861  -11.5575 C   0  0  0  0  0  0  0  0  0  0  0  0
   18.5809   -8.3785  -12.6216 C   0  0  2  0  0  0  0  0  0  0  0  0
   17.1756   -7.9925  -12.9608 C   0  0  0  0  0  0  0  0  0  0  0  0
   19.3523   -8.9519  -13.7520 C   0  0  0  0  0  0  0  0  0  0  0  0
   20.0401   -7.9672  -14.6441 C   0  0  2  0  0  0  0  0  0  0  0  0
   20.8009   -8.6462  -15.6970 N   0  0  0  0  0  0  0  0  0  0  0  0
   20.9066   -6.9957  -13.9441 C   0  0  0  0  0  0  0  0  0  0  0  0
   20.3876   -5.9997  -13.1136 O   0  0  0  0  0  0  0  0  0  0  0  0
   22.1409   -7.0506  -14.0867 O   0  0  0  0  0  0  0  0  0  0  0  0
  1  2  1  0
  2  3  2  0
  4  5  1  0
  4  2  1  0
  6  7  1  1
  6  5  1  0
  8  6  1  0
  8 10  1  0
  9  8  2  0
 11 10  1  0
 11 12  1  6
 13 12  1  0
 13 17  1  0
 14 13  2  0
 15 11  1  0
 16 15  2  0
 19 18  1  1
 20 19  1  0
 21 19  1  0
 22 21  1  1
 22 23  1  0
 23 15  1  0
 24 25  1  0
 24 22  1  0
 26 24  2  0
M  END
$$$$
