QDL.pdb
     RDKit          3D

 26 25  0  0  1  0  0  0  0  0999 V2000
   30.4934  -35.6564   -0.2431 N   0  0  0  0  0  0  0  0  0  0  0  0
   31.1891  -35.3520   -1.4383 C   0  0  0  0  0  0  0  0  0  0  0  0
   32.3139  -35.9202   -1.5994 O   0  0  0  0  0  0  0  0  0  0  0  0
   30.6481  -34.4192   -2.4625 C   0  0  0  0  0  0  0  0  0  0  0  0
   29.2943  -33.9510   -2.0006 C   0  0  0  0  0  0  0  0  0  0  0  0
   28.1708  -34.7481   -2.5828 C   0  0  2  0  0  0  0  0  0  0  0  0
   27.8567  -34.3567   -3.9216 N   0  0  0  0  0  0  0  0  0  0  0  0
   26.9621  -34.6266   -1.7239 C   0  0  0  0  0  0  0  0  0  0  0  0
   26.3396  -33.5184   -1.7106 O   0  0  0  0  0  0  0  0  0  0  0  0
   26.4898  -35.7012   -0.9274 N   0  0  0  0  0  0  0  0  0  0  0  0
   25.3069  -35.5151   -0.1090 C   0  0  1  0  0  0  0  0  0  0  0  0
   24.6748  -36.8638    0.1202 C   0  0  0  0  0  0  0  0  0  0  0  0
   25.6148  -37.8405    0.6938 C   0  0  0  0  0  0  0  0  0  0  0  0
   26.6957  -38.2026    0.1525 O   0  0  0  0  0  0  0  0  0  0  0  0
   25.6166  -34.7785    1.1352 C   0  0  0  0  0  0  0  0  0  0  0  0
   26.8041  -34.5042    1.4207 O   0  0  0  0  0  0  0  0  0  0  0  0
   25.2604  -38.3977    1.9368 O   0  0  0  0  0  0  0  0  0  0  0  0
   25.7978  -30.1520    3.8587 C   0  0  0  0  0  0  0  0  0  0  0  0
   26.1027  -31.6178    4.2119 C   0  0  2  0  0  0  0  0  0  0  0  0
   27.5555  -31.6889    4.5625 C   0  0  0  0  0  0  0  0  0  0  0  0
   25.7159  -32.4161    3.0225 C   0  0  0  0  0  0  0  0  0  0  0  0
   24.9127  -33.6493    3.2923 C   0  0  2  0  0  0  0  0  0  0  0  0
   24.5915  -34.3559    2.0489 N   0  0  0  0  0  0  0  0  0  0  0  0
   23.6805  -33.4275    4.0777 C   0  0  0  0  0  0  0  0  0  0  0  0
   23.7058  -33.2239    5.4594 O   0  0  0  0  0  0  0  0  0  0  0  0
   22.5751  -33.4184    3.5077 O   0  0  0  0  0  0  0  0  0  0  0  0
  1  2  1  0
  2  3  2  0
  4  5  1  0
  4  2  1  0
  6  7  1  6
  6  5  1  0
  8  6  1  0
  8 10  1  0
  9  8  2  0
 11 10  1  0
 11 12  1  1
 13 12  1  0
 13 17  1  0
 14 13  2  0
 15 11  1  0
 16 15  2  0
 19 18  1  6
 20 19  1  0
 21 19  1  0
 22 21  1  6
 22 23  1  0
 23 15  1  0
 24 25  1  0
 24 22  1  0
 26 24  2  0
M  END
$$$$
