QDL.pdb
     RDKit          3D

 26 25  0  0  1  0  0  0  0  0999 V2000
   17.4320  -12.6311  -17.5870 N   0  0  0  0  0  0  0  0  0  0  0  0
   17.9731  -13.9280  -17.7613 C   0  0  0  0  0  0  0  0  0  0  0  0
   17.1484  -14.8526  -18.0428 O   0  0  0  0  0  0  0  0  0  0  0  0
   19.4265  -14.2126  -17.6263 C   0  0  0  0  0  0  0  0  0  0  0  0
   20.1331  -12.9144  -17.3421 C   0  0  0  0  0  0  0  0  0  0  0  0
   20.5405  -12.1871  -18.5838 C   0  0  2  0  0  0  0  0  0  0  0  0
   21.6298  -12.8214  -19.2585 N   0  0  0  0  0  0  0  0  0  0  0  0
   20.8990  -10.7810  -18.2556 C   0  0  0  0  0  0  0  0  0  0  0  0
   22.0241  -10.5567  -17.7081 O   0  0  0  0  0  0  0  0  0  0  0  0
   20.0298   -9.6949  -18.5332 N   0  0  0  0  0  0  0  0  0  0  0  0
   20.4194   -8.3531  -18.1437 C   0  0  1  0  0  0  0  0  0  0  0  0
   19.5447   -7.3744  -18.8840 C   0  0  0  0  0  0  0  0  0  0  0  0
   19.8755   -5.9733  -18.5771 C   0  0  0  0  0  0  0  0  0  0  0  0
   21.0436   -5.4960  -18.5636 O   0  0  0  0  0  0  0  0  0  0  0  0
   20.3977   -8.1852  -16.6748 C   0  0  0  0  0  0  0  0  0  0  0  0
   19.6999   -8.9472  -15.9683 O   0  0  0  0  0  0  0  0  0  0  0  0
   18.7935   -5.1235  -18.2797 O   0  0  0  0  0  0  0  0  0  0  0  0
   23.0482  -10.0242  -12.5887 C   0  0  0  0  0  0  0  0  0  0  0  0
   22.2874   -8.6935  -12.7176 C   0  0  2  0  0  0  0  0  0  0  0  0
   21.0827   -8.7927  -11.8358 C   0  0  0  0  0  0  0  0  0  0  0  0
   21.9831   -8.5322  -14.1608 C   0  0  0  0  0  0  0  0  0  0  0  0
   21.4144   -7.2095  -14.5682 C   0  0  2  0  0  0  0  0  0  0  0  0
   21.1589   -7.1635  -16.0108 N   0  0  0  0  0  0  0  0  0  0  0  0
   22.2178   -6.0373  -14.1618 C   0  0  0  0  0  0  0  0  0  0  0  0
   22.9883   -5.3117  -15.0733 O   0  0  0  0  0  0  0  0  0  0  0  0
   22.2208   -5.6694  -12.9738 O   0  0  0  0  0  0  0  0  0  0  0  0
  1  2  1  0
  2  3  2  0
  4  5  1  0
  4  2  1  0
  6  7  1  1
  6  5  1  0
  8  6  1  0
  8 10  1  0
  9  8  2  0
 11 10  1  0
 11 12  1  6
 13 12  1  0
 13 17  1  0
 14 13  2  0
 15 11  1  0
 16 15  2  0
 19 18  1  6
 20 19  1  0
 21 19  1  0
 22 21  1  6
 22 23  1  0
 23 15  1  0
 24 25  1  0
 24 22  1  0
 26 24  2  0
M  END
$$$$
