QDL.pdb
     RDKit          3D

 26 25  0  0  1  0  0  0  0  0999 V2000
   20.6556  -19.8089   -9.5190 N   0  0  0  0  0  0  0  0  0  0  0  0
   19.9151  -20.4340  -10.5514 C   0  0  0  0  0  0  0  0  0  0  0  0
   18.8518  -21.0351  -10.2016 O   0  0  0  0  0  0  0  0  0  0  0  0
   20.3429  -20.3999  -11.9753 C   0  0  0  0  0  0  0  0  0  0  0  0
   21.6232  -19.6131  -12.0605 C   0  0  0  0  0  0  0  0  0  0  0  0
   22.6820  -20.3053  -12.8583 C   0  0  2  0  0  0  0  0  0  0  0  0
   22.1705  -21.4119  -13.6052 N   0  0  0  0  0  0  0  0  0  0  0  0
   23.7771  -20.7635  -11.9615 C   0  0  0  0  0  0  0  0  0  0  0  0
   23.6062  -21.8345  -11.2983 O   0  0  0  0  0  0  0  0  0  0  0  0
   24.9936  -20.0465  -11.8266 N   0  0  0  0  0  0  0  0  0  0  0  0
   26.0959  -20.6444  -11.0979 C   0  0  1  0  0  0  0  0  0  0  0  0
   27.3794  -20.2697  -11.7930 C   0  0  0  0  0  0  0  0  0  0  0  0
   27.6010  -21.0393  -13.0281 C   0  0  0  0  0  0  0  0  0  0  0  0
   26.8131  -21.9142  -13.4820 O   0  0  0  0  0  0  0  0  0  0  0  0
   26.0614  -20.2809   -9.6650 C   0  0  0  0  0  0  0  0  0  0  0  0
   25.3451  -19.3302   -9.2778 O   0  0  0  0  0  0  0  0  0  0  0  0
   28.7851  -20.7616  -13.7367 O   0  0  0  0  0  0  0  0  0  0  0  0
   29.9588  -21.3641   -5.0025 C   0  0  0  0  0  0  0  0  0  0  0  0
   28.6719  -20.6071   -5.3728 C   0  0  2  0  0  0  0  0  0  0  0  0
   27.6931  -20.8433   -4.2660 C   0  0  0  0  0  0  0  0  0  0  0  0
   28.2491  -21.1365   -6.6928 C   0  0  0  0  0  0  0  0  0  0  0  0
   27.1487  -20.3893   -7.3781 C   0  0  2  0  0  0  0  0  0  0  0  0
   26.8312  -20.9869   -8.6784 N   0  0  0  0  0  0  0  0  0  0  0  0
   27.3880  -18.9394   -7.5357 C   0  0  0  0  0  0  0  0  0  0  0  0
   26.8512  -17.9970   -6.6554 O   0  0  0  0  0  0  0  0  0  0  0  0
   28.0875  -18.5251   -8.4769 O   0  0  0  0  0  0  0  0  0  0  0  0
  1  2  1  0
  2  3  2  0
  4  5  1  0
  4  2  1  0
  6  7  1  1
  6  5  1  0
  8  6  1  0
  8 10  1  0
  9  8  2  0
 11 10  1  0
 11 12  1  6
 13 12  1  0
 13 17  1  0
 14 13  2  0
 15 11  1  0
 16 15  2  0
 19 18  1  1
 20 19  1  0
 21 19  1  0
 22 21  1  6
 22 23  1  0
 23 15  1  0
 24 25  1  0
 24 22  1  0
 26 24  2  0
M  END
$$$$
