QDL.pdb
     RDKit          3D

 26 25  0  0  1  0  0  0  0  0999 V2000
   30.9625  -23.3179  -16.9025 N   0  0  0  0  0  0  0  0  0  0  0  0
   30.3460  -23.0004  -18.1371 C   0  0  0  0  0  0  0  0  0  0  0  0
   30.7022  -23.6910  -19.1422 O   0  0  0  0  0  0  0  0  0  0  0  0
   29.3331  -21.9196  -18.2700 C   0  0  0  0  0  0  0  0  0  0  0  0
   29.2854  -21.1605  -16.9712 C   0  0  0  0  0  0  0  0  0  0  0  0
   28.6775  -21.9496  -15.8556 C   0  0  2  0  0  0  0  0  0  0  0  0
   28.0677  -23.1606  -16.3092 N   0  0  0  0  0  0  0  0  0  0  0  0
   27.6769  -21.1199  -15.1318 C   0  0  0  0  0  0  0  0  0  0  0  0
   27.9428  -19.8935  -14.9288 O   0  0  0  0  0  0  0  0  0  0  0  0
   26.4476  -21.6532  -14.6664 N   0  0  0  0  0  0  0  0  0  0  0  0
   25.5143  -20.7887  -13.9697 C   0  0  1  0  0  0  0  0  0  0  0  0
   24.2851  -20.6328  -14.8276 C   0  0  0  0  0  0  0  0  0  0  0  0
   23.2062  -19.9005  -14.1448 C   0  0  0  0  0  0  0  0  0  0  0  0
   22.2206  -20.4409  -13.5712 O   0  0  0  0  0  0  0  0  0  0  0  0
   25.2341  -21.2799  -12.6034 C   0  0  0  0  0  0  0  0  0  0  0  0
   24.9815  -22.4910  -12.4136 O   0  0  0  0  0  0  0  0  0  0  0  0
   23.3026  -18.4962  -14.1453 O   0  0  0  0  0  0  0  0  0  0  0  0
   27.3982  -21.2734   -8.5405 C   0  0  0  0  0  0  0  0  0  0  0  0
   26.8984  -19.8886   -8.9863 C   0  0  2  0  0  0  0  0  0  0  0  0
   27.4046  -18.8990   -7.9846 C   0  0  0  0  0  0  0  0  0  0  0  0
   25.4199  -19.9895   -9.0600 C   0  0  0  0  0  0  0  0  0  0  0  0
   24.8754  -20.8880  -10.1252 C   0  0  2  0  0  0  0  0  0  0  0  0
   25.2392  -20.4079  -11.4615 N   0  0  0  0  0  0  0  0  0  0  0  0
   23.4177  -21.1216  -10.0542 C   0  0  0  0  0  0  0  0  0  0  0  0
   22.8311  -21.8519   -9.0180 O   0  0  0  0  0  0  0  0  0  0  0  0
   22.6722  -20.6610  -10.9368 O   0  0  0  0  0  0  0  0  0  0  0  0
  1  2  1  0
  2  3  2  0
  4  5  1  0
  4  2  1  0
  6  7  1  6
  6  5  1  0
  8  6  1  0
  8 10  1  0
  9  8  2  0
 11 10  1  0
 11 12  1  6
 13 12  1  0
 13 17  1  0
 14 13  2  0
 15 11  1  0
 16 15  2  0
 19 18  1  1
 20 19  1  0
 21 19  1  0
 22 21  1  1
 22 23  1  0
 23 15  1  0
 24 25  1  0
 24 22  1  0
 26 24  2  0
M  END
$$$$
