QDL.pdb
     RDKit          3D

 26 25  0  0  1  0  0  0  0  0999 V2000
   27.8850  -18.8706  -21.8366 N   0  0  0  0  0  0  0  0  0  0  0  0
   27.3868  -17.8131  -21.0376 C   0  0  0  0  0  0  0  0  0  0  0  0
   28.2224  -16.9194  -20.6955 O   0  0  0  0  0  0  0  0  0  0  0  0
   25.9641  -17.7352  -20.6114 C   0  0  0  0  0  0  0  0  0  0  0  0
   25.9319  -17.3563  -19.1551 C   0  0  0  0  0  0  0  0  0  0  0  0
   25.8441  -18.5401  -18.2454 C   0  0  2  0  0  0  0  0  0  0  0  0
   25.5999  -19.7584  -18.9527 N   0  0  0  0  0  0  0  0  0  0  0  0
   24.7792  -18.3233  -17.2293 C   0  0  0  0  0  0  0  0  0  0  0  0
   24.8533  -17.2939  -16.4872 O   0  0  0  0  0  0  0  0  0  0  0  0
   23.6951  -19.2235  -17.0667 N   0  0  0  0  0  0  0  0  0  0  0  0
   22.7522  -19.0150  -15.9845 C   0  0  1  0  0  0  0  0  0  0  0  0
   21.3614  -19.0108  -16.5649 C   0  0  0  0  0  0  0  0  0  0  0  0
   20.5870  -20.2053  -16.1907 C   0  0  0  0  0  0  0  0  0  0  0  0
   20.8245  -21.3746  -16.6014 O   0  0  0  0  0  0  0  0  0  0  0  0
   22.9456  -19.9987  -14.8975 C   0  0  0  0  0  0  0  0  0  0  0  0
   23.0643  -21.2150  -15.1682 O   0  0  0  0  0  0  0  0  0  0  0  0
   19.5078  -20.0033  -15.3099 O   0  0  0  0  0  0  0  0  0  0  0  0
   23.8546  -20.9593   -9.5025 C   0  0  0  0  0  0  0  0  0  0  0  0
   24.8722  -21.2259  -10.6248 C   0  0  2  0  0  0  0  0  0  0  0  0
   26.2327  -21.0117  -10.0400 C   0  0  0  0  0  0  0  0  0  0  0  0
   24.5217  -20.2960  -11.7267 C   0  0  0  0  0  0  0  0  0  0  0  0
   23.2450  -20.5872  -12.4505 C   0  0  2  0  0  0  0  0  0  0  0  0
   23.0041  -19.6094  -13.5157 N   0  0  0  0  0  0  0  0  0  0  0  0
   22.0515  -20.6927  -11.5851 C   0  0  0  0  0  0  0  0  0  0  0  0
   21.6454  -21.9052  -11.0229 O   0  0  0  0  0  0  0  0  0  0  0  0
   21.3734  -19.6798  -11.3378 O   0  0  0  0  0  0  0  0  0  0  0  0
  1  2  1  0
  2  3  2  0
  4  5  1  0
  4  2  1  0
  6  7  1  6
  6  5  1  0
  8  6  1  0
  8 10  1  0
  9  8  2  0
 11 10  1  0
 11 12  1  6
 13 12  1  0
 13 17  1  0
 14 13  2  0
 15 11  1  0
 16 15  2  0
 19 18  1  1
 20 19  1  0
 21 19  1  0
 22 21  1  1
 22 23  1  0
 23 15  1  0
 24 25  1  0
 24 22  1  0
 26 24  2  0
M  END
$$$$
