QDL.pdb
     RDKit          3D

 26 25  0  0  1  0  0  0  0  0999 V2000
   27.6066  -12.5688  -15.4744 N   0  0  0  0  0  0  0  0  0  0  0  0
   26.6827  -13.1697  -16.3634 C   0  0  0  0  0  0  0  0  0  0  0  0
   26.0662  -14.1937  -15.9327 O   0  0  0  0  0  0  0  0  0  0  0  0
   26.4336  -12.6448  -17.7324 C   0  0  0  0  0  0  0  0  0  0  0  0
   25.4437  -11.5158  -17.6278 C   0  0  0  0  0  0  0  0  0  0  0  0
   24.0287  -11.9601  -17.8199 C   0  0  2  0  0  0  0  0  0  0  0  0
   23.8164  -12.5811  -19.0901 N   0  0  0  0  0  0  0  0  0  0  0  0
   23.1063  -10.8035  -17.6620 C   0  0  0  0  0  0  0  0  0  0  0  0
   22.8601  -10.0841  -18.6808 O   0  0  0  0  0  0  0  0  0  0  0  0
   22.5003  -10.4841  -16.4199 N   0  0  0  0  0  0  0  0  0  0  0  0
   21.5712   -9.3728  -16.3455 C   0  0  1  0  0  0  0  0  0  0  0  0
   20.2872   -9.8716  -15.7341 C   0  0  0  0  0  0  0  0  0  0  0  0
   19.2690   -8.8155  -15.6129 C   0  0  0  0  0  0  0  0  0  0  0  0
   18.5469   -8.6255  -14.5957 O   0  0  0  0  0  0  0  0  0  0  0  0
   22.1623   -8.2160  -15.6391 C   0  0  0  0  0  0  0  0  0  0  0  0
   22.7869   -8.3894  -14.5683 O   0  0  0  0  0  0  0  0  0  0  0  0
   19.1073   -7.9688  -16.7257 O   0  0  0  0  0  0  0  0  0  0  0  0
   25.1777   -5.1306  -16.9150 C   0  0  0  0  0  0  0  0  0  0  0  0
   23.7850   -4.8680  -17.5131 C   0  0  2  0  0  0  0  0  0  0  0  0
   23.9308   -3.7317  -18.4755 C   0  0  0  0  0  0  0  0  0  0  0  0
   22.8896   -4.5904  -16.3630 C   0  0  0  0  0  0  0  0  0  0  0  0
   22.6411   -5.7357  -15.4328 C   0  0  2  0  0  0  0  0  0  0  0  0
   22.0474   -6.8742  -16.1399 N   0  0  0  0  0  0  0  0  0  0  0  0
   21.8296   -5.4038  -14.2430 C   0  0  0  0  0  0  0  0  0  0  0  0
   22.3311   -4.6317  -13.1926 O   0  0  0  0  0  0  0  0  0  0  0  0
   20.6595   -5.8163  -14.1557 O   0  0  0  0  0  0  0  0  0  0  0  0
  1  2  1  0
  2  3  2  0
  4  5  1  0
  4  2  1  0
  6  7  1  6
  6  5  1  0
  8  6  1  0
  8 10  1  0
  9  8  2  0
 11 10  1  0
 11 12  1  1
 13 12  1  0
 13 17  1  0
 14 13  2  0
 15 11  1  0
 16 15  2  0
 19 18  1  1
 20 19  1  0
 21 19  1  0
 22 21  1  6
 22 23  1  0
 23 15  1  0
 24 25  1  0
 24 22  1  0
 26 24  2  0
M  END
$$$$
