QDL.pdb
     RDKit          3D

 26 25  0  0  1  0  0  0  0  0999 V2000
   26.0709  -19.1346  -17.3651 N   0  0  0  0  0  0  0  0  0  0  0  0
   27.3996  -18.7488  -17.6664 C   0  0  0  0  0  0  0  0  0  0  0  0
   27.7783  -18.9129  -18.8680 O   0  0  0  0  0  0  0  0  0  0  0  0
   28.3180  -18.1800  -16.6444 C   0  0  0  0  0  0  0  0  0  0  0  0
   27.5940  -18.1579  -15.3250 C   0  0  0  0  0  0  0  0  0  0  0  0
   27.9039  -19.3443  -14.4688 C   0  0  2  0  0  0  0  0  0  0  0  0
   27.7261  -20.5821  -15.1618 N   0  0  0  0  0  0  0  0  0  0  0  0
   27.0579  -19.3237  -13.2452 C   0  0  0  0  0  0  0  0  0  0  0  0
   27.0811  -18.2853  -12.5124 O   0  0  0  0  0  0  0  0  0  0  0  0
   26.2349  -20.4188  -12.8769 N   0  0  0  0  0  0  0  0  0  0  0  0
   25.3733  -20.3036  -11.7158 C   0  0  1  0  0  0  0  0  0  0  0  0
   24.0480  -20.9399  -12.0469 C   0  0  0  0  0  0  0  0  0  0  0  0
   23.3761  -20.2916  -13.1848 C   0  0  0  0  0  0  0  0  0  0  0  0
   23.0453  -19.0746  -13.2270 O   0  0  0  0  0  0  0  0  0  0  0  0
   26.0172  -20.8543  -10.5039 C   0  0  0  0  0  0  0  0  0  0  0  0
   26.5733  -21.9749  -10.5452 O   0  0  0  0  0  0  0  0  0  0  0  0
   23.0920  -21.1092  -14.2949 O   0  0  0  0  0  0  0  0  0  0  0  0
   27.1443  -20.2672   -5.0751 C   0  0  0  0  0  0  0  0  0  0  0  0
   28.2354  -20.1970   -6.1572 C   0  0  2  0  0  0  0  0  0  0  0  0
   29.2989  -19.2775   -5.6453 C   0  0  0  0  0  0  0  0  0  0  0  0
   27.5594  -19.7301   -7.3928 C   0  0  0  0  0  0  0  0  0  0  0  0
   26.6444  -20.7132   -8.0523 C   0  0  2  0  0  0  0  0  0  0  0  0
   26.0314  -20.1431   -9.2555 N   0  0  0  0  0  0  0  0  0  0  0  0
   25.5979  -21.2738   -7.1720 C   0  0  0  0  0  0  0  0  0  0  0  0
   25.8340  -22.3726   -6.3424 O   0  0  0  0  0  0  0  0  0  0  0  0
   24.4634  -20.7645   -7.1552 O   0  0  0  0  0  0  0  0  0  0  0  0
  1  2  1  0
  2  3  2  0
  4  5  1  0
  4  2  1  0
  6  7  1  6
  6  5  1  0
  8  6  1  0
  8 10  1  0
  9  8  2  0
 11 10  1  0
 11 12  1  6
 13 12  1  0
 13 17  1  0
 14 13  2  0
 15 11  1  0
 16 15  2  0
 19 18  1  1
 20 19  1  0
 21 19  1  0
 22 21  1  1
 22 23  1  0
 23 15  1  0
 24 25  1  0
 24 22  1  0
 26 24  2  0
M  END
$$$$
