HDN.pdb
     RDKit          3D

 27 27  0  0  1  0  0  0  0  0999 V2000
   10.2507  -15.5306   20.0817 N   0  0  0  0  0  0  0  0  0  0  0  0
    9.3307  -15.0908   21.1171 C   0  0  1  0  0  0  0  0  0  0  0  0
    7.9462  -15.1687   20.5058 C   0  0  0  0  0  0  0  0  0  0  0  0
    7.7711  -14.3279   19.3112 C   0  0  0  0  0  0  0  0  0  0  0  0
    8.7551  -13.5934   18.6430 C   0  0  0  0  0  0  0  0  0  0  0  0
    8.1918  -12.9478   17.5962 N   0  0  0  0  0  0  0  0  0  0  0  0
    6.8725  -13.2626   17.5941 C   0  0  0  0  0  0  0  0  0  0  0  0
    6.6385  -14.0958   18.6357 N   0  0  0  0  0  0  0  0  0  0  0  0
    9.3901  -15.9446   22.3063 C   0  0  0  0  0  0  0  0  0  0  0  0
    8.5333  -15.7249   23.2185 O   0  0  0  0  0  0  0  0  0  0  0  0
   10.3351  -16.9916   22.5013 N   0  0  0  0  0  0  0  0  0  0  0  0
   10.2857  -17.7474   23.7057 C   0  0  1  0  0  0  0  0  0  0  0  0
   11.1381  -19.0066   23.6268 C   0  0  0  0  0  0  0  0  0  0  0  0
   10.6311  -19.9487   22.6282 C   0  0  0  0  0  0  0  0  0  0  0  0
    9.3933  -20.1188   22.4832 O   0  0  0  0  0  0  0  0  0  0  0  0
   10.7249  -17.0037   24.9064 C   0  0  0  0  0  0  0  0  0  0  0  0
   11.6855  -16.2006   24.7452 O   0  0  0  0  0  0  0  0  0  0  0  0
   11.4566  -20.6795   21.8160 O   0  0  0  0  0  0  0  0  0  0  0  0
   10.7904  -14.3011   29.3890 N   0  0  0  0  0  0  0  0  0  0  0  0
    9.7654  -14.1076   28.4322 C   0  0  0  0  0  0  0  0  0  0  0  0
    9.0662  -13.0650   28.5525 O   0  0  0  0  0  0  0  0  0  0  0  0
    9.5267  -15.0637   27.3550 C   0  0  0  0  0  0  0  0  0  0  0  0
   10.4698  -16.2137   27.2850 C   0  0  2  0  0  0  0  0  0  0  0  0
   10.1723  -17.1141   26.1890 N   0  0  0  0  0  0  0  0  0  0  0  0
   10.5032  -16.9528   28.5662 C   0  0  0  0  0  0  0  0  0  0  0  0
   11.1618  -16.3945   29.6889 O   0  0  0  0  0  0  0  0  0  0  0  0
    9.9899  -18.0724   28.7827 O   0  0  0  0  0  0  0  0  0  0  0  0
  2  1  1  6
  2  9  1  0
  3  2  1  0
  3  4  1  0
  4  8  1  0
  4  5  2  0
  5  6  1  0
  7  6  1  0
  8  7  2  0
  9 10  2  0
 11  9  1  0
 11 12  1  0
 12 16  1  0
 12 13  1  6
 14 13  1  0
 15 14  2  0
 16 17  2  0
 18 14  1  0
 19 20  1  0
 20 22  1  0
 21 20  2  0
 23 22  1  1
 23 25  1  0
 24 16  1  0
 24 23  1  0
 25 27  2  0
 25 26  1  0
M  END
$$$$
