HDN.pdb
     RDKit          3D

 27 27  0  0  1  0  0  0  0  0999 V2000
   10.1443  -15.7160   17.2331 N   0  0  0  0  0  0  0  0  0  0  0  0
   10.9163  -14.7184   17.9547 C   0  0  1  0  0  0  0  0  0  0  0  0
   10.0308  -14.2468   19.0905 C   0  0  0  0  0  0  0  0  0  0  0  0
    8.8231  -13.5310   18.6505 C   0  0  0  0  0  0  0  0  0  0  0  0
    8.4548  -13.2221   17.3378 C   0  0  0  0  0  0  0  0  0  0  0  0
    7.2798  -12.5518   17.3533 N   0  0  0  0  0  0  0  0  0  0  0  0
    6.9030  -12.4337   18.6509 C   0  0  0  0  0  0  0  0  0  0  0  0
    7.8464  -13.0304   19.4177 N   0  0  0  0  0  0  0  0  0  0  0  0
   12.1592  -15.2709   18.4991 C   0  0  0  0  0  0  0  0  0  0  0  0
   12.1226  -16.4688   18.9215 O   0  0  0  0  0  0  0  0  0  0  0  0
   13.3896  -14.5594   18.5833 N   0  0  0  0  0  0  0  0  0  0  0  0
   14.4648  -15.1290   19.3207 C   0  0  1  0  0  0  0  0  0  0  0  0
   15.7617  -14.3535   19.1335 C   0  0  0  0  0  0  0  0  0  0  0  0
   16.2454  -14.4215   17.7540 C   0  0  0  0  0  0  0  0  0  0  0  0
   16.3322  -15.5284   17.1629 O   0  0  0  0  0  0  0  0  0  0  0  0
   14.2213  -15.2174   20.7769 C   0  0  0  0  0  0  0  0  0  0  0  0
   14.0155  -14.1252   21.3757 O   0  0  0  0  0  0  0  0  0  0  0  0
   16.6215  -13.3104   17.0476 O   0  0  0  0  0  0  0  0  0  0  0  0
   10.6220  -16.0510   24.8266 N   0  0  0  0  0  0  0  0  0  0  0  0
   11.7722  -16.7580   24.4017 C   0  0  0  0  0  0  0  0  0  0  0  0
   12.3321  -17.4969   25.2565 O   0  0  0  0  0  0  0  0  0  0  0  0
   12.2879  -16.6431   23.0406 C   0  0  0  0  0  0  0  0  0  0  0  0
   13.7610  -16.4666   22.9158 C   0  0  2  0  0  0  0  0  0  0  0  0
   14.2000  -16.3943   21.5365 N   0  0  0  0  0  0  0  0  0  0  0  0
   14.4877  -17.5367   23.6338 C   0  0  0  0  0  0  0  0  0  0  0  0
   14.6868  -17.4419   25.0328 O   0  0  0  0  0  0  0  0  0  0  0  0
   14.9715  -18.5692   23.1203 O   0  0  0  0  0  0  0  0  0  0  0  0
  2  1  1  1
  2  9  1  0
  3  2  1  0
  3  4  1  0
  4  8  1  0
  4  5  2  0
  5  6  1  0
  7  6  1  0
  8  7  2  0
  9 10  2  0
 11  9  1  0
 11 12  1  0
 12 16  1  0
 12 13  1  1
 14 13  1  0
 15 14  2  0
 16 17  2  0
 18 14  1  0
 19 20  1  0
 20 22  1  0
 21 20  2  0
 23 22  1  6
 23 25  1  0
 24 16  1  0
 24 23  1  0
 25 27  2  0
 25 26  1  0
M  END
$$$$
