HDN.pdb
     RDKit          3D

 27 27  0  0  1  0  0  0  0  0999 V2000
    8.9940  -15.3237   16.7894 N   0  0  0  0  0  0  0  0  0  0  0  0
   10.0881  -14.4050   17.0553 C   0  0  1  0  0  0  0  0  0  0  0  0
    9.4579  -13.1730   17.6730 C   0  0  0  0  0  0  0  0  0  0  0  0
    8.6816  -13.4453   18.8927 C   0  0  0  0  0  0  0  0  0  0  0  0
    8.9559  -12.9950   20.1874 C   0  0  0  0  0  0  0  0  0  0  0  0
    8.0097  -13.4675   21.0308 N   0  0  0  0  0  0  0  0  0  0  0  0
    7.1460  -14.2062   20.2905 C   0  0  0  0  0  0  0  0  0  0  0  0
    7.5681  -14.1807   19.0040 N   0  0  0  0  0  0  0  0  0  0  0  0
   11.0701  -14.9711   17.9837 C   0  0  0  0  0  0  0  0  0  0  0  0
   10.8167  -16.1206   18.4623 O   0  0  0  0  0  0  0  0  0  0  0  0
   12.2749  -14.3228   18.3778 N   0  0  0  0  0  0  0  0  0  0  0  0
   13.2222  -15.0452   19.1557 C   0  0  1  0  0  0  0  0  0  0  0  0
   14.6346  -14.5021   18.9872 C   0  0  0  0  0  0  0  0  0  0  0  0
   15.1420  -14.7089   17.6302 C   0  0  0  0  0  0  0  0  0  0  0  0
   14.9123  -15.7852   17.0210 O   0  0  0  0  0  0  0  0  0  0  0  0
   12.9339  -15.0551   20.6063 C   0  0  0  0  0  0  0  0  0  0  0  0
   13.6079  -14.2566   21.3147 O   0  0  0  0  0  0  0  0  0  0  0  0
   15.8773  -13.7647   16.9647 O   0  0  0  0  0  0  0  0  0  0  0  0
    8.9396  -16.0776   21.3438 N   0  0  0  0  0  0  0  0  0  0  0  0
    9.4334  -15.9087   22.6595 C   0  0  0  0  0  0  0  0  0  0  0  0
    8.7964  -15.1184   23.4077 O   0  0  0  0  0  0  0  0  0  0  0  0
   10.6204  -16.6146   23.1333 C   0  0  0  0  0  0  0  0  0  0  0  0
   11.9282  -16.0617   22.6854 C   0  0  2  0  0  0  0  0  0  0  0  0
   11.9893  -15.8643   21.2508 N   0  0  0  0  0  0  0  0  0  0  0  0
   13.0492  -16.9146   23.1377 C   0  0  0  0  0  0  0  0  0  0  0  0
   13.3054  -17.0724   24.5216 O   0  0  0  0  0  0  0  0  0  0  0  0
   13.8377  -17.5450   22.3995 O   0  0  0  0  0  0  0  0  0  0  0  0
  2  1  1  1
  2  9  1  0
  3  2  1  0
  3  4  1  0
  4  8  1  0
  4  5  2  0
  5  6  1  0
  7  6  1  0
  8  7  2  0
  9 10  2  0
 11  9  1  0
 11 12  1  0
 12 16  1  0
 12 13  1  1
 14 13  1  0
 15 14  2  0
 16 17  2  0
 18 14  1  0
 19 20  1  0
 20 22  1  0
 21 20  2  0
 23 22  1  6
 23 25  1  0
 24 16  1  0
 24 23  1  0
 25 27  2  0
 25 26  1  0
M  END
$$$$
