HDN.pdb
     RDKit          3D

 27 27  0  0  1  0  0  0  0  0999 V2000
    8.0606  -17.2637   18.5104 N   0  0  0  0  0  0  0  0  0  0  0  0
    9.3414  -16.5791   18.4577 C   0  0  1  0  0  0  0  0  0  0  0  0
    9.0991  -15.1959   19.0275 C   0  0  0  0  0  0  0  0  0  0  0  0
    8.0876  -14.4163   18.2971 C   0  0  0  0  0  0  0  0  0  0  0  0
    7.3597  -14.8184   17.1734 C   0  0  0  0  0  0  0  0  0  0  0  0
    6.5359  -13.8139   16.7963 N   0  0  0  0  0  0  0  0  0  0  0  0
    6.7324  -12.7882   17.6617 C   0  0  0  0  0  0  0  0  0  0  0  0
    7.6717  -13.1708   18.5592 N   0  0  0  0  0  0  0  0  0  0  0  0
   10.3654  -17.2636   19.2511 C   0  0  0  0  0  0  0  0  0  0  0  0
    9.9954  -17.7753   20.3538 O   0  0  0  0  0  0  0  0  0  0  0  0
   11.7311  -17.3902   18.8690 N   0  0  0  0  0  0  0  0  0  0  0  0
   12.6664  -17.8942   19.8152 C   0  0  1  0  0  0  0  0  0  0  0  0
   13.9795  -18.3019   19.1611 C   0  0  0  0  0  0  0  0  0  0  0  0
   13.7807  -19.3040   18.1132 C   0  0  0  0  0  0  0  0  0  0  0  0
   14.1250  -19.0633   16.9276 O   0  0  0  0  0  0  0  0  0  0  0  0
   13.0010  -16.9467   20.9005 C   0  0  0  0  0  0  0  0  0  0  0  0
   12.3329  -15.8760   20.9323 O   0  0  0  0  0  0  0  0  0  0  0  0
   13.2221  -20.5297   18.3598 O   0  0  0  0  0  0  0  0  0  0  0  0
   13.3781  -16.2241   26.0440 N   0  0  0  0  0  0  0  0  0  0  0  0
   12.3962  -16.9189   25.2979 C   0  0  0  0  0  0  0  0  0  0  0  0
   11.3494  -17.2575   25.9143 O   0  0  0  0  0  0  0  0  0  0  0  0
   12.5800  -17.2287   23.8831 C   0  0  0  0  0  0  0  0  0  0  0  0
   13.8399  -16.7297   23.2662 C   0  0  2  0  0  0  0  0  0  0  0  0
   13.9827  -17.1349   21.8820 N   0  0  0  0  0  0  0  0  0  0  0  0
   15.0203  -17.1511   24.0522 C   0  0  0  0  0  0  0  0  0  0  0  0
   15.9178  -16.1794   24.5583 O   0  0  0  0  0  0  0  0  0  0  0  0
   15.3328  -18.3283   24.3357 O   0  0  0  0  0  0  0  0  0  0  0  0
  2  1  1  1
  2  9  1  0
  3  2  1  0
  3  4  1  0
  4  8  1  0
  4  5  2  0
  5  6  1  0
  7  6  1  0
  8  7  2  0
  9 10  2  0
 11  9  1  0
 11 12  1  0
 12 16  1  0
 12 13  1  6
 14 13  1  0
 15 14  2  0
 16 17  2  0
 18 14  1  0
 19 20  1  0
 20 22  1  0
 21 20  2  0
 23 22  1  1
 23 25  1  0
 24 16  1  0
 24 23  1  0
 25 27  2  0
 25 26  1  0
M  END
$$$$
