HDN.pdb
     RDKit          3D

 27 27  0  0  1  0  0  0  0  0999 V2000
    8.8268  -17.0468   19.5242 N   0  0  0  0  0  0  0  0  0  0  0  0
    9.3927  -16.1783   20.5426 C   0  0  1  0  0  0  0  0  0  0  0  0
    8.2707  -15.2560   20.9752 C   0  0  0  0  0  0  0  0  0  0  0  0
    7.9234  -14.2286   19.9811 C   0  0  0  0  0  0  0  0  0  0  0  0
    8.4372  -12.9315   19.8913 C   0  0  0  0  0  0  0  0  0  0  0  0
    7.8596  -12.2976   18.8451 N   0  0  0  0  0  0  0  0  0  0  0  0
    6.9926  -13.1716   18.2760 C   0  0  0  0  0  0  0  0  0  0  0  0
    7.0454  -14.3302   18.9752 N   0  0  0  0  0  0  0  0  0  0  0  0
    9.8816  -16.9318   21.7001 C   0  0  0  0  0  0  0  0  0  0  0  0
    9.2066  -17.9484   22.0546 O   0  0  0  0  0  0  0  0  0  0  0  0
   11.0504  -16.6011   22.4429 N   0  0  0  0  0  0  0  0  0  0  0  0
   11.3985  -17.3982   23.5688 C   0  0  1  0  0  0  0  0  0  0  0  0
   12.8412  -17.1775   24.0025 C   0  0  0  0  0  0  0  0  0  0  0  0
   13.2469  -18.1149   25.0507 C   0  0  0  0  0  0  0  0  0  0  0  0
   12.6447  -19.2098   25.1943 O   0  0  0  0  0  0  0  0  0  0  0  0
   10.5505  -17.1694   24.7588 C   0  0  0  0  0  0  0  0  0  0  0  0
   10.9630  -16.3040   25.5802 O   0  0  0  0  0  0  0  0  0  0  0  0
   14.2796  -17.8577   25.9123 O   0  0  0  0  0  0  0  0  0  0  0  0
    6.8431  -17.8333   24.2431 N   0  0  0  0  0  0  0  0  0  0  0  0
    6.6548  -18.7444   25.3099 C   0  0  0  0  0  0  0  0  0  0  0  0
    5.6349  -19.4838   25.2512 O   0  0  0  0  0  0  0  0  0  0  0  0
    7.5936  -18.8299   26.4247 C   0  0  0  0  0  0  0  0  0  0  0  0
    8.7562  -17.9015   26.3688 C   0  0  2  0  0  0  0  0  0  0  0  0
    9.3453  -17.8230   25.0469 N   0  0  0  0  0  0  0  0  0  0  0  0
    9.7809  -18.2713   27.3699 C   0  0  0  0  0  0  0  0  0  0  0  0
   10.1305  -19.6310   27.5563 O   0  0  0  0  0  0  0  0  0  0  0  0
   10.4062  -17.4796   28.1089 O   0  0  0  0  0  0  0  0  0  0  0  0
  2  1  1  6
  2  9  1  0
  3  2  1  0
  3  4  1  0
  4  8  1  0
  4  5  2  0
  5  6  1  0
  7  6  1  0
  8  7  2  0
  9 10  2  0
 11  9  1  0
 11 12  1  0
 12 16  1  0
 12 13  1  1
 14 13  1  0
 15 14  2  0
 16 17  2  0
 18 14  1  0
 19 20  1  0
 20 22  1  0
 21 20  2  0
 23 22  1  6
 23 25  1  0
 24 16  1  0
 24 23  1  0
 25 27  2  0
 25 26  1  0
M  END
$$$$
