HDN.pdb
     RDKit          3D

 27 27  0  0  1  0  0  0  0  0999 V2000
    6.9702  -16.8678   19.7877 N   0  0  0  0  0  0  0  0  0  0  0  0
    8.4035  -16.6357   19.7264 C   0  0  1  0  0  0  0  0  0  0  0  0
    8.5968  -15.1521   19.9677 C   0  0  0  0  0  0  0  0  0  0  0  0
    7.9867  -14.2939   18.9402 C   0  0  0  0  0  0  0  0  0  0  0  0
    7.0317  -13.2916   19.1342 C   0  0  0  0  0  0  0  0  0  0  0  0
    6.7212  -12.7382   17.9395 N   0  0  0  0  0  0  0  0  0  0  0  0
    7.4629  -13.3739   16.9985 C   0  0  0  0  0  0  0  0  0  0  0  0
    8.2195  -14.3085   17.6216 N   0  0  0  0  0  0  0  0  0  0  0  0
    9.1293  -17.3968   20.7464 C   0  0  0  0  0  0  0  0  0  0  0  0
    8.5150  -17.6400   21.8318 O   0  0  0  0  0  0  0  0  0  0  0  0
   10.4622  -17.8754   20.5996 N   0  0  0  0  0  0  0  0  0  0  0  0
   11.0436  -18.6276   21.6581 C   0  0  1  0  0  0  0  0  0  0  0  0
   10.9295  -20.1278   21.4242 C   0  0  0  0  0  0  0  0  0  0  0  0
   11.5560  -20.8982   22.4992 C   0  0  0  0  0  0  0  0  0  0  0  0
   11.0232  -20.9542   23.6372 O   0  0  0  0  0  0  0  0  0  0  0  0
   12.4741  -18.3354   21.8946 C   0  0  0  0  0  0  0  0  0  0  0  0
   13.2667  -18.6321   20.9579 O   0  0  0  0  0  0  0  0  0  0  0  0
   12.7289  -21.5843   22.3295 O   0  0  0  0  0  0  0  0  0  0  0  0
   15.5253  -16.4567   20.8405 N   0  0  0  0  0  0  0  0  0  0  0  0
   15.3401  -15.5968   21.9494 C   0  0  0  0  0  0  0  0  0  0  0  0
   15.6850  -14.3933   21.7982 O   0  0  0  0  0  0  0  0  0  0  0  0
   14.7751  -16.0740   23.2083 C   0  0  0  0  0  0  0  0  0  0  0  0
   14.4293  -17.5213   23.2590 C   0  0  2  0  0  0  0  0  0  0  0  0
   13.0155  -17.7653   23.0541 N   0  0  0  0  0  0  0  0  0  0  0  0
   14.8802  -18.1317   24.5290 C   0  0  0  0  0  0  0  0  0  0  0  0
   16.2637  -18.2950   24.7844 O   0  0  0  0  0  0  0  0  0  0  0  0
   14.1412  -18.5414   25.4509 O   0  0  0  0  0  0  0  0  0  0  0  0
  2  1  1  1
  2  9  1  0
  3  2  1  0
  3  4  1  0
  4  8  1  0
  4  5  2  0
  5  6  1  0
  7  6  1  0
  8  7  2  0
  9 10  2  0
 11  9  1  0
 11 12  1  0
 12 16  1  0
 12 13  1  6
 14 13  1  0
 15 14  2  0
 16 17  2  0
 18 14  1  0
 19 20  1  0
 20 22  1  0
 21 20  2  0
 23 22  1  1
 23 25  1  0
 24 16  1  0
 24 23  1  0
 25 27  2  0
 25 26  1  0
M  END
$$$$
