HDN.pdb
     RDKit          3D

 27 27  0  0  1  0  0  0  0  0999 V2000
   10.1666  -17.3101   16.7731 N   0  0  0  0  0  0  0  0  0  0  0  0
    9.3015  -16.7734   17.8101 C   0  0  1  0  0  0  0  0  0  0  0  0
    7.9320  -16.6288   17.1777 C   0  0  0  0  0  0  0  0  0  0  0  0
    7.8798  -15.6509   16.0797 C   0  0  0  0  0  0  0  0  0  0  0  0
    8.9595  -14.9998   15.4758 C   0  0  0  0  0  0  0  0  0  0  0  0
    8.4950  -14.1735   14.5107 N   0  0  0  0  0  0  0  0  0  0  0  0
    7.1441  -14.2930   14.4968 C   0  0  0  0  0  0  0  0  0  0  0  0
    6.7924  -15.1883   15.4500 N   0  0  0  0  0  0  0  0  0  0  0  0
    9.2140  -17.6637   18.9704 C   0  0  0  0  0  0  0  0  0  0  0  0
    8.4931  -17.2765   19.9425 O   0  0  0  0  0  0  0  0  0  0  0  0
    9.8771  -18.9192   19.0758 N   0  0  0  0  0  0  0  0  0  0  0  0
    9.8291  -19.6210   20.3125 C   0  0  1  0  0  0  0  0  0  0  0  0
   10.1601  -21.0979   20.1459 C   0  0  0  0  0  0  0  0  0  0  0  0
    9.9974  -21.8394   21.3971 C   0  0  0  0  0  0  0  0  0  0  0  0
   10.9532  -21.9371   22.2089 O   0  0  0  0  0  0  0  0  0  0  0  0
   10.7416  -19.0885   21.3475 C   0  0  0  0  0  0  0  0  0  0  0  0
   11.9675  -19.0564   21.0477 O   0  0  0  0  0  0  0  0  0  0  0  0
    8.8238  -22.4533   21.7446 O   0  0  0  0  0  0  0  0  0  0  0  0
    9.8595  -14.8980   22.5197 N   0  0  0  0  0  0  0  0  0  0  0  0
   10.9859  -15.6806   22.8696 C   0  0  0  0  0  0  0  0  0  0  0  0
   12.0382  -15.4914   22.2009 O   0  0  0  0  0  0  0  0  0  0  0  0
   10.9380  -16.6584   23.9527 C   0  0  0  0  0  0  0  0  0  0  0  0
   11.2846  -18.0580   23.5814 C   0  0  2  0  0  0  0  0  0  0  0  0
   10.3652  -18.6233   22.6141 N   0  0  0  0  0  0  0  0  0  0  0  0
   11.3686  -18.9210   24.7801 C   0  0  0  0  0  0  0  0  0  0  0  0
   10.5137  -20.0432   24.9061 O   0  0  0  0  0  0  0  0  0  0  0  0
   12.1484  -18.7651   25.7452 O   0  0  0  0  0  0  0  0  0  0  0  0
  2  1  1  6
  2  9  1  0
  3  2  1  0
  3  4  1  0
  4  8  1  0
  4  5  2  0
  5  6  1  0
  7  6  1  0
  8  7  2  0
  9 10  2  0
 11  9  1  0
 11 12  1  0
 12 16  1  0
 12 13  1  6
 14 13  1  0
 15 14  2  0
 16 17  2  0
 18 14  1  0
 19 20  1  0
 20 22  1  0
 21 20  2  0
 23 22  1  1
 23 25  1  0
 24 16  1  0
 24 23  1  0
 25 27  2  0
 25 26  1  0
M  END
$$$$
