HDN.pdb
     RDKit          3D

 27 27  0  0  1  0  0  0  0  0999 V2000
    8.5807  -20.0896   21.5035 N   0  0  0  0  0  0  0  0  0  0  0  0
    9.1127  -21.4292   21.3184 C   0  0  1  0  0  0  0  0  0  0  0  0
    9.9694  -21.3692   20.0698 C   0  0  0  0  0  0  0  0  0  0  0  0
    9.5324  -20.3607   19.0918 C   0  0  0  0  0  0  0  0  0  0  0  0
    8.2190  -20.0504   18.7271 C   0  0  0  0  0  0  0  0  0  0  0  0
    8.2379  -19.0723   17.7928 N   0  0  0  0  0  0  0  0  0  0  0  0
    9.5382  -18.7623   17.5635 C   0  0  0  0  0  0  0  0  0  0  0  0
   10.3034  -19.5498   18.3561 N   0  0  0  0  0  0  0  0  0  0  0  0
    9.9317  -21.8589   22.4546 C   0  0  0  0  0  0  0  0  0  0  0  0
   10.5076  -22.9875   22.3575 O   0  0  0  0  0  0  0  0  0  0  0  0
   10.1208  -21.1013   23.6452 N   0  0  0  0  0  0  0  0  0  0  0  0
   10.8061  -21.6989   24.7395 C   0  0  1  0  0  0  0  0  0  0  0  0
   12.2542  -22.0241   24.3994 C   0  0  0  0  0  0  0  0  0  0  0  0
   12.4264  -23.4288   24.0267 C   0  0  0  0  0  0  0  0  0  0  0  0
   11.6207  -24.3014   24.4409 O   0  0  0  0  0  0  0  0  0  0  0  0
   10.8259  -20.8729   25.9662 C   0  0  0  0  0  0  0  0  0  0  0  0
   11.9234  -20.3150   26.2457 O   0  0  0  0  0  0  0  0  0  0  0  0
   13.4498  -23.8603   23.2258 O   0  0  0  0  0  0  0  0  0  0  0  0
    8.3965  -18.3804   25.3325 N   0  0  0  0  0  0  0  0  0  0  0  0
    7.6231  -18.4995   26.5120 C   0  0  0  0  0  0  0  0  0  0  0  0
    6.4167  -18.1396   26.4383 O   0  0  0  0  0  0  0  0  0  0  0  0
    8.1887  -19.0156   27.7551 C   0  0  0  0  0  0  0  0  0  0  0  0
    9.5963  -19.4949   27.6797 C   0  0  2  0  0  0  0  0  0  0  0  0
    9.7448  -20.6606   26.8314 N   0  0  0  0  0  0  0  0  0  0  0  0
   10.1390  -19.7655   29.0292 C   0  0  0  0  0  0  0  0  0  0  0  0
   10.3893  -18.6932   29.9200 O   0  0  0  0  0  0  0  0  0  0  0  0
   10.4166  -20.8912   29.4979 O   0  0  0  0  0  0  0  0  0  0  0  0
  2  1  1  1
  2  9  1  0
  3  2  1  0
  3  4  1  0
  4  8  1  0
  4  5  2  0
  5  6  1  0
  7  6  1  0
  8  7  2  0
  9 10  2  0
 11  9  1  0
 11 12  1  0
 12 16  1  0
 12 13  1  6
 14 13  1  0
 15 14  2  0
 16 17  2  0
 18 14  1  0
 19 20  1  0
 20 22  1  0
 21 20  2  0
 23 22  1  1
 23 25  1  0
 24 16  1  0
 24 23  1  0
 25 27  2  0
 25 26  1  0
M  END
$$$$
