HDN.pdb
     RDKit          3D

 27 27  0  0  1  0  0  0  0  0999 V2000
   11.6227  -14.5644   19.9266 N   0  0  0  0  0  0  0  0  0  0  0  0
   10.5320  -15.0463   20.7573 C   0  0  1  0  0  0  0  0  0  0  0  0
    9.3314  -15.1678   19.8405 C   0  0  0  0  0  0  0  0  0  0  0  0
    8.7388  -13.8773   19.4558 C   0  0  0  0  0  0  0  0  0  0  0  0
    9.2246  -12.6013   19.7557 C   0  0  0  0  0  0  0  0  0  0  0  0
    8.3914  -11.6748   19.2290 N   0  0  0  0  0  0  0  0  0  0  0  0
    7.3913  -12.3446   18.6039 C   0  0  0  0  0  0  0  0  0  0  0  0
    7.6186  -13.6714   18.7518 N   0  0  0  0  0  0  0  0  0  0  0  0
   10.8279  -16.3516   21.3530 C   0  0  0  0  0  0  0  0  0  0  0  0
    9.9493  -16.8463   22.1263 O   0  0  0  0  0  0  0  0  0  0  0  0
   12.0225  -17.0914   21.1227 N   0  0  0  0  0  0  0  0  0  0  0  0
   12.2411  -18.2909   21.8560 C   0  0  1  0  0  0  0  0  0  0  0  0
   13.3915  -19.1091   21.2855 C   0  0  0  0  0  0  0  0  0  0  0  0
   13.2575  -19.3088   19.8419 C   0  0  0  0  0  0  0  0  0  0  0  0
   12.2642  -19.9213   19.3727 O   0  0  0  0  0  0  0  0  0  0  0  0
   12.5318  -18.0797   23.2907 C   0  0  0  0  0  0  0  0  0  0  0  0
   12.3774  -16.9041   23.7244 O   0  0  0  0  0  0  0  0  0  0  0  0
   14.1842  -18.8508   18.9438 O   0  0  0  0  0  0  0  0  0  0  0  0
   10.4089  -18.0027   28.0030 N   0  0  0  0  0  0  0  0  0  0  0  0
   10.7053  -19.1440   27.2201 C   0  0  0  0  0  0  0  0  0  0  0  0
   10.5743  -20.2661   27.7803 O   0  0  0  0  0  0  0  0  0  0  0  0
   11.1392  -19.0333   25.8305 C   0  0  0  0  0  0  0  0  0  0  0  0
   12.6098  -19.0779   25.6026 C   0  0  2  0  0  0  0  0  0  0  0  0
   12.9579  -19.0604   24.1958 N   0  0  0  0  0  0  0  0  0  0  0  0
   13.2162  -20.2506   26.2703 C   0  0  0  0  0  0  0  0  0  0  0  0
   14.1454  -20.0644   27.3227 O   0  0  0  0  0  0  0  0  0  0  0  0
   12.9907  -21.4500   25.9975 O   0  0  0  0  0  0  0  0  0  0  0  0
  2  1  1  6
  2  9  1  0
  3  2  1  0
  3  4  1  0
  4  8  1  0
  4  5  2  0
  5  6  1  0
  7  6  1  0
  8  7  2  0
  9 10  2  0
 11  9  1  0
 11 12  1  0
 12 16  1  0
 12 13  1  6
 14 13  1  0
 15 14  2  0
 16 17  2  0
 18 14  1  0
 19 20  1  0
 20 22  1  0
 21 20  2  0
 23 22  1  6
 23 25  1  0
 24 16  1  0
 24 23  1  0
 25 27  2  0
 25 26  1  0
M  END
$$$$
