HDN.pdb
     RDKit          3D

 27 27  0  0  1  0  0  0  0  0999 V2000
    8.3587  -17.2084   19.7038 N   0  0  0  0  0  0  0  0  0  0  0  0
    9.4065  -16.3898   20.2901 C   0  0  1  0  0  0  0  0  0  0  0  0
    8.7235  -15.1331   20.7909 C   0  0  0  0  0  0  0  0  0  0  0  0
    8.1415  -14.3027   19.7250 C   0  0  0  0  0  0  0  0  0  0  0  0
    8.1834  -14.5428   18.3485 C   0  0  0  0  0  0  0  0  0  0  0  0
    7.5389  -13.5429   17.7044 N   0  0  0  0  0  0  0  0  0  0  0  0
    7.0929  -12.6791   18.6502 C   0  0  0  0  0  0  0  0  0  0  0  0
    7.4662  -13.1546   19.8621 N   0  0  0  0  0  0  0  0  0  0  0  0
   10.0727  -17.0641   21.4073 C   0  0  0  0  0  0  0  0  0  0  0  0
    9.3725  -17.8709   22.0954 O   0  0  0  0  0  0  0  0  0  0  0  0
   11.4377  -16.8749   21.7656 N   0  0  0  0  0  0  0  0  0  0  0  0
   11.9323  -17.4988   22.9447 C   0  0  1  0  0  0  0  0  0  0  0  0
   13.4389  -17.3340   23.0908 C   0  0  0  0  0  0  0  0  0  0  0  0
   14.1599  -17.8320   21.9187 C   0  0  0  0  0  0  0  0  0  0  0  0
   13.8468  -18.9336   21.3985 O   0  0  0  0  0  0  0  0  0  0  0  0
   11.3205  -17.0013   24.1960 C   0  0  0  0  0  0  0  0  0  0  0  0
   10.8030  -15.8509   24.1453 O   0  0  0  0  0  0  0  0  0  0  0  0
   15.1905  -17.1427   21.3376 O   0  0  0  0  0  0  0  0  0  0  0  0
    8.7004  -15.2794   25.5778 N   0  0  0  0  0  0  0  0  0  0  0  0
    8.1448  -16.5538   25.3117 C   0  0  0  0  0  0  0  0  0  0  0  0
    7.0194  -16.5748   24.7431 O   0  0  0  0  0  0  0  0  0  0  0  0
    8.8378  -17.7869   25.6733 C   0  0  0  0  0  0  0  0  0  0  0  0
   10.1568  -17.6195   26.3433 C   0  0  2  0  0  0  0  0  0  0  0  0
   11.2677  -17.6895   25.4150 N   0  0  0  0  0  0  0  0  0  0  0  0
   10.3298  -18.6069   27.4314 C   0  0  0  0  0  0  0  0  0  0  0  0
   10.1888  -18.2044   28.7819 O   0  0  0  0  0  0  0  0  0  0  0  0
   10.6006  -19.8193   27.2878 O   0  0  0  0  0  0  0  0  0  0  0  0
  2  1  1  1
  2  9  1  0
  3  2  1  0
  3  4  1  0
  4  8  1  0
  4  5  2  0
  5  6  1  0
  7  6  1  0
  8  7  2  0
  9 10  2  0
 11  9  1  0
 11 12  1  0
 12 16  1  0
 12 13  1  1
 14 13  1  0
 15 14  2  0
 16 17  2  0
 18 14  1  0
 19 20  1  0
 20 22  1  0
 21 20  2  0
 23 22  1  6
 23 25  1  0
 24 16  1  0
 24 23  1  0
 25 27  2  0
 25 26  1  0
M  END
$$$$
