WEC.pdb
     RDKit          3D

 30 31  0  0  1  0  0  0  0  0999 V2000
   23.7362  -22.9339  -15.6708 N   0  0  0  0  0  0  0  0  0  0  0  0
   23.6128  -24.2993  -15.2381 C   0  0  1  0  0  0  0  0  0  0  0  0
   24.8812  -24.6802  -14.5051 C   0  0  0  0  0  0  0  0  0  0  0  0
   26.0146  -24.7231  -15.4962 C   0  0  0  0  0  0  0  0  0  0  0  0
   26.5421  -23.6439  -16.1625 C   0  0  0  0  0  0  0  0  0  0  0  0
   27.5372  -24.0633  -16.9634 N   0  0  0  0  0  0  0  0  0  0  0  0
   27.6657  -25.4078  -16.8272 C   0  0  0  0  0  0  0  0  0  0  0  0
   28.5206  -26.3102  -17.4138 C   0  0  0  0  0  0  0  0  0  0  0  0
   28.4204  -27.6287  -17.0794 C   0  0  0  0  0  0  0  0  0  0  0  0
   27.4838  -28.0728  -16.1698 C   0  0  0  0  0  0  0  0  0  0  0  0
   26.6241  -27.1716  -15.5789 C   0  0  0  0  0  0  0  0  0  0  0  0
   26.7198  -25.8348  -15.9126 C   0  0  0  0  0  0  0  0  0  0  0  0
   22.5038  -24.4065  -14.2347 C   0  0  0  0  0  0  0  0  0  0  0  0
   22.4813  -23.6544  -13.2464 O   0  0  0  0  0  0  0  0  0  0  0  0
   21.4720  -25.3598  -14.3965 N   0  0  0  0  0  0  0  0  0  0  0  0
   20.4211  -25.6729  -13.4941 C   0  0  1  0  0  0  0  0  0  0  0  0
   19.0901  -25.0009  -13.7851 C   0  0  0  0  0  0  0  0  0  0  0  0
   19.2324  -23.5300  -13.5338 C   0  0  0  0  0  0  0  0  0  0  0  0
   17.9317  -22.8127  -13.6990 C   0  0  0  0  0  0  0  0  0  0  0  0
   17.1805  -22.4801  -12.7551 O   0  0  0  0  0  0  0  0  0  0  0  0
   20.3203  -27.0619  -13.0513 C   0  0  0  0  0  0  0  0  0  0  0  0
   20.1622  -27.9623  -13.8908 O   0  0  0  0  0  0  0  0  0  0  0  0
   17.5441  -22.5015  -14.9911 O   0  0  0  0  0  0  0  0  0  0  0  0
   20.4049  -27.3605  -11.6656 N   0  0  0  0  0  0  0  0  0  0  0  0
   20.3485  -28.7143  -11.1499 C   0  0  1  0  0  0  0  0  0  0  0  0
   21.0682  -28.8529   -9.8210 C   0  0  0  0  0  0  0  0  0  0  0  0
   22.8037  -28.3997  -10.0925 S   0  0  0  0  0  0  0  0  0  0  0  0
   18.9650  -29.2060  -11.0420 C   0  0  0  0  0  0  0  0  0  0  0  0
   18.0303  -28.3825  -11.2023 O   0  0  0  0  0  0  0  0  0  0  0  0
   18.6760  -30.5326  -10.7726 O   0  0  0  0  0  0  0  0  0  0  0  0
  2  1  1  1
  2  3  1  0
  2 13  1  0
  3  4  1  0
  4 12  1  0
  4  5  2  0
  5  6  1  0
  7  6  1  0
  7  8  2  0
  9  8  1  0
 10  9  2  0
 11 12  2  0
 11 10  1  0
 12  7  1  0
 13 14  2  0
 15 13  1  0
 15 16  1  0
 16 21  1  0
 16 17  1  6
 18 17  1  0
 19 20  2  0
 19 18  1  0
 21 22  2  0
 23 19  1  0
 24 25  1  0
 24 21  1  0
 25 28  1  0
 26 27  1  0
 25 26  1  1
 28 29  2  0
 28 30  1  0
M  END
$$$$
