WEC.pdb
     RDKit          3D

 30 31  0  0  1  0  0  0  0  0999 V2000
   24.1195  -20.1318  -10.1649 N   0  0  0  0  0  0  0  0  0  0  0  0
   25.5392  -20.0301  -10.3679 C   0  0  1  0  0  0  0  0  0  0  0  0
   26.2133  -21.1081   -9.5465 C   0  0  0  0  0  0  0  0  0  0  0  0
   26.3625  -20.6119   -8.1322 C   0  0  0  0  0  0  0  0  0  0  0  0
   25.3371  -20.3839   -7.2471 C   0  0  0  0  0  0  0  0  0  0  0  0
   25.8481  -19.9455   -6.0834 N   0  0  0  0  0  0  0  0  0  0  0  0
   27.1993  -19.8845   -6.1990 C   0  0  0  0  0  0  0  0  0  0  0  0
   28.1783  -19.5068   -5.3112 C   0  0  0  0  0  0  0  0  0  0  0  0
   29.4822  -19.5472   -5.7092 C   0  0  0  0  0  0  0  0  0  0  0  0
   29.8367  -19.9570   -6.9773 C   0  0  0  0  0  0  0  0  0  0  0  0
   28.8585  -20.3368   -7.8713 C   0  0  0  0  0  0  0  0  0  0  0  0
   27.5359  -20.2984   -7.4753 C   0  0  0  0  0  0  0  0  0  0  0  0
   25.8615  -20.3352  -11.8001 C   0  0  0  0  0  0  0  0  0  0  0  0
   25.1259  -21.0887  -12.4588 O   0  0  0  0  0  0  0  0  0  0  0  0
   27.0014  -19.7733  -12.4202 N   0  0  0  0  0  0  0  0  0  0  0  0
   27.4289  -19.9244  -13.7660 C   0  0  1  0  0  0  0  0  0  0  0  0
   28.6983  -19.1758  -14.1348 C   0  0  0  0  0  0  0  0  0  0  0  0
   28.9466  -19.3504  -15.6027 C   0  0  0  0  0  0  0  0  0  0  0  0
   28.1062  -18.4228  -16.4195 C   0  0  0  0  0  0  0  0  0  0  0  0
   27.7075  -17.3014  -16.0332 O   0  0  0  0  0  0  0  0  0  0  0  0
   27.3145  -21.2586  -14.3512 C   0  0  0  0  0  0  0  0  0  0  0  0
   28.1846  -22.1100  -14.1091 O   0  0  0  0  0  0  0  0  0  0  0  0
   27.7520  -18.8471  -17.6888 O   0  0  0  0  0  0  0  0  0  0  0  0
   26.2084  -21.5607  -15.1888 N   0  0  0  0  0  0  0  0  0  0  0  0
   25.9732  -22.8848  -15.7305 C   0  0  1  0  0  0  0  0  0  0  0  0
   25.7104  -23.9112  -14.6441 C   0  0  0  0  0  0  0  0  0  0  0  0
   24.3309  -24.9503  -15.1996 S   0  0  0  0  0  0  0  0  0  0  0  0
   24.8834  -22.8898  -16.7206 C   0  0  0  0  0  0  0  0  0  0  0  0
   24.2491  -21.8220  -16.9075 O   0  0  0  0  0  0  0  0  0  0  0  0
   24.5480  -24.0252  -17.4376 O   0  0  0  0  0  0  0  0  0  0  0  0
  2  1  1  6
  2  3  1  0
  2 13  1  0
  3  4  1  0
  4 12  1  0
  4  5  2  0
  5  6  1  0
  7  6  1  0
  7  8  2  0
  9  8  1  0
 10  9  2  0
 11 12  2  0
 11 10  1  0
 12  7  1  0
 13 14  2  0
 15 13  1  0
 15 16  1  0
 16 21  1  0
 16 17  1  1
 18 17  1  0
 19 20  2  0
 19 18  1  0
 21 22  2  0
 23 19  1  0
 24 25  1  0
 24 21  1  0
 25 28  1  0
 26 27  1  0
 25 26  1  1
 28 29  2  0
 28 30  1  0
M  END
$$$$
