WEC.pdb
     RDKit          3D

 30 31  0  0  1  0  0  0  0  0999 V2000
   26.4966  -18.9806  -11.2693 N   0  0  0  0  0  0  0  0  0  0  0  0
   26.6621  -20.3690  -11.6041 C   0  0  1  0  0  0  0  0  0  0  0  0
   26.0460  -21.1993  -10.4985 C   0  0  0  0  0  0  0  0  0  0  0  0
   26.7274  -20.8527   -9.2007 C   0  0  0  0  0  0  0  0  0  0  0  0
   26.1255  -20.2923   -8.1005 C   0  0  0  0  0  0  0  0  0  0  0  0
   27.0436  -20.1250   -7.1327 N   0  0  0  0  0  0  0  0  0  0  0  0
   28.2415  -20.5711   -7.5898 C   0  0  0  0  0  0  0  0  0  0  0  0
   29.4834  -20.6246   -7.0031 C   0  0  0  0  0  0  0  0  0  0  0  0
   30.5287  -21.1354   -7.7149 C   0  0  0  0  0  0  0  0  0  0  0  0
   30.3662  -21.5969   -9.0042 C   0  0  0  0  0  0  0  0  0  0  0  0
   29.1226  -21.5454   -9.5969 C   0  0  0  0  0  0  0  0  0  0  0  0
   28.0593  -21.0293   -8.8822 C   0  0  0  0  0  0  0  0  0  0  0  0
   25.8787  -20.6800  -12.8442 C   0  0  0  0  0  0  0  0  0  0  0  0
   24.8513  -20.0354  -13.1117 O   0  0  0  0  0  0  0  0  0  0  0  0
   26.2947  -21.7062  -13.7237 N   0  0  0  0  0  0  0  0  0  0  0  0
   25.6101  -22.2164  -14.8585 C   0  0  1  0  0  0  0  0  0  0  0  0
   26.4914  -22.8511  -15.9207 C   0  0  0  0  0  0  0  0  0  0  0  0
   25.6883  -23.0080  -17.1766 C   0  0  0  0  0  0  0  0  0  0  0  0
   26.5446  -23.4106  -18.3336 C   0  0  0  0  0  0  0  0  0  0  0  0
   26.1198  -23.6165  -19.4924 O   0  0  0  0  0  0  0  0  0  0  0  0
   24.3500  -22.9145  -14.6131 C   0  0  0  0  0  0  0  0  0  0  0  0
   24.3183  -23.8542  -13.8028 O   0  0  0  0  0  0  0  0  0  0  0  0
   27.8992  -23.5626  -18.0912 O   0  0  0  0  0  0  0  0  0  0  0  0
   23.1797  -22.5066  -15.3063 N   0  0  0  0  0  0  0  0  0  0  0  0
   21.8549  -22.9793  -14.9549 C   0  0  1  0  0  0  0  0  0  0  0  0
   21.4983  -22.6690  -13.5129 C   0  0  0  0  0  0  0  0  0  0  0  0
   21.5410  -20.8658  -13.3180 S   0  0  0  0  0  0  0  0  0  0  0  0
   20.8234  -22.4567  -15.8663 C   0  0  0  0  0  0  0  0  0  0  0  0
   21.1650  -21.5965  -16.7153 O   0  0  0  0  0  0  0  0  0  0  0  0
   19.5083  -22.8847  -15.8095 O   0  0  0  0  0  0  0  0  0  0  0  0
  2  1  1  1
  2  3  1  0
  2 13  1  0
  3  4  1  0
  4 12  1  0
  4  5  2  0
  5  6  1  0
  7  6  1  0
  7  8  2  0
  9  8  1  0
 10  9  2  0
 11 12  2  0
 11 10  1  0
 12  7  1  0
 13 14  2  0
 15 13  1  0
 15 16  1  0
 16 21  1  0
 16 17  1  1
 18 17  1  0
 19 20  2  0
 19 18  1  0
 21 22  2  0
 23 19  1  0
 24 25  1  0
 24 21  1  0
 25 28  1  0
 26 27  1  0
 25 26  1  1
 28 29  2  0
 28 30  1  0
M  END
$$$$
