WEC.pdb
     RDKit          3D

 30 31  0  0  1  0  0  0  0  0999 V2000
   27.6780  -19.1535   -9.6717 N   0  0  0  0  0  0  0  0  0  0  0  0
   27.0632  -20.4525   -9.6333 C   0  0  1  0  0  0  0  0  0  0  0  0
   26.3408  -20.5955   -8.3108 C   0  0  0  0  0  0  0  0  0  0  0  0
   27.0743  -19.7873   -7.2728 C   0  0  0  0  0  0  0  0  0  0  0  0
   27.1971  -18.4193   -7.2571 C   0  0  0  0  0  0  0  0  0  0  0  0
   27.9188  -18.0534   -6.1834 N   0  0  0  0  0  0  0  0  0  0  0  0
   28.2696  -19.1701   -5.4959 C   0  0  0  0  0  0  0  0  0  0  0  0
   28.9970  -19.3451   -4.3429 C   0  0  0  0  0  0  0  0  0  0  0  0
   29.1951  -20.6099   -3.8723 C   0  0  0  0  0  0  0  0  0  0  0  0
   28.6833  -21.7109   -4.5261 C   0  0  0  0  0  0  0  0  0  0  0  0
   27.9531  -21.5406   -5.6829 C   0  0  0  0  0  0  0  0  0  0  0  0
   27.7484  -20.2627   -6.1654 C   0  0  0  0  0  0  0  0  0  0  0  0
   26.0081  -20.5368  -10.6953 C   0  0  0  0  0  0  0  0  0  0  0  0
   25.0249  -19.7785  -10.6601 O   0  0  0  0  0  0  0  0  0  0  0  0
   26.1148  -21.4753  -11.7475 N   0  0  0  0  0  0  0  0  0  0  0  0
   25.2942  -21.5938  -12.9005 C   0  0  1  0  0  0  0  0  0  0  0  0
   25.9424  -22.2724  -14.0952 C   0  0  0  0  0  0  0  0  0  0  0  0
   25.0237  -22.1461  -15.2729 C   0  0  0  0  0  0  0  0  0  0  0  0
   25.5804  -22.8236  -16.4832 C   0  0  0  0  0  0  0  0  0  0  0  0
   26.5459  -22.3955  -17.1543 O   0  0  0  0  0  0  0  0  0  0  0  0
   23.8932  -21.9478  -12.6827 C   0  0  0  0  0  0  0  0  0  0  0  0
   23.6036  -23.0910  -12.2954 O   0  0  0  0  0  0  0  0  0  0  0  0
   24.9761  -24.0053  -16.8771 O   0  0  0  0  0  0  0  0  0  0  0  0
   22.8835  -20.9775  -12.9177 N   0  0  0  0  0  0  0  0  0  0  0  0
   21.4796  -21.2267  -12.6552 C   0  0  1  0  0  0  0  0  0  0  0  0
   20.7132  -19.9485  -12.3696 C   0  0  0  0  0  0  0  0  0  0  0  0
   19.0181  -20.4182  -11.9255 S   0  0  0  0  0  0  0  0  0  0  0  0
   20.8399  -21.9799  -13.7466 C   0  0  0  0  0  0  0  0  0  0  0  0
   21.1754  -21.7112  -14.9267 O   0  0  0  0  0  0  0  0  0  0  0  0
   19.8933  -22.9606  -13.5055 O   0  0  0  0  0  0  0  0  0  0  0  0
  2  1  1  1
  2  3  1  0
  2 13  1  0
  3  4  1  0
  4 12  1  0
  4  5  2  0
  5  6  1  0
  7  6  1  0
  7  8  2  0
  9  8  1  0
 10  9  2  0
 11 12  2  0
 11 10  1  0
 12  7  1  0
 13 14  2  0
 15 13  1  0
 15 16  1  0
 16 21  1  0
 16 17  1  6
 18 17  1  0
 19 20  2  0
 19 18  1  0
 21 22  2  0
 23 19  1  0
 24 25  1  0
 24 21  1  0
 25 28  1  0
 26 27  1  0
 25 26  1  6
 28 29  2  0
 28 30  1  0
M  END
$$$$
