WEC.pdb
     RDKit          3D

 30 31  0  0  1  0  0  0  0  0999 V2000
   25.0697  -19.5398  -12.1482 N   0  0  0  0  0  0  0  0  0  0  0  0
   25.8735  -20.6938  -12.4463 C   0  0  1  0  0  0  0  0  0  0  0  0
   25.6938  -21.6977  -11.3278 C   0  0  0  0  0  0  0  0  0  0  0  0
   26.1965  -21.0850  -10.0469 C   0  0  0  0  0  0  0  0  0  0  0  0
   25.4243  -20.4693   -9.0922 C   0  0  0  0  0  0  0  0  0  0  0  0
   26.2155  -20.0444   -8.0917 N   0  0  0  0  0  0  0  0  0  0  0  0
   27.4991  -20.3766   -8.3831 C   0  0  0  0  0  0  0  0  0  0  0  0
   28.6749  -20.1751   -7.7005 C   0  0  0  0  0  0  0  0  0  0  0  0
   29.8408  -20.6270   -8.2451 C   0  0  0  0  0  0  0  0  0  0  0  0
   29.8641  -21.2786   -9.4603 C   0  0  0  0  0  0  0  0  0  0  0  0
   28.6875  -21.4832  -10.1487 C   0  0  0  0  0  0  0  0  0  0  0  0
   27.5029  -21.0283   -9.6034 C   0  0  0  0  0  0  0  0  0  0  0  0
   25.3546  -21.3561  -13.6875 C   0  0  0  0  0  0  0  0  0  0  0  0
   24.1966  -21.1323  -14.0771 O   0  0  0  0  0  0  0  0  0  0  0  0
   26.1705  -22.2408  -14.4299 N   0  0  0  0  0  0  0  0  0  0  0  0
   25.7674  -23.1970  -15.3994 C   0  0  1  0  0  0  0  0  0  0  0  0
   26.8783  -23.7367  -16.2840 C   0  0  0  0  0  0  0  0  0  0  0  0
   27.7992  -22.6078  -16.6368 C   0  0  0  0  0  0  0  0  0  0  0  0
   28.9476  -23.0722  -17.4731 C   0  0  0  0  0  0  0  0  0  0  0  0
   28.8326  -23.6920  -18.5540 O   0  0  0  0  0  0  0  0  0  0  0  0
   24.7834  -24.1921  -14.9789 C   0  0  0  0  0  0  0  0  0  0  0  0
   24.7150  -24.5184  -13.7833 O   0  0  0  0  0  0  0  0  0  0  0  0
   30.2204  -22.7901  -17.0070 O   0  0  0  0  0  0  0  0  0  0  0  0
   23.9194  -24.7712  -15.9456 N   0  0  0  0  0  0  0  0  0  0  0  0
   22.8768  -25.7173  -15.5995 C   0  0  1  0  0  0  0  0  0  0  0  0
   23.3014  -26.6579  -14.4869 C   0  0  0  0  0  0  0  0  0  0  0  0
   22.9297  -28.3479  -15.0319 S   0  0  0  0  0  0  0  0  0  0  0  0
   21.6141  -25.0439  -15.2532 C   0  0  0  0  0  0  0  0  0  0  0  0
   21.6022  -23.7884  -15.2228 O   0  0  0  0  0  0  0  0  0  0  0  0
   20.4597  -25.7512  -14.9652 O   0  0  0  0  0  0  0  0  0  0  0  0
  2  1  1  1
  2  3  1  0
  2 13  1  0
  3  4  1  0
  4 12  1  0
  4  5  2  0
  5  6  1  0
  7  6  1  0
  7  8  2  0
  9  8  1  0
 10  9  2  0
 11 12  2  0
 11 10  1  0
 12  7  1  0
 13 14  2  0
 15 13  1  0
 15 16  1  0
 16 21  1  0
 16 17  1  1
 18 17  1  0
 19 20  2  0
 19 18  1  0
 21 22  2  0
 23 19  1  0
 24 25  1  0
 24 21  1  0
 25 28  1  0
 26 27  1  0
 25 26  1  1
 28 29  2  0
 28 30  1  0
M  END
$$$$
