WNV.pdb
     RDKit          3D

 30 31  0  0  1  0  0  0  0  0999 V2000
    6.3300  -17.4311   24.3327 N   0  0  0  0  0  0  0  0  0  0  0  0
    7.5089  -16.6358   24.3102 C   0  0  1  0  0  0  0  0  0  0  0  0
    7.7382  -15.7994   25.5348 C   0  0  0  0  0  0  0  0  0  0  0  0
    6.7466  -14.7341   25.7479 C   0  0  0  0  0  0  0  0  0  0  0  0
    5.4870  -14.8605   26.3415 C   0  0  0  0  0  0  0  0  0  0  0  0
    4.8843  -13.6762   26.3686 N   0  0  0  0  0  0  0  0  0  0  0  0
    5.6817  -12.7475   25.8174 C   0  0  0  0  0  0  0  0  0  0  0  0
    5.4720  -11.4002   25.6304 C   0  0  0  0  0  0  0  0  0  0  0  0
    6.4528  -10.6464   25.0288 C   0  0  0  0  0  0  0  0  0  0  0  0
    7.6084  -11.2479   24.6313 C   0  0  0  0  0  0  0  0  0  0  0  0
    7.8069  -12.6175   24.8279 C   0  0  0  0  0  0  0  0  0  0  0  0
    6.8417  -13.3961   25.4285 C   0  0  0  0  0  0  0  0  0  0  0  0
    8.7178  -17.4633   23.9884 C   0  0  0  0  0  0  0  0  0  0  0  0
    8.8643  -18.5965   24.4763 O   0  0  0  0  0  0  0  0  0  0  0  0
   13.9584  -18.0738   21.8415 N   0  0  0  0  0  0  0  0  0  0  0  0
   13.3701  -16.8715   22.3647 C   0  0  0  0  0  0  0  0  0  0  0  0
   14.1610  -16.1374   23.0082 O   0  0  0  0  0  0  0  0  0  0  0  0
   11.9462  -16.5818   22.1289 C   0  0  0  0  0  0  0  0  0  0  0  0
   11.1400  -17.1258   23.3013 C   0  0  2  0  0  0  0  0  0  0  0  0
    9.7150  -16.9569   23.1154 N   0  0  0  0  0  0  0  0  0  0  0  0
   11.5910  -16.5672   24.5908 C   0  0  0  0  0  0  0  0  0  0  0  0
   12.3260  -15.5495   24.6506 O   0  0  0  0  0  0  0  0  0  0  0  0
   11.6910  -14.5250   28.4553 C   0  0  0  0  0  0  0  0  0  0  0  0
   11.1045  -15.1599   27.2119 C   0  0  2  0  0  0  0  0  0  0  0  0
    9.6092  -15.0833   27.2706 C   0  0  0  0  0  0  0  0  0  0  0  0
   11.6327  -16.5742   27.1157 C   0  0  2  0  0  0  0  0  0  0  0  0
   11.2211  -17.1461   25.8558 N   0  0  0  0  0  0  0  0  0  0  0  0
   11.2216  -17.4089   28.2703 C   0  0  0  0  0  0  0  0  0  0  0  0
   10.4065  -18.3644   28.1770 O   0  0  0  0  0  0  0  0  0  0  0  0
   11.7316  -17.1663   29.5406 O   0  0  0  0  0  0  0  0  0  0  0  0
  2  1  1  1
  2 13  1  0
  2  3  1  0
  3  4  1  0
  4  5  2  0
  6  5  1  0
  7  6  1  0
  8  7  2  0
  9  8  1  0
 10 11  1  0
 10  9  2  0
 11 12  2  0
 12  7  1  0
 12  4  1  0
 13 14  2  0
 16 15  1  0
 17 16  2  0
 18 16  1  0
 19 18  1  6
 19 21  1  0
 20 19  1  0
 20 13  1  0
 21 22  2  0
 24 23  1  1
 24 26  1  0
 25 24  1  0
 26 28  1  0
 27 21  1  0
 26 27  1  6
 28 29  2  0
 28 30  1  0
M  END
$$$$
