WNV.pdb
     RDKit          3D

 30 31  0  0  1  0  0  0  0  0999 V2000
    6.7805  -16.9567   23.5415 N   0  0  0  0  0  0  0  0  0  0  0  0
    7.9679  -16.2164   23.7958 C   0  0  1  0  0  0  0  0  0  0  0  0
    8.0785  -15.6420   25.1778 C   0  0  0  0  0  0  0  0  0  0  0  0
    7.0562  -14.6386   25.5116 C   0  0  0  0  0  0  0  0  0  0  0  0
    5.8104  -14.8680   26.1036 C   0  0  0  0  0  0  0  0  0  0  0  0
    5.1701  -13.7139   26.2602 N   0  0  0  0  0  0  0  0  0  0  0  0
    5.9285  -12.7069   25.7988 C   0  0  0  0  0  0  0  0  0  0  0  0
    5.6724  -11.3554   25.7548 C   0  0  0  0  0  0  0  0  0  0  0  0
    6.6190  -10.5108   25.2230 C   0  0  0  0  0  0  0  0  0  0  0  0
    7.7874  -11.0287   24.7519 C   0  0  0  0  0  0  0  0  0  0  0  0
    8.0332  -12.4038   24.8034 C   0  0  0  0  0  0  0  0  0  0  0  0
    7.1029  -13.2723   25.3314 C   0  0  0  0  0  0  0  0  0  0  0  0
    9.1906  -17.0100   23.4425 C   0  0  0  0  0  0  0  0  0  0  0  0
    9.1512  -18.2502   23.3809 O   0  0  0  0  0  0  0  0  0  0  0  0
   10.9422  -16.8230   21.0882 N   0  0  0  0  0  0  0  0  0  0  0  0
   12.3306  -16.5370   21.3244 C   0  0  0  0  0  0  0  0  0  0  0  0
   13.0235  -16.4055   20.2847 O   0  0  0  0  0  0  0  0  0  0  0  0
   12.8374  -16.4196   22.7015 C   0  0  0  0  0  0  0  0  0  0  0  0
   11.7094  -16.7669   23.6647 C   0  0  2  0  0  0  0  0  0  0  0  0
   10.4154  -16.3471   23.1715 N   0  0  0  0  0  0  0  0  0  0  0  0
   11.9655  -16.2560   25.0254 C   0  0  0  0  0  0  0  0  0  0  0  0
   12.9797  -15.5637   25.2927 O   0  0  0  0  0  0  0  0  0  0  0  0
    9.2086  -15.9086   28.2486 C   0  0  0  0  0  0  0  0  0  0  0  0
   10.6153  -15.3515   28.1853 C   0  0  2  0  0  0  0  0  0  0  0  0
   10.5954  -14.0244   27.4898 C   0  0  0  0  0  0  0  0  0  0  0  0
   11.4938  -16.3769   27.5034 C   0  0  2  0  0  0  0  0  0  0  0  0
   11.0769  -16.5144   26.1281 N   0  0  0  0  0  0  0  0  0  0  0  0
   11.5025  -17.6760   28.2182 C   0  0  0  0  0  0  0  0  0  0  0  0
   10.9741  -18.7222   27.7572 O   0  0  0  0  0  0  0  0  0  0  0  0
   12.1107  -17.7991   29.4622 O   0  0  0  0  0  0  0  0  0  0  0  0
  2  1  1  1
  2 13  1  0
  2  3  1  0
  3  4  1  0
  4  5  2  0
  6  5  1  0
  7  6  1  0
  8  7  2  0
  9  8  1  0
 10 11  1  0
 10  9  2  0
 11 12  2  0
 12  7  1  0
 12  4  1  0
 13 14  2  0
 16 15  1  0
 17 16  2  0
 18 16  1  0
 19 18  1  6
 19 21  1  0
 20 19  1  0
 20 13  1  0
 21 22  2  0
 24 23  1  6
 24 26  1  0
 25 24  1  0
 26 28  1  0
 27 21  1  0
 26 27  1  6
 28 29  2  0
 28 30  1  0
M  END
$$$$
