WNV.pdb
     RDKit          3D

 30 31  0  0  1  0  0  0  0  0999 V2000
    9.3734  -17.1736   21.0805 N   0  0  0  0  0  0  0  0  0  0  0  0
    8.8712  -16.4665   22.2077 C   0  0  1  0  0  0  0  0  0  0  0  0
    7.4314  -16.0545   22.1132 C   0  0  0  0  0  0  0  0  0  0  0  0
    7.0885  -15.2850   20.9075 C   0  0  0  0  0  0  0  0  0  0  0  0
    6.2734  -15.6954   19.8481 C   0  0  0  0  0  0  0  0  0  0  0  0
    6.1882  -14.7228   18.9463 N   0  0  0  0  0  0  0  0  0  0  0  0
    6.9125  -13.6660   19.3474 C   0  0  0  0  0  0  0  0  0  0  0  0
    7.1153  -12.4497   18.7364 C   0  0  0  0  0  0  0  0  0  0  0  0
    7.9146  -11.5150   19.3525 C   0  0  0  0  0  0  0  0  0  0  0  0
    8.4877  -11.8124   20.5519 C   0  0  0  0  0  0  0  0  0  0  0  0
    8.2724  -13.0523   21.1603 C   0  0  0  0  0  0  0  0  0  0  0  0
    7.4758  -14.0064   20.5657 C   0  0  0  0  0  0  0  0  0  0  0  0
    9.1356  -17.2136   23.4811 C   0  0  0  0  0  0  0  0  0  0  0  0
    8.2431  -17.3594   24.3330 O   0  0  0  0  0  0  0  0  0  0  0  0
   12.4044  -20.6193   22.8108 N   0  0  0  0  0  0  0  0  0  0  0  0
   11.6849  -20.3471   24.0247 C   0  0  0  0  0  0  0  0  0  0  0  0
   10.7473  -21.1468   24.2695 O   0  0  0  0  0  0  0  0  0  0  0  0
   12.0677  -19.2048   24.8707 C   0  0  0  0  0  0  0  0  0  0  0  0
   10.8666  -18.2775   25.0058 C   0  0  2  0  0  0  0  0  0  0  0  0
   10.4183  -17.7673   23.7281 N   0  0  0  0  0  0  0  0  0  0  0  0
   11.1129  -17.1885   25.9710 C   0  0  0  0  0  0  0  0  0  0  0  0
   12.0821  -16.3984   25.8446 O   0  0  0  0  0  0  0  0  0  0  0  0
    9.0823  -14.4358   26.8280 C   0  0  0  0  0  0  0  0  0  0  0  0
    9.3533  -15.0160   28.2003 C   0  0  2  0  0  0  0  0  0  0  0  0
    9.5462  -13.9019   29.1837 C   0  0  0  0  0  0  0  0  0  0  0  0
   10.5480  -15.9374   28.0906 C   0  0  2  0  0  0  0  0  0  0  0  0
   10.2656  -16.9606   27.1121 N   0  0  0  0  0  0  0  0  0  0  0  0
   10.9406  -16.5094   29.4012 C   0  0  0  0  0  0  0  0  0  0  0  0
   11.4309  -15.8226   30.3361 O   0  0  0  0  0  0  0  0  0  0  0  0
   10.7803  -17.8655   29.6618 O   0  0  0  0  0  0  0  0  0  0  0  0
  2  1  1  6
  2 13  1  0
  2  3  1  0
  3  4  1  0
  4  5  2  0
  6  5  1  0
  7  6  1  0
  8  7  2  0
  9  8  1  0
 10 11  1  0
 10  9  2  0
 11 12  2  0
 12  7  1  0
 12  4  1  0
 13 14  2  0
 16 15  1  0
 17 16  2  0
 18 16  1  0
 19 18  1  6
 19 21  1  0
 20 19  1  0
 20 13  1  0
 21 22  2  0
 24 23  1  6
 24 26  1  0
 25 24  1  0
 26 28  1  0
 27 21  1  0
 26 27  1  6
 28 29  2  0
 28 30  1  0
M  END
$$$$
