WNV.pdb
     RDKit          3D

 30 31  0  0  1  0  0  0  0  0999 V2000
    8.7664  -16.8406   20.7402 N   0  0  0  0  0  0  0  0  0  0  0  0
    8.5612  -16.0723   21.9193 C   0  0  1  0  0  0  0  0  0  0  0  0
    7.2153  -15.4177   22.0285 C   0  0  0  0  0  0  0  0  0  0  0  0
    7.2530  -13.9614   22.2314 C   0  0  0  0  0  0  0  0  0  0  0  0
    7.4425  -12.9782   21.2554 C   0  0  0  0  0  0  0  0  0  0  0  0
    7.4021  -11.7750   21.8186 N   0  0  0  0  0  0  0  0  0  0  0  0
    7.1931  -11.8978   23.1390 C   0  0  0  0  0  0  0  0  0  0  0  0
    7.0834  -10.9295   24.1108 C   0  0  0  0  0  0  0  0  0  0  0  0
    6.8704  -11.3102   25.4153 C   0  0  0  0  0  0  0  0  0  0  0  0
    6.7729  -12.6348   25.7174 C   0  0  0  0  0  0  0  0  0  0  0  0
    6.8865  -13.6069   24.7194 C   0  0  0  0  0  0  0  0  0  0  0  0
    7.0992  -13.2536   23.4047 C   0  0  0  0  0  0  0  0  0  0  0  0
    8.8741  -16.8700   23.1503 C   0  0  0  0  0  0  0  0  0  0  0  0
    7.9717  -17.2285   23.9254 O   0  0  0  0  0  0  0  0  0  0  0  0
   13.7074  -18.2889   23.0005 N   0  0  0  0  0  0  0  0  0  0  0  0
   12.3255  -18.6770   23.0714 C   0  0  0  0  0  0  0  0  0  0  0  0
   11.7411  -18.7417   21.9610 O   0  0  0  0  0  0  0  0  0  0  0  0
   11.7037  -18.9630   24.3747 C   0  0  0  0  0  0  0  0  0  0  0  0
   10.6452  -17.9026   24.6501 C   0  0  2  0  0  0  0  0  0  0  0  0
   10.2151  -17.2277   23.4447 N   0  0  0  0  0  0  0  0  0  0  0  0
   11.0771  -16.9444   25.6862 C   0  0  0  0  0  0  0  0  0  0  0  0
   12.0300  -16.1475   25.4951 O   0  0  0  0  0  0  0  0  0  0  0  0
    8.8227  -15.4438   28.8407 C   0  0  0  0  0  0  0  0  0  0  0  0
   10.1937  -14.9533   28.4249 C   0  0  2  0  0  0  0  0  0  0  0  0
   10.0540  -13.9849   27.2900 C   0  0  0  0  0  0  0  0  0  0  0  0
   11.0394  -16.1611   28.0866 C   0  0  2  0  0  0  0  0  0  0  0  0
   10.4401  -16.8593   26.9743 N   0  0  0  0  0  0  0  0  0  0  0  0
   11.2489  -17.0477   29.2566 C   0  0  0  0  0  0  0  0  0  0  0  0
   10.7497  -18.2003   29.3486 O   0  0  0  0  0  0  0  0  0  0  0  0
   12.0264  -16.6339   30.3322 O   0  0  0  0  0  0  0  0  0  0  0  0
  2  1  1  6
  2 13  1  0
  2  3  1  0
  3  4  1  0
  4  5  2  0
  6  5  1  0
  7  6  1  0
  8  7  2  0
  9  8  1  0
 10 11  1  0
 10  9  2  0
 11 12  2  0
 12  7  1  0
 12  4  1  0
 13 14  2  0
 16 15  1  0
 17 16  2  0
 18 16  1  0
 19 18  1  6
 19 21  1  0
 20 19  1  0
 20 13  1  0
 21 22  2  0
 24 23  1  6
 24 26  1  0
 25 24  1  0
 26 28  1  0
 27 21  1  0
 26 27  1  6
 28 29  2  0
 28 30  1  0
M  END
$$$$
