WNV.pdb
     RDKit          3D

 30 31  0  0  1  0  0  0  0  0999 V2000
    6.9074  -17.3885   24.1844 N   0  0  0  0  0  0  0  0  0  0  0  0
    8.0256  -16.5098   24.1844 C   0  0  1  0  0  0  0  0  0  0  0  0
    8.1504  -15.6354   25.3975 C   0  0  0  0  0  0  0  0  0  0  0  0
    7.0353  -14.6975   25.5985 C   0  0  0  0  0  0  0  0  0  0  0  0
    5.7685  -14.9907   26.1124 C   0  0  0  0  0  0  0  0  0  0  0  0
    5.0357  -13.8827   26.1554 N   0  0  0  0  0  0  0  0  0  0  0  0
    5.7512  -12.8460   25.6912 C   0  0  0  0  0  0  0  0  0  0  0  0
    5.4013  -11.5225   25.5502 C   0  0  0  0  0  0  0  0  0  0  0  0
    6.3212  -10.6368   25.0389 C   0  0  0  0  0  0  0  0  0  0  0  0
    7.5565  -11.0873   24.6834 C   0  0  0  0  0  0  0  0  0  0  0  0
    7.8974  -12.4346   24.8324 C   0  0  0  0  0  0  0  0  0  0  0  0
    6.9957  -13.3431   25.3426 C   0  0  0  0  0  0  0  0  0  0  0  0
    9.3019  -17.2526   23.9217 C   0  0  0  0  0  0  0  0  0  0  0  0
    9.3833  -18.4750   24.1279 O   0  0  0  0  0  0  0  0  0  0  0  0
   12.1063  -17.4447   20.7868 N   0  0  0  0  0  0  0  0  0  0  0  0
   12.3689  -16.1846   21.4258 C   0  0  0  0  0  0  0  0  0  0  0  0
   12.2010  -15.1789   20.6915 O   0  0  0  0  0  0  0  0  0  0  0  0
   12.7977  -16.1444   22.8335 C   0  0  0  0  0  0  0  0  0  0  0  0
   11.8115  -16.9558   23.6641 C   0  0  2  0  0  0  0  0  0  0  0  0
   10.4392  -16.5615   23.4298 N   0  0  0  0  0  0  0  0  0  0  0  0
   12.1469  -16.9329   25.1011 C   0  0  0  0  0  0  0  0  0  0  0  0
   13.2757  -17.2896   25.5233 O   0  0  0  0  0  0  0  0  0  0  0  0
    9.3441  -15.9294   28.4162 C   0  0  0  0  0  0  0  0  0  0  0  0
   10.7223  -15.3541   28.1655 C   0  0  2  0  0  0  0  0  0  0  0  0
   10.5998  -14.1027   27.3504 C   0  0  0  0  0  0  0  0  0  0  0  0
   11.5625  -16.4245   27.5047 C   0  0  2  0  0  0  0  0  0  0  0  0
   11.2108  -16.5032   26.1068 N   0  0  0  0  0  0  0  0  0  0  0  0
   11.4427  -17.7357   28.1867 C   0  0  0  0  0  0  0  0  0  0  0  0
   10.7735  -18.6970   27.7238 O   0  0  0  0  0  0  0  0  0  0  0  0
   12.0810  -17.9672   29.3998 O   0  0  0  0  0  0  0  0  0  0  0  0
  2  1  1  1
  2 13  1  0
  2  3  1  0
  3  4  1  0
  4  5  2  0
  6  5  1  0
  7  6  1  0
  8  7  2  0
  9  8  1  0
 10 11  1  0
 10  9  2  0
 11 12  2  0
 12  7  1  0
 12  4  1  0
 13 14  2  0
 16 15  1  0
 17 16  2  0
 18 16  1  0
 19 18  1  6
 19 21  1  0
 20 19  1  0
 20 13  1  0
 21 22  2  0
 24 23  1  6
 24 26  1  0
 25 24  1  0
 26 28  1  0
 27 21  1  0
 26 27  1  6
 28 29  2  0
 28 30  1  0
M  END
$$$$
