WNV.pdb
     RDKit          3D

 30 31  0  0  1  0  0  0  0  0999 V2000
    8.5466  -16.4435   21.0894 N   0  0  0  0  0  0  0  0  0  0  0  0
    8.7644  -15.9475   22.4044 C   0  0  1  0  0  0  0  0  0  0  0  0
    7.5228  -15.5733   23.1595 C   0  0  0  0  0  0  0  0  0  0  0  0
    7.0208  -14.2179   22.8869 C   0  0  0  0  0  0  0  0  0  0  0  0
    6.5429  -13.7242   21.6691 C   0  0  0  0  0  0  0  0  0  0  0  0
    6.1659  -12.4583   21.8166 N   0  0  0  0  0  0  0  0  0  0  0  0
    6.3677  -12.0685   23.0853 C   0  0  0  0  0  0  0  0  0  0  0  0
    6.1284  -10.8536   23.6859 C   0  0  0  0  0  0  0  0  0  0  0  0
    6.4264  -10.6948   25.0193 C   0  0  0  0  0  0  0  0  0  0  0  0
    6.9513  -11.7410   25.7159 C   0  0  0  0  0  0  0  0  0  0  0  0
    7.1889  -12.9691   25.0921 C   0  0  0  0  0  0  0  0  0  0  0  0
    6.8990  -13.1560   23.7581 C   0  0  0  0  0  0  0  0  0  0  0  0
    9.6203  -16.8839   23.2047 C   0  0  0  0  0  0  0  0  0  0  0  0
    9.1162  -17.8265   23.8378 O   0  0  0  0  0  0  0  0  0  0  0  0
   13.8924  -17.9717   21.1990 N   0  0  0  0  0  0  0  0  0  0  0  0
   13.2821  -18.3872   22.4319 C   0  0  0  0  0  0  0  0  0  0  0  0
   12.7349  -19.5175   22.3918 O   0  0  0  0  0  0  0  0  0  0  0  0
   13.3302  -17.5099   23.6131 C   0  0  0  0  0  0  0  0  0  0  0  0
   11.9193  -17.3689   24.1702 C   0  0  2  0  0  0  0  0  0  0  0  0
   11.0268  -16.7022   23.2468 N   0  0  0  0  0  0  0  0  0  0  0  0
   11.9095  -16.7248   25.4980 C   0  0  0  0  0  0  0  0  0  0  0  0
   12.5813  -15.6898   25.7368 O   0  0  0  0  0  0  0  0  0  0  0  0
   10.1689  -14.4266   27.6533 C   0  0  0  0  0  0  0  0  0  0  0  0
    9.9173  -15.8393   28.1371 C   0  0  2  0  0  0  0  0  0  0  0  0
    9.4759  -15.8050   29.5687 C   0  0  0  0  0  0  0  0  0  0  0  0
   11.1802  -16.6416   27.9143 C   0  0  2  0  0  0  0  0  0  0  0  0
   11.1353  -17.2351   26.5991 N   0  0  0  0  0  0  0  0  0  0  0  0
   11.4007  -17.6519   28.9771 C   0  0  0  0  0  0  0  0  0  0  0  0
   11.0026  -18.8436   28.8912 O   0  0  0  0  0  0  0  0  0  0  0  0
   12.0747  -17.3184   30.1463 O   0  0  0  0  0  0  0  0  0  0  0  0
  2  1  1  6
  2 13  1  0
  2  3  1  0
  3  4  1  0
  4  5  2  0
  6  5  1  0
  7  6  1  0
  8  7  2  0
  9  8  1  0
 10 11  1  0
 10  9  2  0
 11 12  2  0
 12  7  1  0
 12  4  1  0
 13 14  2  0
 16 15  1  0
 17 16  2  0
 18 16  1  0
 19 18  1  6
 19 21  1  0
 20 19  1  0
 20 13  1  0
 21 22  2  0
 24 23  1  1
 24 26  1  0
 25 24  1  0
 26 28  1  0
 27 21  1  0
 26 27  1  6
 28 29  2  0
 28 30  1  0
M  END
$$$$
