WNV.pdb
     RDKit          3D

 30 31  0  0  1  0  0  0  0  0999 V2000
    8.9480  -16.5395   21.0670 N   0  0  0  0  0  0  0  0  0  0  0  0
    8.7325  -15.8609   22.2981 C   0  0  1  0  0  0  0  0  0  0  0  0
    7.3313  -15.3726   22.5213 C   0  0  0  0  0  0  0  0  0  0  0  0
    7.1905  -13.9097   22.5796 C   0  0  0  0  0  0  0  0  0  0  0  0
    7.1901  -13.0185   21.5022 C   0  0  0  0  0  0  0  0  0  0  0  0
    7.0269  -11.7772   21.9483 N   0  0  0  0  0  0  0  0  0  0  0  0
    6.9165  -11.7856   23.2862 C   0  0  0  0  0  0  0  0  0  0  0  0
    6.7404  -10.7418   24.1656 C   0  0  0  0  0  0  0  0  0  0  0  0
    6.6586  -11.0069   25.5129 C   0  0  0  0  0  0  0  0  0  0  0  0
    6.7538  -12.2943   25.9475 C   0  0  0  0  0  0  0  0  0  0  0  0
    6.9327  -13.3442   25.0422 C   0  0  0  0  0  0  0  0  0  0  0  0
    7.0171  -13.1071   23.6875 C   0  0  0  0  0  0  0  0  0  0  0  0
    9.2101  -16.6786   23.4613 C   0  0  0  0  0  0  0  0  0  0  0  0
    8.5537  -16.7349   24.5146 O   0  0  0  0  0  0  0  0  0  0  0  0
   12.5482  -19.7581   21.6612 N   0  0  0  0  0  0  0  0  0  0  0  0
   11.8862  -19.8250   22.9350 C   0  0  0  0  0  0  0  0  0  0  0  0
   10.9921  -20.7040   23.0162 O   0  0  0  0  0  0  0  0  0  0  0  0
   12.2733  -18.9068   24.0186 C   0  0  0  0  0  0  0  0  0  0  0  0
   11.0393  -18.1306   24.4606 C   0  0  2  0  0  0  0  0  0  0  0  0
   10.4264  -17.4033   23.3701 N   0  0  0  0  0  0  0  0  0  0  0  0
   11.3207  -17.2509   25.6117 C   0  0  0  0  0  0  0  0  0  0  0  0
   12.3263  -16.4976   25.6390 O   0  0  0  0  0  0  0  0  0  0  0  0
    9.1021  -14.8762   27.3605 C   0  0  0  0  0  0  0  0  0  0  0  0
    9.6404  -15.7293   28.4900 C   0  0  2  0  0  0  0  0  0  0  0  0
    9.9479  -14.8584   29.6700 C   0  0  0  0  0  0  0  0  0  0  0  0
   10.8418  -16.4881   27.9709 C   0  0  2  0  0  0  0  0  0  0  0  0
   10.4682  -17.1975   26.7704 N   0  0  0  0  0  0  0  0  0  0  0  0
   11.4247  -17.3886   28.9947 C   0  0  0  0  0  0  0  0  0  0  0  0
   11.0706  -18.5881   29.1424 O   0  0  0  0  0  0  0  0  0  0  0  0
   12.4143  -16.9355   29.8597 O   0  0  0  0  0  0  0  0  0  0  0  0
  2  1  1  6
  2 13  1  0
  2  3  1  0
  3  4  1  0
  4  5  2  0
  6  5  1  0
  7  6  1  0
  8  7  2  0
  9  8  1  0
 10 11  1  0
 10  9  2  0
 11 12  2  0
 12  7  1  0
 12  4  1  0
 13 14  2  0
 16 15  1  0
 17 16  2  0
 18 16  1  0
 19 18  1  6
 19 21  1  0
 20 19  1  0
 20 13  1  0
 21 22  2  0
 24 23  1  6
 24 26  1  0
 25 24  1  0
 26 28  1  0
 27 21  1  0
 26 27  1  6
 28 29  2  0
 28 30  1  0
M  END
$$$$
