WNV.pdb
     RDKit          3D

 30 31  0  0  1  0  0  0  0  0999 V2000
    6.6213  -17.4469   24.6950 N   0  0  0  0  0  0  0  0  0  0  0  0
    7.7011  -16.5382   24.5188 C   0  0  1  0  0  0  0  0  0  0  0  0
    7.9040  -15.5625   25.6408 C   0  0  0  0  0  0  0  0  0  0  0  0
    6.7770  -14.6459   25.8716 C   0  0  0  0  0  0  0  0  0  0  0  0
    5.4805  -14.9863   26.2695 C   0  0  0  0  0  0  0  0  0  0  0  0
    4.7449  -13.8855   26.3863 N   0  0  0  0  0  0  0  0  0  0  0  0
    5.4869  -12.8085   26.0837 C   0  0  0  0  0  0  0  0  0  0  0  0
    5.1447  -11.4756   26.0656 C   0  0  0  0  0  0  0  0  0  0  0  0
    6.0939  -10.5446   25.7129 C   0  0  0  0  0  0  0  0  0  0  0  0
    7.3499  -10.9606   25.3893 C   0  0  0  0  0  0  0  0  0  0  0  0
    7.6826  -12.3180   25.4122 C   0  0  0  0  0  0  0  0  0  0  0  0
    6.7517  -13.2716   25.7625 C   0  0  0  0  0  0  0  0  0  0  0  0
    8.9748  -17.2619   24.1969 C   0  0  0  0  0  0  0  0  0  0  0  0
    9.1861  -18.4067   24.6310 O   0  0  0  0  0  0  0  0  0  0  0  0
   13.9113  -17.9590   21.9078 N   0  0  0  0  0  0  0  0  0  0  0  0
   13.5557  -16.6505   22.3840 C   0  0  0  0  0  0  0  0  0  0  0  0
   14.5195  -15.9691   22.8147 O   0  0  0  0  0  0  0  0  0  0  0  0
   12.1535  -16.2042   22.3422 C   0  0  0  0  0  0  0  0  0  0  0  0
   11.3689  -16.9710   23.3992 C   0  0  2  0  0  0  0  0  0  0  0  0
    9.9599  -16.6421   23.3855 N   0  0  0  0  0  0  0  0  0  0  0  0
   11.9521  -16.8128   24.7456 C   0  0  0  0  0  0  0  0  0  0  0  0
   13.1938  -16.7396   24.9249 O   0  0  0  0  0  0  0  0  0  0  0  0
    9.7438  -15.3649   28.0923 C   0  0  0  0  0  0  0  0  0  0  0  0
   11.2264  -15.2307   27.8145 C   0  0  2  0  0  0  0  0  0  0  0  0
   11.4599  -14.0619   26.9064 C   0  0  0  0  0  0  0  0  0  0  0  0
   11.7161  -16.5440   27.2455 C   0  0  2  0  0  0  0  0  0  0  0  0
   11.1433  -16.7319   25.9338 N   0  0  0  0  0  0  0  0  0  0  0  0
   11.4369  -17.6877   28.1472 C   0  0  0  0  0  0  0  0  0  0  0  0
   10.6644  -18.6348   27.8434 O   0  0  0  0  0  0  0  0  0  0  0  0
   12.0319  -17.7662   29.4012 O   0  0  0  0  0  0  0  0  0  0  0  0
  2  1  1  1
  2 13  1  0
  2  3  1  0
  3  4  1  0
  4  5  2  0
  6  5  1  0
  7  6  1  0
  8  7  2  0
  9  8  1  0
 10 11  1  0
 10  9  2  0
 11 12  2  0
 12  7  1  0
 12  4  1  0
 13 14  2  0
 16 15  1  0
 17 16  2  0
 18 16  1  0
 19 18  1  6
 19 21  1  0
 20 19  1  0
 20 13  1  0
 21 22  2  0
 24 23  1  6
 24 26  1  0
 25 24  1  0
 26 28  1  0
 27 21  1  0
 26 27  1  6
 28 29  2  0
 28 30  1  0
M  END
$$$$
