IMP.pdb
     RDKit          3D

 24 24  0  0  1  0  0  0  0  0999 V2000
    3.8146  -21.6993   25.4559 C   0  0  0  0  0  0  0  0  0  0  0  0
    5.0835  -21.7016   24.6332 C   0  0  0  0  0  0  0  0  0  0  0  0
    5.0644  -20.5656   23.6671 C   0  0  2  0  0  0  0  0  0  0  0  0
    4.4540  -20.9293   22.3462 C   0  0  0  0  0  0  0  0  0  0  0  0
    6.4126  -19.8869   23.5516 C   0  0  2  0  0  0  0  0  0  0  0  0
    7.1132  -20.2788   24.7954 N   0  0  0  0  0  0  0  0  0  0  0  0
    6.3438  -18.4224   23.4555 C   0  0  0  0  0  0  0  0  0  0  0  0
    5.8453  -17.9080   22.3983 O   0  0  0  0  0  0  0  0  0  0  0  0
    5.9035  -12.8644   27.3971 C   0  0  0  0  0  0  0  0  0  0  0  0
    7.6247  -13.3372   27.0884 S   0  0  0  0  0  0  0  0  0  0  0  0
    7.7767  -14.0407   25.3907 C   0  0  0  0  0  0  0  0  0  0  0  0
    7.2996  -15.4253   25.4622 C   0  0  0  0  0  0  0  0  0  0  0  0
    6.9962  -16.0586   24.1111 C   0  0  2  0  0  0  0  0  0  0  0  0
    6.7845  -17.5108   24.4432 N   0  0  0  0  0  0  0  0  0  0  0  0
    8.0980  -15.9507   23.1614 C   0  0  0  0  0  0  0  0  0  0  0  0
    9.0929  -16.7490   23.3625 O   0  0  0  0  0  0  0  0  0  0  0  0
    8.2351  -15.0955   22.0369 N   0  0  0  0  0  0  0  0  0  0  0  0
    7.2291  -14.1309   21.7039 C   0  0  0  0  0  0  0  0  0  0  0  0
    7.9571  -13.1510   20.8166 C   0  0  0  0  0  0  0  0  0  0  0  0
    8.9016  -14.0750   20.0263 C   0  0  0  0  0  0  0  0  0  0  0  0
    9.3056  -15.0577   21.1286 C   0  0  1  0  0  0  0  0  0  0  0  0
   10.5824  -14.5815   21.7578 C   0  0  0  0  0  0  0  0  0  0  0  0
   10.5581  -14.1839   22.9398 O   0  0  0  0  0  0  0  0  0  0  0  0
   11.7385  -14.5896   21.0378 O   0  0  0  0  0  0  0  0  0  0  0  0
  1  2  1  0
  3  2  1  0
  3  4  1  6
  5  3  1  0
  5  6  1  1
  7  8  2  0
  7  5  1  0
 10  9  1  0
 11 12  1  0
 11 10  1  0
 13 12  1  1
 13 15  1  0
 13 14  1  0
 14  7  1  0
 15 17  1  0
 16 15  2  0
 17 21  1  0
 17 18  1  0
 19 18  1  0
 20 19  1  0
 20 21  1  0
 21 22  1  1
 22 23  2  0
 22 24  1  0
M  END
$$$$
