IMP.pdb
     RDKit          3D

 24 24  0  0  1  0  0  0  0  0999 V2000
    8.3551  -22.2164   23.5166 C   0  0  0  0  0  0  0  0  0  0  0  0
    7.3720  -21.3752   24.2995 C   0  0  0  0  0  0  0  0  0  0  0  0
    7.3207  -19.9960   23.7341 C   0  0  2  0  0  0  0  0  0  0  0  0
    8.6743  -19.4582   23.3762 C   0  0  0  0  0  0  0  0  0  0  0  0
    6.4950  -19.0562   24.5865 C   0  0  2  0  0  0  0  0  0  0  0  0
    5.1305  -19.6265   24.5212 N   0  0  0  0  0  0  0  0  0  0  0  0
    6.4804  -17.6664   24.1101 C   0  0  0  0  0  0  0  0  0  0  0  0
    5.8363  -17.4002   23.0400 O   0  0  0  0  0  0  0  0  0  0  0  0
    7.8254  -11.3694   26.4754 C   0  0  0  0  0  0  0  0  0  0  0  0
    6.9435  -12.7027   27.3273 S   0  0  0  0  0  0  0  0  0  0  0  0
    6.3325  -13.9271   26.0914 C   0  0  0  0  0  0  0  0  0  0  0  0
    7.4753  -14.2772   25.2421 C   0  0  0  0  0  0  0  0  0  0  0  0
    7.1414  -15.2158   24.0904 C   0  0  2  0  0  0  0  0  0  0  0  0
    7.1234  -16.5739   24.7376 N   0  0  0  0  0  0  0  0  0  0  0  0
    8.1461  -15.2137   23.0330 C   0  0  0  0  0  0  0  0  0  0  0  0
    9.1486  -16.0084   23.2094 O   0  0  0  0  0  0  0  0  0  0  0  0
    8.1805  -14.4659   21.8270 N   0  0  0  0  0  0  0  0  0  0  0  0
    7.1402  -13.5392   21.4918 C   0  0  0  0  0  0  0  0  0  0  0  0
    7.7817  -12.6437   20.4604 C   0  0  0  0  0  0  0  0  0  0  0  0
    8.6672  -13.6343   19.6823 C   0  0  0  0  0  0  0  0  0  0  0  0
    9.1715  -14.5095   20.8328 C   0  0  1  0  0  0  0  0  0  0  0  0
   10.4910  -13.9735   21.3066 C   0  0  0  0  0  0  0  0  0  0  0  0
   10.5451  -13.4033   22.4146 O   0  0  0  0  0  0  0  0  0  0  0  0
   11.6002  -14.1151   20.5290 O   0  0  0  0  0  0  0  0  0  0  0  0
  1  2  1  0
  3  2  1  0
  3  4  1  1
  5  3  1  0
  5  6  1  6
  7  8  2  0
  7  5  1  0
 10  9  1  0
 11 12  1  0
 11 10  1  0
 13 12  1  1
 13 15  1  0
 13 14  1  0
 14  7  1  0
 15 17  1  0
 16 15  2  0
 17 21  1  0
 17 18  1  0
 19 18  1  0
 20 19  1  0
 20 21  1  0
 21 22  1  1
 22 23  2  0
 22 24  1  0
M  END
$$$$
