IMP.pdb
     RDKit          3D

 24 24  0  0  1  0  0  0  0  0999 V2000
    7.3786  -22.5045   22.6975 C   0  0  0  0  0  0  0  0  0  0  0  0
    7.2585  -21.6076   23.9092 C   0  0  0  0  0  0  0  0  0  0  0  0
    7.0679  -20.1930   23.4770 C   0  0  2  0  0  0  0  0  0  0  0  0
    7.9802  -19.7945   22.3551 C   0  0  0  0  0  0  0  0  0  0  0  0
    7.0774  -19.2294   24.6445 C   0  0  2  0  0  0  0  0  0  0  0  0
    5.9732  -19.7080   25.5066 N   0  0  0  0  0  0  0  0  0  0  0  0
    6.8490  -17.8270   24.2703 C   0  0  0  0  0  0  0  0  0  0  0  0
    5.7266  -17.5154   23.7472 O   0  0  0  0  0  0  0  0  0  0  0  0
    6.5072  -11.5501   26.6793 C   0  0  0  0  0  0  0  0  0  0  0  0
    7.3679  -13.0663   27.1709 S   0  0  0  0  0  0  0  0  0  0  0  0
    6.8843  -14.4437   26.0444 C   0  0  0  0  0  0  0  0  0  0  0  0
    7.8491  -14.4458   24.9403 C   0  0  0  0  0  0  0  0  0  0  0  0
    7.5216  -15.4216   23.8182 C   0  0  2  0  0  0  0  0  0  0  0  0
    7.7722  -16.7688   24.4395 N   0  0  0  0  0  0  0  0  0  0  0  0
    8.3869  -15.2745   22.6531 C   0  0  0  0  0  0  0  0  0  0  0  0
    9.3795  -16.0974   22.5835 O   0  0  0  0  0  0  0  0  0  0  0  0
    8.2933  -14.3573   21.5739 N   0  0  0  0  0  0  0  0  0  0  0  0
    7.3620  -13.2684   21.5965 C   0  0  0  0  0  0  0  0  0  0  0  0
    7.9136  -12.3086   20.5710 C   0  0  0  0  0  0  0  0  0  0  0  0
    8.4621  -13.2668   19.4977 C   0  0  0  0  0  0  0  0  0  0  0  0
    9.0462  -14.3667   20.3884 C   0  0  1  0  0  0  0  0  0  0  0  0
   10.5002  -14.0782   20.6235 C   0  0  0  0  0  0  0  0  0  0  0  0
   10.8568  -13.6618   21.7439 O   0  0  0  0  0  0  0  0  0  0  0  0
   11.4018  -14.2727   19.6213 O   0  0  0  0  0  0  0  0  0  0  0  0
  1  2  1  0
  3  2  1  0
  3  4  1  6
  5  3  1  0
  5  6  1  1
  7  8  2  0
  7  5  1  0
 10  9  1  0
 11 12  1  0
 11 10  1  0
 13 12  1  1
 13 15  1  0
 13 14  1  0
 14  7  1  0
 15 17  1  0
 16 15  2  0
 17 21  1  0
 17 18  1  0
 19 18  1  0
 20 19  1  0
 20 21  1  0
 21 22  1  1
 22 23  2  0
 22 24  1  0
M  END
$$$$
