IMP.pdb
     RDKit          3D

 24 24  0  0  1  0  0  0  0  0999 V2000
   11.8538  -16.0984   20.0782 C   0  0  0  0  0  0  0  0  0  0  0  0
   10.7427  -15.1360   20.4337 C   0  0  0  0  0  0  0  0  0  0  0  0
    9.4391  -15.8591   20.4774 C   0  0  2  0  0  0  0  0  0  0  0  0
    9.1512  -16.6256   19.2207 C   0  0  0  0  0  0  0  0  0  0  0  0
    8.3012  -14.9656   20.9230 C   0  0  2  0  0  0  0  0  0  0  0  0
    8.3634  -13.8208   19.9865 N   0  0  0  0  0  0  0  0  0  0  0  0
    8.4173  -14.4873   22.3073 C   0  0  0  0  0  0  0  0  0  0  0  0
    8.9811  -13.3600   22.5128 O   0  0  0  0  0  0  0  0  0  0  0  0
    5.5356  -11.4162   26.3591 C   0  0  0  0  0  0  0  0  0  0  0  0
    6.9501  -12.4067   26.9060 S   0  0  0  0  0  0  0  0  0  0  0  0
    6.5380  -14.1990   26.7709 C   0  0  0  0  0  0  0  0  0  0  0  0
    6.6591  -14.5552   25.3537 C   0  0  0  0  0  0  0  0  0  0  0  0
    8.0864  -14.5554   24.8230 C   0  0  2  0  0  0  0  0  0  0  0  0
    7.9531  -15.1697   23.4561 N   0  0  0  0  0  0  0  0  0  0  0  0
    8.9984  -15.3714   25.6168 C   0  0  0  0  0  0  0  0  0  0  0  0
    9.0625  -16.6195   25.2918 O   0  0  0  0  0  0  0  0  0  0  0  0
    9.8364  -14.9908   26.6974 N   0  0  0  0  0  0  0  0  0  0  0  0
    9.8329  -13.6532   27.2112 C   0  0  0  0  0  0  0  0  0  0  0  0
   10.4354  -13.8001   28.5869 C   0  0  0  0  0  0  0  0  0  0  0  0
   11.4996  -14.8886   28.3561 C   0  0  0  0  0  0  0  0  0  0  0  0
   10.7442  -15.8070   27.3917 C   0  0  1  0  0  0  0  0  0  0  0  0
   10.0646  -16.8862   28.1830 C   0  0  0  0  0  0  0  0  0  0  0  0
    8.8200  -16.8787   28.2642 O   0  0  0  0  0  0  0  0  0  0  0  0
   10.8076  -17.8493   28.7956 O   0  0  0  0  0  0  0  0  0  0  0  0
  1  2  1  0
  3  2  1  0
  3  4  1  6
  5  3  1  0
  5  6  1  6
  7  8  2  0
  7  5  1  0
 10  9  1  0
 11 12  1  0
 11 10  1  0
 13 12  1  1
 13 15  1  0
 13 14  1  0
 14  7  1  0
 15 17  1  0
 16 15  2  0
 17 21  1  0
 17 18  1  0
 19 18  1  0
 20 19  1  0
 20 21  1  0
 21 22  1  1
 22 23  2  0
 22 24  1  0
M  END
$$$$
