IMP.pdb
     RDKit          3D

 24 24  0  0  1  0  0  0  0  0999 V2000
    6.1920  -22.5827   21.6006 C   0  0  0  0  0  0  0  0  0  0  0  0
    5.4673  -21.8115   22.6810 C   0  0  0  0  0  0  0  0  0  0  0  0
    5.8085  -20.3627   22.5866 C   0  0  2  0  0  0  0  0  0  0  0  0
    7.2756  -20.1171   22.3944 C   0  0  0  0  0  0  0  0  0  0  0  0
    5.1949  -19.5537   23.7094 C   0  0  2  0  0  0  0  0  0  0  0  0
    3.7378  -19.6794   23.4800 N   0  0  0  0  0  0  0  0  0  0  0  0
    5.5813  -18.1362   23.7116 C   0  0  0  0  0  0  0  0  0  0  0  0
    5.2373  -17.4136   22.7165 O   0  0  0  0  0  0  0  0  0  0  0  0
    6.9175  -11.4666   26.8533 C   0  0  0  0  0  0  0  0  0  0  0  0
    6.2858  -13.1589   26.7173 S   0  0  0  0  0  0  0  0  0  0  0  0
    7.6276  -14.2725   26.1175 C   0  0  0  0  0  0  0  0  0  0  0  0
    7.0455  -15.6134   26.0042 C   0  0  0  0  0  0  0  0  0  0  0  0
    6.7346  -16.0477   24.5782 C   0  0  2  0  0  0  0  0  0  0  0  0
    6.3109  -17.4832   24.7324 N   0  0  0  0  0  0  0  0  0  0  0  0
    7.8918  -15.9932   23.6918 C   0  0  0  0  0  0  0  0  0  0  0  0
    8.8124  -16.8705   23.9157 O   0  0  0  0  0  0  0  0  0  0  0  0
    8.1531  -15.1151   22.6076 N   0  0  0  0  0  0  0  0  0  0  0  0
    7.2226  -14.0918   22.2330 C   0  0  0  0  0  0  0  0  0  0  0  0
    8.0610  -13.1259   21.4321 C   0  0  0  0  0  0  0  0  0  0  0  0
    9.0154  -14.0744   20.6837 C   0  0  0  0  0  0  0  0  0  0  0  0
    9.2884  -15.1066   21.7810 C   0  0  1  0  0  0  0  0  0  0  0  0
   10.5368  -14.7135   22.5157 C   0  0  0  0  0  0  0  0  0  0  0  0
   10.4407  -14.3161   23.6941 O   0  0  0  0  0  0  0  0  0  0  0  0
   11.7454  -14.7951   21.8930 O   0  0  0  0  0  0  0  0  0  0  0  0
  1  2  1  0
  3  2  1  0
  3  4  1  1
  5  3  1  0
  5  6  1  6
  7  8  2  0
  7  5  1  0
 10  9  1  0
 11 12  1  0
 11 10  1  0
 13 12  1  1
 13 15  1  0
 13 14  1  0
 14  7  1  0
 15 17  1  0
 16 15  2  0
 17 21  1  0
 17 18  1  0
 19 18  1  0
 20 19  1  0
 20 21  1  0
 21 22  1  1
 22 23  2  0
 22 24  1  0
M  END
$$$$
