IMP.pdb
     RDKit          3D

 24 24  0  0  1  0  0  0  0  0999 V2000
    7.7078  -22.5081   22.1318 C   0  0  0  0  0  0  0  0  0  0  0  0
    6.9637  -21.7649   23.2186 C   0  0  0  0  0  0  0  0  0  0  0  0
    6.9086  -20.3105   22.8931 C   0  0  2  0  0  0  0  0  0  0  0  0
    8.2390  -19.7498   22.4863 C   0  0  0  0  0  0  0  0  0  0  0  0
    6.2095  -19.5072   23.9690 C   0  0  2  0  0  0  0  0  0  0  0  0
    4.8177  -20.0106   23.9377 N   0  0  0  0  0  0  0  0  0  0  0  0
    6.2224  -18.0557   23.7414 C   0  0  0  0  0  0  0  0  0  0  0  0
    5.5160  -17.5865   22.7866 O   0  0  0  0  0  0  0  0  0  0  0  0
    6.2203  -12.2321   27.5341 C   0  0  0  0  0  0  0  0  0  0  0  0
    7.8091  -12.7789   26.8575 S   0  0  0  0  0  0  0  0  0  0  0  0
    7.5533  -13.4831   25.1727 C   0  0  0  0  0  0  0  0  0  0  0  0
    7.3143  -14.9193   25.3463 C   0  0  0  0  0  0  0  0  0  0  0  0
    7.0483  -15.6757   24.0518 C   0  0  2  0  0  0  0  0  0  0  0  0
    6.9563  -17.1104   24.4955 N   0  0  0  0  0  0  0  0  0  0  0  0
    8.1281  -15.5542   23.0787 C   0  0  0  0  0  0  0  0  0  0  0  0
    9.1797  -16.2652   23.3153 O   0  0  0  0  0  0  0  0  0  0  0  0
    8.1903  -14.7686   21.8982 N   0  0  0  0  0  0  0  0  0  0  0  0
    7.1424  -13.8545   21.5521 C   0  0  0  0  0  0  0  0  0  0  0  0
    7.8013  -12.9135   20.5735 C   0  0  0  0  0  0  0  0  0  0  0  0
    8.7374  -13.8600   19.7998 C   0  0  0  0  0  0  0  0  0  0  0  0
    9.2184  -14.7597   20.9415 C   0  0  1  0  0  0  0  0  0  0  0  0
   10.5068  -14.2103   21.4810 C   0  0  0  0  0  0  0  0  0  0  0  0
   10.4999  -13.6436   22.5921 O   0  0  0  0  0  0  0  0  0  0  0  0
   11.6542  -14.3364   20.7583 O   0  0  0  0  0  0  0  0  0  0  0  0
  1  2  1  0
  3  2  1  0
  3  4  1  1
  5  3  1  0
  5  6  1  6
  7  8  2  0
  7  5  1  0
 10  9  1  0
 11 12  1  0
 11 10  1  0
 13 12  1  1
 13 15  1  0
 13 14  1  0
 14  7  1  0
 15 17  1  0
 16 15  2  0
 17 21  1  0
 17 18  1  0
 19 18  1  0
 20 19  1  0
 20 21  1  0
 21 22  1  1
 22 23  2  0
 22 24  1  0
M  END
$$$$
