IMP.pdb
     RDKit          3D

 24 24  0  0  1  0  0  0  0  0999 V2000
    7.1342  -22.7265   21.8840 C   0  0  0  0  0  0  0  0  0  0  0  0
    6.6142  -21.9969   23.1023 C   0  0  0  0  0  0  0  0  0  0  0  0
    6.6528  -20.5246   22.8675 C   0  0  2  0  0  0  0  0  0  0  0  0
    7.9721  -20.0501   22.3347 C   0  0  0  0  0  0  0  0  0  0  0  0
    6.1580  -19.7390   24.0632 C   0  0  2  0  0  0  0  0  0  0  0  0
    4.7904  -20.2598   24.2867 N   0  0  0  0  0  0  0  0  0  0  0  0
    6.1123  -18.2857   23.8524 C   0  0  0  0  0  0  0  0  0  0  0  0
    5.2673  -17.8220   23.0146 O   0  0  0  0  0  0  0  0  0  0  0  0
    7.3374  -11.1965   26.9103 C   0  0  0  0  0  0  0  0  0  0  0  0
    7.5013  -13.0002   26.9432 S   0  0  0  0  0  0  0  0  0  0  0  0
    7.1831  -13.6798   25.2588 C   0  0  0  0  0  0  0  0  0  0  0  0
    7.1053  -15.1373   25.3985 C   0  0  0  0  0  0  0  0  0  0  0  0
    6.9087  -15.8871   24.0879 C   0  0  2  0  0  0  0  0  0  0  0  0
    6.9304  -17.3330   24.5034 N   0  0  0  0  0  0  0  0  0  0  0  0
    7.9808  -15.6599   23.1252 C   0  0  0  0  0  0  0  0  0  0  0  0
    9.0630  -16.3370   23.3198 O   0  0  0  0  0  0  0  0  0  0  0  0
    8.0068  -14.8025   21.9943 N   0  0  0  0  0  0  0  0  0  0  0  0
    6.9337  -13.8932   21.7205 C   0  0  0  0  0  0  0  0  0  0  0  0
    7.5560  -12.8795   20.7918 C   0  0  0  0  0  0  0  0  0  0  0  0
    8.5000  -13.7553   19.9478 C   0  0  0  0  0  0  0  0  0  0  0  0
    9.0189  -14.7117   21.0249 C   0  0  1  0  0  0  0  0  0  0  0  0
   10.3034  -14.1670   21.5781 C   0  0  0  0  0  0  0  0  0  0  0  0
   10.3133  -13.7150   22.7406 O   0  0  0  0  0  0  0  0  0  0  0  0
   11.4294  -14.1733   20.8120 O   0  0  0  0  0  0  0  0  0  0  0  0
  1  2  1  0
  3  2  1  0
  3  4  1  1
  5  3  1  0
  5  6  1  6
  7  8  2  0
  7  5  1  0
 10  9  1  0
 11 12  1  0
 11 10  1  0
 13 12  1  1
 13 15  1  0
 13 14  1  0
 14  7  1  0
 15 17  1  0
 16 15  2  0
 17 21  1  0
 17 18  1  0
 19 18  1  0
 20 19  1  0
 20 21  1  0
 21 22  1  1
 22 23  2  0
 22 24  1  0
M  END
$$$$
