GLQ.pdb
     RDKit          3D

 22 21  0  0  1  0  0  0  0  0999 V2000
   17.7986  -12.2377  -17.9156 N   0  0  0  0  0  0  0  0  0  0  0  0
   18.7111  -12.5745  -16.8623 C   0  0  0  0  0  0  0  0  0  0  0  0
   19.3155  -11.3761  -16.2122 C   0  0  0  0  0  0  0  0  0  0  0  0
   18.7000  -10.9120  -15.2170 O   0  0  0  0  0  0  0  0  0  0  0  0
   24.6097  -10.7370  -15.0723 C   0  0  0  0  0  0  0  0  0  0  0  0
   23.0582  -10.7422  -14.8046 C   0  0  1  0  0  0  0  0  0  0  0  0
   22.9047  -10.1979  -13.3751 C   0  0  0  0  0  0  0  0  0  0  0  0
   22.5185   -9.8253  -15.8304 C   0  0  0  0  0  0  0  0  0  0  0  0
   21.0685   -9.6096  -15.9824 C   0  0  2  0  0  0  0  0  0  0  0  0
   20.4979  -10.8014  -16.6816 N   0  0  0  0  0  0  0  0  0  0  0  0
   20.5733   -8.3993  -16.6330 C   0  0  0  0  0  0  0  0  0  0  0  0
   20.6700   -8.1279  -17.8694 O   0  0  0  0  0  0  0  0  0  0  0  0
   14.5467   -5.3786  -17.4256 N   0  0  0  0  0  0  0  0  0  0  0  0
   15.6490   -5.7592  -16.5778 C   0  0  0  0  0  0  0  0  0  0  0  0
   15.4063   -6.3643  -15.5077 O   0  0  0  0  0  0  0  0  0  0  0  0
   17.0433   -5.4547  -16.9362 C   0  0  0  0  0  0  0  0  0  0  0  0
   18.0074   -5.9975  -15.9514 C   0  0  0  0  0  0  0  0  0  0  0  0
   19.4320   -6.1334  -16.4204 C   0  0  2  0  0  0  0  0  0  0  0  0
   19.9110   -7.3913  -15.8620 N   0  0  0  0  0  0  0  0  0  0  0  0
   20.3015   -5.0066  -15.9915 C   0  0  0  0  0  0  0  0  0  0  0  0
   20.1086   -3.8773  -16.5011 O   0  0  0  0  0  0  0  0  0  0  0  0
   21.3167   -5.1363  -15.0566 O   0  0  0  0  0  0  0  0  0  0  0  0
  2  3  1  0
  2  1  1  0
  3 10  1  0
  4  3  2  0
  6  5  1  6
  7  6  1  0
  8  6  1  0
  9  8  1  6
 10  9  1  0
 11 19  1  0
 11  9  1  0
 12 11  2  0
 13 14  1  0
 14 15  2  0
 16 17  1  0
 16 14  1  0
 18 19  1  0
 18 17  1  1
 20 18  1  0
 21 20  2  0
 22 20  1  0
M  END
$$$$
