GLQ.pdb
     RDKit          3D

 22 21  0  0  1  0  0  0  0  0999 V2000
   30.0827  -24.9647  -17.0339 N   0  0  0  0  0  0  0  0  0  0  0  0
   30.7957  -25.8546  -16.1647 C   0  0  0  0  0  0  0  0  0  0  0  0
   32.2598  -25.8918  -16.4458 C   0  0  0  0  0  0  0  0  0  0  0  0
   32.6603  -25.1882  -17.4098 O   0  0  0  0  0  0  0  0  0  0  0  0
   36.0077  -25.9694  -12.6591 C   0  0  0  0  0  0  0  0  0  0  0  0
   35.1708  -25.5402  -13.9217 C   0  0  1  0  0  0  0  0  0  0  0  0
   35.7903  -24.2060  -14.3683 C   0  0  0  0  0  0  0  0  0  0  0  0
   35.4017  -26.6339  -14.8884 C   0  0  0  0  0  0  0  0  0  0  0  0
   34.5687  -26.7819  -16.0953 C   0  0  2  0  0  0  0  0  0  0  0  0
   33.1369  -26.6641  -15.6821 N   0  0  0  0  0  0  0  0  0  0  0  0
   34.7183  -27.9586  -16.9475 C   0  0  0  0  0  0  0  0  0  0  0  0
   34.2976  -29.1266  -16.6818 O   0  0  0  0  0  0  0  0  0  0  0  0
   30.9276  -28.7453  -19.9858 N   0  0  0  0  0  0  0  0  0  0  0  0
   31.7557  -29.5432  -20.8555 C   0  0  0  0  0  0  0  0  0  0  0  0
   31.2082  -30.2165  -21.7594 O   0  0  0  0  0  0  0  0  0  0  0  0
   33.2189  -29.5865  -20.7070 C   0  0  0  0  0  0  0  0  0  0  0  0
   33.6919  -28.7677  -19.5669 C   0  0  0  0  0  0  0  0  0  0  0  0
   35.1770  -28.7707  -19.3166 C   0  0  2  0  0  0  0  0  0  0  0  0
   35.3900  -27.8504  -18.2069 N   0  0  0  0  0  0  0  0  0  0  0  0
   35.9731  -28.3544  -20.5008 C   0  0  0  0  0  0  0  0  0  0  0  0
   35.9464  -27.1485  -20.8431 O   0  0  0  0  0  0  0  0  0  0  0  0
   36.7455  -29.2288  -21.2494 O   0  0  0  0  0  0  0  0  0  0  0  0
  2  3  1  0
  2  1  1  0
  3 10  1  0
  4  3  2  0
  6  5  1  1
  7  6  1  0
  8  6  1  0
  9  8  1  1
 10  9  1  0
 11 19  1  0
 11  9  1  0
 12 11  2  0
 13 14  1  0
 14 15  2  0
 16 17  1  0
 16 14  1  0
 18 19  1  0
 18 17  1  6
 20 18  1  0
 21 20  2  0
 22 20  1  0
M  END
$$$$
