GLQ.pdb
     RDKit          3D

 22 21  0  0  1  0  0  0  0  0999 V2000
   22.4352  -14.0979  -17.8353 N   0  0  0  0  0  0  0  0  0  0  0  0
   22.0576  -12.7656  -18.2069 C   0  0  0  0  0  0  0  0  0  0  0  0
   22.5526  -11.7337  -17.2509 C   0  0  0  0  0  0  0  0  0  0  0  0
   21.9648  -11.6762  -16.1392 O   0  0  0  0  0  0  0  0  0  0  0  0
   27.7499  -10.0551  -16.6850 C   0  0  0  0  0  0  0  0  0  0  0  0
   26.3262  -10.6664  -16.4056 C   0  0  1  0  0  0  0  0  0  0  0  0
   26.3538  -11.0630  -14.9205 C   0  0  0  0  0  0  0  0  0  0  0  0
   25.3999   -9.5494  -16.6855 C   0  0  0  0  0  0  0  0  0  0  0  0
   23.9384   -9.7386  -16.6630 C   0  0  2  0  0  0  0  0  0  0  0  0
   23.6090  -10.8793  -17.5714 N   0  0  0  0  0  0  0  0  0  0  0  0
   23.0512   -8.6198  -16.9703 C   0  0  0  0  0  0  0  0  0  0  0  0
   22.7820   -8.1824  -18.1313 O   0  0  0  0  0  0  0  0  0  0  0  0
   17.5814   -8.6189  -16.3462 N   0  0  0  0  0  0  0  0  0  0  0  0
   17.6733   -7.1811  -16.4015 C   0  0  0  0  0  0  0  0  0  0  0  0
   16.6184   -6.5125  -16.5034 O   0  0  0  0  0  0  0  0  0  0  0  0
   18.9681   -6.4846  -16.3430 C   0  0  0  0  0  0  0  0  0  0  0  0
   20.1001   -7.4196  -16.1476 C   0  0  0  0  0  0  0  0  0  0  0  0
   21.4750   -6.8053  -16.1303 C   0  0  2  0  0  0  0  0  0  0  0  0
   22.3971   -7.9123  -15.9116 N   0  0  0  0  0  0  0  0  0  0  0  0
   21.6425   -5.7700  -15.0769 C   0  0  0  0  0  0  0  0  0  0  0  0
   22.1689   -6.1057  -13.9895 O   0  0  0  0  0  0  0  0  0  0  0  0
   21.2476   -4.4503  -15.2313 O   0  0  0  0  0  0  0  0  0  0  0  0
  2  3  1  0
  2  1  1  0
  3 10  1  0
  4  3  2  0
  6  5  1  1
  7  6  1  0
  8  6  1  0
  9  8  1  6
 10  9  1  0
 11 19  1  0
 11  9  1  0
 12 11  2  0
 13 14  1  0
 14 15  2  0
 16 17  1  0
 16 14  1  0
 18 19  1  0
 18 17  1  1
 20 18  1  0
 21 20  2  0
 22 20  1  0
M  END
$$$$
