GLQ.pdb
     RDKit          3D

 22 21  0  0  1  0  0  0  0  0999 V2000
   21.7526  -33.6360  -17.2181 N   0  0  0  0  0  0  0  0  0  0  0  0
   22.0810  -32.7832  -16.1134 C   0  0  0  0  0  0  0  0  0  0  0  0
   23.2316  -33.2895  -15.3109 C   0  0  0  0  0  0  0  0  0  0  0  0
   23.1911  -34.5043  -14.9836 O   0  0  0  0  0  0  0  0  0  0  0  0
   27.2077  -34.3111  -16.0617 C   0  0  0  0  0  0  0  0  0  0  0  0
   27.7638  -33.4517  -14.8655 C   0  0  1  0  0  0  0  0  0  0  0  0
   29.0086  -32.7496  -15.4319 C   0  0  0  0  0  0  0  0  0  0  0  0
   26.6629  -32.5139  -14.5611 C   0  0  0  0  0  0  0  0  0  0  0  0
   25.3667  -32.9909  -14.0466 C   0  0  2  0  0  0  0  0  0  0  0  0
   24.2940  -32.4618  -14.9434 N   0  0  0  0  0  0  0  0  0  0  0  0
   24.9909  -32.7331  -12.6589 C   0  0  0  0  0  0  0  0  0  0  0  0
   24.3970  -31.6960  -12.2306 O   0  0  0  0  0  0  0  0  0  0  0  0
   22.6383  -33.9716   -7.0092 N   0  0  0  0  0  0  0  0  0  0  0  0
   23.2077  -34.9898   -7.8564 C   0  0  0  0  0  0  0  0  0  0  0  0
   22.4595  -35.8890   -8.3056 O   0  0  0  0  0  0  0  0  0  0  0  0
   24.6378  -34.9992   -8.2025 C   0  0  0  0  0  0  0  0  0  0  0  0
   24.8623  -34.9084   -9.6638 C   0  0  0  0  0  0  0  0  0  0  0  0
   24.9556  -33.5192  -10.2375 C   0  0  2  0  0  0  0  0  0  0  0  0
   25.2918  -33.6970  -11.6443 N   0  0  0  0  0  0  0  0  0  0  0  0
   25.9716  -32.6712   -9.5607 C   0  0  0  0  0  0  0  0  0  0  0  0
   27.1575  -32.7247   -9.9645 O   0  0  0  0  0  0  0  0  0  0  0  0
   25.6792  -31.8222   -8.5047 O   0  0  0  0  0  0  0  0  0  0  0  0
  2  3  1  0
  2  1  1  0
  3 10  1  0
  4  3  2  0
  6  5  1  6
  7  6  1  0
  8  6  1  0
  9  8  1  6
 10  9  1  0
 11 19  1  0
 11  9  1  0
 12 11  2  0
 13 14  1  0
 14 15  2  0
 16 17  1  0
 16 14  1  0
 18 19  1  0
 18 17  1  1
 20 18  1  0
 21 20  2  0
 22 20  1  0
M  END
$$$$
