GLQ.pdb
     RDKit          3D

 22 21  0  0  1  0  0  0  0  0999 V2000
   17.3875  -25.9511   -7.0681 N   0  0  0  0  0  0  0  0  0  0  0  0
   17.8356  -25.3911   -5.8266 C   0  0  0  0  0  0  0  0  0  0  0  0
   17.6002  -26.2943   -4.6636 C   0  0  0  0  0  0  0  0  0  0  0  0
   16.7722  -27.2259   -4.8400 O   0  0  0  0  0  0  0  0  0  0  0  0
   21.4130  -28.5239   -1.4643 C   0  0  0  0  0  0  0  0  0  0  0  0
   20.1666  -28.4116   -2.4196 C   0  0  1  0  0  0  0  0  0  0  0  0
   19.5841  -29.8333   -2.4736 C   0  0  0  0  0  0  0  0  0  0  0  0
   19.2782  -27.4517   -1.7316 C   0  0  0  0  0  0  0  0  0  0  0  0
   17.9847  -27.0490   -2.3122 C   0  0  2  0  0  0  0  0  0  0  0  0
   18.2615  -26.1161   -3.4471 N   0  0  0  0  0  0  0  0  0  0  0  0
   16.9518  -26.4634   -1.4616 C   0  0  0  0  0  0  0  0  0  0  0  0
   16.8321  -25.2315   -1.1795 O   0  0  0  0  0  0  0  0  0  0  0  0
   11.2446  -27.7026   -1.8335 N   0  0  0  0  0  0  0  0  0  0  0  0
   11.2014  -27.3691   -0.4315 C   0  0  0  0  0  0  0  0  0  0  0  0
   10.0863  -27.1973    0.1139 O   0  0  0  0  0  0  0  0  0  0  0  0
   12.4277  -27.2249    0.3688 C   0  0  0  0  0  0  0  0  0  0  0  0
   13.6485  -27.5178   -0.4170 C   0  0  0  0  0  0  0  0  0  0  0  0
   14.9028  -26.8026    0.0111 C   0  0  2  0  0  0  0  0  0  0  0  0
   15.9569  -27.3008   -0.8631 N   0  0  0  0  0  0  0  0  0  0  0  0
   15.2535  -27.0345    1.4369 C   0  0  0  0  0  0  0  0  0  0  0  0
   16.2120  -27.7994    1.6982 O   0  0  0  0  0  0  0  0  0  0  0  0
   14.5771  -26.4498    2.4962 O   0  0  0  0  0  0  0  0  0  0  0  0
  2  3  1  0
  2  1  1  0
  3 10  1  0
  4  3  2  0
  6  5  1  1
  7  6  1  0
  8  6  1  0
  9  8  1  1
 10  9  1  0
 11 19  1  0
 11  9  1  0
 12 11  2  0
 13 14  1  0
 14 15  2  0
 16 17  1  0
 16 14  1  0
 18 19  1  0
 18 17  1  6
 20 18  1  0
 21 20  2  0
 22 20  1  0
M  END
$$$$
