GLQ.pdb
     RDKit          3D

 22 21  0  0  1  0  0  0  0  0999 V2000
   19.6014  -12.6552  -18.2903 N   0  0  0  0  0  0  0  0  0  0  0  0
   19.1561  -11.3234  -18.5793 C   0  0  0  0  0  0  0  0  0  0  0  0
   19.5514  -10.3387  -17.5314 C   0  0  0  0  0  0  0  0  0  0  0  0
   18.6348   -9.9423  -16.7649 O   0  0  0  0  0  0  0  0  0  0  0  0
   24.3241  -10.5342  -14.8430 C   0  0  0  0  0  0  0  0  0  0  0  0
   22.7664  -10.5080  -15.0707 C   0  0  1  0  0  0  0  0  0  0  0  0
   22.1632  -10.4926  -13.6568 C   0  0  0  0  0  0  0  0  0  0  0  0
   22.5373   -9.2476  -15.8076 C   0  0  0  0  0  0  0  0  0  0  0  0
   21.2070   -8.8972  -16.3366 C   0  0  2  0  0  0  0  0  0  0  0  0
   20.8649   -9.8822  -17.4078 N   0  0  0  0  0  0  0  0  0  0  0  0
   20.9504   -7.5490  -16.8363 C   0  0  0  0  0  0  0  0  0  0  0  0
   21.4220   -7.0504  -17.9044 O   0  0  0  0  0  0  0  0  0  0  0  0
   16.0948   -5.2276  -18.2043 N   0  0  0  0  0  0  0  0  0  0  0  0
   16.5499   -3.9626  -17.6832 C   0  0  0  0  0  0  0  0  0  0  0  0
   15.9329   -2.9205  -18.0046 O   0  0  0  0  0  0  0  0  0  0  0  0
   17.7152   -3.8667  -16.7898 C   0  0  0  0  0  0  0  0  0  0  0  0
   18.2874   -5.1947  -16.4690 C   0  0  0  0  0  0  0  0  0  0  0  0
   19.7882   -5.3046  -16.5292 C   0  0  2  0  0  0  0  0  0  0  0  0
   20.1000   -6.6623  -16.1016 N   0  0  0  0  0  0  0  0  0  0  0  0
   20.4847   -4.3128  -15.6686 C   0  0  0  0  0  0  0  0  0  0  0  0
   20.7251   -4.6219  -14.4774 O   0  0  0  0  0  0  0  0  0  0  0  0
   20.8841   -3.0616  -16.1120 O   0  0  0  0  0  0  0  0  0  0  0  0
  2  3  1  0
  2  1  1  0
  3 10  1  0
  4  3  2  0
  6  5  1  1
  7  6  1  0
  8  6  1  0
  9  8  1  6
 10  9  1  0
 11 19  1  0
 11  9  1  0
 12 11  2  0
 13 14  1  0
 14 15  2  0
 16 17  1  0
 16 14  1  0
 18 19  1  0
 18 17  1  1
 20 18  1  0
 21 20  2  0
 22 20  1  0
M  END
$$$$
