GLQ.pdb
     RDKit          3D

 22 21  0  0  1  0  0  0  0  0999 V2000
   22.6650  -16.3744  -18.2150 N   0  0  0  0  0  0  0  0  0  0  0  0
   23.2107  -15.2058  -18.8414 C   0  0  0  0  0  0  0  0  0  0  0  0
   23.8526  -14.2729  -17.8711 C   0  0  0  0  0  0  0  0  0  0  0  0
   23.2887  -14.1584  -16.7515 O   0  0  0  0  0  0  0  0  0  0  0  0
   27.7006  -12.0605  -15.0059 C   0  0  0  0  0  0  0  0  0  0  0  0
   27.8255  -11.6214  -16.5127 C   0  0  1  0  0  0  0  0  0  0  0  0
   29.3241  -11.7413  -16.8337 C   0  0  0  0  0  0  0  0  0  0  0  0
   27.0008  -12.6095  -17.2391 C   0  0  0  0  0  0  0  0  0  0  0  0
   25.5291  -12.5297  -17.2411 C   0  0  2  0  0  0  0  0  0  0  0  0
   25.0143  -13.5663  -18.1873 N   0  0  0  0  0  0  0  0  0  0  0  0
   24.8659  -11.2600  -17.5263 C   0  0  0  0  0  0  0  0  0  0  0  0
   24.7325  -10.7328  -18.6735 O   0  0  0  0  0  0  0  0  0  0  0  0
   20.0077   -9.5797  -14.3140 N   0  0  0  0  0  0  0  0  0  0  0  0
   20.2884   -8.3200  -14.9568 C   0  0  0  0  0  0  0  0  0  0  0  0
   19.4800   -7.3740  -14.8094 O   0  0  0  0  0  0  0  0  0  0  0  0
   21.4931   -8.1206  -15.7777 C   0  0  0  0  0  0  0  0  0  0  0  0
   22.3149   -9.3489  -15.8763 C   0  0  0  0  0  0  0  0  0  0  0  0
   23.5968   -9.2308  -16.6579 C   0  0  2  0  0  0  0  0  0  0  0  0
   24.2954  -10.4942  -16.4599 N   0  0  0  0  0  0  0  0  0  0  0  0
   24.4461   -8.0906  -16.2243 C   0  0  0  0  0  0  0  0  0  0  0  0
   24.1119   -6.9327  -16.5704 O   0  0  0  0  0  0  0  0  0  0  0  0
   25.5906   -8.2376  -15.4561 O   0  0  0  0  0  0  0  0  0  0  0  0
  2  3  1  0
  2  1  1  0
  3 10  1  0
  4  3  2  0
  6  5  1  1
  7  6  1  0
  8  6  1  0
  9  8  1  6
 10  9  1  0
 11 19  1  0
 11  9  1  0
 12 11  2  0
 13 14  1  0
 14 15  2  0
 16 17  1  0
 16 14  1  0
 18 19  1  0
 18 17  1  1
 20 18  1  0
 21 20  2  0
 22 20  1  0
M  END
$$$$
