GLQ.pdb
     RDKit          3D

 22 21  0  0  1  0  0  0  0  0999 V2000
   28.3524  -21.9318  -16.7847 N   0  0  0  0  0  0  0  0  0  0  0  0
   27.8211  -20.8013  -16.0808 C   0  0  0  0  0  0  0  0  0  0  0  0
   26.8169  -21.1811  -15.0459 C   0  0  0  0  0  0  0  0  0  0  0  0
   26.1109  -22.1922  -15.2988 O   0  0  0  0  0  0  0  0  0  0  0  0
   25.3470  -22.0482   -9.9274 C   0  0  0  0  0  0  0  0  0  0  0  0
   25.1189  -20.5591  -10.3849 C   0  0  1  0  0  0  0  0  0  0  0  0
   25.5609  -19.7074   -9.1838 C   0  0  0  0  0  0  0  0  0  0  0  0
   26.0082  -20.4079  -11.5556 C   0  0  0  0  0  0  0  0  0  0  0  0
   25.5799  -20.8192  -12.9045 C   0  0  2  0  0  0  0  0  0  0  0  0
   26.6683  -20.4554  -13.8626 N   0  0  0  0  0  0  0  0  0  0  0  0
   24.3041  -20.3524  -13.4409 C   0  0  0  0  0  0  0  0  0  0  0  0
   24.0630  -19.1833  -13.8729 O   0  0  0  0  0  0  0  0  0  0  0  0
   21.5384  -23.0021  -17.7635 N   0  0  0  0  0  0  0  0  0  0  0  0
   20.4443  -22.1590  -17.3500 C   0  0  0  0  0  0  0  0  0  0  0  0
   19.4453  -22.0561  -18.0994 O   0  0  0  0  0  0  0  0  0  0  0  0
   20.4733  -21.4202  -16.0779 C   0  0  0  0  0  0  0  0  0  0  0  0
   21.7536  -21.5978  -15.3546 C   0  0  0  0  0  0  0  0  0  0  0  0
   21.8847  -20.8666  -14.0446 C   0  0  2  0  0  0  0  0  0  0  0  0
   23.1873  -21.2451  -13.5121 N   0  0  0  0  0  0  0  0  0  0  0  0
   20.8075  -21.1994  -13.0758 C   0  0  0  0  0  0  0  0  0  0  0  0
   21.0000  -22.1410  -12.2705 O   0  0  0  0  0  0  0  0  0  0  0  0
   19.5985  -20.5240  -13.0139 O   0  0  0  0  0  0  0  0  0  0  0  0
  2  3  1  0
  2  1  1  0
  3 10  1  0
  4  3  2  0
  6  5  1  1
  7  6  1  0
  8  6  1  0
  9  8  1  1
 10  9  1  0
 11 19  1  0
 11  9  1  0
 12 11  2  0
 13 14  1  0
 14 15  2  0
 16 17  1  0
 16 14  1  0
 18 19  1  0
 18 17  1  6
 20 18  1  0
 21 20  2  0
 22 20  1  0
M  END
$$$$
