GLQ.pdb
     RDKit          3D

 22 21  0  0  1  0  0  0  0  0999 V2000
   23.8544  -15.6545  -19.9464 N   0  0  0  0  0  0  0  0  0  0  0  0
   23.8442  -14.2357  -20.1531 C   0  0  0  0  0  0  0  0  0  0  0  0
   23.8962  -13.4628  -18.8787 C   0  0  0  0  0  0  0  0  0  0  0  0
   22.9298  -13.6251  -18.0886 O   0  0  0  0  0  0  0  0  0  0  0  0
   28.6146  -12.2697  -16.3628 C   0  0  0  0  0  0  0  0  0  0  0  0
   27.1847  -12.8778  -16.6167 C   0  0  1  0  0  0  0  0  0  0  0  0
   26.8432  -13.6320  -15.3214 C   0  0  0  0  0  0  0  0  0  0  0  0
   26.3293  -11.6925  -16.8349 C   0  0  0  0  0  0  0  0  0  0  0  0
   24.9390  -11.8241  -17.3060 C   0  0  2  0  0  0  0  0  0  0  0  0
   24.9578  -12.6071  -18.5793 N   0  0  0  0  0  0  0  0  0  0  0  0
   24.1157  -10.6328  -17.4971 C   0  0  0  0  0  0  0  0  0  0  0  0
   24.1823   -9.8339  -18.4815 O   0  0  0  0  0  0  0  0  0  0  0  0
   19.7246   -8.9783  -18.9330 N   0  0  0  0  0  0  0  0  0  0  0  0
   19.3591   -8.1982  -17.7769 C   0  0  0  0  0  0  0  0  0  0  0  0
   18.6384   -7.1855  -17.9356 O   0  0  0  0  0  0  0  0  0  0  0  0
   19.8107   -8.5596  -16.4239 C   0  0  0  0  0  0  0  0  0  0  0  0
   20.8701   -9.5946  -16.4435 C   0  0  0  0  0  0  0  0  0  0  0  0
   22.2809   -9.0992  -16.6231 C   0  0  2  0  0  0  0  0  0  0  0  0
   23.1278  -10.2808  -16.5228 N   0  0  0  0  0  0  0  0  0  0  0  0
   22.6796   -8.0834  -15.6139 C   0  0  0  0  0  0  0  0  0  0  0  0
   23.2555   -8.4735  -14.5707 O   0  0  0  0  0  0  0  0  0  0  0  0
   22.4491   -6.7247  -15.7633 O   0  0  0  0  0  0  0  0  0  0  0  0
  2  3  1  0
  2  1  1  0
  3 10  1  0
  4  3  2  0
  6  5  1  1
  7  6  1  0
  8  6  1  0
  9  8  1  6
 10  9  1  0
 11 19  1  0
 11  9  1  0
 12 11  2  0
 13 14  1  0
 14 15  2  0
 16 17  1  0
 16 14  1  0
 18 19  1  0
 18 17  1  1
 20 18  1  0
 21 20  2  0
 22 20  1  0
M  END
$$$$
