YTN.pdb
     RDKit          3D

 28 28  0  0  1  0  0  0  0  0999 V2000
   25.4802  -11.8574  -19.3594 O   0  0  0  0  0  0  0  0  0  0  0  0
   25.1525  -13.0748  -18.7436 C   0  0  0  0  0  0  0  0  0  0  0  0
   25.6677  -13.4280  -17.5177 C   0  0  0  0  0  0  0  0  0  0  0  0
   25.3256  -14.6477  -16.9243 C   0  0  0  0  0  0  0  0  0  0  0  0
   24.4687  -15.5130  -17.5571 C   0  0  0  0  0  0  0  0  0  0  0  0
   24.1061  -16.8090  -16.9249 C   0  0  0  0  0  0  0  0  0  0  0  0
   25.4047  -17.5138  -16.5930 C   0  0  2  0  0  0  0  0  0  0  0  0
   26.2508  -17.6541  -17.7362 N   0  0  0  0  0  0  0  0  0  0  0  0
   25.1806  -18.8592  -16.0069 C   0  0  0  0  0  0  0  0  0  0  0  0
   24.1490  -19.5428  -16.2669 O   0  0  0  0  0  0  0  0  0  0  0  0
   23.9529  -15.1517  -18.7917 C   0  0  0  0  0  0  0  0  0  0  0  0
   24.2915  -13.9440  -19.3796 C   0  0  0  0  0  0  0  0  0  0  0  0
   27.3290  -21.8702  -16.1645 C   0  0  0  0  0  0  0  0  0  0  0  0
   27.0953  -21.6389  -14.6877 C   0  0  1  0  0  0  0  0  0  0  0  0
   28.2200  -21.1088  -14.0522 O   0  0  0  0  0  0  0  0  0  0  0  0
   25.8748  -20.7327  -14.4720 C   0  0  2  0  0  0  0  0  0  0  0  0
   26.1299  -19.4607  -15.1067 N   0  0  0  0  0  0  0  0  0  0  0  0
   25.7277  -20.5970  -12.9991 C   0  0  0  0  0  0  0  0  0  0  0  0
   25.9441  -19.4635  -12.5009 O   0  0  0  0  0  0  0  0  0  0  0  0
   25.0099  -21.1734   -7.9937 N   0  0  0  0  0  0  0  0  0  0  0  0
   26.1048  -20.5127   -8.6172 C   0  0  0  0  0  0  0  0  0  0  0  0
   26.8404  -19.8187   -7.8748 O   0  0  0  0  0  0  0  0  0  0  0  0
   26.2789  -20.6971  -10.0601 C   0  0  0  0  0  0  0  0  0  0  0  0
   25.1919  -21.5172  -10.7049 C   0  0  2  0  0  0  0  0  0  0  0  0
   25.3660  -21.6452  -12.1401 N   0  0  0  0  0  0  0  0  0  0  0  0
   23.8551  -20.9101  -10.4760 C   0  0  0  0  0  0  0  0  0  0  0  0
   23.0458  -21.2110   -9.3903 O   0  0  0  0  0  0  0  0  0  0  0  0
   23.4168  -20.0727  -11.3051 O   0  0  0  0  0  0  0  0  0  0  0  0
  2  1  1  0
  3  2  2  0
  4  3  1  0
  5 11  1  0
  5  4  2  0
  6  7  1  0
  6  5  1  0
  7  8  1  6
  7  9  1  0
  9 10  2  0
 11 12  2  0
 12  2  1  0
 14 13  1  6
 14 15  1  0
 16 14  1  0
 17  9  1  0
 16 17  1  6
 18 16  1  0
 18 19  2  0
 20 21  1  0
 21 23  1  0
 22 21  2  0
 24 23  1  6
 24 26  1  0
 24 25  1  0
 25 18  1  0
 26 27  1  0
 28 26  2  0
M  END
$$$$
