YTN.pdb
     RDKit          3D

 28 28  0  0  1  0  0  0  0  0999 V2000
   24.9425  -35.2168  -14.2486 O   0  0  0  0  0  0  0  0  0  0  0  0
   25.7489  -34.0895  -14.4667 C   0  0  0  0  0  0  0  0  0  0  0  0
   25.2944  -32.9996  -15.1727 C   0  0  0  0  0  0  0  0  0  0  0  0
   26.1178  -31.8874  -15.3768 C   0  0  0  0  0  0  0  0  0  0  0  0
   27.3949  -31.8659  -14.8747 C   0  0  0  0  0  0  0  0  0  0  0  0
   28.2689  -30.6829  -15.0925 C   0  0  0  0  0  0  0  0  0  0  0  0
   28.8075  -30.7892  -16.5038 C   0  0  2  0  0  0  0  0  0  0  0  0
   29.7594  -31.8464  -16.6407 N   0  0  0  0  0  0  0  0  0  0  0  0
   29.4397  -29.5262  -16.9611 C   0  0  0  0  0  0  0  0  0  0  0  0
   30.5970  -29.4991  -17.4700 O   0  0  0  0  0  0  0  0  0  0  0  0
   27.8472  -32.9667  -14.1644 C   0  0  0  0  0  0  0  0  0  0  0  0
   27.0320  -34.0682  -13.9622 C   0  0  0  0  0  0  0  0  0  0  0  0
   27.8662  -27.6603  -19.5232 C   0  0  0  0  0  0  0  0  0  0  0  0
   29.2623  -27.3440  -19.0333 C   0  0  1  0  0  0  0  0  0  0  0  0
   29.8314  -26.2693  -19.7196 O   0  0  0  0  0  0  0  0  0  0  0  0
   29.2538  -27.0768  -17.5214 C   0  0  2  0  0  0  0  0  0  0  0  0
   28.7660  -28.2585  -16.8494 N   0  0  0  0  0  0  0  0  0  0  0  0
   28.3502  -25.9135  -17.3219 C   0  0  0  0  0  0  0  0  0  0  0  0
   27.1130  -26.1311  -17.3670 O   0  0  0  0  0  0  0  0  0  0  0  0
   26.4539  -21.3237  -15.9594 N   0  0  0  0  0  0  0  0  0  0  0  0
   27.8537  -21.0977  -16.0759 C   0  0  0  0  0  0  0  0  0  0  0  0
   28.2721  -19.9669  -15.7299 O   0  0  0  0  0  0  0  0  0  0  0  0
   28.6802  -22.1948  -16.5854 C   0  0  0  0  0  0  0  0  0  0  0  0
   27.9171  -23.4715  -16.8258 C   0  0  2  0  0  0  0  0  0  0  0  0
   28.7888  -24.6018  -17.0888 N   0  0  0  0  0  0  0  0  0  0  0  0
   27.0043  -23.3391  -17.9908 C   0  0  0  0  0  0  0  0  0  0  0  0
   27.4378  -23.2548  -19.3059 O   0  0  0  0  0  0  0  0  0  0  0  0
   25.7638  -23.2996  -17.7909 O   0  0  0  0  0  0  0  0  0  0  0  0
  2  1  1  0
  3  2  2  0
  4  3  1  0
  5 11  1  0
  5  4  2  0
  6  7  1  0
  6  5  1  0
  7  8  1  1
  7  9  1  0
  9 10  2  0
 11 12  2  0
 12  2  1  0
 14 13  1  6
 14 15  1  0
 16 14  1  0
 17  9  1  0
 16 17  1  1
 18 16  1  0
 18 19  2  0
 20 21  1  0
 21 23  1  0
 22 21  2  0
 24 23  1  6
 24 26  1  0
 24 25  1  0
 25 18  1  0
 26 27  1  0
 28 26  2  0
M  END
$$$$
