YTN.pdb
     RDKit          3D

 28 28  0  0  1  0  0  0  0  0999 V2000
   29.7359  -19.5029   -4.0324 O   0  0  0  0  0  0  0  0  0  0  0  0
   28.8508  -19.8581   -5.0616 C   0  0  0  0  0  0  0  0  0  0  0  0
   27.5618  -19.3793   -5.1056 C   0  0  0  0  0  0  0  0  0  0  0  0
   26.6983  -19.7482   -6.1425 C   0  0  0  0  0  0  0  0  0  0  0  0
   27.1246  -20.5955   -7.1344 C   0  0  0  0  0  0  0  0  0  0  0  0
   26.2055  -20.9866   -8.2358 C   0  0  0  0  0  0  0  0  0  0  0  0
   26.9942  -20.8801   -9.5242 C   0  0  2  0  0  0  0  0  0  0  0  0
   28.1898  -20.1137   -9.3639 N   0  0  0  0  0  0  0  0  0  0  0  0
   26.1967  -20.2815  -10.6239 C   0  0  0  0  0  0  0  0  0  0  0  0
   26.5004  -19.1714  -11.1478 O   0  0  0  0  0  0  0  0  0  0  0  0
   28.4242  -21.0745   -7.0848 C   0  0  0  0  0  0  0  0  0  0  0  0
   29.2794  -20.7094   -6.0582 C   0  0  0  0  0  0  0  0  0  0  0  0
   25.9039  -22.1186  -13.6447 C   0  0  0  0  0  0  0  0  0  0  0  0
   25.4683  -20.6751  -13.5203 C   0  0  1  0  0  0  0  0  0  0  0  0
   24.9750  -20.1673  -14.7239 O   0  0  0  0  0  0  0  0  0  0  0  0
   24.4277  -20.5220  -12.4017 C   0  0  2  0  0  0  0  0  0  0  0  0
   25.0294  -20.9358  -11.1556 N   0  0  0  0  0  0  0  0  0  0  0  0
   23.2903  -21.3989  -12.7854 C   0  0  0  0  0  0  0  0  0  0  0  0
   23.4459  -22.6382  -12.6450 O   0  0  0  0  0  0  0  0  0  0  0  0
   20.5673  -21.7607  -10.8279 N   0  0  0  0  0  0  0  0  0  0  0  0
   19.5108  -21.1646  -11.5713 C   0  0  0  0  0  0  0  0  0  0  0  0
   18.5539  -20.6933  -10.9110 O   0  0  0  0  0  0  0  0  0  0  0  0
   19.6289  -21.1517  -13.0315 C   0  0  0  0  0  0  0  0  0  0  0  0
   20.9057  -21.7651  -13.5448 C   0  0  2  0  0  0  0  0  0  0  0  0
   22.0671  -20.9329  -13.2893 N   0  0  0  0  0  0  0  0  0  0  0  0
   20.8400  -21.9906  -15.0120 C   0  0  0  0  0  0  0  0  0  0  0  0
   21.6267  -21.3147  -15.9333 O   0  0  0  0  0  0  0  0  0  0  0  0
   20.0295  -22.8400  -15.4617 O   0  0  0  0  0  0  0  0  0  0  0  0
  2  1  1  0
  3  2  2  0
  4  3  1  0
  5 11  1  0
  5  4  2  0
  6  7  1  0
  6  5  1  0
  7  8  1  1
  7  9  1  0
  9 10  2  0
 11 12  2  0
 12  2  1  0
 14 13  1  6
 14 15  1  0
 16 14  1  0
 17  9  1  0
 16 17  1  1
 18 16  1  0
 18 19  2  0
 20 21  1  0
 21 23  1  0
 22 21  2  0
 24 23  1  6
 24 26  1  0
 24 25  1  0
 25 18  1  0
 26 27  1  0
 28 26  2  0
M  END
$$$$
