YTN.pdb
     RDKit          3D

 28 28  0  0  1  0  0  0  0  0999 V2000
   19.5025  -14.2466  -22.9881 O   0  0  0  0  0  0  0  0  0  0  0  0
   19.2590  -13.1809  -22.1085 C   0  0  0  0  0  0  0  0  0  0  0  0
   20.0576  -12.0606  -22.0897 C   0  0  0  0  0  0  0  0  0  0  0  0
   19.7941  -11.0112  -21.2032 C   0  0  0  0  0  0  0  0  0  0  0  0
   18.7325  -11.0827  -20.3363 C   0  0  0  0  0  0  0  0  0  0  0  0
   18.4539   -9.9663  -19.3947 C   0  0  0  0  0  0  0  0  0  0  0  0
   19.3330  -10.1859  -18.1813 C   0  0  2  0  0  0  0  0  0  0  0  0
   18.9938  -11.3828  -17.4778 N   0  0  0  0  0  0  0  0  0  0  0  0
   19.2720   -9.0484  -17.2294 C   0  0  0  0  0  0  0  0  0  0  0  0
   18.3684   -8.9552  -16.3497 O   0  0  0  0  0  0  0  0  0  0  0  0
   17.9317  -12.2136  -20.3600 C   0  0  0  0  0  0  0  0  0  0  0  0
   18.1923  -13.2530  -21.2377 C   0  0  0  0  0  0  0  0  0  0  0  0
   21.4376   -8.1734  -14.5007 C   0  0  0  0  0  0  0  0  0  0  0  0
   21.5001   -6.9922  -15.4441 C   0  0  1  0  0  0  0  0  0  0  0  0
   22.6306   -7.0302  -16.2629 O   0  0  0  0  0  0  0  0  0  0  0  0
   20.2216   -6.9119  -16.2905 C   0  0  2  0  0  0  0  0  0  0  0  0
   20.2429   -7.9854  -17.2565 N   0  0  0  0  0  0  0  0  0  0  0  0
   20.2534   -5.5775  -16.9447 C   0  0  0  0  0  0  0  0  0  0  0  0
   20.8451   -5.4923  -18.0503 O   0  0  0  0  0  0  0  0  0  0  0  0
   19.4580   -0.6250  -18.1646 N   0  0  0  0  0  0  0  0  0  0  0  0
   18.2522   -1.1342  -17.6072 C   0  0  0  0  0  0  0  0  0  0  0  0
   17.2412   -0.3953  -17.6822 O   0  0  0  0  0  0  0  0  0  0  0  0
   18.2930   -2.4661  -16.9984 C   0  0  0  0  0  0  0  0  0  0  0  0
   19.6463   -3.1251  -17.0650 C   0  0  2  0  0  0  0  0  0  0  0  0
   19.6696   -4.4199  -16.4095 N   0  0  0  0  0  0  0  0  0  0  0  0
   20.6846   -2.2840  -16.4151 C   0  0  0  0  0  0  0  0  0  0  0  0
   21.4026   -1.2967  -17.0741 O   0  0  0  0  0  0  0  0  0  0  0  0
   20.9398   -2.4644  -15.1973 O   0  0  0  0  0  0  0  0  0  0  0  0
  2  1  1  0
  3  2  2  0
  4  3  1  0
  5 11  1  0
  5  4  2  0
  6  7  1  0
  6  5  1  0
  7  8  1  1
  7  9  1  0
  9 10  2  0
 11 12  2  0
 12  2  1  0
 14 13  1  6
 14 15  1  0
 16 14  1  0
 17  9  1  0
 16 17  1  6
 18 16  1  0
 18 19  2  0
 20 21  1  0
 21 23  1  0
 22 21  2  0
 24 23  1  1
 24 26  1  0
 24 25  1  0
 25 18  1  0
 26 27  1  0
 28 26  2  0
M  END
$$$$
