IYD.pdb
     RDKit          3D

 29 29  0  0  1  0  0  0  0  0999 V2000
    7.3390  -16.1426   17.0612 C   0  0  0  0  0  0  0  0  0  0  0  0
    6.9940  -15.0500   18.0284 C   0  0  0  0  0  0  0  0  0  0  0  0
    7.8604  -15.1072   19.2993 C   0  0  2  0  0  0  0  0  0  0  0  0
    7.8141  -16.4758   19.8883 C   0  0  0  0  0  0  0  0  0  0  0  0
    7.4365  -13.9971   20.2300 C   0  0  2  0  0  0  0  0  0  0  0  0
    7.5956  -12.7258   19.4812 N   0  0  0  0  0  0  0  0  0  0  0  0
    8.1724  -13.9357   21.4962 C   0  0  0  0  0  0  0  0  0  0  0  0
    9.3787  -13.5506   21.4433 O   0  0  0  0  0  0  0  0  0  0  0  0
   10.4066  -15.2193   30.1353 O   0  0  0  0  0  0  0  0  0  0  0  0
    9.7374  -15.0040   28.9276 C   0  0  0  0  0  0  0  0  0  0  0  0
    9.6884  -13.7510   28.3574 C   0  0  0  0  0  0  0  0  0  0  0  0
    9.0320  -13.5243   27.1668 C   0  0  0  0  0  0  0  0  0  0  0  0
    8.3861  -14.5254   26.4714 C   0  0  0  0  0  0  0  0  0  0  0  0
    7.6796  -14.3304   25.1964 C   0  0  0  0  0  0  0  0  0  0  0  0
    8.5607  -14.2692   23.9748 C   0  0  2  0  0  0  0  0  0  0  0  0
    7.6700  -14.2615   22.7768 N   0  0  0  0  0  0  0  0  0  0  0  0
    9.3896  -15.4723   23.8862 C   0  0  0  0  0  0  0  0  0  0  0  0
    8.7897  -16.5686   23.6028 O   0  0  0  0  0  0  0  0  0  0  0  0
    8.4479  -15.7957   27.0697 C   0  0  0  0  0  0  0  0  0  0  0  0
    9.1014  -16.0273   28.2577 C   0  0  0  0  0  0  0  0  0  0  0  0
   10.7768  -15.5912   24.0652 N   0  0  0  0  0  0  0  0  0  0  0  0
   11.4535  -16.8388   23.9203 C   0  0  1  0  0  0  0  0  0  0  0  0
   12.6460  -16.7250   22.9875 C   0  0  0  0  0  0  0  0  0  0  0  0
   13.3227  -18.0058   22.7727 C   0  0  0  0  0  0  0  0  0  0  0  0
   12.7823  -19.0542   22.3418 O   0  0  0  0  0  0  0  0  0  0  0  0
   11.9076  -17.5003   25.1332 C   0  0  0  0  0  0  0  0  0  0  0  0
   12.3935  -18.6771   24.9783 O   0  0  0  0  0  0  0  0  0  0  0  0
   14.6772  -18.0801   23.0667 O   0  0  0  0  0  0  0  0  0  0  0  0
   11.8906  -17.0446   26.4212 O   0  0  0  0  0  0  0  0  0  0  0  0
  1  2  1  0
  2  3  1  0
  3  4  1  1
  5  3  1  0
  5  6  1  6
  7  5  1  0
  8  7  2  0
  9 10  1  0
 10 11  2  0
 11 12  1  0
 13 12  2  0
 13 14  1  0
 15 14  1  1
 15 16  1  0
 16  7  1  0
 17 21  1  0
 17 15  1  0
 18 17  2  0
 19 13  1  0
 20 10  1  0
 20 19  2  0
 22 21  1  0
 22 26  1  0
 22 23  1  6
 23 24  1  0
 24 25  2  0
 26 29  1  0
 27 26  2  0
 28 24  1  0
M  END
$$$$
