IYD.pdb
     RDKit          3D

 29 29  0  0  1  0  0  0  0  0999 V2000
    8.3229  -16.3909   16.0636 C   0  0  0  0  0  0  0  0  0  0  0  0
    7.6493  -15.3310   16.8828 C   0  0  0  0  0  0  0  0  0  0  0  0
    8.2884  -15.1822   18.2752 C   0  0  2  0  0  0  0  0  0  0  0  0
    8.3597  -16.5099   18.9492 C   0  0  0  0  0  0  0  0  0  0  0  0
    7.5450  -14.1161   19.0426 C   0  0  2  0  0  0  0  0  0  0  0  0
    7.7302  -12.8452   18.2991 N   0  0  0  0  0  0  0  0  0  0  0  0
    7.9624  -13.9529   20.4382 C   0  0  0  0  0  0  0  0  0  0  0  0
    9.0679  -13.3684   20.6443 O   0  0  0  0  0  0  0  0  0  0  0  0
    7.8347  -13.1005   29.3802 O   0  0  0  0  0  0  0  0  0  0  0  0
    7.5327  -13.2960   28.0299 C   0  0  0  0  0  0  0  0  0  0  0  0
    7.3647  -14.5634   27.5169 C   0  0  0  0  0  0  0  0  0  0  0  0
    7.0667  -14.7708   26.1873 C   0  0  0  0  0  0  0  0  0  0  0  0
    6.9174  -13.7353   25.2882 C   0  0  0  0  0  0  0  0  0  0  0  0
    6.5940  -13.9097   23.8643 C   0  0  0  0  0  0  0  0  0  0  0  0
    7.7781  -14.1244   22.9565 C   0  0  2  0  0  0  0  0  0  0  0  0
    7.2524  -14.3813   21.5832 N   0  0  0  0  0  0  0  0  0  0  0  0
    8.5192  -15.3193   23.3633 C   0  0  0  0  0  0  0  0  0  0  0  0
    7.9559  -16.4502   23.1492 O   0  0  0  0  0  0  0  0  0  0  0  0
    7.0928  -12.4508   25.8314 C   0  0  0  0  0  0  0  0  0  0  0  0
    7.3903  -12.2382   27.1573 C   0  0  0  0  0  0  0  0  0  0  0  0
    9.7874  -15.3985   23.9598 N   0  0  0  0  0  0  0  0  0  0  0  0
   10.3739  -16.6464   24.3261 C   0  0  1  0  0  0  0  0  0  0  0  0
   11.8712  -16.6577   24.0749 C   0  0  0  0  0  0  0  0  0  0  0  0
   12.2073  -16.7018   22.6503 C   0  0  0  0  0  0  0  0  0  0  0  0
   11.3853  -16.8265   21.7093 O   0  0  0  0  0  0  0  0  0  0  0  0
   10.1540  -17.1179   25.6842 C   0  0  0  0  0  0  0  0  0  0  0  0
    9.5597  -16.2970   26.4702 O   0  0  0  0  0  0  0  0  0  0  0  0
   13.5457  -16.5979   22.2970 O   0  0  0  0  0  0  0  0  0  0  0  0
   10.4916  -18.3170   26.2452 O   0  0  0  0  0  0  0  0  0  0  0  0
  1  2  1  0
  2  3  1  0
  3  4  1  1
  5  3  1  0
  5  6  1  6
  7  5  1  0
  8  7  2  0
  9 10  1  0
 10 11  2  0
 11 12  1  0
 13 12  2  0
 13 14  1  0
 15 14  1  1
 15 16  1  0
 16  7  1  0
 17 21  1  0
 17 15  1  0
 18 17  2  0
 19 13  1  0
 20 10  1  0
 20 19  2  0
 22 21  1  0
 22 26  1  0
 22 23  1  1
 23 24  1  0
 24 25  2  0
 26 29  1  0
 27 26  2  0
 28 24  1  0
M  END
$$$$
