IYD.pdb
     RDKit          3D

 29 29  0  0  1  0  0  0  0  0999 V2000
    8.7013  -16.9172   15.9969 C   0  0  0  0  0  0  0  0  0  0  0  0
    8.0881  -15.6997   16.6213 C   0  0  0  0  0  0  0  0  0  0  0  0
    8.5563  -15.4958   18.0733 C   0  0  2  0  0  0  0  0  0  0  0  0
    8.4022  -16.7633   18.8427 C   0  0  0  0  0  0  0  0  0  0  0  0
    7.8364  -14.3040   18.6560 C   0  0  2  0  0  0  0  0  0  0  0  0
    8.1611  -13.1424   17.7913 N   0  0  0  0  0  0  0  0  0  0  0  0
    8.1648  -14.0043   20.0528 C   0  0  0  0  0  0  0  0  0  0  0  0
    9.3150  -13.5249   20.2840 O   0  0  0  0  0  0  0  0  0  0  0  0
    7.5352  -12.7665   28.9579 O   0  0  0  0  0  0  0  0  0  0  0  0
    7.2907  -12.9994   27.6018 C   0  0  0  0  0  0  0  0  0  0  0  0
    7.3615  -11.9761   26.6824 C   0  0  0  0  0  0  0  0  0  0  0  0
    7.1228  -12.1916   25.3421 C   0  0  0  0  0  0  0  0  0  0  0  0
    6.8004  -13.4330   24.8343 C   0  0  0  0  0  0  0  0  0  0  0  0
    6.5441  -13.7096   23.4128 C   0  0  0  0  0  0  0  0  0  0  0  0
    7.7727  -13.8175   22.5461 C   0  0  2  0  0  0  0  0  0  0  0  0
    7.3238  -14.1943   21.1731 N   0  0  0  0  0  0  0  0  0  0  0  0
    8.6389  -14.8954   23.0258 C   0  0  0  0  0  0  0  0  0  0  0  0
    9.3063  -14.6683   24.0959 O   0  0  0  0  0  0  0  0  0  0  0  0
    6.7332  -14.4629   25.7884 C   0  0  0  0  0  0  0  0  0  0  0  0
    6.9703  -14.2534   27.1269 C   0  0  0  0  0  0  0  0  0  0  0  0
    8.8374  -16.1686   22.4690 N   0  0  0  0  0  0  0  0  0  0  0  0
    9.6953  -17.1336   23.0755 C   0  0  1  0  0  0  0  0  0  0  0  0
    9.0986  -18.5285   23.0195 C   0  0  0  0  0  0  0  0  0  0  0  0
    8.2475  -18.8284   24.1728 C   0  0  0  0  0  0  0  0  0  0  0  0
    8.0526  -18.0692   25.1539 O   0  0  0  0  0  0  0  0  0  0  0  0
   11.0607  -17.2211   22.5825 C   0  0  0  0  0  0  0  0  0  0  0  0
   11.2220  -16.9591   21.3374 O   0  0  0  0  0  0  0  0  0  0  0  0
    7.5949  -20.0533   24.1953 O   0  0  0  0  0  0  0  0  0  0  0  0
   12.2024  -17.5440   23.2600 O   0  0  0  0  0  0  0  0  0  0  0  0
  1  2  1  0
  2  3  1  0
  3  4  1  1
  5  3  1  0
  5  6  1  6
  7  5  1  0
  8  7  2  0
  9 10  1  0
 10 11  2  0
 11 12  1  0
 13 12  2  0
 13 14  1  0
 15 14  1  1
 15 16  1  0
 16  7  1  0
 17 21  1  0
 17 15  1  0
 18 17  2  0
 19 13  1  0
 20 10  1  0
 20 19  2  0
 22 21  1  0
 22 26  1  0
 22 23  1  6
 23 24  1  0
 24 25  2  0
 26 29  1  0
 27 26  2  0
 28 24  1  0
M  END
$$$$
