IYD.pdb
     RDKit          3D

 29 29  0  0  1  0  0  0  0  0999 V2000
    9.0969  -20.4350   17.7693 C   0  0  0  0  0  0  0  0  0  0  0  0
    8.7135  -18.9854   17.7630 C   0  0  0  0  0  0  0  0  0  0  0  0
    9.0512  -18.2916   19.0948 C   0  0  2  0  0  0  0  0  0  0  0  0
    8.5290  -19.0953   20.2365 C   0  0  0  0  0  0  0  0  0  0  0  0
    8.5604  -16.8653   19.0409 C   0  0  2  0  0  0  0  0  0  0  0  0
    9.2569  -16.2151   17.9033 N   0  0  0  0  0  0  0  0  0  0  0  0
    8.7656  -16.0930   20.2698 C   0  0  0  0  0  0  0  0  0  0  0  0
    9.9465  -15.7037   20.5151 O   0  0  0  0  0  0  0  0  0  0  0  0
    7.2568  -12.1422   28.2350 O   0  0  0  0  0  0  0  0  0  0  0  0
    7.1571  -12.6950   26.9554 C   0  0  0  0  0  0  0  0  0  0  0  0
    6.7956  -14.0123   26.7780 C   0  0  0  0  0  0  0  0  0  0  0  0
    6.6935  -14.5704   25.5219 C   0  0  0  0  0  0  0  0  0  0  0  0
    6.9431  -13.8565   24.3683 C   0  0  0  0  0  0  0  0  0  0  0  0
    6.8404  -14.4088   23.0092 C   0  0  0  0  0  0  0  0  0  0  0  0
    8.1231  -14.9581   22.4388 C   0  0  2  0  0  0  0  0  0  0  0  0
    7.7747  -15.7344   21.2122 N   0  0  0  0  0  0  0  0  0  0  0  0
    8.7369  -15.8954   23.3806 C   0  0  0  0  0  0  0  0  0  0  0  0
    8.0855  -16.9691   23.6356 O   0  0  0  0  0  0  0  0  0  0  0  0
    7.3103  -12.5149   24.5710 C   0  0  0  0  0  0  0  0  0  0  0  0
    7.4139  -11.9531   25.8222 C   0  0  0  0  0  0  0  0  0  0  0  0
    9.9658  -15.7812   24.0494 N   0  0  0  0  0  0  0  0  0  0  0  0
   10.4048  -16.7545   24.9955 C   0  0  1  0  0  0  0  0  0  0  0  0
   11.9171  -16.8893   25.0009 C   0  0  0  0  0  0  0  0  0  0  0  0
   12.4884  -16.9259   23.6531 C   0  0  0  0  0  0  0  0  0  0  0  0
   13.0791  -15.9750   23.0840 O   0  0  0  0  0  0  0  0  0  0  0  0
    9.9747  -16.5906   26.3751 C   0  0  0  0  0  0  0  0  0  0  0  0
   10.3260  -17.5224   27.1834 O   0  0  0  0  0  0  0  0  0  0  0  0
   12.3737  -18.1068   22.9327 O   0  0  0  0  0  0  0  0  0  0  0  0
    9.2460  -15.5802   26.9361 O   0  0  0  0  0  0  0  0  0  0  0  0
  1  2  1  0
  2  3  1  0
  3  4  1  1
  5  3  1  0
  5  6  1  6
  7  5  1  0
  8  7  2  0
  9 10  1  0
 10 11  2  0
 11 12  1  0
 13 12  2  0
 13 14  1  0
 15 14  1  1
 15 16  1  0
 16  7  1  0
 17 21  1  0
 17 15  1  0
 18 17  2  0
 19 13  1  0
 20 10  1  0
 20 19  2  0
 22 21  1  0
 22 26  1  0
 22 23  1  1
 23 24  1  0
 24 25  2  0
 26 29  1  0
 27 26  2  0
 28 24  1  0
M  END
$$$$
