IYD.pdb
     RDKit          3D

 29 29  0  0  1  0  0  0  0  0999 V2000
    7.4244  -12.3897   18.0318 C   0  0  0  0  0  0  0  0  0  0  0  0
    7.5698  -13.6527   18.8268 C   0  0  0  0  0  0  0  0  0  0  0  0
    8.8760  -14.3971   18.4970 C   0  0  2  0  0  0  0  0  0  0  0  0
    8.8296  -14.9163   17.1004 C   0  0  0  0  0  0  0  0  0  0  0  0
    9.1245  -15.4413   19.5581 C   0  0  2  0  0  0  0  0  0  0  0  0
    8.0461  -16.4521   19.4257 N   0  0  0  0  0  0  0  0  0  0  0  0
    9.1745  -14.9295   20.9308 C   0  0  0  0  0  0  0  0  0  0  0  0
    8.9830  -13.6868   21.0896 O   0  0  0  0  0  0  0  0  0  0  0  0
    6.3245  -12.2677   28.5479 O   0  0  0  0  0  0  0  0  0  0  0  0
    6.6876  -12.8307   27.3215 C   0  0  0  0  0  0  0  0  0  0  0  0
    7.5593  -12.1831   26.4740 C   0  0  0  0  0  0  0  0  0  0  0  0
    7.9259  -12.7267   25.2617 C   0  0  0  0  0  0  0  0  0  0  0  0
    7.4508  -13.9433   24.8180 C   0  0  0  0  0  0  0  0  0  0  0  0
    7.8194  -14.5633   23.5364 C   0  0  0  0  0  0  0  0  0  0  0  0
    9.2311  -15.0859   23.4562 C   0  0  2  0  0  0  0  0  0  0  0  0
    9.4133  -15.6855   22.1013 N   0  0  0  0  0  0  0  0  0  0  0  0
    9.4311  -16.1589   24.4314 C   0  0  0  0  0  0  0  0  0  0  0  0
    8.6599  -17.1778   24.3367 O   0  0  0  0  0  0  0  0  0  0  0  0
    6.5631  -14.5875   25.6969 C   0  0  0  0  0  0  0  0  0  0  0  0
    6.1938  -14.0495   26.9077 C   0  0  0  0  0  0  0  0  0  0  0  0
   10.3729  -16.2296   25.4699 N   0  0  0  0  0  0  0  0  0  0  0  0
   10.4389  -17.3460   26.3557 C   0  0  1  0  0  0  0  0  0  0  0  0
   11.8689  -17.8101   26.5675 C   0  0  0  0  0  0  0  0  0  0  0  0
   12.5590  -18.1134   25.3120 C   0  0  0  0  0  0  0  0  0  0  0  0
   12.0767  -17.9734   24.1611 O   0  0  0  0  0  0  0  0  0  0  0  0
    9.8273  -17.1989   27.6670 C   0  0  0  0  0  0  0  0  0  0  0  0
    9.8350  -18.2466   28.4067 O   0  0  0  0  0  0  0  0  0  0  0  0
   13.8577  -18.5975   25.3872 O   0  0  0  0  0  0  0  0  0  0  0  0
    9.2428  -16.0980   28.2265 O   0  0  0  0  0  0  0  0  0  0  0  0
  1  2  1  0
  2  3  1  0
  3  4  1  6
  5  3  1  0
  5  6  1  1
  7  5  1  0
  8  7  2  0
  9 10  1  0
 10 11  2  0
 11 12  1  0
 13 12  2  0
 13 14  1  0
 15 14  1  6
 15 16  1  0
 16  7  1  0
 17 21  1  0
 17 15  1  0
 18 17  2  0
 19 13  1  0
 20 10  1  0
 20 19  2  0
 22 21  1  0
 22 26  1  0
 22 23  1  1
 23 24  1  0
 24 25  2  0
 26 29  1  0
 27 26  2  0
 28 24  1  0
M  END
$$$$
