YGM.pdb
     RDKit          3D

 25 25  0  0  1  0  0  0  0  0999 V2000
   13.8375  -21.4948   32.4846 O   0  0  0  0  0  0  0  0  0  0  0  0
   13.2594  -21.3584   31.2282 C   0  0  0  0  0  0  0  0  0  0  0  0
   12.4195  -22.3321   30.7079 C   0  0  0  0  0  0  0  0  0  0  0  0
   11.8614  -22.1691   29.4599 C   0  0  0  0  0  0  0  0  0  0  0  0
   12.0936  -21.0568   28.6649 C   0  0  0  0  0  0  0  0  0  0  0  0
   11.4773  -20.9180   27.3405 C   0  0  0  0  0  0  0  0  0  0  0  0
   10.6103  -19.6588   27.2150 C   0  0  2  0  0  0  0  0  0  0  0  0
    9.4852  -19.8238   28.0895 N   0  0  0  0  0  0  0  0  0  0  0  0
   10.1363  -19.6044   25.8134 C   0  0  0  0  0  0  0  0  0  0  0  0
   10.9134  -19.5330   24.8288 O   0  0  0  0  0  0  0  0  0  0  0  0
   12.9346  -20.0865   29.1915 C   0  0  0  0  0  0  0  0  0  0  0  0
   13.4923  -20.2517   30.4408 C   0  0  0  0  0  0  0  0  0  0  0  0
    8.7460  -19.6329   25.5375 N   0  0  0  0  0  0  0  0  0  0  0  0
    8.1847  -19.5871   24.2276 C   0  0  0  0  0  0  0  0  0  0  0  0
    8.0058  -18.2019   23.7218 C   0  0  0  0  0  0  0  0  0  0  0  0
    7.5634  -18.0617   22.5563 O   0  0  0  0  0  0  0  0  0  0  0  0
    6.7940  -12.3557   27.3662 C   0  0  0  0  0  0  0  0  0  0  0  0
    6.5666  -12.2029   25.6120 S   0  0  0  0  0  0  0  0  0  0  0  0
    7.4548  -13.3580   24.5792 C   0  0  0  0  0  0  0  0  0  0  0  0
    7.4208  -14.7831   24.9684 C   0  0  0  0  0  0  0  0  0  0  0  0
    8.2141  -15.6791   24.0670 C   0  0  2  0  0  0  0  0  0  0  0  0
    8.3040  -17.0518   24.4752 N   0  0  0  0  0  0  0  0  0  0  0  0
    9.4937  -15.1098   23.6322 C   0  0  0  0  0  0  0  0  0  0  0  0
    9.5468  -14.1822   22.6042 O   0  0  0  0  0  0  0  0  0  0  0  0
   10.5859  -15.4379   24.1704 O   0  0  0  0  0  0  0  0  0  0  0  0
  1  2  1  0
  2 12  2  0
  2  3  1  0
  3  4  2  0
  4  5  1  0
  5  6  1  0
  6  7  1  0
  7  8  1  1
  7  9  1  0
  9 10  2  0
 11  5  2  0
 12 11  1  0
 13  9  1  0
 13 14  1  0
 15 14  1  0
 15 22  1  0
 16 15  2  0
 17 18  1  0
 18 19  1  0
 20 19  1  0
 21 22  1  0
 21 20  1  1
 23 21  1  0
 24 23  1  0
 25 23  2  0
M  END
$$$$
