YGM.pdb
     RDKit          3D

 25 25  0  0  1  0  0  0  0  0999 V2000
    7.9615  -11.7951   19.3600 O   0  0  0  0  0  0  0  0  0  0  0  0
    7.9478  -13.1377   19.7186 C   0  0  0  0  0  0  0  0  0  0  0  0
    9.1207  -13.8707   19.8256 C   0  0  0  0  0  0  0  0  0  0  0  0
    9.0756  -15.1995   20.1829 C   0  0  0  0  0  0  0  0  0  0  0  0
    7.8933  -15.8728   20.4512 C   0  0  0  0  0  0  0  0  0  0  0  0
    7.8866  -17.2897   20.8324 C   0  0  0  0  0  0  0  0  0  0  0  0
    6.6334  -17.6891   21.6218 C   0  0  2  0  0  0  0  0  0  0  0  0
    5.9459  -16.4808   21.9752 N   0  0  0  0  0  0  0  0  0  0  0  0
    7.1016  -18.3634   22.8539 C   0  0  0  0  0  0  0  0  0  0  0  0
    7.7237  -19.4550   22.8444 O   0  0  0  0  0  0  0  0  0  0  0  0
    6.7237  -15.1336   20.3424 C   0  0  0  0  0  0  0  0  0  0  0  0
    6.7710  -13.8037   19.9845 C   0  0  0  0  0  0  0  0  0  0  0  0
    6.8515  -17.7743   24.1189 N   0  0  0  0  0  0  0  0  0  0  0  0
    7.4234  -18.2266   25.3442 C   0  0  0  0  0  0  0  0  0  0  0  0
    8.6959  -17.5374   25.6791 C   0  0  0  0  0  0  0  0  0  0  0  0
    9.5695  -17.4625   24.7819 O   0  0  0  0  0  0  0  0  0  0  0  0
    7.1532  -11.3149   25.4384 C   0  0  0  0  0  0  0  0  0  0  0  0
    7.5034  -11.9033   27.0764 S   0  0  0  0  0  0  0  0  0  0  0  0
    8.7244  -13.1981   27.2253 C   0  0  0  0  0  0  0  0  0  0  0  0
    8.2659  -14.5899   27.0353 C   0  0  0  0  0  0  0  0  0  0  0  0
    9.3382  -15.6168   27.2366 C   0  0  2  0  0  0  0  0  0  0  0  0
    8.9683  -16.9705   26.9376 N   0  0  0  0  0  0  0  0  0  0  0  0
   10.0759  -15.4730   28.4958 C   0  0  0  0  0  0  0  0  0  0  0  0
    9.8750  -16.3581   29.5428 O   0  0  0  0  0  0  0  0  0  0  0  0
   10.9140  -14.5480   28.6749 O   0  0  0  0  0  0  0  0  0  0  0  0
  1  2  1  0
  2 12  2  0
  2  3  1  0
  3  4  2  0
  4  5  1  0
  5  6  1  0
  6  7  1  0
  7  8  1  1
  7  9  1  0
  9 10  2  0
 11  5  2  0
 12 11  1  0
 13  9  1  0
 13 14  1  0
 15 14  1  0
 15 22  1  0
 16 15  2  0
 17 18  1  0
 18 19  1  0
 20 19  1  0
 21 22  1  0
 21 20  1  1
 23 21  1  0
 24 23  1  0
 25 23  2  0
M  END
$$$$
