YGM.pdb
     RDKit          3D

 25 25  0  0  1  0  0  0  0  0999 V2000
    7.1187  -26.1281   27.0719 O   0  0  0  0  0  0  0  0  0  0  0  0
    6.7992  -24.8663   26.5849 C   0  0  0  0  0  0  0  0  0  0  0  0
    7.7125  -23.8229   26.6222 C   0  0  0  0  0  0  0  0  0  0  0  0
    7.3671  -22.5836   26.1321 C   0  0  0  0  0  0  0  0  0  0  0  0
    6.1235  -22.3039   25.5860 C   0  0  0  0  0  0  0  0  0  0  0  0
    5.7939  -20.9700   25.0708 C   0  0  0  0  0  0  0  0  0  0  0  0
    5.8824  -20.8824   23.5419 C   0  0  2  0  0  0  0  0  0  0  0  0
    7.2005  -21.3038   23.1637 N   0  0  0  0  0  0  0  0  0  0  0  0
    5.7036  -19.4568   23.1846 C   0  0  0  0  0  0  0  0  0  0  0  0
    4.6620  -18.8077   23.4536 O   0  0  0  0  0  0  0  0  0  0  0  0
    5.2145  -23.3521   25.5517 C   0  0  0  0  0  0  0  0  0  0  0  0
    5.5622  -24.5918   26.0428 C   0  0  0  0  0  0  0  0  0  0  0  0
    6.7386  -18.7643   22.5070 N   0  0  0  0  0  0  0  0  0  0  0  0
    6.7189  -17.3675   22.2214 C   0  0  0  0  0  0  0  0  0  0  0  0
    7.8100  -16.6218   22.8996 C   0  0  0  0  0  0  0  0  0  0  0  0
    8.9557  -17.1326   22.8902 O   0  0  0  0  0  0  0  0  0  0  0  0
    5.0229  -11.8170   27.3200 C   0  0  0  0  0  0  0  0  0  0  0  0
    6.5558  -11.8050   26.4244 S   0  0  0  0  0  0  0  0  0  0  0  0
    6.8841  -13.2064   25.3671 C   0  0  0  0  0  0  0  0  0  0  0  0
    8.1559  -13.2070   24.6146 C   0  0  0  0  0  0  0  0  0  0  0  0
    8.6129  -14.5701   24.1930 C   0  0  2  0  0  0  0  0  0  0  0  0
    7.6258  -15.3853   23.5449 N   0  0  0  0  0  0  0  0  0  0  0  0
    9.3875  -15.2839   25.2133 C   0  0  0  0  0  0  0  0  0  0  0  0
   10.6789  -14.8931   25.5285 O   0  0  0  0  0  0  0  0  0  0  0  0
    8.9148  -16.2719   25.8383 O   0  0  0  0  0  0  0  0  0  0  0  0
  1  2  1  0
  2 12  2  0
  2  3  1  0
  3  4  2  0
  4  5  1  0
  5  6  1  0
  6  7  1  0
  7  8  1  1
  7  9  1  0
  9 10  2  0
 11  5  2  0
 12 11  1  0
 13  9  1  0
 13 14  1  0
 15 14  1  0
 15 22  1  0
 16 15  2  0
 17 18  1  0
 18 19  1  0
 20 19  1  0
 21 22  1  0
 21 20  1  1
 23 21  1  0
 24 23  1  0
 25 23  2  0
M  END
$$$$
