YGM.pdb
     RDKit          3D

 25 25  0  0  1  0  0  0  0  0999 V2000
   11.8240  -20.8770   30.9652 O   0  0  0  0  0  0  0  0  0  0  0  0
   11.0266  -20.3245   29.9701 C   0  0  0  0  0  0  0  0  0  0  0  0
   10.4271  -19.0835   30.1281 C   0  0  0  0  0  0  0  0  0  0  0  0
    9.6423  -18.5618   29.1245 C   0  0  0  0  0  0  0  0  0  0  0  0
    9.4059  -19.2201   27.9270 C   0  0  0  0  0  0  0  0  0  0  0  0
    8.5653  -18.6293   26.8794 C   0  0  0  0  0  0  0  0  0  0  0  0
    7.0937  -19.0481   26.9886 C   0  0  2  0  0  0  0  0  0  0  0  0
    7.0387  -20.2052   27.8347 N   0  0  0  0  0  0  0  0  0  0  0  0
    6.6526  -19.4184   25.6246 C   0  0  0  0  0  0  0  0  0  0  0  0
    5.5582  -19.9888   25.3889 O   0  0  0  0  0  0  0  0  0  0  0  0
   10.0087  -20.4610   27.7754 C   0  0  0  0  0  0  0  0  0  0  0  0
   10.7938  -20.9815   28.7812 C   0  0  0  0  0  0  0  0  0  0  0  0
    7.4822  -19.1288   24.5121 N   0  0  0  0  0  0  0  0  0  0  0  0
    7.0036  -18.6715   23.2492 C   0  0  0  0  0  0  0  0  0  0  0  0
    7.1753  -17.2082   23.0597 C   0  0  0  0  0  0  0  0  0  0  0  0
    6.7953  -16.7151   21.9706 O   0  0  0  0  0  0  0  0  0  0  0  0
    5.3471  -11.9297   26.3634 C   0  0  0  0  0  0  0  0  0  0  0  0
    6.9431  -12.7063   26.3235 S   0  0  0  0  0  0  0  0  0  0  0  0
    7.3982  -13.5389   24.8105 C   0  0  0  0  0  0  0  0  0  0  0  0
    8.7197  -14.1989   24.7688 C   0  0  0  0  0  0  0  0  0  0  0  0
    8.7787  -15.3857   23.8562 C   0  0  2  0  0  0  0  0  0  0  0  0
    7.7363  -16.3566   24.0288 N   0  0  0  0  0  0  0  0  0  0  0  0
   10.1153  -15.9747   23.7257 C   0  0  0  0  0  0  0  0  0  0  0  0
   11.1832  -15.2204   23.2667 O   0  0  0  0  0  0  0  0  0  0  0  0
   10.3446  -17.1785   24.0227 O   0  0  0  0  0  0  0  0  0  0  0  0
  1  2  1  0
  2 12  2  0
  2  3  1  0
  3  4  2  0
  4  5  1  0
  5  6  1  0
  6  7  1  0
  7  8  1  1
  7  9  1  0
  9 10  2  0
 11  5  2  0
 12 11  1  0
 13  9  1  0
 13 14  1  0
 15 14  1  0
 15 22  1  0
 16 15  2  0
 17 18  1  0
 18 19  1  0
 20 19  1  0
 21 22  1  0
 21 20  1  1
 23 21  1  0
 24 23  1  0
 25 23  2  0
M  END
$$$$
