YGM.pdb
     RDKit          3D

 25 25  0  0  1  0  0  0  0  0999 V2000
    7.0796  -13.1373   14.4917 O   0  0  0  0  0  0  0  0  0  0  0  0
    7.3538  -13.9081   15.6151 C   0  0  0  0  0  0  0  0  0  0  0  0
    7.8823  -13.3459   16.7678 C   0  0  0  0  0  0  0  0  0  0  0  0
    8.1435  -14.1351   17.8653 C   0  0  0  0  0  0  0  0  0  0  0  0
    7.9036  -15.5007   17.8915 C   0  0  0  0  0  0  0  0  0  0  0  0
    8.1926  -16.3080   19.0822 C   0  0  0  0  0  0  0  0  0  0  0  0
    8.6659  -15.4655   20.2735 C   0  0  2  0  0  0  0  0  0  0  0  0
    9.8777  -14.8069   19.8786 N   0  0  0  0  0  0  0  0  0  0  0  0
    8.9596  -16.4102   21.3750 C   0  0  0  0  0  0  0  0  0  0  0  0
    8.0731  -17.0892   21.9510 O   0  0  0  0  0  0  0  0  0  0  0  0
    7.3747  -16.0568   16.7351 C   0  0  0  0  0  0  0  0  0  0  0  0
    7.1141  -15.2651   15.6377 C   0  0  0  0  0  0  0  0  0  0  0  0
   10.2941  -16.5785   21.8229 N   0  0  0  0  0  0  0  0  0  0  0  0
   10.6754  -17.3987   22.9251 C   0  0  0  0  0  0  0  0  0  0  0  0
   10.1419  -16.9106   24.2227 C   0  0  0  0  0  0  0  0  0  0  0  0
   10.6260  -17.4007   25.2711 O   0  0  0  0  0  0  0  0  0  0  0  0
    6.0550  -10.9073   27.7242 C   0  0  0  0  0  0  0  0  0  0  0  0
    6.3052  -11.9399   26.3019 S   0  0  0  0  0  0  0  0  0  0  0  0
    7.4649  -13.2869   26.4761 C   0  0  0  0  0  0  0  0  0  0  0  0
    7.8312  -14.0310   25.2531 C   0  0  0  0  0  0  0  0  0  0  0  0
    8.7494  -15.1893   25.4976 C   0  0  2  0  0  0  0  0  0  0  0  0
    9.1323  -15.9371   24.3344 N   0  0  0  0  0  0  0  0  0  0  0  0
    8.3635  -16.0294   26.6360 C   0  0  0  0  0  0  0  0  0  0  0  0
    8.8393  -15.7633   27.9099 O   0  0  0  0  0  0  0  0  0  0  0  0
    7.5912  -17.0173   26.5032 O   0  0  0  0  0  0  0  0  0  0  0  0
  1  2  1  0
  2 12  2  0
  2  3  1  0
  3  4  2  0
  4  5  1  0
  5  6  1  0
  6  7  1  0
  7  8  1  6
  7  9  1  0
  9 10  2  0
 11  5  2  0
 12 11  1  0
 13  9  1  0
 13 14  1  0
 15 14  1  0
 15 22  1  0
 16 15  2  0
 17 18  1  0
 18 19  1  0
 20 19  1  0
 21 22  1  0
 21 20  1  6
 23 21  1  0
 24 23  1  0
 25 23  2  0
M  END
$$$$
