YGM.pdb
     RDKit          3D

 25 25  0  0  1  0  0  0  0  0999 V2000
    8.0745  -13.6768   14.1226 O   0  0  0  0  0  0  0  0  0  0  0  0
    8.0691  -13.8147   15.5055 C   0  0  0  0  0  0  0  0  0  0  0  0
    6.8839  -13.8467   16.2256 C   0  0  0  0  0  0  0  0  0  0  0  0
    6.9102  -13.9844   17.5952 C   0  0  0  0  0  0  0  0  0  0  0  0
    8.0850  -14.0967   18.3234 C   0  0  0  0  0  0  0  0  0  0  0  0
    8.0718  -14.2452   19.7832 C   0  0  0  0  0  0  0  0  0  0  0  0
    8.7459  -15.5390   20.2573 C   0  0  2  0  0  0  0  0  0  0  0  0
    8.0908  -16.6309   19.5967 N   0  0  0  0  0  0  0  0  0  0  0  0
    8.5071  -15.6356   21.7153 C   0  0  0  0  0  0  0  0  0  0  0  0
    8.9725  -14.8125   22.5426 O   0  0  0  0  0  0  0  0  0  0  0  0
    9.2671  -14.0640   17.5970 C   0  0  0  0  0  0  0  0  0  0  0  0
    9.2385  -13.9261   16.2261 C   0  0  0  0  0  0  0  0  0  0  0  0
    7.7201  -16.6954   22.2324 N   0  0  0  0  0  0  0  0  0  0  0  0
    7.4703  -16.9090   23.6199 C   0  0  0  0  0  0  0  0  0  0  0  0
    8.4597  -16.2329   24.4977 C   0  0  0  0  0  0  0  0  0  0  0  0
    9.5406  -15.8643   23.9785 O   0  0  0  0  0  0  0  0  0  0  0  0
    6.2950  -10.6759   26.0812 C   0  0  0  0  0  0  0  0  0  0  0  0
    7.1729  -11.7352   27.2034 S   0  0  0  0  0  0  0  0  0  0  0  0
    7.8935  -13.2182   26.5170 C   0  0  0  0  0  0  0  0  0  0  0  0
    8.6339  -14.1039   27.4395 C   0  0  0  0  0  0  0  0  0  0  0  0
    9.1397  -15.3614   26.8010 C   0  0  2  0  0  0  0  0  0  0  0  0
    8.2485  -15.9877   25.8669 N   0  0  0  0  0  0  0  0  0  0  0  0
    9.7631  -16.3003   27.7392 C   0  0  0  0  0  0  0  0  0  0  0  0
   10.8742  -15.9324   28.4808 O   0  0  0  0  0  0  0  0  0  0  0  0
    9.3180  -17.4681   27.9073 O   0  0  0  0  0  0  0  0  0  0  0  0
  1  2  1  0
  2 12  2  0
  2  3  1  0
  3  4  2  0
  4  5  1  0
  5  6  1  0
  6  7  1  0
  7  8  1  6
  7  9  1  0
  9 10  2  0
 11  5  2  0
 12 11  1  0
 13  9  1  0
 13 14  1  0
 15 14  1  0
 15 22  1  0
 16 15  2  0
 17 18  1  0
 18 19  1  0
 20 19  1  0
 21 22  1  0
 21 20  1  1
 23 21  1  0
 24 23  1  0
 25 23  2  0
M  END
$$$$
