YGM.pdb
     RDKit          3D

 25 25  0  0  1  0  0  0  0  0999 V2000
    0.1521  -21.8280   21.2943 O   0  0  0  0  0  0  0  0  0  0  0  0
    1.0393  -20.7589   21.3325 C   0  0  0  0  0  0  0  0  0  0  0  0
    1.9179  -20.5093   20.2884 C   0  0  0  0  0  0  0  0  0  0  0  0
    2.7854  -19.4423   20.3547 C   0  0  0  0  0  0  0  0  0  0  0  0
    2.8377  -18.5736   21.4344 C   0  0  0  0  0  0  0  0  0  0  0  0
    3.7749  -17.4450   21.4666 C   0  0  0  0  0  0  0  0  0  0  0  0
    5.2118  -17.8527   21.1168 C   0  0  2  0  0  0  0  0  0  0  0  0
    5.6783  -18.7184   22.1612 N   0  0  0  0  0  0  0  0  0  0  0  0
    6.0191  -16.6117   21.1135 C   0  0  0  0  0  0  0  0  0  0  0  0
    5.7497  -15.6200   20.3905 O   0  0  0  0  0  0  0  0  0  0  0  0
    1.9561  -18.8290   22.4754 C   0  0  0  0  0  0  0  0  0  0  0  0
    1.0886  -19.8976   22.4071 C   0  0  0  0  0  0  0  0  0  0  0  0
    7.1554  -16.5071   21.9549 N   0  0  0  0  0  0  0  0  0  0  0  0
    7.9548  -15.3337   22.0849 C   0  0  0  0  0  0  0  0  0  0  0  0
    8.9260  -15.4154   23.2060 C   0  0  0  0  0  0  0  0  0  0  0  0
   10.0019  -16.0264   22.9991 O   0  0  0  0  0  0  0  0  0  0  0  0
    6.0584  -11.4196   26.3395 C   0  0  0  0  0  0  0  0  0  0  0  0
    6.6812  -13.0174   25.8802 S   0  0  0  0  0  0  0  0  0  0  0  0
    7.5641  -13.9311   27.1353 C   0  0  0  0  0  0  0  0  0  0  0  0
    7.9809  -15.3099   26.8056 C   0  0  0  0  0  0  0  0  0  0  0  0
    9.0487  -15.3887   25.7577 C   0  0  2  0  0  0  0  0  0  0  0  0
    8.7030  -14.8485   24.4741 N   0  0  0  0  0  0  0  0  0  0  0  0
    9.7227  -16.6892   25.6863 C   0  0  0  0  0  0  0  0  0  0  0  0
    9.2119  -17.7130   24.9046 O   0  0  0  0  0  0  0  0  0  0  0  0
   10.7829  -16.9260   26.3265 O   0  0  0  0  0  0  0  0  0  0  0  0
  1  2  1  0
  2 12  2  0
  2  3  1  0
  3  4  2  0
  4  5  1  0
  5  6  1  0
  6  7  1  0
  7  8  1  1
  7  9  1  0
  9 10  2  0
 11  5  2  0
 12 11  1  0
 13  9  1  0
 13 14  1  0
 15 14  1  0
 15 22  1  0
 16 15  2  0
 17 18  1  0
 18 19  1  0
 20 19  1  0
 21 22  1  0
 21 20  1  1
 23 21  1  0
 24 23  1  0
 25 23  2  0
M  END
$$$$
