RQD.pdb
     RDKit          3D

 29 28  0  0  1  0  0  0  0  0999 V2000
   29.9201  -21.9349  -11.6429 N   0  0  0  0  0  0  0  0  0  0  0  0
   29.7888  -21.8405  -10.2253 C   0  0  0  0  0  0  0  0  0  0  0  0
   30.7584  -22.2125   -9.4751 N   0  0  0  0  0  0  0  0  0  0  0  0
   28.6207  -21.3470   -9.6010 N   0  0  0  0  0  0  0  0  0  0  0  0
   27.2878  -21.7132  -10.0168 C   0  0  0  0  0  0  0  0  0  0  0  0
   26.9780  -20.9515  -11.2941 C   0  0  0  0  0  0  0  0  0  0  0  0
   25.7062  -20.1885  -11.2154 C   0  0  0  0  0  0  0  0  0  0  0  0
   24.5388  -20.9704  -11.7423 C   0  0  2  0  0  0  0  0  0  0  0  0
   25.0935  -22.0856  -12.5438 N   0  0  0  0  0  0  0  0  0  0  0  0
   23.7976  -20.1380  -12.7165 C   0  0  0  0  0  0  0  0  0  0  0  0
   23.1916  -19.1087  -12.3312 O   0  0  0  0  0  0  0  0  0  0  0  0
   30.7277  -22.2770   -8.4388 N   0  0  0  0  0  0  0  0  0  0  0  0
   24.9426  -18.6860  -18.3524 C   0  0  0  0  0  0  0  0  0  0  0  0
   25.4788  -18.1367  -17.1672 O   0  0  0  0  0  0  0  0  0  0  0  0
   26.5087  -17.4340  -17.1778 C   0  0  0  0  0  0  0  0  0  0  0  0
   24.7476  -18.4401  -15.8903 C   0  0  0  0  0  0  0  0  0  0  0  0
   23.6101  -19.3558  -16.2324 C   0  0  2  0  0  0  0  0  0  0  0  0
   22.8607  -19.7099  -14.9798 N   0  0  0  0  0  0  0  0  0  0  0  0
   23.7378  -20.4584  -14.1071 C   0  0  0  0  0  0  0  0  0  0  0  0
   21.6746  -20.5675  -15.2362 O   0  0  0  0  0  0  0  0  0  0  0  0
   21.7722  -21.7629  -15.6126 N   0  0  0  0  0  0  0  0  0  0  0  0
   20.3755  -20.0162  -15.0488 C   0  0  1  0  0  0  0  0  0  0  0  0
   19.2661  -20.8597  -14.6815 C   0  0  0  0  0  0  0  0  0  0  0  0
   19.5488  -21.6066  -13.4072 C   0  0  0  0  0  0  0  0  0  0  0  0
   18.3866  -22.4173  -13.0033 O   0  0  0  0  0  0  0  0  0  0  0  0
   17.3098  -22.3791  -13.6333 C   0  0  0  0  0  0  0  0  0  0  0  0
   18.0399  -20.0184  -14.5527 O   0  0  0  0  0  0  0  0  0  0  0  0
   17.9350  -19.0261  -13.5805 O   0  0  0  0  0  0  0  0  0  0  0  0
   18.4429  -23.2613  -11.8999 O   0  0  0  0  0  0  0  0  0  0  0  0
  1  2  1  0
  2  3  2  0
  4  5  1  0
  4  2  1  0
  6  5  1  0
  7  6  1  0
  8  7  1  0
  8  9  1  6
 10  8  1  0
 10 11  2  0
 12 13  1  0
 13 14  2  0
 15 16  1  0
 15 13  1  0
 17 16  1  1
 17 18  1  0
 18 10  1  0
 19 17  1  0
 20 19  2  0
 21 19  1  0
 22 21  1  0
 22 26  1  0
 22 23  1  6
 24 23  1  0
 24 25  2  0
 26 27  1  0
 28 24  1  0
 29 26  2  0
M  END
$$$$
