RQD.pdb
     RDKit          3D

 29 28  0  0  1  0  0  0  0  0999 V2000
   29.0668  -22.1040  -16.6324 N   0  0  0  0  0  0  0  0  0  0  0  0
   28.8756  -21.1238  -17.6514 C   0  0  0  0  0  0  0  0  0  0  0  0
   28.8036  -21.4920  -18.8764 N   0  0  0  0  0  0  0  0  0  0  0  0
   28.7590  -19.7441  -17.3673 N   0  0  0  0  0  0  0  0  0  0  0  0
   28.7626  -19.2107  -16.0259 C   0  0  0  0  0  0  0  0  0  0  0  0
   27.4454  -19.5949  -15.3738 C   0  0  0  0  0  0  0  0  0  0  0  0
   26.3506  -18.6395  -15.6812 C   0  0  0  0  0  0  0  0  0  0  0  0
   25.0651  -19.0072  -15.0000 C   0  0  2  0  0  0  0  0  0  0  0  0
   24.5534  -20.2234  -15.6731 N   0  0  0  0  0  0  0  0  0  0  0  0
   24.0518  -17.9655  -15.2818 C   0  0  0  0  0  0  0  0  0  0  0  0
   24.0843  -16.8735  -14.6640 O   0  0  0  0  0  0  0  0  0  0  0  0
   28.7275  -20.8551  -19.6934 N   0  0  0  0  0  0  0  0  0  0  0  0
   22.9087  -15.2702  -20.0123 C   0  0  0  0  0  0  0  0  0  0  0  0
   23.7654  -14.8926  -18.9553 O   0  0  0  0  0  0  0  0  0  0  0  0
   24.6738  -14.0537  -19.1154 C   0  0  0  0  0  0  0  0  0  0  0  0
   23.5296  -15.5514  -17.6258 C   0  0  0  0  0  0  0  0  0  0  0  0
   22.3232  -16.4310  -17.7695 C   0  0  2  0  0  0  0  0  0  0  0  0
   22.0372  -17.1037  -16.4574 N   0  0  0  0  0  0  0  0  0  0  0  0
   23.0141  -18.1487  -16.2460 C   0  0  0  0  0  0  0  0  0  0  0  0
   20.6998  -17.7502  -16.4163 O   0  0  0  0  0  0  0  0  0  0  0  0
   20.4836  -18.8895  -16.9016 N   0  0  0  0  0  0  0  0  0  0  0  0
   19.6194  -17.0543  -15.8039 C   0  0  1  0  0  0  0  0  0  0  0  0
   18.2898  -17.6103  -15.8114 C   0  0  0  0  0  0  0  0  0  0  0  0
   17.8439  -17.9736  -14.4218 C   0  0  0  0  0  0  0  0  0  0  0  0
   17.9372  -19.4276  -14.2023 O   0  0  0  0  0  0  0  0  0  0  0  0
   18.3709  -20.1973  -15.0840 C   0  0  0  0  0  0  0  0  0  0  0  0
   17.3573  -16.6270  -16.4371 O   0  0  0  0  0  0  0  0  0  0  0  0
   16.0332  -16.9555  -16.7198 O   0  0  0  0  0  0  0  0  0  0  0  0
   17.5446  -20.0032  -12.9991 O   0  0  0  0  0  0  0  0  0  0  0  0
  1  2  1  0
  2  3  2  0
  4  5  1  0
  4  2  1  0
  6  5  1  0
  7  6  1  0
  8  7  1  0
  8  9  1  6
 10  8  1  0
 10 11  2  0
 12 13  1  0
 13 14  2  0
 15 16  1  0
 15 13  1  0
 17 16  1  1
 17 18  1  0
 18 10  1  0
 19 17  1  0
 20 19  2  0
 21 19  1  0
 22 21  1  0
 22 26  1  0
 22 23  1  6
 24 23  1  0
 24 25  2  0
 26 27  1  0
 28 24  1  0
 29 26  2  0
M  END
$$$$
