RQD.pdb
     RDKit          3D

 29 28  0  0  1  0  0  0  0  0999 V2000
   17.0448  -24.5406  -12.9953 N   0  0  0  0  0  0  0  0  0  0  0  0
   18.3505  -23.9874  -12.8375 C   0  0  0  0  0  0  0  0  0  0  0  0
   18.6374  -23.3403  -11.7697 N   0  0  0  0  0  0  0  0  0  0  0  0
   19.3578  -24.1235  -13.8196 N   0  0  0  0  0  0  0  0  0  0  0  0
   19.1148  -24.6814  -15.1286 C   0  0  0  0  0  0  0  0  0  0  0  0
   19.7600  -26.0560  -15.1706 C   0  0  0  0  0  0  0  0  0  0  0  0
   21.1935  -26.0313  -14.7830 C   0  0  0  0  0  0  0  0  0  0  0  0
   21.8387  -27.3812  -14.8985 C   0  0  2  0  0  0  0  0  0  0  0  0
   21.4452  -27.9356  -16.2145 N   0  0  0  0  0  0  0  0  0  0  0  0
   21.2301  -28.2961  -13.9066 C   0  0  0  0  0  0  0  0  0  0  0  0
   20.2846  -29.0495  -14.2436 O   0  0  0  0  0  0  0  0  0  0  0  0
   19.5727  -22.9570  -11.5306 N   0  0  0  0  0  0  0  0  0  0  0  0
   23.6070  -29.7538   -8.4109 C   0  0  0  0  0  0  0  0  0  0  0  0
   22.6410  -30.7786   -8.5140 O   0  0  0  0  0  0  0  0  0  0  0  0
   22.6123  -31.7353   -7.7149 C   0  0  0  0  0  0  0  0  0  0  0  0
   21.6475  -30.6608   -9.6349 C   0  0  0  0  0  0  0  0  0  0  0  0
   22.0334  -29.4633  -10.4513 C   0  0  2  0  0  0  0  0  0  0  0  0
   21.1678  -29.3952  -11.6769 N   0  0  0  0  0  0  0  0  0  0  0  0
   21.6784  -28.3635  -12.5521 C   0  0  0  0  0  0  0  0  0  0  0  0
   19.7571  -29.0414  -11.3720 O   0  0  0  0  0  0  0  0  0  0  0  0
   19.1655  -28.0804  -11.9256 N   0  0  0  0  0  0  0  0  0  0  0  0
   19.0455  -29.8199  -10.4158 C   0  0  2  0  0  0  0  0  0  0  0  0
   17.6611  -29.5419  -10.1269 C   0  0  0  0  0  0  0  0  0  0  0  0
   17.1809  -28.3308  -10.8783 C   0  0  0  0  0  0  0  0  0  0  0  0
   15.7342  -28.1301  -10.6836 O   0  0  0  0  0  0  0  0  0  0  0  0
   15.1206  -28.6599   -9.7345 C   0  0  0  0  0  0  0  0  0  0  0  0
   16.8448  -30.7449  -10.4651 O   0  0  0  0  0  0  0  0  0  0  0  0
   15.5095  -30.8514  -10.0824 O   0  0  0  0  0  0  0  0  0  0  0  0
   14.9913  -27.3388  -11.5525 O   0  0  0  0  0  0  0  0  0  0  0  0
  1  2  1  0
  2  3  2  0
  4  5  1  0
  4  2  1  0
  6  5  1  0
  7  6  1  0
  8  7  1  0
  8  9  1  6
 10  8  1  0
 10 11  2  0
 12 13  1  0
 13 14  2  0
 15 16  1  0
 15 13  1  0
 17 16  1  6
 17 18  1  0
 18 10  1  0
 19 17  1  0
 20 19  2  0
 21 19  1  0
 22 21  1  0
 22 26  1  0
 22 23  1  1
 24 23  1  0
 24 25  2  0
 26 27  1  0
 28 24  1  0
 29 26  2  0
M  END
$$$$
