RQD.pdb
     RDKit          3D

 29 28  0  0  1  0  0  0  0  0999 V2000
   29.4319  -20.2555  -21.2403 N   0  0  0  0  0  0  0  0  0  0  0  0
   28.1132  -20.0020  -21.7222 C   0  0  0  0  0  0  0  0  0  0  0  0
   27.9035  -19.9380  -22.9845 N   0  0  0  0  0  0  0  0  0  0  0  0
   27.0103  -19.8163  -20.8580 N   0  0  0  0  0  0  0  0  0  0  0  0
   27.1460  -19.6271  -19.4334 C   0  0  0  0  0  0  0  0  0  0  0  0
   27.4184  -20.9863  -18.8120 C   0  0  0  0  0  0  0  0  0  0  0  0
   26.2773  -21.4900  -18.0058 C   0  0  0  0  0  0  0  0  0  0  0  0
   25.4604  -20.3777  -17.4168 C   0  0  2  0  0  0  0  0  0  0  0  0
   26.4142  -19.3938  -16.8544 N   0  0  0  0  0  0  0  0  0  0  0  0
   24.7143  -20.8914  -16.2459 C   0  0  0  0  0  0  0  0  0  0  0  0
   23.9435  -21.8736  -16.3734 O   0  0  0  0  0  0  0  0  0  0  0  0
   26.9957  -19.7070  -23.4334 N   0  0  0  0  0  0  0  0  0  0  0  0
   26.2351  -20.7967  -10.3981 C   0  0  0  0  0  0  0  0  0  0  0  0
   24.8776  -21.1340  -10.2047 O   0  0  0  0  0  0  0  0  0  0  0  0
   24.4129  -21.3575   -9.0695 C   0  0  0  0  0  0  0  0  0  0  0  0
   24.0184  -21.2109  -11.4347 C   0  0  0  0  0  0  0  0  0  0  0  0
   24.8665  -20.7963  -12.6002 C   0  0  1  0  0  0  0  0  0  0  0  0
   24.0393  -20.8232  -13.8536 N   0  0  0  0  0  0  0  0  0  0  0  0
   24.8328  -20.3083  -14.9474 C   0  0  0  0  0  0  0  0  0  0  0  0
   22.8245  -19.9719  -13.7654 O   0  0  0  0  0  0  0  0  0  0  0  0
   22.8445  -18.7373  -14.0008 N   0  0  0  0  0  0  0  0  0  0  0  0
   21.5882  -20.5759  -13.4002 C   0  0  1  0  0  0  0  0  0  0  0  0
   20.3534  -19.8394  -13.5009 C   0  0  0  0  0  0  0  0  0  0  0  0
   20.1542  -19.2984  -14.8899 C   0  0  0  0  0  0  0  0  0  0  0  0
   18.9800  -18.4099  -14.9453 O   0  0  0  0  0  0  0  0  0  0  0  0
   18.5912  -17.7741  -13.9441 C   0  0  0  0  0  0  0  0  0  0  0  0
   19.2242  -20.7304  -13.1022 O   0  0  0  0  0  0  0  0  0  0  0  0
   18.2811  -20.3338  -12.1566 O   0  0  0  0  0  0  0  0  0  0  0  0
   18.2551  -18.2430  -16.1199 O   0  0  0  0  0  0  0  0  0  0  0  0
  1  2  1  0
  2  3  2  0
  4  5  1  0
  4  2  1  0
  6  5  1  0
  7  6  1  0
  8  7  1  0
  8  9  1  1
 10  8  1  0
 10 11  2  0
 12 13  1  0
 13 14  2  0
 15 16  1  0
 15 13  1  0
 17 16  1  6
 17 18  1  0
 18 10  1  0
 19 17  1  0
 20 19  2  0
 21 19  1  0
 22 21  1  0
 22 26  1  0
 22 23  1  1
 24 23  1  0
 24 25  2  0
 26 27  1  0
 28 24  1  0
 29 26  2  0
M  END
$$$$
