RQD.pdb
     RDKit          3D

 29 28  0  0  1  0  0  0  0  0999 V2000
   29.5889  -27.0091  -15.9920 N   0  0  0  0  0  0  0  0  0  0  0  0
   28.2225  -26.9403  -16.3969 C   0  0  0  0  0  0  0  0  0  0  0  0
   27.4181  -27.8817  -16.0681 N   0  0  0  0  0  0  0  0  0  0  0  0
   27.7071  -25.8643  -17.1548 N   0  0  0  0  0  0  0  0  0  0  0  0
   28.5378  -24.8311  -17.7262 C   0  0  0  0  0  0  0  0  0  0  0  0
   28.8268  -23.8157  -16.6340 C   0  0  0  0  0  0  0  0  0  0  0  0
   27.6245  -23.0399  -16.2363 C   0  0  0  0  0  0  0  0  0  0  0  0
   27.5051  -21.7474  -16.9893 C   0  0  2  0  0  0  0  0  0  0  0  0
   28.7625  -20.9984  -16.7616 N   0  0  0  0  0  0  0  0  0  0  0  0
   26.4524  -20.9165  -16.3627 C   0  0  0  0  0  0  0  0  0  0  0  0
   26.6425  -20.4098  -15.2302 O   0  0  0  0  0  0  0  0  0  0  0  0
   26.4075  -27.9208  -16.3050 N   0  0  0  0  0  0  0  0  0  0  0  0
   23.9316  -16.1958  -18.1688 C   0  0  0  0  0  0  0  0  0  0  0  0
   23.0700  -16.3391  -17.0593 O   0  0  0  0  0  0  0  0  0  0  0  0
   22.3385  -15.4064  -16.6726 C   0  0  0  0  0  0  0  0  0  0  0  0
   23.0769  -17.6718  -16.3658 C   0  0  0  0  0  0  0  0  0  0  0  0
   24.1114  -18.5225  -17.0407 C   0  0  1  0  0  0  0  0  0  0  0  0
   24.2090  -19.8442  -16.3337 N   0  0  0  0  0  0  0  0  0  0  0  0
   25.2009  -20.6581  -17.0007 C   0  0  0  0  0  0  0  0  0  0  0  0
   22.9362  -20.6107  -16.3584 O   0  0  0  0  0  0  0  0  0  0  0  0
   22.6152  -21.3590  -17.3160 N   0  0  0  0  0  0  0  0  0  0  0  0
   22.0437  -20.4949  -15.2553 C   0  0  1  0  0  0  0  0  0  0  0  0
   20.7324  -21.0907  -15.3065 C   0  0  0  0  0  0  0  0  0  0  0  0
   20.1191  -21.1751  -13.9360 C   0  0  0  0  0  0  0  0  0  0  0  0
   18.8139  -21.8572  -13.9845 O   0  0  0  0  0  0  0  0  0  0  0  0
   18.6195  -22.8497  -14.7160 C   0  0  0  0  0  0  0  0  0  0  0  0
   19.8746  -20.2945  -16.2330 O   0  0  0  0  0  0  0  0  0  0  0  0
   18.9942  -20.9089  -17.1209 O   0  0  0  0  0  0  0  0  0  0  0  0
   17.7418  -21.4212  -13.2139 O   0  0  0  0  0  0  0  0  0  0  0  0
  1  2  1  0
  2  3  2  0
  4  5  1  0
  4  2  1  0
  6  5  1  0
  7  6  1  0
  8  7  1  0
  8  9  1  1
 10  8  1  0
 10 11  2  0
 12 13  1  0
 13 14  2  0
 15 16  1  0
 15 13  1  0
 17 16  1  1
 17 18  1  0
 18 10  1  0
 19 17  1  0
 20 19  2  0
 21 19  1  0
 22 21  1  0
 22 26  1  0
 22 23  1  6
 24 23  1  0
 24 25  2  0
 26 27  1  0
 28 24  1  0
 29 26  2  0
M  END
$$$$
