RQD.pdb
     RDKit          3D

 29 28  0  0  1  0  0  0  0  0999 V2000
   26.7895  -20.8617  -10.7515 N   0  0  0  0  0  0  0  0  0  0  0  0
   26.0842  -21.4063  -11.8658 C   0  0  0  0  0  0  0  0  0  0  0  0
   24.8935  -21.8504  -11.7037 N   0  0  0  0  0  0  0  0  0  0  0  0
   26.6468  -21.4785  -13.1604 N   0  0  0  0  0  0  0  0  0  0  0  0
   27.9500  -20.9497  -13.4861 C   0  0  0  0  0  0  0  0  0  0  0  0
   27.7703  -19.4949  -13.8849 C   0  0  0  0  0  0  0  0  0  0  0  0
   27.1362  -19.3376  -15.2187 C   0  0  0  0  0  0  0  0  0  0  0  0
   26.9710  -17.8971  -15.6051 C   0  0  2  0  0  0  0  0  0  0  0  0
   26.9790  -17.1107  -14.3500 N   0  0  0  0  0  0  0  0  0  0  0  0
   25.6158  -17.6980  -16.1664 C   0  0  0  0  0  0  0  0  0  0  0  0
   25.3819  -17.9920  -17.3640 O   0  0  0  0  0  0  0  0  0  0  0  0
   24.2794  -22.2166  -12.4572 N   0  0  0  0  0  0  0  0  0  0  0  0
   20.6284  -18.5640  -13.5903 C   0  0  0  0  0  0  0  0  0  0  0  0
   20.0676  -18.2353  -14.8438 O   0  0  0  0  0  0  0  0  0  0  0  0
   18.9487  -18.6603  -15.1932 C   0  0  0  0  0  0  0  0  0  0  0  0
   20.8853  -17.3472  -15.7382 C   0  0  0  0  0  0  0  0  0  0  0  0
   22.1701  -17.0522  -15.0229 C   0  0  2  0  0  0  0  0  0  0  0  0
   23.2722  -16.8780  -16.0285 N   0  0  0  0  0  0  0  0  0  0  0  0
   24.5362  -17.1744  -15.3915 C   0  0  0  0  0  0  0  0  0  0  0  0
   23.3681  -15.4896  -16.5494 O   0  0  0  0  0  0  0  0  0  0  0  0
   24.3400  -14.7354  -16.2912 N   0  0  0  0  0  0  0  0  0  0  0  0
   22.3196  -14.9919  -17.3737 C   0  0  1  0  0  0  0  0  0  0  0  0
   22.4390  -13.7083  -18.0182 C   0  0  0  0  0  0  0  0  0  0  0  0
   23.7091  -13.6171  -18.8183 C   0  0  0  0  0  0  0  0  0  0  0  0
   23.7900  -12.3310  -19.5328 O   0  0  0  0  0  0  0  0  0  0  0  0
   22.9087  -11.4558  -19.4092 C   0  0  0  0  0  0  0  0  0  0  0  0
   21.2413  -13.4862  -18.8807 O   0  0  0  0  0  0  0  0  0  0  0  0
   20.5241  -12.2925  -18.8396 O   0  0  0  0  0  0  0  0  0  0  0  0
   24.8558  -12.0390  -20.3765 O   0  0  0  0  0  0  0  0  0  0  0  0
  1  2  1  0
  2  3  2  0
  4  5  1  0
  4  2  1  0
  6  5  1  0
  7  6  1  0
  8  7  1  0
  8  9  1  1
 10  8  1  0
 10 11  2  0
 12 13  1  0
 13 14  2  0
 15 16  1  0
 15 13  1  0
 17 16  1  6
 17 18  1  0
 18 10  1  0
 19 17  1  0
 20 19  2  0
 21 19  1  0
 22 21  1  0
 22 26  1  0
 22 23  1  1
 24 23  1  0
 24 25  2  0
 26 27  1  0
 28 24  1  0
 29 26  2  0
M  END
$$$$
