RQD.pdb
     RDKit          3D

 29 28  0  0  1  0  0  0  0  0999 V2000
   32.4978  -21.6055  -11.6581 N   0  0  0  0  0  0  0  0  0  0  0  0
   32.1034  -21.6205  -13.0292 C   0  0  0  0  0  0  0  0  0  0  0  0
   32.2569  -22.6892  -13.7188 N   0  0  0  0  0  0  0  0  0  0  0  0
   31.5415  -20.4937  -13.6713 N   0  0  0  0  0  0  0  0  0  0  0  0
   30.2101  -20.0091  -13.3948 C   0  0  0  0  0  0  0  0  0  0  0  0
   29.4332  -20.0263  -14.7002 C   0  0  0  0  0  0  0  0  0  0  0  0
   27.9737  -20.2132  -14.4991 C   0  0  0  0  0  0  0  0  0  0  0  0
   27.6464  -21.5538  -13.9096 C   0  0  2  0  0  0  0  0  0  0  0  0
   27.6897  -22.5345  -15.0187 N   0  0  0  0  0  0  0  0  0  0  0  0
   26.2358  -21.5547  -13.4603 C   0  0  0  0  0  0  0  0  0  0  0  0
   25.3756  -22.2158  -14.0913 O   0  0  0  0  0  0  0  0  0  0  0  0
   32.1421  -22.7634  -14.7485 N   0  0  0  0  0  0  0  0  0  0  0  0
   24.4343  -20.3901   -7.7276 C   0  0  0  0  0  0  0  0  0  0  0  0
   25.7239  -20.5041   -8.2913 O   0  0  0  0  0  0  0  0  0  0  0  0
   26.7533  -20.2856   -7.6226 C   0  0  0  0  0  0  0  0  0  0  0  0
   25.7964  -20.9019   -9.7383 C   0  0  0  0  0  0  0  0  0  0  0  0
   24.4478  -20.6439  -10.3418 C   0  0  2  0  0  0  0  0  0  0  0  0
   24.4667  -21.0365  -11.7915 N   0  0  0  0  0  0  0  0  0  0  0  0
   25.7970  -20.8213  -12.3159 C   0  0  0  0  0  0  0  0  0  0  0  0
   23.5398  -20.2265  -12.6240 O   0  0  0  0  0  0  0  0  0  0  0  0
   23.3400  -19.0026  -12.4189 N   0  0  0  0  0  0  0  0  0  0  0  0
   22.8499  -20.8592  -13.6966 C   0  0  1  0  0  0  0  0  0  0  0  0
   22.1583  -20.0749  -14.6885 C   0  0  0  0  0  0  0  0  0  0  0  0
   23.0953  -19.1238  -15.3807 C   0  0  0  0  0  0  0  0  0  0  0  0
   22.3870  -18.3428  -16.4100 O   0  0  0  0  0  0  0  0  0  0  0  0
   21.1554  -18.4496  -16.5821 C   0  0  0  0  0  0  0  0  0  0  0  0
   21.5060  -20.9959  -15.6654 O   0  0  0  0  0  0  0  0  0  0  0  0
   21.8607  -22.3405  -15.7490 O   0  0  0  0  0  0  0  0  0  0  0  0
   23.0647  -17.4515  -17.2342 O   0  0  0  0  0  0  0  0  0  0  0  0
  1  2  1  0
  2  3  2  0
  4  5  1  0
  4  2  1  0
  6  5  1  0
  7  6  1  0
  8  7  1  0
  8  9  1  6
 10  8  1  0
 10 11  2  0
 12 13  1  0
 13 14  2  0
 15 16  1  0
 15 13  1  0
 17 16  1  1
 17 18  1  0
 18 10  1  0
 19 17  1  0
 20 19  2  0
 21 19  1  0
 22 21  1  0
 22 26  1  0
 22 23  1  1
 24 23  1  0
 24 25  2  0
 26 27  1  0
 28 24  1  0
 29 26  2  0
M  END
$$$$
