RQD.pdb
     RDKit          3D

 29 28  0  0  1  0  0  0  0  0999 V2000
   32.8585  -25.6358  -16.4345 N   0  0  0  0  0  0  0  0  0  0  0  0
   31.8468  -25.1226  -17.2998 C   0  0  0  0  0  0  0  0  0  0  0  0
   32.0567  -24.0333  -17.9405 N   0  0  0  0  0  0  0  0  0  0  0  0
   30.6048  -25.7711  -17.4863 N   0  0  0  0  0  0  0  0  0  0  0  0
   29.5944  -25.2949  -18.4007 C   0  0  0  0  0  0  0  0  0  0  0  0
   28.9227  -24.0926  -17.7595 C   0  0  0  0  0  0  0  0  0  0  0  0
   27.8714  -24.4735  -16.7822 C   0  0  0  0  0  0  0  0  0  0  0  0
   27.2329  -23.2787  -16.1369 C   0  0  2  0  0  0  0  0  0  0  0  0
   27.3736  -23.4531  -14.6727 N   0  0  0  0  0  0  0  0  0  0  0  0
   25.7736  -23.3166  -16.3826 C   0  0  0  0  0  0  0  0  0  0  0  0
   25.3234  -23.0857  -17.5312 O   0  0  0  0  0  0  0  0  0  0  0  0
   31.3837  -23.5741  -18.5848 N   0  0  0  0  0  0  0  0  0  0  0  0
   21.7511  -26.7215  -13.4219 C   0  0  0  0  0  0  0  0  0  0  0  0
   20.8669  -26.1643  -14.3714 O   0  0  0  0  0  0  0  0  0  0  0  0
   19.6935  -26.5685  -14.4909 C   0  0  0  0  0  0  0  0  0  0  0  0
   21.4089  -25.0589  -15.2326 C   0  0  0  0  0  0  0  0  0  0  0  0
   22.8447  -24.8560  -14.8498 C   0  0  2  0  0  0  0  0  0  0  0  0
   23.4286  -23.7448  -15.6747 N   0  0  0  0  0  0  0  0  0  0  0  0
   24.8313  -23.6102  -15.3502 C   0  0  0  0  0  0  0  0  0  0  0  0
   22.7961  -22.4276  -15.4044 O   0  0  0  0  0  0  0  0  0  0  0  0
   23.4195  -21.4734  -14.8743 N   0  0  0  0  0  0  0  0  0  0  0  0
   21.4307  -22.2361  -15.7589 C   0  0  2  0  0  0  0  0  0  0  0  0
   20.7646  -20.9915  -15.4685 C   0  0  0  0  0  0  0  0  0  0  0  0
   21.0120  -20.5599  -14.0493 C   0  0  0  0  0  0  0  0  0  0  0  0
   20.2466  -19.3424  -13.7283 O   0  0  0  0  0  0  0  0  0  0  0  0
   19.5012  -18.7963  -14.5674 C   0  0  0  0  0  0  0  0  0  0  0  0
   21.2310  -19.9553  -16.4364 O   0  0  0  0  0  0  0  0  0  0  0  0
   22.5829  -19.7842  -16.7265 O   0  0  0  0  0  0  0  0  0  0  0  0
   20.3238  -18.7506  -12.4726 O   0  0  0  0  0  0  0  0  0  0  0  0
  1  2  1  0
  2  3  2  0
  4  5  1  0
  4  2  1  0
  6  5  1  0
  7  6  1  0
  8  7  1  0
  8  9  1  1
 10  8  1  0
 10 11  2  0
 12 13  1  0
 13 14  2  0
 15 16  1  0
 15 13  1  0
 17 16  1  6
 17 18  1  0
 18 10  1  0
 19 17  1  0
 20 19  2  0
 21 19  1  0
 22 21  1  0
 22 26  1  0
 22 23  1  1
 24 23  1  0
 24 25  2  0
 26 27  1  0
 28 24  1  0
 29 26  2  0
M  END
$$$$
