FNW.pdb
     RDKit          3D

 34 36  0  0  1  0  0  0  0  0999 V2000
   25.6333  -18.2799  -15.9804 N   0  0  0  0  0  0  0  0  0  0  0  0
   26.4563  -18.6475  -14.8288 C   0  0  1  0  0  0  0  0  0  0  0  0
   27.2187  -17.4130  -14.3419 C   0  0  0  0  0  0  0  0  0  0  0  0
   28.2243  -16.9803  -15.3272 C   0  0  0  0  0  0  0  0  0  0  0  0
   28.0996  -15.7787  -15.9879 C   0  0  0  0  0  0  0  0  0  0  0  0
   29.0235  -15.3346  -16.9177 C   0  0  0  0  0  0  0  0  0  0  0  0
   30.1180  -16.1357  -17.1927 C   0  0  0  0  0  0  0  0  0  0  0  0
   30.2664  -17.3318  -16.5525 C   0  0  0  0  0  0  0  0  0  0  0  0
   29.3262  -17.7641  -15.6182 C   0  0  0  0  0  0  0  0  0  0  0  0
   25.6142  -19.1410  -13.7106 C   0  0  0  0  0  0  0  0  0  0  0  0
   24.4406  -18.6744  -13.6413 O   0  0  0  0  0  0  0  0  0  0  0  0
   25.2768  -24.1359  -12.6351 N   0  0  0  0  0  0  0  0  0  0  0  0
   25.3175  -22.8055  -13.2008 C   0  0  0  0  0  0  0  0  0  0  0  0
   26.1013  -22.6030  -14.1428 O   0  0  0  0  0  0  0  0  0  0  0  0
   24.4397  -21.8114  -12.6229 C   0  0  0  0  0  0  0  0  0  0  0  0
   25.0564  -20.6755  -11.8491 C   0  0  2  0  0  0  0  0  0  0  0  0
   26.0777  -20.0819  -12.7618 N   0  0  0  0  0  0  0  0  0  0  0  0
   25.8484  -21.1005  -10.6688 C   0  0  0  0  0  0  0  0  0  0  0  0
   26.5644  -22.1706  -10.7812 O   0  0  0  0  0  0  0  0  0  0  0  0
   25.9286  -20.4758   -9.4193 N   0  0  0  0  0  0  0  0  0  0  0  0
   25.4609  -21.1353   -8.2353 C   0  0  1  0  0  0  0  0  0  0  0  0
   25.4624  -20.2209   -7.0301 C   0  0  0  0  0  0  0  0  0  0  0  0
   26.7645  -19.5190   -6.9816 C   0  0  0  0  0  0  0  0  0  0  0  0
   27.1997  -18.4207   -7.7251 C   0  0  0  0  0  0  0  0  0  0  0  0
   28.4664  -18.1120   -7.3554 N   0  0  0  0  0  0  0  0  0  0  0  0
   28.8832  -18.9547   -6.4056 C   0  0  0  0  0  0  0  0  0  0  0  0
   30.0672  -19.0538   -5.7223 C   0  0  0  0  0  0  0  0  0  0  0  0
   30.2618  -20.0451   -4.7565 C   0  0  0  0  0  0  0  0  0  0  0  0
   29.2268  -20.9213   -4.5119 C   0  0  0  0  0  0  0  0  0  0  0  0
   28.0423  -20.8080   -5.2084 C   0  0  0  0  0  0  0  0  0  0  0  0
   27.8505  -19.8289   -6.1611 C   0  0  0  0  0  0  0  0  0  0  0  0
   24.0806  -21.6142   -8.4545 C   0  0  0  0  0  0  0  0  0  0  0  0
   23.6127  -22.4621   -7.6221 O   0  0  0  0  0  0  0  0  0  0  0  0
   23.2571  -21.2105   -9.4945 O   0  0  0  0  0  0  0  0  0  0  0  0
  2  1  1  6
  3  2  1  0
  4  5  2  0
  4  3  1  0
  6  5  1  0
  7  6  2  0
  8  7  1  0
  8  9  2  0
  9  4  1  0
 10  2  1  0
 11 10  2  0
 13 14  2  0
 13 12  1  0
 15 13  1  0
 16 17  1  0
 16 15  1  6
 17 10  1  0
 18 16  1  0
 19 18  2  0
 20 18  1  0
 21 20  1  0
 21 22  1  1
 23 22  1  0
 23 31  1  0
 24 25  1  0
 24 23  2  0
 25 26  1  0
 26 31  2  0
 26 27  1  0
 27 28  2  0
 28 29  1  0
 30 29  2  0
 31 30  1  0
 32 21  1  0
 32 34  1  0
 33 32  2  0
M  END
$$$$
