FNW.pdb
     RDKit          3D

 34 36  0  0  1  0  0  0  0  0999 V2000
   25.5283  -21.3329   -6.9373 N   0  0  0  0  0  0  0  0  0  0  0  0
   26.2796  -20.4613   -7.8398 C   0  0  1  0  0  0  0  0  0  0  0  0
   27.7544  -20.4665   -7.4307 C   0  0  0  0  0  0  0  0  0  0  0  0
   27.9405  -19.8922   -6.0873 C   0  0  0  0  0  0  0  0  0  0  0  0
   27.9064  -18.5304   -5.8865 C   0  0  0  0  0  0  0  0  0  0  0  0
   28.0735  -17.9516   -4.6406 C   0  0  0  0  0  0  0  0  0  0  0  0
   28.2838  -18.7805   -3.5525 C   0  0  0  0  0  0  0  0  0  0  0  0
   28.3223  -20.1340   -3.7228 C   0  0  0  0  0  0  0  0  0  0  0  0
   28.1520  -20.7007   -4.9852 C   0  0  0  0  0  0  0  0  0  0  0  0
   26.1874  -20.9424   -9.2410 C   0  0  0  0  0  0  0  0  0  0  0  0
   26.3893  -22.1771   -9.4268 O   0  0  0  0  0  0  0  0  0  0  0  0
   25.5249  -22.6243  -13.7369 N   0  0  0  0  0  0  0  0  0  0  0  0
   24.5278  -22.6291  -12.6894 C   0  0  0  0  0  0  0  0  0  0  0  0
   23.6400  -23.4962  -12.7422 O   0  0  0  0  0  0  0  0  0  0  0  0
   24.6425  -21.6200  -11.6592 C   0  0  0  0  0  0  0  0  0  0  0  0
   25.8411  -20.7078  -11.6816 C   0  0  2  0  0  0  0  0  0  0  0  0
   25.8910  -20.0847  -10.3259 N   0  0  0  0  0  0  0  0  0  0  0  0
   25.7068  -19.5462  -12.5946 C   0  0  0  0  0  0  0  0  0  0  0  0
   24.5942  -18.8890  -12.5686 O   0  0  0  0  0  0  0  0  0  0  0  0
   26.6528  -19.0524  -13.4996 N   0  0  0  0  0  0  0  0  0  0  0  0
   26.3582  -17.9195  -14.3274 C   0  0  1  0  0  0  0  0  0  0  0  0
   27.5945  -17.3602  -14.9963 C   0  0  0  0  0  0  0  0  0  0  0  0
   27.2091  -16.1381  -15.7367 C   0  0  0  0  0  0  0  0  0  0  0  0
   26.8063  -14.8981  -15.2382 C   0  0  0  0  0  0  0  0  0  0  0  0
   26.5448  -14.0688  -16.2776 N   0  0  0  0  0  0  0  0  0  0  0  0
   26.7565  -14.7049  -17.4338 C   0  0  0  0  0  0  0  0  0  0  0  0
   26.6325  -14.3025  -18.7382 C   0  0  0  0  0  0  0  0  0  0  0  0
   26.9182  -15.1747  -19.7922 C   0  0  0  0  0  0  0  0  0  0  0  0
   27.3280  -16.4529  -19.4805 C   0  0  0  0  0  0  0  0  0  0  0  0
   27.4471  -16.8416  -18.1630 C   0  0  0  0  0  0  0  0  0  0  0  0
   27.1657  -15.9801  -17.1231 C   0  0  0  0  0  0  0  0  0  0  0  0
   25.3998  -18.3176  -15.3790 C   0  0  0  0  0  0  0  0  0  0  0  0
   24.4224  -17.5298  -15.6132 O   0  0  0  0  0  0  0  0  0  0  0  0
   25.4843  -19.4804  -16.1296 O   0  0  0  0  0  0  0  0  0  0  0  0
  2  1  1  1
  3  2  1  0
  4  5  2  0
  4  3  1  0
  6  5  1  0
  7  6  2  0
  8  7  1  0
  8  9  2  0
  9  4  1  0
 10  2  1  0
 11 10  2  0
 13 14  2  0
 13 12  1  0
 15 13  1  0
 16 17  1  0
 16 15  1  1
 17 10  1  0
 18 16  1  0
 19 18  2  0
 20 18  1  0
 21 20  1  0
 21 22  1  6
 23 22  1  0
 23 31  1  0
 24 25  1  0
 24 23  2  0
 25 26  1  0
 26 31  2  0
 26 27  1  0
 27 28  2  0
 28 29  1  0
 30 29  2  0
 31 30  1  0
 32 21  1  0
 32 34  1  0
 33 32  2  0
M  END
$$$$
