FNW.pdb
     RDKit          3D

 34 36  0  0  1  0  0  0  0  0999 V2000
   29.1581  -23.0326  -17.8191 N   0  0  0  0  0  0  0  0  0  0  0  0
   27.8829  -23.6038  -17.3874 C   0  0  1  0  0  0  0  0  0  0  0  0
   28.1002  -24.4008  -16.0991 C   0  0  0  0  0  0  0  0  0  0  0  0
   26.9333  -25.2432  -15.7861 C   0  0  0  0  0  0  0  0  0  0  0  0
   25.8965  -24.7627  -15.0178 C   0  0  0  0  0  0  0  0  0  0  0  0
   24.7818  -25.5204  -14.7040 C   0  0  0  0  0  0  0  0  0  0  0  0
   24.7100  -26.8162  -15.1847 C   0  0  0  0  0  0  0  0  0  0  0  0
   25.7235  -27.3181  -15.9485 C   0  0  0  0  0  0  0  0  0  0  0  0
   26.8396  -26.5409  -16.2554 C   0  0  0  0  0  0  0  0  0  0  0  0
   26.8906  -22.5359  -17.1080 C   0  0  0  0  0  0  0  0  0  0  0  0
   27.3390  -21.4717  -16.5922 O   0  0  0  0  0  0  0  0  0  0  0  0
   23.8213  -18.6060  -18.2476 N   0  0  0  0  0  0  0  0  0  0  0  0
   23.3401  -19.9023  -18.6715 C   0  0  0  0  0  0  0  0  0  0  0  0
   22.1781  -19.9729  -19.1046 O   0  0  0  0  0  0  0  0  0  0  0  0
   24.2526  -21.0190  -18.5571 C   0  0  0  0  0  0  0  0  0  0  0  0
   24.6534  -21.4770  -17.1791 C   0  0  2  0  0  0  0  0  0  0  0  0
   25.5129  -22.6784  -17.3946 N   0  0  0  0  0  0  0  0  0  0  0  0
   23.5314  -21.9937  -16.3574 C   0  0  0  0  0  0  0  0  0  0  0  0
   23.2555  -23.2534  -16.4443 O   0  0  0  0  0  0  0  0  0  0  0  0
   22.7151  -21.2792  -15.4738 N   0  0  0  0  0  0  0  0  0  0  0  0
   21.6893  -21.9403  -14.7213 C   0  0  1  0  0  0  0  0  0  0  0  0
   21.1011  -21.0512  -13.6480 C   0  0  0  0  0  0  0  0  0  0  0  0
   22.1307  -20.8376  -12.6064 C   0  0  0  0  0  0  0  0  0  0  0  0
   23.3188  -20.1087  -12.6806 C   0  0  0  0  0  0  0  0  0  0  0  0
   23.9593  -20.1870  -11.4890 N   0  0  0  0  0  0  0  0  0  0  0  0
   23.2490  -20.9323  -10.6368 C   0  0  0  0  0  0  0  0  0  0  0  0
   23.4713  -21.3012   -9.3356 C   0  0  0  0  0  0  0  0  0  0  0  0
   22.5580  -22.1050   -8.6478 C   0  0  0  0  0  0  0  0  0  0  0  0
   21.4264  -22.5164   -9.3179 C   0  0  0  0  0  0  0  0  0  0  0  0
   21.2183  -22.1366  -10.6268 C   0  0  0  0  0  0  0  0  0  0  0  0
   22.1198  -21.3426  -11.3050 C   0  0  0  0  0  0  0  0  0  0  0  0
   20.6016  -22.3517  -15.6326 C   0  0  0  0  0  0  0  0  0  0  0  0
   20.3873  -21.6235  -16.6595 O   0  0  0  0  0  0  0  0  0  0  0  0
   19.7992  -23.4686  -15.4560 O   0  0  0  0  0  0  0  0  0  0  0  0
  2  1  1  1
  3  2  1  0
  4  5  2  0
  4  3  1  0
  6  5  1  0
  7  6  2  0
  8  7  1  0
  8  9  2  0
  9  4  1  0
 10  2  1  0
 11 10  2  0
 13 14  2  0
 13 12  1  0
 15 13  1  0
 16 17  1  0
 16 15  1  6
 17 10  1  0
 18 16  1  0
 19 18  2  0
 20 18  1  0
 21 20  1  0
 21 22  1  1
 23 22  1  0
 23 31  1  0
 24 25  1  0
 24 23  2  0
 25 26  1  0
 26 31  2  0
 26 27  1  0
 27 28  2  0
 28 29  1  0
 30 29  2  0
 31 30  1  0
 32 21  1  0
 32 34  1  0
 33 32  2  0
M  END
$$$$
