FNW.pdb
     RDKit          3D

 34 36  0  0  1  0  0  0  0  0999 V2000
   27.3420  -20.5758  -15.3730 N   0  0  0  0  0  0  0  0  0  0  0  0
   26.5721  -19.7484  -14.4448 C   0  0  1  0  0  0  0  0  0  0  0  0
   25.7531  -18.7298  -15.2411 C   0  0  0  0  0  0  0  0  0  0  0  0
   26.6018  -17.6389  -15.7497 C   0  0  0  0  0  0  0  0  0  0  0  0
   27.2385  -17.7430  -16.9662 C   0  0  0  0  0  0  0  0  0  0  0  0
   28.0414  -16.7401  -17.4807 C   0  0  0  0  0  0  0  0  0  0  0  0
   28.2091  -15.5847  -16.7376 C   0  0  0  0  0  0  0  0  0  0  0  0
   27.5898  -15.4549  -15.5284 C   0  0  0  0  0  0  0  0  0  0  0  0
   26.7841  -16.4751  -15.0248 C   0  0  0  0  0  0  0  0  0  0  0  0
   25.6317  -20.5772  -13.6500 C   0  0  0  0  0  0  0  0  0  0  0  0
   25.2412  -21.6550  -14.1845 O   0  0  0  0  0  0  0  0  0  0  0  0
   26.9010  -21.2456  -10.8719 N   0  0  0  0  0  0  0  0  0  0  0  0
   25.9117  -21.1037   -9.8266 C   0  0  0  0  0  0  0  0  0  0  0  0
   26.3165  -21.0412   -8.6540 O   0  0  0  0  0  0  0  0  0  0  0  0
   24.5236  -21.0459  -10.2299 C   0  0  0  0  0  0  0  0  0  0  0  0
   24.2024  -21.1126  -11.7002 C   0  0  2  0  0  0  0  0  0  0  0  0
   25.1827  -20.2021  -12.3623 N   0  0  0  0  0  0  0  0  0  0  0  0
   22.8864  -20.5324  -12.0642 C   0  0  0  0  0  0  0  0  0  0  0  0
   22.7794  -19.2444  -12.0665 O   0  0  0  0  0  0  0  0  0  0  0  0
   21.7173  -21.2137  -12.4199 N   0  0  0  0  0  0  0  0  0  0  0  0
   20.5162  -20.4982  -12.7381 C   0  0  1  0  0  0  0  0  0  0  0  0
   20.7105  -19.5319  -13.8857 C   0  0  0  0  0  0  0  0  0  0  0  0
   21.2408  -20.2864  -15.0432 C   0  0  0  0  0  0  0  0  0  0  0  0
   21.0287  -21.6204  -15.3952 C   0  0  0  0  0  0  0  0  0  0  0  0
   21.7146  -21.8909  -16.5322 N   0  0  0  0  0  0  0  0  0  0  0  0
   22.3665  -20.7989  -16.9430 C   0  0  0  0  0  0  0  0  0  0  0  0
   23.1830  -20.5686  -18.0195 C   0  0  0  0  0  0  0  0  0  0  0  0
   23.7576  -19.3126  -18.2333 C   0  0  0  0  0  0  0  0  0  0  0  0
   23.4789  -18.3118  -17.3281 C   0  0  0  0  0  0  0  0  0  0  0  0
   22.6558  -18.5604  -16.2503 C   0  0  0  0  0  0  0  0  0  0  0  0
   22.0883  -19.8000  -16.0402 C   0  0  0  0  0  0  0  0  0  0  0  0
   19.4586  -21.4593  -13.1128 C   0  0  0  0  0  0  0  0  0  0  0  0
   19.8047  -22.6757  -13.2902 O   0  0  0  0  0  0  0  0  0  0  0  0
   18.1205  -21.1387  -13.2843 O   0  0  0  0  0  0  0  0  0  0  0  0
  2  1  1  6
  3  2  1  0
  4  5  2  0
  4  3  1  0
  6  5  1  0
  7  6  2  0
  8  7  1  0
  8  9  2  0
  9  4  1  0
 10  2  1  0
 11 10  2  0
 13 14  2  0
 13 12  1  0
 15 13  1  0
 16 17  1  0
 16 15  1  1
 17 10  1  0
 18 16  1  0
 19 18  2  0
 20 18  1  0
 21 20  1  0
 21 22  1  6
 23 22  1  0
 23 31  1  0
 24 25  1  0
 24 23  2  0
 25 26  1  0
 26 31  2  0
 26 27  1  0
 27 28  2  0
 28 29  1  0
 30 29  2  0
 31 30  1  0
 32 21  1  0
 32 34  1  0
 33 32  2  0
M  END
$$$$
