FNW.pdb
     RDKit          3D

 34 36  0  0  1  0  0  0  0  0999 V2000
   25.4127  -17.9878  -15.8668 N   0  0  0  0  0  0  0  0  0  0  0  0
   25.9489  -18.7313  -14.7274 C   0  0  1  0  0  0  0  0  0  0  0  0
   27.1314  -17.9602  -14.1362 C   0  0  0  0  0  0  0  0  0  0  0  0
   28.2752  -17.9383  -15.0639 C   0  0  0  0  0  0  0  0  0  0  0  0
   29.1287  -19.0142  -15.1640 C   0  0  0  0  0  0  0  0  0  0  0  0
   30.2121  -19.0345  -16.0249 C   0  0  0  0  0  0  0  0  0  0  0  0
   30.4443  -17.9238  -16.8172 C   0  0  0  0  0  0  0  0  0  0  0  0
   29.6142  -16.8434  -16.7382 C   0  0  0  0  0  0  0  0  0  0  0  0
   28.5270  -16.8396  -15.8654 C   0  0  0  0  0  0  0  0  0  0  0  0
   24.9232  -18.8884  -13.6662 C   0  0  0  0  0  0  0  0  0  0  0  0
   24.2990  -17.8419  -13.3271 O   0  0  0  0  0  0  0  0  0  0  0  0
   21.0866  -20.4300  -10.6749 N   0  0  0  0  0  0  0  0  0  0  0  0
   21.2319  -21.1786  -11.9038 C   0  0  0  0  0  0  0  0  0  0  0  0
   20.2683  -21.8682  -12.2763 O   0  0  0  0  0  0  0  0  0  0  0  0
   22.4922  -21.0655  -12.6049 C   0  0  0  0  0  0  0  0  0  0  0  0
   23.5454  -20.1486  -12.0397 C   0  0  2  0  0  0  0  0  0  0  0  0
   24.6417  -20.1315  -13.0529 N   0  0  0  0  0  0  0  0  0  0  0  0
   24.2091  -20.6624  -10.8164 C   0  0  0  0  0  0  0  0  0  0  0  0
   24.9615  -21.7064  -10.9363 O   0  0  0  0  0  0  0  0  0  0  0  0
   24.1299  -20.1488   -9.5173 N   0  0  0  0  0  0  0  0  0  0  0  0
   24.6303  -20.8940   -8.3994 C   0  0  1  0  0  0  0  0  0  0  0  0
   25.2300  -20.0007   -7.3359 C   0  0  0  0  0  0  0  0  0  0  0  0
   26.7024  -20.1406   -7.3883 C   0  0  0  0  0  0  0  0  0  0  0  0
   27.5135  -20.5039   -8.4646 C   0  0  0  0  0  0  0  0  0  0  0  0
   28.8069  -20.5086   -8.0602 N   0  0  0  0  0  0  0  0  0  0  0  0
   28.8834  -20.1662   -6.7706 C   0  0  0  0  0  0  0  0  0  0  0  0
   29.9489  -20.0313   -5.9190 C   0  0  0  0  0  0  0  0  0  0  0  0
   29.7634  -19.6554   -4.5857 C   0  0  0  0  0  0  0  0  0  0  0  0
   28.4758  -19.4248   -4.1523 C   0  0  0  0  0  0  0  0  0  0  0  0
   27.4152  -19.5653   -5.0220 C   0  0  0  0  0  0  0  0  0  0  0  0
   27.5989  -19.9357   -6.3381 C   0  0  0  0  0  0  0  0  0  0  0  0
   23.5264  -21.6650   -7.7913 C   0  0  0  0  0  0  0  0  0  0  0  0
   22.3335  -21.3123   -8.0800 O   0  0  0  0  0  0  0  0  0  0  0  0
   23.6900  -22.7419   -6.9333 O   0  0  0  0  0  0  0  0  0  0  0  0
  2  1  1  6
  3  2  1  0
  4  5  2  0
  4  3  1  0
  6  5  1  0
  7  6  2  0
  8  7  1  0
  8  9  2  0
  9  4  1  0
 10  2  1  0
 11 10  2  0
 13 14  2  0
 13 12  1  0
 15 13  1  0
 16 17  1  0
 16 15  1  6
 17 10  1  0
 18 16  1  0
 19 18  2  0
 20 18  1  0
 21 20  1  0
 21 22  1  1
 23 22  1  0
 23 31  1  0
 24 25  1  0
 24 23  2  0
 25 26  1  0
 26 31  2  0
 26 27  1  0
 27 28  2  0
 28 29  1  0
 30 29  2  0
 31 30  1  0
 32 21  1  0
 32 34  1  0
 33 32  2  0
M  END
$$$$
