FNW.pdb
     RDKit          3D

 34 36  0  0  1  0  0  0  0  0999 V2000
   24.3784  -17.4703  -17.0020 N   0  0  0  0  0  0  0  0  0  0  0  0
   25.6618  -18.0039  -16.5469 C   0  0  1  0  0  0  0  0  0  0  0  0
   26.2112  -17.1089  -15.4335 C   0  0  0  0  0  0  0  0  0  0  0  0
   26.7028  -15.8278  -15.9686 C   0  0  0  0  0  0  0  0  0  0  0  0
   27.8817  -15.7598  -16.6767 C   0  0  0  0  0  0  0  0  0  0  0  0
   28.3762  -14.5771  -17.1983 C   0  0  0  0  0  0  0  0  0  0  0  0
   27.6518  -13.4152  -16.9972 C   0  0  0  0  0  0  0  0  0  0  0  0
   26.4799  -13.4537  -16.2988 C   0  0  0  0  0  0  0  0  0  0  0  0
   25.9959  -14.6539  -15.7801 C   0  0  0  0  0  0  0  0  0  0  0  0
   25.5029  -19.3750  -16.0011 C   0  0  0  0  0  0  0  0  0  0  0  0
   24.3631  -19.6679  -15.5375 O   0  0  0  0  0  0  0  0  0  0  0  0
   25.9989  -24.4736  -15.1051 N   0  0  0  0  0  0  0  0  0  0  0  0
   27.2169  -23.9992  -15.7239 C   0  0  0  0  0  0  0  0  0  0  0  0
   28.0877  -24.8401  -16.0023 O   0  0  0  0  0  0  0  0  0  0  0  0
   27.3263  -22.5780  -15.9703 C   0  0  0  0  0  0  0  0  0  0  0  0
   26.2351  -21.6764  -15.4547 C   0  0  2  0  0  0  0  0  0  0  0  0
   26.5552  -20.3200  -15.9896 N   0  0  0  0  0  0  0  0  0  0  0  0
   26.2474  -21.4832  -13.9838 C   0  0  0  0  0  0  0  0  0  0  0  0
   27.2048  -20.7759  -13.4803 O   0  0  0  0  0  0  0  0  0  0  0  0
   25.3319  -21.9740  -13.0464 N   0  0  0  0  0  0  0  0  0  0  0  0
   25.2938  -21.4520  -11.7116 C   0  0  1  0  0  0  0  0  0  0  0  0
   26.0786  -20.1659  -11.5755 C   0  0  0  0  0  0  0  0  0  0  0  0
   27.2603  -20.4310  -10.7247 C   0  0  0  0  0  0  0  0  0  0  0  0
   28.5173  -20.9145  -11.0914 C   0  0  0  0  0  0  0  0  0  0  0  0
   29.2942  -21.0071   -9.9849 N   0  0  0  0  0  0  0  0  0  0  0  0
   28.6075  -20.6078   -8.9101 C   0  0  0  0  0  0  0  0  0  0  0  0
   28.9471  -20.5199   -7.5851 C   0  0  0  0  0  0  0  0  0  0  0  0
   28.0303  -20.0632   -6.6343 C   0  0  0  0  0  0  0  0  0  0  0  0
   26.7730  -19.7042   -7.0691 C   0  0  0  0  0  0  0  0  0  0  0  0
   26.4474  -19.7991   -8.4055 C   0  0  0  0  0  0  0  0  0  0  0  0
   27.3531  -20.2492   -9.3437 C   0  0  0  0  0  0  0  0  0  0  0  0
   23.8917  -21.1842  -11.3306 C   0  0  0  0  0  0  0  0  0  0  0  0
   23.6591  -20.8933  -10.1092 O   0  0  0  0  0  0  0  0  0  0  0  0
   22.8124  -21.2241  -12.2002 O   0  0  0  0  0  0  0  0  0  0  0  0
  2  1  1  1
  3  2  1  0
  4  5  2  0
  4  3  1  0
  6  5  1  0
  7  6  2  0
  8  7  1  0
  8  9  2  0
  9  4  1  0
 10  2  1  0
 11 10  2  0
 13 14  2  0
 13 12  1  0
 15 13  1  0
 16 17  1  0
 16 15  1  1
 17 10  1  0
 18 16  1  0
 19 18  2  0
 20 18  1  0
 21 20  1  0
 21 22  1  6
 23 22  1  0
 23 31  1  0
 24 25  1  0
 24 23  2  0
 25 26  1  0
 26 31  2  0
 26 27  1  0
 27 28  2  0
 28 29  1  0
 30 29  2  0
 31 30  1  0
 32 21  1  0
 32 34  1  0
 33 32  2  0
M  END
$$$$
