FNW.pdb
     RDKit          3D

 34 36  0  0  1  0  0  0  0  0999 V2000
   29.0673  -20.7386   -8.9479 N   0  0  0  0  0  0  0  0  0  0  0  0
   27.6084  -20.8344   -8.9146 C   0  0  1  0  0  0  0  0  0  0  0  0
   27.0594  -19.7972   -7.9321 C   0  0  0  0  0  0  0  0  0  0  0  0
   27.7641  -19.8565   -6.6401 C   0  0  0  0  0  0  0  0  0  0  0  0
   27.8665  -21.0384   -5.9410 C   0  0  0  0  0  0  0  0  0  0  0  0
   28.5224  -21.1368   -4.7263 C   0  0  0  0  0  0  0  0  0  0  0  0
   29.0984  -19.9961   -4.1949 C   0  0  0  0  0  0  0  0  0  0  0  0
   29.0119  -18.8113   -4.8666 C   0  0  0  0  0  0  0  0  0  0  0  0
   28.3474  -18.7297   -6.0895 C   0  0  0  0  0  0  0  0  0  0  0  0
   27.0277  -20.5564  -10.2520 C   0  0  0  0  0  0  0  0  0  0  0  0
   27.2913  -19.4269  -10.7565 O   0  0  0  0  0  0  0  0  0  0  0  0
   27.0184  -20.4354  -15.3379 N   0  0  0  0  0  0  0  0  0  0  0  0
   26.5021  -21.6154  -14.6801 C   0  0  0  0  0  0  0  0  0  0  0  0
   25.8890  -22.4419  -15.3758 O   0  0  0  0  0  0  0  0  0  0  0  0
   26.7404  -21.7409  -13.2588 C   0  0  0  0  0  0  0  0  0  0  0  0
   25.7621  -21.0989  -12.3100 C   0  0  2  0  0  0  0  0  0  0  0  0
   26.2202  -21.4890  -10.9438 N   0  0  0  0  0  0  0  0  0  0  0  0
   24.3866  -21.6492  -12.3871 C   0  0  0  0  0  0  0  0  0  0  0  0
   24.1901  -22.8388  -11.9217 O   0  0  0  0  0  0  0  0  0  0  0  0
   23.2433  -21.0315  -12.9058 N   0  0  0  0  0  0  0  0  0  0  0  0
   21.9881  -21.7231  -12.9483 C   0  0  1  0  0  0  0  0  0  0  0  0
   20.9589  -21.1019  -12.0299 C   0  0  0  0  0  0  0  0  0  0  0  0
   20.7822  -19.6855  -12.4212 C   0  0  0  0  0  0  0  0  0  0  0  0
   21.5932  -18.8894  -13.2316 C   0  0  0  0  0  0  0  0  0  0  0  0
   21.0509  -17.6504  -13.3165 N   0  0  0  0  0  0  0  0  0  0  0  0
   19.9235  -17.5953  -12.6009 C   0  0  0  0  0  0  0  0  0  0  0  0
   19.0292  -16.5815  -12.3746 C   0  0  0  0  0  0  0  0  0  0  0  0
   17.9041  -16.7786  -11.5694 C   0  0  0  0  0  0  0  0  0  0  0  0
   17.7208  -18.0239  -11.0086 C   0  0  0  0  0  0  0  0  0  0  0  0
   18.6302  -19.0326  -11.2460 C   0  0  0  0  0  0  0  0  0  0  0  0
   19.7402  -18.8377  -12.0415 C   0  0  0  0  0  0  0  0  0  0  0  0
   21.4594  -21.6935  -14.3275 C   0  0  0  0  0  0  0  0  0  0  0  0
   22.0922  -20.9905  -15.1854 O   0  0  0  0  0  0  0  0  0  0  0  0
   20.3298  -22.3727  -14.7584 O   0  0  0  0  0  0  0  0  0  0  0  0
  2  1  1  6
  3  2  1  0
  4  5  2  0
  4  3  1  0
  6  5  1  0
  7  6  2  0
  8  7  1  0
  8  9  2  0
  9  4  1  0
 10  2  1  0
 11 10  2  0
 13 14  2  0
 13 12  1  0
 15 13  1  0
 16 17  1  0
 16 15  1  6
 17 10  1  0
 18 16  1  0
 19 18  2  0
 20 18  1  0
 21 20  1  0
 21 22  1  1
 23 22  1  0
 23 31  1  0
 24 25  1  0
 24 23  2  0
 25 26  1  0
 26 31  2  0
 26 27  1  0
 27 28  2  0
 28 29  1  0
 30 29  2  0
 31 30  1  0
 32 21  1  0
 32 34  1  0
 33 32  2  0
M  END
$$$$
