FNW.pdb
     RDKit          3D

 34 36  0  0  1  0  0  0  0  0999 V2000
   13.7103  -21.7611    2.1351 N   0  0  0  0  0  0  0  0  0  0  0  0
   14.9658  -21.8035    2.8838 C   0  0  1  0  0  0  0  0  0  0  0  0
   16.1236  -21.4639    1.9422 C   0  0  0  0  0  0  0  0  0  0  0  0
   16.3348  -22.5281    0.9462 C   0  0  0  0  0  0  0  0  0  0  0  0
   15.9185  -22.3734   -0.3572 C   0  0  0  0  0  0  0  0  0  0  0  0
   16.1008  -23.3473   -1.3234 C   0  0  0  0  0  0  0  0  0  0  0  0
   16.7287  -24.5258   -0.9599 C   0  0  0  0  0  0  0  0  0  0  0  0
   17.1515  -24.7059    0.3251 C   0  0  0  0  0  0  0  0  0  0  0  0
   16.9599  -23.7142    1.2862 C   0  0  0  0  0  0  0  0  0  0  0  0
   14.9602  -20.8095    3.9860 C   0  0  0  0  0  0  0  0  0  0  0  0
   13.9019  -20.1313    4.1272 O   0  0  0  0  0  0  0  0  0  0  0  0
   14.9081  -20.5408    9.2957 N   0  0  0  0  0  0  0  0  0  0  0  0
   16.1380  -20.2834    8.5796 C   0  0  0  0  0  0  0  0  0  0  0  0
   17.0337  -19.6630    9.1760 O   0  0  0  0  0  0  0  0  0  0  0  0
   16.2287  -20.7697    7.2202 C   0  0  0  0  0  0  0  0  0  0  0  0
   15.8157  -19.8488    6.1019 C   0  0  2  0  0  0  0  0  0  0  0  0
   16.0669  -20.6137    4.8447 N   0  0  0  0  0  0  0  0  0  0  0  0
   16.6709  -18.6456    5.9549 C   0  0  0  0  0  0  0  0  0  0  0  0
   17.8796  -18.8176    5.5307 O   0  0  0  0  0  0  0  0  0  0  0  0
   16.3306  -17.3139    6.2166 N   0  0  0  0  0  0  0  0  0  0  0  0
   17.3233  -16.2800    6.1827 C   0  0  1  0  0  0  0  0  0  0  0  0
   16.7284  -14.9055    6.3956 C   0  0  0  0  0  0  0  0  0  0  0  0
   17.6044  -13.9130    5.7338 C   0  0  0  0  0  0  0  0  0  0  0  0
   17.4424  -13.2817    4.4995 C   0  0  0  0  0  0  0  0  0  0  0  0
   18.4909  -12.4493    4.2890 N   0  0  0  0  0  0  0  0  0  0  0  0
   19.3329  -12.5042    5.3254 C   0  0  0  0  0  0  0  0  0  0  0  0
   20.5167  -11.8623    5.5806 C   0  0  0  0  0  0  0  0  0  0  0  0
   21.2243  -12.0971    6.7628 C   0  0  0  0  0  0  0  0  0  0  0  0
   20.6959  -12.9948    7.6648 C   0  0  0  0  0  0  0  0  0  0  0  0
   19.5041  -13.6323    7.3925 C   0  0  0  0  0  0  0  0  0  0  0  0
   18.8058  -13.3996    6.2258 C   0  0  0  0  0  0  0  0  0  0  0  0
   18.3214  -16.5248    7.2443 C   0  0  0  0  0  0  0  0  0  0  0  0
   17.8852  -16.7189    8.4286 O   0  0  0  0  0  0  0  0  0  0  0  0
   19.6937  -16.5604    7.0492 O   0  0  0  0  0  0  0  0  0  0  0  0
  2  1  1  6
  3  2  1  0
  4  5  2  0
  4  3  1  0
  6  5  1  0
  7  6  2  0
  8  7  1  0
  8  9  2  0
  9  4  1  0
 10  2  1  0
 11 10  2  0
 13 14  2  0
 13 12  1  0
 15 13  1  0
 16 17  1  0
 16 15  1  1
 17 10  1  0
 18 16  1  0
 19 18  2  0
 20 18  1  0
 21 20  1  0
 21 22  1  1
 23 22  1  0
 23 31  1  0
 24 25  1  0
 24 23  2  0
 25 26  1  0
 26 31  2  0
 26 27  1  0
 27 28  2  0
 28 29  1  0
 30 29  2  0
 31 30  1  0
 32 21  1  0
 32 34  1  0
 33 32  2  0
M  END
$$$$
