WHV.pdb
     RDKit          3D

 32 34  0  0  1  0  0  0  0  0999 V2000
   26.2705  -18.2576   -8.8987 N   0  0  0  0  0  0  0  0  0  0  0  0
   26.6574  -19.5919   -9.2188 C   0  0  1  0  0  0  0  0  0  0  0  0
   26.6247  -20.4638   -8.0220 C   0  0  0  0  0  0  0  0  0  0  0  0
   27.2458  -19.8933   -6.8160 C   0  0  0  0  0  0  0  0  0  0  0  0
   26.7720  -19.0364   -5.8716 C   0  0  0  0  0  0  0  0  0  0  0  0
   27.7181  -18.8148   -4.9725 N   0  0  0  0  0  0  0  0  0  0  0  0
   28.8216  -19.5087   -5.2963 C   0  0  0  0  0  0  0  0  0  0  0  0
   30.0547  -19.6116   -4.6892 C   0  0  0  0  0  0  0  0  0  0  0  0
   31.0003  -20.4171   -5.2706 C   0  0  0  0  0  0  0  0  0  0  0  0
   30.7590  -21.1207   -6.4323 C   0  0  0  0  0  0  0  0  0  0  0  0
   29.5288  -21.0168   -7.0361 C   0  0  0  0  0  0  0  0  0  0  0  0
   28.5594  -20.2022   -6.4560 C   0  0  0  0  0  0  0  0  0  0  0  0
   25.9339  -20.1327  -10.3949 C   0  0  0  0  0  0  0  0  0  0  0  0
   24.7477  -19.7396  -10.5715 O   0  0  0  0  0  0  0  0  0  0  0  0
   26.5203  -21.0516  -11.2982 N   0  0  0  0  0  0  0  0  0  0  0  0
   25.9371  -21.2411  -12.5943 C   0  0  1  0  0  0  0  0  0  0  0  0
   26.7534  -22.2176  -13.4398 C   0  0  0  0  0  0  0  0  0  0  0  0
   26.1891  -22.3648  -14.8027 C   0  0  0  0  0  0  0  0  0  0  0  0
   25.5239  -23.4550  -15.3235 C   0  0  0  0  0  0  0  0  0  0  0  0
   25.1650  -23.2080  -16.5923 N   0  0  0  0  0  0  0  0  0  0  0  0
   25.5871  -21.9741  -16.9025 C   0  0  0  0  0  0  0  0  0  0  0  0
   26.2156  -21.4557  -15.8050 N   0  0  0  0  0  0  0  0  0  0  0  0
   24.5385  -21.7563  -12.5044 C   0  0  0  0  0  0  0  0  0  0  0  0
   24.1633  -22.4390  -11.5201 O   0  0  0  0  0  0  0  0  0  0  0  0
   21.2754  -20.6730  -11.0458 C   0  0  0  0  0  0  0  0  0  0  0  0
   21.8519  -20.2054  -12.3421 C   0  0  2  0  0  0  0  0  0  0  0  0
   21.0469  -19.1097  -13.0054 C   0  0  0  0  0  0  0  0  0  0  0  0
   22.1684  -21.3276  -13.3069 C   0  0  2  0  0  0  0  0  0  0  0  0
   23.5881  -21.4909  -13.5288 N   0  0  0  0  0  0  0  0  0  0  0  0
   21.5077  -21.0676  -14.6105 C   0  0  0  0  0  0  0  0  0  0  0  0
   22.0800  -20.4101  -15.5045 O   0  0  0  0  0  0  0  0  0  0  0  0
   20.2154  -21.5673  -14.8502 O   0  0  0  0  0  0  0  0  0  0  0  0
  2  1  1  1
  3  2  1  0
  3  4  1  0
  4  5  2  0
  5  6  1  0
  7  6  1  0
  8  7  2  0
  9  8  1  0
 10 11  1  0
 10  9  2  0
 11 12  2  0
 12  4  1  0
 12  7  1  0
 13  2  1  0
 13 14  2  0
 15 13  1  0
 16 15  1  0
 16 17  1  6
 18 22  1  0
 18 17  1  0
 19 18  2  0
 20 19  1  0
 20 21  1  0
 21 22  2  0
 23 16  1  0
 24 23  2  0
 26 25  1  1
 27 26  1  0
 28 26  1  0
 28 29  1  6
 29 23  1  0
 30 28  1  0
 31 30  2  0
 32 30  1  0
M  END
$$$$
