WHV.pdb
     RDKit          3D

 32 34  0  0  1  0  0  0  0  0999 V2000
   15.2489  -16.2735    3.8147 N   0  0  0  0  0  0  0  0  0  0  0  0
   16.5009  -16.9412    3.9532 C   0  0  1  0  0  0  0  0  0  0  0  0
   17.5800  -16.2141    3.2456 C   0  0  0  0  0  0  0  0  0  0  0  0
   18.2698  -16.9842    2.1983 C   0  0  0  0  0  0  0  0  0  0  0  0
   17.9159  -18.1080    1.5183 C   0  0  0  0  0  0  0  0  0  0  0  0
   18.8802  -18.4226    0.6676 N   0  0  0  0  0  0  0  0  0  0  0  0
   19.8781  -17.5287    0.7639 C   0  0  0  0  0  0  0  0  0  0  0  0
   21.0827  -17.4201    0.1031 C   0  0  0  0  0  0  0  0  0  0  0  0
   21.9098  -16.3749    0.4267 C   0  0  0  0  0  0  0  0  0  0  0  0
   21.5775  -15.4380    1.3831 C   0  0  0  0  0  0  0  0  0  0  0  0
   20.3758  -15.5480    2.0408 C   0  0  0  0  0  0  0  0  0  0  0  0
   19.5266  -16.6048    1.7217 C   0  0  0  0  0  0  0  0  0  0  0  0
   16.8130  -17.2896    5.3605 C   0  0  0  0  0  0  0  0  0  0  0  0
   16.6628  -16.3822    6.2247 O   0  0  0  0  0  0  0  0  0  0  0  0
   17.2622  -18.5745    5.7493 N   0  0  0  0  0  0  0  0  0  0  0  0
   17.6495  -18.8079    7.1100 C   0  0  1  0  0  0  0  0  0  0  0  0
   17.1567  -20.1654    7.6091 C   0  0  0  0  0  0  0  0  0  0  0  0
   15.6885  -20.1726    7.8136 C   0  0  0  0  0  0  0  0  0  0  0  0
   14.9551  -19.3752    8.6672 C   0  0  0  0  0  0  0  0  0  0  0  0
   13.6521  -19.6787    8.5695 N   0  0  0  0  0  0  0  0  0  0  0  0
   13.5289  -20.6607    7.6653 C   0  0  0  0  0  0  0  0  0  0  0  0
   14.7779  -20.9645    7.2008 N   0  0  0  0  0  0  0  0  0  0  0  0
   19.1318  -18.7561    7.2825 C   0  0  0  0  0  0  0  0  0  0  0  0
   19.9014  -19.2051    6.3982 O   0  0  0  0  0  0  0  0  0  0  0  0
   20.9621  -16.7673   10.8195 C   0  0  0  0  0  0  0  0  0  0  0  0
   21.5073  -16.8125    9.4297 C   0  0  2  0  0  0  0  0  0  0  0  0
   21.2110  -15.5697    8.6196 C   0  0  0  0  0  0  0  0  0  0  0  0
   21.1421  -18.0717    8.6737 C   0  0  2  0  0  0  0  0  0  0  0  0
   19.7186  -18.1980    8.4517 N   0  0  0  0  0  0  0  0  0  0  0  0
   21.6162  -19.2611    9.4247 C   0  0  0  0  0  0  0  0  0  0  0  0
   20.8281  -19.9525   10.1030 O   0  0  0  0  0  0  0  0  0  0  0  0
   22.9743  -19.6219    9.3760 O   0  0  0  0  0  0  0  0  0  0  0  0
  2  1  1  1
  3  2  1  0
  3  4  1  0
  4  5  2  0
  5  6  1  0
  7  6  1  0
  8  7  2  0
  9  8  1  0
 10 11  1  0
 10  9  2  0
 11 12  2  0
 12  4  1  0
 12  7  1  0
 13  2  1  0
 13 14  2  0
 15 13  1  0
 16 15  1  0
 16 17  1  6
 18 22  1  0
 18 17  1  0
 19 18  2  0
 20 19  1  0
 20 21  1  0
 21 22  2  0
 23 16  1  0
 24 23  2  0
 26 25  1  1
 27 26  1  0
 28 26  1  0
 28 29  1  1
 29 23  1  0
 30 28  1  0
 31 30  2  0
 32 30  1  0
M  END
$$$$
