WHV.pdb
     RDKit          3D

 32 34  0  0  1  0  0  0  0  0999 V2000
   24.6083  -19.3706   -8.2666 N   0  0  0  0  0  0  0  0  0  0  0  0
   25.8155  -19.9120   -8.7977 C   0  0  1  0  0  0  0  0  0  0  0  0
   26.2925  -21.0584   -7.9902 C   0  0  0  0  0  0  0  0  0  0  0  0
   26.5553  -20.7586   -6.5737 C   0  0  0  0  0  0  0  0  0  0  0  0
   25.7589  -20.8160   -5.4724 C   0  0  0  0  0  0  0  0  0  0  0  0
   26.4574  -20.4438   -4.4113 N   0  0  0  0  0  0  0  0  0  0  0  0
   27.7118  -20.1365   -4.7803 C   0  0  0  0  0  0  0  0  0  0  0  0
   28.8032  -19.7035   -4.0585 C   0  0  0  0  0  0  0  0  0  0  0  0
   29.9754  -19.4682   -4.7304 C   0  0  0  0  0  0  0  0  0  0  0  0
   30.0957  -19.6495   -6.0927 C   0  0  0  0  0  0  0  0  0  0  0  0
   29.0065  -20.0814   -6.8107 C   0  0  0  0  0  0  0  0  0  0  0  0
   27.8099  -20.3240   -6.1404 C   0  0  0  0  0  0  0  0  0  0  0  0
   25.7338  -20.1764  -10.2546 C   0  0  0  0  0  0  0  0  0  0  0  0
   24.6176  -19.9864  -10.8121 O   0  0  0  0  0  0  0  0  0  0  0  0
   26.8412  -20.6235  -11.0147 N   0  0  0  0  0  0  0  0  0  0  0  0
   26.8364  -20.4574  -12.4389 C   0  0  1  0  0  0  0  0  0  0  0  0
   28.1748  -20.8614  -13.0558 C   0  0  0  0  0  0  0  0  0  0  0  0
   28.1551  -20.7387  -14.5329 C   0  0  0  0  0  0  0  0  0  0  0  0
   27.0823  -20.4089  -15.3345 C   0  0  0  0  0  0  0  0  0  0  0  0
   27.4596  -20.3994  -16.6218 N   0  0  0  0  0  0  0  0  0  0  0  0
   28.7609  -20.7178  -16.6676 C   0  0  0  0  0  0  0  0  0  0  0  0
   29.1887  -20.9262  -15.3863 N   0  0  0  0  0  0  0  0  0  0  0  0
   25.7598  -21.2625  -13.0887 C   0  0  0  0  0  0  0  0  0  0  0  0
   25.7123  -22.5093  -12.9501 O   0  0  0  0  0  0  0  0  0  0  0  0
   22.1601  -19.3224  -14.6331 C   0  0  0  0  0  0  0  0  0  0  0  0
   22.3087  -20.7335  -14.1664 C   0  0  2  0  0  0  0  0  0  0  0  0
   21.9512  -20.9330  -12.7100 C   0  0  0  0  0  0  0  0  0  0  0  0
   23.6515  -21.3465  -14.5005 C   0  0  2  0  0  0  0  0  0  0  0  0
   24.7557  -20.6446  -13.8842 N   0  0  0  0  0  0  0  0  0  0  0  0
   23.8480  -21.3487  -15.9717 C   0  0  0  0  0  0  0  0  0  0  0  0
   24.6374  -20.5507  -16.5188 O   0  0  0  0  0  0  0  0  0  0  0  0
   23.1369  -22.2623  -16.7697 O   0  0  0  0  0  0  0  0  0  0  0  0
  2  1  1  1
  3  2  1  0
  3  4  1  0
  4  5  2  0
  5  6  1  0
  7  6  1  0
  8  7  2  0
  9  8  1  0
 10 11  1  0
 10  9  2  0
 11 12  2  0
 12  4  1  0
 12  7  1  0
 13  2  1  0
 13 14  2  0
 15 13  1  0
 16 15  1  0
 16 17  1  6
 18 22  1  0
 18 17  1  0
 19 18  2  0
 20 19  1  0
 20 21  1  0
 21 22  2  0
 23 16  1  0
 24 23  2  0
 26 25  1  1
 27 26  1  0
 28 26  1  0
 28 29  1  1
 29 23  1  0
 30 28  1  0
 31 30  2  0
 32 30  1  0
M  END
$$$$
