WHV.pdb
     RDKit          3D

 32 34  0  0  1  0  0  0  0  0999 V2000
   22.3242  -21.0381  -15.3524 N   0  0  0  0  0  0  0  0  0  0  0  0
   23.1750  -20.0502  -14.7755 C   0  0  1  0  0  0  0  0  0  0  0  0
   22.3891  -18.9639  -14.1460 C   0  0  0  0  0  0  0  0  0  0  0  0
   21.7584  -18.0236  -15.0859 C   0  0  0  0  0  0  0  0  0  0  0  0
   20.4676  -17.8734  -15.4882 C   0  0  0  0  0  0  0  0  0  0  0  0
   20.3969  -16.8786  -16.3587 N   0  0  0  0  0  0  0  0  0  0  0  0
   21.6196  -16.3563  -16.5493 C   0  0  0  0  0  0  0  0  0  0  0  0
   22.0645  -15.3222  -17.3445 C   0  0  0  0  0  0  0  0  0  0  0  0
   23.4012  -15.0159  -17.3252 C   0  0  0  0  0  0  0  0  0  0  0  0
   24.3059  -15.7032  -16.5427 C   0  0  0  0  0  0  0  0  0  0  0  0
   23.8603  -16.7338  -15.7503 C   0  0  0  0  0  0  0  0  0  0  0  0
   22.5051  -17.0552  -15.7606 C   0  0  0  0  0  0  0  0  0  0  0  0
   24.2252  -20.6340  -13.9063 C   0  0  0  0  0  0  0  0  0  0  0  0
   23.8699  -21.5423  -13.1054 O   0  0  0  0  0  0  0  0  0  0  0  0
   25.5759  -20.2121  -13.9490 N   0  0  0  0  0  0  0  0  0  0  0  0
   26.4868  -20.6484  -12.9313 C   0  0  1  0  0  0  0  0  0  0  0  0
   27.9390  -20.3850  -13.3273 C   0  0  0  0  0  0  0  0  0  0  0  0
   28.8813  -20.8139  -12.2665 C   0  0  0  0  0  0  0  0  0  0  0  0
   28.5793  -21.4549  -11.0832 C   0  0  0  0  0  0  0  0  0  0  0  0
   29.7025  -21.6775  -10.3844 N   0  0  0  0  0  0  0  0  0  0  0  0
   30.7287  -21.1909  -11.0964 C   0  0  0  0  0  0  0  0  0  0  0  0
   30.2260  -20.6608  -12.2516 N   0  0  0  0  0  0  0  0  0  0  0  0
   26.2278  -19.9710  -11.6261 C   0  0  0  0  0  0  0  0  0  0  0  0
   26.0977  -18.7242  -11.5595 O   0  0  0  0  0  0  0  0  0  0  0  0
   24.4427  -20.3106   -7.0365 C   0  0  0  0  0  0  0  0  0  0  0  0
   24.8755  -20.9676   -8.3062 C   0  0  2  0  0  0  0  0  0  0  0  0
   25.3769  -22.3825   -8.1185 C   0  0  0  0  0  0  0  0  0  0  0  0
   25.8419  -20.1366   -9.1223 C   0  0  2  0  0  0  0  0  0  0  0  0
   26.1206  -20.7146  -10.4184 N   0  0  0  0  0  0  0  0  0  0  0  0
   27.1195  -19.9847   -8.3820 C   0  0  0  0  0  0  0  0  0  0  0  0
   28.1459  -20.6038   -8.7320 O   0  0  0  0  0  0  0  0  0  0  0  0
   27.1830  -19.1307   -7.2668 O   0  0  0  0  0  0  0  0  0  0  0  0
  2  1  1  1
  3  2  1  0
  3  4  1  0
  4  5  2  0
  5  6  1  0
  7  6  1  0
  8  7  2  0
  9  8  1  0
 10 11  1  0
 10  9  2  0
 11 12  2  0
 12  4  1  0
 12  7  1  0
 13  2  1  0
 13 14  2  0
 15 13  1  0
 16 15  1  0
 16 17  1  6
 18 22  1  0
 18 17  1  0
 19 18  2  0
 20 19  1  0
 20 21  1  0
 21 22  2  0
 23 16  1  0
 24 23  2  0
 26 25  1  1
 27 26  1  0
 28 26  1  0
 28 29  1  6
 29 23  1  0
 30 28  1  0
 31 30  2  0
 32 30  1  0
M  END
$$$$
