WHV.pdb
     RDKit          3D

 32 34  0  0  1  0  0  0  0  0999 V2000
   25.2131  -18.9780   -8.5545 N   0  0  0  0  0  0  0  0  0  0  0  0
   26.1810  -19.8788   -9.0876 C   0  0  1  0  0  0  0  0  0  0  0  0
   26.2518  -21.1259   -8.2917 C   0  0  0  0  0  0  0  0  0  0  0  0
   26.4088  -20.9334   -6.8412 C   0  0  0  0  0  0  0  0  0  0  0  0
   25.5659  -21.1679   -5.7995 C   0  0  0  0  0  0  0  0  0  0  0  0
   26.1670  -20.8291   -4.6698 N   0  0  0  0  0  0  0  0  0  0  0  0
   27.4014  -20.3702   -4.9339 C   0  0  0  0  0  0  0  0  0  0  0  0
   28.4042  -19.9023   -4.1122 C   0  0  0  0  0  0  0  0  0  0  0  0
   29.5800  -19.4949   -4.6888 C   0  0  0  0  0  0  0  0  0  0  0  0
   29.7889  -19.5380   -6.0517 C   0  0  0  0  0  0  0  0  0  0  0  0
   28.7878  -20.0049   -6.8693 C   0  0  0  0  0  0  0  0  0  0  0  0
   27.5887  -20.4219   -6.2965 C   0  0  0  0  0  0  0  0  0  0  0  0
   26.0276  -20.0878  -10.5477 C   0  0  0  0  0  0  0  0  0  0  0  0
   24.8982  -19.8328  -11.0500 O   0  0  0  0  0  0  0  0  0  0  0  0
   27.0826  -20.5525  -11.3694 N   0  0  0  0  0  0  0  0  0  0  0  0
   26.9553  -20.4779  -12.7956 C   0  0  1  0  0  0  0  0  0  0  0  0
   28.2547  -20.8719  -13.4966 C   0  0  0  0  0  0  0  0  0  0  0  0
   28.1296  -20.7813  -14.9709 C   0  0  0  0  0  0  0  0  0  0  0  0
   27.0283  -20.3801  -15.6977 C   0  0  0  0  0  0  0  0  0  0  0  0
   27.3031  -20.4316  -17.0097 N   0  0  0  0  0  0  0  0  0  0  0  0
   28.5660  -20.8600  -17.1452 C   0  0  0  0  0  0  0  0  0  0  0  0
   29.0742  -21.0749  -15.8947 N   0  0  0  0  0  0  0  0  0  0  0  0
   25.8637  -21.3614  -13.3031 C   0  0  0  0  0  0  0  0  0  0  0  0
   25.8204  -22.5774  -12.9945 O   0  0  0  0  0  0  0  0  0  0  0  0
   22.1883  -20.3943  -12.9666 C   0  0  0  0  0  0  0  0  0  0  0  0
   22.3848  -20.8686  -14.3693 C   0  0  2  0  0  0  0  0  0  0  0  0
   21.2053  -21.6380  -14.9218 C   0  0  0  0  0  0  0  0  0  0  0  0
   23.6857  -21.6116  -14.5834 C   0  0  2  0  0  0  0  0  0  0  0  0
   24.8399  -20.8551  -14.1507 N   0  0  0  0  0  0  0  0  0  0  0  0
   23.8424  -21.9414  -16.0222 C   0  0  0  0  0  0  0  0  0  0  0  0
   24.1528  -21.0646  -16.8553 O   0  0  0  0  0  0  0  0  0  0  0  0
   23.6396  -23.2614  -16.4620 O   0  0  0  0  0  0  0  0  0  0  0  0
  2  1  1  1
  3  2  1  0
  3  4  1  0
  4  5  2  0
  5  6  1  0
  7  6  1  0
  8  7  2  0
  9  8  1  0
 10 11  1  0
 10  9  2  0
 11 12  2  0
 12  4  1  0
 12  7  1  0
 13  2  1  0
 13 14  2  0
 15 13  1  0
 16 15  1  0
 16 17  1  6
 18 22  1  0
 18 17  1  0
 19 18  2  0
 20 19  1  0
 20 21  1  0
 21 22  2  0
 23 16  1  0
 24 23  2  0
 26 25  1  1
 27 26  1  0
 28 26  1  0
 28 29  1  6
 29 23  1  0
 30 28  1  0
 31 30  2  0
 32 30  1  0
M  END
$$$$
