IHV.pdb
     RDKit          3D

 26 26  0  0  1  0  0  0  0  0999 V2000
   10.5117  -11.2260   -9.4032 C   0  0  0  0  0  0  0  0  0  0  0  0
   11.7344  -11.8355  -10.0237 C   0  0  0  0  0  0  0  0  0  0  0  0
   11.6871  -11.7492  -11.5528 C   0  0  2  0  0  0  0  0  0  0  0  0
   10.4381  -12.4822  -11.9935 C   0  0  0  0  0  0  0  0  0  0  0  0
   12.8766  -12.5311  -12.0697 C   0  0  2  0  0  0  0  0  0  0  0  0
   12.8509  -13.8355  -11.4485 N   0  0  0  0  0  0  0  0  0  0  0  0
   14.1566  -11.7960  -11.7677 C   0  0  0  0  0  0  0  0  0  0  0  0
   14.7849  -12.1628  -10.7443 O   0  0  0  0  0  0  0  0  0  0  0  0
   14.5462  -10.7714  -12.6394 N   0  0  0  0  0  0  0  0  0  0  0  0
   15.8057   -9.9883  -12.3823 C   0  0  1  0  0  0  0  0  0  0  0  0
   16.4911   -9.8065  -13.6770 C   0  0  0  0  0  0  0  0  0  0  0  0
   17.7055   -8.9892  -13.6776 C   0  0  0  0  0  0  0  0  0  0  0  0
   19.0332   -9.2898  -13.6016 C   0  0  0  0  0  0  0  0  0  0  0  0
   19.7695   -8.1772  -13.7472 N   0  0  0  0  0  0  0  0  0  0  0  0
   18.9289   -7.1539  -13.9185 C   0  0  0  0  0  0  0  0  0  0  0  0
   17.6865   -7.6252  -13.8794 N   0  0  0  0  0  0  0  0  0  0  0  0
   15.2469   -8.7775  -11.7407 C   0  0  0  0  0  0  0  0  0  0  0  0
   14.1220   -8.3473  -12.2342 O   0  0  0  0  0  0  0  0  0  0  0  0
   13.7423   -7.7183   -8.4423 C   0  0  0  0  0  0  0  0  0  0  0  0
   14.8398   -6.7297   -8.7744 C   0  0  1  0  0  0  0  0  0  0  0  0
   16.0878   -7.0065   -7.9946 C   0  0  0  0  0  0  0  0  0  0  0  0
   15.0359   -6.7599  -10.2616 C   0  0  2  0  0  0  0  0  0  0  0  0
   15.7047   -7.9963  -10.6897 N   0  0  0  0  0  0  0  0  0  0  0  0
   15.9368   -5.6409  -10.6406 C   0  0  0  0  0  0  0  0  0  0  0  0
   15.4856   -4.3225  -10.5890 O   0  0  0  0  0  0  0  0  0  0  0  0
   17.1212   -5.8103  -11.0182 O   0  0  0  0  0  0  0  0  0  0  0  0
  2  3  1  0
  2  1  1  0
  3  4  1  6
  5  6  1  1
  5  3  1  0
  7  5  1  0
  8  7  2  0
  9  7  1  0
 10  9  1  0
 11 12  1  0
 10 11  1  6
 12 16  1  0
 13 14  1  0
 13 12  2  0
 14 15  1  0
 15 16  2  0
 17 10  1  0
 17 18  2  0
 20 19  1  6
 20 22  1  0
 20 21  1  0
 22 23  1  1
 23 17  1  0
 24 22  1  0
 25 24  1  0
 26 24  2  0
M  END
$$$$
