IHV.pdb
     RDKit          3D

 26 26  0  0  1  0  0  0  0  0999 V2000
   28.1779  -19.6092   -6.3429 C   0  0  0  0  0  0  0  0  0  0  0  0
   28.2316  -20.5314   -7.5254 C   0  0  0  0  0  0  0  0  0  0  0  0
   27.3233  -20.0412   -8.6579 C   0  0  2  0  0  0  0  0  0  0  0  0
   25.9017  -20.1221   -8.1441 C   0  0  0  0  0  0  0  0  0  0  0  0
   27.4545  -21.0436   -9.7856 C   0  0  2  0  0  0  0  0  0  0  0  0
   28.8632  -21.2361  -10.0431 N   0  0  0  0  0  0  0  0  0  0  0  0
   26.7271  -20.5515  -11.0098 C   0  0  0  0  0  0  0  0  0  0  0  0
   27.1517  -19.4872  -11.5234 O   0  0  0  0  0  0  0  0  0  0  0  0
   25.6453  -21.3074  -11.4784 N   0  0  0  0  0  0  0  0  0  0  0  0
   24.9652  -20.9463  -12.7718 C   0  0  1  0  0  0  0  0  0  0  0  0
   25.5036  -21.8323  -13.8226 C   0  0  0  0  0  0  0  0  0  0  0  0
   24.8848  -21.7466  -15.1463 C   0  0  0  0  0  0  0  0  0  0  0  0
   23.8590  -21.0036  -15.6510 C   0  0  0  0  0  0  0  0  0  0  0  0
   23.7373  -21.2170  -16.9704 N   0  0  0  0  0  0  0  0  0  0  0  0
   24.6785  -22.0941  -17.3280 C   0  0  0  0  0  0  0  0  0  0  0  0
   25.3755  -22.4212  -16.2443 N   0  0  0  0  0  0  0  0  0  0  0  0
   23.5466  -21.1343  -12.3947 C   0  0  0  0  0  0  0  0  0  0  0  0
   23.3058  -22.1254  -11.5860 O   0  0  0  0  0  0  0  0  0  0  0  0
   21.1112  -19.0374  -10.5253 C   0  0  0  0  0  0  0  0  0  0  0  0
   20.3504  -19.5533  -11.7282 C   0  0  1  0  0  0  0  0  0  0  0  0
   20.1765  -18.4913  -12.7695 C   0  0  0  0  0  0  0  0  0  0  0  0
   21.0679  -20.7746  -12.2230 C   0  0  2  0  0  0  0  0  0  0  0  0
   22.3989  -20.4394  -12.7475 N   0  0  0  0  0  0  0  0  0  0  0  0
   20.2988  -21.3447  -13.3592 C   0  0  0  0  0  0  0  0  0  0  0  0
   19.2044  -22.1763  -13.1246 O   0  0  0  0  0  0  0  0  0  0  0  0
   20.5796  -21.1187  -14.5609 O   0  0  0  0  0  0  0  0  0  0  0  0
  2  3  1  0
  2  1  1  0
  3  4  1  1
  5  6  1  6
  5  3  1  0
  7  5  1  0
  8  7  2  0
  9  7  1  0
 10  9  1  0
 11 12  1  0
 10 11  1  6
 12 16  1  0
 13 14  1  0
 13 12  2  0
 14 15  1  0
 15 16  2  0
 17 10  1  0
 17 18  2  0
 20 19  1  1
 20 22  1  0
 20 21  1  0
 22 23  1  6
 23 17  1  0
 24 22  1  0
 25 24  1  0
 26 24  2  0
M  END
$$$$
