IHV.pdb
     RDKit          3D

 26 26  0  0  1  0  0  0  0  0999 V2000
   11.0286  -10.6011  -17.2788 C   0  0  0  0  0  0  0  0  0  0  0  0
   12.4318  -11.0070  -17.6223 C   0  0  0  0  0  0  0  0  0  0  0  0
   13.4390  -10.4441  -16.6141 C   0  0  2  0  0  0  0  0  0  0  0  0
   13.4249   -8.9391  -16.7761 C   0  0  0  0  0  0  0  0  0  0  0  0
   14.8059  -10.9328  -17.0455 C   0  0  2  0  0  0  0  0  0  0  0  0
   14.8357  -12.3674  -16.8747 N   0  0  0  0  0  0  0  0  0  0  0  0
   15.8824  -10.2538  -16.2393 C   0  0  0  0  0  0  0  0  0  0  0  0
   15.9204  -10.5264  -15.0142 O   0  0  0  0  0  0  0  0  0  0  0  0
   16.7498   -9.3803  -16.9070 N   0  0  0  0  0  0  0  0  0  0  0  0
   17.8432   -8.6685  -16.1563 C   0  0  1  0  0  0  0  0  0  0  0  0
   19.1339   -9.1155  -16.7161 C   0  0  0  0  0  0  0  0  0  0  0  0
   19.6120  -10.4384  -16.3113 C   0  0  0  0  0  0  0  0  0  0  0  0
   19.0732  -11.4334  -15.5506 C   0  0  0  0  0  0  0  0  0  0  0  0
   19.8748  -12.5097  -15.5597 N   0  0  0  0  0  0  0  0  0  0  0  0
   20.9321  -12.2217  -16.3227 C   0  0  0  0  0  0  0  0  0  0  0  0
   20.7889  -10.9822  -16.7812 N   0  0  0  0  0  0  0  0  0  0  0  0
   17.4603   -7.2584  -16.3903 C   0  0  0  0  0  0  0  0  0  0  0  0
   17.1816   -6.9480  -17.6233 O   0  0  0  0  0  0  0  0  0  0  0  0
   14.5506   -4.9534  -15.7927 C   0  0  0  0  0  0  0  0  0  0  0  0
   15.7899   -4.3033  -15.2149 C   0  0  1  0  0  0  0  0  0  0  0  0
   15.8839   -4.5106  -13.7349 C   0  0  0  0  0  0  0  0  0  0  0  0
   16.9700   -4.8312  -15.9763 C   0  0  2  0  0  0  0  0  0  0  0  0
   17.3395   -6.1801  -15.5258 N   0  0  0  0  0  0  0  0  0  0  0  0
   18.1395   -3.9586  -15.6966 C   0  0  0  0  0  0  0  0  0  0  0  0
   19.2203   -4.4411  -14.9593 O   0  0  0  0  0  0  0  0  0  0  0  0
   18.2220   -2.7718  -16.0949 O   0  0  0  0  0  0  0  0  0  0  0  0
  2  3  1  0
  2  1  1  0
  3  4  1  6
  5  6  1  1
  5  3  1  0
  7  5  1  0
  8  7  2  0
  9  7  1  0
 10  9  1  0
 11 12  1  0
 10 11  1  6
 12 16  1  0
 13 14  1  0
 13 12  2  0
 14 15  1  0
 15 16  2  0
 17 10  1  0
 17 18  2  0
 20 19  1  6
 20 22  1  0
 20 21  1  0
 22 23  1  1
 23 17  1  0
 24 22  1  0
 25 24  1  0
 26 24  2  0
M  END
$$$$
