IHV.pdb
     RDKit          3D

 26 26  0  0  1  0  0  0  0  0999 V2000
-159260.5938-21190.8145-100639.0234 C   0  0  0  0  0  0  0  0  0  0  0  0
-159261.2656-21189.4629-100639.0625 C   0  0  0  0  0  0  0  0  0  0  0  0
-159260.1562-21188.3613-100639.1406 C   0  0  2  0  0  0  0  0  0  0  0  0
-159260.8281-21187.0332-100638.8359 C   0  0  0  0  0  0  0  0  0  0  0  0
-159259.7031-21188.2832-100640.6250 C   0  0  2  0  0  0  0  0  0  0  0  0
-159259.9375-21186.9258-100641.1016 N   0  0  0  0  0  0  0  0  0  0  0  0
-159260.3750-21189.3008-100641.4141 C   0  0  0  0  0  0  0  0  0  0  0  0
-159260.3906-21189.1875-100642.6641 O   0  0  0  0  0  0  0  0  0  0  0  0
-159261.1562-21190.3750-100640.7109 N   0  0  0  0  0  0  0  0  0  0  0  0
-159260.3438-21191.4531-100640.0547 C   0  0  1  0  0  0  0  0  0  0  0  0
-159259.2500-21191.8770-100640.9766 C   0  0  0  0  0  0  0  0  0  0  0  0
-159259.0312-21193.3184-100641.1094 C   0  0  0  0  0  0  0  0  0  0  0  0
-159259.5469-21194.4180-100640.5312 C   0  0  0  0  0  0  0  0  0  0  0  0
-159259.0938-21195.5234-100641.1016 N   0  0  0  0  0  0  0  0  0  0  0  0
-159258.2500-21195.1855-100642.0312 C   0  0  0  0  0  0  0  0  0  0  0  0
-159258.1562-21193.8574-100642.0703 N   0  0  0  0  0  0  0  0  0  0  0  0
-159259.9375-21190.7949-100638.8203 C   0  0  0  0  0  0  0  0  0  0  0  0
-159259.3750-21191.5547-100637.9141 O   0  0  0  0  0  0  0  0  0  0  0  0
-159256.7500-21187.7754-100637.9062 C   0  0  0  0  0  0  0  0  0  0  0  0
-159257.9375-21188.2305-100638.7344 C   0  0  1  0  0  0  0  0  0  0  0  0
-159257.5938-21189.2363-100639.7578 C   0  0  0  0  0  0  0  0  0  0  0  0
-159258.9688-21188.7031-100637.7500 C   0  0  2  0  0  0  0  0  0  0  0  0
-159260.0625-21189.4492-100638.3984 N   0  0  0  0  0  0  0  0  0  0  0  0
-159259.6094-21187.5352-100637.1094 C   0  0  0  0  0  0  0  0  0  0  0  0
-159260.3125-21186.6367-100637.8203 O   0  0  0  0  0  0  0  0  0  0  0  0
-159259.5938-21187.3301-100635.8359 O   0  0  0  0  0  0  0  0  0  0  0  0
  2  3  1  0
  2  1  1  0
  3  4  1  6
  5  6  1  6
  5  3  1  0
  7  5  1  0
  8  7  2  0
  9  7  1  0
 10  9  1  0
 11 12  1  0
 10 11  1  6
 12 16  1  0
 13 14  1  0
 13 12  2  0
 14 15  1  0
 15 16  2  0
 17 10  1  0
 17 18  2  0
 20 19  1  1
 20 22  1  0
 20 21  1  0
 22 23  1  6
 23 17  1  0
 24 22  1  0
 25 24  1  0
 26 24  2  0
M  END
$$$$
