IHV.pdb
     RDKit          3D

 26 26  0  0  1  0  0  0  0  0999 V2000
   29.9240  -31.4924  -25.3398 C   0  0  0  0  0  0  0  0  0  0  0  0
   29.3975  -31.0133  -24.0189 C   0  0  0  0  0  0  0  0  0  0  0  0
   29.4794  -32.1113  -22.9533 C   0  0  2  0  0  0  0  0  0  0  0  0
   28.4875  -33.1828  -23.3527 C   0  0  0  0  0  0  0  0  0  0  0  0
   28.9868  -31.4988  -21.6588 C   0  0  2  0  0  0  0  0  0  0  0  0
   29.9639  -30.5233  -21.2324 N   0  0  0  0  0  0  0  0  0  0  0  0
   28.7793  -32.5695  -20.6194 C   0  0  0  0  0  0  0  0  0  0  0  0
   29.8098  -33.1556  -20.2057 O   0  0  0  0  0  0  0  0  0  0  0  0
   27.4694  -32.8288  -20.1970 N   0  0  0  0  0  0  0  0  0  0  0  0
   27.1920  -33.9165  -19.1941 C   0  0  1  0  0  0  0  0  0  0  0  0
   27.0387  -33.2773  -17.8723 C   0  0  0  0  0  0  0  0  0  0  0  0
   28.2644  -32.9964  -17.1232 C   0  0  0  0  0  0  0  0  0  0  0  0
   29.5874  -33.1878  -17.3918 C   0  0  0  0  0  0  0  0  0  0  0  0
   30.3400  -32.6613  -16.4133 N   0  0  0  0  0  0  0  0  0  0  0  0
   29.5149  -32.1274  -15.5094 C   0  0  0  0  0  0  0  0  0  0  0  0
   28.2658  -32.3203  -15.9214 N   0  0  0  0  0  0  0  0  0  0  0  0
   25.9846  -34.5324  -19.7880 C   0  0  0  0  0  0  0  0  0  0  0  0
   25.1108  -33.7006  -20.2765 O   0  0  0  0  0  0  0  0  0  0  0  0
   24.8385  -35.5819  -22.8511 C   0  0  0  0  0  0  0  0  0  0  0  0
   24.5818  -36.7787  -21.9601 C   0  0  1  0  0  0  0  0  0  0  0  0
   25.6903  -37.7816  -22.0483 C   0  0  0  0  0  0  0  0  0  0  0  0
   24.3422  -36.2617  -20.5722 C   0  0  2  0  0  0  0  0  0  0  0  0
   25.5984  -35.8577  -19.9257 N   0  0  0  0  0  0  0  0  0  0  0  0
   23.7807  -37.3640  -19.7494 C   0  0  0  0  0  0  0  0  0  0  0  0
   24.5424  -37.9494  -18.7387 O   0  0  0  0  0  0  0  0  0  0  0  0
   22.6229  -37.8200  -19.9099 O   0  0  0  0  0  0  0  0  0  0  0  0
  2  3  1  0
  2  1  1  0
  3  4  1  6
  5  6  1  1
  5  3  1  0
  7  5  1  0
  8  7  2  0
  9  7  1  0
 10  9  1  0
 11 12  1  0
 10 11  1  1
 12 16  1  0
 13 14  1  0
 13 12  2  0
 14 15  1  0
 15 16  2  0
 17 10  1  0
 17 18  2  0
 20 19  1  6
 20 22  1  0
 20 21  1  0
 22 23  1  1
 23 17  1  0
 24 22  1  0
 25 24  1  0
 26 24  2  0
M  END
$$$$
