IHV.pdb
     RDKit          3D

 26 26  0  0  1  0  0  0  0  0999 V2000
   27.7662  -19.3929   -6.8472 C   0  0  0  0  0  0  0  0  0  0  0  0
   27.9237  -20.5050   -7.8422 C   0  0  0  0  0  0  0  0  0  0  0  0
   27.1412  -20.2191   -9.1283 C   0  0  2  0  0  0  0  0  0  0  0  0
   25.6727  -20.3485   -8.7843 C   0  0  0  0  0  0  0  0  0  0  0  0
   27.4782  -21.3317  -10.0989 C   0  0  2  0  0  0  0  0  0  0  0  0
   28.9125  -21.3452  -10.2738 N   0  0  0  0  0  0  0  0  0  0  0  0
   26.7602  -21.1201  -11.4064 C   0  0  0  0  0  0  0  0  0  0  0  0
   27.2318  -20.2406  -12.1684 O   0  0  0  0  0  0  0  0  0  0  0  0
   25.6344  -21.9097  -11.6719 N   0  0  0  0  0  0  0  0  0  0  0  0
   25.1353  -22.0777  -13.0820 C   0  0  1  0  0  0  0  0  0  0  0  0
   25.0983  -23.5243  -13.3738 C   0  0  0  0  0  0  0  0  0  0  0  0
   24.5182  -23.9298  -14.6550 C   0  0  0  0  0  0  0  0  0  0  0  0
   24.0715  -23.2345  -15.7395 C   0  0  0  0  0  0  0  0  0  0  0  0
   23.7198  -24.0805  -16.7200 N   0  0  0  0  0  0  0  0  0  0  0  0
   23.9356  -25.3229  -16.2807 C   0  0  0  0  0  0  0  0  0  0  0  0
   24.4150  -25.2490  -15.0430 N   0  0  0  0  0  0  0  0  0  0  0  0
   23.8357  -21.3751  -12.9961 C   0  0  0  0  0  0  0  0  0  0  0  0
   23.3370  -21.2585  -11.7994 O   0  0  0  0  0  0  0  0  0  0  0  0
   22.6798  -17.9383  -14.2630 C   0  0  0  0  0  0  0  0  0  0  0  0
   21.5680  -18.9231  -14.5569 C   0  0  1  0  0  0  0  0  0  0  0  0
   21.5049  -19.2673  -16.0128 C   0  0  0  0  0  0  0  0  0  0  0  0
   21.7719  -20.1103  -13.6624 C   0  0  2  0  0  0  0  0  0  0  0  0
   23.0298  -20.8044  -13.9705 N   0  0  0  0  0  0  0  0  0  0  0  0
   20.6798  -21.0849  -13.9170 C   0  0  0  0  0  0  0  0  0  0  0  0
   19.4262  -20.9094  -13.3322 O   0  0  0  0  0  0  0  0  0  0  0  0
   20.8163  -22.0932  -14.6510 O   0  0  0  0  0  0  0  0  0  0  0  0
  2  3  1  0
  2  1  1  0
  3  4  1  1
  5  6  1  6
  5  3  1  0
  7  5  1  0
  8  7  2  0
  9  7  1  0
 10  9  1  0
 11 12  1  0
 10 11  1  1
 12 16  1  0
 13 14  1  0
 13 12  2  0
 14 15  1  0
 15 16  2  0
 17 10  1  0
 17 18  2  0
 20 19  1  6
 20 22  1  0
 20 21  1  0
 22 23  1  6
 23 17  1  0
 24 22  1  0
 25 24  1  0
 26 24  2  0
M  END
$$$$
