IHV.pdb
     RDKit          3D

 26 26  0  0  1  0  0  0  0  0999 V2000
   27.0458  -19.0233   -5.6221 C   0  0  0  0  0  0  0  0  0  0  0  0
   25.8577  -19.4095   -6.4533 C   0  0  0  0  0  0  0  0  0  0  0  0
   26.2838  -20.1334   -7.7348 C   0  0  2  0  0  0  0  0  0  0  0  0
   27.1363  -19.1618   -8.5227 C   0  0  0  0  0  0  0  0  0  0  0  0
   25.0220  -20.3802   -8.5351 C   0  0  2  0  0  0  0  0  0  0  0  0
   24.1345  -21.1812   -7.7236 N   0  0  0  0  0  0  0  0  0  0  0  0
   25.3536  -21.0625   -9.8368 C   0  0  0  0  0  0  0  0  0  0  0  0
   25.9301  -22.1750   -9.7550 O   0  0  0  0  0  0  0  0  0  0  0  0
   24.9990  -20.4141  -11.0264 N   0  0  0  0  0  0  0  0  0  0  0  0
   25.2834  -21.0543  -12.3587 C   0  0  1  0  0  0  0  0  0  0  0  0
   24.3052  -22.1433  -12.5493 C   0  0  0  0  0  0  0  0  0  0  0  0
   24.2808  -22.7935  -13.8605 C   0  0  0  0  0  0  0  0  0  0  0  0
   24.9716  -23.8395  -14.3969 C   0  0  0  0  0  0  0  0  0  0  0  0
   24.5063  -24.1219  -15.6236 N   0  0  0  0  0  0  0  0  0  0  0  0
   23.5159  -23.2664  -15.8888 C   0  0  0  0  0  0  0  0  0  0  0  0
   23.3684  -22.4629  -14.8402 N   0  0  0  0  0  0  0  0  0  0  0  0
   25.1681  -19.8817  -13.2540 C   0  0  0  0  0  0  0  0  0  0  0  0
   24.2899  -18.9882  -12.9009 O   0  0  0  0  0  0  0  0  0  0  0  0
   27.7001  -17.3461  -14.9275 C   0  0  0  0  0  0  0  0  0  0  0  0
   26.7074  -17.8419  -15.9575 C   0  0  1  0  0  0  0  0  0  0  0  0
   27.3225  -18.8509  -16.8772 C   0  0  0  0  0  0  0  0  0  0  0  0
   25.5072  -18.3515  -15.2152 C   0  0  2  0  0  0  0  0  0  0  0  0
   25.8329  -19.5464  -14.4246 N   0  0  0  0  0  0  0  0  0  0  0  0
   24.4825  -18.7689  -16.2067 C   0  0  0  0  0  0  0  0  0  0  0  0
   23.7806  -17.8140  -16.9415 O   0  0  0  0  0  0  0  0  0  0  0  0
   24.1963  -19.9689  -16.4351 O   0  0  0  0  0  0  0  0  0  0  0  0
  2  3  1  0
  2  1  1  0
  3  4  1  6
  5  6  1  1
  5  3  1  0
  7  5  1  0
  8  7  2  0
  9  7  1  0
 10  9  1  0
 11 12  1  0
 10 11  1  6
 12 16  1  0
 13 14  1  0
 13 12  2  0
 14 15  1  0
 15 16  2  0
 17 10  1  0
 17 18  2  0
 20 19  1  1
 20 22  1  0
 20 21  1  0
 22 23  1  6
 23 17  1  0
 24 22  1  0
 25 24  1  0
 26 24  2  0
M  END
$$$$
