IHV.pdb
     RDKit          3D

 26 26  0  0  1  0  0  0  0  0999 V2000
   29.2203  -18.2478  -17.6137 C   0  0  0  0  0  0  0  0  0  0  0  0
   28.0208  -19.1273  -17.4152 C   0  0  0  0  0  0  0  0  0  0  0  0
   27.1538  -18.6356  -16.2515 C   0  0  2  0  0  0  0  0  0  0  0  0
   28.0115  -18.7082  -15.0063 C   0  0  0  0  0  0  0  0  0  0  0  0
   26.0334  -19.6414  -16.0884 C   0  0  2  0  0  0  0  0  0  0  0  0
   25.2548  -19.6356  -17.3057 N   0  0  0  0  0  0  0  0  0  0  0  0
   25.1915  -19.2961  -14.8876 C   0  0  0  0  0  0  0  0  0  0  0  0
   24.6582  -18.1593  -14.8858 O   0  0  0  0  0  0  0  0  0  0  0  0
   25.0674  -20.2559  -13.8754 N   0  0  0  0  0  0  0  0  0  0  0  0
   24.2382  -19.9719  -12.6517 C   0  0  1  0  0  0  0  0  0  0  0  0
   22.9288  -20.6279  -12.8368 C   0  0  0  0  0  0  0  0  0  0  0  0
   21.9719  -19.9643  -13.7237 C   0  0  0  0  0  0  0  0  0  0  0  0
   21.6820  -20.0949  -15.0496 C   0  0  0  0  0  0  0  0  0  0  0  0
   20.6363  -19.3189  -15.3742 N   0  0  0  0  0  0  0  0  0  0  0  0
   20.2429  -18.6843  -14.2671 C   0  0  0  0  0  0  0  0  0  0  0  0
   21.0346  -19.0614  -13.2680 N   0  0  0  0  0  0  0  0  0  0  0  0
   25.1193  -20.5148  -11.5940 C   0  0  0  0  0  0  0  0  0  0  0  0
   25.5425  -21.7311  -11.7834 O   0  0  0  0  0  0  0  0  0  0  0  0
   26.4229  -18.7158   -8.0525 C   0  0  0  0  0  0  0  0  0  0  0  0
   27.1846  -19.9270   -8.5475 C   0  0  1  0  0  0  0  0  0  0  0  0
   27.8292  -20.6732   -7.4205 C   0  0  0  0  0  0  0  0  0  0  0  0
   26.2315  -20.7568   -9.3563 C   0  0  2  0  0  0  0  0  0  0  0  0
   25.5905  -19.9613  -10.4124 N   0  0  0  0  0  0  0  0  0  0  0  0
   25.1415  -21.2271   -8.4630 C   0  0  0  0  0  0  0  0  0  0  0  0
   25.3760  -22.2431   -7.5371 O   0  0  0  0  0  0  0  0  0  0  0  0
   23.9803  -20.7526   -8.4875 O   0  0  0  0  0  0  0  0  0  0  0  0
  2  3  1  0
  2  1  1  0
  3  4  1  1
  5  6  1  6
  5  3  1  0
  7  5  1  0
  8  7  2  0
  9  7  1  0
 10  9  1  0
 11 12  1  0
 10 11  1  6
 12 16  1  0
 13 14  1  0
 13 12  2  0
 14 15  1  0
 15 16  2  0
 17 10  1  0
 17 18  2  0
 20 19  1  1
 20 22  1  0
 20 21  1  0
 22 23  1  6
 23 17  1  0
 24 22  1  0
 25 24  1  0
 26 24  2  0
M  END
$$$$
