IHV.pdb
     RDKit          3D

 26 26  0  0  1  0  0  0  0  0999 V2000
   24.4260  -14.3231  -17.2897 C   0  0  0  0  0  0  0  0  0  0  0  0
   25.6284  -15.2199  -17.2501 C   0  0  0  0  0  0  0  0  0  0  0  0
   25.2757  -16.6030  -16.6927 C   0  0  2  0  0  0  0  0  0  0  0  0
   24.9444  -16.4125  -15.2280 C   0  0  0  0  0  0  0  0  0  0  0  0
   26.5379  -17.4365  -16.7664 C   0  0  2  0  0  0  0  0  0  0  0  0
   26.9099  -17.5518  -18.1579 N   0  0  0  0  0  0  0  0  0  0  0  0
   26.3105  -18.7865  -16.1374 C   0  0  0  0  0  0  0  0  0  0  0  0
   25.4104  -19.4977  -16.6480 O   0  0  0  0  0  0  0  0  0  0  0  0
   27.1092  -19.1439  -15.0440 N   0  0  0  0  0  0  0  0  0  0  0  0
   26.9972  -20.5149  -14.4327 C   0  0  1  0  0  0  0  0  0  0  0  0
   28.3381  -21.1314  -14.4690 C   0  0  0  0  0  0  0  0  0  0  0  0
   28.7098  -21.8433  -15.6928 C   0  0  0  0  0  0  0  0  0  0  0  0
   28.1282  -21.9558  -16.9208 C   0  0  0  0  0  0  0  0  0  0  0  0
   28.9242  -22.6497  -17.7490 N   0  0  0  0  0  0  0  0  0  0  0  0
   30.0213  -22.9890  -17.0677 C   0  0  0  0  0  0  0  0  0  0  0  0
   29.9077  -22.5121  -15.8320 N   0  0  0  0  0  0  0  0  0  0  0  0
   26.4487  -20.1749  -13.1011 C   0  0  0  0  0  0  0  0  0  0  0  0
   26.9908  -19.1470  -12.5147 O   0  0  0  0  0  0  0  0  0  0  0  0
   22.9067  -19.4265  -11.9722 C   0  0  0  0  0  0  0  0  0  0  0  0
   23.5172  -20.2967  -10.8940 C   0  0  1  0  0  0  0  0  0  0  0  0
   22.9768  -21.6925  -10.9382 C   0  0  0  0  0  0  0  0  0  0  0  0
   25.0079  -20.2194  -11.0456 C   0  0  2  0  0  0  0  0  0  0  0  0
   25.4440  -20.7568  -12.3418 N   0  0  0  0  0  0  0  0  0  0  0  0
   25.6321  -21.0749  -10.0035 C   0  0  0  0  0  0  0  0  0  0  0  0
   25.5889  -20.6983   -8.6616 O   0  0  0  0  0  0  0  0  0  0  0  0
   26.2175  -22.1543  -10.2609 O   0  0  0  0  0  0  0  0  0  0  0  0
  2  3  1  0
  2  1  1  0
  3  4  1  1
  5  6  1  6
  5  3  1  0
  7  5  1  0
  8  7  2  0
  9  7  1  0
 10  9  1  0
 11 12  1  0
 10 11  1  1
 12 16  1  0
 13 14  1  0
 13 12  2  0
 14 15  1  0
 15 16  2  0
 17 10  1  0
 17 18  2  0
 20 19  1  6
 20 22  1  0
 20 21  1  0
 22 23  1  6
 23 17  1  0
 24 22  1  0
 25 24  1  0
 26 24  2  0
M  END
$$$$
