IHV.pdb
     RDKit          3D

 26 26  0  0  1  0  0  0  0  0999 V2000
   17.6369  -14.7062  -18.0191 C   0  0  0  0  0  0  0  0  0  0  0  0
   18.8259  -13.8051  -18.1800 C   0  0  0  0  0  0  0  0  0  0  0  0
   18.8822  -12.7507  -17.0696 C   0  0  2  0  0  0  0  0  0  0  0  0
   17.6719  -11.8598  -17.2510 C   0  0  0  0  0  0  0  0  0  0  0  0
   20.1103  -11.9050  -17.3345 C   0  0  2  0  0  0  0  0  0  0  0  0
   21.2622  -12.7768  -17.3000 N   0  0  0  0  0  0  0  0  0  0  0  0
   20.2161  -10.8024  -16.3133 C   0  0  0  0  0  0  0  0  0  0  0  0
   20.3111  -11.1582  -15.1129 O   0  0  0  0  0  0  0  0  0  0  0  0
   20.2009   -9.4793  -16.7723 N   0  0  0  0  0  0  0  0  0  0  0  0
   20.2128   -8.3329  -15.7969 C   0  0  1  0  0  0  0  0  0  0  0  0
   21.5593   -7.7290  -15.8333 C   0  0  0  0  0  0  0  0  0  0  0  0
   21.7553   -6.4944  -15.0718 C   0  0  0  0  0  0  0  0  0  0  0  0
   20.9421   -5.7573  -14.2630 C   0  0  0  0  0  0  0  0  0  0  0  0
   21.6312   -4.7480  -13.7084 N   0  0  0  0  0  0  0  0  0  0  0  0
   22.8888   -4.8241  -14.1507 C   0  0  0  0  0  0  0  0  0  0  0  0
   22.9792   -5.8672  -14.9698 N   0  0  0  0  0  0  0  0  0  0  0  0
   19.0950   -7.5175  -16.3219 C   0  0  0  0  0  0  0  0  0  0  0  0
   19.0265   -7.4250  -17.6185 O   0  0  0  0  0  0  0  0  0  0  0  0
   15.7374   -7.6851  -15.5263 C   0  0  0  0  0  0  0  0  0  0  0  0
   15.7328   -6.3153  -16.1712 C   0  0  1  0  0  0  0  0  0  0  0  0
   14.9441   -5.3284  -15.3673 C   0  0  0  0  0  0  0  0  0  0  0  0
   17.1629   -5.9158  -16.3863 C   0  0  2  0  0  0  0  0  0  0  0  0
   18.0839   -6.8172  -15.6804 N   0  0  0  0  0  0  0  0  0  0  0  0
   17.3672   -4.5644  -15.8037 C   0  0  0  0  0  0  0  0  0  0  0  0
   16.9373   -3.4280  -16.4880 O   0  0  0  0  0  0  0  0  0  0  0  0
   17.9217   -4.3710  -14.6951 O   0  0  0  0  0  0  0  0  0  0  0  0
  2  3  1  0
  2  1  1  0
  3  4  1  6
  5  6  1  1
  5  3  1  0
  7  5  1  0
  8  7  2  0
  9  7  1  0
 10  9  1  0
 11 12  1  0
 10 11  1  6
 12 16  1  0
 13 14  1  0
 13 12  2  0
 14 15  1  0
 15 16  2  0
 17 10  1  0
 17 18  2  0
 20 19  1  1
 20 22  1  0
 20 21  1  0
 22 23  1  1
 23 17  1  0
 24 22  1  0
 25 24  1  0
 26 24  2  0
M  END
$$$$
