MEV.pdb
     RDKit          3D

 25 24  0  0  1  0  0  0  0  0999 V2000
    8.0983  -11.3457   20.0306 C   0  0  0  0  0  0  0  0  0  0  0  0
    7.5891  -12.2195   18.5133 S   0  0  0  0  0  0  0  0  0  0  0  0
    7.9499  -14.0028   18.6685 C   0  0  0  0  0  0  0  0  0  0  0  0
    7.7296  -14.3913   20.1055 C   0  0  0  0  0  0  0  0  0  0  0  0
    7.9399  -15.8511   20.3752 C   0  0  2  0  0  0  0  0  0  0  0  0
    7.0220  -16.6025   19.5526 N   0  0  0  0  0  0  0  0  0  0  0  0
    7.8510  -16.1956   21.7987 C   0  0  0  0  0  0  0  0  0  0  0  0
    6.7303  -16.4326   22.3009 O   0  0  0  0  0  0  0  0  0  0  0  0
    9.0198  -16.2621   22.6076 N   0  0  0  0  0  0  0  0  0  0  0  0
    9.0087  -16.4935   24.0131 C   0  0  1  0  0  0  0  0  0  0  0  0
    9.9724  -17.6090   24.3395 C   0  0  0  0  0  0  0  0  0  0  0  0
    9.4996  -18.8825   23.7053 C   0  0  0  0  0  0  0  0  0  0  0  0
   10.4100  -20.0116   24.0276 C   0  0  0  0  0  0  0  0  0  0  0  0
    9.9092  -21.1059   24.3595 O   0  0  0  0  0  0  0  0  0  0  0  0
    9.3750  -15.3139   24.8166 C   0  0  0  0  0  0  0  0  0  0  0  0
   10.5132  -14.7717   24.7832 O   0  0  0  0  0  0  0  0  0  0  0  0
   11.7794  -19.8727   23.9670 O   0  0  0  0  0  0  0  0  0  0  0  0
    6.3160  -13.6478   27.2836 C   0  0  0  0  0  0  0  0  0  0  0  0
    7.4946  -12.8214   26.7683 C   0  0  2  0  0  0  0  0  0  0  0  0
    7.1261  -12.1649   25.4640 C   0  0  0  0  0  0  0  0  0  0  0  0
    8.7170  -13.7133   26.6470 C   0  0  2  0  0  0  0  0  0  0  0  0
    8.3883  -14.7601   25.6745 N   0  0  0  0  0  0  0  0  0  0  0  0
    8.9330  -14.3087   27.9962 C   0  0  0  0  0  0  0  0  0  0  0  0
    9.4188  -13.5055   29.0158 O   0  0  0  0  0  0  0  0  0  0  0  0
    8.6975  -15.5126   28.2689 O   0  0  0  0  0  0  0  0  0  0  0  0
  2  1  1  0
  3  2  1  0
  4  3  1  0
  4  5  1  0
  5  6  1  6
  7  5  1  0
  7  9  1  0
  8  7  2  0
 10  9  1  0
 10 11  1  6
 12 11  1  0
 13 12  1  0
 14 13  2  0
 15 10  1  0
 16 15  2  0
 17 13  1  0
 19 18  1  6
 20 19  1  0
 21 22  1  6
 21 19  1  0
 22 15  1  0
 23 21  1  0
 24 23  1  0
 25 23  2  0
M  END
$$$$
