MEV.pdb
     RDKit          3D

 25 24  0  0  1  0  0  0  0  0999 V2000
    8.4303  -11.6803   20.8642 C   0  0  0  0  0  0  0  0  0  0  0  0
    8.1117  -13.3988   20.3444 S   0  0  0  0  0  0  0  0  0  0  0  0
    6.3982  -13.8708   20.7635 C   0  0  0  0  0  0  0  0  0  0  0  0
    6.1670  -15.2642   20.2446 C   0  0  0  0  0  0  0  0  0  0  0  0
    7.0678  -16.2940   20.8580 C   0  0  2  0  0  0  0  0  0  0  0  0
    6.8252  -17.5580   20.2043 N   0  0  0  0  0  0  0  0  0  0  0  0
    6.9502  -16.3698   22.3185 C   0  0  0  0  0  0  0  0  0  0  0  0
    5.9456  -15.8767   22.8768 O   0  0  0  0  0  0  0  0  0  0  0  0
    7.9617  -16.9948   23.1004 N   0  0  0  0  0  0  0  0  0  0  0  0
    7.9002  -17.1472   24.5154 C   0  0  1  0  0  0  0  0  0  0  0  0
    7.8808  -18.6181   24.8552 C   0  0  0  0  0  0  0  0  0  0  0  0
    6.5185  -19.1794   24.5784 C   0  0  0  0  0  0  0  0  0  0  0  0
    6.6102  -20.5193   23.9430 C   0  0  0  0  0  0  0  0  0  0  0  0
    7.2695  -21.4091   24.5192 O   0  0  0  0  0  0  0  0  0  0  0  0
    9.0231  -16.5196   25.2341 C   0  0  0  0  0  0  0  0  0  0  0  0
   10.2140  -16.5344   24.8190 O   0  0  0  0  0  0  0  0  0  0  0  0
    5.9880  -20.7925   22.7445 O   0  0  0  0  0  0  0  0  0  0  0  0
    8.9656  -13.0268   26.5646 C   0  0  0  0  0  0  0  0  0  0  0  0
    9.2834  -13.9213   27.7631 C   0  0  2  0  0  0  0  0  0  0  0  0
   10.2537  -13.2223   28.6784 C   0  0  0  0  0  0  0  0  0  0  0  0
    9.8087  -15.2563   27.2667 C   0  0  2  0  0  0  0  0  0  0  0  0
    8.7441  -15.8626   26.4615 N   0  0  0  0  0  0  0  0  0  0  0  0
   10.0710  -16.0779   28.4823 C   0  0  0  0  0  0  0  0  0  0  0  0
   11.2593  -15.8976   29.1724 O   0  0  0  0  0  0  0  0  0  0  0  0
    9.2678  -16.9366   28.9257 O   0  0  0  0  0  0  0  0  0  0  0  0
  2  1  1  0
  3  2  1  0
  4  3  1  0
  4  5  1  0
  5  6  1  6
  7  5  1  0
  7  9  1  0
  8  7  2  0
 10  9  1  0
 10 11  1  6
 12 11  1  0
 13 12  1  0
 14 13  2  0
 15 10  1  0
 16 15  2  0
 17 13  1  0
 19 18  1  6
 20 19  1  0
 21 22  1  6
 21 19  1  0
 22 15  1  0
 23 21  1  0
 24 23  1  0
 25 23  2  0
M  END
$$$$
