MEV.pdb
     RDKit          3D

 25 24  0  0  1  0  0  0  0  0999 V2000
    7.6517  -10.9058   20.7333 C   0  0  0  0  0  0  0  0  0  0  0  0
    7.8747  -12.4616   19.8087 S   0  0  0  0  0  0  0  0  0  0  0  0
    7.3298  -13.8767   20.8263 C   0  0  0  0  0  0  0  0  0  0  0  0
    7.5454  -15.1296   20.0212 C   0  0  0  0  0  0  0  0  0  0  0  0
    7.1708  -16.3862   20.7482 C   0  0  2  0  0  0  0  0  0  0  0  0
    5.7474  -16.5836   20.6119 N   0  0  0  0  0  0  0  0  0  0  0  0
    7.6231  -16.4044   22.1439 C   0  0  0  0  0  0  0  0  0  0  0  0
    6.8078  -16.1366   23.0536 O   0  0  0  0  0  0  0  0  0  0  0  0
    8.9715  -16.7217   22.4698 N   0  0  0  0  0  0  0  0  0  0  0  0
    9.4929  -16.7355   23.7953 C   0  0  1  0  0  0  0  0  0  0  0  0
   10.8631  -17.3694   23.7825 C   0  0  0  0  0  0  0  0  0  0  0  0
   10.8095  -18.6659   23.0319 C   0  0  0  0  0  0  0  0  0  0  0  0
   12.0941  -19.4039   23.1451 C   0  0  0  0  0  0  0  0  0  0  0  0
   13.0069  -18.9100   23.8388 O   0  0  0  0  0  0  0  0  0  0  0  0
    9.6049  -15.4002   24.4082 C   0  0  0  0  0  0  0  0  0  0  0  0
   10.4384  -14.5291   24.0378 O   0  0  0  0  0  0  0  0  0  0  0  0
   12.2918  -20.6082   22.5057 O   0  0  0  0  0  0  0  0  0  0  0  0
    6.4850  -13.9082   26.6934 C   0  0  0  0  0  0  0  0  0  0  0  0
    7.6819  -13.0650   26.2532 C   0  0  2  0  0  0  0  0  0  0  0  0
    7.4362  -12.5105   24.8748 C   0  0  0  0  0  0  0  0  0  0  0  0
    8.9425  -13.9078   26.3262 C   0  0  2  0  0  0  0  0  0  0  0  0
    8.7232  -15.0807   25.4743 N   0  0  0  0  0  0  0  0  0  0  0  0
    9.0843  -14.3213   27.7511 C   0  0  0  0  0  0  0  0  0  0  0  0
    9.4893  -13.3826   28.6868 O   0  0  0  0  0  0  0  0  0  0  0  0
    8.8553  -15.4870   28.1611 O   0  0  0  0  0  0  0  0  0  0  0  0
  2  1  1  0
  3  2  1  0
  4  3  1  0
  4  5  1  0
  5  6  1  1
  7  5  1  0
  7  9  1  0
  8  7  2  0
 10  9  1  0
 10 11  1  6
 12 11  1  0
 13 12  1  0
 14 13  2  0
 15 10  1  0
 16 15  2  0
 17 13  1  0
 19 18  1  6
 20 19  1  0
 21 22  1  6
 21 19  1  0
 22 15  1  0
 23 21  1  0
 24 23  1  0
 25 23  2  0
M  END
$$$$
