MEV.pdb
     RDKit          3D

 25 24  0  0  1  0  0  0  0  0999 V2000
    7.7084  -11.7257   19.9726 C   0  0  0  0  0  0  0  0  0  0  0  0
    8.4234  -12.7022   18.6087 S   0  0  0  0  0  0  0  0  0  0  0  0
    7.3125  -14.0875   18.1828 C   0  0  0  0  0  0  0  0  0  0  0  0
    7.5964  -15.2132   19.1401 C   0  0  0  0  0  0  0  0  0  0  0  0
    8.6565  -14.8931   20.1509 C   0  0  2  0  0  0  0  0  0  0  0  0
    9.9129  -15.4217   19.6755 N   0  0  0  0  0  0  0  0  0  0  0  0
    8.3191  -15.3430   21.5061 C   0  0  0  0  0  0  0  0  0  0  0  0
    7.2021  -15.0502   21.9865 O   0  0  0  0  0  0  0  0  0  0  0  0
    9.2446  -16.1041   22.2737 N   0  0  0  0  0  0  0  0  0  0  0  0
    9.0272  -16.5042   23.6235 C   0  0  1  0  0  0  0  0  0  0  0  0
    9.8096  -17.7657   23.8988 C   0  0  0  0  0  0  0  0  0  0  0  0
    9.3144  -18.8674   23.0108 C   0  0  0  0  0  0  0  0  0  0  0  0
   10.0973  -20.1134   23.2159 C   0  0  0  0  0  0  0  0  0  0  0  0
   10.5293  -20.3654   24.3597 O   0  0  0  0  0  0  0  0  0  0  0  0
    9.4173  -15.4897   24.6184 C   0  0  0  0  0  0  0  0  0  0  0  0
   10.6047  -15.1016   24.7921 O   0  0  0  0  0  0  0  0  0  0  0  0
   10.3510  -20.9838   22.1785 O   0  0  0  0  0  0  0  0  0  0  0  0
    6.2607  -13.6941   26.8760 C   0  0  0  0  0  0  0  0  0  0  0  0
    7.5357  -12.9473   26.4834 C   0  0  2  0  0  0  0  0  0  0  0  0
    7.3331  -12.2502   25.1640 C   0  0  0  0  0  0  0  0  0  0  0  0
    8.6990  -13.9224   26.4548 C   0  0  2  0  0  0  0  0  0  0  0  0
    8.3962  -14.9199   25.4239 N   0  0  0  0  0  0  0  0  0  0  0  0
    8.7379  -14.5628   27.8002 C   0  0  0  0  0  0  0  0  0  0  0  0
    9.2187  -13.8356   28.8775 O   0  0  0  0  0  0  0  0  0  0  0  0
    8.3553  -15.7395   28.0195 O   0  0  0  0  0  0  0  0  0  0  0  0
  2  1  1  0
  3  2  1  0
  4  3  1  0
  4  5  1  0
  5  6  1  6
  7  5  1  0
  7  9  1  0
  8  7  2  0
 10  9  1  0
 10 11  1  1
 12 11  1  0
 13 12  1  0
 14 13  2  0
 15 10  1  0
 16 15  2  0
 17 13  1  0
 19 18  1  6
 20 19  1  0
 21 22  1  6
 21 19  1  0
 22 15  1  0
 23 21  1  0
 24 23  1  0
 25 23  2  0
M  END
$$$$
