MEV.pdb
     RDKit          3D

 25 24  0  0  1  0  0  0  0  0999 V2000
    7.2525  -10.6999   20.3434 C   0  0  0  0  0  0  0  0  0  0  0  0
    8.1217  -12.1342   19.6274 S   0  0  0  0  0  0  0  0  0  0  0  0
    7.4770  -13.6811   20.3526 C   0  0  0  0  0  0  0  0  0  0  0  0
    8.2760  -14.8219   19.7826 C   0  0  0  0  0  0  0  0  0  0  0  0
    7.8141  -16.1718   20.2433 C   0  0  2  0  0  0  0  0  0  0  0  0
    6.5333  -16.4459   19.6364 N   0  0  0  0  0  0  0  0  0  0  0  0
    7.8004  -16.3119   21.7037 C   0  0  0  0  0  0  0  0  0  0  0  0
    6.7724  -15.9891   22.3387 O   0  0  0  0  0  0  0  0  0  0  0  0
    8.9381  -16.8082   22.3997 N   0  0  0  0  0  0  0  0  0  0  0  0
    9.0277  -16.9101   23.8177 C   0  0  1  0  0  0  0  0  0  0  0  0
   10.0369  -17.9745   24.1755 C   0  0  0  0  0  0  0  0  0  0  0  0
   10.0709  -18.1542   25.6635 C   0  0  0  0  0  0  0  0  0  0  0  0
   11.0939  -19.1566   26.0587 C   0  0  0  0  0  0  0  0  0  0  0  0
   12.0019  -18.8062   26.8404 O   0  0  0  0  0  0  0  0  0  0  0  0
    9.4200  -15.6558   24.4842 C   0  0  0  0  0  0  0  0  0  0  0  0
   10.5128  -15.0634   24.2709 O   0  0  0  0  0  0  0  0  0  0  0  0
   11.0574  -20.4491   25.5831 O   0  0  0  0  0  0  0  0  0  0  0  0
    6.4562  -13.6188   26.5801 C   0  0  0  0  0  0  0  0  0  0  0  0
    7.7709  -12.9411   26.1929 C   0  0  2  0  0  0  0  0  0  0  0  0
    7.6418  -12.3196   24.8273 C   0  0  0  0  0  0  0  0  0  0  0  0
    8.8983  -13.9551   26.2675 C   0  0  2  0  0  0  0  0  0  0  0  0
    8.5140  -15.0859   25.4172 N   0  0  0  0  0  0  0  0  0  0  0  0
    8.9794  -14.3826   27.6931 C   0  0  0  0  0  0  0  0  0  0  0  0
    9.5143  -13.5101   28.6275 O   0  0  0  0  0  0  0  0  0  0  0  0
    8.5860  -15.5030   28.1046 O   0  0  0  0  0  0  0  0  0  0  0  0
  2  1  1  0
  3  2  1  0
  4  3  1  0
  4  5  1  0
  5  6  1  1
  7  5  1  0
  7  9  1  0
  8  7  2  0
 10  9  1  0
 10 11  1  6
 12 11  1  0
 13 12  1  0
 14 13  2  0
 15 10  1  0
 16 15  2  0
 17 13  1  0
 19 18  1  6
 20 19  1  0
 21 22  1  6
 21 19  1  0
 22 15  1  0
 23 21  1  0
 24 23  1  0
 25 23  2  0
M  END
$$$$
