MEV.pdb
     RDKit          3D

 25 24  0  0  1  0  0  0  0  0999 V2000
    8.8621  -11.3842   20.7376 C   0  0  0  0  0  0  0  0  0  0  0  0
    8.3522  -12.9354   19.9258 S   0  0  0  0  0  0  0  0  0  0  0  0
    6.8523  -13.5976   20.7298 C   0  0  0  0  0  0  0  0  0  0  0  0
    6.5420  -14.9268   20.0963 C   0  0  0  0  0  0  0  0  0  0  0  0
    7.5552  -15.9902   20.3975 C   0  0  2  0  0  0  0  0  0  0  0  0
    7.2389  -17.1567   19.6082 N   0  0  0  0  0  0  0  0  0  0  0  0
    7.6803  -16.2816   21.8300 C   0  0  0  0  0  0  0  0  0  0  0  0
    6.6617  -16.6077   22.4782 O   0  0  0  0  0  0  0  0  0  0  0  0
    8.9413  -16.1973   22.4843 N   0  0  0  0  0  0  0  0  0  0  0  0
    9.1561  -16.5245   23.8540 C   0  0  1  0  0  0  0  0  0  0  0  0
   10.2599  -17.5499   23.9515 C   0  0  0  0  0  0  0  0  0  0  0  0
   10.4511  -17.9469   25.3844 C   0  0  0  0  0  0  0  0  0  0  0  0
   11.6041  -18.8719   25.5346 C   0  0  0  0  0  0  0  0  0  0  0  0
   11.9223  -19.2476   26.6818 O   0  0  0  0  0  0  0  0  0  0  0  0
    9.5192  -15.3703   24.6950 C   0  0  0  0  0  0  0  0  0  0  0  0
   10.5919  -14.7200   24.5637 O   0  0  0  0  0  0  0  0  0  0  0  0
   12.3183  -19.3160   24.4433 O   0  0  0  0  0  0  0  0  0  0  0  0
    6.5445  -13.8663   27.3286 C   0  0  0  0  0  0  0  0  0  0  0  0
    7.7066  -13.0304   26.7918 C   0  0  2  0  0  0  0  0  0  0  0  0
    7.3142  -12.3894   25.4868 C   0  0  0  0  0  0  0  0  0  0  0  0
    8.9380  -13.9089   26.6626 C   0  0  2  0  0  0  0  0  0  0  0  0
    8.6076  -14.9714   25.7078 N   0  0  0  0  0  0  0  0  0  0  0  0
    9.1816  -14.4851   28.0154 C   0  0  0  0  0  0  0  0  0  0  0  0
    9.6882  -13.6677   29.0133 O   0  0  0  0  0  0  0  0  0  0  0  0
    8.9517  -15.6850   28.3099 O   0  0  0  0  0  0  0  0  0  0  0  0
  2  1  1  0
  3  2  1  0
  4  3  1  0
  4  5  1  0
  5  6  1  6
  7  5  1  0
  7  9  1  0
  8  7  2  0
 10  9  1  0
 10 11  1  6
 12 11  1  0
 13 12  1  0
 14 13  2  0
 15 10  1  0
 16 15  2  0
 17 13  1  0
 19 18  1  6
 20 19  1  0
 21 22  1  6
 21 19  1  0
 22 15  1  0
 23 21  1  0
 24 23  1  0
 25 23  2  0
M  END
$$$$
