MEV.pdb
     RDKit          3D

 25 24  0  0  1  0  0  0  0  0999 V2000
    8.6268  -11.2202   19.9494 C   0  0  0  0  0  0  0  0  0  0  0  0
    7.5959  -11.9683   18.6445 S   0  0  0  0  0  0  0  0  0  0  0  0
    7.6976  -13.7893   18.7352 C   0  0  0  0  0  0  0  0  0  0  0  0
    7.6730  -14.1775   20.1889 C   0  0  0  0  0  0  0  0  0  0  0  0
    7.7318  -15.6579   20.4194 C   0  0  2  0  0  0  0  0  0  0  0  0
    6.5937  -16.2648   19.7711 N   0  0  0  0  0  0  0  0  0  0  0  0
    7.8466  -16.0190   21.8368 C   0  0  0  0  0  0  0  0  0  0  0  0
    6.8164  -16.0467   22.5454 O   0  0  0  0  0  0  0  0  0  0  0  0
    9.1104  -16.3359   22.4089 N   0  0  0  0  0  0  0  0  0  0  0  0
    9.3074  -16.6723   23.7790 C   0  0  1  0  0  0  0  0  0  0  0  0
   10.4626  -17.6378   23.8913 C   0  0  0  0  0  0  0  0  0  0  0  0
   10.6756  -18.0006   25.3303 C   0  0  0  0  0  0  0  0  0  0  0  0
   11.8373  -18.9137   25.4861 C   0  0  0  0  0  0  0  0  0  0  0  0
   12.9479  -18.5461   25.0504 O   0  0  0  0  0  0  0  0  0  0  0  0
    9.5853  -15.5133   24.6457 C   0  0  0  0  0  0  0  0  0  0  0  0
   10.4720  -14.6516   24.3971 O   0  0  0  0  0  0  0  0  0  0  0  0
   11.7108  -20.1429   26.0955 O   0  0  0  0  0  0  0  0  0  0  0  0
    6.7470  -14.6008   27.5692 C   0  0  0  0  0  0  0  0  0  0  0  0
    7.7783  -13.5891   27.0689 C   0  0  2  0  0  0  0  0  0  0  0  0
    7.2465  -12.8770   25.8532 C   0  0  0  0  0  0  0  0  0  0  0  0
    9.0905  -14.3031   26.7986 C   0  0  2  0  0  0  0  0  0  0  0  0
    8.8089  -15.3623   25.8248 N   0  0  0  0  0  0  0  0  0  0  0  0
    9.5176  -14.8943   28.0985 C   0  0  0  0  0  0  0  0  0  0  0  0
    9.9958  -14.0565   29.0935 O   0  0  0  0  0  0  0  0  0  0  0  0
    9.4694  -16.1246   28.3501 O   0  0  0  0  0  0  0  0  0  0  0  0
  2  1  1  0
  3  2  1  0
  4  3  1  0
  4  5  1  0
  5  6  1  1
  7  5  1  0
  7  9  1  0
  8  7  2  0
 10  9  1  0
 10 11  1  6
 12 11  1  0
 13 12  1  0
 14 13  2  0
 15 10  1  0
 16 15  2  0
 17 13  1  0
 19 18  1  6
 20 19  1  0
 21 22  1  6
 21 19  1  0
 22 15  1  0
 23 21  1  0
 24 23  1  0
 25 23  2  0
M  END
$$$$
