MEV.pdb
     RDKit          3D

 25 24  0  0  1  0  0  0  0  0999 V2000
    8.5588  -11.2830   19.9955 C   0  0  0  0  0  0  0  0  0  0  0  0
    7.6349  -12.1142   18.6612 S   0  0  0  0  0  0  0  0  0  0  0  0
    7.8179  -13.9251   18.8089 C   0  0  0  0  0  0  0  0  0  0  0  0
    7.4642  -14.3075   20.2207 C   0  0  0  0  0  0  0  0  0  0  0  0
    7.5789  -15.7771   20.4948 C   0  0  2  0  0  0  0  0  0  0  0  0
    6.5248  -16.4568   19.7803 N   0  0  0  0  0  0  0  0  0  0  0  0
    7.6041  -16.0989   21.9261 C   0  0  0  0  0  0  0  0  0  0  0  0
    6.5305  -16.1148   22.5674 O   0  0  0  0  0  0  0  0  0  0  0  0
    8.8301  -16.3911   22.5867 N   0  0  0  0  0  0  0  0  0  0  0  0
    8.9439  -16.6610   23.9808 C   0  0  1  0  0  0  0  0  0  0  0  0
    9.9063  -17.8058   24.1872 C   0  0  0  0  0  0  0  0  0  0  0  0
   10.0343  -18.0962   25.6524 C   0  0  0  0  0  0  0  0  0  0  0  0
   10.9496  -19.2414   25.8935 C   0  0  0  0  0  0  0  0  0  0  0  0
   12.1318  -19.0028   26.2159 O   0  0  0  0  0  0  0  0  0  0  0  0
    9.4117  -15.5123   24.7763 C   0  0  0  0  0  0  0  0  0  0  0  0
   10.5596  -15.0029   24.6601 O   0  0  0  0  0  0  0  0  0  0  0  0
   10.5210  -20.5448   25.7690 O   0  0  0  0  0  0  0  0  0  0  0  0
    6.5140  -13.6275   27.1125 C   0  0  0  0  0  0  0  0  0  0  0  0
    7.7994  -12.8938   26.7292 C   0  0  2  0  0  0  0  0  0  0  0  0
    7.5933  -12.1428   25.4402 C   0  0  0  0  0  0  0  0  0  0  0  0
    8.9404  -13.8918   26.6463 C   0  0  2  0  0  0  0  0  0  0  0  0
    8.5168  -14.9507   25.7250 N   0  0  0  0  0  0  0  0  0  0  0  0
    9.1141  -14.4400   28.0214 C   0  0  0  0  0  0  0  0  0  0  0  0
    9.7340  -13.6586   28.9836 O   0  0  0  0  0  0  0  0  0  0  0  0
    8.7265  -15.5847   28.3657 O   0  0  0  0  0  0  0  0  0  0  0  0
  2  1  1  0
  3  2  1  0
  4  3  1  0
  4  5  1  0
  5  6  1  6
  7  5  1  0
  7  9  1  0
  8  7  2  0
 10  9  1  0
 10 11  1  6
 12 11  1  0
 13 12  1  0
 14 13  2  0
 15 10  1  0
 16 15  2  0
 17 13  1  0
 19 18  1  6
 20 19  1  0
 21 22  1  6
 21 19  1  0
 22 15  1  0
 23 21  1  0
 24 23  1  0
 25 23  2  0
M  END
$$$$
