ADC.pdb
     RDKit          3D

 20 19  0  0  1  0  0  0  0  0999 V2000
    7.7863  -18.2667   19.3657 C   0  0  0  0  0  0  0  0  0  0  0  0
    7.5141  -17.0459   20.2201 C   0  0  2  0  0  0  0  0  0  0  0  0
    7.8268  -15.8886   19.4092 N   0  0  0  0  0  0  0  0  0  0  0  0
    8.4594  -17.0899   21.3525 C   0  0  0  0  0  0  0  0  0  0  0  0
    8.3500  -18.0015   22.2016 O   0  0  0  0  0  0  0  0  0  0  0  0
    9.4843  -16.1114   21.4830 N   0  0  0  0  0  0  0  0  0  0  0  0
   10.4272  -16.1189   22.5869 C   0  0  1  0  0  0  0  0  0  0  0  0
   11.7190  -15.4797   22.1990 C   0  0  0  0  0  0  0  0  0  0  0  0
   12.6294  -16.3375   21.4364 C   0  0  0  0  0  0  0  0  0  0  0  0
   12.2675  -16.6516   20.2637 O   0  0  0  0  0  0  0  0  0  0  0  0
    9.8226  -15.4742   23.7990 C   0  0  0  0  0  0  0  0  0  0  0  0
   10.5286  -14.8380   24.6188 O   0  0  0  0  0  0  0  0  0  0  0  0
   13.8281  -16.8279   21.8725 O   0  0  0  0  0  0  0  0  0  0  0  0
    8.4383  -15.5920   24.0097 N   0  0  0  0  0  0  0  0  0  0  0  0
    7.7393  -15.0189   25.1400 C   0  0  1  0  0  0  0  0  0  0  0  0
    7.1166  -13.6711   24.7822 C   0  0  0  0  0  0  0  0  0  0  0  0
    6.2256  -13.0342   26.2025 S   0  0  0  0  0  0  0  0  0  0  0  0
    6.6197  -15.8956   25.5609 C   0  0  0  0  0  0  0  0  0  0  0  0
    6.2016  -16.7606   24.7551 O   0  0  0  0  0  0  0  0  0  0  0  0
    6.0280  -15.7923   26.7980 O   0  0  0  0  0  0  0  0  0  0  0  0
  2  1  1  6
  2  4  1  0
  2  3  1  0
  4  5  2  0
  6  4  1  0
  6  7  1  0
  8  9  1  0
  7  8  1  6
  9 10  2  0
 11  7  1  0
 11 12  2  0
 13  9  1  0
 14 11  1  0
 15 14  1  0
 15 18  1  0
 15 16  1  6
 17 16  1  0
 18 19  2  0
 18 20  1  0
M  END
$$$$
