ADC.pdb
     RDKit          3D

 20 19  0  0  1  0  0  0  0  0999 V2000
    7.9651  -12.8502   20.9616 C   0  0  0  0  0  0  0  0  0  0  0  0
    8.0922  -14.3363   20.6972 C   0  0  2  0  0  0  0  0  0  0  0  0
    6.7841  -14.8028   20.2897 N   0  0  0  0  0  0  0  0  0  0  0  0
    8.4355  -14.9772   21.9815 C   0  0  0  0  0  0  0  0  0  0  0  0
    7.5424  -15.1300   22.8434 O   0  0  0  0  0  0  0  0  0  0  0  0
    9.7631  -15.4178   22.2425 N   0  0  0  0  0  0  0  0  0  0  0  0
   10.1018  -16.2073   23.4129 C   0  0  1  0  0  0  0  0  0  0  0  0
   11.2837  -17.0809   23.1524 C   0  0  0  0  0  0  0  0  0  0  0  0
   11.1233  -18.0241   22.0428 C   0  0  0  0  0  0  0  0  0  0  0  0
   11.7315  -17.7462   20.9669 O   0  0  0  0  0  0  0  0  0  0  0  0
   10.3108  -15.3190   24.6036 C   0  0  0  0  0  0  0  0  0  0  0  0
   11.3873  -14.6956   24.7701 O   0  0  0  0  0  0  0  0  0  0  0  0
   10.3809  -19.1712   22.0623 O   0  0  0  0  0  0  0  0  0  0  0  0
    9.2741  -15.1907   25.5435 N   0  0  0  0  0  0  0  0  0  0  0  0
    9.3832  -14.4325   26.7714 C   0  0  1  0  0  0  0  0  0  0  0  0
    8.0412  -13.8199   27.1665 C   0  0  0  0  0  0  0  0  0  0  0  0
    7.4990  -12.6982   25.8764 S   0  0  0  0  0  0  0  0  0  0  0  0
    9.7853  -15.3130   27.8950 C   0  0  0  0  0  0  0  0  0  0  0  0
    9.8095  -16.5522   27.7049 O   0  0  0  0  0  0  0  0  0  0  0  0
   10.1304  -14.8189   29.1311 O   0  0  0  0  0  0  0  0  0  0  0  0
  2  1  1  1
  2  4  1  0
  2  3  1  0
  4  5  2  0
  6  4  1  0
  6  7  1  0
  8  9  1  0
  7  8  1  6
  9 10  2  0
 11  7  1  0
 11 12  2  0
 13  9  1  0
 14 11  1  0
 15 14  1  0
 15 18  1  0
 15 16  1  1
 17 16  1  0
 18 19  2  0
 18 20  1  0
M  END
$$$$
