ADC.pdb
     RDKit          3D

 20 19  0  0  1  0  0  0  0  0999 V2000
    7.9328  -12.1868   19.8247 C   0  0  0  0  0  0  0  0  0  0  0  0
    8.3002  -13.6234   19.5152 C   0  0  2  0  0  0  0  0  0  0  0  0
    7.4101  -14.0663   18.4634 N   0  0  0  0  0  0  0  0  0  0  0  0
    8.0168  -14.4144   20.7284 C   0  0  0  0  0  0  0  0  0  0  0  0
    6.8961  -14.9548   20.8546 O   0  0  0  0  0  0  0  0  0  0  0  0
    9.0008  -14.5643   21.7454 N   0  0  0  0  0  0  0  0  0  0  0  0
    8.8324  -15.4819   22.8577 C   0  0  1  0  0  0  0  0  0  0  0  0
    9.6631  -16.7087   22.6772 C   0  0  0  0  0  0  0  0  0  0  0  0
    9.5899  -17.6730   23.7777 C   0  0  0  0  0  0  0  0  0  0  0  0
    8.4348  -17.9419   24.2232 O   0  0  0  0  0  0  0  0  0  0  0  0
    9.1241  -14.7916   24.1573 C   0  0  0  0  0  0  0  0  0  0  0  0
   10.2736  -14.3639   24.4239 O   0  0  0  0  0  0  0  0  0  0  0  0
   10.6490  -18.3061   24.3651 O   0  0  0  0  0  0  0  0  0  0  0  0
    8.0823  -14.6267   25.0857 N   0  0  0  0  0  0  0  0  0  0  0  0
    8.2221  -13.9256   26.3441 C   0  0  1  0  0  0  0  0  0  0  0  0
    6.8651  -13.4806   26.8852 C   0  0  0  0  0  0  0  0  0  0  0  0
    6.2388  -12.1339   25.8797 S   0  0  0  0  0  0  0  0  0  0  0  0
    8.8095  -14.8150   27.3751 C   0  0  0  0  0  0  0  0  0  0  0  0
    8.9445  -16.0327   27.1082 O   0  0  0  0  0  0  0  0  0  0  0  0
    9.2088  -14.3518   28.6069 O   0  0  0  0  0  0  0  0  0  0  0  0
  2  1  1  1
  2  4  1  0
  2  3  1  0
  4  5  2  0
  6  4  1  0
  6  7  1  0
  8  9  1  0
  7  8  1  6
  9 10  2  0
 11  7  1  0
 11 12  2  0
 13  9  1  0
 14 11  1  0
 15 14  1  0
 15 18  1  0
 15 16  1  1
 17 16  1  0
 18 19  2  0
 18 20  1  0
M  END
$$$$
