ADC.pdb
     RDKit          3D

 20 19  0  0  1  0  0  0  0  0999 V2000
    6.9798  -13.3638   18.3815 C   0  0  0  0  0  0  0  0  0  0  0  0
    8.1145  -13.1554   19.3633 C   0  0  2  0  0  0  0  0  0  0  0  0
    9.3456  -13.2660   18.6104 N   0  0  0  0  0  0  0  0  0  0  0  0
    8.0596  -14.2677   20.3316 C   0  0  0  0  0  0  0  0  0  0  0  0
    6.9966  -14.4794   20.9556 O   0  0  0  0  0  0  0  0  0  0  0  0
    9.1970  -15.0923   20.5575 N   0  0  0  0  0  0  0  0  0  0  0  0
    9.2182  -16.1196   21.5832 C   0  0  1  0  0  0  0  0  0  0  0  0
   10.2474  -17.1590   21.2862 C   0  0  0  0  0  0  0  0  0  0  0  0
   10.3826  -18.2043   22.3037 C   0  0  0  0  0  0  0  0  0  0  0  0
   11.4304  -18.1745   23.0151 O   0  0  0  0  0  0  0  0  0  0  0  0
    9.4138  -15.5057   22.9380 C   0  0  0  0  0  0  0  0  0  0  0  0
   10.4516  -14.8566   23.2152 O   0  0  0  0  0  0  0  0  0  0  0  0
    9.4856  -19.2044   22.5545 O   0  0  0  0  0  0  0  0  0  0  0  0
    8.4087  -15.6674   23.9066 N   0  0  0  0  0  0  0  0  0  0  0  0
    8.4921  -15.1483   25.2550 C   0  0  1  0  0  0  0  0  0  0  0  0
    7.1295  -14.6686   25.7503 C   0  0  0  0  0  0  0  0  0  0  0  0
    6.6821  -13.1615   24.8870 S   0  0  0  0  0  0  0  0  0  0  0  0
    8.9274  -16.2079   26.1967 C   0  0  0  0  0  0  0  0  0  0  0  0
    9.1209  -17.3633   25.7493 O   0  0  0  0  0  0  0  0  0  0  0  0
    9.1248  -15.9675   27.5363 O   0  0  0  0  0  0  0  0  0  0  0  0
  2  1  1  6
  2  4  1  0
  2  3  1  0
  4  5  2  0
  6  4  1  0
  6  7  1  0
  8  9  1  0
  7  8  1  6
  9 10  2  0
 11  7  1  0
 11 12  2  0
 13  9  1  0
 14 11  1  0
 15 14  1  0
 15 18  1  0
 15 16  1  1
 17 16  1  0
 18 19  2  0
 18 20  1  0
M  END
$$$$
