ADC.pdb
     RDKit          3D

 20 19  0  0  1  0  0  0  0  0999 V2000
    8.0996  -12.2674   19.9457 C   0  0  0  0  0  0  0  0  0  0  0  0
    8.2425  -13.6935   19.4553 C   0  0  2  0  0  0  0  0  0  0  0  0
    7.1109  -13.9550   18.5917 N   0  0  0  0  0  0  0  0  0  0  0  0
    8.1384  -14.5709   20.6374 C   0  0  0  0  0  0  0  0  0  0  0  0
    7.0079  -14.8302   21.1051 O   0  0  0  0  0  0  0  0  0  0  0  0
    9.3044  -15.1180   21.2422 N   0  0  0  0  0  0  0  0  0  0  0  0
    9.2507  -15.8921   22.4692 C   0  0  1  0  0  0  0  0  0  0  0  0
   10.2488  -17.0017   22.4526 C   0  0  0  0  0  0  0  0  0  0  0  0
   10.0616  -17.9863   21.3840 C   0  0  0  0  0  0  0  0  0  0  0  0
    8.9502  -18.5937   21.3576 O   0  0  0  0  0  0  0  0  0  0  0  0
    9.4228  -14.9989   23.6622 C   0  0  0  0  0  0  0  0  0  0  0  0
   10.4241  -14.2508   23.7766 O   0  0  0  0  0  0  0  0  0  0  0  0
   10.9724  -18.3081   20.4173 O   0  0  0  0  0  0  0  0  0  0  0  0
    8.4375  -15.0090   24.6640 N   0  0  0  0  0  0  0  0  0  0  0  0
    8.5764  -14.3472   25.9435 C   0  0  1  0  0  0  0  0  0  0  0  0
    7.4699  -13.3168   26.1584 C   0  0  0  0  0  0  0  0  0  0  0  0
    5.8741  -14.1247   26.0270 S   0  0  0  0  0  0  0  0  0  0  0  0
    8.4560  -15.3241   27.0527 C   0  0  0  0  0  0  0  0  0  0  0  0
    8.0937  -16.4939   26.7829 O   0  0  0  0  0  0  0  0  0  0  0  0
    8.7266  -14.9922   28.3595 O   0  0  0  0  0  0  0  0  0  0  0  0
  2  1  1  1
  2  4  1  0
  2  3  1  0
  4  5  2  0
  6  4  1  0
  6  7  1  0
  8  9  1  0
  7  8  1  6
  9 10  2  0
 11  7  1  0
 11 12  2  0
 13  9  1  0
 14 11  1  0
 15 14  1  0
 15 18  1  0
 15 16  1  1
 17 16  1  0
 18 19  2  0
 18 20  1  0
M  END
$$$$
