ADC.pdb
     RDKit          3D

 20 19  0  0  1  0  0  0  0  0999 V2000
    7.2348  -12.9455   19.2057 C   0  0  0  0  0  0  0  0  0  0  0  0
    8.5243  -13.5936   19.6661 C   0  0  2  0  0  0  0  0  0  0  0  0
    8.8717  -14.5872   18.6728 N   0  0  0  0  0  0  0  0  0  0  0  0
    8.2318  -14.2869   20.9356 C   0  0  0  0  0  0  0  0  0  0  0  0
    7.2545  -13.9144   21.6213 O   0  0  0  0  0  0  0  0  0  0  0  0
    9.0465  -15.3656   21.3798 N   0  0  0  0  0  0  0  0  0  0  0  0
    8.8367  -16.0199   22.6587 C   0  0  1  0  0  0  0  0  0  0  0  0
    9.6916  -17.2363   22.7904 C   0  0  0  0  0  0  0  0  0  0  0  0
    9.6497  -18.1490   21.6452 C   0  0  0  0  0  0  0  0  0  0  0  0
   10.7621  -18.4649   21.1278 O   0  0  0  0  0  0  0  0  0  0  0  0
    9.0559  -15.0540   23.7854 C   0  0  0  0  0  0  0  0  0  0  0  0
   10.1215  -14.3980   23.8828 O   0  0  0  0  0  0  0  0  0  0  0  0
    8.5252  -18.6884   21.0863 O   0  0  0  0  0  0  0  0  0  0  0  0
    8.0415  -14.8894   24.7438 N   0  0  0  0  0  0  0  0  0  0  0  0
    8.0670  -13.8857   25.7861 C   0  0  1  0  0  0  0  0  0  0  0  0
    6.6871  -13.2648   25.9926 C   0  0  0  0  0  0  0  0  0  0  0  0
    6.7778  -12.0405   27.3002 S   0  0  0  0  0  0  0  0  0  0  0  0
    8.4492  -14.4909   27.0849 C   0  0  0  0  0  0  0  0  0  0  0  0
    8.2258  -15.7116   27.2648 O   0  0  0  0  0  0  0  0  0  0  0  0
    9.0369  -13.7627   28.0926 O   0  0  0  0  0  0  0  0  0  0  0  0
  2  1  1  6
  2  4  1  0
  2  3  1  0
  4  5  2  0
  6  4  1  0
  6  7  1  0
  8  9  1  0
  7  8  1  1
  9 10  2  0
 11  7  1  0
 11 12  2  0
 13  9  1  0
 14 11  1  0
 15 14  1  0
 15 18  1  0
 15 16  1  1
 17 16  1  0
 18 19  2  0
 18 20  1  0
M  END
$$$$
