ADC.pdb
     RDKit          3D

 20 19  0  0  1  0  0  0  0  0999 V2000
    8.1526  -12.6160   20.7475 C   0  0  0  0  0  0  0  0  0  0  0  0
    8.2760  -14.0353   20.2328 C   0  0  2  0  0  0  0  0  0  0  0  0
    6.9906  -14.3903   19.6704 N   0  0  0  0  0  0  0  0  0  0  0  0
    8.5274  -14.9000   21.4019 C   0  0  0  0  0  0  0  0  0  0  0  0
    7.5591  -15.2850   22.0936 O   0  0  0  0  0  0  0  0  0  0  0  0
    9.8511  -15.2946   21.7438 N   0  0  0  0  0  0  0  0  0  0  0  0
   10.1364  -16.1423   22.8873 C   0  0  1  0  0  0  0  0  0  0  0  0
   11.2255  -17.1156   22.5805 C   0  0  0  0  0  0  0  0  0  0  0  0
   10.9735  -17.9827   21.4268 C   0  0  0  0  0  0  0  0  0  0  0  0
   10.0959  -18.8845   21.5731 O   0  0  0  0  0  0  0  0  0  0  0  0
   10.4510  -15.3085   24.0941 C   0  0  0  0  0  0  0  0  0  0  0  0
   10.7646  -14.0981   23.9857 O   0  0  0  0  0  0  0  0  0  0  0  0
   11.5959  -17.9080   20.2124 O   0  0  0  0  0  0  0  0  0  0  0  0
   10.3901  -15.9055   25.3647 N   0  0  0  0  0  0  0  0  0  0  0  0
   10.4073  -15.1662   26.6088 C   0  0  1  0  0  0  0  0  0  0  0  0
    9.1919  -14.2490   26.7262 C   0  0  0  0  0  0  0  0  0  0  0  0
    9.3185  -13.2877   28.2350 S   0  0  0  0  0  0  0  0  0  0  0  0
   10.3441  -16.0906   27.7667 C   0  0  0  0  0  0  0  0  0  0  0  0
    9.6607  -17.1365   27.6605 O   0  0  0  0  0  0  0  0  0  0  0  0
   11.0058  -15.8406   28.9460 O   0  0  0  0  0  0  0  0  0  0  0  0
  2  1  1  1
  2  4  1  0
  2  3  1  0
  4  5  2  0
  6  4  1  0
  6  7  1  0
  8  9  1  0
  7  8  1  6
  9 10  2  0
 11  7  1  0
 11 12  2  0
 13  9  1  0
 14 11  1  0
 15 14  1  0
 15 18  1  0
 15 16  1  6
 17 16  1  0
 18 19  2  0
 18 20  1  0
M  END
$$$$
