ADC.pdb
     RDKit          3D

 20 19  0  0  1  0  0  0  0  0999 V2000
    8.1607  -12.5851   19.9531 C   0  0  0  0  0  0  0  0  0  0  0  0
    8.1891  -14.0615   19.6152 C   0  0  2  0  0  0  0  0  0  0  0  0
    6.9484  -14.3590   18.9319 N   0  0  0  0  0  0  0  0  0  0  0  0
    8.2047  -14.7985   20.8937 C   0  0  0  0  0  0  0  0  0  0  0  0
    7.1336  -14.9517   21.5209 O   0  0  0  0  0  0  0  0  0  0  0  0
    9.4184  -15.3305   21.4120 N   0  0  0  0  0  0  0  0  0  0  0  0
    9.4605  -16.1239   22.6271 C   0  0  1  0  0  0  0  0  0  0  0  0
   10.3898  -17.2831   22.4841 C   0  0  0  0  0  0  0  0  0  0  0  0
   11.8052  -16.9288   22.3524 C   0  0  0  0  0  0  0  0  0  0  0  0
   12.0789  -15.9473   21.5996 O   0  0  0  0  0  0  0  0  0  0  0  0
    9.8121  -15.2634   23.8046 C   0  0  0  0  0  0  0  0  0  0  0  0
   10.5610  -14.2639   23.6804 O   0  0  0  0  0  0  0  0  0  0  0  0
   12.8528  -17.5576   22.9646 O   0  0  0  0  0  0  0  0  0  0  0  0
    9.2869  -15.5930   25.0656 N   0  0  0  0  0  0  0  0  0  0  0  0
    9.4718  -14.7899   26.2553 C   0  0  1  0  0  0  0  0  0  0  0  0
    8.3269  -13.7957   26.4372 C   0  0  0  0  0  0  0  0  0  0  0  0
    8.6238  -12.8125   27.9075 S   0  0  0  0  0  0  0  0  0  0  0  0
    9.4766  -15.6447   27.4671 C   0  0  0  0  0  0  0  0  0  0  0  0
    8.9767  -16.7922   27.3917 O   0  0  0  0  0  0  0  0  0  0  0  0
   10.0078  -15.2236   28.6636 O   0  0  0  0  0  0  0  0  0  0  0  0
  2  1  1  1
  2  4  1  0
  2  3  1  0
  4  5  2  0
  6  4  1  0
  6  7  1  0
  8  9  1  0
  7  8  1  6
  9 10  2  0
 11  7  1  0
 11 12  2  0
 13  9  1  0
 14 11  1  0
 15 14  1  0
 15 18  1  0
 15 16  1  1
 17 16  1  0
 18 19  2  0
 18 20  1  0
M  END
$$$$
