ADC.pdb
     RDKit          3D

 20 19  0  0  1  0  0  0  0  0999 V2000
    8.2142  -12.2364   19.7367 C   0  0  0  0  0  0  0  0  0  0  0  0
    8.0852  -13.6673   19.2563 C   0  0  2  0  0  0  0  0  0  0  0  0
    6.7346  -13.8224   18.7600 N   0  0  0  0  0  0  0  0  0  0  0  0
    8.2500  -14.5374   20.4369 C   0  0  0  0  0  0  0  0  0  0  0  0
    7.2583  -14.7755   21.1606 O   0  0  0  0  0  0  0  0  0  0  0  0
    9.5175  -15.1014   20.7536 N   0  0  0  0  0  0  0  0  0  0  0  0
    9.6940  -16.0526   21.8360 C   0  0  1  0  0  0  0  0  0  0  0  0
   10.7580  -17.0482   21.5129 C   0  0  0  0  0  0  0  0  0  0  0  0
   10.8429  -18.1841   22.4343 C   0  0  0  0  0  0  0  0  0  0  0  0
   11.1310  -19.3085   21.9269 O   0  0  0  0  0  0  0  0  0  0  0  0
    9.9671  -15.3364   23.1257 C   0  0  0  0  0  0  0  0  0  0  0  0
   10.7892  -14.3899   23.1835 O   0  0  0  0  0  0  0  0  0  0  0  0
   10.6404  -18.1418   23.7851 O   0  0  0  0  0  0  0  0  0  0  0  0
    9.2832  -15.7424   24.2841 N   0  0  0  0  0  0  0  0  0  0  0  0
    9.3187  -15.0234   25.5397 C   0  0  1  0  0  0  0  0  0  0  0  0
    8.0555  -14.1880   25.7368 C   0  0  0  0  0  0  0  0  0  0  0  0
    8.1648  -13.3072   27.2953 S   0  0  0  0  0  0  0  0  0  0  0  0
    9.3747  -15.9682   26.6813 C   0  0  0  0  0  0  0  0  0  0  0  0
    8.8925  -17.1161   26.5321 O   0  0  0  0  0  0  0  0  0  0  0  0
    9.9345  -15.6298   27.8910 O   0  0  0  0  0  0  0  0  0  0  0  0
  2  1  1  1
  2  4  1  0
  2  3  1  0
  4  5  2  0
  6  4  1  0
  6  7  1  0
  8  9  1  0
  7  8  1  6
  9 10  2  0
 11  7  1  0
 11 12  2  0
 13  9  1  0
 14 11  1  0
 15 14  1  0
 15 18  1  0
 15 16  1  1
 17 16  1  0
 18 19  2  0
 18 20  1  0
M  END
$$$$
