ADC.pdb
     RDKit          3D

 20 19  0  0  1  0  0  0  0  0999 V2000
    8.1068  -12.5842   19.8072 C   0  0  0  0  0  0  0  0  0  0  0  0
    8.3137  -13.8969   19.0801 C   0  0  2  0  0  0  0  0  0  0  0  0
    7.0579  -14.2233   18.4390 N   0  0  0  0  0  0  0  0  0  0  0  0
    8.5929  -14.9210   20.1054 C   0  0  0  0  0  0  0  0  0  0  0  0
    7.6469  -15.3739   20.7866 O   0  0  0  0  0  0  0  0  0  0  0  0
    9.9182  -15.3916   20.3216 N   0  0  0  0  0  0  0  0  0  0  0  0
   10.2264  -16.4172   21.3019 C   0  0  1  0  0  0  0  0  0  0  0  0
   11.5016  -17.1177   20.9690 C   0  0  0  0  0  0  0  0  0  0  0  0
   11.5159  -17.7916   19.6682 C   0  0  0  0  0  0  0  0  0  0  0  0
   10.6865  -18.7355   19.5068 O   0  0  0  0  0  0  0  0  0  0  0  0
   10.2499  -15.8333   22.6837 C   0  0  0  0  0  0  0  0  0  0  0  0
   11.0318  -14.8981   22.9823 O   0  0  0  0  0  0  0  0  0  0  0  0
   12.3386  -17.4965   18.6176 O   0  0  0  0  0  0  0  0  0  0  0  0
    9.3751  -16.3520   23.6533 N   0  0  0  0  0  0  0  0  0  0  0  0
    9.3954  -15.9710   25.0494 C   0  0  1  0  0  0  0  0  0  0  0  0
    8.0941  -15.2828   25.4559 C   0  0  0  0  0  0  0  0  0  0  0  0
    6.7039  -16.2920   24.9406 S   0  0  0  0  0  0  0  0  0  0  0  0
    9.5210  -17.1680   25.9158 C   0  0  0  0  0  0  0  0  0  0  0  0
    9.3808  -18.3003   25.3957 O   0  0  0  0  0  0  0  0  0  0  0  0
    9.7844  -17.0783   27.2625 O   0  0  0  0  0  0  0  0  0  0  0  0
  2  1  1  1
  2  4  1  0
  2  3  1  0
  4  5  2  0
  6  4  1  0
  6  7  1  0
  8  9  1  0
  7  8  1  6
  9 10  2  0
 11  7  1  0
 11 12  2  0
 13  9  1  0
 14 11  1  0
 15 14  1  0
 15 18  1  0
 15 16  1  1
 17 16  1  0
 18 19  2  0
 18 20  1  0
M  END
$$$$
