ADC.pdb
     RDKit          3D

 20 19  0  0  1  0  0  0  0  0999 V2000
    8.0739  -12.2618   19.8604 C   0  0  0  0  0  0  0  0  0  0  0  0
    8.1672  -13.7379   19.5330 C   0  0  2  0  0  0  0  0  0  0  0  0
    7.0218  -14.0573   18.7080 N   0  0  0  0  0  0  0  0  0  0  0  0
    8.0430  -14.4731   20.8066 C   0  0  0  0  0  0  0  0  0  0  0  0
    6.9050  -14.6737   21.2850 O   0  0  0  0  0  0  0  0  0  0  0  0
    9.1982  -14.9501   21.4869 N   0  0  0  0  0  0  0  0  0  0  0  0
    9.1112  -15.7426   22.7002 C   0  0  1  0  0  0  0  0  0  0  0  0
   10.1220  -16.8408   22.7023 C   0  0  0  0  0  0  0  0  0  0  0  0
    9.9807  -17.8138   21.6162 C   0  0  0  0  0  0  0  0  0  0  0  0
    9.1032  -18.7146   21.7692 O   0  0  0  0  0  0  0  0  0  0  0  0
    9.2320  -14.8649   23.9109 C   0  0  0  0  0  0  0  0  0  0  0  0
   10.2147  -14.0995   24.0650 O   0  0  0  0  0  0  0  0  0  0  0  0
   10.7059  -17.8385   20.4581 O   0  0  0  0  0  0  0  0  0  0  0  0
    8.2193  -14.9098   24.8840 N   0  0  0  0  0  0  0  0  0  0  0  0
    8.3093  -14.2660   26.1771 C   0  0  1  0  0  0  0  0  0  0  0  0
    6.9490  -13.7412   26.6316 C   0  0  0  0  0  0  0  0  0  0  0  0
    6.3127  -12.6010   25.4021 S   0  0  0  0  0  0  0  0  0  0  0  0
    8.7493  -15.2324   27.2123 C   0  0  0  0  0  0  0  0  0  0  0  0
    8.8722  -16.4383   26.8913 O   0  0  0  0  0  0  0  0  0  0  0  0
    9.0253  -14.8527   28.5049 O   0  0  0  0  0  0  0  0  0  0  0  0
  2  1  1  1
  2  4  1  0
  2  3  1  0
  4  5  2  0
  6  4  1  0
  6  7  1  0
  8  9  1  0
  7  8  1  6
  9 10  2  0
 11  7  1  0
 11 12  2  0
 13  9  1  0
 14 11  1  0
 15 14  1  0
 15 18  1  0
 15 16  1  1
 17 16  1  0
 18 19  2  0
 18 20  1  0
M  END
$$$$
