ADC.pdb
     RDKit          3D

 20 19  0  0  1  0  0  0  0  0999 V2000
    8.4402  -12.3839   19.5453 C   0  0  0  0  0  0  0  0  0  0  0  0
    8.6743  -13.5417   18.5971 C   0  0  2  0  0  0  0  0  0  0  0  0
    7.4174  -13.7941   17.9255 N   0  0  0  0  0  0  0  0  0  0  0  0
    9.0049  -14.7188   19.4236 C   0  0  0  0  0  0  0  0  0  0  0  0
    8.0778  -15.3730   19.9495 O   0  0  0  0  0  0  0  0  0  0  0  0
   10.3583  -15.1101   19.6239 N   0  0  0  0  0  0  0  0  0  0  0  0
   10.7258  -16.2119   20.4949 C   0  0  1  0  0  0  0  0  0  0  0  0
   11.9940  -16.8574   20.0446 C   0  0  0  0  0  0  0  0  0  0  0  0
   11.8846  -17.6441   18.8135 C   0  0  0  0  0  0  0  0  0  0  0  0
   12.6619  -17.3275   17.8646 O   0  0  0  0  0  0  0  0  0  0  0  0
   10.8048  -15.7511   21.9204 C   0  0  0  0  0  0  0  0  0  0  0  0
   11.6588  -14.9069   22.2856 O   0  0  0  0  0  0  0  0  0  0  0  0
   11.0245  -18.6836   18.5962 O   0  0  0  0  0  0  0  0  0  0  0  0
    9.9001  -16.2821   22.8553 N   0  0  0  0  0  0  0  0  0  0  0  0
    9.8810  -15.9243   24.2575 C   0  0  1  0  0  0  0  0  0  0  0  0
    8.4546  -15.6933   24.7520 C   0  0  0  0  0  0  0  0  0  0  0  0
    7.7901  -14.2189   23.9766 S   0  0  0  0  0  0  0  0  0  0  0  0
   10.4349  -17.0236   25.0846 C   0  0  0  0  0  0  0  0  0  0  0  0
   10.6833  -18.1214   24.5319 O   0  0  0  0  0  0  0  0  0  0  0  0
   10.6837  -16.8802   26.4295 O   0  0  0  0  0  0  0  0  0  0  0  0
  2  1  1  1
  2  4  1  0
  2  3  1  0
  4  5  2  0
  6  4  1  0
  6  7  1  0
  8  9  1  0
  7  8  1  6
  9 10  2  0
 11  7  1  0
 11 12  2  0
 13  9  1  0
 14 11  1  0
 15 14  1  0
 15 18  1  0
 15 16  1  1
 17 16  1  0
 18 19  2  0
 18 20  1  0
M  END
$$$$
