ADC.pdb
     RDKit          3D

 20 19  0  0  1  0  0  0  0  0999 V2000
    8.2694  -12.6419   19.2245 C   0  0  0  0  0  0  0  0  0  0  0  0
    8.6249  -13.8851   18.4355 C   0  0  2  0  0  0  0  0  0  0  0  0
    7.4055  -14.3446   17.8056 N   0  0  0  0  0  0  0  0  0  0  0  0
    9.0596  -14.9063   19.4082 C   0  0  0  0  0  0  0  0  0  0  0  0
    8.1964  -15.6013   19.9877 O   0  0  0  0  0  0  0  0  0  0  0  0
   10.4408  -15.1030   19.6881 N   0  0  0  0  0  0  0  0  0  0  0  0
   10.9105  -16.1543   20.5724 C   0  0  1  0  0  0  0  0  0  0  0  0
   12.2584  -16.6454   20.1604 C   0  0  0  0  0  0  0  0  0  0  0  0
   12.2905  -17.3691   18.8870 C   0  0  0  0  0  0  0  0  0  0  0  0
   11.4955  -18.3483   18.7682 O   0  0  0  0  0  0  0  0  0  0  0  0
   10.8936  -15.6882   21.9982 C   0  0  0  0  0  0  0  0  0  0  0  0
   11.7192  -14.8401   22.4160 O   0  0  0  0  0  0  0  0  0  0  0  0
   13.0963  -17.0858   17.8201 O   0  0  0  0  0  0  0  0  0  0  0  0
    9.9304  -16.2185   22.8731 N   0  0  0  0  0  0  0  0  0  0  0  0
    9.8724  -15.9239   24.2889 C   0  0  1  0  0  0  0  0  0  0  0  0
    8.4349  -15.6904   24.7487 C   0  0  0  0  0  0  0  0  0  0  0  0
    7.6697  -14.4550   23.6976 S   0  0  0  0  0  0  0  0  0  0  0  0
   10.3819  -17.0687   25.0820 C   0  0  0  0  0  0  0  0  0  0  0  0
    9.5824  -17.9825   25.3952 O   0  0  0  0  0  0  0  0  0  0  0  0
   11.6940  -17.1612   25.4832 O   0  0  0  0  0  0  0  0  0  0  0  0
  2  1  1  1
  2  4  1  0
  2  3  1  0
  4  5  2  0
  6  4  1  0
  6  7  1  0
  8  9  1  0
  7  8  1  6
  9 10  2  0
 11  7  1  0
 11 12  2  0
 13  9  1  0
 14 11  1  0
 15 14  1  0
 15 18  1  0
 15 16  1  1
 17 16  1  0
 18 19  2  0
 18 20  1  0
M  END
$$$$
