FRI.pdb
     RDKit          3D

 31 31  0  0  1  0  0  0  0  0999 V2000
    5.6555  -17.8794   20.0971 N   0  0  0  0  0  0  0  0  0  0  0  0
    6.4944  -16.7525   20.3426 C   0  0  1  0  0  0  0  0  0  0  0  0
    5.7888  -15.4278   20.3690 C   0  0  0  0  0  0  0  0  0  0  0  0
    6.7608  -14.3173   20.6131 C   0  0  0  0  0  0  0  0  0  0  0  0
    7.4987  -13.8885   19.5306 C   0  0  0  0  0  0  0  0  0  0  0  0
    8.4179  -12.8662   19.6799 C   0  0  0  0  0  0  0  0  0  0  0  0
    8.5793  -12.2904   20.9228 C   0  0  0  0  0  0  0  0  0  0  0  0
    7.8393  -12.7232   22.0003 C   0  0  0  0  0  0  0  0  0  0  0  0
    6.9209  -13.7395   21.8660 C   0  0  0  0  0  0  0  0  0  0  0  0
    7.1452  -16.9354   21.6832 C   0  0  0  0  0  0  0  0  0  0  0  0
    6.4688  -17.2757   22.6626 O   0  0  0  0  0  0  0  0  0  0  0  0
   13.7889  -19.5274   25.8896 N   0  0  0  0  0  0  0  0  0  0  0  0
   14.1698  -19.0915   24.5932 C   0  0  0  0  0  0  0  0  0  0  0  0
   15.3480  -18.6227   24.3736 N   0  0  0  0  0  0  0  0  0  0  0  0
   13.2721  -19.1593   23.4934 N   0  0  0  0  0  0  0  0  0  0  0  0
   11.9843  -19.7310   23.6614 C   0  0  0  0  0  0  0  0  0  0  0  0
   10.8938  -18.7585   24.0533 C   0  0  0  0  0  0  0  0  0  0  0  0
   10.3206  -18.1523   22.7959 C   0  0  0  0  0  0  0  0  0  0  0  0
    9.1839  -17.2138   23.0424 C   0  0  2  0  0  0  0  0  0  0  0  0
    8.5174  -16.7356   21.8904 N   0  0  0  0  0  0  0  0  0  0  0  0
    9.5093  -16.0713   23.9286 C   0  0  0  0  0  0  0  0  0  0  0  0
   10.3643  -15.2083   23.5793 O   0  0  0  0  0  0  0  0  0  0  0  0
   15.6254  -18.3456   23.4277 C   0  0  0  0  0  0  0  0  0  0  0  0
    6.1481  -12.7427   26.1011 C   0  0  0  0  0  0  0  0  0  0  0  0
    7.3922  -13.4378   25.5278 C   0  0  2  0  0  0  0  0  0  0  0  0
    8.1944  -14.0505   26.6427 C   0  0  0  0  0  0  0  0  0  0  0  0
    8.5352  -13.0021   27.6505 C   0  0  2  0  0  0  0  0  0  0  0  0
    9.3631  -14.7974   26.0757 N   0  0  0  0  0  0  0  0  0  0  0  0
    8.9019  -15.8739   25.1900 C   0  0  0  0  0  0  0  0  0  0  0  0
   10.1399  -15.4261   27.1593 O   0  0  0  0  0  0  0  0  0  0  0  0
   11.2253  -14.8986   27.5132 O   0  0  0  0  0  0  0  0  0  0  0  0
  2  1  1  1
  2 10  1  0
  3  2  1  0
  3  4  1  0
  4  9  2  0
  4  5  1  0
  5  6  2  0
  6  7  1  0
  8  7  2  0
  9  8  1  0
 10 11  2  0
 13 15  1  0
 13 12  1  0
 14 13  2  0
 16 15  1  0
 16 17  1  0
 19 18  1  6
 18 17  1  0
 20 19  1  0
 20 10  1  0
 21 19  1  0
 21 22  2  0
 23 24  1  0
 24 25  1  0
 25 26  1  1
 27 28  1  6
 27 25  1  0
 28 21  1  0
 29 31  1  0
 29 27  1  0
 30 29  2  0
M  END
$$$$
