FRI.pdb
     RDKit          3D

 31 31  0  0  1  0  0  0  0  0999 V2000
    9.7667  -15.8534   20.3427 N   0  0  0  0  0  0  0  0  0  0  0  0
    9.1891  -15.1927   21.4669 C   0  0  1  0  0  0  0  0  0  0  0  0
    7.7402  -14.8305   21.3167 C   0  0  0  0  0  0  0  0  0  0  0  0
    7.5588  -13.8213   20.2276 C   0  0  0  0  0  0  0  0  0  0  0  0
    6.9435  -14.2568   19.0735 C   0  0  0  0  0  0  0  0  0  0  0  0
    6.7423  -13.3805   18.0227 C   0  0  0  0  0  0  0  0  0  0  0  0
    7.1662  -12.0744   18.1526 C   0  0  0  0  0  0  0  0  0  0  0  0
    7.7802  -11.6455   19.3080 C   0  0  0  0  0  0  0  0  0  0  0  0
    7.9869  -12.5067   20.3616 C   0  0  0  0  0  0  0  0  0  0  0  0
    9.2977  -16.1052   22.6542 C   0  0  0  0  0  0  0  0  0  0  0  0
    8.7900  -15.7823   23.7362 O   0  0  0  0  0  0  0  0  0  0  0  0
   10.8624  -22.1019   19.8388 N   0  0  0  0  0  0  0  0  0  0  0  0
   10.6010  -22.8930   20.9884 C   0  0  0  0  0  0  0  0  0  0  0  0
   11.2067  -24.0137   21.1707 N   0  0  0  0  0  0  0  0  0  0  0  0
    9.6691  -22.4789   21.9784 N   0  0  0  0  0  0  0  0  0  0  0  0
    9.4743  -21.0975   22.2376 C   0  0  0  0  0  0  0  0  0  0  0  0
    9.8506  -20.6440   23.6308 C   0  0  0  0  0  0  0  0  0  0  0  0
   10.7946  -19.4727   23.5127 C   0  0  0  0  0  0  0  0  0  0  0  0
   10.1441  -18.1476   23.7465 C   0  0  2  0  0  0  0  0  0  0  0  0
    9.9622  -17.3386   22.6009 N   0  0  0  0  0  0  0  0  0  0  0  0
   10.7634  -17.3387   24.8230 C   0  0  0  0  0  0  0  0  0  0  0  0
   11.8846  -16.7822   24.6467 O   0  0  0  0  0  0  0  0  0  0  0  0
   11.0436  -24.5560   22.0238 C   0  0  0  0  0  0  0  0  0  0  0  0
   10.1275  -13.0461   28.8230 C   0  0  0  0  0  0  0  0  0  0  0  0
   10.7952  -14.4096   28.5893 C   0  0  2  0  0  0  0  0  0  0  0  0
   10.1349  -15.1104   27.4340 C   0  0  0  0  0  0  0  0  0  0  0  0
    8.6730  -15.2548   27.7040 C   0  0  2  0  0  0  0  0  0  0  0  0
   10.8596  -16.3871   27.1337 N   0  0  0  0  0  0  0  0  0  0  0  0
   10.1588  -17.1392   26.0854 C   0  0  0  0  0  0  0  0  0  0  0  0
   10.9005  -17.2435   28.3326 O   0  0  0  0  0  0  0  0  0  0  0  0
   10.0750  -18.1870   28.4332 O   0  0  0  0  0  0  0  0  0  0  0  0
  2  1  1  6
  2 10  1  0
  3  2  1  0
  3  4  1  0
  4  9  2  0
  4  5  1  0
  5  6  2  0
  6  7  1  0
  8  7  2  0
  9  8  1  0
 10 11  2  0
 13 15  1  0
 13 12  1  0
 14 13  2  0
 16 15  1  0
 16 17  1  0
 19 18  1  6
 18 17  1  0
 20 19  1  0
 20 10  1  0
 21 19  1  0
 21 22  2  0
 23 24  1  0
 24 25  1  0
 25 26  1  6
 27 28  1  1
 27 25  1  0
 28 21  1  0
 29 31  1  0
 29 27  1  0
 30 29  2  0
M  END
$$$$
