FRI.pdb
     RDKit          3D

 31 31  0  0  1  0  0  0  0  0999 V2000
    5.5830  -16.2396   25.3493 N   0  0  0  0  0  0  0  0  0  0  0  0
    6.7607  -15.6702   24.7812 C   0  0  1  0  0  0  0  0  0  0  0  0
    7.5485  -14.7860   25.7036 C   0  0  0  0  0  0  0  0  0  0  0  0
    6.9073  -13.4395   25.8189 C   0  0  0  0  0  0  0  0  0  0  0  0
    7.4090  -12.4414   25.0113 C   0  0  0  0  0  0  0  0  0  0  0  0
    6.8672  -11.1700   25.0634 C   0  0  0  0  0  0  0  0  0  0  0  0
    5.8245  -10.9243   25.9322 C   0  0  0  0  0  0  0  0  0  0  0  0
    5.3278  -11.9255   26.7365 C   0  0  0  0  0  0  0  0  0  0  0  0
    5.8574  -13.1953   26.6949 C   0  0  0  0  0  0  0  0  0  0  0  0
    7.6669  -16.7904   24.3590 C   0  0  0  0  0  0  0  0  0  0  0  0
    7.7830  -17.7984   25.0683 O   0  0  0  0  0  0  0  0  0  0  0  0
   14.5844  -17.2999   21.5221 N   0  0  0  0  0  0  0  0  0  0  0  0
   14.5210  -18.3705   20.5918 C   0  0  0  0  0  0  0  0  0  0  0  0
   15.5651  -19.0718   20.3197 N   0  0  0  0  0  0  0  0  0  0  0  0
   13.3089  -18.7099   19.9318 N   0  0  0  0  0  0  0  0  0  0  0  0
   12.1250  -17.9741   20.1971 C   0  0  0  0  0  0  0  0  0  0  0  0
   11.6202  -18.0573   21.6207 C   0  0  0  0  0  0  0  0  0  0  0  0
   10.3264  -17.2863   21.7140 C   0  0  0  0  0  0  0  0  0  0  0  0
    9.7055  -17.3117   23.0733 C   0  0  2  0  0  0  0  0  0  0  0  0
    8.4094  -16.7544   23.1703 N   0  0  0  0  0  0  0  0  0  0  0  0
   10.5584  -16.7562   24.1506 C   0  0  0  0  0  0  0  0  0  0  0  0
   11.1431  -15.6454   24.0013 O   0  0  0  0  0  0  0  0  0  0  0  0
   15.5133  -19.8302   19.6337 C   0  0  0  0  0  0  0  0  0  0  0  0
   10.8979  -13.9930   28.9251 C   0  0  0  0  0  0  0  0  0  0  0  0
   11.7097  -15.0390   28.1463 C   0  0  2  0  0  0  0  0  0  0  0  0
   10.8425  -15.6830   27.0997 C   0  0  0  0  0  0  0  0  0  0  0  0
    9.5359  -16.0793   27.7052 C   0  0  2  0  0  0  0  0  0  0  0  0
   11.5970  -16.7881   26.4254 N   0  0  0  0  0  0  0  0  0  0  0  0
   10.7698  -17.4122   25.3851 C   0  0  0  0  0  0  0  0  0  0  0  0
   11.9397  -17.8394   27.4001 O   0  0  0  0  0  0  0  0  0  0  0  0
   11.2540  -18.8934   27.4225 O   0  0  0  0  0  0  0  0  0  0  0  0
  2  1  1  1
  2 10  1  0
  3  2  1  0
  3  4  1  0
  4  9  2  0
  4  5  1  0
  5  6  2  0
  6  7  1  0
  8  7  2  0
  9  8  1  0
 10 11  2  0
 13 15  1  0
 13 12  1  0
 14 13  2  0
 16 15  1  0
 16 17  1  0
 19 18  1  6
 18 17  1  0
 20 19  1  0
 20 10  1  0
 21 19  1  0
 21 22  2  0
 23 24  1  0
 24 25  1  0
 25 26  1  6
 27 28  1  1
 27 25  1  0
 28 21  1  0
 29 31  1  0
 29 27  1  0
 30 29  2  0
M  END
$$$$
