FRI.pdb
     RDKit          3D

 31 31  0  0  1  0  0  0  0  0999 V2000
    5.7900  -18.3966   26.4602 N   0  0  0  0  0  0  0  0  0  0  0  0
    6.1103  -17.0355   26.1795 C   0  0  1  0  0  0  0  0  0  0  0  0
    6.8931  -16.3323   27.2499 C   0  0  0  0  0  0  0  0  0  0  0  0
    6.5980  -14.8658   27.2420 C   0  0  0  0  0  0  0  0  0  0  0  0
    7.1437  -14.1169   28.2626 C   0  0  0  0  0  0  0  0  0  0  0  0
    6.9134  -12.7546   28.3218 C   0  0  0  0  0  0  0  0  0  0  0  0
    6.1339  -12.1668   27.3475 C   0  0  0  0  0  0  0  0  0  0  0  0
    5.5916  -12.9203   26.3306 C   0  0  0  0  0  0  0  0  0  0  0  0
    5.8125  -14.2770   26.2594 C   0  0  0  0  0  0  0  0  0  0  0  0
    6.9374  -16.9969   24.9270 C   0  0  0  0  0  0  0  0  0  0  0  0
    7.7380  -17.9087   24.6812 O   0  0  0  0  0  0  0  0  0  0  0  0
   10.6496  -14.5769   18.4261 N   0  0  0  0  0  0  0  0  0  0  0  0
    9.4744  -13.9941   17.8830 C   0  0  0  0  0  0  0  0  0  0  0  0
    9.5431  -12.9703   17.1064 N   0  0  0  0  0  0  0  0  0  0  0  0
    8.1848  -14.5177   18.1707 N   0  0  0  0  0  0  0  0  0  0  0  0
    7.5840  -14.2739   19.4328 C   0  0  0  0  0  0  0  0  0  0  0  0
    8.2499  -14.9580   20.6063 C   0  0  0  0  0  0  0  0  0  0  0  0
    7.2264  -15.1307   21.7016 C   0  0  0  0  0  0  0  0  0  0  0  0
    7.7522  -15.8284   22.9142 C   0  0  2  0  0  0  0  0  0  0  0  0
    6.8485  -15.9536   23.9948 N   0  0  0  0  0  0  0  0  0  0  0  0
    9.0441  -15.3029   23.4157 C   0  0  0  0  0  0  0  0  0  0  0  0
    9.4883  -14.1910   23.0101 O   0  0  0  0  0  0  0  0  0  0  0  0
    8.6876  -12.5205   16.7682 C   0  0  0  0  0  0  0  0  0  0  0  0
   10.2913  -14.7101   28.4514 C   0  0  0  0  0  0  0  0  0  0  0  0
   10.4422  -15.5177   27.1534 C   0  0  2  0  0  0  0  0  0  0  0  0
   10.9405  -14.6243   26.0509 C   0  0  0  0  0  0  0  0  0  0  0  0
   10.0449  -13.4357   25.9248 C   0  0  1  0  0  0  0  0  0  0  0  0
   11.1260  -15.4220   24.7961 N   0  0  0  0  0  0  0  0  0  0  0  0
    9.8454  -15.9899   24.3565 C   0  0  0  0  0  0  0  0  0  0  0  0
   12.0429  -16.5499   25.0406 O   0  0  0  0  0  0  0  0  0  0  0  0
   11.5778  -17.7183   25.0557 O   0  0  0  0  0  0  0  0  0  0  0  0
  2  1  1  1
  2 10  1  0
  3  2  1  0
  3  4  1  0
  4  9  2  0
  4  5  1  0
  5  6  2  0
  6  7  1  0
  8  7  2  0
  9  8  1  0
 10 11  2  0
 13 15  1  0
 13 12  1  0
 14 13  2  0
 16 15  1  0
 16 17  1  0
 19 18  1  6
 18 17  1  0
 20 19  1  0
 20 10  1  0
 21 19  1  0
 21 22  2  0
 23 24  1  0
 24 25  1  0
 25 26  1  6
 27 28  1  1
 27 25  1  0
 28 21  1  0
 29 31  1  0
 29 27  1  0
 30 29  2  0
M  END
$$$$
