FRI.pdb
     RDKit          3D

 31 31  0  0  1  0  0  0  0  0999 V2000
    7.9780  -17.5755   18.3771 N   0  0  0  0  0  0  0  0  0  0  0  0
    8.1834  -16.3936   19.1483 C   0  0  1  0  0  0  0  0  0  0  0  0
    7.1193  -15.3451   19.0015 C   0  0  0  0  0  0  0  0  0  0  0  0
    7.4287  -14.1563   19.8551 C   0  0  0  0  0  0  0  0  0  0  0  0
    8.2215  -13.1781   19.2941 C   0  0  0  0  0  0  0  0  0  0  0  0
    8.5506  -12.0502   20.0234 C   0  0  0  0  0  0  0  0  0  0  0  0
    8.0734  -11.9260   21.3116 C   0  0  0  0  0  0  0  0  0  0  0  0
    7.2819  -12.9066   21.8664 C   0  0  0  0  0  0  0  0  0  0  0  0
    6.9466  -14.0343   21.1521 C   0  0  0  0  0  0  0  0  0  0  0  0
    8.2274  -16.7811   20.5982 C   0  0  0  0  0  0  0  0  0  0  0  0
    7.2330  -17.2823   21.1392 O   0  0  0  0  0  0  0  0  0  0  0  0
   12.6528  -19.4563   19.6684 N   0  0  0  0  0  0  0  0  0  0  0  0
   13.3637  -20.0945   20.7186 C   0  0  0  0  0  0  0  0  0  0  0  0
   14.6300  -20.3045   20.6266 N   0  0  0  0  0  0  0  0  0  0  0  0
   12.7097  -20.5201   21.9065 N   0  0  0  0  0  0  0  0  0  0  0  0
   11.3158  -20.3077   22.0655 C   0  0  0  0  0  0  0  0  0  0  0  0
   10.8266  -18.9281   21.6835 C   0  0  0  0  0  0  0  0  0  0  0  0
   10.4329  -18.1958   22.9428 C   0  0  0  0  0  0  0  0  0  0  0  0
    9.4492  -17.0935   22.7172 C   0  0  2  0  0  0  0  0  0  0  0  0
    9.3672  -16.6005   21.3943 N   0  0  0  0  0  0  0  0  0  0  0  0
    9.5747  -15.9540   23.6567 C   0  0  0  0  0  0  0  0  0  0  0  0
   10.5922  -15.2045   23.6280 O   0  0  0  0  0  0  0  0  0  0  0  0
   15.1242  -20.8120   21.3660 C   0  0  0  0  0  0  0  0  0  0  0  0
    6.8025  -11.6765   26.9296 C   0  0  0  0  0  0  0  0  0  0  0  0
    7.9956  -12.6362   26.8064 C   0  0  2  0  0  0  0  0  0  0  0  0
    7.6652  -13.7406   25.8405 C   0  0  0  0  0  0  0  0  0  0  0  0
    6.4213  -14.4389   26.2831 C   0  0  2  0  0  0  0  0  0  0  0  0
    8.8613  -14.6229   25.6500 N   0  0  0  0  0  0  0  0  0  0  0  0
    8.5917  -15.6358   24.6218 C   0  0  0  0  0  0  0  0  0  0  0  0
    9.1689  -15.3406   26.9001 O   0  0  0  0  0  0  0  0  0  0  0  0
    8.8314  -16.5475   27.0062 O   0  0  0  0  0  0  0  0  0  0  0  0
  2  1  1  6
  2 10  1  0
  3  2  1  0
  3  4  1  0
  4  9  2  0
  4  5  1  0
  5  6  2  0
  6  7  1  0
  8  7  2  0
  9  8  1  0
 10 11  2  0
 13 15  1  0
 13 12  1  0
 14 13  2  0
 16 15  1  0
 16 17  1  0
 19 18  1  6
 18 17  1  0
 20 19  1  0
 20 10  1  0
 21 19  1  0
 21 22  2  0
 23 24  1  0
 24 25  1  0
 25 26  1  6
 27 28  1  1
 27 25  1  0
 28 21  1  0
 29 31  1  0
 29 27  1  0
 30 29  2  0
M  END
$$$$
