FRI.pdb
     RDKit          3D

 31 31  0  0  1  0  0  0  0  0999 V2000
    6.8513  -17.7406   19.9546 N   0  0  0  0  0  0  0  0  0  0  0  0
    7.1850  -16.7104   20.8826 C   0  0  1  0  0  0  0  0  0  0  0  0
    6.2467  -15.5388   20.8970 C   0  0  0  0  0  0  0  0  0  0  0  0
    6.8919  -14.3386   20.2799 C   0  0  0  0  0  0  0  0  0  0  0  0
    7.2786  -13.3312   21.1377 C   0  0  0  0  0  0  0  0  0  0  0  0
    7.8809  -12.1903   20.6396 C   0  0  0  0  0  0  0  0  0  0  0  0
    8.0844  -12.0828   19.2797 C   0  0  0  0  0  0  0  0  0  0  0  0
    7.6959  -13.0925   18.4280 C   0  0  0  0  0  0  0  0  0  0  0  0
    7.0955  -14.2334   18.9099 C   0  0  0  0  0  0  0  0  0  0  0  0
    7.1777  -17.3017   22.2626 C   0  0  0  0  0  0  0  0  0  0  0  0
    6.4113  -18.2346   22.5364 O   0  0  0  0  0  0  0  0  0  0  0  0
    6.0341  -21.7920   22.4210 N   0  0  0  0  0  0  0  0  0  0  0  0
    5.4254  -22.2174   23.6310 C   0  0  0  0  0  0  0  0  0  0  0  0
    4.3454  -22.9170   23.6167 N   0  0  0  0  0  0  0  0  0  0  0  0
    5.9836  -21.8929   24.8971 N   0  0  0  0  0  0  0  0  0  0  0  0
    7.1355  -21.0680   24.9757 C   0  0  0  0  0  0  0  0  0  0  0  0
    7.0152  -19.7263   24.2873 C   0  0  0  0  0  0  0  0  0  0  0  0
    8.2688  -18.9336   24.5647 C   0  0  0  0  0  0  0  0  0  0  0  0
    8.0603  -17.4536   24.5602 C   0  0  2  0  0  0  0  0  0  0  0  0
    8.0168  -16.8403   23.2867 N   0  0  0  0  0  0  0  0  0  0  0  0
    8.9877  -16.6982   25.4353 C   0  0  0  0  0  0  0  0  0  0  0  0
   10.2233  -16.6476   25.1733 O   0  0  0  0  0  0  0  0  0  0  0  0
    3.8658  -23.1443   24.4924 C   0  0  0  0  0  0  0  0  0  0  0  0
    7.2405  -12.0272   26.9338 C   0  0  0  0  0  0  0  0  0  0  0  0
    8.0730  -13.2424   26.4980 C   0  0  2  0  0  0  0  0  0  0  0  0
    8.7719  -13.8367   27.6898 C   0  0  0  0  0  0  0  0  0  0  0  0
    9.6267  -12.7984   28.3395 C   0  0  2  0  0  0  0  0  0  0  0  0
    9.4843  -15.0917   27.2865 N   0  0  0  0  0  0  0  0  0  0  0  0
    8.5653  -16.0010   26.5906 C   0  0  0  0  0  0  0  0  0  0  0  0
    9.9808  -15.8012   28.4793 O   0  0  0  0  0  0  0  0  0  0  0  0
    9.2947  -16.7411   28.9561 O   0  0  0  0  0  0  0  0  0  0  0  0
  2  1  1  6
  2 10  1  0
  3  2  1  0
  3  4  1  0
  4  9  2  0
  4  5  1  0
  5  6  2  0
  6  7  1  0
  8  7  2  0
  9  8  1  0
 10 11  2  0
 13 15  1  0
 13 12  1  0
 14 13  2  0
 16 15  1  0
 16 17  1  0
 19 18  1  6
 18 17  1  0
 20 19  1  0
 20 10  1  0
 21 19  1  0
 21 22  2  0
 23 24  1  0
 24 25  1  0
 25 26  1  1
 27 28  1  6
 27 25  1  0
 28 21  1  0
 29 31  1  0
 29 27  1  0
 30 29  2  0
M  END
$$$$
