TGF.pdb
     RDKit          3D

 23 23  0  0  1  0  0  0  0  0999 V2000
    5.5392  -18.2471   19.1543 C   0  0  0  0  0  0  0  0  0  0  0  0
    6.5684  -17.2644   19.6438 C   0  0  1  0  0  0  0  0  0  0  0  0
    6.0207  -16.4515   20.6562 O   0  0  0  0  0  0  0  0  0  0  0  0
    7.7468  -18.0409   20.2092 C   0  0  2  0  0  0  0  0  0  0  0  0
    7.2634  -18.8169   21.3748 N   0  0  0  0  0  0  0  0  0  0  0  0
    8.7612  -17.1124   20.7659 C   0  0  0  0  0  0  0  0  0  0  0  0
    9.5577  -16.4823   19.9947 O   0  0  0  0  0  0  0  0  0  0  0  0
    8.9318  -16.8467   22.1539 N   0  0  0  0  0  0  0  0  0  0  0  0
    9.9664  -15.9485   22.5734 C   0  0  0  0  0  0  0  0  0  0  0  0
   10.0049  -15.6793   24.0127 C   0  0  0  0  0  0  0  0  0  0  0  0
   10.9647  -14.9476   24.4489 O   0  0  0  0  0  0  0  0  0  0  0  0
    9.0990  -16.1359   24.9880 N   0  0  0  0  0  0  0  0  0  0  0  0
    9.3905  -15.9808   26.4090 C   0  0  1  0  0  0  0  0  0  0  0  0
    8.1968  -15.5285   27.1640 C   0  0  0  0  0  0  0  0  0  0  0  0
    7.6220  -14.2770   26.6464 C   0  0  0  0  0  0  0  0  0  0  0  0
    6.4621  -14.3425   25.8990 C   0  0  0  0  0  0  0  0  0  0  0  0
    5.8941  -13.1949   25.3977 C   0  0  0  0  0  0  0  0  0  0  0  0
    6.4862  -11.9732   25.6429 C   0  0  0  0  0  0  0  0  0  0  0  0
    7.6507  -11.8870   26.3909 C   0  0  0  0  0  0  0  0  0  0  0  0
    8.2147  -13.0399   26.8902 C   0  0  0  0  0  0  0  0  0  0  0  0
   10.0200  -17.1767   26.9755 C   0  0  0  0  0  0  0  0  0  0  0  0
   10.4869  -17.2782   28.2614 O   0  0  0  0  0  0  0  0  0  0  0  0
   10.1551  -18.2004   26.2443 O   0  0  0  0  0  0  0  0  0  0  0  0
  2  1  1  1
  2  4  1  0
  3  2  1  0
  4  5  1  1
  6  4  1  0
  6  8  1  0
  7  6  2  0
  9  8  1  0
  9 10  1  0
 10 12  1  0
 11 10  2  0
 12 13  1  0
 13 14  1  1
 14 15  1  0
 15 20  2  0
 16 17  2  0
 16 15  1  0
 17 18  1  0
 18 19  2  0
 20 19  1  0
 21 13  1  0
 21 22  1  0
 23 21  2  0
M  END
$$$$
