TGF.pdb
     RDKit          3D

 23 23  0  0  1  0  0  0  0  0999 V2000
    7.6055  -12.5314   17.9149 C   0  0  0  0  0  0  0  0  0  0  0  0
    7.4517  -13.6318   18.9297 C   0  0  1  0  0  0  0  0  0  0  0  0
    7.3428  -14.8784   18.2816 O   0  0  0  0  0  0  0  0  0  0  0  0
    8.6812  -13.6392   19.8239 C   0  0  2  0  0  0  0  0  0  0  0  0
    9.8296  -14.1092   19.0147 N   0  0  0  0  0  0  0  0  0  0  0  0
    8.5351  -14.6511   20.8989 C   0  0  0  0  0  0  0  0  0  0  0  0
    7.7762  -14.4308   21.8997 O   0  0  0  0  0  0  0  0  0  0  0  0
    9.1981  -15.9107   20.9126 N   0  0  0  0  0  0  0  0  0  0  0  0
    8.9833  -16.8037   22.0124 C   0  0  0  0  0  0  0  0  0  0  0  0
    9.5766  -16.3751   23.2812 C   0  0  0  0  0  0  0  0  0  0  0  0
   10.7333  -15.8214   23.2322 O   0  0  0  0  0  0  0  0  0  0  0  0
    9.0187  -16.5013   24.5669 N   0  0  0  0  0  0  0  0  0  0  0  0
    9.7733  -16.1052   25.7508 C   0  0  1  0  0  0  0  0  0  0  0  0
    9.9184  -14.6318   25.8370 C   0  0  0  0  0  0  0  0  0  0  0  0
    8.6700  -13.9458   26.2052 C   0  0  0  0  0  0  0  0  0  0  0  0
    7.5509  -14.1447   25.4204 C   0  0  0  0  0  0  0  0  0  0  0  0
    6.3654  -13.5213   25.7317 C   0  0  0  0  0  0  0  0  0  0  0  0
    6.2947  -12.6936   26.8331 C   0  0  0  0  0  0  0  0  0  0  0  0
    7.4072  -12.4813   27.6332 C   0  0  0  0  0  0  0  0  0  0  0  0
    8.5916  -13.1085   27.3161 C   0  0  0  0  0  0  0  0  0  0  0  0
    9.2379  -16.7108   26.9730 C   0  0  0  0  0  0  0  0  0  0  0  0
    8.1005  -17.4754   27.0317 O   0  0  0  0  0  0  0  0  0  0  0  0
    9.8507  -16.5273   28.0647 O   0  0  0  0  0  0  0  0  0  0  0  0
  2  1  1  6
  2  4  1  0
  3  2  1  0
  4  5  1  6
  6  4  1  0
  6  8  1  0
  7  6  2  0
  9  8  1  0
  9 10  1  0
 10 12  1  0
 11 10  2  0
 12 13  1  0
 13 14  1  1
 14 15  1  0
 15 20  2  0
 16 17  2  0
 16 15  1  0
 17 18  1  0
 18 19  2  0
 20 19  1  0
 21 13  1  0
 21 22  1  0
 23 21  2  0
M  END
$$$$
