TGF.pdb
     RDKit          3D

 23 23  0  0  1  0  0  0  0  0999 V2000
    8.2232  -12.7083   17.4757 C   0  0  0  0  0  0  0  0  0  0  0  0
    8.2306  -13.9405   18.3394 C   0  0  1  0  0  0  0  0  0  0  0  0
    9.5268  -14.1750   18.8400 O   0  0  0  0  0  0  0  0  0  0  0  0
    7.2777  -13.7200   19.5033 C   0  0  2  0  0  0  0  0  0  0  0  0
    7.8648  -12.6817   20.3817 N   0  0  0  0  0  0  0  0  0  0  0  0
    7.2029  -14.9357   20.3503 C   0  0  0  0  0  0  0  0  0  0  0  0
    6.6698  -16.0054   19.9058 O   0  0  0  0  0  0  0  0  0  0  0  0
    7.7003  -15.0196   21.6814 N   0  0  0  0  0  0  0  0  0  0  0  0
    7.5551  -16.2463   22.4077 C   0  0  0  0  0  0  0  0  0  0  0  0
    8.1768  -16.2564   23.7339 C   0  0  0  0  0  0  0  0  0  0  0  0
    9.4592  -16.2715   23.7822 O   0  0  0  0  0  0  0  0  0  0  0  0
    7.5231  -16.2514   24.9800 N   0  0  0  0  0  0  0  0  0  0  0  0
    8.2857  -16.2373   26.2236 C   0  0  1  0  0  0  0  0  0  0  0  0
    7.6264  -15.4037   27.2579 C   0  0  0  0  0  0  0  0  0  0  0  0
    7.3368  -14.0349   26.8029 C   0  0  0  0  0  0  0  0  0  0  0  0
    6.0194  -13.6697   26.6046 C   0  0  0  0  0  0  0  0  0  0  0  0
    5.7080  -12.3995   26.1797 C   0  0  0  0  0  0  0  0  0  0  0  0
    6.7166  -11.4866   25.9507 C   0  0  0  0  0  0  0  0  0  0  0  0
    8.0451  -11.8343   26.1441 C   0  0  0  0  0  0  0  0  0  0  0  0
    8.3505  -13.1079   26.5697 C   0  0  0  0  0  0  0  0  0  0  0  0
    8.6113  -17.5895   26.6850 C   0  0  0  0  0  0  0  0  0  0  0  0
    9.5199  -17.8803   27.6707 O   0  0  0  0  0  0  0  0  0  0  0  0
    8.0265  -18.5752   26.1489 O   0  0  0  0  0  0  0  0  0  0  0  0
  2  1  1  6
  2  4  1  0
  3  2  1  0
  4  5  1  1
  6  4  1  0
  6  8  1  0
  7  6  2  0
  9  8  1  0
  9 10  1  0
 10 12  1  0
 11 10  2  0
 12 13  1  0
 13 14  1  1
 14 15  1  0
 15 20  2  0
 16 17  2  0
 16 15  1  0
 17 18  1  0
 18 19  2  0
 20 19  1  0
 21 13  1  0
 21 22  1  0
 23 21  2  0
M  END
$$$$
