TGF.pdb
     RDKit          3D

 23 23  0  0  1  0  0  0  0  0999 V2000
    9.6419  -13.6779   17.6216 C   0  0  0  0  0  0  0  0  0  0  0  0
    9.2811  -14.2249   18.9762 C   0  0  1  0  0  0  0  0  0  0  0  0
    9.9864  -13.5347   19.9822 O   0  0  0  0  0  0  0  0  0  0  0  0
    7.7883  -14.0343   19.1920 C   0  0  2  0  0  0  0  0  0  0  0  0
    7.5070  -12.5801   19.1677 N   0  0  0  0  0  0  0  0  0  0  0  0
    7.4007  -14.4731   20.5551 C   0  0  0  0  0  0  0  0  0  0  0  0
    7.3525  -13.6377   21.5173 O   0  0  0  0  0  0  0  0  0  0  0  0
    7.0580  -15.8105   20.9019 N   0  0  0  0  0  0  0  0  0  0  0  0
    6.5384  -16.0842   22.2089 C   0  0  0  0  0  0  0  0  0  0  0  0
    7.5289  -16.0483   23.2875 C   0  0  0  0  0  0  0  0  0  0  0  0
    8.7615  -15.9299   22.9505 O   0  0  0  0  0  0  0  0  0  0  0  0
    7.2836  -16.1296   24.6708 N   0  0  0  0  0  0  0  0  0  0  0  0
    8.3840  -16.0949   25.6278 C   0  0  1  0  0  0  0  0  0  0  0  0
    8.0516  -15.2646   26.8108 C   0  0  0  0  0  0  0  0  0  0  0  0
    7.5685  -13.9201   26.4596 C   0  0  0  0  0  0  0  0  0  0  0  0
    6.2165  -13.6561   26.5633 C   0  0  0  0  0  0  0  0  0  0  0  0
    5.7261  -12.4117   26.2441 C   0  0  0  0  0  0  0  0  0  0  0  0
    6.5892  -11.4232   25.8185 C   0  0  0  0  0  0  0  0  0  0  0  0
    7.9495  -11.6688   25.7080 C   0  0  0  0  0  0  0  0  0  0  0  0
    8.4344  -12.9171   26.0291 C   0  0  0  0  0  0  0  0  0  0  0  0
    8.8562  -17.4386   25.9727 C   0  0  0  0  0  0  0  0  0  0  0  0
    8.2709  -18.6044   25.5484 O   0  0  0  0  0  0  0  0  0  0  0  0
    9.8738  -17.5565   26.7154 O   0  0  0  0  0  0  0  0  0  0  0  0
  2  1  1  6
  2  4  1  0
  3  2  1  0
  4  5  1  1
  6  4  1  0
  6  8  1  0
  7  6  2  0
  9  8  1  0
  9 10  1  0
 10 12  1  0
 11 10  2  0
 12 13  1  0
 13 14  1  1
 14 15  1  0
 15 20  2  0
 16 17  2  0
 16 15  1  0
 17 18  1  0
 18 19  2  0
 20 19  1  0
 21 13  1  0
 21 22  1  0
 23 21  2  0
M  END
$$$$
