TGF.pdb
     RDKit          3D

 23 23  0  0  1  0  0  0  0  0999 V2000
    8.2995  -17.0849   16.3407 C   0  0  0  0  0  0  0  0  0  0  0  0
    7.7566  -16.8905   17.7306 C   0  0  1  0  0  0  0  0  0  0  0  0
    6.9805  -18.0043   18.1089 O   0  0  0  0  0  0  0  0  0  0  0  0
    8.9268  -16.7475   18.6904 C   0  0  2  0  0  0  0  0  0  0  0  0
    9.6120  -18.0584   18.7712 N   0  0  0  0  0  0  0  0  0  0  0  0
    8.4398  -16.4885   20.0676 C   0  0  0  0  0  0  0  0  0  0  0  0
    8.1034  -15.3122   20.4272 O   0  0  0  0  0  0  0  0  0  0  0  0
    8.3055  -17.4865   21.0737 N   0  0  0  0  0  0  0  0  0  0  0  0
    7.7457  -17.1304   22.3437 C   0  0  0  0  0  0  0  0  0  0  0  0
    8.6961  -16.5549   23.2983 C   0  0  0  0  0  0  0  0  0  0  0  0
    9.9172  -16.4455   22.9191 O   0  0  0  0  0  0  0  0  0  0  0  0
    8.4230  -16.1013   24.6021 N   0  0  0  0  0  0  0  0  0  0  0  0
    9.4947  -15.6126   25.4627 C   0  0  1  0  0  0  0  0  0  0  0  0
    9.5723  -14.1316   25.4492 C   0  0  0  0  0  0  0  0  0  0  0  0
    8.3210  -13.4806   25.8676 C   0  0  0  0  0  0  0  0  0  0  0  0
    8.3043  -12.7885   27.0629 C   0  0  0  0  0  0  0  0  0  0  0  0
    7.1540  -12.1666   27.4885 C   0  0  0  0  0  0  0  0  0  0  0  0
    6.0122  -12.2349   26.7173 C   0  0  0  0  0  0  0  0  0  0  0  0
    6.0091  -12.9248   25.5144 C   0  0  0  0  0  0  0  0  0  0  0  0
    7.1642  -13.5455   25.0937 C   0  0  0  0  0  0  0  0  0  0  0  0
    9.4196  -16.1802   26.8116 C   0  0  0  0  0  0  0  0  0  0  0  0
   10.3561  -15.9835   27.7945 O   0  0  0  0  0  0  0  0  0  0  0  0
    8.4302  -16.9088   27.1134 O   0  0  0  0  0  0  0  0  0  0  0  0
  2  1  1  6
  2  4  1  0
  3  2  1  0
  4  5  1  1
  6  4  1  0
  6  8  1  0
  7  6  2  0
  9  8  1  0
  9 10  1  0
 10 12  1  0
 11 10  2  0
 12 13  1  0
 13 14  1  1
 14 15  1  0
 15 20  2  0
 16 17  2  0
 16 15  1  0
 17 18  1  0
 18 19  2  0
 20 19  1  0
 21 13  1  0
 21 22  1  0
 23 21  2  0
M  END
$$$$
