TGF.pdb
     RDKit          3D

 23 23  0  0  1  0  0  0  0  0999 V2000
    9.6671  -13.9584   17.6019 C   0  0  0  0  0  0  0  0  0  0  0  0
    9.2674  -14.4935   18.9504 C   0  0  1  0  0  0  0  0  0  0  0  0
   10.0977  -13.9533   19.9527 O   0  0  0  0  0  0  0  0  0  0  0  0
    7.8274  -14.0894   19.2227 C   0  0  2  0  0  0  0  0  0  0  0  0
    7.7629  -12.6094   19.2263 N   0  0  0  0  0  0  0  0  0  0  0  0
    7.4262  -14.4900   20.5936 C   0  0  0  0  0  0  0  0  0  0  0  0
    7.3574  -13.6259   21.5289 O   0  0  0  0  0  0  0  0  0  0  0  0
    7.0922  -15.8195   20.9772 N   0  0  0  0  0  0  0  0  0  0  0  0
    6.5396  -16.0556   22.2780 C   0  0  0  0  0  0  0  0  0  0  0  0
    7.5026  -15.9891   23.3797 C   0  0  0  0  0  0  0  0  0  0  0  0
    8.7291  -15.7646   23.0761 O   0  0  0  0  0  0  0  0  0  0  0  0
    7.2365  -16.1449   24.7527 N   0  0  0  0  0  0  0  0  0  0  0  0
    8.2861  -15.9399   25.7449 C   0  0  1  0  0  0  0  0  0  0  0  0
    7.7595  -15.2886   26.9688 C   0  0  0  0  0  0  0  0  0  0  0  0
    7.3207  -13.9021   26.7460 C   0  0  0  0  0  0  0  0  0  0  0  0
    5.9699  -13.6193   26.8055 C   0  0  0  0  0  0  0  0  0  0  0  0
    5.5202  -12.3357   26.6028 C   0  0  0  0  0  0  0  0  0  0  0  0
    6.4231  -11.3267   26.3390 C   0  0  0  0  0  0  0  0  0  0  0  0
    7.7830  -11.5906   26.2752 C   0  0  0  0  0  0  0  0  0  0  0  0
    8.2270  -12.8782   26.4791 C   0  0  0  0  0  0  0  0  0  0  0  0
    9.0357  -17.1697   26.0154 C   0  0  0  0  0  0  0  0  0  0  0  0
   10.2310  -17.2237   26.6862 O   0  0  0  0  0  0  0  0  0  0  0  0
    8.5672  -18.2724   25.6087 O   0  0  0  0  0  0  0  0  0  0  0  0
  2  1  1  6
  2  4  1  0
  3  2  1  0
  4  5  1  1
  6  4  1  0
  6  8  1  0
  7  6  2  0
  9  8  1  0
  9 10  1  0
 10 12  1  0
 11 10  2  0
 12 13  1  0
 13 14  1  1
 14 15  1  0
 15 20  2  0
 16 17  2  0
 16 15  1  0
 17 18  1  0
 18 19  2  0
 20 19  1  0
 21 13  1  0
 21 22  1  0
 23 21  2  0
M  END
$$$$
