PDR.pdb
     RDKit          3D

 27 27  0  0  1  0  0  0  0  0999 V2000
    9.0372  -13.3253   17.4983 N   0  0  0  0  0  0  0  0  0  0  0  0
    8.6532  -14.1866   16.3900 C   0  0  0  0  0  0  0  0  0  0  0  0
    7.1641  -14.2502   16.4992 C   0  0  0  0  0  0  0  0  0  0  0  0
    6.8758  -14.0081   17.9461 C   0  0  0  0  0  0  0  0  0  0  0  0
    8.2125  -13.6931   18.6044 C   0  0  1  0  0  0  0  0  0  0  0  0
    8.6628  -14.9795   19.2381 C   0  0  0  0  0  0  0  0  0  0  0  0
    7.8280  -15.6274   19.8879 O   0  0  0  0  0  0  0  0  0  0  0  0
    9.9739  -15.4636   19.1210 N   0  0  0  0  0  0  0  0  0  0  0  0
   10.4263  -16.6709   19.7739 C   0  0  1  0  0  0  0  0  0  0  0  0
   11.2376  -17.5550   18.8767 C   0  0  0  0  0  0  0  0  0  0  0  0
   11.5464  -18.8685   19.4806 C   0  0  0  0  0  0  0  0  0  0  0  0
   12.6872  -19.3533   19.2249 O   0  0  0  0  0  0  0  0  0  0  0  0
   11.2402  -16.3629   20.9691 C   0  0  0  0  0  0  0  0  0  0  0  0
   12.2140  -15.5651   20.8130 O   0  0  0  0  0  0  0  0  0  0  0  0
   10.7137  -19.5938   20.2816 O   0  0  0  0  0  0  0  0  0  0  0  0
   10.0761  -16.1276   30.0659 N   0  0  0  0  0  0  0  0  0  0  0  0
   10.3936  -15.0105   29.2300 C   0  0  0  0  0  0  0  0  0  0  0  0
    9.9741  -13.8615   29.6295 N   0  0  0  0  0  0  0  0  0  0  0  0
   11.1357  -15.2064   28.0298 N   0  0  0  0  0  0  0  0  0  0  0  0
   10.6957  -16.2739   27.1550 C   0  0  0  0  0  0  0  0  0  0  0  0
   11.5237  -16.5314   25.9770 C   0  0  0  0  0  0  0  0  0  0  0  0
   11.0168  -16.7402   24.6384 C   0  0  0  0  0  0  0  0  0  0  0  0
   11.8107  -16.4305   23.4498 C   0  0  2  0  0  0  0  0  0  0  0  0
   11.0154  -16.8824   22.2451 N   0  0  0  0  0  0  0  0  0  0  0  0
   13.0982  -17.1112   23.3598 C   0  0  0  0  0  0  0  0  0  0  0  0
   14.2862  -16.5009   23.6347 O   0  0  0  0  0  0  0  0  0  0  0  0
   13.1744  -18.3537   22.9987 O   0  0  0  0  0  0  0  0  0  0  0  0
  1  2  1  0
  2  3  1  0
  4  3  1  0
  5  1  1  0
  5  4  1  0
  5  6  1  6
  7  6  2  0
  8  6  1  0
  9  8  1  0
  9 10  1  6
 11 10  1  0
 11 12  2  0
 13  9  1  0
 13 14  2  0
 15 11  1  0
 17 18  2  0
 17 16  1  0
 19 17  1  0
 20 19  1  0
 21 20  1  0
 22 21  1  0
 23 22  1  1
 23 24  1  0
 24 13  1  0
 25 23  1  0
 26 25  1  0
 27 25  2  0
M  END
$$$$
