PDR.pdb
     RDKit          3D

 27 27  0  0  1  0  0  0  0  0999 V2000
    8.6842  -13.8829   17.7306 N   0  0  0  0  0  0  0  0  0  0  0  0
    7.2647  -14.1910   17.8185 C   0  0  0  0  0  0  0  0  0  0  0  0
    6.7553  -13.2012   18.8157 C   0  0  0  0  0  0  0  0  0  0  0  0
    7.9371  -12.8789   19.6729 C   0  0  0  0  0  0  0  0  0  0  0  0
    9.1248  -13.6102   19.0612 C   0  0  1  0  0  0  0  0  0  0  0  0
    9.2839  -14.8673   19.8694 C   0  0  0  0  0  0  0  0  0  0  0  0
    8.6537  -14.9538   20.9346 O   0  0  0  0  0  0  0  0  0  0  0  0
   10.1075  -15.9284   19.4660 N   0  0  0  0  0  0  0  0  0  0  0  0
   10.3211  -17.1075   20.2739 C   0  0  1  0  0  0  0  0  0  0  0  0
   10.9497  -18.2347   19.5129 C   0  0  0  0  0  0  0  0  0  0  0  0
   11.0333  -19.4871   20.2938 C   0  0  0  0  0  0  0  0  0  0  0  0
   10.0573  -19.7421   21.0583 O   0  0  0  0  0  0  0  0  0  0  0  0
   11.1779  -16.8109   21.4417 C   0  0  0  0  0  0  0  0  0  0  0  0
   12.1029  -15.9588   21.2759 O   0  0  0  0  0  0  0  0  0  0  0  0
   12.0631  -20.3812   20.2597 O   0  0  0  0  0  0  0  0  0  0  0  0
    9.4242  -13.5705   29.1378 N   0  0  0  0  0  0  0  0  0  0  0  0
   10.3399  -14.5963   29.5335 C   0  0  0  0  0  0  0  0  0  0  0  0
   10.3874  -14.8648   30.7910 N   0  0  0  0  0  0  0  0  0  0  0  0
   11.1359  -15.2578   28.5544 N   0  0  0  0  0  0  0  0  0  0  0  0
   10.5203  -15.5009   27.2658 C   0  0  0  0  0  0  0  0  0  0  0  0
   11.3599  -16.1451   26.2560 C   0  0  0  0  0  0  0  0  0  0  0  0
   10.9219  -16.5129   24.9274 C   0  0  0  0  0  0  0  0  0  0  0  0
   11.8600  -16.9436   23.8913 C   0  0  2  0  0  0  0  0  0  0  0  0
   11.0427  -17.3962   22.7017 N   0  0  0  0  0  0  0  0  0  0  0  0
   12.7125  -18.0734   24.2465 C   0  0  0  0  0  0  0  0  0  0  0  0
   12.2930  -19.3698   24.1967 O   0  0  0  0  0  0  0  0  0  0  0  0
   13.9335  -17.8920   24.6420 O   0  0  0  0  0  0  0  0  0  0  0  0
  1  2  1  0
  2  3  1  0
  4  3  1  0
  5  1  1  0
  5  4  1  0
  5  6  1  1
  7  6  2  0
  8  6  1  0
  9  8  1  0
  9 10  1  6
 11 10  1  0
 11 12  2  0
 13  9  1  0
 13 14  2  0
 15 11  1  0
 17 18  2  0
 17 16  1  0
 19 17  1  0
 20 19  1  0
 21 20  1  0
 22 21  1  0
 23 22  1  1
 23 24  1  0
 24 13  1  0
 25 23  1  0
 26 25  1  0
 27 25  2  0
M  END
$$$$
