PDR.pdb
     RDKit          3D

 27 27  0  0  1  0  0  0  0  0999 V2000
    9.0048  -13.8084   18.1609 N   0  0  0  0  0  0  0  0  0  0  0  0
    7.6316  -14.2446   17.9573 C   0  0  0  0  0  0  0  0  0  0  0  0
    6.8403  -13.3156   18.8199 C   0  0  0  0  0  0  0  0  0  0  0  0
    7.7862  -12.8966   19.8994 C   0  0  0  0  0  0  0  0  0  0  0  0
    9.1356  -13.5110   19.5513 C   0  0  1  0  0  0  0  0  0  0  0  0
    9.2384  -14.7570   20.3855 C   0  0  0  0  0  0  0  0  0  0  0  0
    8.4608  -14.8767   21.3448 O   0  0  0  0  0  0  0  0  0  0  0  0
   10.1688  -15.7722   20.1197 N   0  0  0  0  0  0  0  0  0  0  0  0
   10.3718  -16.9011   20.9989 C   0  0  1  0  0  0  0  0  0  0  0  0
   11.4799  -17.8037   20.5495 C   0  0  0  0  0  0  0  0  0  0  0  0
   11.1736  -19.2375   20.7378 C   0  0  0  0  0  0  0  0  0  0  0  0
   10.5384  -19.5460   21.7883 O   0  0  0  0  0  0  0  0  0  0  0  0
   10.6720  -16.4610   22.3781 C   0  0  0  0  0  0  0  0  0  0  0  0
   11.5444  -15.5504   22.5151 O   0  0  0  0  0  0  0  0  0  0  0  0
   11.5145  -20.2450   19.8835 O   0  0  0  0  0  0  0  0  0  0  0  0
    4.9986  -12.4383   26.4702 N   0  0  0  0  0  0  0  0  0  0  0  0
    6.4225  -12.3644   26.3514 C   0  0  0  0  0  0  0  0  0  0  0  0
    6.9498  -11.2030   26.5217 N   0  0  0  0  0  0  0  0  0  0  0  0
    7.1755  -13.5380   26.0594 N   0  0  0  0  0  0  0  0  0  0  0  0
    8.2939  -13.8321   26.9318 C   0  0  0  0  0  0  0  0  0  0  0  0
    9.0625  -15.0367   26.6192 C   0  0  0  0  0  0  0  0  0  0  0  0
    9.1816  -15.6242   25.3027 C   0  0  0  0  0  0  0  0  0  0  0  0
   10.3515  -16.4059   24.9035 C   0  0  2  0  0  0  0  0  0  0  0  0
   10.0695  -16.9713   23.5292 N   0  0  0  0  0  0  0  0  0  0  0  0
   10.6614  -17.5508   25.7533 C   0  0  0  0  0  0  0  0  0  0  0  0
   11.2990  -17.4390   26.9534 O   0  0  0  0  0  0  0  0  0  0  0  0
   10.3444  -18.7554   25.3948 O   0  0  0  0  0  0  0  0  0  0  0  0
  1  2  1  0
  2  3  1  0
  4  3  1  0
  5  1  1  0
  5  4  1  0
  5  6  1  1
  7  6  2  0
  8  6  1  0
  9  8  1  0
  9 10  1  6
 11 10  1  0
 11 12  2  0
 13  9  1  0
 13 14  2  0
 15 11  1  0
 17 18  2  0
 17 16  1  0
 19 17  1  0
 20 19  1  0
 21 20  1  0
 22 21  1  0
 23 22  1  1
 23 24  1  0
 24 13  1  0
 25 23  1  0
 26 25  1  0
 27 25  2  0
M  END
$$$$
