PDR.pdb
     RDKit          3D

 27 27  0  0  1  0  0  0  0  0999 V2000
   14.4816  -21.7758   22.0581 N   0  0  0  0  0  0  0  0  0  0  0  0
   13.5688  -21.2137   21.0741 C   0  0  0  0  0  0  0  0  0  0  0  0
   14.2254  -19.9287   20.6852 C   0  0  0  0  0  0  0  0  0  0  0  0
   15.0452  -19.5426   21.8744 C   0  0  0  0  0  0  0  0  0  0  0  0
   14.9246  -20.6884   22.8706 C   0  0  1  0  0  0  0  0  0  0  0  0
   13.8737  -20.2577   23.8550 C   0  0  0  0  0  0  0  0  0  0  0  0
   14.0069  -19.1488   24.3952 O   0  0  0  0  0  0  0  0  0  0  0  0
   12.7657  -21.0546   24.1777 N   0  0  0  0  0  0  0  0  0  0  0  0
   11.8021  -20.6868   25.1901 C   0  0  1  0  0  0  0  0  0  0  0  0
   10.3863  -20.9485   24.7760 C   0  0  0  0  0  0  0  0  0  0  0  0
    9.3930  -20.3841   25.7142 C   0  0  0  0  0  0  0  0  0  0  0  0
    8.1748  -20.5458   25.4113 O   0  0  0  0  0  0  0  0  0  0  0  0
   12.0492  -21.4106   26.4554 C   0  0  0  0  0  0  0  0  0  0  0  0
   12.0342  -22.6780   26.4064 O   0  0  0  0  0  0  0  0  0  0  0  0
    9.6766  -19.7110   26.8664 O   0  0  0  0  0  0  0  0  0  0  0  0
   15.4226  -24.1603   32.8863 N   0  0  0  0  0  0  0  0  0  0  0  0
   16.0305  -22.8829   33.1004 C   0  0  0  0  0  0  0  0  0  0  0  0
   16.3643  -22.6057   34.3118 N   0  0  0  0  0  0  0  0  0  0  0  0
   16.2357  -21.9982   32.0028 N   0  0  0  0  0  0  0  0  0  0  0  0
   15.1800  -21.0466   31.7229 C   0  0  0  0  0  0  0  0  0  0  0  0
   14.0365  -21.5500   30.9624 C   0  0  0  0  0  0  0  0  0  0  0  0
   13.6455  -21.0845   29.6498 C   0  0  0  0  0  0  0  0  0  0  0  0
   12.4661  -21.6058   28.9598 C   0  0  2  0  0  0  0  0  0  0  0  0
   12.2954  -20.8043   27.6884 N   0  0  0  0  0  0  0  0  0  0  0  0
   11.2069  -21.4801   29.6862 C   0  0  0  0  0  0  0  0  0  0  0  0
   10.7641  -22.4104   30.5793 O   0  0  0  0  0  0  0  0  0  0  0  0
   10.4296  -20.4586   29.5061 O   0  0  0  0  0  0  0  0  0  0  0  0
  1  2  1  0
  2  3  1  0
  4  3  1  0
  5  1  1  0
  5  4  1  0
  5  6  1  1
  7  6  2  0
  8  6  1  0
  9  8  1  0
  9 10  1  6
 11 10  1  0
 11 12  2  0
 13  9  1  0
 13 14  2  0
 15 11  1  0
 17 18  2  0
 17 16  1  0
 19 17  1  0
 20 19  1  0
 21 20  1  0
 22 21  1  0
 23 22  1  1
 23 24  1  0
 24 13  1  0
 25 23  1  0
 26 25  1  0
 27 25  2  0
M  END
$$$$
