PDR.pdb
     RDKit          3D

 27 27  0  0  1  0  0  0  0  0999 V2000
    7.7381  -14.7724   18.9081 N   0  0  0  0  0  0  0  0  0  0  0  0
    6.5786  -14.1421   19.5212 C   0  0  0  0  0  0  0  0  0  0  0  0
    6.9401  -12.6921   19.5391 C   0  0  0  0  0  0  0  0  0  0  0  0
    8.4348  -12.6707   19.5687 C   0  0  0  0  0  0  0  0  0  0  0  0
    8.8884  -14.1194   19.4460 C   0  0  1  0  0  0  0  0  0  0  0  0
    9.1853  -14.5690   20.8491 C   0  0  0  0  0  0  0  0  0  0  0  0
   10.2054  -14.1224   21.3960 O   0  0  0  0  0  0  0  0  0  0  0  0
    8.3608  -15.4619   21.5491 N   0  0  0  0  0  0  0  0  0  0  0  0
    8.6654  -15.9320   22.8814 C   0  0  1  0  0  0  0  0  0  0  0  0
    7.6040  -16.8263   23.4455 C   0  0  0  0  0  0  0  0  0  0  0  0
    7.8497  -17.2023   24.8539 C   0  0  0  0  0  0  0  0  0  0  0  0
    8.8972  -16.7347   25.3887 O   0  0  0  0  0  0  0  0  0  0  0  0
    9.9470  -16.6687   22.9114 C   0  0  0  0  0  0  0  0  0  0  0  0
   10.0127  -17.7381   22.2324 O   0  0  0  0  0  0  0  0  0  0  0  0
    7.0505  -18.0023   25.6170 O   0  0  0  0  0  0  0  0  0  0  0  0
   14.2103  -14.6871   17.5723 N   0  0  0  0  0  0  0  0  0  0  0  0
   15.1807  -14.4952   18.6060 C   0  0  0  0  0  0  0  0  0  0  0  0
   16.3215  -14.0271   18.2381 N   0  0  0  0  0  0  0  0  0  0  0  0
   14.8581  -14.8183   19.9556 N   0  0  0  0  0  0  0  0  0  0  0  0
   13.4956  -15.2318   20.2218 C   0  0  0  0  0  0  0  0  0  0  0  0
   13.1618  -15.5082   21.6188 C   0  0  0  0  0  0  0  0  0  0  0  0
   12.8963  -16.8223   22.1622 C   0  0  0  0  0  0  0  0  0  0  0  0
   12.3946  -17.0138   23.5226 C   0  0  2  0  0  0  0  0  0  0  0  0
   11.0789  -16.2749   23.6270 N   0  0  0  0  0  0  0  0  0  0  0  0
   13.2407  -16.4801   24.5848 C   0  0  0  0  0  0  0  0  0  0  0  0
   12.7964  -15.5894   25.5168 O   0  0  0  0  0  0  0  0  0  0  0  0
   14.4843  -16.8303   24.6894 O   0  0  0  0  0  0  0  0  0  0  0  0
  1  2  1  0
  2  3  1  0
  4  3  1  0
  5  1  1  0
  5  4  1  0
  5  6  1  1
  7  6  2  0
  8  6  1  0
  9  8  1  0
  9 10  1  6
 11 10  1  0
 11 12  2  0
 13  9  1  0
 13 14  2  0
 15 11  1  0
 17 18  2  0
 17 16  1  0
 19 17  1  0
 20 19  1  0
 21 20  1  0
 22 21  1  0
 23 22  1  6
 23 24  1  0
 24 13  1  0
 25 23  1  0
 26 25  1  0
 27 25  2  0
M  END
$$$$
