PDR.pdb
     RDKit          3D

 27 27  0  0  1  0  0  0  0  0999 V2000
    9.4521  -17.6502   16.3272 N   0  0  0  0  0  0  0  0  0  0  0  0
    9.7909  -19.0029   15.9113 C   0  0  0  0  0  0  0  0  0  0  0  0
    8.5448  -19.7767   16.1972 C   0  0  0  0  0  0  0  0  0  0  0  0
    7.8740  -19.0270   17.3032 C   0  0  0  0  0  0  0  0  0  0  0  0
    8.7040  -17.7716   17.5373 C   0  0  1  0  0  0  0  0  0  0  0  0
    9.5851  -18.0846   18.7139 C   0  0  0  0  0  0  0  0  0  0  0  0
    9.0352  -18.3797   19.7861 O   0  0  0  0  0  0  0  0  0  0  0  0
   10.9854  -18.0546   18.6412 N   0  0  0  0  0  0  0  0  0  0  0  0
   11.8364  -18.2963   19.7840 C   0  0  1  0  0  0  0  0  0  0  0  0
   13.2955  -18.2753   19.4445 C   0  0  0  0  0  0  0  0  0  0  0  0
   14.0020  -19.5116   19.8417 C   0  0  0  0  0  0  0  0  0  0  0  0
   13.3675  -20.3077   20.5937 O   0  0  0  0  0  0  0  0  0  0  0  0
   11.6010  -17.2992   20.8499 C   0  0  0  0  0  0  0  0  0  0  0  0
   11.9688  -16.1080   20.6158 O   0  0  0  0  0  0  0  0  0  0  0  0
   15.2668  -19.8621   19.4696 O   0  0  0  0  0  0  0  0  0  0  0  0
    7.4869  -11.9875   19.8179 N   0  0  0  0  0  0  0  0  0  0  0  0
    7.3441  -12.7383   21.0275 C   0  0  0  0  0  0  0  0  0  0  0  0
    7.5878  -12.1080   22.1225 N   0  0  0  0  0  0  0  0  0  0  0  0
    6.9513  -14.1068   20.9749 N   0  0  0  0  0  0  0  0  0  0  0  0
    7.3575  -14.9473   22.0826 C   0  0  0  0  0  0  0  0  0  0  0  0
    8.7698  -15.3252   22.1276 C   0  0  0  0  0  0  0  0  0  0  0  0
    9.3677  -16.1750   23.1340 C   0  0  0  0  0  0  0  0  0  0  0  0
   10.7936  -16.5005   23.1289 C   0  0  2  0  0  0  0  0  0  0  0  0
   11.0084  -17.5727   22.0838 N   0  0  0  0  0  0  0  0  0  0  0  0
   11.3178  -17.0450   24.3770 C   0  0  0  0  0  0  0  0  0  0  0  0
   11.9723  -16.2896   25.3045 O   0  0  0  0  0  0  0  0  0  0  0  0
   11.1894  -18.3023   24.6646 O   0  0  0  0  0  0  0  0  0  0  0  0
  1  2  1  0
  2  3  1  0
  4  3  1  0
  5  1  1  0
  5  4  1  0
  5  6  1  1
  7  6  2  0
  8  6  1  0
  9  8  1  0
  9 10  1  6
 11 10  1  0
 11 12  2  0
 13  9  1  0
 13 14  2  0
 15 11  1  0
 17 18  2  0
 17 16  1  0
 19 17  1  0
 20 19  1  0
 21 20  1  0
 22 21  1  0
 23 22  1  1
 23 24  1  0
 24 13  1  0
 25 23  1  0
 26 25  1  0
 27 25  2  0
M  END
$$$$
