FSC.pdb
     RDKit          3D

 24 24  0  0  1  0  0  0  0  0999 V2000
   24.3761  -14.9523  -18.2041 N   0  0  0  0  0  0  0  0  0  0  0  0
   23.9157  -14.5086  -16.9268 C   0  0  1  0  0  0  0  0  0  0  0  0
   25.0961  -14.1123  -16.0694 C   0  0  0  0  0  0  0  0  0  0  0  0
   25.9743  -15.2872  -15.8255 C   0  0  0  0  0  0  0  0  0  0  0  0
   27.0592  -15.5587  -16.6266 C   0  0  0  0  0  0  0  0  0  0  0  0
   27.8876  -16.6349  -16.4267 C   0  0  0  0  0  0  0  0  0  0  0  0
   27.5844  -17.4727  -15.3493 C   0  0  0  0  0  0  0  0  0  0  0  0
   26.5073  -17.2229  -14.5355 C   0  0  0  0  0  0  0  0  0  0  0  0
   25.7131  -16.1330  -14.7814 C   0  0  0  0  0  0  0  0  0  0  0  0
   23.0112  -13.3178  -17.0355 C   0  0  0  0  0  0  0  0  0  0  0  0
   23.3572  -12.3320  -17.7309 O   0  0  0  0  0  0  0  0  0  0  0  0
   19.6311  -12.9960  -14.6649 O   0  0  0  0  0  0  0  0  0  0  0  0
   19.4530  -12.5286  -15.9659 C   0  0  0  0  0  0  0  0  0  0  0  0
   20.8373  -12.1556  -16.4940 C   0  0  2  0  0  0  0  0  0  0  0  0
   21.7564  -13.2641  -16.3691 N   0  0  0  0  0  0  0  0  0  0  0  0
   21.3211  -10.9511  -15.7631 C   0  0  0  0  0  0  0  0  0  0  0  0
   22.4289  -10.9047  -15.1684 O   0  0  0  0  0  0  0  0  0  0  0  0
   20.4652   -9.8139  -15.7559 N   0  0  0  0  0  0  0  0  0  0  0  0
   20.9291   -8.5213  -15.3555 C   0  0  1  0  0  0  0  0  0  0  0  0
   22.1144   -8.0442  -16.1650 C   0  0  0  0  0  0  0  0  0  0  0  0
   22.5977   -6.3908  -15.5656 S   0  0  0  0  0  0  0  0  0  0  0  0
   19.8407   -7.5076  -15.3342 C   0  0  0  0  0  0  0  0  0  0  0  0
   19.6206   -6.6609  -14.2733 O   0  0  0  0  0  0  0  0  0  0  0  0
   19.0673   -7.4041  -16.3345 O   0  0  0  0  0  0  0  0  0  0  0  0
  2  1  1  6
  2 10  1  0
  3  2  1  0
  4  3  1  0
  5  4  2  0
  6  5  1  0
  7  6  2  0
  7  8  1  0
  8  9  2  0
  9  4  1  0
 10 15  1  0
 10 11  2  0
 12 13  1  0
 14 13  1  1
 14 16  1  0
 15 14  1  0
 16 17  2  0
 18 19  1  0
 18 16  1  0
 19 20  1  6
 21 20  1  0
 22 19  1  0
 22 23  1  0
 24 22  2  0
M  END
$$$$
