FSC.pdb
     RDKit          3D

 24 24  0  0  1  0  0  0  0  0999 V2000
   23.9850  -22.0481  -18.1786 N   0  0  0  0  0  0  0  0  0  0  0  0
   22.8362  -21.3164  -17.7481 C   0  0  1  0  0  0  0  0  0  0  0  0
   21.6744  -21.6024  -18.6723 C   0  0  0  0  0  0  0  0  0  0  0  0
   21.6024  -20.5743  -19.7441 C   0  0  0  0  0  0  0  0  0  0  0  0
   22.6950  -20.2568  -20.5172 C   0  0  0  0  0  0  0  0  0  0  0  0
   22.6594  -19.3128  -21.5132 C   0  0  0  0  0  0  0  0  0  0  0  0
   21.4392  -18.6637  -21.7237 C   0  0  0  0  0  0  0  0  0  0  0  0
   20.3345  -18.9630  -20.9653 C   0  0  0  0  0  0  0  0  0  0  0  0
   20.4268  -19.9149  -19.9833 C   0  0  0  0  0  0  0  0  0  0  0  0
   22.4163  -21.6917  -16.3586 C   0  0  0  0  0  0  0  0  0  0  0  0
   22.8087  -22.7737  -15.8583 O   0  0  0  0  0  0  0  0  0  0  0  0
   20.3175  -18.9932  -14.0837 O   0  0  0  0  0  0  0  0  0  0  0  0
   21.0748  -19.9173  -13.3659 C   0  0  0  0  0  0  0  0  0  0  0  0
   21.1672  -21.1759  -14.2271 C   0  0  2  0  0  0  0  0  0  0  0  0
   21.5768  -20.8533  -15.5751 N   0  0  0  0  0  0  0  0  0  0  0  0
   19.8510  -21.8729  -14.2008 C   0  0  0  0  0  0  0  0  0  0  0  0
   18.9425  -21.6618  -15.0454 O   0  0  0  0  0  0  0  0  0  0  0  0
   19.6419  -22.8177  -13.1570 N   0  0  0  0  0  0  0  0  0  0  0  0
   18.4210  -23.5533  -13.0367 C   0  0  1  0  0  0  0  0  0  0  0  0
   18.5055  -24.6732  -12.0235 C   0  0  0  0  0  0  0  0  0  0  0  0
   19.6950  -25.9155  -12.6307 S   0  0  0  0  0  0  0  0  0  0  0  0
   17.2495  -22.6735  -12.7795 C   0  0  0  0  0  0  0  0  0  0  0  0
   15.9608  -23.0185  -13.1128 O   0  0  0  0  0  0  0  0  0  0  0  0
   17.4280  -21.5458  -12.2266 O   0  0  0  0  0  0  0  0  0  0  0  0
  2  1  1  6
  2 10  1  0
  3  2  1  0
  4  3  1  0
  5  4  2  0
  6  5  1  0
  7  6  2  0
  7  8  1  0
  8  9  2  0
  9  4  1  0
 10 15  1  0
 10 11  2  0
 12 13  1  0
 14 13  1  1
 14 16  1  0
 15 14  1  0
 16 17  2  0
 18 19  1  0
 18 16  1  0
 19 20  1  1
 21 20  1  0
 22 19  1  0
 22 23  1  0
 24 22  2  0
M  END
$$$$
