FSC.pdb
     RDKit          3D

 24 24  0  0  1  0  0  0  0  0999 V2000
   25.2207  -10.8082  -18.2710 N   0  0  0  0  0  0  0  0  0  0  0  0
   24.8274  -10.0957  -17.0972 C   0  0  1  0  0  0  0  0  0  0  0  0
   25.9750   -9.2389  -16.6129 C   0  0  0  0  0  0  0  0  0  0  0  0
   27.1898  -10.0716  -16.4079 C   0  0  0  0  0  0  0  0  0  0  0  0
   28.3285   -9.8877  -17.1576 C   0  0  0  0  0  0  0  0  0  0  0  0
   29.4646  -10.6401  -16.9918 C   0  0  0  0  0  0  0  0  0  0  0  0
   29.4268  -11.6305  -16.0057 C   0  0  0  0  0  0  0  0  0  0  0  0
   28.3023  -11.8334  -15.2445 C   0  0  0  0  0  0  0  0  0  0  0  0
   27.1953  -11.0523  -15.4529 C   0  0  0  0  0  0  0  0  0  0  0  0
   23.6590   -9.1910  -17.3512 C   0  0  0  0  0  0  0  0  0  0  0  0
   23.5977   -8.5347  -18.4191 O   0  0  0  0  0  0  0  0  0  0  0  0
   20.9654   -8.4644  -14.3688 O   0  0  0  0  0  0  0  0  0  0  0  0
   20.3417   -8.5331  -15.6134 C   0  0  0  0  0  0  0  0  0  0  0  0
   21.4180   -8.2568  -16.6621 C   0  0  2  0  0  0  0  0  0  0  0  0
   22.6016   -9.0476  -16.4115 N   0  0  0  0  0  0  0  0  0  0  0  0
   21.7187   -6.7979  -16.6680 C   0  0  0  0  0  0  0  0  0  0  0  0
   22.6124   -6.2755  -15.9527 O   0  0  0  0  0  0  0  0  0  0  0  0
   20.9396   -5.9821  -17.5361 N   0  0  0  0  0  0  0  0  0  0  0  0
   21.1052   -4.5622  -17.5897 C   0  0  1  0  0  0  0  0  0  0  0  0
   20.6835   -3.9698  -18.9160 C   0  0  0  0  0  0  0  0  0  0  0  0
   21.5161   -4.8901  -20.2526 S   0  0  0  0  0  0  0  0  0  0  0  0
   20.4471   -3.8692  -16.4498 C   0  0  0  0  0  0  0  0  0  0  0  0
   19.6889   -4.5230  -15.5071 O   0  0  0  0  0  0  0  0  0  0  0  0
   20.5803   -2.6139  -16.3243 O   0  0  0  0  0  0  0  0  0  0  0  0
  2  1  1  6
  2 10  1  0
  3  2  1  0
  4  3  1  0
  5  4  2  0
  6  5  1  0
  7  6  2  0
  7  8  1  0
  8  9  2  0
  9  4  1  0
 10 15  1  0
 10 11  2  0
 12 13  1  0
 14 13  1  1
 14 16  1  0
 15 14  1  0
 16 17  2  0
 18 19  1  0
 18 16  1  0
 19 20  1  6
 21 20  1  0
 22 19  1  0
 22 23  1  0
 24 22  2  0
M  END
$$$$
