QLK.pdb
     RDKit          3D

 27 26  0  0  1  0  0  0  0  0999 V2000
   28.9551  -17.5928  -15.4664 N   0  0  0  0  0  0  0  0  0  0  0  0
   28.2051  -18.1767  -16.5225 C   0  0  0  0  0  0  0  0  0  0  0  0
   28.6633  -18.0604  -17.6839 O   0  0  0  0  0  0  0  0  0  0  0  0
   26.9352  -18.8978  -16.3007 C   0  0  0  0  0  0  0  0  0  0  0  0
   26.5899  -18.8270  -14.8399 C   0  0  0  0  0  0  0  0  0  0  0  0
   27.2081  -19.9391  -14.0338 C   0  0  2  0  0  0  0  0  0  0  0  0
   27.7765  -20.9292  -14.9249 N   0  0  0  0  0  0  0  0  0  0  0  0
   26.1715  -20.6089  -13.1648 C   0  0  0  0  0  0  0  0  0  0  0  0
   25.5561  -21.6156  -13.5832 O   0  0  0  0  0  0  0  0  0  0  0  0
   26.5746  -19.9935   -7.6013 C   0  0  0  0  0  0  0  0  0  0  0  0
   26.4724  -20.4896   -9.0129 C   0  0  1  0  0  0  0  0  0  0  0  0
   27.0691  -21.8926   -9.0080 C   0  0  0  0  0  0  0  0  0  0  0  0
   25.1608  -20.4068   -9.6513 C   0  0  0  0  0  0  0  0  0  0  0  0
   24.9007  -20.8537  -11.0285 C   0  0  2  0  0  0  0  0  0  0  0  0
   25.8939  -20.1049  -11.8828 N   0  0  0  0  0  0  0  0  0  0  0  0
   23.6066  -20.4550  -11.5879 C   0  0  0  0  0  0  0  0  0  0  0  0
   23.2409  -19.2422  -11.3612 O   0  0  0  0  0  0  0  0  0  0  0  0
   22.7160  -21.2236  -12.3622 N   0  0  0  0  0  0  0  0  0  0  0  0
   21.5415  -20.6818  -12.9371 C   0  0  1  0  0  0  0  0  0  0  0  0
   21.3786  -20.6029  -14.3805 C   0  0  0  0  0  0  0  0  0  0  0  0
   20.2141  -20.0348  -15.0670 C   0  0  0  0  0  0  0  0  0  0  0  0
   20.1003  -20.0678  -16.5421 C   0  0  0  0  0  0  0  0  0  0  0  0
   18.9075  -19.4205  -17.1198 C   0  0  0  0  0  0  0  0  0  0  0  0
   19.0539  -19.5388  -18.6013 N   0  0  0  0  0  0  0  0  0  0  0  0
   20.2789  -21.3983  -12.3820 C   0  0  0  0  0  0  0  0  0  0  0  0
   20.4028  -22.5628  -11.6936 O   0  0  0  0  0  0  0  0  0  0  0  0
   19.1600  -20.8847  -12.5735 O   0  0  0  0  0  0  0  0  0  0  0  0
  2  4  1  0
  2  1  1  0
  3  2  2  0
  5  4  1  0
  6  5  1  0
  6  8  1  0
  6  7  1  6
  8 15  1  0
  9  8  2  0
 11 10  1  1
 11 12  1  0
 13 11  1  0
 14 13  1  1
 15 14  1  0
 16 14  1  0
 16 17  2  0
 18 16  1  0
 19 18  1  0
 19 20  1  6
 20 21  1  0
 22 23  1  0
 22 21  1  0
 23 24  1  0
 25 19  1  0
 26 25  1  0
 27 25  2  0
M  END
$$$$
