QLK.pdb
     RDKit          3D

 27 26  0  0  1  0  0  0  0  0999 V2000
   29.6248  -23.9276  -15.8887 N   0  0  0  0  0  0  0  0  0  0  0  0
   29.7200  -22.7261  -16.6411 C   0  0  0  0  0  0  0  0  0  0  0  0
   30.6988  -22.6107  -17.4164 O   0  0  0  0  0  0  0  0  0  0  0  0
   28.7276  -21.6366  -16.5409 C   0  0  0  0  0  0  0  0  0  0  0  0
   27.7268  -21.9929  -15.4780 C   0  0  0  0  0  0  0  0  0  0  0  0
   26.5253  -21.0844  -15.4718 C   0  0  2  0  0  0  0  0  0  0  0  0
   26.9403  -19.7295  -15.1729 N   0  0  0  0  0  0  0  0  0  0  0  0
   25.5275  -21.5258  -14.4288 C   0  0  0  0  0  0  0  0  0  0  0  0
   25.0276  -22.6723  -14.4827 O   0  0  0  0  0  0  0  0  0  0  0  0
   25.8815  -19.9263   -9.0730 C   0  0  0  0  0  0  0  0  0  0  0  0
   25.6804  -20.7415  -10.3156 C   0  0  1  0  0  0  0  0  0  0  0  0
   25.7646  -22.1996   -9.8782 C   0  0  0  0  0  0  0  0  0  0  0  0
   24.5048  -20.4343  -11.1269 C   0  0  0  0  0  0  0  0  0  0  0  0
   24.1678  -21.1490  -12.3678 C   0  0  2  0  0  0  0  0  0  0  0  0
   25.1566  -20.6513  -13.3933 N   0  0  0  0  0  0  0  0  0  0  0  0
   22.8703  -20.8110  -12.9586 C   0  0  0  0  0  0  0  0  0  0  0  0
   22.7561  -19.6192  -13.4306 O   0  0  0  0  0  0  0  0  0  0  0  0
   21.7334  -21.6307  -13.0962 N   0  0  0  0  0  0  0  0  0  0  0  0
   20.5244  -21.1689  -13.6695 C   0  0  1  0  0  0  0  0  0  0  0  0
   20.1318  -21.5619  -15.0139 C   0  0  0  0  0  0  0  0  0  0  0  0
   19.4398  -20.6982  -15.9758 C   0  0  0  0  0  0  0  0  0  0  0  0
   20.0521  -20.3540  -17.2783 C   0  0  0  0  0  0  0  0  0  0  0  0
   19.3069  -19.3971  -18.1177 C   0  0  0  0  0  0  0  0  0  0  0  0
   18.2049  -20.1801  -18.7524 N   0  0  0  0  0  0  0  0  0  0  0  0
   19.3204  -21.4874  -12.7397 C   0  0  0  0  0  0  0  0  0  0  0  0
   18.0963  -20.9612  -13.0045 O   0  0  0  0  0  0  0  0  0  0  0  0
   19.4967  -22.2341  -11.7579 O   0  0  0  0  0  0  0  0  0  0  0  0
  2  4  1  0
  2  1  1  0
  3  2  2  0
  5  4  1  0
  6  5  1  0
  6  8  1  0
  6  7  1  1
  8 15  1  0
  9  8  2  0
 11 10  1  1
 11 12  1  0
 13 11  1  0
 14 13  1  1
 15 14  1  0
 16 14  1  0
 16 17  2  0
 18 16  1  0
 19 18  1  0
 19 20  1  6
 20 21  1  0
 22 23  1  0
 22 21  1  0
 23 24  1  0
 25 19  1  0
 26 25  1  0
 27 25  2  0
M  END
$$$$
