QLK.pdb
     RDKit          3D

 27 26  0  0  1  0  0  0  0  0999 V2000
   24.7722  -22.9711  -15.4264 N   0  0  0  0  0  0  0  0  0  0  0  0
   26.1532  -22.6555  -15.3177 C   0  0  0  0  0  0  0  0  0  0  0  0
   26.9728  -23.5490  -15.6373 O   0  0  0  0  0  0  0  0  0  0  0  0
   26.6411  -21.3414  -14.8517 C   0  0  0  0  0  0  0  0  0  0  0  0
   25.4580  -20.4924  -14.4804 C   0  0  0  0  0  0  0  0  0  0  0  0
   24.7654  -19.8921  -15.6757 C   0  0  2  0  0  0  0  0  0  0  0  0
   25.5647  -18.8086  -16.2090 N   0  0  0  0  0  0  0  0  0  0  0  0
   23.4104  -19.3496  -15.2910 C   0  0  0  0  0  0  0  0  0  0  0  0
   23.3176  -18.4362  -14.4399 O   0  0  0  0  0  0  0  0  0  0  0  0
   20.1528  -16.8326  -18.4704 C   0  0  0  0  0  0  0  0  0  0  0  0
   20.7211  -17.2883  -17.1596 C   0  0  1  0  0  0  0  0  0  0  0  0
   20.3358  -16.2202  -16.1420 C   0  0  0  0  0  0  0  0  0  0  0  0
   20.4031  -18.6502  -16.7367 C   0  0  0  0  0  0  0  0  0  0  0  0
   20.9233  -19.2571  -15.5018 C   0  0  2  0  0  0  0  0  0  0  0  0
   22.2483  -19.8676  -15.8874 N   0  0  0  0  0  0  0  0  0  0  0  0
   20.1617  -20.3995  -14.9903 C   0  0  0  0  0  0  0  0  0  0  0  0
   20.3332  -21.5162  -15.6064 O   0  0  0  0  0  0  0  0  0  0  0  0
   19.2779  -20.4396  -13.8945 N   0  0  0  0  0  0  0  0  0  0  0  0
   18.5593  -21.6051  -13.5358 C   0  0  1  0  0  0  0  0  0  0  0  0
   18.7921  -22.2697  -12.2630 C   0  0  0  0  0  0  0  0  0  0  0  0
   18.0885  -23.4691  -11.7978 C   0  0  0  0  0  0  0  0  0  0  0  0
   18.2884  -23.9947  -10.4290 C   0  0  0  0  0  0  0  0  0  0  0  0
   17.5919  -25.2538  -10.1046 C   0  0  0  0  0  0  0  0  0  0  0  0
   17.9744  -25.5834   -8.6991 N   0  0  0  0  0  0  0  0  0  0  0  0
   17.0283  -21.3584  -13.6393 C   0  0  0  0  0  0  0  0  0  0  0  0
   16.1781  -22.4053  -13.8019 O   0  0  0  0  0  0  0  0  0  0  0  0
   16.5984  -20.1912  -13.5644 O   0  0  0  0  0  0  0  0  0  0  0  0
  2  4  1  0
  2  1  1  0
  3  2  2  0
  5  4  1  0
  6  5  1  0
  6  8  1  0
  6  7  1  1
  8 15  1  0
  9  8  2  0
 11 10  1  6
 11 12  1  0
 13 11  1  0
 14 13  1  6
 15 14  1  0
 16 14  1  0
 16 17  2  0
 18 16  1  0
 19 18  1  0
 19 20  1  1
 20 21  1  0
 22 23  1  0
 22 21  1  0
 23 24  1  0
 25 19  1  0
 26 25  1  0
 27 25  2  0
M  END
$$$$
