QLK.pdb
     RDKit          3D

 27 26  0  0  1  0  0  0  0  0999 V2000
   24.2991  -25.4219  -14.3279 N   0  0  0  0  0  0  0  0  0  0  0  0
   25.0109  -24.9331  -15.4561 C   0  0  0  0  0  0  0  0  0  0  0  0
   25.8415  -25.7064  -15.9895 O   0  0  0  0  0  0  0  0  0  0  0  0
   24.8085  -23.5772  -16.0062 C   0  0  0  0  0  0  0  0  0  0  0  0
   23.6952  -22.9111  -15.2479 C   0  0  0  0  0  0  0  0  0  0  0  0
   23.8794  -21.4218  -15.1181 C   0  0  2  0  0  0  0  0  0  0  0  0
   25.1741  -21.1400  -14.5335 N   0  0  0  0  0  0  0  0  0  0  0  0
   22.8101  -20.8264  -14.2348 C   0  0  0  0  0  0  0  0  0  0  0  0
   22.9352  -20.8557  -12.9895 O   0  0  0  0  0  0  0  0  0  0  0  0
   19.7038  -16.8257  -12.4745 C   0  0  0  0  0  0  0  0  0  0  0  0
   19.5988  -17.2041  -13.9218 C   0  0  1  0  0  0  0  0  0  0  0  0
   19.5831  -15.8917  -14.6978 C   0  0  0  0  0  0  0  0  0  0  0  0
   20.5661  -18.1769  -14.4246 C   0  0  0  0  0  0  0  0  0  0  0  0
   20.6971  -19.5403  -13.8881 C   0  0  2  0  0  0  0  0  0  0  0  0
   21.6704  -20.2365  -14.8074 N   0  0  0  0  0  0  0  0  0  0  0  0
   19.4944  -20.3724  -13.9778 C   0  0  0  0  0  0  0  0  0  0  0  0
   19.2215  -20.8500  -15.1412 O   0  0  0  0  0  0  0  0  0  0  0  0
   18.6053  -20.7359  -12.9478 N   0  0  0  0  0  0  0  0  0  0  0  0
   17.4536  -21.5260  -13.1774 C   0  0  1  0  0  0  0  0  0  0  0  0
   17.1261  -22.6471  -12.3102 C   0  0  0  0  0  0  0  0  0  0  0  0
   18.0998  -23.4349  -11.5478 C   0  0  0  0  0  0  0  0  0  0  0  0
   17.6818  -24.6084  -10.7491 C   0  0  0  0  0  0  0  0  0  0  0  0
   18.7619  -25.3744  -10.0992 C   0  0  0  0  0  0  0  0  0  0  0  0
   18.0886  -26.4761   -9.3485 N   0  0  0  0  0  0  0  0  0  0  0  0
   16.1836  -20.6334  -13.2552 C   0  0  0  0  0  0  0  0  0  0  0  0
   15.1232  -21.0203  -14.0110 O   0  0  0  0  0  0  0  0  0  0  0  0
   16.1544  -19.5674  -12.6106 O   0  0  0  0  0  0  0  0  0  0  0  0
  2  4  1  0
  2  1  1  0
  3  2  2  0
  5  4  1  0
  6  5  1  0
  6  8  1  0
  6  7  1  1
  8 15  1  0
  9  8  2  0
 11 10  1  1
 11 12  1  0
 13 11  1  0
 14 13  1  6
 15 14  1  0
 16 14  1  0
 16 17  2  0
 18 16  1  0
 19 18  1  0
 19 20  1  1
 20 21  1  0
 22 23  1  0
 22 21  1  0
 23 24  1  0
 25 19  1  0
 26 25  1  0
 27 25  2  0
M  END
$$$$
