QLK.pdb
     RDKit          3D

 27 26  0  0  1  0  0  0  0  0999 V2000
   26.7051  -20.9652  -16.2582 N   0  0  0  0  0  0  0  0  0  0  0  0
   27.5579  -21.3107  -15.1756 C   0  0  0  0  0  0  0  0  0  0  0  0
   28.0504  -22.4639  -15.1789 O   0  0  0  0  0  0  0  0  0  0  0  0
   27.8743  -20.3780  -14.0748 C   0  0  0  0  0  0  0  0  0  0  0  0
   27.4417  -21.0002  -12.7771 C   0  0  0  0  0  0  0  0  0  0  0  0
   26.0976  -20.5087  -12.3073 C   0  0  2  0  0  0  0  0  0  0  0  0
   26.1097  -19.0630  -12.2224 N   0  0  0  0  0  0  0  0  0  0  0  0
   25.7699  -21.0704  -10.9452 C   0  0  0  0  0  0  0  0  0  0  0  0
   25.6595  -22.3072  -10.7853 O   0  0  0  0  0  0  0  0  0  0  0  0
   27.7013  -18.5948   -6.4519 C   0  0  0  0  0  0  0  0  0  0  0  0
   27.2662  -19.6310   -7.4448 C   0  0  1  0  0  0  0  0  0  0  0  0
   28.1353  -20.8555   -7.1805 C   0  0  0  0  0  0  0  0  0  0  0  0
   25.8365  -19.9242   -7.5135 C   0  0  0  0  0  0  0  0  0  0  0  0
   25.2406  -20.8197   -8.5170 C   0  0  2  0  0  0  0  0  0  0  0  0
   25.5880  -20.2070   -9.8516 N   0  0  0  0  0  0  0  0  0  0  0  0
   23.7762  -20.8613   -8.5360 C   0  0  0  0  0  0  0  0  0  0  0  0
   23.1862  -19.8238   -9.0172 O   0  0  0  0  0  0  0  0  0  0  0  0
   22.9266  -21.9019   -8.1130 N   0  0  0  0  0  0  0  0  0  0  0  0
   21.5160  -21.8149   -8.1911 C   0  0  1  0  0  0  0  0  0  0  0  0
   20.8097  -22.1425   -9.4199 C   0  0  0  0  0  0  0  0  0  0  0  0
   19.3557  -22.0794   -9.5982 C   0  0  0  0  0  0  0  0  0  0  0  0
   18.7202  -22.4770  -10.8741 C   0  0  0  0  0  0  0  0  0  0  0  0
   17.2556  -22.3206  -10.9510 C   0  0  0  0  0  0  0  0  0  0  0  0
   16.8802  -22.6600  -12.3561 N   0  0  0  0  0  0  0  0  0  0  0  0
   20.8523  -22.6454   -7.0575 C   0  0  0  0  0  0  0  0  0  0  0  0
   19.5191  -22.5346   -6.8217 O   0  0  0  0  0  0  0  0  0  0  0  0
   21.5600  -23.4139   -6.3783 O   0  0  0  0  0  0  0  0  0  0  0  0
  2  4  1  0
  2  1  1  0
  3  2  2  0
  5  4  1  0
  6  5  1  0
  6  8  1  0
  6  7  1  1
  8 15  1  0
  9  8  2  0
 11 10  1  1
 11 12  1  0
 13 11  1  0
 14 13  1  1
 15 14  1  0
 16 14  1  0
 16 17  2  0
 18 16  1  0
 19 18  1  0
 19 20  1  6
 20 21  1  0
 22 23  1  0
 22 21  1  0
 23 24  1  0
 25 19  1  0
 26 25  1  0
 27 25  2  0
M  END
$$$$
