QLK.pdb
     RDKit          3D

 27 26  0  0  1  0  0  0  0  0999 V2000
   26.7576  -18.1014  -20.2645 N   0  0  0  0  0  0  0  0  0  0  0  0
   26.0712  -17.5792  -19.1354 C   0  0  0  0  0  0  0  0  0  0  0  0
   26.6799  -16.7377  -18.4327 O   0  0  0  0  0  0  0  0  0  0  0  0
   24.6983  -17.9862  -18.7728 C   0  0  0  0  0  0  0  0  0  0  0  0
   24.7682  -19.2551  -17.9707 C   0  0  0  0  0  0  0  0  0  0  0  0
   25.4777  -19.0810  -16.6534 C   0  0  2  0  0  0  0  0  0  0  0  0
   26.8970  -19.3083  -16.8306 N   0  0  0  0  0  0  0  0  0  0  0  0
   24.9548  -20.0612  -15.6316 C   0  0  0  0  0  0  0  0  0  0  0  0
   24.7482  -21.2535  -15.9526 O   0  0  0  0  0  0  0  0  0  0  0  0
   25.8260  -22.1486  -10.6432 C   0  0  0  0  0  0  0  0  0  0  0  0
   24.9859  -20.9126  -10.7673 C   0  0  1  0  0  0  0  0  0  0  0  0
   25.3309  -20.0486   -9.5593 C   0  0  0  0  0  0  0  0  0  0  0  0
   25.0416  -20.1982  -12.0406 C   0  0  0  0  0  0  0  0  0  0  0  0
   24.4173  -20.6956  -13.2763 C   0  0  2  0  0  0  0  0  0  0  0  0
   24.6986  -19.6388  -14.3161 N   0  0  0  0  0  0  0  0  0  0  0  0
   22.9541  -20.7702  -13.2586 C   0  0  0  0  0  0  0  0  0  0  0  0
   22.3310  -19.6491  -13.1550 O   0  0  0  0  0  0  0  0  0  0  0  0
   22.1368  -21.9126  -13.3613 N   0  0  0  0  0  0  0  0  0  0  0  0
   20.7254  -21.8515  -13.2735 C   0  0  1  0  0  0  0  0  0  0  0  0
   19.8997  -22.9930  -13.6360 C   0  0  0  0  0  0  0  0  0  0  0  0
   20.2551  -24.0068  -14.6340 C   0  0  0  0  0  0  0  0  0  0  0  0
   19.3541  -25.1428  -14.9296 C   0  0  0  0  0  0  0  0  0  0  0  0
   19.7637  -26.0313  -16.0333 C   0  0  0  0  0  0  0  0  0  0  0  0
   18.7785  -27.1537  -16.0432 N   0  0  0  0  0  0  0  0  0  0  0  0
   20.2835  -21.4127  -11.8495 C   0  0  0  0  0  0  0  0  0  0  0  0
   19.0222  -20.9549  -11.6376 O   0  0  0  0  0  0  0  0  0  0  0  0
   21.1001  -21.4943  -10.9120 O   0  0  0  0  0  0  0  0  0  0  0  0
  2  4  1  0
  2  1  1  0
  3  2  2  0
  5  4  1  0
  6  5  1  0
  6  8  1  0
  6  7  1  6
  8 15  1  0
  9  8  2  0
 11 10  1  6
 11 12  1  0
 13 11  1  0
 14 13  1  1
 15 14  1  0
 16 14  1  0
 16 17  2  0
 18 16  1  0
 19 18  1  0
 19 20  1  1
 20 21  1  0
 22 23  1  0
 22 21  1  0
 23 24  1  0
 25 19  1  0
 26 25  1  0
 27 25  2  0
M  END
$$$$
