MGY.pdb
     RDKit          3D

 25 25  0  0  1  0  0  0  0  0999 V2000
    9.8558  -19.7596   15.7354 C   0  0  0  0  0  0  0  0  0  0  0  0
    8.0868  -19.7484   16.1405 S   0  0  0  0  0  0  0  0  0  0  0  0
    7.9851  -19.6942   17.9808 C   0  0  0  0  0  0  0  0  0  0  0  0
    8.7707  -18.5057   18.3915 C   0  0  0  0  0  0  0  0  0  0  0  0
    8.9144  -18.2454   19.8490 C   0  0  2  0  0  0  0  0  0  0  0  0
    7.8449  -19.0376   20.4969 N   0  0  0  0  0  0  0  0  0  0  0  0
    8.7336  -16.8750   20.3012 C   0  0  0  0  0  0  0  0  0  0  0  0
    9.4191  -15.9044   19.8949 O   0  0  0  0  0  0  0  0  0  0  0  0
    7.7240  -16.5949   21.2598 N   0  0  0  0  0  0  0  0  0  0  0  0
    7.5045  -15.2685   21.7109 C   0  0  0  0  0  0  0  0  0  0  0  0
    8.5970  -14.6657   22.5088 C   0  0  0  0  0  0  0  0  0  0  0  0
    8.5473  -13.4004   22.7266 O   0  0  0  0  0  0  0  0  0  0  0  0
    5.8855  -11.0865   27.0658 O   0  0  0  0  0  0  0  0  0  0  0  0
    6.5344  -12.2123   26.6062 C   0  0  0  0  0  0  0  0  0  0  0  0
    5.8165  -13.2140   25.9998 C   0  0  0  0  0  0  0  0  0  0  0  0
    6.4447  -14.3652   25.5246 C   0  0  0  0  0  0  0  0  0  0  0  0
    7.8057  -14.5360   25.6479 C   0  0  0  0  0  0  0  0  0  0  0  0
    8.4700  -15.7549   25.1446 C   0  0  0  0  0  0  0  0  0  0  0  0
    9.8031  -15.5372   24.5126 C   0  0  2  0  0  0  0  0  0  0  0  0
    9.7028  -15.3345   23.0593 N   0  0  0  0  0  0  0  0  0  0  0  0
   10.6525  -16.7217   24.7878 C   0  0  0  0  0  0  0  0  0  0  0  0
   10.3512  -17.9138   24.1772 O   0  0  0  0  0  0  0  0  0  0  0  0
    8.5134  -13.5333   26.2527 C   0  0  0  0  0  0  0  0  0  0  0  0
    7.8953  -12.3751   26.7329 C   0  0  0  0  0  0  0  0  0  0  0  0
   11.6242  -16.6440   25.5586 O   0  0  0  0  0  0  0  0  0  0  0  0
  2  1  1  0
  3  2  1  0
  3  4  1  0
  5  4  1  0
  5  6  1  1
  7  5  1  0
  7  9  1  0
  8  7  2  0
 10 11  1  0
 10  9  1  0
 11 12  2  0
 14 13  1  0
 15 14  2  0
 16 15  1  0
 17 16  2  0
 17 23  1  0
 18 17  1  0
 19 18  1  6
 20 19  1  0
 20 11  1  0
 21 22  1  0
 21 19  1  0
 23 24  2  0
 24 14  1  0
 25 21  2  0
M  END
$$$$
