MGY.pdb
     RDKit          3D

 25 25  0  0  1  0  0  0  0  0999 V2000
    5.7803  -12.1114   26.7260 C   0  0  0  0  0  0  0  0  0  0  0  0
    7.3243  -12.5980   25.9056 S   0  0  0  0  0  0  0  0  0  0  0  0
    6.8288  -13.5943   24.4352 C   0  0  0  0  0  0  0  0  0  0  0  0
    8.0943  -13.9727   23.7616 C   0  0  0  0  0  0  0  0  0  0  0  0
    8.0912  -15.2095   22.9351 C   0  0  2  0  0  0  0  0  0  0  0  0
    7.5710  -16.2738   23.8226 N   0  0  0  0  0  0  0  0  0  0  0  0
    9.3749  -15.6841   22.4431 C   0  0  0  0  0  0  0  0  0  0  0  0
   10.1056  -15.0403   21.6503 O   0  0  0  0  0  0  0  0  0  0  0  0
    9.8510  -16.9505   22.8748 N   0  0  0  0  0  0  0  0  0  0  0  0
   11.2357  -17.1655   23.0926 C   0  0  0  0  0  0  0  0  0  0  0  0
   11.6248  -17.5408   24.4715 C   0  0  0  0  0  0  0  0  0  0  0  0
   12.8789  -17.5715   24.7490 O   0  0  0  0  0  0  0  0  0  0  0  0
    9.4781  -12.1996   27.7231 O   0  0  0  0  0  0  0  0  0  0  0  0
    9.7549  -13.5480   27.7937 C   0  0  0  0  0  0  0  0  0  0  0  0
    8.8467  -14.4573   27.3092 C   0  0  0  0  0  0  0  0  0  0  0  0
    9.0982  -15.8281   27.3665 C   0  0  0  0  0  0  0  0  0  0  0  0
   10.2655  -16.3156   27.9112 C   0  0  0  0  0  0  0  0  0  0  0  0
   10.5310  -17.7669   27.9715 C   0  0  0  0  0  0  0  0  0  0  0  0
   11.3007  -18.3204   26.8202 C   0  0  2  0  0  0  0  0  0  0  0  0
   10.7601  -17.8774   25.5261 N   0  0  0  0  0  0  0  0  0  0  0  0
   11.2547  -19.8012   26.8930 C   0  0  0  0  0  0  0  0  0  0  0  0
   11.7946  -20.4314   27.9867 O   0  0  0  0  0  0  0  0  0  0  0  0
   11.1650  -15.4031   28.3911 C   0  0  0  0  0  0  0  0  0  0  0  0
   10.9243  -14.0271   28.3393 C   0  0  0  0  0  0  0  0  0  0  0  0
   10.7369  -20.4684   25.9814 O   0  0  0  0  0  0  0  0  0  0  0  0
  2  1  1  0
  3  2  1  0
  3  4  1  0
  5  4  1  0
  5  6  1  1
  7  5  1  0
  7  9  1  0
  8  7  2  0
 10 11  1  0
 10  9  1  0
 11 12  2  0
 14 13  1  0
 15 14  2  0
 16 15  1  0
 17 16  2  0
 17 23  1  0
 18 17  1  0
 19 18  1  1
 20 19  1  0
 20 11  1  0
 21 22  1  0
 21 19  1  0
 23 24  2  0
 24 14  1  0
 25 21  2  0
M  END
$$$$
