MGY.pdb
     RDKit          3D

 25 25  0  0  1  0  0  0  0  0999 V2000
    7.6259  -11.9224   20.6367 C   0  0  0  0  0  0  0  0  0  0  0  0
    6.6199  -13.2900   19.9954 S   0  0  0  0  0  0  0  0  0  0  0  0
    7.5148  -14.8375   20.4478 C   0  0  0  0  0  0  0  0  0  0  0  0
    8.2355  -14.5311   21.7068 C   0  0  0  0  0  0  0  0  0  0  0  0
    8.9764  -15.6412   22.3636 C   0  0  2  0  0  0  0  0  0  0  0  0
    9.4205  -16.5235   21.2612 N   0  0  0  0  0  0  0  0  0  0  0  0
    8.2310  -16.4862   23.2832 C   0  0  0  0  0  0  0  0  0  0  0  0
    7.6572  -16.0644   24.3175 O   0  0  0  0  0  0  0  0  0  0  0  0
    8.1321  -17.8768   23.0126 N   0  0  0  0  0  0  0  0  0  0  0  0
    7.4980  -18.7484   23.9339 C   0  0  0  0  0  0  0  0  0  0  0  0
    8.3080  -19.1545   25.1055 C   0  0  0  0  0  0  0  0  0  0  0  0
    7.9652  -20.2276   25.7235 O   0  0  0  0  0  0  0  0  0  0  0  0
   12.6788  -19.1589   20.2458 O   0  0  0  0  0  0  0  0  0  0  0  0
   12.4769  -19.0541   21.6052 C   0  0  0  0  0  0  0  0  0  0  0  0
   12.4134  -20.1896   22.3752 C   0  0  0  0  0  0  0  0  0  0  0  0
   12.2100  -20.1159   23.7532 C   0  0  0  0  0  0  0  0  0  0  0  0
   12.0658  -18.9020   24.3876 C   0  0  0  0  0  0  0  0  0  0  0  0
   11.8505  -18.8248   25.8464 C   0  0  0  0  0  0  0  0  0  0  0  0
   10.4924  -19.2302   26.3105 C   0  0  2  0  0  0  0  0  0  0  0  0
    9.4256  -18.4827   25.6276 N   0  0  0  0  0  0  0  0  0  0  0  0
   10.4045  -18.9909   27.7718 C   0  0  0  0  0  0  0  0  0  0  0  0
   11.2635  -19.6587   28.6090 O   0  0  0  0  0  0  0  0  0  0  0  0
   12.1307  -17.7758   23.6133 C   0  0  0  0  0  0  0  0  0  0  0  0
   12.3341  -17.8368   22.2317 C   0  0  0  0  0  0  0  0  0  0  0  0
    9.5684  -18.1991   28.2388 O   0  0  0  0  0  0  0  0  0  0  0  0
  2  1  1  0
  3  2  1  0
  3  4  1  0
  5  4  1  0
  5  6  1  6
  7  5  1  0
  7  9  1  0
  8  7  2  0
 10 11  1  0
 10  9  1  0
 11 12  2  0
 14 13  1  0
 15 14  2  0
 16 15  1  0
 17 16  2  0
 17 23  1  0
 18 17  1  0
 19 18  1  6
 20 19  1  0
 20 11  1  0
 21 22  1  0
 21 19  1  0
 23 24  2  0
 24 14  1  0
 25 21  2  0
M  END
$$$$
