MGY.pdb
     RDKit          3D

 25 25  0  0  1  0  0  0  0  0999 V2000
    6.6029  -11.2003   26.1773 C   0  0  0  0  0  0  0  0  0  0  0  0
    6.5974  -12.5770   27.3599 S   0  0  0  0  0  0  0  0  0  0  0  0
    6.1061  -14.0725   26.3996 C   0  0  0  0  0  0  0  0  0  0  0  0
    7.1164  -14.2081   25.3229 C   0  0  0  0  0  0  0  0  0  0  0  0
    6.9451  -15.3243   24.3546 C   0  0  2  0  0  0  0  0  0  0  0  0
    7.2044  -16.5591   25.1286 N   0  0  0  0  0  0  0  0  0  0  0  0
    7.8496  -15.3624   23.2164 C   0  0  0  0  0  0  0  0  0  0  0  0
    8.6766  -14.4573   22.9451 O   0  0  0  0  0  0  0  0  0  0  0  0
    7.8130  -16.4843   22.3463 N   0  0  0  0  0  0  0  0  0  0  0  0
    8.9317  -17.3485   22.2350 C   0  0  0  0  0  0  0  0  0  0  0  0
   10.2307  -16.7876   22.6724 C   0  0  0  0  0  0  0  0  0  0  0  0
   11.1290  -16.5948   21.7743 O   0  0  0  0  0  0  0  0  0  0  0  0
   10.0370  -16.3846   30.4030 O   0  0  0  0  0  0  0  0  0  0  0  0
   10.4886  -15.9830   29.1643 C   0  0  0  0  0  0  0  0  0  0  0  0
   10.9642  -16.9162   28.2758 C   0  0  0  0  0  0  0  0  0  0  0  0
   11.4280  -16.5408   27.0151 C   0  0  0  0  0  0  0  0  0  0  0  0
   11.4250  -15.2216   26.6192 C   0  0  0  0  0  0  0  0  0  0  0  0
   11.9163  -14.8250   25.2843 C   0  0  0  0  0  0  0  0  0  0  0  0
   11.9413  -15.9150   24.2668 C   0  0  2  0  0  0  0  0  0  0  0  0
   10.5975  -16.4416   23.9835 N   0  0  0  0  0  0  0  0  0  0  0  0
   12.8036  -17.0106   24.7732 C   0  0  0  0  0  0  0  0  0  0  0  0
   14.1476  -16.7806   24.9332 O   0  0  0  0  0  0  0  0  0  0  0  0
   10.9494  -14.2985   27.5100 C   0  0  0  0  0  0  0  0  0  0  0  0
   10.4819  -14.6624   28.7761 C   0  0  0  0  0  0  0  0  0  0  0  0
   12.3239  -18.1229   25.0506 O   0  0  0  0  0  0  0  0  0  0  0  0
  2  1  1  0
  3  2  1  0
  3  4  1  0
  5  4  1  0
  5  6  1  1
  7  5  1  0
  7  9  1  0
  8  7  2  0
 10 11  1  0
 10  9  1  0
 11 12  2  0
 14 13  1  0
 15 14  2  0
 16 15  1  0
 17 16  2  0
 17 23  1  0
 18 17  1  0
 19 18  1  1
 20 19  1  0
 20 11  1  0
 21 22  1  0
 21 19  1  0
 23 24  2  0
 24 14  1  0
 25 21  2  0
M  END
$$$$
