MGY.pdb
     RDKit          3D

 25 25  0  0  1  0  0  0  0  0999 V2000
    7.5391  -11.3706   20.0306 C   0  0  0  0  0  0  0  0  0  0  0  0
    8.1755  -12.9231   20.7222 S   0  0  0  0  0  0  0  0  0  0  0  0
    6.9793  -14.2336   20.2201 C   0  0  0  0  0  0  0  0  0  0  0  0
    7.4234  -15.4684   20.9104 C   0  0  0  0  0  0  0  0  0  0  0  0
    8.5954  -16.1895   20.3453 C   0  0  2  0  0  0  0  0  0  0  0  0
    8.2309  -16.4936   18.9432 N   0  0  0  0  0  0  0  0  0  0  0  0
    8.9522  -17.4604   20.9557 C   0  0  0  0  0  0  0  0  0  0  0  0
    8.6096  -18.5795   20.5007 O   0  0  0  0  0  0  0  0  0  0  0  0
    9.7375  -17.4584   22.1390 N   0  0  0  0  0  0  0  0  0  0  0  0
    9.9116  -16.2670   22.8880 C   0  0  0  0  0  0  0  0  0  0  0  0
   10.7301  -16.3869   24.1165 C   0  0  0  0  0  0  0  0  0  0  0  0
   11.6488  -17.2850   24.1349 O   0  0  0  0  0  0  0  0  0  0  0  0
    6.2299  -10.9635   26.6847 O   0  0  0  0  0  0  0  0  0  0  0  0
    6.7643  -12.2318   26.6109 C   0  0  0  0  0  0  0  0  0  0  0  0
    7.9367  -12.5177   27.2668 C   0  0  0  0  0  0  0  0  0  0  0  0
    8.5021  -13.7916   27.2109 C   0  0  0  0  0  0  0  0  0  0  0  0
    7.9038  -14.8052   26.4958 C   0  0  0  0  0  0  0  0  0  0  0  0
    8.5030  -16.1535   26.4371 C   0  0  0  0  0  0  0  0  0  0  0  0
    9.9929  -16.1896   26.4929 C   0  0  2  0  0  0  0  0  0  0  0  0
   10.6082  -15.6178   25.2855 N   0  0  0  0  0  0  0  0  0  0  0  0
   10.4232  -17.6011   26.6444 C   0  0  0  0  0  0  0  0  0  0  0  0
   10.7826  -18.0580   27.8881 O   0  0  0  0  0  0  0  0  0  0  0  0
    6.7361  -14.5122   25.8457 C   0  0  0  0  0  0  0  0  0  0  0  0
    6.1598  -13.2397   25.8943 C   0  0  0  0  0  0  0  0  0  0  0  0
   10.4603  -18.3648   25.6648 O   0  0  0  0  0  0  0  0  0  0  0  0
  2  1  1  0
  3  2  1  0
  3  4  1  0
  5  4  1  0
  5  6  1  6
  7  5  1  0
  7  9  1  0
  8  7  2  0
 10 11  1  0
 10  9  1  0
 11 12  2  0
 14 13  1  0
 15 14  2  0
 16 15  1  0
 17 16  2  0
 17 23  1  0
 18 17  1  0
 19 18  1  6
 20 19  1  0
 20 11  1  0
 21 22  1  0
 21 19  1  0
 23 24  2  0
 24 14  1  0
 25 21  2  0
M  END
$$$$
