MGY.pdb
     RDKit          3D

 25 25  0  0  1  0  0  0  0  0999 V2000
    6.2414  -12.0722   19.5673 C   0  0  0  0  0  0  0  0  0  0  0  0
    7.5415  -12.6795   20.6786 S   0  0  0  0  0  0  0  0  0  0  0  0
    6.8305  -14.1450   21.5428 C   0  0  0  0  0  0  0  0  0  0  0  0
    7.8328  -14.5344   22.5637 C   0  0  0  0  0  0  0  0  0  0  0  0
    9.0050  -15.3297   22.1095 C   0  0  2  0  0  0  0  0  0  0  0  0
    8.4680  -16.6702   21.7843 N   0  0  0  0  0  0  0  0  0  0  0  0
   10.0757  -15.5445   23.0701 C   0  0  0  0  0  0  0  0  0  0  0  0
   10.7753  -14.6242   23.5604 O   0  0  0  0  0  0  0  0  0  0  0  0
   10.3632  -16.8690   23.4943 N   0  0  0  0  0  0  0  0  0  0  0  0
   11.5315  -17.1482   24.2480 C   0  0  0  0  0  0  0  0  0  0  0  0
   11.4320  -16.9184   25.7077 C   0  0  0  0  0  0  0  0  0  0  0  0
   12.5218  -16.6984   26.3518 O   0  0  0  0  0  0  0  0  0  0  0  0
    6.9893  -11.6887   25.5105 O   0  0  0  0  0  0  0  0  0  0  0  0
    7.5064  -12.7425   26.2330 C   0  0  0  0  0  0  0  0  0  0  0  0
    6.9066  -13.9762   26.1648 C   0  0  0  0  0  0  0  0  0  0  0  0
    7.4064  -15.0617   26.8843 C   0  0  0  0  0  0  0  0  0  0  0  0
    8.5179  -14.9325   27.6872 C   0  0  0  0  0  0  0  0  0  0  0  0
    9.0464  -16.0821   28.4485 C   0  0  0  0  0  0  0  0  0  0  0  0
   10.3187  -16.6590   27.9265 C   0  0  2  0  0  0  0  0  0  0  0  0
   10.2587  -16.9191   26.4801 N   0  0  0  0  0  0  0  0  0  0  0  0
   10.5886  -17.9282   28.6450 C   0  0  0  0  0  0  0  0  0  0  0  0
   10.5774  -19.1072   27.9417 O   0  0  0  0  0  0  0  0  0  0  0  0
    9.1096  -13.7004   27.7492 C   0  0  0  0  0  0  0  0  0  0  0  0
    8.6181  -12.6052   27.0330 C   0  0  0  0  0  0  0  0  0  0  0  0
   10.8224  -17.9325   29.8655 O   0  0  0  0  0  0  0  0  0  0  0  0
  2  1  1  0
  3  2  1  0
  3  4  1  0
  5  4  1  0
  5  6  1  1
  7  5  1  0
  7  9  1  0
  8  7  2  0
 10 11  1  0
 10  9  1  0
 11 12  2  0
 14 13  1  0
 15 14  2  0
 16 15  1  0
 17 16  2  0
 17 23  1  0
 18 17  1  0
 19 18  1  1
 20 19  1  0
 20 11  1  0
 21 22  1  0
 21 19  1  0
 23 24  2  0
 24 14  1  0
 25 21  2  0
M  END
$$$$
