MGY.pdb
     RDKit          3D

 25 25  0  0  1  0  0  0  0  0999 V2000
    7.9224  -11.9746   26.6992 C   0  0  0  0  0  0  0  0  0  0  0  0
    6.2981  -12.7029   26.3454 S   0  0  0  0  0  0  0  0  0  0  0  0
    6.6190  -14.1711   25.2770 C   0  0  0  0  0  0  0  0  0  0  0  0
    7.6585  -13.7443   24.3096 C   0  0  0  0  0  0  0  0  0  0  0  0
    7.8878  -14.6073   23.1200 C   0  0  2  0  0  0  0  0  0  0  0  0
    7.1979  -15.8821   23.4205 N   0  0  0  0  0  0  0  0  0  0  0  0
    9.2645  -14.9562   22.8065 C   0  0  0  0  0  0  0  0  0  0  0  0
   10.1755  -14.1147   22.6098 O   0  0  0  0  0  0  0  0  0  0  0  0
    9.6223  -16.3274   22.7141 N   0  0  0  0  0  0  0  0  0  0  0  0
   10.9729  -16.7092   22.5114 C   0  0  0  0  0  0  0  0  0  0  0  0
   11.6757  -17.2594   23.6933 C   0  0  0  0  0  0  0  0  0  0  0  0
   12.9416  -17.4563   23.5953 O   0  0  0  0  0  0  0  0  0  0  0  0
    9.1516  -12.9124   28.5908 O   0  0  0  0  0  0  0  0  0  0  0  0
    9.6861  -14.1482   28.2961 C   0  0  0  0  0  0  0  0  0  0  0  0
    8.8933  -15.1177   27.7322 C   0  0  0  0  0  0  0  0  0  0  0  0
    9.4052  -16.3778   27.4228 C   0  0  0  0  0  0  0  0  0  0  0  0
   10.7227  -16.6920   27.6728 C   0  0  0  0  0  0  0  0  0  0  0  0
   11.2638  -18.0262   27.3450 C   0  0  0  0  0  0  0  0  0  0  0  0
   11.9358  -18.1308   26.0177 C   0  0  2  0  0  0  0  0  0  0  0  0
   11.1012  -17.6001   24.9290 N   0  0  0  0  0  0  0  0  0  0  0  0
   12.2385  -19.5590   25.7556 C   0  0  0  0  0  0  0  0  0  0  0  0
   13.0448  -20.2409   26.6330 O   0  0  0  0  0  0  0  0  0  0  0  0
   11.5056  -15.7205   28.2342 C   0  0  0  0  0  0  0  0  0  0  0  0
   11.0042  -14.4542   28.5487 C   0  0  0  0  0  0  0  0  0  0  0  0
   11.7728  -20.1368   24.7588 O   0  0  0  0  0  0  0  0  0  0  0  0
  2  1  1  0
  3  2  1  0
  3  4  1  0
  5  4  1  0
  5  6  1  1
  7  5  1  0
  7  9  1  0
  8  7  2  0
 10 11  1  0
 10  9  1  0
 11 12  2  0
 14 13  1  0
 15 14  2  0
 16 15  1  0
 17 16  2  0
 17 23  1  0
 18 17  1  0
 19 18  1  1
 20 19  1  0
 20 11  1  0
 21 22  1  0
 21 19  1  0
 23 24  2  0
 24 14  1  0
 25 21  2  0
M  END
$$$$
