MGY.pdb
     RDKit          3D

 25 25  0  0  1  0  0  0  0  0999 V2000
    5.5531  -12.0535   26.6472 C   0  0  0  0  0  0  0  0  0  0  0  0
    7.2286  -12.5711   26.1800 S   0  0  0  0  0  0  0  0  0  0  0  0
    7.0526  -13.5025   24.5984 C   0  0  0  0  0  0  0  0  0  0  0  0
    8.4294  -13.8837   24.2014 C   0  0  0  0  0  0  0  0  0  0  0  0
    8.5799  -14.8668   23.0953 C   0  0  2  0  0  0  0  0  0  0  0  0
    7.3934  -15.7471   23.1880 N   0  0  0  0  0  0  0  0  0  0  0  0
    9.7392  -15.7439   23.1378 C   0  0  0  0  0  0  0  0  0  0  0  0
   10.9274  -15.3381   23.1577 O   0  0  0  0  0  0  0  0  0  0  0  0
    9.5374  -17.1495   23.1604 N   0  0  0  0  0  0  0  0  0  0  0  0
   10.6417  -18.0366   23.2253 C   0  0  0  0  0  0  0  0  0  0  0  0
   11.0731  -18.4370   24.5844 C   0  0  0  0  0  0  0  0  0  0  0  0
   12.2447  -18.9493   24.7108 O   0  0  0  0  0  0  0  0  0  0  0  0
   10.3917  -12.3202   27.7704 O   0  0  0  0  0  0  0  0  0  0  0  0
   10.3925  -13.6938   27.8850 C   0  0  0  0  0  0  0  0  0  0  0  0
    9.2968  -14.4133   27.4749 C   0  0  0  0  0  0  0  0  0  0  0  0
    9.2677  -15.8041   27.5781 C   0  0  0  0  0  0  0  0  0  0  0  0
   10.3365  -16.5021   28.0951 C   0  0  0  0  0  0  0  0  0  0  0  0
   10.3049  -17.9744   28.2040 C   0  0  0  0  0  0  0  0  0  0  0  0
   10.9183  -18.7094   27.0606 C   0  0  2  0  0  0  0  0  0  0  0  0
   10.3290  -18.3212   25.7701 N   0  0  0  0  0  0  0  0  0  0  0  0
   10.7195  -20.1635   27.2760 C   0  0  0  0  0  0  0  0  0  0  0  0
    9.9073  -20.8595   26.4154 O   0  0  0  0  0  0  0  0  0  0  0  0
   11.4240  -15.7778   28.5008 C   0  0  0  0  0  0  0  0  0  0  0  0
   11.4651  -14.3840   28.4024 C   0  0  0  0  0  0  0  0  0  0  0  0
   11.2765  -20.7501   28.2193 O   0  0  0  0  0  0  0  0  0  0  0  0
  2  1  1  0
  3  2  1  0
  3  4  1  0
  5  4  1  0
  5  6  1  1
  7  5  1  0
  7  9  1  0
  8  7  2  0
 10 11  1  0
 10  9  1  0
 11 12  2  0
 14 13  1  0
 15 14  2  0
 16 15  1  0
 17 16  2  0
 17 23  1  0
 18 17  1  0
 19 18  1  1
 20 19  1  0
 20 11  1  0
 21 22  1  0
 21 19  1  0
 23 24  2  0
 24 14  1  0
 25 21  2  0
M  END
$$$$
