MGY.pdb
     RDKit          3D

 25 25  0  0  1  0  0  0  0  0999 V2000
    6.5604  -11.1714   24.8433 C   0  0  0  0  0  0  0  0  0  0  0  0
    5.9941  -11.7612   26.4636 S   0  0  0  0  0  0  0  0  0  0  0  0
    5.7133  -13.5741   26.2771 C   0  0  0  0  0  0  0  0  0  0  0  0
    6.5540  -13.9948   25.1305 C   0  0  0  0  0  0  0  0  0  0  0  0
    6.4464  -15.4083   24.6798 C   0  0  2  0  0  0  0  0  0  0  0  0
    6.8645  -16.2241   25.8421 N   0  0  0  0  0  0  0  0  0  0  0  0
    7.2931  -15.8194   23.5711 C   0  0  0  0  0  0  0  0  0  0  0  0
    6.8602  -16.1343   22.4352 O   0  0  0  0  0  0  0  0  0  0  0  0
    8.6992  -15.8734   23.7631 N   0  0  0  0  0  0  0  0  0  0  0  0
    9.5704  -16.0850   22.6644 C   0  0  0  0  0  0  0  0  0  0  0  0
   11.0104  -16.2001   22.9913 C   0  0  0  0  0  0  0  0  0  0  0  0
   11.8309  -16.3672   22.0167 O   0  0  0  0  0  0  0  0  0  0  0  0
    9.9648  -15.8156   30.0860 O   0  0  0  0  0  0  0  0  0  0  0  0
   10.8175  -15.7463   29.0054 C   0  0  0  0  0  0  0  0  0  0  0  0
   11.8994  -16.5895   28.9346 C   0  0  0  0  0  0  0  0  0  0  0  0
   12.7802  -16.5432   27.8540 C   0  0  0  0  0  0  0  0  0  0  0  0
   12.5946  -15.6501   26.8221 C   0  0  0  0  0  0  0  0  0  0  0  0
   13.5275  -15.6017   25.6785 C   0  0  0  0  0  0  0  0  0  0  0  0
   13.0445  -16.2702   24.4359 C   0  0  2  0  0  0  0  0  0  0  0  0
   11.5879  -16.1507   24.2708 N   0  0  0  0  0  0  0  0  0  0  0  0
   13.4177  -17.7045   24.4987 C   0  0  0  0  0  0  0  0  0  0  0  0
   14.7468  -18.0459   24.5372 O   0  0  0  0  0  0  0  0  0  0  0  0
   11.5143  -14.8141   26.9002 C   0  0  0  0  0  0  0  0  0  0  0  0
   10.6247  -14.8510   27.9777 C   0  0  0  0  0  0  0  0  0  0  0  0
   12.5457  -18.5897   24.5166 O   0  0  0  0  0  0  0  0  0  0  0  0
  2  1  1  0
  3  2  1  0
  3  4  1  0
  5  4  1  0
  5  6  1  1
  7  5  1  0
  7  9  1  0
  8  7  2  0
 10 11  1  0
 10  9  1  0
 11 12  2  0
 14 13  1  0
 15 14  2  0
 16 15  1  0
 17 16  2  0
 17 23  1  0
 18 17  1  0
 19 18  1  1
 20 19  1  0
 20 11  1  0
 21 22  1  0
 21 19  1  0
 23 24  2  0
 24 14  1  0
 25 21  2  0
M  END
$$$$
