NRH.pdb
     RDKit          3D

 30 30  0  0  1  0  0  0  0  0999 V2000
    9.8082  -21.2534   19.7674 N   0  0  0  0  0  0  0  0  0  0  0  0
    8.4771  -20.8320   19.5086 C   0  0  0  0  0  0  0  0  0  0  0  0
    7.9254  -21.2709   18.4669 O   0  0  0  0  0  0  0  0  0  0  0  0
    7.7856  -19.9157   20.4355 C   0  0  0  0  0  0  0  0  0  0  0  0
    8.7815  -19.5124   21.5280 C   0  0  2  0  0  0  0  0  0  0  0  0
    8.0332  -19.5926   22.7799 N   0  0  0  0  0  0  0  0  0  0  0  0
    9.2733  -18.1261   21.3144 C   0  0  0  0  0  0  0  0  0  0  0  0
   10.4224  -17.9366   20.8391 O   0  0  0  0  0  0  0  0  0  0  0  0
    8.6417  -12.6881   15.8705 N   0  0  0  0  0  0  0  0  0  0  0  0
    8.4486  -13.9123   16.5534 C   0  0  0  0  0  0  0  0  0  0  0  0
    8.1350  -15.0119   15.9286 N   0  0  0  0  0  0  0  0  0  0  0  0
    8.5811  -14.0341   17.9695 N   0  0  0  0  0  0  0  0  0  0  0  0
    7.7716  -13.2783   18.8644 C   0  0  0  0  0  0  0  0  0  0  0  0
    8.1276  -13.4838   20.3298 C   0  0  0  0  0  0  0  0  0  0  0  0
    7.9028  -14.9331   20.6334 C   0  0  0  0  0  0  0  0  0  0  0  0
    8.9772  -15.6178   21.4209 C   0  0  2  0  0  0  0  0  0  0  0  0
    8.4819  -17.0052   21.6323 N   0  0  0  0  0  0  0  0  0  0  0  0
    9.2257  -15.0511   22.7630 C   0  0  0  0  0  0  0  0  0  0  0  0
    8.6376  -13.9558   23.0916 O   0  0  0  0  0  0  0  0  0  0  0  0
    8.2757  -15.9004   16.4555 N   0  0  0  0  0  0  0  0  0  0  0  0
   10.0793  -15.6351   23.7439 C   0  0  2  0  0  0  0  0  0  0  0  0
    9.7303  -15.5246   25.1553 C   0  0  0  0  0  0  0  0  0  0  0  0
    8.2536  -15.7483   25.3312 C   0  0  0  0  0  0  0  0  0  0  0  0
    7.5113  -14.4988   25.5762 C   0  0  0  0  0  0  0  0  0  0  0  0
    8.0266  -13.2115   25.6254 N   0  0  0  0  0  0  0  0  0  0  0  0
    7.0371  -12.3397   25.8842 C   0  0  0  0  0  0  0  0  0  0  0  0
    5.9043  -13.0510   26.0001 N   0  0  0  0  0  0  0  0  0  0  0  0
    6.1788  -14.3466   25.8170 C   0  0  0  0  0  0  0  0  0  0  0  0
   10.5187  -16.4932   25.9427 O   0  0  0  0  0  0  0  0  0  0  0  0
   10.5274  -16.4018   27.3246 O   0  0  0  0  0  0  0  0  0  0  0  0
  2  1  1  0
  3  2  2  0
  4  2  1  0
  4  5  1  0
  5  6  1  1
  7  5  1  0
  7  8  2  0
 10 12  1  0
 10  9  1  0
 11 10  2  0
 13 14  1  0
 13 12  1  0
 14 15  1  0
 16 15  1  1
 16 17  1  0
 17  7  1  0
 18 16  1  0
 19 18  2  0
 20 18  1  0
 21 28  1  0
 21 20  1  0
 21 22  1  6
 23 22  1  0
 24 23  2  0
 25 24  1  0
 26 25  1  0
 26 27  2  0
 27 23  1  0
 28 29  1  0
 30 28  2  0
M  END
$$$$
