NRH.pdb
     RDKit          3D

 30 30  0  0  1  0  0  0  0  0999 V2000
    8.1320  -13.4598   14.5391 N   0  0  0  0  0  0  0  0  0  0  0  0
    9.4033  -14.0624   14.7322 C   0  0  0  0  0  0  0  0  0  0  0  0
   10.1854  -14.0866   13.7474 O   0  0  0  0  0  0  0  0  0  0  0  0
    9.7737  -14.6317   16.0420 C   0  0  0  0  0  0  0  0  0  0  0  0
    8.5393  -14.5686   16.9479 C   0  0  2  0  0  0  0  0  0  0  0  0
    8.3371  -13.1487   17.2249 N   0  0  0  0  0  0  0  0  0  0  0  0
    8.7713  -15.3088   18.2157 C   0  0  0  0  0  0  0  0  0  0  0  0
    9.0702  -14.6781   19.2623 O   0  0  0  0  0  0  0  0  0  0  0  0
   10.2769  -22.1066   20.9249 N   0  0  0  0  0  0  0  0  0  0  0  0
    9.0480  -22.6639   21.3510 C   0  0  0  0  0  0  0  0  0  0  0  0
    8.9924  -23.7459   22.0750 N   0  0  0  0  0  0  0  0  0  0  0  0
    7.7846  -22.0873   21.0212 N   0  0  0  0  0  0  0  0  0  0  0  0
    7.6694  -21.0277   20.0771 C   0  0  0  0  0  0  0  0  0  0  0  0
    8.5004  -19.8028   20.4311 C   0  0  0  0  0  0  0  0  0  0  0  0
    8.2773  -18.7963   19.3446 C   0  0  0  0  0  0  0  0  0  0  0  0
    8.9045  -17.4518   19.5500 C   0  0  2  0  0  0  0  0  0  0  0  0
    8.6653  -16.7118   18.2812 N   0  0  0  0  0  0  0  0  0  0  0  0
   10.3678  -17.4700   19.7566 C   0  0  0  0  0  0  0  0  0  0  0  0
   11.1391  -17.3378   18.7363 O   0  0  0  0  0  0  0  0  0  0  0  0
    8.0409  -24.1250   22.2691 N   0  0  0  0  0  0  0  0  0  0  0  0
   11.0056  -17.6215   21.0223 C   0  0  1  0  0  0  0  0  0  0  0  0
   12.2773  -16.9520   21.2691 C   0  0  0  0  0  0  0  0  0  0  0  0
   12.1117  -15.4680   21.0908 C   0  0  0  0  0  0  0  0  0  0  0  0
   12.7512  -14.9649   19.8618 C   0  0  0  0  0  0  0  0  0  0  0  0
   13.3975  -15.7098   18.8859 N   0  0  0  0  0  0  0  0  0  0  0  0
   13.8601  -14.8903   17.9263 C   0  0  0  0  0  0  0  0  0  0  0  0
   13.5188  -13.6399   18.2765 N   0  0  0  0  0  0  0  0  0  0  0  0
   12.8536  -13.6747   19.4356 C   0  0  0  0  0  0  0  0  0  0  0  0
   12.7605  -17.2803   22.6250 O   0  0  0  0  0  0  0  0  0  0  0  0
   14.0979  -17.0976   22.9348 O   0  0  0  0  0  0  0  0  0  0  0  0
  2  1  1  0
  3  2  2  0
  4  2  1  0
  4  5  1  0
  5  6  1  1
  7  5  1  0
  7  8  2  0
 10 12  1  0
 10  9  1  0
 11 10  2  0
 13 14  1  0
 13 12  1  0
 14 15  1  0
 16 15  1  6
 16 17  1  0
 17  7  1  0
 18 16  1  0
 19 18  2  0
 20 18  1  0
 21 28  1  0
 21 20  1  0
 21 22  1  1
 23 22  1  0
 24 23  2  0
 25 24  1  0
 26 25  1  0
 26 27  2  0
 27 23  1  0
 28 29  1  0
 30 28  2  0
M  END
$$$$
