NRH.pdb
     RDKit          3D

 30 30  0  0  1  0  0  0  0  0999 V2000
    9.3662  -11.4365   18.4060 N   0  0  0  0  0  0  0  0  0  0  0  0
    9.7624  -12.6350   19.0564 C   0  0  0  0  0  0  0  0  0  0  0  0
   10.8840  -13.1142   18.7491 O   0  0  0  0  0  0  0  0  0  0  0  0
    8.8804  -13.2778   20.0493 C   0  0  0  0  0  0  0  0  0  0  0  0
    8.4301  -14.6254   19.4754 C   0  0  2  0  0  0  0  0  0  0  0  0
    7.4756  -14.2949   18.4202 N   0  0  0  0  0  0  0  0  0  0  0  0
    7.7718  -15.4548   20.5185 C   0  0  0  0  0  0  0  0  0  0  0  0
    6.6102  -15.1665   20.9057 O   0  0  0  0  0  0  0  0  0  0  0  0
    9.1517  -21.6262   24.9267 N   0  0  0  0  0  0  0  0  0  0  0  0
    8.2104  -22.5067   24.3426 C   0  0  0  0  0  0  0  0  0  0  0  0
    7.7935  -23.5794   24.9538 N   0  0  0  0  0  0  0  0  0  0  0  0
    7.6508  -22.2882   23.0478 N   0  0  0  0  0  0  0  0  0  0  0  0
    8.0503  -21.1888   22.2359 C   0  0  0  0  0  0  0  0  0  0  0  0
    7.6595  -19.8342   22.8089 C   0  0  0  0  0  0  0  0  0  0  0  0
    8.0555  -18.8029   21.7974 C   0  0  0  0  0  0  0  0  0  0  0  0
    7.7690  -17.3780   22.1592 C   0  0  2  0  0  0  0  0  0  0  0  0
    8.4175  -16.5669   21.0932 N   0  0  0  0  0  0  0  0  0  0  0  0
    8.3512  -16.9296   23.4414 C   0  0  0  0  0  0  0  0  0  0  0  0
    9.6234  -16.7583   23.5179 O   0  0  0  0  0  0  0  0  0  0  0  0
    7.0478  -24.1264   24.4726 N   0  0  0  0  0  0  0  0  0  0  0  0
    7.6001  -16.6627   24.6231 C   0  0  2  0  0  0  0  0  0  0  0  0
    8.2954  -16.2503   25.8367 C   0  0  0  0  0  0  0  0  0  0  0  0
    7.3772  -15.4181   26.6888 C   0  0  0  0  0  0  0  0  0  0  0  0
    7.1537  -14.0689   26.1391 C   0  0  0  0  0  0  0  0  0  0  0  0
    7.8165  -13.4751   25.0746 N   0  0  0  0  0  0  0  0  0  0  0  0
    7.3391  -12.2335   24.8827 C   0  0  0  0  0  0  0  0  0  0  0  0
    6.3862  -12.0297   25.8062 N   0  0  0  0  0  0  0  0  0  0  0  0
    6.2678  -13.1247   26.5641 C   0  0  0  0  0  0  0  0  0  0  0  0
    8.7755  -17.4402   26.5669 O   0  0  0  0  0  0  0  0  0  0  0  0
    9.5936  -17.2774   27.6725 O   0  0  0  0  0  0  0  0  0  0  0  0
  2  1  1  0
  3  2  2  0
  4  2  1  0
  4  5  1  0
  5  6  1  6
  7  5  1  0
  7  8  2  0
 10 12  1  0
 10  9  1  0
 11 10  2  0
 13 14  1  0
 13 12  1  0
 14 15  1  0
 16 15  1  6
 16 17  1  0
 17  7  1  0
 18 16  1  0
 19 18  2  0
 20 18  1  0
 21 28  1  0
 21 20  1  0
 21 22  1  6
 23 22  1  0
 24 23  2  0
 25 24  1  0
 26 25  1  0
 26 27  2  0
 27 23  1  0
 28 29  1  0
 30 28  2  0
M  END
$$$$
