NRH.pdb
     RDKit          3D

 30 30  0  0  1  0  0  0  0  0999 V2000
    9.7611  -15.0608   12.8165 N   0  0  0  0  0  0  0  0  0  0  0  0
   10.9031  -14.9777   13.6563 C   0  0  0  0  0  0  0  0  0  0  0  0
   12.0166  -14.7982   13.0995 O   0  0  0  0  0  0  0  0  0  0  0  0
   10.7693  -15.0996   15.1207 C   0  0  0  0  0  0  0  0  0  0  0  0
    9.3057  -15.4286   15.4331 C   0  0  2  0  0  0  0  0  0  0  0  0
    8.5797  -14.1757   15.2405 N   0  0  0  0  0  0  0  0  0  0  0  0
    9.1532  -15.8974   16.8353 C   0  0  0  0  0  0  0  0  0  0  0  0
    8.8270  -15.0814   17.7354 O   0  0  0  0  0  0  0  0  0  0  0  0
    9.6326  -22.3430   20.8265 N   0  0  0  0  0  0  0  0  0  0  0  0
    8.2696  -22.6067   21.1009 C   0  0  0  0  0  0  0  0  0  0  0  0
    7.8994  -23.4932   21.9812 N   0  0  0  0  0  0  0  0  0  0  0  0
    7.2043  -21.9266   20.4376 N   0  0  0  0  0  0  0  0  0  0  0  0
    7.4433  -21.0548   19.3375 C   0  0  0  0  0  0  0  0  0  0  0  0
    8.2813  -19.8361   19.6964 C   0  0  0  0  0  0  0  0  0  0  0  0
    8.4311  -19.0268   18.4451 C   0  0  0  0  0  0  0  0  0  0  0  0
    9.1555  -17.7232   18.5837 C   0  0  2  0  0  0  0  0  0  0  0  0
    9.3656  -17.2436   17.1906 N   0  0  0  0  0  0  0  0  0  0  0  0
   10.4942  -17.8150   19.2031 C   0  0  0  0  0  0  0  0  0  0  0  0
   11.5208  -17.9549   18.4415 O   0  0  0  0  0  0  0  0  0  0  0  0
    6.8750  -23.6718   22.0562 N   0  0  0  0  0  0  0  0  0  0  0  0
   10.7441  -17.7560   20.6052 C   0  0  2  0  0  0  0  0  0  0  0  0
   11.8490  -16.9451   21.1030 C   0  0  0  0  0  0  0  0  0  0  0  0
   11.6672  -15.5178   20.6657 C   0  0  0  0  0  0  0  0  0  0  0  0
   12.6608  -15.0964   19.6619 C   0  0  0  0  0  0  0  0  0  0  0  0
   13.6681  -15.8686   19.1014 N   0  0  0  0  0  0  0  0  0  0  0  0
   14.3763  -15.1250   18.2345 C   0  0  0  0  0  0  0  0  0  0  0  0
   13.8364  -13.8958   18.2355 N   0  0  0  0  0  0  0  0  0  0  0  0
   12.8072  -13.8690   19.0883 C   0  0  0  0  0  0  0  0  0  0  0  0
   11.9246  -17.0517   22.5736 O   0  0  0  0  0  0  0  0  0  0  0  0
   13.0957  -16.6987   23.2233 O   0  0  0  0  0  0  0  0  0  0  0  0
  2  1  1  0
  3  2  2  0
  4  2  1  0
  4  5  1  0
  5  6  1  1
  7  5  1  0
  7  8  2  0
 10 12  1  0
 10  9  1  0
 11 10  2  0
 13 14  1  0
 13 12  1  0
 14 15  1  0
 16 15  1  6
 16 17  1  0
 17  7  1  0
 18 16  1  0
 19 18  2  0
 20 18  1  0
 21 28  1  0
 21 20  1  0
 21 22  1  6
 23 22  1  0
 24 23  2  0
 25 24  1  0
 26 25  1  0
 26 27  2  0
 27 23  1  0
 28 29  1  0
 30 28  2  0
M  END
$$$$
