NRH.pdb
     RDKit          3D

 30 30  0  0  1  0  0  0  0  0999 V2000
   11.2138  -21.3469   19.6755 N   0  0  0  0  0  0  0  0  0  0  0  0
   11.5274  -20.1352   19.0046 C   0  0  0  0  0  0  0  0  0  0  0  0
   12.0256  -20.2259   17.8533 O   0  0  0  0  0  0  0  0  0  0  0  0
   11.2721  -18.8324   19.6483 C   0  0  0  0  0  0  0  0  0  0  0  0
   10.8504  -19.0985   21.0972 C   0  0  2  0  0  0  0  0  0  0  0  0
    9.5198  -19.6945   21.0078 N   0  0  0  0  0  0  0  0  0  0  0  0
   10.7926  -17.8336   21.8756 C   0  0  0  0  0  0  0  0  0  0  0  0
   11.8583  -17.2441   22.1906 O   0  0  0  0  0  0  0  0  0  0  0  0
    8.6335  -13.3781   18.4414 N   0  0  0  0  0  0  0  0  0  0  0  0
    8.0876  -12.5782   19.4731 C   0  0  0  0  0  0  0  0  0  0  0  0
    8.3605  -11.3088   19.5832 N   0  0  0  0  0  0  0  0  0  0  0  0
    7.2032  -13.0984   20.4656 N   0  0  0  0  0  0  0  0  0  0  0  0
    6.9681  -14.4962   20.5995 C   0  0  0  0  0  0  0  0  0  0  0  0
    8.2146  -15.2925   20.9580 C   0  0  0  0  0  0  0  0  0  0  0  0
    8.3524  -15.2381   22.4484 C   0  0  0  0  0  0  0  0  0  0  0  0
    9.5090  -15.9889   23.0332 C   0  0  2  0  0  0  0  0  0  0  0  0
    9.5660  -17.2689   22.2760 N   0  0  0  0  0  0  0  0  0  0  0  0
    9.3630  -16.3500   24.4588 C   0  0  0  0  0  0  0  0  0  0  0  0
    8.2006  -16.6805   24.8983 O   0  0  0  0  0  0  0  0  0  0  0  0
    7.9004  -10.8026   20.3699 N   0  0  0  0  0  0  0  0  0  0  0  0
   10.4298  -16.3654   25.4041 C   0  0  1  0  0  0  0  0  0  0  0  0
   10.3742  -17.2868   26.5330 C   0  0  0  0  0  0  0  0  0  0  0  0
   10.2058  -18.6942   26.0305 C   0  0  0  0  0  0  0  0  0  0  0  0
    8.8160  -19.1746   26.1307 C   0  0  0  0  0  0  0  0  0  0  0  0
    7.7428  -18.5237   26.7221 N   0  0  0  0  0  0  0  0  0  0  0  0
    6.6420  -19.2883   26.6230 C   0  0  0  0  0  0  0  0  0  0  0  0
    6.9980  -20.4117   25.9798 N   0  0  0  0  0  0  0  0  0  0  0  0
    8.2997  -20.3526   25.6806 C   0  0  0  0  0  0  0  0  0  0  0  0
   11.5957  -17.1501   27.3507 O   0  0  0  0  0  0  0  0  0  0  0  0
   12.6303  -16.3464   26.9016 O   0  0  0  0  0  0  0  0  0  0  0  0
  2  1  1  0
  3  2  2  0
  4  2  1  0
  4  5  1  0
  5  6  1  6
  7  5  1  0
  7  8  2  0
 10 12  1  0
 10  9  1  0
 11 10  2  0
 13 14  1  0
 13 12  1  0
 14 15  1  0
 16 15  1  6
 16 17  1  0
 17  7  1  0
 18 16  1  0
 19 18  2  0
 20 18  1  0
 21 28  1  0
 21 20  1  0
 21 22  1  1
 23 22  1  0
 24 23  2  0
 25 24  1  0
 26 25  1  0
 26 27  2  0
 27 23  1  0
 28 29  1  0
 30 28  2  0
M  END
$$$$
