NRH.pdb
     RDKit          3D

 30 30  0  0  1  0  0  0  0  0999 V2000
   12.3184  -18.1885   16.2993 N   0  0  0  0  0  0  0  0  0  0  0  0
   12.9972  -17.1652   17.0125 C   0  0  0  0  0  0  0  0  0  0  0  0
   14.1152  -16.7974   16.5690 O   0  0  0  0  0  0  0  0  0  0  0  0
   12.3993  -16.5698   18.2229 C   0  0  0  0  0  0  0  0  0  0  0  0
   11.5989  -17.6632   18.9384 C   0  0  2  0  0  0  0  0  0  0  0  0
   10.3879  -17.8384   18.1405 N   0  0  0  0  0  0  0  0  0  0  0  0
   11.2446  -17.2456   20.3202 C   0  0  0  0  0  0  0  0  0  0  0  0
   12.1519  -16.9066   21.1229 O   0  0  0  0  0  0  0  0  0  0  0  0
    8.3353  -13.3670   17.7721 N   0  0  0  0  0  0  0  0  0  0  0  0
    8.3903  -12.6636   18.9987 C   0  0  0  0  0  0  0  0  0  0  0  0
    8.8218  -11.4364   19.0745 N   0  0  0  0  0  0  0  0  0  0  0  0
    7.9807  -13.2419   20.2378 N   0  0  0  0  0  0  0  0  0  0  0  0
    8.2830  -14.5933   20.5689 C   0  0  0  0  0  0  0  0  0  0  0  0
    7.7203  -15.0321   21.9132 C   0  0  0  0  0  0  0  0  0  0  0  0
    8.0881  -16.4732   22.0898 C   0  0  0  0  0  0  0  0  0  0  0  0
    9.5533  -16.7800   22.1403 C   0  0  2  0  0  0  0  0  0  0  0  0
    9.9079  -17.2180   20.7629 N   0  0  0  0  0  0  0  0  0  0  0  0
    9.9289  -17.8879   23.0435 C   0  0  0  0  0  0  0  0  0  0  0  0
    9.9074  -19.0910   22.5902 O   0  0  0  0  0  0  0  0  0  0  0  0
    8.8394  -11.0095   20.0255 N   0  0  0  0  0  0  0  0  0  0  0  0
   10.3248  -17.7261   24.4032 C   0  0  2  0  0  0  0  0  0  0  0  0
   11.1819  -18.7288   25.0246 C   0  0  0  0  0  0  0  0  0  0  0  0
   12.4256  -18.9138   24.1996 C   0  0  0  0  0  0  0  0  0  0  0  0
   13.3161  -19.9595   24.7343 C   0  0  0  0  0  0  0  0  0  0  0  0
   12.9485  -21.0938   25.4436 N   0  0  0  0  0  0  0  0  0  0  0  0
   14.0465  -21.7968   25.7697 C   0  0  0  0  0  0  0  0  0  0  0  0
   15.1031  -21.1285   25.2802 N   0  0  0  0  0  0  0  0  0  0  0  0
   14.6750  -20.0256   24.6578 C   0  0  0  0  0  0  0  0  0  0  0  0
   11.5082  -18.3214   26.4056 O   0  0  0  0  0  0  0  0  0  0  0  0
   10.9662  -17.1545   26.9181 O   0  0  0  0  0  0  0  0  0  0  0  0
  2  1  1  0
  3  2  2  0
  4  2  1  0
  4  5  1  0
  5  6  1  6
  7  5  1  0
  7  8  2  0
 10 12  1  0
 10  9  1  0
 11 10  2  0
 13 14  1  0
 13 12  1  0
 14 15  1  0
 16 15  1  6
 16 17  1  0
 17  7  1  0
 18 16  1  0
 19 18  2  0
 20 18  1  0
 21 28  1  0
 21 20  1  0
 21 22  1  6
 23 22  1  0
 24 23  2  0
 25 24  1  0
 26 25  1  0
 26 27  2  0
 27 23  1  0
 28 29  1  0
 30 28  2  0
M  END
$$$$
