NVQ.pdb
     RDKit          3D

 25 24  0  0  1  0  0  0  0  0999 V2000
    7.3784  -19.3908   15.8946 N   0  0  0  0  0  0  0  0  0  0  0  0
    7.7894  -19.7344   17.2056 C   0  0  0  0  0  0  0  0  0  0  0  0
    7.4362  -20.8346   17.6920 O   0  0  0  0  0  0  0  0  0  0  0  0
    8.6183  -18.7886   17.9549 C   0  0  0  0  0  0  0  0  0  0  0  0
    8.2935  -17.3423   17.6318 C   0  0  2  0  0  0  0  0  0  0  0  0
    8.7384  -16.9973   16.2964 N   0  0  0  0  0  0  0  0  0  0  0  0
    8.9866  -16.5199   18.6597 C   0  0  0  0  0  0  0  0  0  0  0  0
   10.2433  -16.4998   18.6385 O   0  0  0  0  0  0  0  0  0  0  0  0
    7.5298  -12.9984   19.9474 C   0  0  0  0  0  0  0  0  0  0  0  0
    7.9205  -13.9179   21.0423 C   0  0  1  0  0  0  0  0  0  0  0  0
    6.7368  -14.6313   21.6579 C   0  0  0  0  0  0  0  0  0  0  0  0
    8.9929  -14.8947   20.6102 C   0  0  2  0  0  0  0  0  0  0  0  0
    8.3199  -15.7708   19.6445 N   0  0  0  0  0  0  0  0  0  0  0  0
    9.5425  -15.6955   21.7246 C   0  0  0  0  0  0  0  0  0  0  0  0
    8.9415  -16.7394   22.1569 O   0  0  0  0  0  0  0  0  0  0  0  0
   15.7709  -16.5089   24.1788 N   0  0  0  0  0  0  0  0  0  0  0  0
   14.6012  -17.3207   24.3964 C   0  0  0  0  0  0  0  0  0  0  0  0
   14.6711  -18.5608   24.2164 O   0  0  0  0  0  0  0  0  0  0  0  0
   13.3172  -16.7212   24.8284 C   0  0  0  0  0  0  0  0  0  0  0  0
   12.7477  -15.8839   23.7167 C   0  0  0  0  0  0  0  0  0  0  0  0
   11.2935  -16.2413   23.4380 C   0  0  2  0  0  0  0  0  0  0  0  0
   10.7495  -15.3853   22.3868 N   0  0  0  0  0  0  0  0  0  0  0  0
   10.4970  -16.1034   24.6849 C   0  0  0  0  0  0  0  0  0  0  0  0
   10.5885  -16.8871   25.6590 O   0  0  0  0  0  0  0  0  0  0  0  0
    9.5876  -15.0507   24.8057 O   0  0  0  0  0  0  0  0  0  0  0  0
  2  4  1  0
  2  1  1  0
  3  2  2  0
  5  6  1  6
  5  7  1  0
  5  4  1  0
  7  8  2  0
 10  9  1  6
 10 12  1  0
 11 10  1  0
 12 14  1  0
 12 13  1  6
 13  7  1  0
 14 22  1  0
 14 15  2  0
 16 17  1  0
 17 18  2  0
 19 17  1  0
 19 20  1  0
 21 20  1  1
 21 23  1  0
 22 21  1  0
 23 24  2  0
 23 25  1  0
M  END
$$$$
