NVQ.pdb
     RDKit          3D

 25 24  0  0  1  0  0  0  0  0999 V2000
    7.5035  -21.0872   16.7465 N   0  0  0  0  0  0  0  0  0  0  0  0
    6.9296  -19.8339   17.0714 C   0  0  0  0  0  0  0  0  0  0  0  0
    5.7691  -19.5687   16.6781 O   0  0  0  0  0  0  0  0  0  0  0  0
    7.7143  -18.8828   17.8607 C   0  0  0  0  0  0  0  0  0  0  0  0
    7.6993  -17.4836   17.2747 C   0  0  2  0  0  0  0  0  0  0  0  0
    8.3271  -17.4619   15.9687 N   0  0  0  0  0  0  0  0  0  0  0  0
    8.4324  -16.6200   18.2392 C   0  0  0  0  0  0  0  0  0  0  0  0
    9.6882  -16.6757   18.2321 O   0  0  0  0  0  0  0  0  0  0  0  0
    7.9044  -13.2193   21.8281 C   0  0  0  0  0  0  0  0  0  0  0  0
    7.4732  -13.9261   20.5987 C   0  0  1  0  0  0  0  0  0  0  0  0
    7.0356  -12.9797   19.5024 C   0  0  0  0  0  0  0  0  0  0  0  0
    8.5212  -14.9000   20.1045 C   0  0  2  0  0  0  0  0  0  0  0  0
    7.8043  -15.7530   19.1497 N   0  0  0  0  0  0  0  0  0  0  0  0
    9.1103  -15.7257   21.1797 C   0  0  0  0  0  0  0  0  0  0  0  0
    8.4554  -16.6821   21.7223 O   0  0  0  0  0  0  0  0  0  0  0  0
   15.2945  -16.1096   24.4913 N   0  0  0  0  0  0  0  0  0  0  0  0
   14.5956  -17.0872   23.6971 C   0  0  0  0  0  0  0  0  0  0  0  0
   15.2503  -17.8555   22.9514 O   0  0  0  0  0  0  0  0  0  0  0  0
   13.1195  -17.2037   23.7429 C   0  0  0  0  0  0  0  0  0  0  0  0
   12.5075  -16.3288   22.6839 C   0  0  0  0  0  0  0  0  0  0  0  0
   10.9872  -16.4212   22.6941 C   0  0  2  0  0  0  0  0  0  0  0  0
   10.4148  -15.5354   21.6835 N   0  0  0  0  0  0  0  0  0  0  0  0
   10.4741  -16.0700   24.0439 C   0  0  0  0  0  0  0  0  0  0  0  0
   10.1677  -14.9047   24.3901 O   0  0  0  0  0  0  0  0  0  0  0  0
   10.3141  -17.0746   25.0004 O   0  0  0  0  0  0  0  0  0  0  0  0
  2  4  1  0
  2  1  1  0
  3  2  2  0
  5  6  1  6
  5  7  1  0
  5  4  1  0
  7  8  2  0
 10  9  1  1
 10 12  1  0
 11 10  1  0
 12 14  1  0
 12 13  1  6
 13  7  1  0
 14 22  1  0
 14 15  2  0
 16 17  1  0
 17 18  2  0
 19 17  1  0
 19 20  1  0
 21 20  1  1
 21 23  1  0
 22 21  1  0
 23 24  2  0
 23 25  1  0
M  END
$$$$
