NVQ.pdb
     RDKit          3D

 25 24  0  0  1  0  0  0  0  0999 V2000
    6.2032  -19.1899   16.5276 N   0  0  0  0  0  0  0  0  0  0  0  0
    7.3436  -19.6632   17.2214 C   0  0  0  0  0  0  0  0  0  0  0  0
    7.4923  -20.8965   17.3905 O   0  0  0  0  0  0  0  0  0  0  0  0
    8.3176  -18.6916   17.7219 C   0  0  0  0  0  0  0  0  0  0  0  0
    7.8943  -17.2565   17.4711 C   0  0  2  0  0  0  0  0  0  0  0  0
    8.1091  -16.8874   16.0862 N   0  0  0  0  0  0  0  0  0  0  0  0
    8.7119  -16.4149   18.3859 C   0  0  0  0  0  0  0  0  0  0  0  0
    9.9398  -16.3096   18.1379 O   0  0  0  0  0  0  0  0  0  0  0  0
    7.4569  -12.9958   19.9181 C   0  0  0  0  0  0  0  0  0  0  0  0
    7.9955  -13.8997   20.9620 C   0  0  1  0  0  0  0  0  0  0  0  0
    6.9083  -14.5930   21.7535 C   0  0  0  0  0  0  0  0  0  0  0  0
    8.9894  -14.8923   20.3984 C   0  0  2  0  0  0  0  0  0  0  0  0
    8.1921  -15.7372   19.5020 N   0  0  0  0  0  0  0  0  0  0  0  0
    9.6413  -15.7234   21.4324 C   0  0  0  0  0  0  0  0  0  0  0  0
    9.1726  -16.8674   21.7633 O   0  0  0  0  0  0  0  0  0  0  0  0
   15.5267  -18.3314   24.1245 N   0  0  0  0  0  0  0  0  0  0  0  0
   14.9056  -17.1082   23.6855 C   0  0  0  0  0  0  0  0  0  0  0  0
   15.4502  -16.4329   22.7786 O   0  0  0  0  0  0  0  0  0  0  0  0
   13.6367  -16.6314   24.2830 C   0  0  0  0  0  0  0  0  0  0  0  0
   12.9175  -15.7422   23.3065 C   0  0  0  0  0  0  0  0  0  0  0  0
   11.5068  -16.2449   23.0286 C   0  0  2  0  0  0  0  0  0  0  0  0
   10.8098  -15.3358   22.1223 N   0  0  0  0  0  0  0  0  0  0  0  0
   10.7618  -16.3763   24.3077 C   0  0  0  0  0  0  0  0  0  0  0  0
    9.9281  -15.5342   24.7167 O   0  0  0  0  0  0  0  0  0  0  0  0
   10.9831  -17.4904   25.1198 O   0  0  0  0  0  0  0  0  0  0  0  0
  2  4  1  0
  2  1  1  0
  3  2  2  0
  5  6  1  6
  5  7  1  0
  5  4  1  0
  7  8  2  0
 10  9  1  6
 10 12  1  0
 11 10  1  0
 12 14  1  0
 12 13  1  6
 13  7  1  0
 14 22  1  0
 14 15  2  0
 16 17  1  0
 17 18  2  0
 19 17  1  0
 19 20  1  0
 21 20  1  1
 21 23  1  0
 22 21  1  0
 23 24  2  0
 23 25  1  0
M  END
$$$$
