NVQ.pdb
     RDKit          3D

 25 24  0  0  1  0  0  0  0  0999 V2000
    7.3477  -12.6483   18.5888 N   0  0  0  0  0  0  0  0  0  0  0  0
    7.9685  -13.7079   19.2942 C   0  0  0  0  0  0  0  0  0  0  0  0
    8.0976  -14.8241   18.7379 O   0  0  0  0  0  0  0  0  0  0  0  0
    8.4423  -13.4647   20.6578 C   0  0  0  0  0  0  0  0  0  0  0  0
    7.9078  -14.4779   21.6524 C   0  0  2  0  0  0  0  0  0  0  0  0
    6.4589  -14.4661   21.6762 N   0  0  0  0  0  0  0  0  0  0  0  0
    8.4715  -14.0997   22.9763 C   0  0  0  0  0  0  0  0  0  0  0  0
    9.7117  -13.9075   23.0472 O   0  0  0  0  0  0  0  0  0  0  0  0
    7.0232  -11.5500   25.4033 C   0  0  0  0  0  0  0  0  0  0  0  0
    7.2464  -12.8089   26.1530 C   0  0  1  0  0  0  0  0  0  0  0  0
    5.9613  -13.5524   26.4442 C   0  0  0  0  0  0  0  0  0  0  0  0
    8.2625  -13.7028   25.4752 C   0  0  2  0  0  0  0  0  0  0  0  0
    7.7010  -13.9468   24.1417 N   0  0  0  0  0  0  0  0  0  0  0  0
    8.4783  -14.9856   26.1772 C   0  0  0  0  0  0  0  0  0  0  0  0
    7.5559  -15.8696   26.2520 O   0  0  0  0  0  0  0  0  0  0  0  0
   12.4671  -19.2800   25.6011 N   0  0  0  0  0  0  0  0  0  0  0  0
   12.6332  -17.8703   25.3567 C   0  0  0  0  0  0  0  0  0  0  0  0
   13.5395  -17.4835   24.5794 O   0  0  0  0  0  0  0  0  0  0  0  0
   11.7556  -16.8678   26.0043 C   0  0  0  0  0  0  0  0  0  0  0  0
   10.7119  -17.5654   26.8323 C   0  0  0  0  0  0  0  0  0  0  0  0
    9.8328  -16.5689   27.5767 C   0  0  2  0  0  0  0  0  0  0  0  0
    9.6923  -15.3362   26.8058 N   0  0  0  0  0  0  0  0  0  0  0  0
   10.4206  -16.2832   28.9114 C   0  0  0  0  0  0  0  0  0  0  0  0
   10.6817  -17.1679   29.7603 O   0  0  0  0  0  0  0  0  0  0  0  0
   10.7085  -14.9638   29.2666 O   0  0  0  0  0  0  0  0  0  0  0  0
  2  4  1  0
  2  1  1  0
  3  2  2  0
  5  6  1  1
  5  7  1  0
  5  4  1  0
  7  8  2  0
 10  9  1  6
 10 12  1  0
 11 10  1  0
 12 14  1  0
 12 13  1  6
 13  7  1  0
 14 22  1  0
 14 15  2  0
 16 17  1  0
 17 18  2  0
 19 17  1  0
 19 20  1  0
 21 20  1  6
 21 23  1  0
 22 21  1  0
 23 24  2  0
 23 25  1  0
M  END
$$$$
