NVQ.pdb
     RDKit          3D

 25 24  0  0  1  0  0  0  0  0999 V2000
    7.5472  -17.4703   19.5778 N   0  0  0  0  0  0  0  0  0  0  0  0
    8.5517  -16.4839   19.4243 C   0  0  0  0  0  0  0  0  0  0  0  0
    9.1511  -16.3824   18.3278 O   0  0  0  0  0  0  0  0  0  0  0  0
    8.8596  -15.6093   20.5572 C   0  0  0  0  0  0  0  0  0  0  0  0
    8.1463  -16.0268   21.8294 C   0  0  2  0  0  0  0  0  0  0  0  0
    6.7112  -15.8812   21.6903 N   0  0  0  0  0  0  0  0  0  0  0  0
    8.6744  -15.1509   22.9098 C   0  0  0  0  0  0  0  0  0  0  0  0
    9.9227  -15.0611   23.0281 O   0  0  0  0  0  0  0  0  0  0  0  0
    5.9546  -13.5416   25.7024 C   0  0  0  0  0  0  0  0  0  0  0  0
    7.2477  -12.8628   25.4498 C   0  0  1  0  0  0  0  0  0  0  0  0
    7.6820  -11.9834   26.6018 C   0  0  0  0  0  0  0  0  0  0  0  0
    8.3359  -13.8387   25.0567 C   0  0  2  0  0  0  0  0  0  0  0  0
    7.8622  -14.4247   23.7977 N   0  0  0  0  0  0  0  0  0  0  0  0
    8.5618  -14.9023   26.0581 C   0  0  0  0  0  0  0  0  0  0  0  0
    7.6673  -15.7817   26.3119 O   0  0  0  0  0  0  0  0  0  0  0  0
   12.8370  -18.8364   26.3210 N   0  0  0  0  0  0  0  0  0  0  0  0
   13.1700  -17.4351   26.3358 C   0  0  0  0  0  0  0  0  0  0  0  0
   14.2755  -17.0607   25.8744 O   0  0  0  0  0  0  0  0  0  0  0  0
   12.2336  -16.4269   26.8847 C   0  0  0  0  0  0  0  0  0  0  0  0
   10.9654  -17.1009   27.3308 C   0  0  0  0  0  0  0  0  0  0  0  0
    9.9294  -16.0867   27.7979 C   0  0  2  0  0  0  0  0  0  0  0  0
    9.7561  -15.0361   26.7980 N   0  0  0  0  0  0  0  0  0  0  0  0
   10.3517  -15.5029   29.0975 C   0  0  0  0  0  0  0  0  0  0  0  0
   10.5445  -14.2777   29.2799 O   0  0  0  0  0  0  0  0  0  0  0  0
   10.5526  -16.3429   30.1947 O   0  0  0  0  0  0  0  0  0  0  0  0
  2  4  1  0
  2  1  1  0
  3  2  2  0
  5  6  1  6
  5  7  1  0
  5  4  1  0
  7  8  2  0
 10  9  1  1
 10 12  1  0
 11 10  1  0
 12 14  1  0
 12 13  1  6
 13  7  1  0
 14 22  1  0
 14 15  2  0
 16 17  1  0
 17 18  2  0
 19 17  1  0
 19 20  1  0
 21 20  1  6
 21 23  1  0
 22 21  1  0
 23 24  2  0
 23 25  1  0
M  END
$$$$
