NVQ.pdb
     RDKit          3D

 25 24  0  0  1  0  0  0  0  0999 V2000
    7.2525  -17.2568   20.0086 N   0  0  0  0  0  0  0  0  0  0  0  0
    7.1749  -17.8967   21.2697 C   0  0  0  0  0  0  0  0  0  0  0  0
    6.9668  -19.1320   21.3204 O   0  0  0  0  0  0  0  0  0  0  0  0
    7.3412  -17.0907   22.4804 C   0  0  0  0  0  0  0  0  0  0  0  0
    7.3966  -15.6028   22.1897 C   0  0  2  0  0  0  0  0  0  0  0  0
    8.0694  -15.3452   20.9323 N   0  0  0  0  0  0  0  0  0  0  0  0
    8.1267  -14.9827   23.3281 C   0  0  0  0  0  0  0  0  0  0  0  0
    9.3811  -14.9385   23.2601 O   0  0  0  0  0  0  0  0  0  0  0  0
    6.8440  -11.7427   25.0789 C   0  0  0  0  0  0  0  0  0  0  0  0
    7.2002  -12.7677   26.0885 C   0  0  1  0  0  0  0  0  0  0  0  0
    5.9882  -13.4587   26.6738 C   0  0  0  0  0  0  0  0  0  0  0  0
    8.2044  -13.7670   25.5556 C   0  0  2  0  0  0  0  0  0  0  0  0
    7.4971  -14.4482   24.4653 N   0  0  0  0  0  0  0  0  0  0  0  0
    8.6475  -14.7510   26.5658 C   0  0  0  0  0  0  0  0  0  0  0  0
    7.8553  -15.6502   27.0149 O   0  0  0  0  0  0  0  0  0  0  0  0
   13.1977  -18.5803   27.5554 N   0  0  0  0  0  0  0  0  0  0  0  0
   12.6804  -17.9475   26.3695 C   0  0  0  0  0  0  0  0  0  0  0  0
   12.9130  -18.4599   25.2476 O   0  0  0  0  0  0  0  0  0  0  0  0
   11.8792  -16.7039   26.4474 C   0  0  0  0  0  0  0  0  0  0  0  0
   11.7193  -16.2915   27.8847 C   0  0  0  0  0  0  0  0  0  0  0  0
   10.3298  -15.7276   28.1519 C   0  0  2  0  0  0  0  0  0  0  0  0
    9.9517  -14.7829   27.1040 N   0  0  0  0  0  0  0  0  0  0  0  0
   10.3064  -15.0653   29.4820 C   0  0  0  0  0  0  0  0  0  0  0  0
   10.1492  -13.8319   29.6423 O   0  0  0  0  0  0  0  0  0  0  0  0
   10.4659  -15.8357   30.6356 O   0  0  0  0  0  0  0  0  0  0  0  0
  2  4  1  0
  2  1  1  0
  3  2  2  0
  5  6  1  6
  5  7  1  0
  5  4  1  0
  7  8  2  0
 10  9  1  6
 10 12  1  0
 11 10  1  0
 12 14  1  0
 12 13  1  6
 13  7  1  0
 14 22  1  0
 14 15  2  0
 16 17  1  0
 17 18  2  0
 19 17  1  0
 19 20  1  0
 21 20  1  6
 21 23  1  0
 22 21  1  0
 23 24  2  0
 23 25  1  0
M  END
$$$$
