NVQ.pdb
     RDKit          3D

 25 24  0  0  1  0  0  0  0  0999 V2000
    5.0808  -18.5558   22.1212 N   0  0  0  0  0  0  0  0  0  0  0  0
    5.7177  -17.3702   21.6803 C   0  0  0  0  0  0  0  0  0  0  0  0
    5.4150  -16.8888   20.5629 O   0  0  0  0  0  0  0  0  0  0  0  0
    6.7148  -16.7412   22.5483 C   0  0  0  0  0  0  0  0  0  0  0  0
    6.8490  -15.2505   22.3007 C   0  0  2  0  0  0  0  0  0  0  0  0
    7.3594  -14.9902   20.9696 N   0  0  0  0  0  0  0  0  0  0  0  0
    7.7774  -14.7368   23.3436 C   0  0  0  0  0  0  0  0  0  0  0  0
    9.0080  -14.9278   23.1722 O   0  0  0  0  0  0  0  0  0  0  0  0
    7.1555  -11.3825   25.4476 C   0  0  0  0  0  0  0  0  0  0  0  0
    7.4714  -12.5489   26.3059 C   0  0  1  0  0  0  0  0  0  0  0  0
    6.2449  -13.1385   26.9669 C   0  0  0  0  0  0  0  0  0  0  0  0
    8.2624  -13.6044   25.5635 C   0  0  2  0  0  0  0  0  0  0  0  0
    7.3585  -14.0559   24.4995 N   0  0  0  0  0  0  0  0  0  0  0  0
    8.6582  -14.7481   26.4124 C   0  0  0  0  0  0  0  0  0  0  0  0
    7.7975  -15.5963   26.8341 O   0  0  0  0  0  0  0  0  0  0  0  0
   13.0772  -14.9695   25.5596 N   0  0  0  0  0  0  0  0  0  0  0  0
   12.4676  -16.0986   24.9053 C   0  0  0  0  0  0  0  0  0  0  0  0
   12.6324  -16.2571   23.6713 O   0  0  0  0  0  0  0  0  0  0  0  0
   11.6500  -17.0767   25.6599 C   0  0  0  0  0  0  0  0  0  0  0  0
   11.6811  -16.7418   27.1256 C   0  0  0  0  0  0  0  0  0  0  0  0
   10.3473  -16.1773   27.5972 C   0  0  2  0  0  0  0  0  0  0  0  0
    9.9874  -14.9967   26.8161 N   0  0  0  0  0  0  0  0  0  0  0  0
   10.4302  -15.8393   29.0420 C   0  0  0  0  0  0  0  0  0  0  0  0
   10.2514  -14.6853   29.4977 O   0  0  0  0  0  0  0  0  0  0  0  0
   10.7222  -16.8442   29.9665 O   0  0  0  0  0  0  0  0  0  0  0  0
  2  4  1  0
  2  1  1  0
  3  2  2  0
  5  6  1  6
  5  7  1  0
  5  4  1  0
  7  8  2  0
 10  9  1  6
 10 12  1  0
 11 10  1  0
 12 14  1  0
 12 13  1  6
 13  7  1  0
 14 22  1  0
 14 15  2  0
 16 17  1  0
 17 18  2  0
 19 17  1  0
 19 20  1  0
 21 20  1  6
 21 23  1  0
 22 21  1  0
 23 24  2  0
 23 25  1  0
M  END
$$$$
