NVQ.pdb
     RDKit          3D

 25 24  0  0  1  0  0  0  0  0999 V2000
    6.2456  -20.5106   17.0208 N   0  0  0  0  0  0  0  0  0  0  0  0
    6.3304  -19.0969   17.0272 C   0  0  0  0  0  0  0  0  0  0  0  0
    5.3808  -18.4220   16.5638 O   0  0  0  0  0  0  0  0  0  0  0  0
    7.5309  -18.4653   17.5778 C   0  0  0  0  0  0  0  0  0  0  0  0
    7.6670  -17.0109   17.1684 C   0  0  2  0  0  0  0  0  0  0  0  0
    8.2646  -16.8966   15.8531 N   0  0  0  0  0  0  0  0  0  0  0  0
    8.5169  -16.3642   18.2042 C   0  0  0  0  0  0  0  0  0  0  0  0
    9.7560  -16.5690   18.1511 O   0  0  0  0  0  0  0  0  0  0  0  0
    7.8106  -12.7442   19.5412 C   0  0  0  0  0  0  0  0  0  0  0  0
    8.0459  -13.6790   20.6672 C   0  0  1  0  0  0  0  0  0  0  0  0
    6.7683  -14.0808   21.3710 C   0  0  0  0  0  0  0  0  0  0  0  0
    8.8497  -14.8895   20.2439 C   0  0  2  0  0  0  0  0  0  0  0  0
    8.0156  -15.5443   19.2297 N   0  0  0  0  0  0  0  0  0  0  0  0
    9.1300  -15.8264   21.3524 C   0  0  0  0  0  0  0  0  0  0  0  0
    8.2208  -16.5932   21.8249 O   0  0  0  0  0  0  0  0  0  0  0  0
   14.3730  -18.8143   22.5210 N   0  0  0  0  0  0  0  0  0  0  0  0
   13.4164  -18.8541   21.4449 C   0  0  0  0  0  0  0  0  0  0  0  0
   13.7183  -19.4363   20.3749 O   0  0  0  0  0  0  0  0  0  0  0  0
   12.0833  -18.2214   21.5759 C   0  0  0  0  0  0  0  0  0  0  0  0
   11.9568  -17.5783   22.9294 C   0  0  0  0  0  0  0  0  0  0  0  0
   10.6204  -16.8642   23.0849 C   0  0  2  0  0  0  0  0  0  0  0  0
   10.3948  -15.9533   21.9655 N   0  0  0  0  0  0  0  0  0  0  0  0
   10.5969  -16.1219   24.3720 C   0  0  0  0  0  0  0  0  0  0  0  0
   10.5521  -14.8717   24.4533 O   0  0  0  0  0  0  0  0  0  0  0  0
   10.6256  -16.8313   25.5743 O   0  0  0  0  0  0  0  0  0  0  0  0
  2  4  1  0
  2  1  1  0
  3  2  2  0
  5  6  1  6
  5  7  1  0
  5  4  1  0
  7  8  2  0
 10  9  1  6
 10 12  1  0
 11 10  1  0
 12 14  1  0
 12 13  1  6
 13  7  1  0
 14 22  1  0
 14 15  2  0
 16 17  1  0
 17 18  2  0
 19 17  1  0
 19 20  1  0
 21 20  1  6
 21 23  1  0
 22 21  1  0
 23 24  2  0
 23 25  1  0
M  END
$$$$
