KPA.pdb
     RDKit          3D

 22 22  0  0  1  0  0  0  0  0999 V2000
   19.2250  -12.8321  -16.7841 N   0  0  0  0  0  0  0  0  0  0  0  0
   20.1865  -11.8628  -17.1517 C   0  0  1  0  0  0  0  0  0  0  0  0
   19.8761  -11.3373  -18.5312 C   0  0  0  0  0  0  0  0  0  0  0  0
   20.3724  -12.1320  -19.6682 C   0  0  0  0  0  0  0  0  0  0  0  0
   19.5655  -13.2919  -20.1172 C   0  0  0  0  0  0  0  0  0  0  0  0
   20.1289  -13.9918  -21.3335 C   0  0  0  0  0  0  0  0  0  0  0  0
   19.2909  -15.1442  -21.6739 N   0  0  0  0  0  0  0  0  0  0  0  0
   20.3323  -10.6849  -16.2619 C   0  0  0  0  0  0  0  0  0  0  0  0
   19.4182   -9.7812  -16.4105 O   0  0  0  0  0  0  0  0  0  0  0  0
   21.3145  -10.4313  -15.2986 N   0  0  0  0  0  0  0  0  0  0  0  0
   21.8836  -11.4346  -14.3713 C   0  0  0  0  0  0  0  0  0  0  0  0
   23.3884  -11.1423  -14.5782 C   0  0  0  0  0  0  0  0  0  0  0  0
   23.4582   -9.7494  -15.1858 C   0  0  0  0  0  0  0  0  0  0  0  0
   22.0437   -9.2743  -14.8646 C   0  0  1  0  0  0  0  0  0  0  0  0
   21.7319   -7.9680  -15.3246 C   0  0  0  0  0  0  0  0  0  0  0  0
   21.8470   -7.5489  -16.4800 O   0  0  0  0  0  0  0  0  0  0  0  0
   19.6465   -5.1608  -14.0611 C   0  0  0  0  0  0  0  0  0  0  0  0
   20.9247   -5.6549  -14.7283 C   0  0  2  0  0  0  0  0  0  0  0  0
   21.2280   -7.0138  -14.3653 N   0  0  0  0  0  0  0  0  0  0  0  0
   22.0134   -4.7734  -14.2415 C   0  0  0  0  0  0  0  0  0  0  0  0
   23.0353   -5.2401  -13.4201 O   0  0  0  0  0  0  0  0  0  0  0  0
   21.9949   -3.5664  -14.5938 O   0  0  0  0  0  0  0  0  0  0  0  0
  2  1  1  1
  3  2  1  0
  4  3  1  0
  5  4  1  0
  6  5  1  0
  7  6  1  0
  8  2  1  0
  8 10  1  0
  9  8  2  0
 10 11  1  0
 11 12  1  0
 13 14  1  0
 13 12  1  0
 14 10  1  0
 15 19  1  0
 14 15  1  6
 16 15  2  0
 18 17  1  1
 18 19  1  0
 20 21  1  0
 20 18  1  0
 22 20  2  0
M  END
$$$$
