KPA.pdb
     RDKit          3D

 22 22  0  0  1  0  0  0  0  0999 V2000
   15.4994  -12.2191  -13.2265 N   0  0  0  0  0  0  0  0  0  0  0  0
   15.6032  -10.8094  -13.2595 C   0  0  1  0  0  0  0  0  0  0  0  0
   14.3715  -10.2245  -13.9048 C   0  0  0  0  0  0  0  0  0  0  0  0
   13.9605  -10.8078  -15.1939 C   0  0  0  0  0  0  0  0  0  0  0  0
   12.8177  -10.1911  -15.9089 C   0  0  0  0  0  0  0  0  0  0  0  0
   12.4589  -10.8898  -17.2011 C   0  0  0  0  0  0  0  0  0  0  0  0
   11.2556  -10.2820  -17.7748 N   0  0  0  0  0  0  0  0  0  0  0  0
   15.7835  -10.1150  -11.9612 C   0  0  0  0  0  0  0  0  0  0  0  0
   14.8348  -10.3185  -11.1051 O   0  0  0  0  0  0  0  0  0  0  0  0
   16.8309   -9.2832  -11.5509 N   0  0  0  0  0  0  0  0  0  0  0  0
   18.2711   -9.5557  -11.7554 C   0  0  0  0  0  0  0  0  0  0  0  0
   18.7050   -8.1893  -12.3361 C   0  0  0  0  0  0  0  0  0  0  0  0
   17.6134   -7.2071  -11.9392 C   0  0  0  0  0  0  0  0  0  0  0  0
   16.9280   -8.0329  -10.8538 C   0  0  1  0  0  0  0  0  0  0  0  0
   15.8013   -7.4136  -10.2519 C   0  0  0  0  0  0  0  0  0  0  0  0
   14.8057   -6.9742  -10.8348 O   0  0  0  0  0  0  0  0  0  0  0  0
   14.8459   -6.7204   -6.6182 C   0  0  0  0  0  0  0  0  0  0  0  0
   14.7693   -6.5289   -8.1283 C   0  0  2  0  0  0  0  0  0  0  0  0
   15.7933   -7.2704   -8.8152 N   0  0  0  0  0  0  0  0  0  0  0  0
   14.9783   -5.0813   -8.3733 C   0  0  0  0  0  0  0  0  0  0  0  0
   13.9861   -4.1362   -8.1304 O   0  0  0  0  0  0  0  0  0  0  0  0
   16.0971   -4.7152   -8.8158 O   0  0  0  0  0  0  0  0  0  0  0  0
  2  1  1  1
  3  2  1  0
  4  3  1  0
  5  4  1  0
  6  5  1  0
  7  6  1  0
  8  2  1  0
  8 10  1  0
  9  8  2  0
 10 11  1  0
 11 12  1  0
 13 14  1  0
 13 12  1  0
 14 10  1  0
 15 19  1  0
 14 15  1  6
 16 15  2  0
 18 17  1  1
 18 19  1  0
 20 21  1  0
 20 18  1  0
 22 20  2  0
M  END
$$$$
