KPA.pdb
     RDKit          3D

 22 22  0  0  1  0  0  0  0  0999 V2000
   20.8287  -20.9657  -11.8974 N   0  0  0  0  0  0  0  0  0  0  0  0
   21.8196  -21.1243  -12.8935 C   0  0  1  0  0  0  0  0  0  0  0  0
   21.2080  -20.9139  -14.2563 C   0  0  0  0  0  0  0  0  0  0  0  0
   20.5660  -22.0840  -14.8803 C   0  0  0  0  0  0  0  0  0  0  0  0
   19.2039  -22.4583  -14.4305 C   0  0  0  0  0  0  0  0  0  0  0  0
   18.6379  -23.6666  -15.1421 C   0  0  0  0  0  0  0  0  0  0  0  0
   17.3254  -24.0002  -14.5832 N   0  0  0  0  0  0  0  0  0  0  0  0
   23.0079  -20.2403  -12.8105 C   0  0  0  0  0  0  0  0  0  0  0  0
   22.7388  -18.9746  -12.8114 O   0  0  0  0  0  0  0  0  0  0  0  0
   24.3590  -20.5943  -12.7318 N   0  0  0  0  0  0  0  0  0  0  0  0
   24.9582  -21.4596  -11.6914 C   0  0  0  0  0  0  0  0  0  0  0  0
   25.7597  -22.4234  -12.5976 C   0  0  0  0  0  0  0  0  0  0  0  0
   25.9035  -21.7097  -13.9333 C   0  0  0  0  0  0  0  0  0  0  0  0
   25.5384  -20.2949  -13.4921 C   0  0  1  0  0  0  0  0  0  0  0  0
   25.5437  -19.3244  -14.5281 C   0  0  0  0  0  0  0  0  0  0  0  0
   24.9502  -19.3993  -15.6079 O   0  0  0  0  0  0  0  0  0  0  0  0
   26.9685  -15.7912  -14.7440 C   0  0  0  0  0  0  0  0  0  0  0  0
   26.3615  -17.0704  -15.3080 C   0  0  2  0  0  0  0  0  0  0  0  0
   26.3125  -18.1194  -14.3244 N   0  0  0  0  0  0  0  0  0  0  0  0
   27.2478  -17.4947  -16.4187 C   0  0  0  0  0  0  0  0  0  0  0  0
   28.0525  -18.6270  -16.3354 O   0  0  0  0  0  0  0  0  0  0  0  0
   27.2584  -16.7943  -17.4631 O   0  0  0  0  0  0  0  0  0  0  0  0
  2  1  1  1
  3  2  1  0
  4  3  1  0
  5  4  1  0
  6  5  1  0
  7  6  1  0
  8  2  1  0
  8 10  1  0
  9  8  2  0
 10 11  1  0
 11 12  1  0
 13 14  1  0
 13 12  1  0
 14 10  1  0
 15 19  1  0
 14 15  1  6
 16 15  2  0
 18 17  1  1
 18 19  1  0
 20 21  1  0
 20 18  1  0
 22 20  2  0
M  END
$$$$
