KPA.pdb
     RDKit          3D

 22 22  0  0  1  0  0  0  0  0999 V2000
   33.3736  -28.5368  -19.9127 N   0  0  0  0  0  0  0  0  0  0  0  0
   32.1129  -28.9985  -20.3563 C   0  0  1  0  0  0  0  0  0  0  0  0
   32.3031  -30.0462  -21.4249 C   0  0  0  0  0  0  0  0  0  0  0  0
   33.2402  -31.1408  -21.1178 C   0  0  0  0  0  0  0  0  0  0  0  0
   33.4515  -32.1902  -22.1435 C   0  0  0  0  0  0  0  0  0  0  0  0
   34.3639  -33.3084  -21.6921 C   0  0  0  0  0  0  0  0  0  0  0  0
   34.5049  -34.2958  -22.7653 N   0  0  0  0  0  0  0  0  0  0  0  0
   31.2093  -29.5809  -19.3342 C   0  0  0  0  0  0  0  0  0  0  0  0
   31.7263  -30.5468  -18.6456 O   0  0  0  0  0  0  0  0  0  0  0  0
   29.8923  -29.2247  -19.0246 N   0  0  0  0  0  0  0  0  0  0  0  0
   29.3124  -27.8719  -19.1793 C   0  0  0  0  0  0  0  0  0  0  0  0
   28.0094  -28.2415  -19.9265 C   0  0  0  0  0  0  0  0  0  0  0  0
   27.7928  -29.7250  -19.6687 C   0  0  0  0  0  0  0  0  0  0  0  0
   28.7484  -29.9081  -18.4926 C   0  0  1  0  0  0  0  0  0  0  0  0
   28.8270  -31.2317  -17.9854 C   0  0  0  0  0  0  0  0  0  0  0  0
   29.2512  -32.2241  -18.5845 O   0  0  0  0  0  0  0  0  0  0  0  0
   28.2248  -32.7125  -14.5245 C   0  0  0  0  0  0  0  0  0  0  0  0
   28.4122  -32.7757  -16.0357 C   0  0  2  0  0  0  0  0  0  0  0  0
   28.3716  -31.4687  -16.6360 N   0  0  0  0  0  0  0  0  0  0  0  0
   27.2819  -33.5801  -16.5599 C   0  0  0  0  0  0  0  0  0  0  0  0
   27.2736  -34.9708  -16.5085 O   0  0  0  0  0  0  0  0  0  0  0  0
   26.3071  -32.9662  -17.0640 O   0  0  0  0  0  0  0  0  0  0  0  0
  2  1  1  1
  3  2  1  0
  4  3  1  0
  5  4  1  0
  6  5  1  0
  7  6  1  0
  8  2  1  0
  8 10  1  0
  9  8  2  0
 10 11  1  0
 11 12  1  0
 13 14  1  0
 13 12  1  0
 14 10  1  0
 15 19  1  0
 14 15  1  6
 16 15  2  0
 18 17  1  1
 18 19  1  0
 20 21  1  0
 20 18  1  0
 22 20  2  0
M  END
$$$$
