KPA.pdb
     RDKit          3D

 22 22  0  0  1  0  0  0  0  0999 V2000
   20.6733  -20.9830  -12.6744 N   0  0  0  0  0  0  0  0  0  0  0  0
   21.8975  -21.2556  -13.3273 C   0  0  1  0  0  0  0  0  0  0  0  0
   21.6768  -21.3091  -14.8186 C   0  0  0  0  0  0  0  0  0  0  0  0
   20.8702  -22.4322  -15.3273 C   0  0  0  0  0  0  0  0  0  0  0  0
   21.5639  -23.7009  -15.6544 C   0  0  0  0  0  0  0  0  0  0  0  0
   20.6717  -24.7319  -16.3085 C   0  0  0  0  0  0  0  0  0  0  0  0
   21.4403  -25.9486  -16.5831 N   0  0  0  0  0  0  0  0  0  0  0  0
   23.0154  -20.3102  -13.0882 C   0  0  0  0  0  0  0  0  0  0  0  0
   22.6908  -19.0603  -13.1708 O   0  0  0  0  0  0  0  0  0  0  0  0
   24.3525  -20.5927  -12.7893 N   0  0  0  0  0  0  0  0  0  0  0  0
   24.8266  -21.3208  -11.5912 C   0  0  0  0  0  0  0  0  0  0  0  0
   25.7768  -22.3334  -12.2726 C   0  0  0  0  0  0  0  0  0  0  0  0
   26.0841  -21.7519  -13.6443 C   0  0  0  0  0  0  0  0  0  0  0  0
   25.6169  -20.3179  -13.4092 C   0  0  1  0  0  0  0  0  0  0  0  0
   25.7372  -19.4574  -14.5318 C   0  0  0  0  0  0  0  0  0  0  0  0
   25.2376  -19.6307  -15.6473 O   0  0  0  0  0  0  0  0  0  0  0  0
   27.3207  -16.0059  -14.9624 C   0  0  0  0  0  0  0  0  0  0  0  0
   26.6278  -17.2784  -15.4352 C   0  0  2  0  0  0  0  0  0  0  0  0
   26.5166  -18.2514  -14.3811 N   0  0  0  0  0  0  0  0  0  0  0  0
   27.4775  -17.8357  -16.5155 C   0  0  0  0  0  0  0  0  0  0  0  0
   27.4707  -17.3179  -17.8072 O   0  0  0  0  0  0  0  0  0  0  0  0
   28.2226  -18.8090  -16.2348 O   0  0  0  0  0  0  0  0  0  0  0  0
  2  1  1  1
  3  2  1  0
  4  3  1  0
  5  4  1  0
  6  5  1  0
  7  6  1  0
  8  2  1  0
  8 10  1  0
  9  8  2  0
 10 11  1  0
 11 12  1  0
 13 14  1  0
 13 12  1  0
 14 10  1  0
 15 19  1  0
 14 15  1  6
 16 15  2  0
 18 17  1  1
 18 19  1  0
 20 21  1  0
 20 18  1  0
 22 20  2  0
M  END
$$$$
