KPA.pdb
     RDKit          3D

 22 22  0  0  1  0  0  0  0  0999 V2000
   18.3992  -11.8677  -16.3932 N   0  0  0  0  0  0  0  0  0  0  0  0
   19.6911  -11.2948  -16.4370 C   0  0  1  0  0  0  0  0  0  0  0  0
   19.9699  -10.7766  -17.8260 C   0  0  0  0  0  0  0  0  0  0  0  0
   19.7756  -11.7251  -18.9365 C   0  0  0  0  0  0  0  0  0  0  0  0
   19.1138  -11.2343  -20.1690 C   0  0  0  0  0  0  0  0  0  0  0  0
   19.0077  -12.2762  -21.2598 C   0  0  0  0  0  0  0  0  0  0  0  0
   18.4365  -11.6730  -22.4665 N   0  0  0  0  0  0  0  0  0  0  0  0
   19.9688  -10.1825  -15.4956 C   0  0  0  0  0  0  0  0  0  0  0  0
   19.1039   -9.2206  -15.5281 O   0  0  0  0  0  0  0  0  0  0  0  0
   21.0278  -10.0437  -14.5921 N   0  0  0  0  0  0  0  0  0  0  0  0
   21.4749  -11.0771  -13.6316 C   0  0  0  0  0  0  0  0  0  0  0  0
   22.9943  -11.0469  -13.9198 C   0  0  0  0  0  0  0  0  0  0  0  0
   23.2564   -9.7180  -14.6122 C   0  0  0  0  0  0  0  0  0  0  0  0
   21.9558   -9.0011  -14.2598 C   0  0  1  0  0  0  0  0  0  0  0  0
   21.8355   -7.6870  -14.7834 C   0  0  0  0  0  0  0  0  0  0  0  0
   21.9746   -7.3506  -15.9629 O   0  0  0  0  0  0  0  0  0  0  0  0
   20.0935   -4.6202  -13.8199 C   0  0  0  0  0  0  0  0  0  0  0  0
   21.3948   -5.2520  -14.3003 C   0  0  2  0  0  0  0  0  0  0  0  0
   21.5197   -6.6180  -13.8659 N   0  0  0  0  0  0  0  0  0  0  0  0
   22.4898   -4.4542  -13.6971 C   0  0  0  0  0  0  0  0  0  0  0  0
   22.9980   -3.3110  -14.3065 O   0  0  0  0  0  0  0  0  0  0  0  0
   22.9619   -4.8403  -12.5974 O   0  0  0  0  0  0  0  0  0  0  0  0
  2  1  1  6
  3  2  1  0
  4  3  1  0
  5  4  1  0
  6  5  1  0
  7  6  1  0
  8  2  1  0
  8 10  1  0
  9  8  2  0
 10 11  1  0
 11 12  1  0
 13 14  1  0
 13 12  1  0
 14 10  1  0
 15 19  1  0
 14 15  1  6
 16 15  2  0
 18 17  1  1
 18 19  1  0
 20 21  1  0
 20 18  1  0
 22 20  2  0
M  END
$$$$
