IGP.pdb
     RDKit          3D

 20 20  0  0  1  0  0  0  0  0999 V2000
   16.6068  -10.9486  -20.7093 C   0  0  0  0  0  0  0  0  0  0  0  0
   17.8643  -11.4996  -20.0638 C   0  0  0  0  0  0  0  0  0  0  0  0
   18.4340  -10.5570  -19.0600 C   0  0  2  0  0  0  0  0  0  0  0  0
   18.6994   -9.1801  -19.6513 C   0  0  0  0  0  0  0  0  0  0  0  0
   19.6314  -11.0497  -18.3158 C   0  0  2  0  0  0  0  0  0  0  0  0
   19.2587  -12.3763  -17.7875 N   0  0  0  0  0  0  0  0  0  0  0  0
   20.0314  -10.2265  -17.1619 C   0  0  0  0  0  0  0  0  0  0  0  0
   19.1631   -9.8685  -16.3276 O   0  0  0  0  0  0  0  0  0  0  0  0
   21.3579   -9.7788  -16.8857 N   0  0  0  0  0  0  0  0  0  0  0  0
   21.6894   -8.8922  -15.8078 C   0  0  0  0  0  0  0  0  0  0  0  0
   21.3252   -7.4880  -16.0690 C   0  0  0  0  0  0  0  0  0  0  0  0
   20.6745   -7.2271  -17.1022 O   0  0  0  0  0  0  0  0  0  0  0  0
   21.6873   -6.4484  -15.1955 N   0  0  0  0  0  0  0  0  0  0  0  0
   22.3270   -6.6429  -13.9151 C   0  0  0  0  0  0  0  0  0  0  0  0
   21.8821   -5.4970  -13.0390 C   0  0  0  0  0  0  0  0  0  0  0  0
   21.3097   -4.4875  -13.9942 C   0  0  0  0  0  0  0  0  0  0  0  0
   21.5033   -5.0303  -15.3876 C   0  0  1  0  0  0  0  0  0  0  0  0
   22.6524   -4.3719  -16.0051 C   0  0  0  0  0  0  0  0  0  0  0  0
   23.8078   -4.8278  -15.8320 O   0  0  0  0  0  0  0  0  0  0  0  0
   22.4986   -3.2403  -16.7887 O   0  0  0  0  0  0  0  0  0  0  0  0
  2  3  1  0
  2  1  1  0
  3  4  1  6
  5  7  1  0
  5  3  1  0
  5  6  1  1
  7  8  2  0
  9 10  1  0
  9  7  1  0
 11 10  1  0
 12 11  2  0
 13 11  1  0
 13 14  1  0
 15 14  1  0
 16 15  1  0
 17 16  1  0
 17 13  1  0
 17 18  1  1
 18 20  1  0
 19 18  2  0
M  END
$$$$
