IGP.pdb
     RDKit          3D

 20 20  0  0  1  0  0  0  0  0999 V2000
   24.8877  -21.6821  -15.0118 C   0  0  0  0  0  0  0  0  0  0  0  0
   24.2968  -21.7973  -13.6193 C   0  0  0  0  0  0  0  0  0  0  0  0
   25.0910  -21.0380  -12.6127 C   0  0  2  0  0  0  0  0  0  0  0  0
   26.5654  -21.4138  -12.6426 C   0  0  0  0  0  0  0  0  0  0  0  0
   24.5673  -21.0732  -11.2146 C   0  0  2  0  0  0  0  0  0  0  0  0
   23.1663  -20.6169  -11.2983 N   0  0  0  0  0  0  0  0  0  0  0  0
   25.2533  -20.1770  -10.2683 C   0  0  0  0  0  0  0  0  0  0  0  0
   25.1278  -18.9333  -10.3934 O   0  0  0  0  0  0  0  0  0  0  0  0
   26.0770  -20.5964   -9.1811 N   0  0  0  0  0  0  0  0  0  0  0  0
   26.8127  -19.6915   -8.3460 C   0  0  0  0  0  0  0  0  0  0  0  0
   27.6582  -20.3695   -7.3470 C   0  0  0  0  0  0  0  0  0  0  0  0
   28.0223  -21.5417   -7.5767 O   0  0  0  0  0  0  0  0  0  0  0  0
   28.0599  -19.7382   -6.1576 N   0  0  0  0  0  0  0  0  0  0  0  0
   27.7081  -18.3858   -5.7915 C   0  0  0  0  0  0  0  0  0  0  0  0
   28.8417  -17.8671   -4.9402 C   0  0  0  0  0  0  0  0  0  0  0  0
   29.6113  -19.0952   -4.5418 C   0  0  0  0  0  0  0  0  0  0  0  0
   28.8731  -20.2861   -5.0990 C   0  0  1  0  0  0  0  0  0  0  0  0
   28.0960  -20.9128   -4.0321 C   0  0  0  0  0  0  0  0  0  0  0  0
   26.8455  -20.8186   -4.0248 O   0  0  0  0  0  0  0  0  0  0  0  0
   28.7119  -21.6193   -3.0124 O   0  0  0  0  0  0  0  0  0  0  0  0
  2  3  1  0
  2  1  1  0
  3  4  1  1
  5  7  1  0
  5  3  1  0
  5  6  1  6
  7  8  2  0
  9 10  1  0
  9  7  1  0
 11 10  1  0
 12 11  2  0
 13 11  1  0
 13 14  1  0
 15 14  1  0
 16 15  1  0
 17 16  1  0
 17 13  1  0
 17 18  1  1
 18 20  1  0
 19 18  2  0
M  END
$$$$
