IGP.pdb
     RDKit          3D

 20 20  0  0  1  0  0  0  0  0999 V2000
   15.8796  -16.8680  -17.4407 C   0  0  0  0  0  0  0  0  0  0  0  0
   15.7873  -15.3537  -17.4320 C   0  0  0  0  0  0  0  0  0  0  0  0
   17.0320  -14.7228  -16.9093 C   0  0  2  0  0  0  0  0  0  0  0  0
   17.4348  -15.2846  -15.5536 C   0  0  0  0  0  0  0  0  0  0  0  0
   17.0393  -13.2297  -16.8833 C   0  0  2  0  0  0  0  0  0  0  0  0
   16.9880  -12.8026  -18.2950 N   0  0  0  0  0  0  0  0  0  0  0  0
   18.2452  -12.6215  -16.2958 C   0  0  0  0  0  0  0  0  0  0  0  0
   18.3906  -12.6187  -15.0480 O   0  0  0  0  0  0  0  0  0  0  0  0
   19.3062  -12.0129  -17.0307 N   0  0  0  0  0  0  0  0  0  0  0  0
   20.4339  -11.3735  -16.4166 C   0  0  0  0  0  0  0  0  0  0  0  0
   20.1020  -10.0912  -15.7700 C   0  0  0  0  0  0  0  0  0  0  0  0
   18.9101   -9.8695  -15.4711 O   0  0  0  0  0  0  0  0  0  0  0  0
   21.0808   -9.1239  -15.4850 N   0  0  0  0  0  0  0  0  0  0  0  0
   22.4945   -9.2965  -15.7263 C   0  0  0  0  0  0  0  0  0  0  0  0
   23.2079   -8.4691  -14.6846 C   0  0  0  0  0  0  0  0  0  0  0  0
   22.1502   -7.5522  -14.1370 C   0  0  0  0  0  0  0  0  0  0  0  0
   20.8857   -7.8123  -14.9161 C   0  0  1  0  0  0  0  0  0  0  0  0
   20.7131   -6.7624  -15.9177 C   0  0  0  0  0  0  0  0  0  0  0  0
   20.2612   -5.6412  -15.5836 O   0  0  0  0  0  0  0  0  0  0  0  0
   21.0398   -6.9744  -17.2468 O   0  0  0  0  0  0  0  0  0  0  0  0
  2  3  1  0
  2  1  1  0
  3  4  1  1
  5  7  1  0
  5  3  1  0
  5  6  1  6
  7  8  2  0
  9 10  1  0
  9  7  1  0
 11 10  1  0
 12 11  2  0
 13 11  1  0
 13 14  1  0
 15 14  1  0
 16 15  1  0
 17 16  1  0
 17 13  1  0
 17 18  1  6
 18 20  1  0
 19 18  2  0
M  END
$$$$
