IGP.pdb
     RDKit          3D

 20 20  0  0  1  0  0  0  0  0999 V2000
   24.0655  -19.5656  -18.1675 C   0  0  0  0  0  0  0  0  0  0  0  0
   22.9378  -18.9979  -17.3262 C   0  0  0  0  0  0  0  0  0  0  0  0
   23.3849  -18.6716  -15.9427 C   0  0  2  0  0  0  0  0  0  0  0  0
   24.4571  -17.5918  -15.9254 C   0  0  0  0  0  0  0  0  0  0  0  0
   23.7977  -19.8363  -15.1041 C   0  0  2  0  0  0  0  0  0  0  0  0
   22.5842  -20.6584  -14.9323 N   0  0  0  0  0  0  0  0  0  0  0  0
   24.2776  -19.4946  -13.7542 C   0  0  0  0  0  0  0  0  0  0  0  0
   23.4904  -18.9567  -12.9362 O   0  0  0  0  0  0  0  0  0  0  0  0
   25.5978  -19.7235  -13.2634 N   0  0  0  0  0  0  0  0  0  0  0  0
   26.0357  -19.3416  -11.9519 C   0  0  0  0  0  0  0  0  0  0  0  0
   25.9246  -20.4236  -10.9572 C   0  0  0  0  0  0  0  0  0  0  0  0
   25.7745  -21.5930  -11.3682 O   0  0  0  0  0  0  0  0  0  0  0  0
   25.9826  -20.1754   -9.5752 N   0  0  0  0  0  0  0  0  0  0  0  0
   26.1563  -18.8677   -8.9866 C   0  0  0  0  0  0  0  0  0  0  0  0
   26.8798  -19.0825   -7.6793 C   0  0  0  0  0  0  0  0  0  0  0  0
   26.7393  -20.5534   -7.4036 C   0  0  0  0  0  0  0  0  0  0  0  0
   25.8848  -21.1346   -8.5017 C   0  0  1  0  0  0  0  0  0  0  0  0
   24.5226  -21.3173   -8.0056 C   0  0  0  0  0  0  0  0  0  0  0  0
   23.6063  -20.5487   -8.3832 O   0  0  0  0  0  0  0  0  0  0  0  0
   24.2102  -22.3317   -7.1160 O   0  0  0  0  0  0  0  0  0  0  0  0
  2  3  1  0
  2  1  1  0
  3  4  1  6
  5  7  1  0
  5  3  1  0
  5  6  1  1
  7  8  2  0
  9 10  1  0
  9  7  1  0
 11 10  1  0
 12 11  2  0
 13 11  1  0
 13 14  1  0
 15 14  1  0
 16 15  1  0
 17 16  1  0
 17 13  1  0
 17 18  1  1
 18 20  1  0
 19 18  2  0
M  END
$$$$
