IGP.pdb
     RDKit          3D

 20 20  0  0  1  0  0  0  0  0999 V2000
   18.4960  -19.8610  -13.9975 C   0  0  0  0  0  0  0  0  0  0  0  0
   19.1027  -20.8838  -13.0556 C   0  0  0  0  0  0  0  0  0  0  0  0
   20.5514  -20.6302  -12.8161 C   0  0  2  0  0  0  0  0  0  0  0  0
   21.3280  -20.4673  -14.1147 C   0  0  0  0  0  0  0  0  0  0  0  0
   21.2374  -21.5999  -11.9109 C   0  0  2  0  0  0  0  0  0  0  0  0
   20.5685  -21.4704  -10.6018 N   0  0  0  0  0  0  0  0  0  0  0  0
   22.6696  -21.3392  -11.6873 C   0  0  0  0  0  0  0  0  0  0  0  0
   23.0198  -20.3049  -11.0662 O   0  0  0  0  0  0  0  0  0  0  0  0
   23.7402  -22.1769  -12.1212 N   0  0  0  0  0  0  0  0  0  0  0  0
   25.1256  -21.8291  -11.9888 C   0  0  0  0  0  0  0  0  0  0  0  0
   25.5978  -20.8926  -13.0244 C   0  0  0  0  0  0  0  0  0  0  0  0
   24.7466  -20.2602  -13.6838 O   0  0  0  0  0  0  0  0  0  0  0  0
   26.9645  -20.6958  -13.2853 N   0  0  0  0  0  0  0  0  0  0  0  0
   28.0352  -21.3495  -12.5691 C   0  0  0  0  0  0  0  0  0  0  0  0
   29.2070  -20.3982  -12.5947 C   0  0  0  0  0  0  0  0  0  0  0  0
   28.8646  -19.4014  -13.6664 C   0  0  0  0  0  0  0  0  0  0  0  0
   27.5580  -19.8362  -14.2807 C   0  0  1  0  0  0  0  0  0  0  0  0
   27.8235  -20.5105  -15.5495 C   0  0  0  0  0  0  0  0  0  0  0  0
   27.8097  -21.7630  -15.6122 O   0  0  0  0  0  0  0  0  0  0  0  0
   28.0943  -19.7935  -16.7031 O   0  0  0  0  0  0  0  0  0  0  0  0
  2  3  1  0
  2  1  1  0
  3  4  1  6
  5  7  1  0
  5  3  1  0
  5  6  1  1
  7  8  2  0
  9 10  1  0
  9  7  1  0
 11 10  1  0
 12 11  2  0
 13 11  1  0
 13 14  1  0
 15 14  1  0
 16 15  1  0
 17 16  1  0
 17 13  1  0
 17 18  1  6
 18 20  1  0
 19 18  2  0
M  END
$$$$
