IGP.pdb
     RDKit          3D

 20 20  0  0  1  0  0  0  0  0999 V2000
   16.5411  -14.9022  -17.1232 C   0  0  0  0  0  0  0  0  0  0  0  0
   16.8199  -13.9922  -15.9418 C   0  0  0  0  0  0  0  0  0  0  0  0
   17.7087  -12.8550  -16.3123 C   0  0  2  0  0  0  0  0  0  0  0  0
   18.9919  -13.3239  -16.9825 C   0  0  0  0  0  0  0  0  0  0  0  0
   18.0109  -11.8861  -15.2168 C   0  0  2  0  0  0  0  0  0  0  0  0
   16.7290  -11.2293  -14.8956 N   0  0  0  0  0  0  0  0  0  0  0  0
   18.9614  -10.8186  -15.5723 C   0  0  0  0  0  0  0  0  0  0  0  0
   20.1935  -11.0136  -15.4239 O   0  0  0  0  0  0  0  0  0  0  0  0
   18.6089   -9.5361  -16.0894 N   0  0  0  0  0  0  0  0  0  0  0  0
   19.5695   -8.5424  -16.4733 C   0  0  0  0  0  0  0  0  0  0  0  0
   20.1574   -7.8210  -15.3302 C   0  0  0  0  0  0  0  0  0  0  0  0
   19.7845   -8.1304  -14.1794 O   0  0  0  0  0  0  0  0  0  0  0  0
   21.1149   -6.8067  -15.5006 N   0  0  0  0  0  0  0  0  0  0  0  0
   21.6927   -6.4339  -16.7710 C   0  0  0  0  0  0  0  0  0  0  0  0
   23.0827   -5.9260  -16.4733 C   0  0  0  0  0  0  0  0  0  0  0  0
   23.0862   -5.6727  -14.9917 C   0  0  0  0  0  0  0  0  0  0  0  0
   21.6958   -5.9621  -14.4852 C   0  0  1  0  0  0  0  0  0  0  0  0
   20.9806   -4.7020  -14.2961 C   0  0  0  0  0  0  0  0  0  0  0  0
   21.1568   -4.0279  -13.2533 O   0  0  0  0  0  0  0  0  0  0  0  0
   20.0995   -4.2237  -15.2517 O   0  0  0  0  0  0  0  0  0  0  0  0
  2  3  1  0
  2  1  1  0
  3  4  1  1
  5  7  1  0
  5  3  1  0
  5  6  1  6
  7  8  2  0
  9 10  1  0
  9  7  1  0
 11 10  1  0
 12 11  2  0
 13 11  1  0
 13 14  1  0
 15 14  1  0
 16 15  1  0
 17 16  1  0
 17 13  1  0
 17 18  1  6
 18 20  1  0
 19 18  2  0
M  END
$$$$
