MGL.pdb
     RDKit          3D

 21 20  0  0  1  0  0  0  0  0999 V2000
   28.2402  -19.1981   -3.1924 C   0  0  0  0  0  0  0  0  0  0  0  0
   28.6108  -18.8654   -4.9067 S   0  0  0  0  0  0  0  0  0  0  0  0
   28.5174  -20.3121   -5.9317 C   0  0  0  0  0  0  0  0  0  0  0  0
   27.1405  -20.6959   -6.3398 C   0  0  0  0  0  0  0  0  0  0  0  0
   26.7237  -20.3379   -7.7229 C   0  0  2  0  0  0  0  0  0  0  0  0
   26.7334  -18.9189   -7.9737 N   0  0  0  0  0  0  0  0  0  0  0  0
   25.3397  -20.8604   -8.0226 C   0  0  0  0  0  0  0  0  0  0  0  0
   24.5629  -21.0157   -7.0318 O   0  0  0  0  0  0  0  0  0  0  0  0
   24.9784  -21.1464   -9.3575 N   0  0  0  0  0  0  0  0  0  0  0  0
   23.7527  -20.6117   -9.8868 C   0  0  0  0  0  0  0  0  0  0  0  0
   23.9239  -20.3452  -11.3338 C   0  0  0  0  0  0  0  0  0  0  0  0
   22.9585  -19.8499  -11.9682 O   0  0  0  0  0  0  0  0  0  0  0  0
   28.8530  -20.1529  -15.0147 C   0  0  0  0  0  0  0  0  0  0  0  0
   27.3472  -19.8684  -14.9489 C   0  0  2  0  0  0  0  0  0  0  0  0
   27.1750  -18.3599  -15.1370 C   0  0  0  0  0  0  0  0  0  0  0  0
   26.8942  -20.2307  -13.5827 C   0  0  0  0  0  0  0  0  0  0  0  0
   25.4080  -20.2088  -13.3806 C   0  0  2  0  0  0  0  0  0  0  0  0
   25.1425  -20.6321  -12.0224 N   0  0  0  0  0  0  0  0  0  0  0  0
   24.6312  -20.9351  -14.3755 C   0  0  0  0  0  0  0  0  0  0  0  0
   24.2853  -20.3858  -15.4366 O   0  0  0  0  0  0  0  0  0  0  0  0
   24.2676  -22.2433  -14.1547 O   0  0  0  0  0  0  0  0  0  0  0  0
  2  1  1  0
  3  2  1  0
  4  5  1  0
  4  3  1  0
  5  6  1  1
  7  5  1  0
  7  8  2  0
  9  7  1  0
 10  9  1  0
 10 11  1  0
 11 18  1  0
 12 11  2  0
 14 13  1  1
 14 15  1  0
 16 14  1  0
 17 16  1  6
 17 19  1  0
 18 17  1  0
 19 21  1  0
 20 19  2  0
M  END
$$$$
