MGL.pdb
     RDKit          3D

 21 20  0  0  1  0  0  0  0  0999 V2000
   27.0785  -18.7478  -17.4932 C   0  0  0  0  0  0  0  0  0  0  0  0
   27.8845  -17.7424  -16.2577 S   0  0  0  0  0  0  0  0  0  0  0  0
   27.8979  -18.4947  -14.6496 C   0  0  0  0  0  0  0  0  0  0  0  0
   26.7750  -19.4350  -14.3947 C   0  0  0  0  0  0  0  0  0  0  0  0
   26.6560  -19.9838  -13.0165 C   0  0  2  0  0  0  0  0  0  0  0  0
   27.7808  -20.7950  -12.6250 N   0  0  0  0  0  0  0  0  0  0  0  0
   25.4032  -20.8131  -12.8714 C   0  0  0  0  0  0  0  0  0  0  0  0
   25.1262  -21.5983  -13.8283 O   0  0  0  0  0  0  0  0  0  0  0  0
   24.6140  -20.6828  -11.7075 N   0  0  0  0  0  0  0  0  0  0  0  0
   23.3949  -21.4371  -11.5935 C   0  0  0  0  0  0  0  0  0  0  0  0
   22.3161  -20.7299  -12.3217 C   0  0  0  0  0  0  0  0  0  0  0  0
   21.9340  -19.6142  -11.8871 O   0  0  0  0  0  0  0  0  0  0  0  0
   21.6243  -20.6760  -17.8857 C   0  0  0  0  0  0  0  0  0  0  0  0
   21.4879  -20.0415  -16.4960 C   0  0  2  0  0  0  0  0  0  0  0  0
   22.9043  -19.9000  -15.9351 C   0  0  0  0  0  0  0  0  0  0  0  0
   20.7367  -21.0020  -15.6499 C   0  0  0  0  0  0  0  0  0  0  0  0
   20.6255  -20.6209  -14.2033 C   0  0  2  0  0  0  0  0  0  0  0  0
   21.7035  -21.2741  -13.4922 N   0  0  0  0  0  0  0  0  0  0  0  0
   19.3185  -20.8374  -13.5986 C   0  0  0  0  0  0  0  0  0  0  0  0
   19.0919  -21.8569  -12.9229 O   0  0  0  0  0  0  0  0  0  0  0  0
   18.3127  -19.9142  -13.7671 O   0  0  0  0  0  0  0  0  0  0  0  0
  2  1  1  0
  3  2  1  0
  4  5  1  0
  4  3  1  0
  5  6  1  6
  7  5  1  0
  7  8  2  0
  9  7  1  0
 10  9  1  0
 10 11  1  0
 11 18  1  0
 12 11  2  0
 14 13  1  6
 14 15  1  0
 16 14  1  0
 17 16  1  6
 17 19  1  0
 18 17  1  0
 19 21  1  0
 20 19  2  0
M  END
$$$$
