MGL.pdb
     RDKit          3D

 21 20  0  0  1  0  0  0  0  0999 V2000
   21.8913  -17.9017  -16.2602 C   0  0  0  0  0  0  0  0  0  0  0  0
   21.0497  -19.3910  -15.7496 S   0  0  0  0  0  0  0  0  0  0  0  0
   21.8949  -20.2565  -14.4501 C   0  0  0  0  0  0  0  0  0  0  0  0
   23.2618  -19.7520  -14.1549 C   0  0  0  0  0  0  0  0  0  0  0  0
   24.3831  -20.7192  -14.3027 C   0  0  2  0  0  0  0  0  0  0  0  0
   24.0292  -22.0659  -13.9315 N   0  0  0  0  0  0  0  0  0  0  0  0
   25.5725  -20.2986  -13.4740 C   0  0  0  0  0  0  0  0  0  0  0  0
   26.1272  -19.2024  -13.7896 O   0  0  0  0  0  0  0  0  0  0  0  0
   26.0053  -21.1216  -12.4111 N   0  0  0  0  0  0  0  0  0  0  0  0
   27.1230  -20.7061  -11.6071 C   0  0  0  0  0  0  0  0  0  0  0  0
   26.8726  -21.0816  -10.1962 C   0  0  0  0  0  0  0  0  0  0  0  0
   26.1842  -22.1073   -9.9642 O   0  0  0  0  0  0  0  0  0  0  0  0
   28.3467  -18.6376   -4.7442 C   0  0  0  0  0  0  0  0  0  0  0  0
   27.8308  -19.9208   -5.4075 C   0  0  2  0  0  0  0  0  0  0  0  0
   28.7451  -21.0558   -4.9423 C   0  0  0  0  0  0  0  0  0  0  0  0
   27.9945  -19.7504   -6.8728 C   0  0  0  0  0  0  0  0  0  0  0  0
   27.1438  -20.6540   -7.7154 C   0  0  2  0  0  0  0  0  0  0  0  0
   27.3860  -20.3191   -9.1023 N   0  0  0  0  0  0  0  0  0  0  0  0
   25.7304  -20.6866   -7.3662 C   0  0  0  0  0  0  0  0  0  0  0  0
   25.2885  -21.5477   -6.5849 O   0  0  0  0  0  0  0  0  0  0  0  0
   24.8612  -19.7622   -7.8977 O   0  0  0  0  0  0  0  0  0  0  0  0
  2  1  1  0
  3  2  1  0
  4  5  1  0
  4  3  1  0
  5  6  1  1
  7  5  1  0
  7  8  2  0
  9  7  1  0
 10  9  1  0
 10 11  1  0
 11 18  1  0
 12 11  2  0
 14 13  1  1
 14 15  1  0
 16 14  1  0
 17 16  1  1
 17 19  1  0
 18 17  1  0
 19 21  1  0
 20 19  2  0
M  END
$$$$
