MGL.pdb
     RDKit          3D

 21 20  0  0  1  0  0  0  0  0999 V2000
   15.5046  -12.1511  -21.0917 C   0  0  0  0  0  0  0  0  0  0  0  0
   16.7312  -13.3413  -20.5760 S   0  0  0  0  0  0  0  0  0  0  0  0
   17.1152  -13.2386  -18.8456 C   0  0  0  0  0  0  0  0  0  0  0  0
   17.2763  -11.8549  -18.3265 C   0  0  0  0  0  0  0  0  0  0  0  0
   18.2840  -11.6525  -17.2502 C   0  0  2  0  0  0  0  0  0  0  0  0
   17.9478  -12.3217  -16.0191 N   0  0  0  0  0  0  0  0  0  0  0  0
   18.4703  -10.1844  -16.9534 C   0  0  0  0  0  0  0  0  0  0  0  0
   18.9823   -9.4779  -17.8742 O   0  0  0  0  0  0  0  0  0  0  0  0
   18.0773   -9.6737  -15.6968 N   0  0  0  0  0  0  0  0  0  0  0  0
   18.0642   -8.2512  -15.4860 C   0  0  0  0  0  0  0  0  0  0  0  0
   19.1797   -7.8835  -14.5835 C   0  0  0  0  0  0  0  0  0  0  0  0
   19.0524   -8.1094  -13.3537 O   0  0  0  0  0  0  0  0  0  0  0  0
   22.6358   -9.4921  -13.1357 C   0  0  0  0  0  0  0  0  0  0  0  0
   22.6230   -9.0869  -14.6150 C   0  0  2  0  0  0  0  0  0  0  0  0
   23.8909   -9.6694  -15.2425 C   0  0  0  0  0  0  0  0  0  0  0  0
   22.7079   -7.6059  -14.6622 C   0  0  0  0  0  0  0  0  0  0  0  0
   21.4751   -6.8850  -14.2030 C   0  0  2  0  0  0  0  0  0  0  0  0
   20.3844   -7.2853  -15.0658 N   0  0  0  0  0  0  0  0  0  0  0  0
   21.6084   -5.4409  -14.0708 C   0  0  0  0  0  0  0  0  0  0  0  0
   21.0569   -4.6750  -14.8811 O   0  0  0  0  0  0  0  0  0  0  0  0
   22.3488   -4.9018  -13.0444 O   0  0  0  0  0  0  0  0  0  0  0  0
  2  1  1  0
  3  2  1  0
  4  5  1  0
  4  3  1  0
  5  6  1  1
  7  5  1  0
  7  8  2  0
  9  7  1  0
 10  9  1  0
 10 11  1  0
 11 18  1  0
 12 11  2  0
 14 13  1  1
 14 15  1  0
 16 14  1  0
 17 16  1  6
 17 19  1  0
 18 17  1  0
 19 21  1  0
 20 19  2  0
M  END
$$$$
