MGL.pdb
     RDKit          3D

 21 20  0  0  1  0  0  0  0  0999 V2000
   21.8109  -13.4819  -21.1813 C   0  0  0  0  0  0  0  0  0  0  0  0
   20.2424  -14.2698  -21.5068 S   0  0  0  0  0  0  0  0  0  0  0  0
   18.8532  -13.2109  -21.1887 C   0  0  0  0  0  0  0  0  0  0  0  0
   19.2002  -11.8933  -20.5940 C   0  0  0  0  0  0  0  0  0  0  0  0
   18.4171  -11.4648  -19.4032 C   0  0  2  0  0  0  0  0  0  0  0  0
   17.0186  -11.2581  -19.6828 N   0  0  0  0  0  0  0  0  0  0  0  0
   18.9750  -10.1894  -18.8199 C   0  0  0  0  0  0  0  0  0  0  0  0
   20.1637  -10.2369  -18.3796 O   0  0  0  0  0  0  0  0  0  0  0  0
   18.1712   -9.0285  -18.7900 N   0  0  0  0  0  0  0  0  0  0  0  0
   18.7426   -7.7859  -18.3456 C   0  0  0  0  0  0  0  0  0  0  0  0
   19.1242   -7.9092  -16.9197 C   0  0  0  0  0  0  0  0  0  0  0  0
   18.2707   -8.3494  -16.1088 O   0  0  0  0  0  0  0  0  0  0  0  0
   23.2107   -9.9812  -13.4059 C   0  0  0  0  0  0  0  0  0  0  0  0
   22.1742   -8.8505  -13.4054 C   0  0  2  0  0  0  0  0  0  0  0  0
   21.0304   -9.3016  -12.4950 C   0  0  0  0  0  0  0  0  0  0  0  0
   21.6581   -8.7315  -14.7918 C   0  0  0  0  0  0  0  0  0  0  0  0
   20.7828   -7.5394  -15.0426 C   0  0  2  0  0  0  0  0  0  0  0  0
   20.4217   -7.5458  -16.4441 N   0  0  0  0  0  0  0  0  0  0  0  0
   21.3191   -6.2638  -14.5890 C   0  0  0  0  0  0  0  0  0  0  0  0
   22.0277   -5.5694  -15.3394 O   0  0  0  0  0  0  0  0  0  0  0  0
   21.0487   -5.8074  -13.3198 O   0  0  0  0  0  0  0  0  0  0  0  0
  2  1  1  0
  3  2  1  0
  4  5  1  0
  4  3  1  0
  5  6  1  6
  7  5  1  0
  7  8  2  0
  9  7  1  0
 10  9  1  0
 10 11  1  0
 11 18  1  0
 12 11  2  0
 14 13  1  6
 14 15  1  0
 16 14  1  0
 17 16  1  6
 17 19  1  0
 18 17  1  0
 19 21  1  0
 20 19  2  0
M  END
$$$$
