MGL.pdb
     RDKit          3D

 21 20  0  0  1  0  0  0  0  0999 V2000
   15.4659  -16.5366  -17.2948 C   0  0  0  0  0  0  0  0  0  0  0  0
   16.5008  -15.1032  -17.0473 S   0  0  0  0  0  0  0  0  0  0  0  0
   17.9295  -15.0869  -18.1012 C   0  0  0  0  0  0  0  0  0  0  0  0
   18.7549  -13.8539  -18.0091 C   0  0  0  0  0  0  0  0  0  0  0  0
   19.9462  -13.7732  -18.8974 C   0  0  2  0  0  0  0  0  0  0  0  0
   20.8334  -14.9013  -18.7680 N   0  0  0  0  0  0  0  0  0  0  0  0
   20.7380  -12.5170  -18.6267 C   0  0  0  0  0  0  0  0  0  0  0  0
   21.9182  -12.6713  -18.1880 O   0  0  0  0  0  0  0  0  0  0  0  0
   20.1469  -11.2571  -18.8669 N   0  0  0  0  0  0  0  0  0  0  0  0
   20.9449  -10.0675  -18.7394 C   0  0  0  0  0  0  0  0  0  0  0  0
   21.0823   -9.7263  -17.3046 C   0  0  0  0  0  0  0  0  0  0  0  0
   20.1800  -10.0988  -16.5129 O   0  0  0  0  0  0  0  0  0  0  0  0
   23.8237  -11.1618  -14.2720 C   0  0  0  0  0  0  0  0  0  0  0  0
   24.3880  -10.2320  -15.3535 C   0  0  2  0  0  0  0  0  0  0  0  0
   25.9054  -10.2013  -15.1606 C   0  0  0  0  0  0  0  0  0  0  0  0
   23.8485   -8.8753  -15.0869 C   0  0  0  0  0  0  0  0  0  0  0  0
   22.3909   -8.7004  -15.3951 C   0  0  2  0  0  0  0  0  0  0  0  0
   22.2000   -8.9933  -16.7995 N   0  0  0  0  0  0  0  0  0  0  0  0
   21.8138   -7.4276  -14.9857 C   0  0  0  0  0  0  0  0  0  0  0  0
   21.5796   -6.5375  -15.8225 O   0  0  0  0  0  0  0  0  0  0  0  0
   21.5187   -7.1911  -13.6630 O   0  0  0  0  0  0  0  0  0  0  0  0
  2  1  1  0
  3  2  1  0
  4  5  1  0
  4  3  1  0
  5  6  1  1
  7  5  1  0
  7  8  2  0
  9  7  1  0
 10  9  1  0
 10 11  1  0
 11 18  1  0
 12 11  2  0
 14 13  1  1
 14 15  1  0
 16 14  1  0
 17 16  1  6
 17 19  1  0
 18 17  1  0
 19 21  1  0
 20 19  2  0
M  END
$$$$
