MGL.pdb
     RDKit          3D

 21 20  0  0  1  0  0  0  0  0999 V2000
   28.6230  -20.0790   -4.0432 C   0  0  0  0  0  0  0  0  0  0  0  0
   27.2279  -19.4854   -4.9857 S   0  0  0  0  0  0  0  0  0  0  0  0
   27.5346  -19.4495   -6.7340 C   0  0  0  0  0  0  0  0  0  0  0  0
   27.6846  -20.7869   -7.3656 C   0  0  0  0  0  0  0  0  0  0  0  0
   28.1024  -20.8141   -8.7937 C   0  0  2  0  0  0  0  0  0  0  0  0
   28.4316  -19.5128   -9.3179 N   0  0  0  0  0  0  0  0  0  0  0  0
   27.0222  -21.4127   -9.6615 C   0  0  0  0  0  0  0  0  0  0  0  0
   26.6268  -22.5785   -9.3554 O   0  0  0  0  0  0  0  0  0  0  0  0
   26.5114  -20.6692  -10.7481 N   0  0  0  0  0  0  0  0  0  0  0  0
   25.6429  -21.3123  -11.6970 C   0  0  0  0  0  0  0  0  0  0  0  0
   24.3356  -20.6158  -11.7086 C   0  0  0  0  0  0  0  0  0  0  0  0
   24.0998  -19.7729  -10.8066 O   0  0  0  0  0  0  0  0  0  0  0  0
   21.6822  -19.6684  -16.5108 C   0  0  0  0  0  0  0  0  0  0  0  0
   22.1340  -19.2749  -15.0988 C   0  0  2  0  0  0  0  0  0  0  0  0
   23.6586  -19.3996  -15.0732 C   0  0  0  0  0  0  0  0  0  0  0  0
   21.5607  -20.2742  -14.1631 C   0  0  0  0  0  0  0  0  0  0  0  0
   22.0696  -20.1893  -12.7546 C   0  0  2  0  0  0  0  0  0  0  0  0
   23.3448  -20.8719  -12.7057 N   0  0  0  0  0  0  0  0  0  0  0  0
   21.1377  -20.6295  -11.7258 C   0  0  0  0  0  0  0  0  0  0  0  0
   21.1874  -21.7887  -11.2773 O   0  0  0  0  0  0  0  0  0  0  0  0
   20.1861  -19.7665  -11.2340 O   0  0  0  0  0  0  0  0  0  0  0  0
  2  1  1  0
  3  2  1  0
  4  5  1  0
  4  3  1  0
  5  6  1  6
  7  5  1  0
  7  8  2  0
  9  7  1  0
 10  9  1  0
 10 11  1  0
 11 18  1  0
 12 11  2  0
 14 13  1  6
 14 15  1  0
 16 14  1  0
 17 16  1  6
 17 19  1  0
 18 17  1  0
 19 21  1  0
 20 19  2  0
M  END
$$$$
