MGL.pdb
     RDKit          3D

 21 20  0  0  1  0  0  0  0  0999 V2000
   21.3260  -21.3988  -12.3381 C   0  0  0  0  0  0  0  0  0  0  0  0
   20.8613  -20.7102  -13.9183 S   0  0  0  0  0  0  0  0  0  0  0  0
   22.2244  -19.9696  -14.7818 C   0  0  0  0  0  0  0  0  0  0  0  0
   23.4309  -19.7287  -13.9474 C   0  0  0  0  0  0  0  0  0  0  0  0
   24.6497  -20.5139  -14.2833 C   0  0  2  0  0  0  0  0  0  0  0  0
   24.4427  -21.9392  -14.2355 N   0  0  0  0  0  0  0  0  0  0  0  0
   25.7871  -20.1710  -13.3523 C   0  0  0  0  0  0  0  0  0  0  0  0
   26.1972  -18.9708  -13.3724 O   0  0  0  0  0  0  0  0  0  0  0  0
   26.3317  -21.1742  -12.5208 N   0  0  0  0  0  0  0  0  0  0  0  0
   27.3954  -20.8379  -11.6132 C   0  0  0  0  0  0  0  0  0  0  0  0
   27.0024  -21.2263  -10.2389 C   0  0  0  0  0  0  0  0  0  0  0  0
   26.6639  -22.4184  -10.0288 O   0  0  0  0  0  0  0  0  0  0  0  0
   28.7506  -21.0583   -6.0001 C   0  0  0  0  0  0  0  0  0  0  0  0
   28.4758  -19.7160   -6.6896 C   0  0  2  0  0  0  0  0  0  0  0  0
   28.9229  -18.6219   -5.7182 C   0  0  0  0  0  0  0  0  0  0  0  0
   27.0068  -19.6139   -6.8753 C   0  0  0  0  0  0  0  0  0  0  0  0
   26.4229  -20.5838   -7.8594 C   0  0  2  0  0  0  0  0  0  0  0  0
   26.9970  -20.2943   -9.1559 N   0  0  0  0  0  0  0  0  0  0  0  0
   24.9687  -20.6598   -7.8743 C   0  0  0  0  0  0  0  0  0  0  0  0
   24.3084  -20.0359   -8.7241 O   0  0  0  0  0  0  0  0  0  0  0  0
   24.3026  -21.4252   -6.9455 O   0  0  0  0  0  0  0  0  0  0  0  0
  2  1  1  0
  3  2  1  0
  4  5  1  0
  4  3  1  0
  5  6  1  1
  7  5  1  0
  7  8  2  0
  9  7  1  0
 10  9  1  0
 10 11  1  0
 11 18  1  0
 12 11  2  0
 14 13  1  1
 14 15  1  0
 16 14  1  0
 17 16  1  1
 17 19  1  0
 18 17  1  0
 19 21  1  0
 20 19  2  0
M  END
$$$$
