MGL.pdb
     RDKit          3D

 21 20  0  0  1  0  0  0  0  0999 V2000
   28.7322  -19.5862   -3.6318 C   0  0  0  0  0  0  0  0  0  0  0  0
   28.8042  -20.1771   -5.3149 S   0  0  0  0  0  0  0  0  0  0  0  0
   27.2787  -19.9549   -6.1956 C   0  0  0  0  0  0  0  0  0  0  0  0
   27.3305  -20.3332   -7.6323 C   0  0  0  0  0  0  0  0  0  0  0  0
   26.0928  -20.1180   -8.4303 C   0  0  2  0  0  0  0  0  0  0  0  0
   24.9410  -20.7970   -7.8930 N   0  0  0  0  0  0  0  0  0  0  0  0
   26.2842  -20.5711   -9.8573 C   0  0  0  0  0  0  0  0  0  0  0  0
   27.3216  -20.1503  -10.4539 O   0  0  0  0  0  0  0  0  0  0  0  0
   25.3259  -21.4214  -10.4514 N   0  0  0  0  0  0  0  0  0  0  0  0
   25.2330  -21.4870  -11.8850 C   0  0  0  0  0  0  0  0  0  0  0  0
   23.9034  -20.9905  -12.3089 C   0  0  0  0  0  0  0  0  0  0  0  0
   23.0007  -20.8848  -11.4407 O   0  0  0  0  0  0  0  0  0  0  0  0
   22.8964  -18.1039  -17.2051 C   0  0  0  0  0  0  0  0  0  0  0  0
   22.3452  -18.3646  -15.7977 C   0  0  2  0  0  0  0  0  0  0  0  0
   23.2827  -17.6552  -14.8187 C   0  0  0  0  0  0  0  0  0  0  0  0
   22.4301  -19.8272  -15.5602 C   0  0  0  0  0  0  0  0  0  0  0  0
   22.3044  -20.2452  -14.1250 C   0  0  2  0  0  0  0  0  0  0  0  0
   23.6201  -20.6319  -13.6627 N   0  0  0  0  0  0  0  0  0  0  0  0
   21.2787  -21.2422  -13.8520 C   0  0  0  0  0  0  0  0  0  0  0  0
   21.5013  -22.4512  -14.0416 O   0  0  0  0  0  0  0  0  0  0  0  0
   20.0450  -20.8593  -13.3790 O   0  0  0  0  0  0  0  0  0  0  0  0
  2  1  1  0
  3  2  1  0
  4  5  1  0
  4  3  1  0
  5  6  1  1
  7  5  1  0
  7  8  2  0
  9  7  1  0
 10  9  1  0
 10 11  1  0
 11 18  1  0
 12 11  2  0
 14 13  1  6
 14 15  1  0
 16 14  1  0
 17 16  1  6
 17 19  1  0
 18 17  1  0
 19 21  1  0
 20 19  2  0
M  END
$$$$
