MGL.pdb
     RDKit          3D

 21 20  0  0  1  0  0  0  0  0999 V2000
   27.0673  -15.1366  -14.2632 C   0  0  0  0  0  0  0  0  0  0  0  0
   26.5419  -15.5597  -15.9161 S   0  0  0  0  0  0  0  0  0  0  0  0
   25.5357  -17.0214  -15.9731 C   0  0  0  0  0  0  0  0  0  0  0  0
   26.1253  -18.2076  -15.2984 C   0  0  0  0  0  0  0  0  0  0  0  0
   25.3043  -19.4487  -15.2795 C   0  0  2  0  0  0  0  0  0  0  0  0
   23.9914  -19.2572  -14.7174 N   0  0  0  0  0  0  0  0  0  0  0  0
   25.9955  -20.5421  -14.5017 C   0  0  0  0  0  0  0  0  0  0  0  0
   27.1811  -20.8273  -14.8513 O   0  0  0  0  0  0  0  0  0  0  0  0
   25.3110  -21.1839  -13.4462 N   0  0  0  0  0  0  0  0  0  0  0  0
   25.9905  -22.1868  -12.6713 C   0  0  0  0  0  0  0  0  0  0  0  0
   26.8024  -21.5243  -11.6243 C   0  0  0  0  0  0  0  0  0  0  0  0
   28.0134  -21.8430  -11.5166 O   0  0  0  0  0  0  0  0  0  0  0  0
   27.3334  -18.4451   -6.5619 C   0  0  0  0  0  0  0  0  0  0  0  0
   26.9213  -19.8029   -7.1441 C   0  0  2  0  0  0  0  0  0  0  0  0
   28.0882  -20.7610   -6.8968 C   0  0  0  0  0  0  0  0  0  0  0  0
   26.7608  -19.6191   -8.6081 C   0  0  0  0  0  0  0  0  0  0  0  0
   26.0882  -20.7553   -9.3201 C   0  0  2  0  0  0  0  0  0  0  0  0
   26.2541  -20.5432  -10.7421 N   0  0  0  0  0  0  0  0  0  0  0  0
   24.7082  -21.0080   -8.9298 C   0  0  0  0  0  0  0  0  0  0  0  0
   23.7656  -20.4966   -9.5602 O   0  0  0  0  0  0  0  0  0  0  0  0
   24.4268  -21.8186   -7.8546 O   0  0  0  0  0  0  0  0  0  0  0  0
  2  1  1  0
  3  2  1  0
  4  5  1  0
  4  3  1  0
  5  6  1  1
  7  5  1  0
  7  8  2  0
  9  7  1  0
 10  9  1  0
 10 11  1  0
 11 18  1  0
 12 11  2  0
 14 13  1  1
 14 15  1  0
 16 14  1  0
 17 16  1  1
 17 19  1  0
 18 17  1  0
 19 21  1  0
 20 19  2  0
M  END
$$$$
