NLE.pdb
     RDKit          3D

 26 25  0  0  1  0  0  0  0  0999 V2000
   28.2981  -20.7114  -17.1182 N   0  0  0  0  0  0  0  0  0  0  0  0
   28.5317  -21.8099  -16.2500 C   0  0  0  0  0  0  0  0  0  0  0  0
   29.5120  -22.5823  -16.3550 O   0  0  0  0  0  0  0  0  0  0  0  0
   27.5590  -22.0479  -15.1647 C   0  0  0  0  0  0  0  0  0  0  0  0
   26.4145  -21.0603  -15.1955 C   0  0  2  0  0  0  0  0  0  0  0  0
   26.9331  -19.7515  -14.9184 N   0  0  0  0  0  0  0  0  0  0  0  0
   25.4231  -21.4921  -14.1577 C   0  0  0  0  0  0  0  0  0  0  0  0
   24.9459  -22.6672  -14.2437 O   0  0  0  0  0  0  0  0  0  0  0  0
   25.6007  -19.9358   -8.8033 C   0  0  0  0  0  0  0  0  0  0  0  0
   25.5986  -20.5632  -10.1784 C   0  0  1  0  0  0  0  0  0  0  0  0
   26.1570  -21.9801   -9.9828 C   0  0  0  0  0  0  0  0  0  0  0  0
   24.2490  -20.5863  -10.7671 C   0  0  0  0  0  0  0  0  0  0  0  0
   24.0851  -20.9997  -12.1719 C   0  0  2  0  0  0  0  0  0  0  0  0
   25.0458  -20.5980  -13.1231 N   0  0  0  0  0  0  0  0  0  0  0  0
   22.7383  -20.5772  -12.7224 C   0  0  0  0  0  0  0  0  0  0  0  0
   22.3836  -19.3741  -12.7739 O   0  0  0  0  0  0  0  0  0  0  0  0
   21.8258  -21.5497  -13.2032 N   0  0  0  0  0  0  0  0  0  0  0  0
   20.4597  -21.1868  -13.6605 C   0  0  1  0  0  0  0  0  0  0  0  0
   20.2017  -21.9642  -14.9061 C   0  0  0  0  0  0  0  0  0  0  0  0
   21.1854  -21.6502  -15.9746 C   0  0  0  0  0  0  0  0  0  0  0  0
   20.7636  -20.5025  -16.7791 C   0  0  0  0  0  0  0  0  0  0  0  0
   19.6013  -20.2141  -17.0960 O   0  0  0  0  0  0  0  0  0  0  0  0
   19.5214  -21.4593  -12.5526 C   0  0  0  0  0  0  0  0  0  0  0  0
   19.7509  -22.3206  -11.6884 O   0  0  0  0  0  0  0  0  0  0  0  0
   21.7782  -19.6344  -17.2428 O   0  0  0  0  0  0  0  0  0  0  0  0
   18.3443  -20.7194  -12.4859 O   0  0  0  0  0  0  0  0  0  0  0  0
  2  1  1  0
  2  3  2  0
  4  5  1  0
  4  2  1  0
  5  7  1  0
  5  6  1  1
  7 14  1  0
  7  8  2  0
 10  9  1  1
 10 11  1  0
 12 10  1  0
 13 15  1  0
 13 12  1  1
 14 13  1  0
 15 16  2  0
 17 18  1  0
 17 15  1  0
 19 20  1  0
 18 19  1  6
 20 21  1  0
 21 25  1  0
 21 22  2  0
 23 18  1  0
 23 26  1  0
 24 23  2  0
M  END
$$$$
