NLE.pdb
     RDKit          3D

 26 25  0  0  1  0  0  0  0  0999 V2000
   21.3754  -14.6108  -21.5757 N   0  0  0  0  0  0  0  0  0  0  0  0
   20.6594  -13.4307  -21.2439 C   0  0  0  0  0  0  0  0  0  0  0  0
   19.7534  -12.9437  -21.9583 O   0  0  0  0  0  0  0  0  0  0  0  0
   21.0093  -12.7454  -19.9834 C   0  0  0  0  0  0  0  0  0  0  0  0
   22.0884  -13.4752  -19.2159 C   0  0  2  0  0  0  0  0  0  0  0  0
   21.5050  -14.6280  -18.5922 N   0  0  0  0  0  0  0  0  0  0  0  0
   22.6404  -12.5193  -18.2021 C   0  0  0  0  0  0  0  0  0  0  0  0
   21.9282  -12.2571  -17.1823 O   0  0  0  0  0  0  0  0  0  0  0  0
   26.3304  -10.7239  -14.9340 C   0  0  0  0  0  0  0  0  0  0  0  0
   26.4617  -10.0345  -16.2727 C   0  0  1  0  0  0  0  0  0  0  0  0
   27.9659   -9.7897  -16.4613 C   0  0  0  0  0  0  0  0  0  0  0  0
   25.9014  -10.8484  -17.3645 C   0  0  0  0  0  0  0  0  0  0  0  0
   24.4452  -11.0655  -17.4240 C   0  0  2  0  0  0  0  0  0  0  0  0
   23.9197  -11.9389  -18.3988 N   0  0  0  0  0  0  0  0  0  0  0  0
   23.6939   -9.7584  -17.5741 C   0  0  0  0  0  0  0  0  0  0  0  0
   23.6863   -9.1101  -18.6490 O   0  0  0  0  0  0  0  0  0  0  0  0
   22.9654   -9.2234  -16.4820 N   0  0  0  0  0  0  0  0  0  0  0  0
   22.2230   -7.9408  -16.5859 C   0  0  1  0  0  0  0  0  0  0  0  0
   20.9650   -8.2306  -17.3316 C   0  0  0  0  0  0  0  0  0  0  0  0
   20.0720   -7.0450  -17.4029 C   0  0  0  0  0  0  0  0  0  0  0  0
   18.8378   -7.3394  -18.1324 C   0  0  0  0  0  0  0  0  0  0  0  0
   18.5076   -8.4350  -18.6068 O   0  0  0  0  0  0  0  0  0  0  0  0
   22.0279   -7.4155  -15.2191 C   0  0  0  0  0  0  0  0  0  0  0  0
   22.2439   -8.1043  -14.2090 O   0  0  0  0  0  0  0  0  0  0  0  0
   17.9294   -6.2722  -18.3167 O   0  0  0  0  0  0  0  0  0  0  0  0
   21.5872   -6.1035  -15.0716 O   0  0  0  0  0  0  0  0  0  0  0  0
  2  1  1  0
  2  3  2  0
  4  5  1  0
  4  2  1  0
  5  7  1  0
  5  6  1  1
  7 14  1  0
  7  8  2  0
 10  9  1  1
 10 11  1  0
 12 10  1  0
 13 15  1  0
 13 12  1  6
 14 13  1  0
 15 16  2  0
 17 18  1  0
 17 15  1  0
 19 20  1  0
 18 19  1  1
 20 21  1  0
 21 25  1  0
 21 22  2  0
 23 18  1  0
 23 26  1  0
 24 23  2  0
M  END
$$$$
