NLE.pdb
     RDKit          3D

 26 25  0  0  1  0  0  0  0  0999 V2000
   18.4728  -13.7251  -19.2916 N   0  0  0  0  0  0  0  0  0  0  0  0
   19.8128  -13.2569  -19.3073 C   0  0  0  0  0  0  0  0  0  0  0  0
   20.6318  -13.5249  -20.2160 O   0  0  0  0  0  0  0  0  0  0  0  0
   20.2575  -12.4065  -18.1848 C   0  0  0  0  0  0  0  0  0  0  0  0
   21.6584  -12.7471  -17.7291 C   0  0  2  0  0  0  0  0  0  0  0  0
   21.6127  -13.9781  -16.9936 N   0  0  0  0  0  0  0  0  0  0  0  0
   22.1396  -11.6123  -16.8765 C   0  0  0  0  0  0  0  0  0  0  0  0
   21.4529  -11.3056  -15.8517 O   0  0  0  0  0  0  0  0  0  0  0  0
   27.6527  -10.1632  -16.4881 C   0  0  0  0  0  0  0  0  0  0  0  0
   26.2395  -10.6686  -16.3091 C   0  0  1  0  0  0  0  0  0  0  0  0
   26.2170  -11.3413  -14.9290 C   0  0  0  0  0  0  0  0  0  0  0  0
   25.2532   -9.5789  -16.4000 C   0  0  0  0  0  0  0  0  0  0  0  0
   23.8168   -9.9063  -16.3737 C   0  0  2  0  0  0  0  0  0  0  0  0
   23.3268  -10.9185  -17.2248 N   0  0  0  0  0  0  0  0  0  0  0  0
   22.9627   -8.6819  -16.6325 C   0  0  0  0  0  0  0  0  0  0  0  0
   22.7631   -8.2372  -17.7892 O   0  0  0  0  0  0  0  0  0  0  0  0
   22.3546   -7.9936  -15.5527 N   0  0  0  0  0  0  0  0  0  0  0  0
   21.5385   -6.7698  -15.7612 C   0  0  1  0  0  0  0  0  0  0  0  0
   20.1175   -7.2106  -15.8557 C   0  0  0  0  0  0  0  0  0  0  0  0
   19.1808   -6.0608  -15.9486 C   0  0  0  0  0  0  0  0  0  0  0  0
   17.7840   -6.4981  -15.9434 C   0  0  0  0  0  0  0  0  0  0  0  0
   17.3797   -7.6670  -15.8749 O   0  0  0  0  0  0  0  0  0  0  0  0
   21.8268   -5.8361  -14.6534 C   0  0  0  0  0  0  0  0  0  0  0  0
   22.3546   -6.2101  -13.5937 O   0  0  0  0  0  0  0  0  0  0  0  0
   16.7947   -5.4917  -16.0243 O   0  0  0  0  0  0  0  0  0  0  0  0
   21.4912   -4.4949  -14.8148 O   0  0  0  0  0  0  0  0  0  0  0  0
  2  1  1  0
  2  3  2  0
  4  5  1  0
  4  2  1  0
  5  7  1  0
  5  6  1  1
  7 14  1  0
  7  8  2  0
 10  9  1  1
 10 11  1  0
 12 10  1  0
 13 15  1  0
 13 12  1  6
 14 13  1  0
 15 16  2  0
 17 18  1  0
 17 15  1  0
 19 20  1  0
 18 19  1  1
 20 21  1  0
 21 25  1  0
 21 22  2  0
 23 18  1  0
 23 26  1  0
 24 23  2  0
M  END
$$$$
