NLE.pdb
     RDKit          3D

 26 25  0  0  1  0  0  0  0  0999 V2000
   18.9301  -14.3686  -16.0622 N   0  0  0  0  0  0  0  0  0  0  0  0
   19.0831  -13.0297  -16.5082 C   0  0  0  0  0  0  0  0  0  0  0  0
   18.3483  -12.4964  -17.3707 O   0  0  0  0  0  0  0  0  0  0  0  0
   20.1728  -12.2278  -15.9162 C   0  0  0  0  0  0  0  0  0  0  0  0
   20.7053  -11.1887  -16.8769 C   0  0  2  0  0  0  0  0  0  0  0  0
   21.3264  -11.8629  -17.9806 N   0  0  0  0  0  0  0  0  0  0  0  0
   21.6873  -10.3440  -16.1229 C   0  0  0  0  0  0  0  0  0  0  0  0
   21.3283   -9.8770  -14.9964 O   0  0  0  0  0  0  0  0  0  0  0  0
   27.3198  -10.7827  -16.3980 C   0  0  0  0  0  0  0  0  0  0  0  0
   25.8589  -10.7395  -16.0126 C   0  0  1  0  0  0  0  0  0  0  0  0
   25.8040  -11.2347  -14.5601 C   0  0  0  0  0  0  0  0  0  0  0  0
   25.2973   -9.3849  -16.1478 C   0  0  0  0  0  0  0  0  0  0  0  0
   23.8421   -9.1944  -16.0166 C   0  0  2  0  0  0  0  0  0  0  0  0
   22.9700  -10.0884  -16.6718 N   0  0  0  0  0  0  0  0  0  0  0  0
   23.4231   -7.8020  -16.4422 C   0  0  0  0  0  0  0  0  0  0  0  0
   23.4819   -7.4209  -17.6368 O   0  0  0  0  0  0  0  0  0  0  0  0
   22.9439   -6.8753  -15.4824 N   0  0  0  0  0  0  0  0  0  0  0  0
   22.4672   -5.5219  -15.8671 C   0  0  1  0  0  0  0  0  0  0  0  0
   21.0883   -5.6886  -16.4086 C   0  0  0  0  0  0  0  0  0  0  0  0
   20.1238   -6.1124  -15.3605 C   0  0  0  0  0  0  0  0  0  0  0  0
   18.7710   -6.2637  -15.8984 C   0  0  0  0  0  0  0  0  0  0  0  0
   17.9535   -5.3549  -16.0986 O   0  0  0  0  0  0  0  0  0  0  0  0
   22.5668   -4.6494  -14.6792 C   0  0  0  0  0  0  0  0  0  0  0  0
   22.8593   -5.0917  -13.5566 O   0  0  0  0  0  0  0  0  0  0  0  0
   18.3508   -7.5737  -16.2231 O   0  0  0  0  0  0  0  0  0  0  0  0
   22.3224   -3.2881  -14.8362 O   0  0  0  0  0  0  0  0  0  0  0  0
  2  1  1  0
  2  3  2  0
  4  5  1  0
  4  2  1  0
  5  7  1  0
  5  6  1  6
  7 14  1  0
  7  8  2  0
 10  9  1  1
 10 11  1  0
 12 10  1  0
 13 15  1  0
 13 12  1  6
 14 13  1  0
 15 16  2  0
 17 18  1  0
 17 15  1  0
 19 20  1  0
 18 19  1  1
 20 21  1  0
 21 25  1  0
 21 22  2  0
 23 18  1  0
 23 26  1  0
 24 23  2  0
M  END
$$$$
