NLE.pdb
     RDKit          3D

 26 25  0  0  1  0  0  0  0  0999 V2000
   19.9928  -13.0700  -20.5418 N   0  0  0  0  0  0  0  0  0  0  0  0
   18.9331  -12.9968  -19.6002 C   0  0  0  0  0  0  0  0  0  0  0  0
   17.8468  -13.6068  -19.7276 O   0  0  0  0  0  0  0  0  0  0  0  0
   19.1314  -12.1511  -18.4058 C   0  0  0  0  0  0  0  0  0  0  0  0
   20.4226  -12.4705  -17.6867 C   0  0  2  0  0  0  0  0  0  0  0  0
   20.2279  -13.6573  -16.9043 N   0  0  0  0  0  0  0  0  0  0  0  0
   20.7585  -11.2908  -16.8255 C   0  0  0  0  0  0  0  0  0  0  0  0
   19.9538  -10.9899  -15.8886 O   0  0  0  0  0  0  0  0  0  0  0  0
   25.8966   -9.9079  -14.9966 C   0  0  0  0  0  0  0  0  0  0  0  0
   24.4291  -10.2493  -15.1173 C   0  0  1  0  0  0  0  0  0  0  0  0
   23.9123  -10.3502  -13.6749 C   0  0  0  0  0  0  0  0  0  0  0  0
   23.6931   -9.2344  -15.8898 C   0  0  0  0  0  0  0  0  0  0  0  0
   22.2778   -9.4727  -16.2234 C   0  0  2  0  0  0  0  0  0  0  0  0
   21.9431  -10.5498  -17.0701 N   0  0  0  0  0  0  0  0  0  0  0  0
   21.6337   -8.2410  -16.8265 C   0  0  0  0  0  0  0  0  0  0  0  0
   21.7789   -7.9331  -18.0347 O   0  0  0  0  0  0  0  0  0  0  0  0
   20.8343   -7.3876  -16.0251 N   0  0  0  0  0  0  0  0  0  0  0  0
   20.2028   -6.1597  -16.5732 C   0  0  1  0  0  0  0  0  0  0  0  0
   18.9899   -5.8940  -15.7481 C   0  0  0  0  0  0  0  0  0  0  0  0
   18.2431   -4.6995  -16.2209 C   0  0  0  0  0  0  0  0  0  0  0  0
   17.0753   -4.4239  -15.3828 C   0  0  0  0  0  0  0  0  0  0  0  0
   16.7931   -3.3432  -14.8473 O   0  0  0  0  0  0  0  0  0  0  0  0
   21.2131   -5.0821  -16.5574 C   0  0  0  0  0  0  0  0  0  0  0  0
   22.1104   -5.0296  -15.7009 O   0  0  0  0  0  0  0  0  0  0  0  0
   16.1775   -5.4926  -15.1592 O   0  0  0  0  0  0  0  0  0  0  0  0
   21.1466   -4.0988  -17.5402 O   0  0  0  0  0  0  0  0  0  0  0  0
  2  1  1  0
  2  3  2  0
  4  5  1  0
  4  2  1  0
  5  7  1  0
  5  6  1  1
  7 14  1  0
  7  8  2  0
 10  9  1  1
 10 11  1  0
 12 10  1  0
 13 15  1  0
 13 12  1  6
 14 13  1  0
 15 16  2  0
 17 18  1  0
 17 15  1  0
 19 20  1  0
 18 19  1  1
 20 21  1  0
 21 25  1  0
 21 22  2  0
 23 18  1  0
 23 26  1  0
 24 23  2  0
M  END
$$$$
