NLE.pdb
     RDKit          3D

 26 25  0  0  1  0  0  0  0  0999 V2000
   32.1214   -7.2740  -19.4615 N   0  0  0  0  0  0  0  0  0  0  0  0
   30.9126   -6.5922  -19.1631 C   0  0  0  0  0  0  0  0  0  0  0  0
   30.8398   -5.3559  -18.9774 O   0  0  0  0  0  0  0  0  0  0  0  0
   29.6760   -7.3940  -19.0683 C   0  0  0  0  0  0  0  0  0  0  0  0
   29.9335   -8.8694  -19.2752 C   0  0  2  0  0  0  0  0  0  0  0  0
   30.2116   -9.0940  -20.6647 N   0  0  0  0  0  0  0  0  0  0  0  0
   28.7046   -9.6043  -18.8325 C   0  0  0  0  0  0  0  0  0  0  0  0
   27.8129   -9.8511  -19.7042 O   0  0  0  0  0  0  0  0  0  0  0  0
   25.7329  -13.3777  -16.8054 C   0  0  0  0  0  0  0  0  0  0  0  0
   26.3493  -12.5567  -15.6960 C   0  0  1  0  0  0  0  0  0  0  0  0
   26.6673  -13.5567  -14.5750 C   0  0  0  0  0  0  0  0  0  0  0  0
   27.5559  -11.8441  -16.1485 C   0  0  0  0  0  0  0  0  0  0  0  0
   27.4133  -10.7056  -17.0730 C   0  0  2  0  0  0  0  0  0  0  0  0
   28.5656  -10.0001  -17.4775 N   0  0  0  0  0  0  0  0  0  0  0  0
   26.4469   -9.6701  -16.5351 C   0  0  0  0  0  0  0  0  0  0  0  0
   26.7774   -8.8403  -15.6531 O   0  0  0  0  0  0  0  0  0  0  0  0
   25.1177   -9.6108  -17.0244 N   0  0  0  0  0  0  0  0  0  0  0  0
   24.1658   -8.5578  -16.5863 C   0  0  1  0  0  0  0  0  0  0  0  0
   23.2580   -8.2913  -17.7384 C   0  0  0  0  0  0  0  0  0  0  0  0
   22.2055   -7.2977  -17.4024 C   0  0  0  0  0  0  0  0  0  0  0  0
   21.3833   -6.9647  -18.5666 C   0  0  0  0  0  0  0  0  0  0  0  0
   21.5173   -7.4125  -19.7137 O   0  0  0  0  0  0  0  0  0  0  0  0
   23.4914   -9.0346  -15.3615 C   0  0  0  0  0  0  0  0  0  0  0  0
   23.2472  -10.2361  -15.1663 O   0  0  0  0  0  0  0  0  0  0  0  0
   20.3312   -6.0417  -18.3681 O   0  0  0  0  0  0  0  0  0  0  0  0
   23.1225   -8.0963  -14.4018 O   0  0  0  0  0  0  0  0  0  0  0  0
  2  1  1  0
  2  3  2  0
  4  5  1  0
  4  2  1  0
  5  7  1  0
  5  6  1  6
  7 14  1  0
  7  8  2  0
 10  9  1  6
 10 11  1  0
 12 10  1  0
 13 15  1  0
 13 12  1  1
 14 13  1  0
 15 16  2  0
 17 18  1  0
 17 15  1  0
 19 20  1  0
 18 19  1  6
 20 21  1  0
 21 25  1  0
 21 22  2  0
 23 18  1  0
 23 26  1  0
 24 23  2  0
M  END
$$$$
