NLE.pdb
     RDKit          3D

 26 25  0  0  1  0  0  0  0  0999 V2000
   18.6380  -23.9863  -14.2116 N   0  0  0  0  0  0  0  0  0  0  0  0
   18.2429  -22.6453  -13.9654 C   0  0  0  0  0  0  0  0  0  0  0  0
   17.0696  -22.3066  -13.6875 O   0  0  0  0  0  0  0  0  0  0  0  0
   19.2802  -21.5972  -14.0435 C   0  0  0  0  0  0  0  0  0  0  0  0
   20.1981  -21.6101  -12.8420 C   0  0  2  0  0  0  0  0  0  0  0  0
   19.4913  -21.0596  -11.7214 N   0  0  0  0  0  0  0  0  0  0  0  0
   21.4033  -20.7904  -13.1911 C   0  0  0  0  0  0  0  0  0  0  0  0
   21.3051  -19.5254  -13.1131 O   0  0  0  0  0  0  0  0  0  0  0  0
   26.5738  -21.8041  -11.4064 C   0  0  0  0  0  0  0  0  0  0  0  0
   25.2096  -21.2715  -11.7806 C   0  0  1  0  0  0  0  0  0  0  0  0
   25.0982  -19.9068  -11.0857 C   0  0  0  0  0  0  0  0  0  0  0  0
   25.0495  -21.1544  -13.2397 C   0  0  0  0  0  0  0  0  0  0  0  0
   23.7714  -20.6641  -13.7849 C   0  0  2  0  0  0  0  0  0  0  0  0
   22.6032  -21.4309  -13.5936 N   0  0  0  0  0  0  0  0  0  0  0  0
   23.8672  -20.3982  -15.2734 C   0  0  0  0  0  0  0  0  0  0  0  0
   23.8196  -21.3212  -16.1228 O   0  0  0  0  0  0  0  0  0  0  0  0
   24.0159  -19.0731  -15.7545 N   0  0  0  0  0  0  0  0  0  0  0  0
   24.0978  -18.7691  -17.2064 C   0  0  1  0  0  0  0  0  0  0  0  0
   23.6809  -17.3475  -17.3730 C   0  0  0  0  0  0  0  0  0  0  0  0
   23.6904  -16.9257  -18.7978 C   0  0  0  0  0  0  0  0  0  0  0  0
   23.3034  -15.5224  -18.9501 C   0  0  0  0  0  0  0  0  0  0  0  0
   23.6552  -14.5801  -18.2271 O   0  0  0  0  0  0  0  0  0  0  0  0
   25.4715  -19.0706  -17.6579 C   0  0  0  0  0  0  0  0  0  0  0  0
   25.7217  -19.4308  -18.8195 O   0  0  0  0  0  0  0  0  0  0  0  0
   22.4438  -15.2055  -20.0264 O   0  0  0  0  0  0  0  0  0  0  0  0
   26.5117  -18.9431  -16.7418 O   0  0  0  0  0  0  0  0  0  0  0  0
  2  1  1  0
  2  3  2  0
  4  5  1  0
  4  2  1  0
  5  7  1  0
  5  6  1  1
  7 14  1  0
  7  8  2  0
 10  9  1  6
 10 11  1  0
 12 10  1  0
 13 15  1  0
 13 12  1  6
 14 13  1  0
 15 16  2  0
 17 18  1  0
 17 15  1  0
 19 20  1  0
 18 19  1  1
 20 21  1  0
 21 25  1  0
 21 22  2  0
 23 18  1  0
 23 26  1  0
 24 23  2  0
M  END
$$$$
