NLE.pdb
     RDKit          3D

 26 25  0  0  1  0  0  0  0  0999 V2000
   24.2057  -19.2548  -18.2179 N   0  0  0  0  0  0  0  0  0  0  0  0
   24.1945  -17.9150  -17.7490 C   0  0  0  0  0  0  0  0  0  0  0  0
   23.3183  -17.0767  -18.0618 O   0  0  0  0  0  0  0  0  0  0  0  0
   25.2811  -17.4947  -16.8415 C   0  0  0  0  0  0  0  0  0  0  0  0
   26.2366  -18.6248  -16.5312 C   0  0  2  0  0  0  0  0  0  0  0  0
   26.6028  -19.2642  -17.7622 N   0  0  0  0  0  0  0  0  0  0  0  0
   25.5275  -19.5692  -15.6083 C   0  0  0  0  0  0  0  0  0  0  0  0
   25.1661  -20.6958  -16.0731 O   0  0  0  0  0  0  0  0  0  0  0  0
   25.4447  -22.5303  -11.3348 C   0  0  0  0  0  0  0  0  0  0  0  0
   24.8666  -21.1704  -11.0167 C   0  0  1  0  0  0  0  0  0  0  0  0
   25.3155  -20.8603   -9.5814 C   0  0  0  0  0  0  0  0  0  0  0  0
   25.3291  -20.1438  -11.9658 C   0  0  0  0  0  0  0  0  0  0  0  0
   24.8124  -20.1564  -13.3456 C   0  0  2  0  0  0  0  0  0  0  0  0
   25.2795  -19.1928  -14.2634 N   0  0  0  0  0  0  0  0  0  0  0  0
   23.2998  -20.0732  -13.3737 C   0  0  0  0  0  0  0  0  0  0  0  0
   22.6722  -19.1171  -12.8564 O   0  0  0  0  0  0  0  0  0  0  0  0
   22.5394  -21.0939  -13.9980 N   0  0  0  0  0  0  0  0  0  0  0  0
   21.0541  -21.0699  -14.0116 C   0  0  1  0  0  0  0  0  0  0  0  0
   20.6257  -21.6532  -15.3150 C   0  0  0  0  0  0  0  0  0  0  0  0
   20.8386  -20.7122  -16.4451 C   0  0  0  0  0  0  0  0  0  0  0  0
   19.7433  -19.7484  -16.5614 C   0  0  0  0  0  0  0  0  0  0  0  0
   18.5402  -20.0144  -16.6882 O   0  0  0  0  0  0  0  0  0  0  0  0
   20.5760  -21.7977  -12.8183 C   0  0  0  0  0  0  0  0  0  0  0  0
   21.2696  -22.6515  -12.2426 O   0  0  0  0  0  0  0  0  0  0  0  0
   20.0864  -18.3775  -16.5259 O   0  0  0  0  0  0  0  0  0  0  0  0
   19.3042  -21.5080  -12.3325 O   0  0  0  0  0  0  0  0  0  0  0  0
  2  1  1  0
  2  3  2  0
  4  5  1  0
  4  2  1  0
  5  7  1  0
  5  6  1  6
  7 14  1  0
  7  8  2  0
 10  9  1  6
 10 11  1  0
 12 10  1  0
 13 15  1  0
 13 12  1  1
 14 13  1  0
 15 16  2  0
 17 18  1  0
 17 15  1  0
 19 20  1  0
 18 19  1  6
 20 21  1  0
 21 25  1  0
 21 22  2  0
 23 18  1  0
 23 26  1  0
 24 23  2  0
M  END
$$$$
