PHN.pdb
     RDKit          3D

 26 27  0  0  1  0  0  0  0  0999 V2000
    9.1564  -12.7880   18.3947 N   0  0  0  0  0  0  0  0  0  0  0  0
    8.3886  -13.6457   17.5092 C   0  0  0  0  0  0  0  0  0  0  0  0
    7.0924  -13.7837   18.3109 C   0  0  0  0  0  0  0  0  0  0  0  0
    7.6519  -14.0924   19.6846 C   0  0  0  0  0  0  0  0  0  0  0  0
    9.0619  -13.4915   19.6579 C   0  0  1  0  0  0  0  0  0  0  0  0
   10.0874  -14.5609   19.6650 C   0  0  0  0  0  0  0  0  0  0  0  0
    9.8478  -15.6744   20.1930 O   0  0  0  0  0  0  0  0  0  0  0  0
   11.3771  -14.3731   19.0786 N   0  0  0  0  0  0  0  0  0  0  0  0
   12.5125  -15.1953   19.4224 C   0  0  1  0  0  0  0  0  0  0  0  0
   13.6453  -14.8247   18.4999 C   0  0  0  0  0  0  0  0  0  0  0  0
   13.3911  -15.2682   17.1063 C   0  0  0  0  0  0  0  0  0  0  0  0
   12.2705  -15.9930   16.7528 C   0  0  0  0  0  0  0  0  0  0  0  0
   12.3361  -16.2363   15.4290 N   0  0  0  0  0  0  0  0  0  0  0  0
   13.4622  -15.6845   14.9541 C   0  0  0  0  0  0  0  0  0  0  0  0
   14.0882  -15.1015   15.9900 N   0  0  0  0  0  0  0  0  0  0  0  0
   12.9349  -14.8547   20.8008 C   0  0  0  0  0  0  0  0  0  0  0  0
   12.2013  -14.1419   21.5270 O   0  0  0  0  0  0  0  0  0  0  0  0
   11.9178  -15.8414   24.0825 N   0  0  0  0  0  0  0  0  0  0  0  0
   12.0042  -17.0507   23.3483 C   0  0  0  0  0  0  0  0  0  0  0  0
   11.0794  -17.8878   23.4855 O   0  0  0  0  0  0  0  0  0  0  0  0
   13.1687  -17.2503   22.4731 C   0  0  0  0  0  0  0  0  0  0  0  0
   14.1647  -16.1200   22.5597 C   0  0  2  0  0  0  0  0  0  0  0  0
   14.1649  -15.3059   21.3627 N   0  0  0  0  0  0  0  0  0  0  0  0
   15.5268  -16.5723   22.8418 C   0  0  0  0  0  0  0  0  0  0  0  0
   16.3947  -15.9157   23.7073 O   0  0  0  0  0  0  0  0  0  0  0  0
   15.9662  -17.6074   22.2870 O   0  0  0  0  0  0  0  0  0  0  0  0
  1  2  1  0
  2  3  1  0
  4  3  1  0
  5  1  1  0
  5  4  1  0
  6  8  1  0
  5  6  1  6
  7  6  2  0
  9  8  1  0
  9 10  1  6
 10 11  1  0
 11 15  1  0
 12 11  2  0
 12 13  1  0
 13 14  1  0
 15 14  2  0
 16  9  1  0
 17 16  2  0
 18 19  1  0
 19 20  2  0
 19 21  1  0
 22 21  1  6
 22 24  1  0
 22 23  1  0
 23 16  1  0
 24 25  1  0
 26 24  2  0
M  END
$$$$
