PHN.pdb
     RDKit          3D

 26 27  0  0  1  0  0  0  0  0999 V2000
    8.1336  -14.2206   19.5890 N   0  0  0  0  0  0  0  0  0  0  0  0
    8.4651  -12.8173   19.4158 C   0  0  0  0  0  0  0  0  0  0  0  0
    7.8437  -12.5523   18.0426 C   0  0  0  0  0  0  0  0  0  0  0  0
    8.3570  -13.7527   17.2739 C   0  0  0  0  0  0  0  0  0  0  0  0
    8.6245  -14.8041   18.3569 C   0  0  1  0  0  0  0  0  0  0  0  0
   10.0791  -15.0409   18.5094 C   0  0  0  0  0  0  0  0  0  0  0  0
   10.8159  -15.1704   17.5012 O   0  0  0  0  0  0  0  0  0  0  0  0
   10.6981  -15.1309   19.7944 N   0  0  0  0  0  0  0  0  0  0  0  0
   12.0996  -15.4334   19.9606 C   0  0  1  0  0  0  0  0  0  0  0  0
   12.8894  -14.3273   19.3093 C   0  0  0  0  0  0  0  0  0  0  0  0
   13.5343  -14.7759   18.0498 C   0  0  0  0  0  0  0  0  0  0  0  0
   13.4774  -16.0847   17.6143 C   0  0  0  0  0  0  0  0  0  0  0  0
   14.1541  -16.1634   16.4517 N   0  0  0  0  0  0  0  0  0  0  0  0
   14.6269  -14.9441   16.1556 C   0  0  0  0  0  0  0  0  0  0  0  0
   14.2388  -14.1160   17.1397 N   0  0  0  0  0  0  0  0  0  0  0  0
   12.4139  -15.4086   21.4079 C   0  0  0  0  0  0  0  0  0  0  0  0
   12.3784  -14.3270   22.0423 O   0  0  0  0  0  0  0  0  0  0  0  0
   10.8955  -17.3333   25.7940 N   0  0  0  0  0  0  0  0  0  0  0  0
   10.0452  -17.1292   24.6785 C   0  0  0  0  0  0  0  0  0  0  0  0
    8.8059  -17.1917   24.8661 O   0  0  0  0  0  0  0  0  0  0  0  0
   10.6651  -16.8576   23.3732 C   0  0  0  0  0  0  0  0  0  0  0  0
   12.1726  -16.8354   23.4360 C   0  0  2  0  0  0  0  0  0  0  0  0
   12.7646  -16.5806   22.1397 N   0  0  0  0  0  0  0  0  0  0  0  0
   12.7441  -18.0575   24.0010 C   0  0  0  0  0  0  0  0  0  0  0  0
   13.2214  -18.1563   25.3033 O   0  0  0  0  0  0  0  0  0  0  0  0
   12.8219  -19.0918   23.2963 O   0  0  0  0  0  0  0  0  0  0  0  0
  1  2  1  0
  2  3  1  0
  4  3  1  0
  5  1  1  0
  5  4  1  0
  6  8  1  0
  5  6  1  1
  7  6  2  0
  9  8  1  0
  9 10  1  6
 10 11  1  0
 11 15  1  0
 12 11  2  0
 12 13  1  0
 13 14  1  0
 15 14  2  0
 16  9  1  0
 17 16  2  0
 18 19  1  0
 19 20  2  0
 19 21  1  0
 22 21  1  6
 22 24  1  0
 22 23  1  0
 23 16  1  0
 24 25  1  0
 26 24  2  0
M  END
$$$$
