PHN.pdb
     RDKit          3D

 26 27  0  0  1  0  0  0  0  0999 V2000
   10.1388  -17.0094   16.4926 N   0  0  0  0  0  0  0  0  0  0  0  0
    8.8721  -16.3346   16.2708 C   0  0  0  0  0  0  0  0  0  0  0  0
    9.1622  -15.6277   14.9449 C   0  0  0  0  0  0  0  0  0  0  0  0
   10.5199  -15.0269   15.2466 C   0  0  0  0  0  0  0  0  0  0  0  0
   11.0905  -15.9263   16.3490 C   0  0  1  0  0  0  0  0  0  0  0  0
   11.1550  -15.1985   17.6380 C   0  0  0  0  0  0  0  0  0  0  0  0
   11.7683  -14.1068   17.7270 O   0  0  0  0  0  0  0  0  0  0  0  0
   10.5296  -15.7019   18.8204 N   0  0  0  0  0  0  0  0  0  0  0  0
   10.6253  -15.0299   20.0943 C   0  0  1  0  0  0  0  0  0  0  0  0
    9.2590  -15.0521   20.7300 C   0  0  0  0  0  0  0  0  0  0  0  0
    8.2935  -14.1965   19.9958 C   0  0  0  0  0  0  0  0  0  0  0  0
    8.2190  -12.8314   20.1878 C   0  0  0  0  0  0  0  0  0  0  0  0
    7.2524  -12.3524   19.3803 N   0  0  0  0  0  0  0  0  0  0  0  0
    6.7276  -13.3791   18.6958 C   0  0  0  0  0  0  0  0  0  0  0  0
    7.3747  -14.4902   19.0850 N   0  0  0  0  0  0  0  0  0  0  0  0
   11.5322  -15.8112   20.9669 C   0  0  0  0  0  0  0  0  0  0  0  0
   11.4727  -17.0641   20.9772 O   0  0  0  0  0  0  0  0  0  0  0  0
   15.7287  -17.3070   22.6166 N   0  0  0  0  0  0  0  0  0  0  0  0
   15.7703  -15.9825   23.1193 C   0  0  0  0  0  0  0  0  0  0  0  0
   16.8869  -15.5154   23.4509 O   0  0  0  0  0  0  0  0  0  0  0  0
   14.5063  -15.2383   23.2215 C   0  0  0  0  0  0  0  0  0  0  0  0
   13.3283  -16.0116   22.6819 C   0  0  2  0  0  0  0  0  0  0  0  0
   12.4962  -15.1988   21.8201 N   0  0  0  0  0  0  0  0  0  0  0  0
   12.5037  -16.6119   23.7303 C   0  0  0  0  0  0  0  0  0  0  0  0
   12.6310  -17.9306   24.1525 O   0  0  0  0  0  0  0  0  0  0  0  0
   11.6233  -15.9243   24.2998 O   0  0  0  0  0  0  0  0  0  0  0  0
  1  2  1  0
  2  3  1  0
  4  3  1  0
  5  1  1  0
  5  4  1  0
  6  8  1  0
  5  6  1  1
  7  6  2  0
  9  8  1  0
  9 10  1  1
 10 11  1  0
 11 15  1  0
 12 11  2  0
 12 13  1  0
 13 14  1  0
 15 14  2  0
 16  9  1  0
 17 16  2  0
 18 19  1  0
 19 20  2  0
 19 21  1  0
 22 21  1  1
 22 24  1  0
 22 23  1  0
 23 16  1  0
 24 25  1  0
 26 24  2  0
M  END
$$$$
