PHN.pdb
     RDKit          3D

 26 27  0  0  1  0  0  0  0  0999 V2000
    9.2501  -15.7281   16.6159 N   0  0  0  0  0  0  0  0  0  0  0  0
    7.9499  -15.2499   17.0519 C   0  0  0  0  0  0  0  0  0  0  0  0
    7.7395  -14.0891   16.0773 C   0  0  0  0  0  0  0  0  0  0  0  0
    9.0868  -13.4029   16.1744 C   0  0  0  0  0  0  0  0  0  0  0  0
   10.0408  -14.5140   16.6272 C   0  0  1  0  0  0  0  0  0  0  0  0
   10.4986  -14.2777   18.0164 C   0  0  0  0  0  0  0  0  0  0  0  0
   11.3028  -13.3495   18.2764 O   0  0  0  0  0  0  0  0  0  0  0  0
   10.0499  -15.0862   19.1062 N   0  0  0  0  0  0  0  0  0  0  0  0
   10.6319  -15.0030   20.4244 C   0  0  1  0  0  0  0  0  0  0  0  0
    9.6348  -15.5666   21.4040 C   0  0  0  0  0  0  0  0  0  0  0  0
    8.3486  -14.8263   21.3716 C   0  0  0  0  0  0  0  0  0  0  0  0
    8.1549  -13.7132   20.5783 C   0  0  0  0  0  0  0  0  0  0  0  0
    6.8947  -13.2790   20.7757 N   0  0  0  0  0  0  0  0  0  0  0  0
    6.3041  -14.0891   21.6662 C   0  0  0  0  0  0  0  0  0  0  0  0
    7.2053  -15.0224   22.0152 N   0  0  0  0  0  0  0  0  0  0  0  0
   11.8296  -15.8739   20.4615 C   0  0  0  0  0  0  0  0  0  0  0  0
   12.1299  -16.5757   19.4661 O   0  0  0  0  0  0  0  0  0  0  0  0
   16.1592  -16.0415   19.6626 N   0  0  0  0  0  0  0  0  0  0  0  0
   15.5137  -14.7796   19.6694 C   0  0  0  0  0  0  0  0  0  0  0  0
   15.8839  -13.9265   18.8268 O   0  0  0  0  0  0  0  0  0  0  0  0
   14.4525  -14.5476   20.6603 C   0  0  0  0  0  0  0  0  0  0  0  0
   14.1134  -15.7858   21.4533 C   0  0  2  0  0  0  0  0  0  0  0  0
   12.6837  -15.9601   21.5996 N   0  0  0  0  0  0  0  0  0  0  0  0
   14.7455  -15.8170   22.7720 C   0  0  0  0  0  0  0  0  0  0  0  0
   14.0545  -15.6300   23.9641 O   0  0  0  0  0  0  0  0  0  0  0  0
   15.9790  -16.0218   22.8662 O   0  0  0  0  0  0  0  0  0  0  0  0
  1  2  1  0
  2  3  1  0
  4  3  1  0
  5  1  1  0
  5  4  1  0
  6  8  1  0
  5  6  1  1
  7  6  2  0
  9  8  1  0
  9 10  1  1
 10 11  1  0
 11 15  1  0
 12 11  2  0
 12 13  1  0
 13 14  1  0
 15 14  2  0
 16  9  1  0
 17 16  2  0
 18 19  1  0
 19 20  2  0
 19 21  1  0
 22 21  1  1
 22 24  1  0
 22 23  1  0
 23 16  1  0
 24 25  1  0
 26 24  2  0
M  END
$$$$
