PHN.pdb
     RDKit          3D

 26 27  0  0  1  0  0  0  0  0999 V2000
    8.2502  -13.8816   17.8148 N   0  0  0  0  0  0  0  0  0  0  0  0
    7.3435  -14.2863   18.8747 C   0  0  0  0  0  0  0  0  0  0  0  0
    7.2022  -12.9676   19.6382 C   0  0  0  0  0  0  0  0  0  0  0  0
    8.6557  -12.5519   19.7373 C   0  0  0  0  0  0  0  0  0  0  0  0
    9.3291  -13.2614   18.5571 C   0  0  1  0  0  0  0  0  0  0  0  0
   10.2318  -14.3340   19.0364 C   0  0  0  0  0  0  0  0  0  0  0  0
    9.8272  -15.5190   19.1260 O   0  0  0  0  0  0  0  0  0  0  0  0
   11.5849  -14.0690   19.4125 N   0  0  0  0  0  0  0  0  0  0  0  0
   12.5117  -15.1182   19.7640 C   0  0  1  0  0  0  0  0  0  0  0  0
   13.9003  -14.5328   19.7397 C   0  0  0  0  0  0  0  0  0  0  0  0
   14.5591  -14.7264   18.4237 C   0  0  0  0  0  0  0  0  0  0  0  0
   13.9748  -15.4482   17.4023 C   0  0  0  0  0  0  0  0  0  0  0  0
   14.8190  -15.4365   16.3521 N   0  0  0  0  0  0  0  0  0  0  0  0
   15.9065  -14.7300   16.6932 C   0  0  0  0  0  0  0  0  0  0  0  0
   15.7278  -14.3077   17.9559 N   0  0  0  0  0  0  0  0  0  0  0  0
   12.2333  -15.5395   21.1566 C   0  0  0  0  0  0  0  0  0  0  0  0
   11.7717  -14.7171   21.9837 O   0  0  0  0  0  0  0  0  0  0  0  0
   11.4242  -18.1833   25.4396 N   0  0  0  0  0  0  0  0  0  0  0  0
   11.1448  -19.0673   24.3675 C   0  0  0  0  0  0  0  0  0  0  0  0
   10.6121  -20.1705   24.6401 O   0  0  0  0  0  0  0  0  0  0  0  0
   11.4950  -18.6394   23.0051 C   0  0  0  0  0  0  0  0  0  0  0  0
   12.0806  -17.2494   22.9621 C   0  0  2  0  0  0  0  0  0  0  0  0
   12.4684  -16.8667   21.6209 N   0  0  0  0  0  0  0  0  0  0  0  0
   13.2169  -17.0743   23.8665 C   0  0  0  0  0  0  0  0  0  0  0  0
   14.4948  -16.7272   23.4424 O   0  0  0  0  0  0  0  0  0  0  0  0
   13.0620  -17.2397   25.0998 O   0  0  0  0  0  0  0  0  0  0  0  0
  1  2  1  0
  2  3  1  0
  4  3  1  0
  5  1  1  0
  5  4  1  0
  6  8  1  0
  5  6  1  1
  7  6  2  0
  9  8  1  0
  9 10  1  1
 10 11  1  0
 11 15  1  0
 12 11  2  0
 12 13  1  0
 13 14  1  0
 15 14  2  0
 16  9  1  0
 17 16  2  0
 18 19  1  0
 19 20  2  0
 19 21  1  0
 22 21  1  6
 22 24  1  0
 22 23  1  0
 23 16  1  0
 24 25  1  0
 26 24  2  0
M  END
$$$$
