PHN.pdb
     RDKit          3D

 26 27  0  0  1  0  0  0  0  0999 V2000
    8.4473  -14.3748   18.1085 N   0  0  0  0  0  0  0  0  0  0  0  0
    7.0865  -13.8753   18.1976 C   0  0  0  0  0  0  0  0  0  0  0  0
    7.3403  -12.4766   18.7640 C   0  0  0  0  0  0  0  0  0  0  0  0
    8.3077  -12.8059   19.8825 C   0  0  0  0  0  0  0  0  0  0  0  0
    8.9512  -14.1262   19.4440 C   0  0  1  0  0  0  0  0  0  0  0  0
    8.5089  -15.2397   20.3157 C   0  0  0  0  0  0  0  0  0  0  0  0
    7.3489  -15.7093   20.2156 O   0  0  0  0  0  0  0  0  0  0  0  0
    9.3728  -15.8196   21.2954 N   0  0  0  0  0  0  0  0  0  0  0  0
    8.9619  -16.9153   22.1404 C   0  0  1  0  0  0  0  0  0  0  0  0
    9.8119  -18.1098   21.7908 C   0  0  0  0  0  0  0  0  0  0  0  0
    9.3598  -19.3355   22.4955 C   0  0  0  0  0  0  0  0  0  0  0  0
    8.3056  -19.3307   23.3869 C   0  0  0  0  0  0  0  0  0  0  0  0
    8.1492  -20.5868   23.8491 N   0  0  0  0  0  0  0  0  0  0  0  0
    9.0738  -21.3670   23.2709 C   0  0  0  0  0  0  0  0  0  0  0  0
    9.7987  -20.5867   22.4522 N   0  0  0  0  0  0  0  0  0  0  0  0
    9.2590  -16.5570   23.5466 C   0  0  0  0  0  0  0  0  0  0  0  0
   10.4438  -16.3659   23.9117 O   0  0  0  0  0  0  0  0  0  0  0  0
    8.5004  -20.3405   26.8801 N   0  0  0  0  0  0  0  0  0  0  0  0
    7.5164  -19.3231   26.8048 C   0  0  0  0  0  0  0  0  0  0  0  0
    6.7317  -19.1927   27.7754 O   0  0  0  0  0  0  0  0  0  0  0  0
    7.4751  -18.4847   25.5976 C   0  0  0  0  0  0  0  0  0  0  0  0
    8.2788  -17.2156   25.7404 C   0  0  2  0  0  0  0  0  0  0  0  0
    8.2425  -16.4136   24.5358 N   0  0  0  0  0  0  0  0  0  0  0  0
    9.6697  -17.4542   26.1252 C   0  0  0  0  0  0  0  0  0  0  0  0
   10.3093  -16.7853   27.1628 O   0  0  0  0  0  0  0  0  0  0  0  0
   10.3504  -18.3041   25.5032 O   0  0  0  0  0  0  0  0  0  0  0  0
  1  2  1  0
  2  3  1  0
  4  3  1  0
  5  1  1  0
  5  4  1  0
  6  8  1  0
  5  6  1  1
  7  6  2  0
  9  8  1  0
  9 10  1  6
 10 11  1  0
 11 15  1  0
 12 11  2  0
 12 13  1  0
 13 14  1  0
 15 14  2  0
 16  9  1  0
 17 16  2  0
 18 19  1  0
 19 20  2  0
 19 21  1  0
 22 21  1  6
 22 24  1  0
 22 23  1  0
 23 16  1  0
 24 25  1  0
 26 24  2  0
M  END
$$$$
