PHN.pdb
     RDKit          3D

 26 27  0  0  1  0  0  0  0  0999 V2000
    6.8705  -18.5534   18.1565 N   0  0  0  0  0  0  0  0  0  0  0  0
    7.8235  -18.9608   17.1391 C   0  0  0  0  0  0  0  0  0  0  0  0
    8.1854  -20.3602   17.6415 C   0  0  0  0  0  0  0  0  0  0  0  0
    8.4266  -20.0701   19.1088 C   0  0  0  0  0  0  0  0  0  0  0  0
    7.6049  -18.8047   19.3800 C   0  0  1  0  0  0  0  0  0  0  0  0
    8.4941  -17.6456   19.6274 C   0  0  0  0  0  0  0  0  0  0  0  0
    9.6566  -17.6179   19.1544 O   0  0  0  0  0  0  0  0  0  0  0  0
    8.0717  -16.5235   20.4053 N   0  0  0  0  0  0  0  0  0  0  0  0
    8.9649  -15.4476   20.7630 C   0  0  1  0  0  0  0  0  0  0  0  0
    8.1913  -14.1574   20.6709 C   0  0  0  0  0  0  0  0  0  0  0  0
    7.8559  -13.8128   19.2666 C   0  0  0  0  0  0  0  0  0  0  0  0
    6.5542  -13.6639   18.8314 C   0  0  0  0  0  0  0  0  0  0  0  0
    6.5893  -13.3544   17.5204 N   0  0  0  0  0  0  0  0  0  0  0  0
    7.8720  -13.3074   17.1324 C   0  0  0  0  0  0  0  0  0  0  0  0
    8.6248  -13.5891   18.2089 N   0  0  0  0  0  0  0  0  0  0  0  0
    9.3645  -15.6239   22.1784 C   0  0  0  0  0  0  0  0  0  0  0  0
    8.4927  -15.8072   23.0615 O   0  0  0  0  0  0  0  0  0  0  0  0
   10.7981  -18.6398   25.8443 N   0  0  0  0  0  0  0  0  0  0  0  0
   11.3031  -18.7732   24.5267 C   0  0  0  0  0  0  0  0  0  0  0  0
   12.1793  -19.6475   24.3198 O   0  0  0  0  0  0  0  0  0  0  0  0
   10.7712  -17.8818   23.4854 C   0  0  0  0  0  0  0  0  0  0  0  0
   11.1661  -16.4404   23.6933 C   0  0  2  0  0  0  0  0  0  0  0  0
   10.7249  -15.5958   22.6035 N   0  0  0  0  0  0  0  0  0  0  0  0
   12.6031  -16.2601   23.8986 C   0  0  0  0  0  0  0  0  0  0  0  0
   13.5037  -16.0046   22.8706 O   0  0  0  0  0  0  0  0  0  0  0  0
   13.0806  -16.3345   25.0557 O   0  0  0  0  0  0  0  0  0  0  0  0
  1  2  1  0
  2  3  1  0
  4  3  1  0
  5  1  1  0
  5  4  1  0
  6  8  1  0
  5  6  1  6
  7  6  2  0
  9  8  1  0
  9 10  1  1
 10 11  1  0
 11 15  1  0
 12 11  2  0
 12 13  1  0
 13 14  1  0
 15 14  2  0
 16  9  1  0
 17 16  2  0
 18 19  1  0
 19 20  2  0
 19 21  1  0
 22 21  1  6
 22 24  1  0
 22 23  1  0
 23 16  1  0
 24 25  1  0
 26 24  2  0
M  END
$$$$
