PHN.pdb
     RDKit          3D

 26 27  0  0  1  0  0  0  0  0999 V2000
    8.5245  -18.7496   18.1529 N   0  0  0  0  0  0  0  0  0  0  0  0
    7.5461  -17.7333   17.8077 C   0  0  0  0  0  0  0  0  0  0  0  0
    8.1123  -17.2445   16.4726 C   0  0  0  0  0  0  0  0  0  0  0  0
    9.5719  -17.0733   16.8408 C   0  0  0  0  0  0  0  0  0  0  0  0
    9.7734  -18.0263   18.0245 C   0  0  1  0  0  0  0  0  0  0  0  0
    9.9943  -17.2665   19.2772 C   0  0  0  0  0  0  0  0  0  0  0  0
   10.9603  -16.4716   19.3821 O   0  0  0  0  0  0  0  0  0  0  0  0
    9.1281  -17.4043   20.4056 N   0  0  0  0  0  0  0  0  0  0  0  0
    9.3671  -16.7215   21.6546 C   0  0  1  0  0  0  0  0  0  0  0  0
    8.0927  -16.0185   22.0459 C   0  0  0  0  0  0  0  0  0  0  0  0
    7.8552  -14.8057   21.2236 C   0  0  0  0  0  0  0  0  0  0  0  0
    8.7362  -14.3906   20.2451 C   0  0  0  0  0  0  0  0  0  0  0  0
    8.2371  -13.2698   19.6877 N   0  0  0  0  0  0  0  0  0  0  0  0
    7.0754  -12.9800   20.2915 C   0  0  0  0  0  0  0  0  0  0  0  0
    6.8623  -13.9259   21.2214 N   0  0  0  0  0  0  0  0  0  0  0  0
    9.6496  -17.7373   22.6951 C   0  0  0  0  0  0  0  0  0  0  0  0
    9.2621  -18.9205   22.5427 O   0  0  0  0  0  0  0  0  0  0  0  0
   14.6698  -19.1619   24.6790 N   0  0  0  0  0  0  0  0  0  0  0  0
   13.3997  -19.6176   24.2452 C   0  0  0  0  0  0  0  0  0  0  0  0
   13.1304  -20.8342   24.3944 O   0  0  0  0  0  0  0  0  0  0  0  0
   12.4775  -18.6401   23.6486 C   0  0  0  0  0  0  0  0  0  0  0  0
   11.2428  -18.4154   24.4865 C   0  0  2  0  0  0  0  0  0  0  0  0
   10.3582  -17.4343   23.8944 N   0  0  0  0  0  0  0  0  0  0  0  0
   11.5438  -18.0309   25.8653 C   0  0  0  0  0  0  0  0  0  0  0  0
   11.9375  -16.7515   26.2416 O   0  0  0  0  0  0  0  0  0  0  0  0
   11.4509  -18.8806   26.7827 O   0  0  0  0  0  0  0  0  0  0  0  0
  1  2  1  0
  2  3  1  0
  4  3  1  0
  5  1  1  0
  5  4  1  0
  6  8  1  0
  5  6  1  1
  7  6  2  0
  9  8  1  0
  9 10  1  1
 10 11  1  0
 11 15  1  0
 12 11  2  0
 12 13  1  0
 13 14  1  0
 15 14  2  0
 16  9  1  0
 17 16  2  0
 18 19  1  0
 19 20  2  0
 19 21  1  0
 22 21  1  6
 22 24  1  0
 22 23  1  0
 23 16  1  0
 24 25  1  0
 26 24  2  0
M  END
$$$$
