YVW.pdb
     RDKit          3D

 34 36  0  0  1  0  0  0  0  0999 V2000
    4.9458  -24.3992   25.9990 O   0  0  0  0  0  0  0  0  0  0  0  0
    5.5848  -23.2863   25.4778 C   0  0  0  0  0  0  0  0  0  0  0  0
    4.7825  -22.2497   25.0043 C   0  0  0  0  0  0  0  0  0  0  0  0
    5.4081  -21.1279   24.4819 C   0  0  0  0  0  0  0  0  0  0  0  0
    6.7893  -21.0724   24.4473 C   0  0  0  0  0  0  0  0  0  0  0  0
    7.4818  -19.8680   23.9084 C   0  0  0  0  0  0  0  0  0  0  0  0
    7.0688  -19.5957   22.4860 C   0  0  2  0  0  0  0  0  0  0  0  0
    7.3071  -20.6802   21.5711 N   0  0  0  0  0  0  0  0  0  0  0  0
    7.6155  -18.3580   21.9325 C   0  0  0  0  0  0  0  0  0  0  0  0
    8.6310  -18.3953   21.1479 O   0  0  0  0  0  0  0  0  0  0  0  0
    7.5850  -22.0938   24.9133 C   0  0  0  0  0  0  0  0  0  0  0  0
    6.9706  -23.2140   25.4337 C   0  0  0  0  0  0  0  0  0  0  0  0
    7.4764  -13.5191   21.1021 C   0  0  0  0  0  0  0  0  0  0  0  0
    6.7560  -14.7928   21.4921 C   0  0  1  0  0  0  0  0  0  0  0  0
    5.8515  -15.1846   20.3387 C   0  0  0  0  0  0  0  0  0  0  0  0
    7.7561  -15.8439   21.7892 C   0  0  2  0  0  0  0  0  0  0  0  0
    7.0949  -17.0596   22.2030 N   0  0  0  0  0  0  0  0  0  0  0  0
    8.8325  -15.4511   22.7373 C   0  0  0  0  0  0  0  0  0  0  0  0
    9.5882  -14.4492   22.5510 O   0  0  0  0  0  0  0  0  0  0  0  0
    9.0373  -16.2142   23.9113 N   0  0  0  0  0  0  0  0  0  0  0  0
   10.0982  -15.8624   24.8760 C   0  0  1  0  0  0  0  0  0  0  0  0
    9.6293  -14.5361   25.4483 C   0  0  0  0  0  0  0  0  0  0  0  0
    8.2258  -14.4423   25.8000 C   0  0  0  0  0  0  0  0  0  0  0  0
    7.2567  -15.4258   25.8759 C   0  0  0  0  0  0  0  0  0  0  0  0
    6.1277  -14.8268   26.2151 N   0  0  0  0  0  0  0  0  0  0  0  0
    6.2865  -13.4782   26.3739 C   0  0  0  0  0  0  0  0  0  0  0  0
    5.4238  -12.4693   26.7303 C   0  0  0  0  0  0  0  0  0  0  0  0
    5.8676  -11.1757   26.8338 C   0  0  0  0  0  0  0  0  0  0  0  0
    7.1898  -10.9084   26.5746 C   0  0  0  0  0  0  0  0  0  0  0  0
    8.0490  -11.9227   26.2176 C   0  0  0  0  0  0  0  0  0  0  0  0
    7.6125  -13.2248   26.1115 C   0  0  0  0  0  0  0  0  0  0  0  0
   10.3890  -16.9111   25.8206 C   0  0  0  0  0  0  0  0  0  0  0  0
   11.3600  -16.7386   26.6542 O   0  0  0  0  0  0  0  0  0  0  0  0
    9.7230  -18.1016   25.9289 O   0  0  0  0  0  0  0  0  0  0  0  0
  2  1  1  0
  3  2  2  0
  4  3  1  0
  5 11  1  0
  5  4  2  0
  6  5  1  0
  7  6  1  0
  7  8  1  6
  9  7  1  0
  9 10  2  0
 11 12  2  0
 12  2  1  0
 14 13  1  6
 14 15  1  0
 16 14  1  0
 16 17  1  1
 17  9  1  0
 18 16  1  0
 19 18  2  0
 20 18  1  0
 21 20  1  0
 21 22  1  1
 22 23  1  0
 23 31  1  0
 24 23  2  0
 24 25  1  0
 25 26  1  0
 26 27  1  0
 27 28  2  0
 29 28  1  0
 30 29  2  0
 31 26  2  0
 31 30  1  0
 32 34  1  0
 32 21  1  0
 33 32  2  0
M  END
$$$$
