YVW.pdb
     RDKit          3D

 34 36  0  0  1  0  0  0  0  0999 V2000
   11.6306  -23.6955   15.8545 O   0  0  0  0  0  0  0  0  0  0  0  0
   11.5690  -22.6242   16.7303 C   0  0  0  0  0  0  0  0  0  0  0  0
   10.3191  -22.2921   17.2497 C   0  0  0  0  0  0  0  0  0  0  0  0
   10.2421  -21.2233   18.1299 C   0  0  0  0  0  0  0  0  0  0  0  0
   11.3915  -20.5297   18.4611 C   0  0  0  0  0  0  0  0  0  0  0  0
   11.3343  -19.3907   19.4202 C   0  0  0  0  0  0  0  0  0  0  0  0
   10.7687  -18.1580   18.7656 C   0  0  2  0  0  0  0  0  0  0  0  0
   11.5575  -17.6355   17.6817 N   0  0  0  0  0  0  0  0  0  0  0  0
   10.4448  -17.0814   19.7001 C   0  0  0  0  0  0  0  0  0  0  0  0
   11.3843  -16.4153   20.2676 O   0  0  0  0  0  0  0  0  0  0  0  0
   12.6273  -20.8541   17.9502 C   0  0  0  0  0  0  0  0  0  0  0  0
   12.7126  -21.9154   17.0730 C   0  0  0  0  0  0  0  0  0  0  0  0
    7.2446  -13.9818   21.7865 C   0  0  0  0  0  0  0  0  0  0  0  0
    7.5680  -14.9806   20.6950 C   0  0  1  0  0  0  0  0  0  0  0  0
    7.6807  -14.2177   19.3884 C   0  0  0  0  0  0  0  0  0  0  0  0
    8.8287  -15.6793   21.0353 C   0  0  2  0  0  0  0  0  0  0  0  0
    9.1189  -16.6940   20.0492 N   0  0  0  0  0  0  0  0  0  0  0  0
    8.9069  -16.2168   22.4197 C   0  0  0  0  0  0  0  0  0  0  0  0
    8.4558  -17.3565   22.7469 O   0  0  0  0  0  0  0  0  0  0  0  0
    9.5137  -15.4388   23.4342 N   0  0  0  0  0  0  0  0  0  0  0  0
    9.6361  -15.9457   24.8155 C   0  0  1  0  0  0  0  0  0  0  0  0
   10.1093  -14.7320   25.5963 C   0  0  0  0  0  0  0  0  0  0  0  0
    9.2110  -14.2275   26.6164 C   0  0  0  0  0  0  0  0  0  0  0  0
    9.0292  -14.6330   27.9259 C   0  0  0  0  0  0  0  0  0  0  0  0
    8.0744  -13.8723   28.4342 N   0  0  0  0  0  0  0  0  0  0  0  0
    7.5988  -12.9663   27.5276 C   0  0  0  0  0  0  0  0  0  0  0  0
    6.6432  -11.9811   27.6013 C   0  0  0  0  0  0  0  0  0  0  0  0
    6.3755  -11.1860   26.5163 C   0  0  0  0  0  0  0  0  0  0  0  0
    7.0805  -11.3931   25.3558 C   0  0  0  0  0  0  0  0  0  0  0  0
    8.0359  -12.3815   25.2876 C   0  0  0  0  0  0  0  0  0  0  0  0
    8.3119  -13.1847   26.3721 C   0  0  0  0  0  0  0  0  0  0  0  0
    8.4473  -16.6038   25.2954 C   0  0  0  0  0  0  0  0  0  0  0  0
    8.5596  -17.4524   26.2621 O   0  0  0  0  0  0  0  0  0  0  0  0
    7.1779  -16.4152   24.8203 O   0  0  0  0  0  0  0  0  0  0  0  0
  2  1  1  0
  3  2  2  0
  4  3  1  0
  5 11  1  0
  5  4  2  0
  6  5  1  0
  7  6  1  0
  7  8  1  6
  9  7  1  0
  9 10  2  0
 11 12  2  0
 12  2  1  0
 14 13  1  1
 14 15  1  0
 16 14  1  0
 16 17  1  6
 17  9  1  0
 18 16  1  0
 19 18  2  0
 20 18  1  0
 21 20  1  0
 21 22  1  1
 22 23  1  0
 23 31  1  0
 24 23  2  0
 24 25  1  0
 25 26  1  0
 26 27  1  0
 27 28  2  0
 29 28  1  0
 30 29  2  0
 31 26  2  0
 31 30  1  0
 32 34  1  0
 32 21  1  0
 33 32  2  0
M  END
$$$$
