YVW.pdb
     RDKit          3D

 34 36  0  0  1  0  0  0  0  0999 V2000
    4.5394  -24.1411   26.0750 O   0  0  0  0  0  0  0  0  0  0  0  0
    5.0996  -22.9494   25.6455 C   0  0  0  0  0  0  0  0  0  0  0  0
    6.3314  -22.5880   26.1882 C   0  0  0  0  0  0  0  0  0  0  0  0
    6.9060  -21.3988   25.7659 C   0  0  0  0  0  0  0  0  0  0  0  0
    6.2489  -20.6187   24.8321 C   0  0  0  0  0  0  0  0  0  0  0  0
    6.8579  -19.3471   24.3499 C   0  0  0  0  0  0  0  0  0  0  0  0
    7.0095  -19.3521   22.8516 C   0  0  2  0  0  0  0  0  0  0  0  0
    7.6752  -20.5101   22.3171 N   0  0  0  0  0  0  0  0  0  0  0  0
    7.6222  -18.1404   22.3099 C   0  0  0  0  0  0  0  0  0  0  0  0
    8.7782  -18.1950   21.7539 O   0  0  0  0  0  0  0  0  0  0  0  0
    5.0325  -20.9717   24.2943 C   0  0  0  0  0  0  0  0  0  0  0  0
    4.4534  -22.1529   24.7098 C   0  0  0  0  0  0  0  0  0  0  0  0
    7.6235  -13.3988   21.0802 C   0  0  0  0  0  0  0  0  0  0  0  0
    6.8268  -14.6286   21.4628 C   0  0  1  0  0  0  0  0  0  0  0  0
    6.1479  -15.1485   20.2095 C   0  0  0  0  0  0  0  0  0  0  0  0
    7.7406  -15.6343   22.0516 C   0  0  2  0  0  0  0  0  0  0  0  0
    7.0196  -16.8499   22.3499 N   0  0  0  0  0  0  0  0  0  0  0  0
    8.5395  -15.1669   23.2157 C   0  0  0  0  0  0  0  0  0  0  0  0
    8.6961  -13.9407   23.5009 O   0  0  0  0  0  0  0  0  0  0  0  0
    9.1585  -16.1182   24.0609 N   0  0  0  0  0  0  0  0  0  0  0  0
   10.0725  -15.6994   25.1421 C   0  0  1  0  0  0  0  0  0  0  0  0
    9.1923  -15.7281   26.3794 C   0  0  0  0  0  0  0  0  0  0  0  0
    7.9885  -14.9210   26.3367 C   0  0  0  0  0  0  0  0  0  0  0  0
    6.6620  -15.3003   26.2431 C   0  0  0  0  0  0  0  0  0  0  0  0
    5.9460  -14.1889   26.2147 N   0  0  0  0  0  0  0  0  0  0  0  0
    6.7278  -13.0695   26.2854 C   0  0  0  0  0  0  0  0  0  0  0  0
    6.4394  -11.7258   26.3065 C   0  0  0  0  0  0  0  0  0  0  0  0
    7.4445  -10.7979   26.4046 C   0  0  0  0  0  0  0  0  0  0  0  0
    8.7437  -11.2372   26.4815 C   0  0  0  0  0  0  0  0  0  0  0  0
    9.0265  -12.5840   26.4594 C   0  0  0  0  0  0  0  0  0  0  0  0
    8.0238  -13.5232   26.3615 C   0  0  0  0  0  0  0  0  0  0  0  0
   11.2922  -16.4652   25.1947 C   0  0  0  0  0  0  0  0  0  0  0  0
   11.3816  -17.5330   24.4741 O   0  0  0  0  0  0  0  0  0  0  0  0
   12.3950  -16.1681   25.9485 O   0  0  0  0  0  0  0  0  0  0  0  0
  2  1  1  0
  3  2  2  0
  4  3  1  0
  5 11  1  0
  5  4  2  0
  6  5  1  0
  7  6  1  0
  7  8  1  1
  9  7  1  0
  9 10  2  0
 11 12  2  0
 12  2  1  0
 14 13  1  6
 14 15  1  0
 16 14  1  0
 16 17  1  1
 17  9  1  0
 18 16  1  0
 19 18  2  0
 20 18  1  0
 21 20  1  0
 21 22  1  1
 22 23  1  0
 23 31  1  0
 24 23  2  0
 24 25  1  0
 25 26  1  0
 26 27  1  0
 27 28  2  0
 29 28  1  0
 30 29  2  0
 31 26  2  0
 31 30  1  0
 32 34  1  0
 32 21  1  0
 33 32  2  0
M  END
$$$$
