YVW.pdb
     RDKit          3D

 34 36  0  0  1  0  0  0  0  0999 V2000
    7.8159  -22.1807   15.0486 O   0  0  0  0  0  0  0  0  0  0  0  0
    8.3929  -21.4233   16.0545 C   0  0  0  0  0  0  0  0  0  0  0  0
    8.5355  -20.0559   15.8256 C   0  0  0  0  0  0  0  0  0  0  0  0
    9.1091  -19.2841   16.8246 C   0  0  0  0  0  0  0  0  0  0  0  0
    9.5163  -19.8860   18.0011 C   0  0  0  0  0  0  0  0  0  0  0  0
   10.1170  -19.0721   19.0953 C   0  0  0  0  0  0  0  0  0  0  0  0
   10.3312  -17.6474   18.6568 C   0  0  2  0  0  0  0  0  0  0  0  0
   11.6147  -17.3866   18.0614 N   0  0  0  0  0  0  0  0  0  0  0  0
   10.0626  -16.6562   19.6973 C   0  0  0  0  0  0  0  0  0  0  0  0
   11.0293  -16.1621   20.3827 O   0  0  0  0  0  0  0  0  0  0  0  0
    9.3778  -21.2356   18.2308 C   0  0  0  0  0  0  0  0  0  0  0  0
    8.8090  -22.0109   17.2416 C   0  0  0  0  0  0  0  0  0  0  0  0
    7.2617  -13.4880   22.1224 C   0  0  0  0  0  0  0  0  0  0  0  0
    7.3808  -14.4439   20.9538 C   0  0  1  0  0  0  0  0  0  0  0  0
    7.6172  -13.6183   19.7030 C   0  0  0  0  0  0  0  0  0  0  0  0
    8.4941  -15.3864   21.2100 C   0  0  2  0  0  0  0  0  0  0  0  0
    8.7639  -16.1732   20.0291 N   0  0  0  0  0  0  0  0  0  0  0  0
    8.3427  -16.2395   22.4187 C   0  0  0  0  0  0  0  0  0  0  0  0
    8.0483  -17.4723   22.3642 O   0  0  0  0  0  0  0  0  0  0  0  0
    8.5368  -15.6705   23.6998 N   0  0  0  0  0  0  0  0  0  0  0  0
    8.4588  -16.4952   24.9220 C   0  0  1  0  0  0  0  0  0  0  0  0
    7.3801  -15.8096   25.7424 C   0  0  0  0  0  0  0  0  0  0  0  0
    7.7876  -14.6449   26.5038 C   0  0  0  0  0  0  0  0  0  0  0  0
    8.8074  -14.4925   27.4252 C   0  0  0  0  0  0  0  0  0  0  0  0
    8.7507  -13.2441   27.8574 N   0  0  0  0  0  0  0  0  0  0  0  0
    7.7368  -12.5400   27.2698 C   0  0  0  0  0  0  0  0  0  0  0  0
    7.3105  -11.2385   27.3860 C   0  0  0  0  0  0  0  0  0  0  0  0
    6.2517  -10.7820   26.6433 C   0  0  0  0  0  0  0  0  0  0  0  0
    5.6262  -11.6501   25.7819 C   0  0  0  0  0  0  0  0  0  0  0  0
    6.0571  -12.9525   25.6701 C   0  0  0  0  0  0  0  0  0  0  0  0
    7.1197  -13.4198   26.4115 C   0  0  0  0  0  0  0  0  0  0  0  0
    8.2797  -17.9006   24.6583 C   0  0  0  0  0  0  0  0  0  0  0  0
    8.5529  -18.7441   25.5971 O   0  0  0  0  0  0  0  0  0  0  0  0
    7.8363  -18.4473   23.4847 O   0  0  0  0  0  0  0  0  0  0  0  0
  2  1  1  0
  3  2  2  0
  4  3  1  0
  5 11  1  0
  5  4  2  0
  6  5  1  0
  7  6  1  0
  7  8  1  1
  9  7  1  0
  9 10  2  0
 11 12  2  0
 12  2  1  0
 14 13  1  1
 14 15  1  0
 16 14  1  0
 16 17  1  6
 17  9  1  0
 18 16  1  0
 19 18  2  0
 20 18  1  0
 21 20  1  0
 21 22  1  1
 22 23  1  0
 23 31  1  0
 24 23  2  0
 24 25  1  0
 25 26  1  0
 26 27  1  0
 27 28  2  0
 29 28  1  0
 30 29  2  0
 31 26  2  0
 31 30  1  0
 32 34  1  0
 32 21  1  0
 33 32  2  0
M  END
$$$$
