YVW.pdb
     RDKit          3D

 34 36  0  0  1  0  0  0  0  0999 V2000
    7.6392  -12.5025   15.2598 O   0  0  0  0  0  0  0  0  0  0  0  0
    7.5604  -13.1395   16.4872 C   0  0  0  0  0  0  0  0  0  0  0  0
    7.8571  -12.3852   17.6210 C   0  0  0  0  0  0  0  0  0  0  0  0
    7.7800  -13.0087   18.8571 C   0  0  0  0  0  0  0  0  0  0  0  0
    7.4160  -14.3410   18.9265 C   0  0  0  0  0  0  0  0  0  0  0  0
    7.3078  -15.0249   20.2459 C   0  0  0  0  0  0  0  0  0  0  0  0
    8.6692  -15.2912   20.8323 C   0  0  2  0  0  0  0  0  0  0  0  0
    9.6542  -15.7451   19.8870 N   0  0  0  0  0  0  0  0  0  0  0  0
    8.6556  -16.1810   21.9920 C   0  0  0  0  0  0  0  0  0  0  0  0
    7.7938  -16.0083   22.9278 O   0  0  0  0  0  0  0  0  0  0  0  0
    7.1228  -15.0892   17.8095 C   0  0  0  0  0  0  0  0  0  0  0  0
    7.1981  -14.4769   16.5756 C   0  0  0  0  0  0  0  0  0  0  0  0
   10.0066  -20.2572   24.3597 C   0  0  0  0  0  0  0  0  0  0  0  0
   10.0456  -19.4349   23.0885 C   0  0  1  0  0  0  0  0  0  0  0  0
    9.1413  -20.1088   22.0736 C   0  0  0  0  0  0  0  0  0  0  0  0
    9.6020  -18.0545   23.3904 C   0  0  2  0  0  0  0  0  0  0  0  0
    9.5569  -17.2685   22.1793 N   0  0  0  0  0  0  0  0  0  0  0  0
   10.3569  -17.3630   24.4691 C   0  0  0  0  0  0  0  0  0  0  0  0
   11.5342  -16.9163   24.3141 O   0  0  0  0  0  0  0  0  0  0  0  0
    9.7503  -17.1797   25.7344 N   0  0  0  0  0  0  0  0  0  0  0  0
   10.5386  -16.7421   26.9036 C   0  0  1  0  0  0  0  0  0  0  0  0
   10.0161  -15.3426   27.1779 C   0  0  0  0  0  0  0  0  0  0  0  0
    8.6082  -15.1142   26.9172 C   0  0  0  0  0  0  0  0  0  0  0  0
    7.5684  -16.0150   26.7777 C   0  0  0  0  0  0  0  0  0  0  0  0
    6.4800  -15.3084   26.5233 N   0  0  0  0  0  0  0  0  0  0  0  0
    6.7340  -13.9656   26.4841 C   0  0  0  0  0  0  0  0  0  0  0  0
    5.9344  -12.8670   26.2769 C   0  0  0  0  0  0  0  0  0  0  0  0
    6.4635  -11.6022   26.3118 C   0  0  0  0  0  0  0  0  0  0  0  0
    7.8069  -11.4550   26.5576 C   0  0  0  0  0  0  0  0  0  0  0  0
    8.6029  -12.5587   26.7638 C   0  0  0  0  0  0  0  0  0  0  0  0
    8.0803  -13.8327   26.7311 C   0  0  0  0  0  0  0  0  0  0  0  0
   10.5065  -17.6744   28.0019 C   0  0  0  0  0  0  0  0  0  0  0  0
   11.3183  -17.4924   28.9895 O   0  0  0  0  0  0  0  0  0  0  0  0
    9.6810  -18.7605   28.1093 O   0  0  0  0  0  0  0  0  0  0  0  0
  2  1  1  0
  3  2  2  0
  4  3  1  0
  5 11  1  0
  5  4  2  0
  6  5  1  0
  7  6  1  0
  7  8  1  6
  9  7  1  0
  9 10  2  0
 11 12  2  0
 12  2  1  0
 14 13  1  1
 14 15  1  0
 16 14  1  0
 16 17  1  6
 17  9  1  0
 18 16  1  0
 19 18  2  0
 20 18  1  0
 21 20  1  0
 21 22  1  1
 22 23  1  0
 23 31  1  0
 24 23  2  0
 24 25  1  0
 25 26  1  0
 26 27  1  0
 27 28  2  0
 29 28  1  0
 30 29  2  0
 31 26  2  0
 31 30  1  0
 32 34  1  0
 32 21  1  0
 33 32  2  0
M  END
$$$$
