YVW.pdb
     RDKit          3D

 34 36  0  0  1  0  0  0  0  0999 V2000
    5.4947  -22.9830   27.8186 O   0  0  0  0  0  0  0  0  0  0  0  0
    6.0314  -22.0037   26.9992 C   0  0  0  0  0  0  0  0  0  0  0  0
    7.2553  -21.4533   27.3754 C   0  0  0  0  0  0  0  0  0  0  0  0
    7.8063  -20.4735   26.5634 C   0  0  0  0  0  0  0  0  0  0  0  0
    7.1346  -20.0782   25.4212 C   0  0  0  0  0  0  0  0  0  0  0  0
    7.7184  -19.0413   24.5244 C   0  0  0  0  0  0  0  0  0  0  0  0
    7.2371  -19.2157   23.1080 C   0  0  2  0  0  0  0  0  0  0  0  0
    7.5695  -20.4813   22.5101 N   0  0  0  0  0  0  0  0  0  0  0  0
    7.6255  -18.1310   22.2082 C   0  0  0  0  0  0  0  0  0  0  0  0
    8.5577  -18.3120   21.3441 O   0  0  0  0  0  0  0  0  0  0  0  0
    5.9259  -20.6188   25.0466 C   0  0  0  0  0  0  0  0  0  0  0  0
    5.3701  -21.5935   25.8494 C   0  0  0  0  0  0  0  0  0  0  0  0
    7.6361  -13.4819   20.7038 C   0  0  0  0  0  0  0  0  0  0  0  0
    6.8367  -14.6743   21.1862 C   0  0  1  0  0  0  0  0  0  0  0  0
    6.1402  -15.2818   19.9829 C   0  0  0  0  0  0  0  0  0  0  0  0
    7.7514  -15.6393   21.8383 C   0  0  2  0  0  0  0  0  0  0  0  0
    7.0324  -16.8355   22.2105 N   0  0  0  0  0  0  0  0  0  0  0  0
    8.5470  -15.0984   22.9724 C   0  0  0  0  0  0  0  0  0  0  0  0
    8.4549  -13.8982   23.3730 O   0  0  0  0  0  0  0  0  0  0  0  0
    9.4516  -15.9468   23.6540 N   0  0  0  0  0  0  0  0  0  0  0  0
   10.3183  -15.4310   24.7322 C   0  0  1  0  0  0  0  0  0  0  0  0
    9.5380  -15.7500   25.9955 C   0  0  0  0  0  0  0  0  0  0  0  0
    8.1845  -15.2351   26.0682 C   0  0  0  0  0  0  0  0  0  0  0  0
    6.9734  -15.8804   25.8985 C   0  0  0  0  0  0  0  0  0  0  0  0
    6.0283  -14.9664   26.0403 N   0  0  0  0  0  0  0  0  0  0  0  0
    6.5438  -13.7270   26.2995 C   0  0  0  0  0  0  0  0  0  0  0  0
    5.9653  -12.5022   26.5326 C   0  0  0  0  0  0  0  0  0  0  0  0
    6.7417  -11.4015   26.7910 C   0  0  0  0  0  0  0  0  0  0  0  0
    8.1074  -11.5470   26.8123 C   0  0  0  0  0  0  0  0  0  0  0  0
    8.6812  -12.7758   26.5776 C   0  0  0  0  0  0  0  0  0  0  0  0
    7.9096  -13.8868   26.3176 C   0  0  0  0  0  0  0  0  0  0  0  0
   11.6731  -15.9176   24.6651 C   0  0  0  0  0  0  0  0  0  0  0  0
   11.9522  -16.8503   23.8169 O   0  0  0  0  0  0  0  0  0  0  0  0
   12.7221  -15.4798   25.4271 O   0  0  0  0  0  0  0  0  0  0  0  0
  2  1  1  0
  3  2  2  0
  4  3  1  0
  5 11  1  0
  5  4  2  0
  6  5  1  0
  7  6  1  0
  7  8  1  6
  9  7  1  0
  9 10  2  0
 11 12  2  0
 12  2  1  0
 14 13  1  6
 14 15  1  0
 16 14  1  0
 16 17  1  1
 17  9  1  0
 18 16  1  0
 19 18  2  0
 20 18  1  0
 21 20  1  0
 21 22  1  1
 22 23  1  0
 23 31  1  0
 24 23  2  0
 24 25  1  0
 25 26  1  0
 26 27  1  0
 27 28  2  0
 29 28  1  0
 30 29  2  0
 31 26  2  0
 31 30  1  0
 32 34  1  0
 32 21  1  0
 33 32  2  0
M  END
$$$$
