YVW.pdb
     RDKit          3D

 34 36  0  0  1  0  0  0  0  0999 V2000
    4.8678  -24.6301   20.7392 O   0  0  0  0  0  0  0  0  0  0  0  0
    5.5938  -23.4673   20.9371 C   0  0  0  0  0  0  0  0  0  0  0  0
    4.9346  -22.3939   21.5336 C   0  0  0  0  0  0  0  0  0  0  0  0
    5.6493  -21.2237   21.7404 C   0  0  0  0  0  0  0  0  0  0  0  0
    6.9755  -21.1584   21.3545 C   0  0  0  0  0  0  0  0  0  0  0  0
    7.7673  -19.9173   21.5857 C   0  0  0  0  0  0  0  0  0  0  0  0
    7.7739  -19.0419   20.3603 C   0  0  2  0  0  0  0  0  0  0  0  0
    8.3632  -19.6428   19.1935 N   0  0  0  0  0  0  0  0  0  0  0  0
    8.3544  -17.7176   20.5764 C   0  0  0  0  0  0  0  0  0  0  0  0
    9.6287  -17.5618   20.5631 O   0  0  0  0  0  0  0  0  0  0  0  0
    7.6298  -22.2156   20.7649 C   0  0  0  0  0  0  0  0  0  0  0  0
    6.9258  -23.3832   20.5544 C   0  0  0  0  0  0  0  0  0  0  0  0
    5.9984  -14.2038   21.0217 C   0  0  0  0  0  0  0  0  0  0  0  0
    7.4247  -14.1613   20.5143 C   0  0  1  0  0  0  0  0  0  0  0  0
    8.0009  -12.8027   20.8669 C   0  0  0  0  0  0  0  0  0  0  0  0
    8.1935  -15.2637   21.1362 C   0  0  2  0  0  0  0  0  0  0  0  0
    7.5929  -16.5366   20.8113 N   0  0  0  0  0  0  0  0  0  0  0  0
    8.4390  -15.1263   22.5965 C   0  0  0  0  0  0  0  0  0  0  0  0
    7.6215  -14.5630   23.3865 O   0  0  0  0  0  0  0  0  0  0  0  0
    9.6320  -15.6457   23.1528 N   0  0  0  0  0  0  0  0  0  0  0  0
   10.0107  -15.3602   24.5510 C   0  0  1  0  0  0  0  0  0  0  0  0
    8.9361  -16.0664   25.3591 C   0  0  0  0  0  0  0  0  0  0  0  0
    7.6839  -15.3561   25.5319 C   0  0  0  0  0  0  0  0  0  0  0  0
    6.3875  -15.7527   25.2595 C   0  0  0  0  0  0  0  0  0  0  0  0
    5.6019  -14.7347   25.5679 N   0  0  0  0  0  0  0  0  0  0  0  0
    6.3075  -13.6625   26.0388 C   0  0  0  0  0  0  0  0  0  0  0  0
    5.9322  -12.4195   26.4894 C   0  0  0  0  0  0  0  0  0  0  0  0
    6.8724  -11.5248   26.9329 C   0  0  0  0  0  0  0  0  0  0  0  0
    8.1951  -11.8951   26.9180 C   0  0  0  0  0  0  0  0  0  0  0  0
    8.5651  -13.1410   26.4651 C   0  0  0  0  0  0  0  0  0  0  0  0
    7.6280  -14.0462   26.0182 C   0  0  0  0  0  0  0  0  0  0  0  0
   11.3787  -15.6943   24.8572 C   0  0  0  0  0  0  0  0  0  0  0  0
   12.0599  -16.3629   23.9876 O   0  0  0  0  0  0  0  0  0  0  0  0
   12.0479  -15.3655   26.0047 O   0  0  0  0  0  0  0  0  0  0  0  0
  2  1  1  0
  3  2  2  0
  4  3  1  0
  5 11  1  0
  5  4  2  0
  6  5  1  0
  7  6  1  0
  7  8  1  6
  9  7  1  0
  9 10  2  0
 11 12  2  0
 12  2  1  0
 14 13  1  1
 14 15  1  0
 16 14  1  0
 16 17  1  1
 17  9  1  0
 18 16  1  0
 19 18  2  0
 20 18  1  0
 21 20  1  0
 21 22  1  1
 22 23  1  0
 23 31  1  0
 24 23  2  0
 24 25  1  0
 25 26  1  0
 26 27  1  0
 27 28  2  0
 29 28  1  0
 30 29  2  0
 31 26  2  0
 31 30  1  0
 32 34  1  0
 32 21  1  0
 33 32  2  0
M  END
$$$$
