YVW.pdb
     RDKit          3D

 34 36  0  0  1  0  0  0  0  0999 V2000
    7.6541  -23.9529   17.0938 O   0  0  0  0  0  0  0  0  0  0  0  0
    8.0165  -22.8159   17.7970 C   0  0  0  0  0  0  0  0  0  0  0  0
    9.3218  -22.7506   18.2810 C   0  0  0  0  0  0  0  0  0  0  0  0
    9.7000  -21.6173   18.9847 C   0  0  0  0  0  0  0  0  0  0  0  0
    8.7837  -20.6006   19.1820 C   0  0  0  0  0  0  0  0  0  0  0  0
    9.1751  -19.3657   19.9183 C   0  0  0  0  0  0  0  0  0  0  0  0
    9.2895  -18.1902   18.9839 C   0  0  2  0  0  0  0  0  0  0  0  0
   10.1930  -18.3827   17.8809 N   0  0  0  0  0  0  0  0  0  0  0  0
    9.5923  -16.9251   19.6509 C   0  0  0  0  0  0  0  0  0  0  0  0
   10.8059  -16.5148   19.7360 O   0  0  0  0  0  0  0  0  0  0  0  0
    7.4939  -20.6615   18.7062 C   0  0  0  0  0  0  0  0  0  0  0  0
    7.1091  -21.7860   18.0058 C   0  0  0  0  0  0  0  0  0  0  0  0
    8.1342  -12.6062   21.5179 C   0  0  0  0  0  0  0  0  0  0  0  0
    7.7470  -13.9406   20.9153 C   0  0  1  0  0  0  0  0  0  0  0  0
    7.1908  -13.6781   19.5284 C   0  0  0  0  0  0  0  0  0  0  0  0
    8.9395  -14.8179   20.8734 C   0  0  2  0  0  0  0  0  0  0  0  0
    8.6130  -16.0743   20.2401 N   0  0  0  0  0  0  0  0  0  0  0  0
    9.6299  -15.0191   22.1752 C   0  0  0  0  0  0  0  0  0  0  0  0
   10.5453  -14.2502   22.6001 O   0  0  0  0  0  0  0  0  0  0  0  0
    9.2605  -16.1107   22.9964 N   0  0  0  0  0  0  0  0  0  0  0  0
    9.8382  -16.2827   24.3443 C   0  0  1  0  0  0  0  0  0  0  0  0
    9.4019  -15.0267   25.0783 C   0  0  0  0  0  0  0  0  0  0  0  0
    8.0087  -14.9589   25.4742 C   0  0  0  0  0  0  0  0  0  0  0  0
    7.0082  -15.9094   25.3866 C   0  0  0  0  0  0  0  0  0  0  0  0
    5.9062  -15.3514   25.8587 N   0  0  0  0  0  0  0  0  0  0  0  0
    6.1134  -14.0623   26.2642 C   0  0  0  0  0  0  0  0  0  0  0  0
    5.2919  -13.1132   26.8239 C   0  0  0  0  0  0  0  0  0  0  0  0
    5.7810  -11.8763   27.1581 C   0  0  0  0  0  0  0  0  0  0  0  0
    7.1068  -11.6048   26.9228 C   0  0  0  0  0  0  0  0  0  0  0  0
    7.9247  -12.5589   26.3616 C   0  0  0  0  0  0  0  0  0  0  0  0
    7.4425  -13.8040   26.0230 C   0  0  0  0  0  0  0  0  0  0  0  0
    9.5040  -17.5430   24.9580 C   0  0  0  0  0  0  0  0  0  0  0  0
    9.9714  -17.7996   26.1340 O   0  0  0  0  0  0  0  0  0  0  0  0
    8.7199  -18.5208   24.4085 O   0  0  0  0  0  0  0  0  0  0  0  0
  2  1  1  0
  3  2  2  0
  4  3  1  0
  5 11  1  0
  5  4  2  0
  6  5  1  0
  7  6  1  0
  7  8  1  6
  9  7  1  0
  9 10  2  0
 11 12  2  0
 12  2  1  0
 14 13  1  6
 14 15  1  0
 16 14  1  0
 16 17  1  1
 17  9  1  0
 18 16  1  0
 19 18  2  0
 20 18  1  0
 21 20  1  0
 21 22  1  1
 22 23  1  0
 23 31  1  0
 24 23  2  0
 24 25  1  0
 25 26  1  0
 26 27  1  0
 27 28  2  0
 29 28  1  0
 30 29  2  0
 31 26  2  0
 31 30  1  0
 32 34  1  0
 32 21  1  0
 33 32  2  0
M  END
$$$$
