CTM.pdb
     RDKit          3D

 22 21  0  0  1  0  0  0  0  0999 V2000
   28.9835  -21.5032  -18.1829 N   0  0  0  0  0  0  0  0  0  0  0  0
   28.0580  -22.0006  -17.2060 C   0  0  1  0  0  0  0  0  0  0  0  0
   28.4158  -23.4420  -16.9070 C   0  0  0  0  0  0  0  0  0  0  0  0
   28.3107  -24.4702  -18.4080 S   0  0  0  0  0  0  0  0  0  0  0  0
   28.1063  -21.2544  -15.9339 C   0  0  0  0  0  0  0  0  0  0  0  0
   29.2451  -20.8929  -15.5228 O   0  0  0  0  0  0  0  0  0  0  0  0
   27.0694  -17.9630  -15.3257 C   0  0  0  0  0  0  0  0  0  0  0  0
   26.2704  -18.7710  -14.3395 C   0  0  1  0  0  0  0  0  0  0  0  0
   25.0196  -19.0340  -14.8943 O   0  0  0  0  0  0  0  0  0  0  0  0
   27.0092  -20.0496  -14.0292 C   0  0  2  0  0  0  0  0  0  0  0  0
   26.9543  -20.9358  -15.1752 N   0  0  0  0  0  0  0  0  0  0  0  0
   26.3443  -20.7141  -12.8712 C   0  0  0  0  0  0  0  0  0  0  0  0
   25.6231  -21.7291  -13.0451 O   0  0  0  0  0  0  0  0  0  0  0  0
   27.2350  -18.6721   -6.8046 C   0  0  0  0  0  0  0  0  0  0  0  0
   26.2373  -20.1278   -6.3656 S   0  0  0  0  0  0  0  0  0  0  0  0
   25.6267  -20.8401   -7.9301 C   0  0  0  0  0  0  0  0  0  0  0  0
   26.3664  -20.2789   -9.1096 C   0  0  0  0  0  0  0  0  0  0  0  0
   25.8379  -20.8007  -10.3813 C   0  0  2  0  0  0  0  0  0  0  0  0
   26.4951  -20.2378  -11.5507 N   0  0  0  0  0  0  0  0  0  0  0  0
   24.3983  -20.7034  -10.5657 C   0  0  0  0  0  0  0  0  0  0  0  0
   23.8724  -19.8537  -11.3165 O   0  0  0  0  0  0  0  0  0  0  0  0
   23.4976  -21.5726   -9.9004 O   0  0  0  0  0  0  0  0  0  0  0  0
  2  1  1  6
  2  5  1  0
  3  2  1  0
  4  3  1  0
  5 11  1  0
  5  6  2  0
  8  7  1  6
  8 10  1  0
  8  9  1  0
 10 12  1  0
 10 11  1  6
 12 13  2  0
 14 15  1  0
 15 16  1  0
 18 17  1  1
 17 16  1  0
 18 20  1  0
 19 12  1  0
 19 18  1  0
 20 22  1  0
 21 20  2  0
M  END
$$$$
