CTM.pdb
     RDKit          3D

 22 21  0  0  1  0  0  0  0  0999 V2000
   21.0800  -21.6367  -15.5170 N   0  0  0  0  0  0  0  0  0  0  0  0
   21.3740  -20.2395  -15.3766 C   0  0  1  0  0  0  0  0  0  0  0  0
   22.0152  -20.0254  -14.0209 C   0  0  0  0  0  0  0  0  0  0  0  0
   20.8123  -20.2846  -12.6766 S   0  0  0  0  0  0  0  0  0  0  0  0
   22.3141  -19.7428  -16.3998 C   0  0  0  0  0  0  0  0  0  0  0  0
   23.1774  -20.5585  -16.8311 O   0  0  0  0  0  0  0  0  0  0  0  0
   21.4755  -18.5402  -19.7225 C   0  0  0  0  0  0  0  0  0  0  0  0
   22.2932  -17.4338  -19.1132 C   0  0  1  0  0  0  0  0  0  0  0  0
   21.4250  -16.4517  -18.6406 O   0  0  0  0  0  0  0  0  0  0  0  0
   23.1392  -17.9966  -17.9976 C   0  0  2  0  0  0  0  0  0  0  0  0
   22.2866  -18.4204  -16.9043 N   0  0  0  0  0  0  0  0  0  0  0  0
   24.0560  -16.9263  -17.5095 C   0  0  0  0  0  0  0  0  0  0  0  0
   23.7022  -16.1567  -16.5804 O   0  0  0  0  0  0  0  0  0  0  0  0
   31.2518  -13.6722  -17.6545 C   0  0  0  0  0  0  0  0  0  0  0  0
   30.2857  -15.1470  -18.1007 S   0  0  0  0  0  0  0  0  0  0  0  0
   28.5457  -14.7811  -17.6924 C   0  0  0  0  0  0  0  0  0  0  0  0
   27.6534  -15.9429  -18.0200 C   0  0  0  0  0  0  0  0  0  0  0  0
   26.2423  -15.6460  -17.7210 C   0  0  2  0  0  0  0  0  0  0  0  0
   25.3410  -16.7355  -18.0627 N   0  0  0  0  0  0  0  0  0  0  0  0
   25.7136  -14.4125  -18.2824 C   0  0  0  0  0  0  0  0  0  0  0  0
   25.9275  -13.2937  -17.7680 O   0  0  0  0  0  0  0  0  0  0  0  0
   24.9178  -14.4043  -19.4554 O   0  0  0  0  0  0  0  0  0  0  0  0
  2  1  1  6
  2  5  1  0
  3  2  1  0
  4  3  1  0
  5 11  1  0
  5  6  2  0
  8  7  1  1
  8 10  1  0
  8  9  1  0
 10 12  1  0
 10 11  1  1
 12 13  2  0
 14 15  1  0
 15 16  1  0
 18 17  1  6
 17 16  1  0
 18 20  1  0
 19 12  1  0
 19 18  1  0
 20 22  1  0
 21 20  2  0
M  END
$$$$
