CTM.pdb
     RDKit          3D

 22 21  0  0  1  0  0  0  0  0999 V2000
   23.8693  -23.0954  -16.2899 N   0  0  0  0  0  0  0  0  0  0  0  0
   23.6631  -22.3212  -15.0998 C   0  0  1  0  0  0  0  0  0  0  0  0
   22.4568  -22.8815  -14.3747 C   0  0  0  0  0  0  0  0  0  0  0  0
   20.9689  -22.8144  -15.4249 S   0  0  0  0  0  0  0  0  0  0  0  0
   24.8087  -22.3757  -14.1712 C   0  0  0  0  0  0  0  0  0  0  0  0
   25.4164  -23.4791  -14.0728 O   0  0  0  0  0  0  0  0  0  0  0  0
   28.0376  -20.5559  -14.1730 C   0  0  0  0  0  0  0  0  0  0  0  0
   27.3644  -20.2391  -12.8652 C   0  0  1  0  0  0  0  0  0  0  0  0
   26.7129  -19.0137  -12.9891 O   0  0  0  0  0  0  0  0  0  0  0  0
   26.3921  -21.3420  -12.5259 C   0  0  2  0  0  0  0  0  0  0  0  0
   25.2421  -21.2667  -13.4053 N   0  0  0  0  0  0  0  0  0  0  0  0
   25.9371  -21.1584  -11.1174 C   0  0  0  0  0  0  0  0  0  0  0  0
   24.7380  -20.8772  -10.8650 O   0  0  0  0  0  0  0  0  0  0  0  0
   28.3478  -20.1686   -3.6793 C   0  0  0  0  0  0  0  0  0  0  0  0
   28.8245  -19.9600   -5.4219 S   0  0  0  0  0  0  0  0  0  0  0  0
   27.3374  -20.3054   -6.4206 C   0  0  0  0  0  0  0  0  0  0  0  0
   27.7024  -20.7097   -7.8194 C   0  0  0  0  0  0  0  0  0  0  0  0
   26.5071  -20.9340   -8.6499 C   0  0  2  0  0  0  0  0  0  0  0  0
   26.8215  -21.2908  -10.0247 N   0  0  0  0  0  0  0  0  0  0  0  0
   25.5238  -19.8620   -8.6616 C   0  0  0  0  0  0  0  0  0  0  0  0
   25.5783  -18.9084   -9.4676 O   0  0  0  0  0  0  0  0  0  0  0  0
   24.4363  -19.8335   -7.7529 O   0  0  0  0  0  0  0  0  0  0  0  0
  2  1  1  6
  2  5  1  0
  3  2  1  0
  4  3  1  0
  5 11  1  0
  5  6  2  0
  8  7  1  6
  8 10  1  0
  8  9  1  0
 10 12  1  0
 10 11  1  6
 12 13  2  0
 14 15  1  0
 15 16  1  0
 18 17  1  6
 17 16  1  0
 18 20  1  0
 19 12  1  0
 19 18  1  0
 20 22  1  0
 21 20  2  0
M  END
$$$$
