CTM.pdb
     RDKit          3D

 22 21  0  0  1  0  0  0  0  0999 V2000
   16.0517  -11.4059  -14.8706 N   0  0  0  0  0  0  0  0  0  0  0  0
   16.6632  -11.3177  -16.1654 C   0  0  1  0  0  0  0  0  0  0  0  0
   15.5655  -11.3417  -17.2091 C   0  0  0  0  0  0  0  0  0  0  0  0
   14.4758  -12.7850  -16.9838 S   0  0  0  0  0  0  0  0  0  0  0  0
   17.4340  -10.0737  -16.3551 C   0  0  0  0  0  0  0  0  0  0  0  0
   18.0681   -9.9508  -17.4411 O   0  0  0  0  0  0  0  0  0  0  0  0
   16.2338   -6.5857  -16.3298 C   0  0  0  0  0  0  0  0  0  0  0  0
   17.3588   -6.6236  -15.3314 C   0  0  1  0  0  0  0  0  0  0  0  0
   16.8117   -6.6945  -14.0518 O   0  0  0  0  0  0  0  0  0  0  0  0
   18.2369   -7.8172  -15.6161 C   0  0  2  0  0  0  0  0  0  0  0  0
   17.4889   -9.0385  -15.3911 N   0  0  0  0  0  0  0  0  0  0  0  0
   19.4012   -7.7842  -14.6845 C   0  0  0  0  0  0  0  0  0  0  0  0
   19.5752   -8.7052  -13.8466 O   0  0  0  0  0  0  0  0  0  0  0  0
   26.2425   -9.8018  -14.3324 C   0  0  0  0  0  0  0  0  0  0  0  0
   24.5954   -9.6834  -15.0942 S   0  0  0  0  0  0  0  0  0  0  0  0
   23.8231   -8.1626  -14.4474 C   0  0  0  0  0  0  0  0  0  0  0  0
   22.4044   -8.0288  -14.9194 C   0  0  0  0  0  0  0  0  0  0  0  0
   21.7408   -6.8575  -14.3223 C   0  0  2  0  0  0  0  0  0  0  0  0
   20.3428   -6.7323  -14.7046 N   0  0  0  0  0  0  0  0  0  0  0  0
   22.3955   -5.5750  -14.5288 C   0  0  0  0  0  0  0  0  0  0  0  0
   22.0940   -4.8099  -15.4701 O   0  0  0  0  0  0  0  0  0  0  0  0
   23.4226   -5.1114  -13.6689 O   0  0  0  0  0  0  0  0  0  0  0  0
  2  1  1  1
  2  5  1  0
  3  2  1  0
  4  3  1  0
  5 11  1  0
  5  6  2  0
  8  7  1  6
  8 10  1  0
  8  9  1  0
 10 12  1  0
 10 11  1  1
 12 13  2  0
 14 15  1  0
 15 16  1  0
 18 17  1  6
 17 16  1  0
 18 20  1  0
 19 12  1  0
 19 18  1  0
 20 22  1  0
 21 20  2  0
M  END
$$$$
