CTM.pdb
     RDKit          3D

 22 21  0  0  1  0  0  0  0  0999 V2000
   27.2898  -21.9353  -17.9826 N   0  0  0  0  0  0  0  0  0  0  0  0
   26.5343  -22.3081  -16.8213 C   0  0  1  0  0  0  0  0  0  0  0  0
   26.6477  -23.8085  -16.6454 C   0  0  0  0  0  0  0  0  0  0  0  0
   25.6652  -24.3793  -15.2206 S   0  0  0  0  0  0  0  0  0  0  0  0
   27.0287  -21.6738  -15.5841 C   0  0  0  0  0  0  0  0  0  0  0  0
   28.2786  -21.6732  -15.3986 O   0  0  0  0  0  0  0  0  0  0  0  0
   27.2432  -18.3019  -14.6517 C   0  0  0  0  0  0  0  0  0  0  0  0
   26.3860  -18.9094  -13.5747 C   0  0  1  0  0  0  0  0  0  0  0  0
   25.0483  -18.7012  -13.9046 O   0  0  0  0  0  0  0  0  0  0  0  0
   26.6972  -20.3816  -13.4620 C   0  0  2  0  0  0  0  0  0  0  0  0
   26.1775  -21.0806  -14.6208 N   0  0  0  0  0  0  0  0  0  0  0  0
   26.0345  -20.9156  -12.2372 C   0  0  0  0  0  0  0  0  0  0  0  0
   24.9744  -21.5857  -12.3251 O   0  0  0  0  0  0  0  0  0  0  0  0
   27.7935  -18.9164   -6.1979 C   0  0  0  0  0  0  0  0  0  0  0  0
   26.8170  -20.3891   -5.7675 S   0  0  0  0  0  0  0  0  0  0  0  0
   25.8444  -20.8282   -7.2470 C   0  0  0  0  0  0  0  0  0  0  0  0
   26.6217  -20.5726   -8.5055 C   0  0  0  0  0  0  0  0  0  0  0  0
   25.8774  -21.0030   -9.7012 C   0  0  2  0  0  0  0  0  0  0  0  0
   26.5626  -20.6938  -10.9466 N   0  0  0  0  0  0  0  0  0  0  0  0
   24.5016  -20.5411   -9.8010 C   0  0  0  0  0  0  0  0  0  0  0  0
   23.5705  -21.0551   -9.1446 O   0  0  0  0  0  0  0  0  0  0  0  0
   24.1306  -19.4721  -10.6548 O   0  0  0  0  0  0  0  0  0  0  0  0
  2  1  1  6
  2  5  1  0
  3  2  1  0
  4  3  1  0
  5 11  1  0
  5  6  2  0
  8  7  1  6
  8 10  1  0
  8  9  1  0
 10 12  1  0
 10 11  1  6
 12 13  2  0
 14 15  1  0
 15 16  1  0
 18 17  1  1
 17 16  1  0
 18 20  1  0
 19 12  1  0
 19 18  1  0
 20 22  1  0
 21 20  2  0
M  END
$$$$
