QRN.pdb
     RDKit          3D

 29 28  0  0  1  0  0  0  0  0999 V2000
   28.1663  -18.4772  -18.1207 N   0  0  0  0  0  0  0  0  0  0  0  0
   28.2003  -17.3248  -18.9536 C   0  0  0  0  0  0  0  0  0  0  0  0
   28.9676  -16.3946  -18.6253 O   0  0  0  0  0  0  0  0  0  0  0  0
   27.3525  -17.2691  -20.1434 C   0  0  0  0  0  0  0  0  0  0  0  0
   26.5297  -18.4849  -20.4081 C   0  0  0  0  0  0  0  0  0  0  0  0
   27.3039  -19.6178  -21.0545 C   0  0  2  0  0  0  0  0  0  0  0  0
   27.4221  -19.2780  -22.4682 N   0  0  0  0  0  0  0  0  0  0  0  0
   26.5698  -20.8977  -20.9590 C   0  0  0  0  0  0  0  0  0  0  0  0
   25.7967  -21.2649  -21.8833 O   0  0  0  0  0  0  0  0  0  0  0  0
   28.6244  -26.6461  -15.7629 N   0  0  0  0  0  0  0  0  0  0  0  0
   29.2483  -25.9251  -16.8199 C   0  0  0  0  0  0  0  0  0  0  0  0
   30.4432  -25.4490  -16.6324 N   0  0  0  0  0  0  0  0  0  0  0  0
   28.5755  -25.7372  -18.0442 N   0  0  0  0  0  0  0  0  0  0  0  0
   27.2842  -26.3572  -18.2497 C   0  0  0  0  0  0  0  0  0  0  0  0
   26.2997  -25.3072  -18.7398 C   0  0  0  0  0  0  0  0  0  0  0  0
   26.9675  -23.9780  -18.9153 C   0  0  0  0  0  0  0  0  0  0  0  0
   26.0778  -22.9711  -19.6146 C   0  0  2  0  0  0  0  0  0  0  0  0
   26.7446  -21.7108  -19.8152 N   0  0  0  0  0  0  0  0  0  0  0  0
   24.8873  -22.7307  -18.7531 C   0  0  0  0  0  0  0  0  0  0  0  0
   25.0690  -22.2267  -17.6144 O   0  0  0  0  0  0  0  0  0  0  0  0
   30.9400  -24.9400  -17.3954 N   0  0  0  0  0  0  0  0  0  0  0  0
   20.2968  -22.2478  -16.7798 C   0  0  0  0  0  0  0  0  0  0  0  0
   20.1867  -21.9127  -18.1503 O   0  0  0  0  0  0  0  0  0  0  0  0
   19.1231  -21.4139  -18.5505 C   0  0  0  0  0  0  0  0  0  0  0  0
   21.3055  -22.1494  -19.0786 C   0  0  1  0  0  0  0  0  0  0  0  0
   22.4650  -22.7413  -18.3054 N   0  0  0  0  0  0  0  0  0  0  0  0
   23.5731  -23.0503  -19.1761 C   0  0  0  0  0  0  0  0  0  0  0  0
   22.0916  -23.9274  -17.5093 O   0  0  0  0  0  0  0  0  0  0  0  0
   22.2686  -25.0913  -17.9156 O   0  0  0  0  0  0  0  0  0  0  0  0
  1  2  1  0
  2  3  2  0
  4  2  1  0
  4  5  1  0
  6  8  1  0
  6  5  1  0
  6  7  1  6
  8  9  2  0
 10 11  1  0
 11 12  2  0
 11 13  1  0
 13 14  1  0
 14 15  1  0
 15 16  1  0
 17 16  1  1
 17 19  1  0
 18 17  1  0
 18  8  1  0
 19 20  2  0
 21 22  1  0
 22 24  1  0
 23 22  2  0
 25 24  1  1
 25 27  1  0
 26 19  1  0
 26 25  1  0
 27 28  2  0
 27 29  1  0
M  END
$$$$
