QRN.pdb
     RDKit          3D

 29 28  0  0  1  0  0  0  0  0999 V2000
   19.3659  -24.3928   -7.8752 N   0  0  0  0  0  0  0  0  0  0  0  0
   18.7913  -25.3584   -8.7472 C   0  0  0  0  0  0  0  0  0  0  0  0
   18.5279  -26.4841   -8.2729 O   0  0  0  0  0  0  0  0  0  0  0  0
   18.5329  -25.0071  -10.1428 C   0  0  0  0  0  0  0  0  0  0  0  0
   18.9881  -23.6501  -10.5626 C   0  0  0  0  0  0  0  0  0  0  0  0
   18.8592  -23.3961  -12.0524 C   0  0  2  0  0  0  0  0  0  0  0  0
   19.6312  -24.4422  -12.7139 N   0  0  0  0  0  0  0  0  0  0  0  0
   19.4481  -22.0940  -12.4317 C   0  0  0  0  0  0  0  0  0  0  0  0
   18.9755  -21.0186  -11.9767 O   0  0  0  0  0  0  0  0  0  0  0  0
   25.9536  -18.1085  -16.6018 N   0  0  0  0  0  0  0  0  0  0  0  0
   26.2791  -18.2796  -15.2267 C   0  0  0  0  0  0  0  0  0  0  0  0
   27.1103  -17.4482  -14.6723 N   0  0  0  0  0  0  0  0  0  0  0  0
   25.7045  -19.3334  -14.4875 N   0  0  0  0  0  0  0  0  0  0  0  0
   24.7601  -20.2219  -15.1301 C   0  0  0  0  0  0  0  0  0  0  0  0
   23.3589  -19.9036  -14.6328 C   0  0  0  0  0  0  0  0  0  0  0  0
   22.6520  -21.1422  -14.1746 C   0  0  0  0  0  0  0  0  0  0  0  0
   21.2388  -20.8624  -13.7065 C   0  0  2  0  0  0  0  0  0  0  0  0
   20.5532  -22.0662  -13.3138 N   0  0  0  0  0  0  0  0  0  0  0  0
   20.4892  -20.2541  -14.8403 C   0  0  0  0  0  0  0  0  0  0  0  0
   20.1511  -20.9981  -15.7973 O   0  0  0  0  0  0  0  0  0  0  0  0
   27.3929  -17.5624  -13.6747 N   0  0  0  0  0  0  0  0  0  0  0  0
   16.6203  -17.5560  -17.3885 C   0  0  0  0  0  0  0  0  0  0  0  0
   17.6766  -16.8522  -16.7627 O   0  0  0  0  0  0  0  0  0  0  0  0
   18.0291  -15.7659  -17.2484 C   0  0  0  0  0  0  0  0  0  0  0  0
   18.3410  -17.3943  -15.5651 C   0  0  1  0  0  0  0  0  0  0  0  0
   19.4201  -18.3628  -16.0012 N   0  0  0  0  0  0  0  0  0  0  0  0
   20.1514  -18.8782  -14.8694 C   0  0  0  0  0  0  0  0  0  0  0  0
   20.3498  -17.7922  -16.9963 O   0  0  0  0  0  0  0  0  0  0  0  0
   20.0554  -17.6767  -18.2009 O   0  0  0  0  0  0  0  0  0  0  0  0
  1  2  1  0
  2  3  2  0
  4  2  1  0
  4  5  1  0
  6  8  1  0
  6  5  1  0
  6  7  1  6
  8  9  2  0
 10 11  1  0
 11 12  2  0
 11 13  1  0
 13 14  1  0
 14 15  1  0
 15 16  1  0
 17 16  1  6
 17 19  1  0
 18 17  1  0
 18  8  1  0
 19 20  2  0
 21 22  1  0
 22 24  1  0
 23 22  2  0
 25 24  1  1
 25 27  1  0
 26 19  1  0
 26 25  1  0
 27 28  2  0
 27 29  1  0
M  END
$$$$
