QRN.pdb
     RDKit          3D

 29 28  0  0  1  0  0  0  0  0999 V2000
   26.6555  -23.4858  -14.9913 N   0  0  0  0  0  0  0  0  0  0  0  0
   26.6187  -22.3321  -15.8223 C   0  0  0  0  0  0  0  0  0  0  0  0
   27.2869  -22.3563  -16.8780 O   0  0  0  0  0  0  0  0  0  0  0  0
   25.8148  -21.1789  -15.4206 C   0  0  0  0  0  0  0  0  0  0  0  0
   25.0430  -21.3387  -14.1542 C   0  0  0  0  0  0  0  0  0  0  0  0
   23.9040  -22.3354  -14.2544 C   0  0  2  0  0  0  0  0  0  0  0  0
   23.4876  -22.3413  -15.6524 N   0  0  0  0  0  0  0  0  0  0  0  0
   22.7436  -21.9139  -13.4408 C   0  0  0  0  0  0  0  0  0  0  0  0
   22.8927  -21.5763  -12.2364 O   0  0  0  0  0  0  0  0  0  0  0  0
   15.5156  -18.8253  -16.8112 N   0  0  0  0  0  0  0  0  0  0  0  0
   16.7314  -18.2136  -16.3941 C   0  0  0  0  0  0  0  0  0  0  0  0
   17.1083  -17.1122  -16.9726 N   0  0  0  0  0  0  0  0  0  0  0  0
   17.5049  -18.7980  -15.3709 N   0  0  0  0  0  0  0  0  0  0  0  0
   16.9702  -19.9164  -14.6243 C   0  0  0  0  0  0  0  0  0  0  0  0
   18.0122  -20.3915  -13.6241 C   0  0  0  0  0  0  0  0  0  0  0  0
   19.2503  -20.8710  -14.3175 C   0  0  0  0  0  0  0  0  0  0  0  0
   20.2706  -21.4393  -13.3530 C   0  0  2  0  0  0  0  0  0  0  0  0
   21.4582  -21.8920  -14.0300 N   0  0  0  0  0  0  0  0  0  0  0  0
   19.6561  -22.6099  -12.6681 C   0  0  0  0  0  0  0  0  0  0  0  0
   19.5959  -23.7007  -13.2929 O   0  0  0  0  0  0  0  0  0  0  0  0
   18.0056  -16.6510  -16.7077 N   0  0  0  0  0  0  0  0  0  0  0  0
   18.3969  -25.2592   -7.3096 C   0  0  0  0  0  0  0  0  0  0  0  0
   18.4846  -25.0580   -8.7076 O   0  0  0  0  0  0  0  0  0  0  0  0
   18.1492  -25.9876   -9.4582 C   0  0  0  0  0  0  0  0  0  0  0  0
   18.9614  -23.7779   -9.2586 C   0  0  2  0  0  0  0  0  0  0  0  0
   18.6149  -23.7206  -10.7315 N   0  0  0  0  0  0  0  0  0  0  0  0
   19.1441  -22.5291  -11.3492 C   0  0  0  0  0  0  0  0  0  0  0  0
   17.1668  -23.8360  -10.9959 O   0  0  0  0  0  0  0  0  0  0  0  0
   16.3856  -22.8724  -10.8855 O   0  0  0  0  0  0  0  0  0  0  0  0
  1  2  1  0
  2  3  2  0
  4  2  1  0
  4  5  1  0
  6  8  1  0
  6  5  1  0
  6  7  1  6
  8  9  2  0
 10 11  1  0
 11 12  2  0
 11 13  1  0
 13 14  1  0
 14 15  1  0
 15 16  1  0
 17 16  1  6
 17 19  1  0
 18 17  1  0
 18  8  1  0
 19 20  2  0
 21 22  1  0
 22 24  1  0
 23 22  2  0
 25 24  1  6
 25 27  1  0
 26 19  1  0
 26 25  1  0
 27 28  2  0
 27 29  1  0
M  END
$$$$
