QRN.pdb
     RDKit          3D

 29 28  0  0  1  0  0  0  0  0999 V2000
   27.0570  -19.6338  -22.8207 N   0  0  0  0  0  0  0  0  0  0  0  0
   27.1281  -18.6746  -21.7729 C   0  0  0  0  0  0  0  0  0  0  0  0
   26.7211  -17.5185  -22.0166 O   0  0  0  0  0  0  0  0  0  0  0  0
   27.6647  -19.0669  -20.4708 C   0  0  0  0  0  0  0  0  0  0  0  0
   26.7242  -19.8076  -19.5808 C   0  0  0  0  0  0  0  0  0  0  0  0
   25.6473  -18.9335  -18.9671 C   0  0  2  0  0  0  0  0  0  0  0  0
   26.3380  -17.9679  -18.1195 N   0  0  0  0  0  0  0  0  0  0  0  0
   24.7386  -19.7198  -18.1056 C   0  0  0  0  0  0  0  0  0  0  0  0
   24.1429  -20.7336  -18.5574 O   0  0  0  0  0  0  0  0  0  0  0  0
   25.0735  -20.6841   -9.4414 N   0  0  0  0  0  0  0  0  0  0  0  0
   25.4228  -21.6375  -10.4391 C   0  0  0  0  0  0  0  0  0  0  0  0
   26.2895  -22.5607  -10.1459 N   0  0  0  0  0  0  0  0  0  0  0  0
   24.8334  -21.5744  -11.7179 N   0  0  0  0  0  0  0  0  0  0  0  0
   23.8876  -20.5202  -12.0150 C   0  0  0  0  0  0  0  0  0  0  0  0
   23.3801  -20.6925  -13.4379 C   0  0  0  0  0  0  0  0  0  0  0  0
   24.2042  -19.9017  -14.4069 C   0  0  0  0  0  0  0  0  0  0  0  0
   23.7003  -20.0241  -15.8301 C   0  0  2  0  0  0  0  0  0  0  0  0
   24.5437  -19.3222  -16.7625 N   0  0  0  0  0  0  0  0  0  0  0  0
   22.3413  -19.4187  -15.8920 C   0  0  0  0  0  0  0  0  0  0  0  0
   22.2389  -18.1715  -15.7578 O   0  0  0  0  0  0  0  0  0  0  0  0
   26.6133  -23.2374  -10.8708 N   0  0  0  0  0  0  0  0  0  0  0  0
   17.4840  -18.3297  -16.2081 C   0  0  0  0  0  0  0  0  0  0  0  0
   18.0984  -18.6159  -17.4504 O   0  0  0  0  0  0  0  0  0  0  0  0
   17.5215  -18.2569  -18.4889 C   0  0  0  0  0  0  0  0  0  0  0  0
   19.3899  -19.3216  -17.5102 C   0  0  2  0  0  0  0  0  0  0  0  0
   19.8899  -19.5459  -16.0986 N   0  0  0  0  0  0  0  0  0  0  0  0
   21.1762  -20.1993  -16.0951 C   0  0  0  0  0  0  0  0  0  0  0  0
   18.9350  -20.2879  -15.2515 O   0  0  0  0  0  0  0  0  0  0  0  0
   18.9008  -21.5321  -15.2102 O   0  0  0  0  0  0  0  0  0  0  0  0
  1  2  1  0
  2  3  2  0
  4  2  1  0
  4  5  1  0
  6  8  1  0
  6  5  1  0
  6  7  1  1
  8  9  2  0
 10 11  1  0
 11 12  2  0
 11 13  1  0
 13 14  1  0
 14 15  1  0
 15 16  1  0
 17 16  1  1
 17 19  1  0
 18 17  1  0
 18  8  1  0
 19 20  2  0
 21 22  1  0
 22 24  1  0
 23 22  2  0
 25 24  1  6
 25 27  1  0
 26 19  1  0
 26 25  1  0
 27 28  2  0
 27 29  1  0
M  END
$$$$
