QRN.pdb
     RDKit          3D

 29 28  0  0  1  0  0  0  0  0999 V2000
   19.2270  -29.6235   -9.6253 N   0  0  0  0  0  0  0  0  0  0  0  0
   20.0811  -30.6082  -10.1945 C   0  0  0  0  0  0  0  0  0  0  0  0
   19.8340  -31.8066   -9.9410 O   0  0  0  0  0  0  0  0  0  0  0  0
   21.1978  -30.1921  -11.0415 C   0  0  0  0  0  0  0  0  0  0  0  0
   21.2515  -28.7385  -11.3722 C   0  0  0  0  0  0  0  0  0  0  0  0
   20.4789  -28.3677  -12.6238 C   0  0  2  0  0  0  0  0  0  0  0  0
   21.2645  -28.8598  -13.7501 N   0  0  0  0  0  0  0  0  0  0  0  0
   20.3549  -26.9014  -12.7678 C   0  0  0  0  0  0  0  0  0  0  0  0
   19.7845  -26.2149  -11.8789 O   0  0  0  0  0  0  0  0  0  0  0  0
   23.6444  -22.4120  -19.4152 N   0  0  0  0  0  0  0  0  0  0  0  0
   22.4902  -23.2335  -19.2771 C   0  0  0  0  0  0  0  0  0  0  0  0
   22.0090  -23.8191  -20.3331 N   0  0  0  0  0  0  0  0  0  0  0  0
   21.8878  -23.4040  -18.0142 N   0  0  0  0  0  0  0  0  0  0  0  0
   22.3455  -22.6106  -16.8938 C   0  0  0  0  0  0  0  0  0  0  0  0
   21.5405  -22.9820  -15.6584 C   0  0  0  0  0  0  0  0  0  0  0  0
   21.5700  -24.4599  -15.4162 C   0  0  0  0  0  0  0  0  0  0  0  0
   20.8047  -24.8576  -14.1711 C   0  0  2  0  0  0  0  0  0  0  0  0
   20.8857  -26.2728  -13.9181 N   0  0  0  0  0  0  0  0  0  0  0  0
   19.3722  -24.5079  -14.3786 C   0  0  0  0  0  0  0  0  0  0  0  0
   18.6751  -25.2615  -15.1065 O   0  0  0  0  0  0  0  0  0  0  0  0
   21.1139  -24.3525  -20.2856 N   0  0  0  0  0  0  0  0  0  0  0  0
   14.6559  -23.0381  -13.7329 C   0  0  0  0  0  0  0  0  0  0  0  0
   15.2662  -23.6477  -12.6111 O   0  0  0  0  0  0  0  0  0  0  0  0
   14.5369  -24.0535  -11.6926 C   0  0  0  0  0  0  0  0  0  0  0  0
   16.7295  -23.7975  -12.5350 C   0  0  2  0  0  0  0  0  0  0  0  0
   17.3446  -23.2347  -13.7990 N   0  0  0  0  0  0  0  0  0  0  0  0
   18.7815  -23.3642  -13.7860 C   0  0  0  0  0  0  0  0  0  0  0  0
   16.9578  -21.8346  -14.0637 O   0  0  0  0  0  0  0  0  0  0  0  0
   15.7696  -21.4688  -14.1358 O   0  0  0  0  0  0  0  0  0  0  0  0
  1  2  1  0
  2  3  2  0
  4  2  1  0
  4  5  1  0
  6  8  1  0
  6  5  1  0
  6  7  1  6
  8  9  2  0
 10 11  1  0
 11 12  2  0
 11 13  1  0
 13 14  1  0
 14 15  1  0
 15 16  1  0
 17 16  1  6
 17 19  1  0
 18 17  1  0
 18  8  1  0
 19 20  2  0
 21 22  1  0
 22 24  1  0
 23 22  2  0
 25 24  1  6
 25 27  1  0
 26 19  1  0
 26 25  1  0
 27 28  2  0
 27 29  1  0
M  END
$$$$
