QRN.pdb
     RDKit          3D

 29 28  0  0  1  0  0  0  0  0999 V2000
   27.5453  -22.0788  -19.8410 N   0  0  0  0  0  0  0  0  0  0  0  0
   26.2142  -22.1616  -20.3354 C   0  0  0  0  0  0  0  0  0  0  0  0
   26.0373  -21.9753  -21.5583 O   0  0  0  0  0  0  0  0  0  0  0  0
   25.1190  -22.4568  -19.4130 C   0  0  0  0  0  0  0  0  0  0  0  0
   25.5028  -22.6001  -17.9787 C   0  0  0  0  0  0  0  0  0  0  0  0
   25.3229  -21.3306  -17.1682 C   0  0  2  0  0  0  0  0  0  0  0  0
   26.6567  -20.7685  -16.9872 N   0  0  0  0  0  0  0  0  0  0  0  0
   24.7701  -21.6191  -15.8275 C   0  0  0  0  0  0  0  0  0  0  0  0
   23.9897  -22.5919  -15.6505 O   0  0  0  0  0  0  0  0  0  0  0  0
   26.4867  -20.9338   -7.6506 N   0  0  0  0  0  0  0  0  0  0  0  0
   27.3952  -20.8421   -8.7427 C   0  0  0  0  0  0  0  0  0  0  0  0
   28.5413  -21.4490   -8.6557 N   0  0  0  0  0  0  0  0  0  0  0  0
   27.0489  -20.1057   -9.8936 N   0  0  0  0  0  0  0  0  0  0  0  0
   25.7243  -19.5328  -10.0008 C   0  0  0  0  0  0  0  0  0  0  0  0
   24.9079  -20.3473  -10.9918 C   0  0  0  0  0  0  0  0  0  0  0  0
   25.4551  -20.2186  -12.3802 C   0  0  0  0  0  0  0  0  0  0  0  0
   24.6080  -20.9432  -13.4056 C   0  0  2  0  0  0  0  0  0  0  0  0
   25.1279  -20.7894  -14.7396 N   0  0  0  0  0  0  0  0  0  0  0  0
   23.2405  -20.3547  -13.3733 C   0  0  0  0  0  0  0  0  0  0  0  0
   23.0729  -19.2114  -13.8719 O   0  0  0  0  0  0  0  0  0  0  0  0
   29.2602  -21.3404   -9.4037 N   0  0  0  0  0  0  0  0  0  0  0  0
   19.0709  -22.6838  -16.1286 C   0  0  0  0  0  0  0  0  0  0  0  0
   19.7655  -21.5650  -15.6108 O   0  0  0  0  0  0  0  0  0  0  0  0
   19.2896  -20.4353  -15.8047 C   0  0  0  0  0  0  0  0  0  0  0  0
   21.0214  -21.7359  -14.8603 C   0  0  2  0  0  0  0  0  0  0  0  0
   20.8831  -21.0551  -13.5149 N   0  0  0  0  0  0  0  0  0  0  0  0
   22.1381  -21.0389  -12.8035 C   0  0  0  0  0  0  0  0  0  0  0  0
   19.8221  -21.6395  -12.6707 O   0  0  0  0  0  0  0  0  0  0  0  0
   19.8513  -21.5910  -11.4266 O   0  0  0  0  0  0  0  0  0  0  0  0
  1  2  1  0
  2  3  2  0
  4  2  1  0
  4  5  1  0
  6  8  1  0
  6  5  1  0
  6  7  1  1
  8  9  2  0
 10 11  1  0
 11 12  2  0
 11 13  1  0
 13 14  1  0
 14 15  1  0
 15 16  1  0
 17 16  1  1
 17 19  1  0
 18 17  1  0
 18  8  1  0
 19 20  2  0
 21 22  1  0
 22 24  1  0
 23 22  2  0
 25 24  1  6
 25 27  1  0
 26 19  1  0
 26 25  1  0
 27 28  2  0
 27 29  1  0
M  END
$$$$
