QRN.pdb
     RDKit          3D

 29 28  0  0  1  0  0  0  0  0999 V2000
   25.7907  -20.9520  -19.9703 N   0  0  0  0  0  0  0  0  0  0  0  0
   26.8878  -21.5985  -20.6040 C   0  0  0  0  0  0  0  0  0  0  0  0
   26.6931  -22.0984  -21.7326 O   0  0  0  0  0  0  0  0  0  0  0  0
   28.1818  -21.6545  -19.9259 C   0  0  0  0  0  0  0  0  0  0  0  0
   28.2706  -20.9041  -18.6398 C   0  0  0  0  0  0  0  0  0  0  0  0
   28.7657  -21.7419  -17.4763 C   0  0  2  0  0  0  0  0  0  0  0  0
   28.8760  -23.1086  -17.9743 N   0  0  0  0  0  0  0  0  0  0  0  0
   27.7946  -21.7462  -16.3614 C   0  0  0  0  0  0  0  0  0  0  0  0
   26.9366  -22.6630  -16.2607 O   0  0  0  0  0  0  0  0  0  0  0  0
   23.5965  -21.4168  -11.6084 N   0  0  0  0  0  0  0  0  0  0  0  0
   24.1372  -21.0079  -10.3567 C   0  0  0  0  0  0  0  0  0  0  0  0
   23.3336  -20.8641   -9.3451 N   0  0  0  0  0  0  0  0  0  0  0  0
   25.5198  -20.7670  -10.2258 N   0  0  0  0  0  0  0  0  0  0  0  0
   26.3823  -20.9246  -11.3771 C   0  0  0  0  0  0  0  0  0  0  0  0
   26.6172  -19.5638  -12.0136 C   0  0  0  0  0  0  0  0  0  0  0  0
   27.5160  -19.6714  -13.2070 C   0  0  0  0  0  0  0  0  0  0  0  0
   26.9949  -20.6518  -14.2374 C   0  0  2  0  0  0  0  0  0  0  0  0
   27.8381  -20.7069  -15.4033 N   0  0  0  0  0  0  0  0  0  0  0  0
   25.6441  -20.1956  -14.6667 C   0  0  0  0  0  0  0  0  0  0  0  0
   25.5635  -19.1576  -15.3738 O   0  0  0  0  0  0  0  0  0  0  0  0
   23.7021  -20.6048   -8.4043 N   0  0  0  0  0  0  0  0  0  0  0  0
   21.1065  -20.4675  -17.2504 C   0  0  0  0  0  0  0  0  0  0  0  0
   21.1658  -21.1342  -16.0036 O   0  0  0  0  0  0  0  0  0  0  0  0
   20.1101  -21.2940  -15.3709 C   0  0  0  0  0  0  0  0  0  0  0  0
   22.4472  -21.6265  -15.4698 C   0  0  1  0  0  0  0  0  0  0  0  0
   23.2032  -20.4631  -14.8635 N   0  0  0  0  0  0  0  0  0  0  0  0
   24.4630  -20.8899  -14.3046 C   0  0  0  0  0  0  0  0  0  0  0  0
   22.4207  -19.7191  -13.8564 O   0  0  0  0  0  0  0  0  0  0  0  0
   22.5269  -19.9307  -12.6337 O   0  0  0  0  0  0  0  0  0  0  0  0
  1  2  1  0
  2  3  2  0
  4  2  1  0
  4  5  1  0
  6  8  1  0
  6  5  1  0
  6  7  1  6
  8  9  2  0
 10 11  1  0
 11 12  2  0
 11 13  1  0
 13 14  1  0
 14 15  1  0
 15 16  1  0
 17 16  1  1
 17 19  1  0
 18 17  1  0
 18  8  1  0
 19 20  2  0
 21 22  1  0
 22 24  1  0
 23 22  2  0
 25 24  1  6
 25 27  1  0
 26 19  1  0
 26 25  1  0
 27 28  2  0
 27 29  1  0
M  END
$$$$
