QRN.pdb
     RDKit          3D

 29 28  0  0  1  0  0  0  0  0999 V2000
   25.5302  -21.8842  -18.7011 N   0  0  0  0  0  0  0  0  0  0  0  0
   26.1534  -21.5350  -17.4712 C   0  0  0  0  0  0  0  0  0  0  0  0
   26.9882  -20.6052  -17.4877 O   0  0  0  0  0  0  0  0  0  0  0  0
   25.8022  -22.2620  -16.2524 C   0  0  0  0  0  0  0  0  0  0  0  0
   24.7378  -23.2965  -16.4009 C   0  0  0  0  0  0  0  0  0  0  0  0
   24.4877  -24.1013  -15.1398 C   0  0  2  0  0  0  0  0  0  0  0  0
   25.3138  -25.2987  -15.2483 N   0  0  0  0  0  0  0  0  0  0  0  0
   23.0772  -24.5346  -15.0460 C   0  0  0  0  0  0  0  0  0  0  0  0
   22.6117  -25.3844  -15.8509 O   0  0  0  0  0  0  0  0  0  0  0  0
   17.2417  -27.0394  -10.7186 N   0  0  0  0  0  0  0  0  0  0  0  0
   18.3332  -27.8553  -10.3072 C   0  0  0  0  0  0  0  0  0  0  0  0
   18.1264  -29.1230  -10.1079 N   0  0  0  0  0  0  0  0  0  0  0  0
   19.6113  -27.2903  -10.1234 N   0  0  0  0  0  0  0  0  0  0  0  0
   19.8372  -25.9070  -10.4838 C   0  0  0  0  0  0  0  0  0  0  0  0
   20.4102  -25.8460  -11.8909 C   0  0  0  0  0  0  0  0  0  0  0  0
   20.5103  -24.4318  -12.3746 C   0  0  0  0  0  0  0  0  0  0  0  0
   20.8712  -24.3466  -13.8432 C   0  0  2  0  0  0  0  0  0  0  0  0
   22.2510  -23.9843  -14.0387 N   0  0  0  0  0  0  0  0  0  0  0  0
   20.0250  -23.2914  -14.4657 C   0  0  0  0  0  0  0  0  0  0  0  0
   20.3480  -22.0880  -14.2882 O   0  0  0  0  0  0  0  0  0  0  0  0
   18.9112  -29.7553   -9.8388 N   0  0  0  0  0  0  0  0  0  0  0  0
   16.4078  -21.3303  -18.6631 C   0  0  0  0  0  0  0  0  0  0  0  0
   16.3539  -21.9570  -17.3955 O   0  0  0  0  0  0  0  0  0  0  0  0
   15.4665  -21.6055  -16.6023 C   0  0  0  0  0  0  0  0  0  0  0  0
   17.3259  -23.0003  -17.0262 C   0  0  1  0  0  0  0  0  0  0  0  0
   18.1218  -22.5249  -15.8290 N   0  0  0  0  0  0  0  0  0  0  0  0
   18.8810  -23.6022  -15.2421 C   0  0  0  0  0  0  0  0  0  0  0  0
   17.2930  -21.8623  -14.8022 O   0  0  0  0  0  0  0  0  0  0  0  0
   16.9925  -20.6550  -14.8589 O   0  0  0  0  0  0  0  0  0  0  0  0
  1  2  1  0
  2  3  2  0
  4  2  1  0
  4  5  1  0
  6  8  1  0
  6  5  1  0
  6  7  1  6
  8  9  2  0
 10 11  1  0
 11 12  2  0
 11 13  1  0
 13 14  1  0
 14 15  1  0
 15 16  1  0
 17 16  1  1
 17 19  1  0
 18 17  1  0
 18  8  1  0
 19 20  2  0
 21 22  1  0
 22 24  1  0
 23 22  2  0
 25 24  1  6
 25 27  1  0
 26 19  1  0
 26 25  1  0
 27 28  2  0
 27 29  1  0
M  END
$$$$
