QRN.pdb
     RDKit          3D

 29 28  0  0  1  0  0  0  0  0999 V2000
   27.7038  -16.7657  -15.5574 N   0  0  0  0  0  0  0  0  0  0  0  0
   28.5111  -17.2087  -16.6413 C   0  0  0  0  0  0  0  0  0  0  0  0
   29.4322  -16.4558  -17.0239 O   0  0  0  0  0  0  0  0  0  0  0  0
   28.2408  -18.5059  -17.2592 C   0  0  0  0  0  0  0  0  0  0  0  0
   27.1244  -19.2894  -16.6551 C   0  0  0  0  0  0  0  0  0  0  0  0
   27.5423  -20.1295  -15.4634 C   0  0  2  0  0  0  0  0  0  0  0  0
   28.3427  -21.2263  -15.9967 N   0  0  0  0  0  0  0  0  0  0  0  0
   26.3709  -20.7181  -14.7796 C   0  0  0  0  0  0  0  0  0  0  0  0
   25.5479  -21.4301  -15.4140 O   0  0  0  0  0  0  0  0  0  0  0  0
   22.1327  -22.1452   -7.5769 N   0  0  0  0  0  0  0  0  0  0  0  0
   21.8116  -20.7963   -7.8988 C   0  0  0  0  0  0  0  0  0  0  0  0
   20.6385  -20.3384   -7.5764 N   0  0  0  0  0  0  0  0  0  0  0  0
   22.7551  -19.9795   -8.5540 N   0  0  0  0  0  0  0  0  0  0  0  0
   24.0270  -20.5413   -8.9550 C   0  0  0  0  0  0  0  0  0  0  0  0
   23.9372  -20.9938  -10.4039 C   0  0  0  0  0  0  0  0  0  0  0  0
   25.0939  -20.4800  -11.2050 C   0  0  0  0  0  0  0  0  0  0  0  0
   25.0219  -20.8979  -12.6591 C   0  0  2  0  0  0  0  0  0  0  0  0
   26.1821  -20.4743  -13.3994 N   0  0  0  0  0  0  0  0  0  0  0  0
   23.8262  -20.2509  -13.2664 C   0  0  0  0  0  0  0  0  0  0  0  0
   23.9243  -19.0542  -13.6434 O   0  0  0  0  0  0  0  0  0  0  0  0
   20.3763  -19.3505   -7.7845 N   0  0  0  0  0  0  0  0  0  0  0  0
   20.5995  -18.6974  -17.0357 C   0  0  0  0  0  0  0  0  0  0  0  0
   20.4585  -19.8856  -16.2800 O   0  0  0  0  0  0  0  0  0  0  0  0
   19.3289  -20.3904  -16.1824 C   0  0  0  0  0  0  0  0  0  0  0  0
   21.6222  -20.5080  -15.6259 C   0  0  1  0  0  0  0  0  0  0  0  0
   21.5201  -20.2849  -14.1317 N   0  0  0  0  0  0  0  0  0  0  0  0
   22.5975  -20.9379  -13.4287 C   0  0  0  0  0  0  0  0  0  0  0  0
   20.2178  -20.6925  -13.5678 O   0  0  0  0  0  0  0  0  0  0  0  0
   20.0386  -21.7983  -13.0237 O   0  0  0  0  0  0  0  0  0  0  0  0
  1  2  1  0
  2  3  2  0
  4  2  1  0
  4  5  1  0
  6  8  1  0
  6  5  1  0
  6  7  1  6
  8  9  2  0
 10 11  1  0
 11 12  2  0
 11 13  1  0
 13 14  1  0
 14 15  1  0
 15 16  1  0
 17 16  1  1
 17 19  1  0
 18 17  1  0
 18  8  1  0
 19 20  2  0
 21 22  1  0
 22 24  1  0
 23 22  2  0
 25 24  1  6
 25 27  1  0
 26 19  1  0
 26 25  1  0
 27 28  2  0
 27 29  1  0
M  END
$$$$
