QRN.pdb
     RDKit          3D

 29 28  0  0  1  0  0  0  0  0999 V2000
   24.3749  -14.5755  -17.8000 N   0  0  0  0  0  0  0  0  0  0  0  0
   23.1986  -15.3652  -17.6753 C   0  0  0  0  0  0  0  0  0  0  0  0
   22.1478  -14.7885  -17.3220 O   0  0  0  0  0  0  0  0  0  0  0  0
   23.2581  -16.7981  -17.9598 C   0  0  0  0  0  0  0  0  0  0  0  0
   22.8114  -17.6954  -16.8551 C   0  0  0  0  0  0  0  0  0  0  0  0
   23.9376  -18.4862  -16.2171 C   0  0  2  0  0  0  0  0  0  0  0  0
   24.7511  -18.9976  -17.3147 N   0  0  0  0  0  0  0  0  0  0  0  0
   23.4217  -19.6470  -15.4603 C   0  0  0  0  0  0  0  0  0  0  0  0
   22.7224  -20.5259  -16.0306 O   0  0  0  0  0  0  0  0  0  0  0  0
   27.7405  -20.0607  -14.5947 N   0  0  0  0  0  0  0  0  0  0  0  0
   27.9721  -20.6261  -13.3090 C   0  0  0  0  0  0  0  0  0  0  0  0
   28.7630  -21.6530  -13.2104 N   0  0  0  0  0  0  0  0  0  0  0  0
   27.3519  -20.0751  -12.1695 N   0  0  0  0  0  0  0  0  0  0  0  0
   26.4763  -20.9007  -11.3658 C   0  0  0  0  0  0  0  0  0  0  0  0
   25.4257  -21.5343  -12.2640 C   0  0  0  0  0  0  0  0  0  0  0  0
   24.0643  -20.9763  -11.9831 C   0  0  0  0  0  0  0  0  0  0  0  0
   23.2320  -20.8212  -13.2391 C   0  0  2  0  0  0  0  0  0  0  0  0
   23.7226  -19.7630  -14.0833 N   0  0  0  0  0  0  0  0  0  0  0  0
   21.8414  -20.4784  -12.8316 C   0  0  0  0  0  0  0  0  0  0  0  0
   21.5651  -19.2694  -12.6174 O   0  0  0  0  0  0  0  0  0  0  0  0
   28.8773  -22.1525  -12.3018 N   0  0  0  0  0  0  0  0  0  0  0  0
   17.3547  -20.7204  -15.7498 C   0  0  0  0  0  0  0  0  0  0  0  0
   18.0355  -20.0728  -14.6917 O   0  0  0  0  0  0  0  0  0  0  0  0
   17.4224  -19.2178  -14.0334 C   0  0  0  0  0  0  0  0  0  0  0  0
   19.4361  -20.4046  -14.3788 C   0  0  2  0  0  0  0  0  0  0  0  0
   19.4799  -21.1421  -13.0570 N   0  0  0  0  0  0  0  0  0  0  0  0
   20.8348  -21.4643  -12.6805 C   0  0  0  0  0  0  0  0  0  0  0  0
   18.6391  -22.3557  -13.0370 O   0  0  0  0  0  0  0  0  0  0  0  0
   19.1014  -23.4956  -13.2315 O   0  0  0  0  0  0  0  0  0  0  0  0
  1  2  1  0
  2  3  2  0
  4  2  1  0
  4  5  1  0
  6  8  1  0
  6  5  1  0
  6  7  1  6
  8  9  2  0
 10 11  1  0
 11 12  2  0
 11 13  1  0
 13 14  1  0
 14 15  1  0
 15 16  1  0
 17 16  1  1
 17 19  1  0
 18 17  1  0
 18  8  1  0
 19 20  2  0
 21 22  1  0
 22 24  1  0
 23 22  2  0
 25 24  1  1
 25 27  1  0
 26 19  1  0
 26 25  1  0
 27 28  2  0
 27 29  1  0
M  END
$$$$
