DRY.pdb
     RDKit          3D

 32 32  0  0  1  0  0  0  0  0999 V2000
    6.5269  -14.9998   19.4515 N   0  0  0  0  0  0  0  0  0  0  0  0
    7.6852  -15.0456   20.3363 C   0  0  1  0  0  0  0  0  0  0  0  0
    8.2624  -13.6479   20.4215 C   0  0  0  0  0  0  0  0  0  0  0  0
    8.9679  -13.3494   19.1421 C   0  0  0  0  0  0  0  0  0  0  0  0
    9.4015  -14.2694   18.4084 O   0  0  0  0  0  0  0  0  0  0  0  0
    7.2213  -15.4518   21.6809 C   0  0  0  0  0  0  0  0  0  0  0  0
    6.3103  -14.8115   22.2713 O   0  0  0  0  0  0  0  0  0  0  0  0
    9.1622  -12.0285   18.7310 O   0  0  0  0  0  0  0  0  0  0  0  0
    4.2961  -22.7534   22.6794 N   0  0  0  0  0  0  0  0  0  0  0  0
    5.2715  -22.4192   23.6458 C   0  0  0  0  0  0  0  0  0  0  0  0
    5.4005  -23.0461   24.7585 N   0  0  0  0  0  0  0  0  0  0  0  0
    6.1835  -21.3297   23.4129 N   0  0  0  0  0  0  0  0  0  0  0  0
    6.1574  -20.5373   22.2051 C   0  0  0  0  0  0  0  0  0  0  0  0
    6.0592  -19.0895   22.6140 C   0  0  0  0  0  0  0  0  0  0  0  0
    7.1479  -18.5988   23.4635 C   0  0  0  0  0  0  0  0  0  0  0  0
    7.3043  -17.1239   23.5915 C   0  0  2  0  0  0  0  0  0  0  0  0
    7.7986  -16.5688   22.3201 N   0  0  0  0  0  0  0  0  0  0  0  0
    8.2107  -16.6586   24.6541 C   0  0  0  0  0  0  0  0  0  0  0  0
    9.4621  -16.4984   24.3878 O   0  0  0  0  0  0  0  0  0  0  0  0
    6.1559  -22.7870   25.4110 O   0  0  0  0  0  0  0  0  0  0  0  0
    6.8415  -10.1427   25.2225 C   0  0  0  0  0  0  0  0  0  0  0  0
    7.2292  -11.3267   25.8793 C   0  0  0  0  0  0  0  0  0  0  0  0
    8.5560  -11.6390   26.0657 C   0  0  0  0  0  0  0  0  0  0  0  0
    8.9085  -12.8115   26.7154 C   0  0  0  0  0  0  0  0  0  0  0  0
    7.9714  -13.7048   27.1973 C   0  0  0  0  0  0  0  0  0  0  0  0
    8.3046  -14.9542   27.8743 C   0  0  2  0  0  0  0  0  0  0  0  0
    8.8853  -16.0252   26.9930 N   0  0  0  0  0  0  0  0  0  0  0  0
    7.8766  -16.3464   25.9891 C   0  0  0  0  0  0  0  0  0  0  0  0
    9.0682  -17.2598   27.7938 O   0  0  0  0  0  0  0  0  0  0  0  0
   10.0506  -17.4140   28.7631 C   0  0  0  0  0  0  0  0  0  0  0  0
    6.6437  -13.3664   26.9962 C   0  0  0  0  0  0  0  0  0  0  0  0
    6.2775  -12.1991   26.3493 O   0  0  0  0  0  0  0  0  0  0  0  0
  2  1  1  6
  2  3  1  0
  4  3  1  0
  4  5  2  0
  6  7  2  0
  6  2  1  0
  8  4  1  0
 10  9  1  0
 10 12  1  0
 11 10  2  0
 12 13  1  0
 13 14  1  0
 14 15  1  0
 16 15  1  6
 16 17  1  0
 17  6  1  0
 18 16  1  0
 19 18  2  0
 21 31  2  0
 21 20  1  0
 22 21  1  0
 23 24  1  0
 23 22  2  0
 24 30  2  0
 26 25  1  6
 25 24  1  0
 26 28  1  0
 26 27  1  0
 27 18  1  0
 28 29  1  0
 30 31  1  0
 32 28  2  0
M  END
$$$$
