DRY.pdb
     RDKit          3D

 32 32  0  0  1  0  0  0  0  0999 V2000
    8.8602  -15.7015   19.7345 N   0  0  0  0  0  0  0  0  0  0  0  0
    8.3129  -14.6438   20.5763 C   0  0  1  0  0  0  0  0  0  0  0  0
    7.1316  -14.0345   19.8503 C   0  0  0  0  0  0  0  0  0  0  0  0
    7.5956  -13.5452   18.5203 C   0  0  0  0  0  0  0  0  0  0  0  0
    7.0072  -12.6077   17.9307 O   0  0  0  0  0  0  0  0  0  0  0  0
    7.8336  -15.2582   21.8336 C   0  0  0  0  0  0  0  0  0  0  0  0
    7.1873  -14.5820   22.6783 O   0  0  0  0  0  0  0  0  0  0  0  0
    8.7038  -14.1254   17.8985 O   0  0  0  0  0  0  0  0  0  0  0  0
    4.1976  -21.6635   22.3526 N   0  0  0  0  0  0  0  0  0  0  0  0
    4.6231  -21.4840   21.0170 C   0  0  0  0  0  0  0  0  0  0  0  0
    3.8429  -21.6234   20.0072 N   0  0  0  0  0  0  0  0  0  0  0  0
    5.9886  -21.1290   20.7295 N   0  0  0  0  0  0  0  0  0  0  0  0
    6.9391  -20.7907   21.7635 C   0  0  0  0  0  0  0  0  0  0  0  0
    6.7218  -19.3430   22.1240 C   0  0  0  0  0  0  0  0  0  0  0  0
    7.6718  -18.7841   23.0898 C   0  0  0  0  0  0  0  0  0  0  0  0
    7.6339  -17.3129   23.3139 C   0  0  2  0  0  0  0  0  0  0  0  0
    8.0974  -16.6177   22.1012 N   0  0  0  0  0  0  0  0  0  0  0  0
    8.4356  -16.8087   24.4410 C   0  0  0  0  0  0  0  0  0  0  0  0
    9.6749  -16.5103   24.2474 O   0  0  0  0  0  0  0  0  0  0  0  0
    4.2046  -21.4756   19.0528 O   0  0  0  0  0  0  0  0  0  0  0  0
    6.9885  -10.1934   25.3576 C   0  0  0  0  0  0  0  0  0  0  0  0
    7.2553  -11.4480   25.9393 C   0  0  0  0  0  0  0  0  0  0  0  0
    6.2382  -12.3131   26.2706 C   0  0  0  0  0  0  0  0  0  0  0  0
    6.5302  -13.5414   26.8424 C   0  0  0  0  0  0  0  0  0  0  0  0
    7.8235  -13.9514   27.1029 C   0  0  0  0  0  0  0  0  0  0  0  0
    8.1685  -15.2306   27.7150 C   0  0  2  0  0  0  0  0  0  0  0  0
    8.9221  -16.1826   26.8280 N   0  0  0  0  0  0  0  0  0  0  0  0
    8.0077  -16.5948   25.7686 C   0  0  0  0  0  0  0  0  0  0  0  0
    9.2328  -17.4121   27.5968 O   0  0  0  0  0  0  0  0  0  0  0  0
   10.1752  -17.4695   28.6151 C   0  0  0  0  0  0  0  0  0  0  0  0
    8.8279  -13.0618   26.7600 C   0  0  0  0  0  0  0  0  0  0  0  0
    8.5507  -11.8322   26.1886 O   0  0  0  0  0  0  0  0  0  0  0  0
  2  1  1  6
  2  3  1  0
  4  3  1  0
  4  5  2  0
  6  7  2  0
  6  2  1  0
  8  4  1  0
 10  9  1  0
 10 12  1  0
 11 10  2  0
 12 13  1  0
 13 14  1  0
 14 15  1  0
 16 15  1  6
 16 17  1  0
 17  6  1  0
 18 16  1  0
 19 18  2  0
 21 31  2  0
 21 20  1  0
 22 21  1  0
 23 24  1  0
 23 22  2  0
 24 30  2  0
 26 25  1  6
 25 24  1  0
 26 28  1  0
 26 27  1  0
 27 18  1  0
 28 29  1  0
 30 31  1  0
 32 28  2  0
M  END
$$$$
