DRY.pdb
     RDKit          3D

 32 32  0  0  1  0  0  0  0  0999 V2000
    7.2182  -16.4074   18.3050 N   0  0  0  0  0  0  0  0  0  0  0  0
    8.5830  -15.9461   18.5317 C   0  0  1  0  0  0  0  0  0  0  0  0
    8.5413  -14.4445   18.7253 C   0  0  0  0  0  0  0  0  0  0  0  0
    8.2181  -13.8082   17.4160 C   0  0  0  0  0  0  0  0  0  0  0  0
    7.9936  -12.5774   17.3288 O   0  0  0  0  0  0  0  0  0  0  0  0
    9.0797  -16.5729   19.7761 C   0  0  0  0  0  0  0  0  0  0  0  0
    8.3074  -16.7745   20.7514 O   0  0  0  0  0  0  0  0  0  0  0  0
    8.1582  -14.5756   16.2502 O   0  0  0  0  0  0  0  0  0  0  0  0
   13.9098  -21.5474   23.3869 N   0  0  0  0  0  0  0  0  0  0  0  0
   13.9841  -21.9848   22.0452 C   0  0  0  0  0  0  0  0  0  0  0  0
   13.9006  -23.2195   21.7040 N   0  0  0  0  0  0  0  0  0  0  0  0
   14.1632  -21.0343   20.9786 N   0  0  0  0  0  0  0  0  0  0  0  0
   14.3500  -19.6218   21.2178 C   0  0  0  0  0  0  0  0  0  0  0  0
   13.0225  -19.0557   21.6542 C   0  0  0  0  0  0  0  0  0  0  0  0
   12.2569  -18.3675   20.6112 C   0  0  0  0  0  0  0  0  0  0  0  0
   10.9726  -17.7309   21.0128 C   0  0  2  0  0  0  0  0  0  0  0  0
   10.4334  -16.9542   19.8836 N   0  0  0  0  0  0  0  0  0  0  0  0
   11.0322  -16.8296   22.1752 C   0  0  0  0  0  0  0  0  0  0  0  0
   11.7368  -15.7524   22.1003 O   0  0  0  0  0  0  0  0  0  0  0  0
   13.9548  -23.4834   20.7085 O   0  0  0  0  0  0  0  0  0  0  0  0
    9.9979  -13.9211   30.6188 C   0  0  0  0  0  0  0  0  0  0  0  0
    9.8490  -14.4512   29.3224 C   0  0  0  0  0  0  0  0  0  0  0  0
    9.4836  -13.6544   28.2621 C   0  0  0  0  0  0  0  0  0  0  0  0
    9.3442  -14.2032   26.9971 C   0  0  0  0  0  0  0  0  0  0  0  0
    9.5590  -15.5436   26.7406 C   0  0  0  0  0  0  0  0  0  0  0  0
    9.4095  -16.1590   25.4256 C   0  0  1  0  0  0  0  0  0  0  0  0
   10.6298  -16.1015   24.5490 N   0  0  0  0  0  0  0  0  0  0  0  0
   10.3875  -16.9931   23.4198 C   0  0  0  0  0  0  0  0  0  0  0  0
   11.7784  -16.6825   25.2853 O   0  0  0  0  0  0  0  0  0  0  0  0
   12.7537  -15.9239   25.9191 C   0  0  0  0  0  0  0  0  0  0  0  0
    9.9255  -16.3228   27.8251 C   0  0  0  0  0  0  0  0  0  0  0  0
   10.0683  -15.7880   29.0936 O   0  0  0  0  0  0  0  0  0  0  0  0
  2  1  1  1
  2  3  1  0
  4  3  1  0
  4  5  2  0
  6  7  2  0
  6  2  1  0
  8  4  1  0
 10  9  1  0
 10 12  1  0
 11 10  2  0
 12 13  1  0
 13 14  1  0
 14 15  1  0
 16 15  1  6
 16 17  1  0
 17  6  1  0
 18 16  1  0
 19 18  2  0
 21 31  2  0
 21 20  1  0
 22 21  1  0
 23 24  1  0
 23 22  2  0
 24 30  2  0
 26 25  1  6
 25 24  1  0
 26 28  1  0
 26 27  1  0
 27 18  1  0
 28 29  1  0
 30 31  1  0
 32 28  2  0
M  END
$$$$
