DRY.pdb
     RDKit          3D

 32 32  0  0  1  0  0  0  0  0999 V2000
    7.2736  -16.2162   20.6349 N   0  0  0  0  0  0  0  0  0  0  0  0
    8.4424  -15.5299   21.1730 C   0  0  1  0  0  0  0  0  0  0  0  0
    8.1057  -14.0579   21.2906 C   0  0  0  0  0  0  0  0  0  0  0  0
    8.0550  -13.4739   19.9194 C   0  0  0  0  0  0  0  0  0  0  0  0
    8.2972  -14.1717   18.9059 O   0  0  0  0  0  0  0  0  0  0  0  0
    8.7089  -16.0667   22.5254 C   0  0  0  0  0  0  0  0  0  0  0  0
    7.7635  -16.3089   23.3228 O   0  0  0  0  0  0  0  0  0  0  0  0
    7.7342  -12.1271   19.7337 O   0  0  0  0  0  0  0  0  0  0  0  0
   10.6048  -21.9075   23.5145 N   0  0  0  0  0  0  0  0  0  0  0  0
   11.2291  -21.9979   22.2499 C   0  0  0  0  0  0  0  0  0  0  0  0
   10.9448  -22.9078   21.3904 N   0  0  0  0  0  0  0  0  0  0  0  0
   12.2389  -21.0455   21.8669 N   0  0  0  0  0  0  0  0  0  0  0  0
   12.6267  -19.9400   22.7122 C   0  0  0  0  0  0  0  0  0  0  0  0
   11.3734  -19.1852   23.0763 C   0  0  0  0  0  0  0  0  0  0  0  0
   11.5801  -17.9470   23.8325 C   0  0  0  0  0  0  0  0  0  0  0  0
   10.3803  -17.1158   24.1251 C   0  0  2  0  0  0  0  0  0  0  0  0
   10.0345  -16.3148   22.9386 N   0  0  0  0  0  0  0  0  0  0  0  0
   10.4975  -16.1870   25.2613 C   0  0  0  0  0  0  0  0  0  0  0  0
   11.3085  -15.1882   25.1761 O   0  0  0  0  0  0  0  0  0  0  0  0
   11.4708  -22.9622   20.5049 O   0  0  0  0  0  0  0  0  0  0  0  0
    6.1711  -10.9859   24.9733 C   0  0  0  0  0  0  0  0  0  0  0  0
    6.8072  -11.9662   25.7596 C   0  0  0  0  0  0  0  0  0  0  0  0
    6.1939  -13.1650   26.0414 C   0  0  0  0  0  0  0  0  0  0  0  0
    6.8435  -14.1113   26.8182 C   0  0  0  0  0  0  0  0  0  0  0  0
    8.1075  -13.9065   27.3368 C   0  0  0  0  0  0  0  0  0  0  0  0
    8.8169  -14.8735   28.1686 C   0  0  2  0  0  0  0  0  0  0  0  0
   10.1234  -15.3638   27.6085 N   0  0  0  0  0  0  0  0  0  0  0  0
    9.8052  -16.2445   26.4896 C   0  0  0  0  0  0  0  0  0  0  0  0
   10.7898  -16.2186   28.6206 O   0  0  0  0  0  0  0  0  0  0  0  0
   11.0421  -17.5726   28.4435 C   0  0  0  0  0  0  0  0  0  0  0  0
    8.7017  -12.6919   27.0382 C   0  0  0  0  0  0  0  0  0  0  0  0
    8.0647  -11.7380   26.2638 O   0  0  0  0  0  0  0  0  0  0  0  0
  2  1  1  1
  2  3  1  0
  4  3  1  0
  4  5  2  0
  6  7  2  0
  6  2  1  0
  8  4  1  0
 10  9  1  0
 10 12  1  0
 11 10  2  0
 12 13  1  0
 13 14  1  0
 14 15  1  0
 16 15  1  6
 16 17  1  0
 17  6  1  0
 18 16  1  0
 19 18  2  0
 21 31  2  0
 21 20  1  0
 22 21  1  0
 23 24  1  0
 23 22  2  0
 24 30  2  0
 26 25  1  6
 25 24  1  0
 26 28  1  0
 26 27  1  0
 27 18  1  0
 28 29  1  0
 30 31  1  0
 32 28  2  0
M  END
$$$$
