DRY.pdb
     RDKit          3D

 32 32  0  0  1  0  0  0  0  0999 V2000
    9.8956  -18.8444   20.3791 N   0  0  0  0  0  0  0  0  0  0  0  0
   11.2545  -18.3281   20.4968 C   0  0  1  0  0  0  0  0  0  0  0  0
   11.7944  -18.1135   19.0982 C   0  0  0  0  0  0  0  0  0  0  0  0
   12.3465  -19.4066   18.6013 C   0  0  0  0  0  0  0  0  0  0  0  0
   12.1460  -20.4796   19.2188 O   0  0  0  0  0  0  0  0  0  0  0  0
   11.1921  -17.0222   21.1887 C   0  0  0  0  0  0  0  0  0  0  0  0
   12.2174  -16.2968   21.2942 O   0  0  0  0  0  0  0  0  0  0  0  0
   13.1044  -19.4501   17.4287 O   0  0  0  0  0  0  0  0  0  0  0  0
    8.6904  -12.2824   18.1137 N   0  0  0  0  0  0  0  0  0  0  0  0
    8.0004  -13.4384   17.6839 C   0  0  0  0  0  0  0  0  0  0  0  0
    8.2174  -14.0053   16.5528 N   0  0  0  0  0  0  0  0  0  0  0  0
    6.9970  -14.0411   18.5225 N   0  0  0  0  0  0  0  0  0  0  0  0
    7.0355  -13.9587   19.9643 C   0  0  0  0  0  0  0  0  0  0  0  0
    8.3628  -14.5135   20.4156 C   0  0  0  0  0  0  0  0  0  0  0  0
    8.5368  -14.6312   21.8660 C   0  0  0  0  0  0  0  0  0  0  0  0
    9.8013  -15.2454   22.3557 C   0  0  2  0  0  0  0  0  0  0  0  0
    9.9747  -16.5725   21.7410 N   0  0  0  0  0  0  0  0  0  0  0  0
    9.9145  -15.4199   23.8130 C   0  0  0  0  0  0  0  0  0  0  0  0
   10.7893  -14.7307   24.4629 O   0  0  0  0  0  0  0  0  0  0  0  0
    7.7548  -14.8991   16.3277 O   0  0  0  0  0  0  0  0  0  0  0  0
    5.9716  -10.7946   26.2621 C   0  0  0  0  0  0  0  0  0  0  0  0
    6.4407  -12.1196   26.3512 C   0  0  0  0  0  0  0  0  0  0  0  0
    5.6961  -13.1749   25.8771 C   0  0  0  0  0  0  0  0  0  0  0  0
    6.1826  -14.4687   25.9784 C   0  0  0  0  0  0  0  0  0  0  0  0
    7.4083  -14.7596   26.5454 C   0  0  0  0  0  0  0  0  0  0  0  0
    7.9473  -16.1092   26.6809 C   0  0  2  0  0  0  0  0  0  0  0  0
    9.3119  -16.3169   26.0844 N   0  0  0  0  0  0  0  0  0  0  0  0
    9.1548  -16.2798   24.6344 C   0  0  0  0  0  0  0  0  0  0  0  0
    9.7740  -17.6884   26.4074 O   0  0  0  0  0  0  0  0  0  0  0  0
   10.0089  -18.6696   25.4533 C   0  0  0  0  0  0  0  0  0  0  0  0
    8.1370  -13.6794   27.0145 C   0  0  0  0  0  0  0  0  0  0  0  0
    7.6634  -12.3825   26.9199 O   0  0  0  0  0  0  0  0  0  0  0  0
  2  1  1  6
  2  3  1  0
  4  3  1  0
  4  5  2  0
  6  7  2  0
  6  2  1  0
  8  4  1  0
 10  9  1  0
 10 12  1  0
 11 10  2  0
 12 13  1  0
 13 14  1  0
 14 15  1  0
 16 15  1  1
 16 17  1  0
 17  6  1  0
 18 16  1  0
 19 18  2  0
 21 31  2  0
 21 20  1  0
 22 21  1  0
 23 24  1  0
 23 22  2  0
 24 30  2  0
 26 25  1  1
 25 24  1  0
 26 28  1  0
 26 27  1  0
 27 18  1  0
 28 29  1  0
 30 31  1  0
 32 28  2  0
M  END
$$$$
