DRY.pdb
     RDKit          3D

 32 32  0  0  1  0  0  0  0  0999 V2000
   13.3734  -16.7696   19.2022 N   0  0  0  0  0  0  0  0  0  0  0  0
   12.7151  -17.6010   20.2034 C   0  0  1  0  0  0  0  0  0  0  0  0
   13.7890  -18.3379   20.9765 C   0  0  0  0  0  0  0  0  0  0  0  0
   14.3363  -19.4208   20.1096 C   0  0  0  0  0  0  0  0  0  0  0  0
   13.9808  -19.5380   18.9127 O   0  0  0  0  0  0  0  0  0  0  0  0
   11.9853  -16.7111   21.1327 C   0  0  0  0  0  0  0  0  0  0  0  0
   12.5802  -15.7772   21.7347 O   0  0  0  0  0  0  0  0  0  0  0  0
   15.2634  -20.3345   20.6166 O   0  0  0  0  0  0  0  0  0  0  0  0
    7.9334  -15.2171   17.7766 N   0  0  0  0  0  0  0  0  0  0  0  0
    7.9987  -13.8901   18.2580 C   0  0  0  0  0  0  0  0  0  0  0  0
    8.6639  -12.9625   17.6708 N   0  0  0  0  0  0  0  0  0  0  0  0
    7.3024  -13.5174   19.4620 N   0  0  0  0  0  0  0  0  0  0  0  0
    7.6947  -13.9951   20.7677 C   0  0  0  0  0  0  0  0  0  0  0  0
    7.9679  -15.4729   20.6474 C   0  0  0  0  0  0  0  0  0  0  0  0
    8.3706  -16.1428   21.8870 C   0  0  0  0  0  0  0  0  0  0  0  0
    9.8071  -16.0670   22.2701 C   0  0  2  0  0  0  0  0  0  0  0  0
   10.6055  -16.9007   21.3555 N   0  0  0  0  0  0  0  0  0  0  0  0
   10.1342  -16.4864   23.6428 C   0  0  0  0  0  0  0  0  0  0  0  0
   11.2643  -17.0636   23.8716 O   0  0  0  0  0  0  0  0  0  0  0  0
    8.6829  -12.0114   18.0690 O   0  0  0  0  0  0  0  0  0  0  0  0
    5.4924  -11.5778   26.4931 C   0  0  0  0  0  0  0  0  0  0  0  0
    6.6486  -12.3815   26.4625 C   0  0  0  0  0  0  0  0  0  0  0  0
    7.2782  -12.6831   25.2770 C   0  0  0  0  0  0  0  0  0  0  0  0
    8.4144  -13.4767   25.2768 C   0  0  0  0  0  0  0  0  0  0  0  0
    8.9606  -13.9931   26.4359 C   0  0  0  0  0  0  0  0  0  0  0  0
   10.1472  -14.8422   26.4735 C   0  0  1  0  0  0  0  0  0  0  0  0
    9.9102  -16.2892   26.1403 N   0  0  0  0  0  0  0  0  0  0  0  0
    9.3393  -16.3310   24.7983 C   0  0  0  0  0  0  0  0  0  0  0  0
    8.8632  -16.8251   27.0434 O   0  0  0  0  0  0  0  0  0  0  0  0
    9.0628  -17.0775   28.3943 C   0  0  0  0  0  0  0  0  0  0  0  0
    8.3074  -13.6744   27.6146 C   0  0  0  0  0  0  0  0  0  0  0  0
    7.1720  -12.8832   27.6295 O   0  0  0  0  0  0  0  0  0  0  0  0
  2  1  1  6
  2  3  1  0
  4  3  1  0
  4  5  2  0
  6  7  2  0
  6  2  1  0
  8  4  1  0
 10  9  1  0
 10 12  1  0
 11 10  2  0
 12 13  1  0
 13 14  1  0
 14 15  1  0
 16 15  1  6
 16 17  1  0
 17  6  1  0
 18 16  1  0
 19 18  2  0
 21 31  2  0
 21 20  1  0
 22 21  1  0
 23 24  1  0
 23 22  2  0
 24 30  2  0
 26 25  1  6
 25 24  1  0
 26 28  1  0
 26 27  1  0
 27 18  1  0
 28 29  1  0
 30 31  1  0
 32 28  2  0
M  END
$$$$
