DRY.pdb
     RDKit          3D

 32 32  0  0  1  0  0  0  0  0999 V2000
   12.3264  -16.4940   19.6541 N   0  0  0  0  0  0  0  0  0  0  0  0
   12.8311  -15.3458   20.3981 C   0  0  1  0  0  0  0  0  0  0  0  0
   13.2574  -14.2923   19.3970 C   0  0  0  0  0  0  0  0  0  0  0  0
   14.5954  -14.6682   18.8565 C   0  0  0  0  0  0  0  0  0  0  0  0
   15.1718  -15.7207   19.2209 O   0  0  0  0  0  0  0  0  0  0  0  0
   11.7237  -14.8048   21.2161 C   0  0  0  0  0  0  0  0  0  0  0  0
   11.8731  -13.7504   21.8902 O   0  0  0  0  0  0  0  0  0  0  0  0
   15.2397  -13.8495   17.9258 O   0  0  0  0  0  0  0  0  0  0  0  0
    8.9529  -15.6772   17.0053 N   0  0  0  0  0  0  0  0  0  0  0  0
    8.1804  -14.5438   16.6651 C   0  0  0  0  0  0  0  0  0  0  0  0
    8.2807  -13.9389   15.5373 N   0  0  0  0  0  0  0  0  0  0  0  0
    7.2243  -14.0077   17.5987 N   0  0  0  0  0  0  0  0  0  0  0  0
    6.9454  -14.6313   18.8717 C   0  0  0  0  0  0  0  0  0  0  0  0
    8.1364  -14.3929   19.7648 C   0  0  0  0  0  0  0  0  0  0  0  0
    8.1002  -15.0771   21.0603 C   0  0  0  0  0  0  0  0  0  0  0  0
    9.2926  -14.9385   21.9407 C   0  0  2  0  0  0  0  0  0  0  0  0
   10.4798  -15.4690   21.2493 N   0  0  0  0  0  0  0  0  0  0  0  0
    9.2126  -15.6080   23.2494 C   0  0  0  0  0  0  0  0  0  0  0  0
   10.1490  -16.4234   23.5970 O   0  0  0  0  0  0  0  0  0  0  0  0
    7.8033  -13.0362   15.3929 O   0  0  0  0  0  0  0  0  0  0  0  0
    7.3244  -10.0924   27.2616 C   0  0  0  0  0  0  0  0  0  0  0  0
    7.2400  -11.4767   27.0161 C   0  0  0  0  0  0  0  0  0  0  0  0
    6.0752  -12.0526   26.5640 C   0  0  0  0  0  0  0  0  0  0  0  0
    6.0208  -13.4178   26.3312 C   0  0  0  0  0  0  0  0  0  0  0  0
    7.1041  -14.2504   26.5351 C   0  0  0  0  0  0  0  0  0  0  0  0
    7.0805  -15.6928   26.3133 C   0  0  2  0  0  0  0  0  0  0  0  0
    8.2018  -16.2293   25.4673 N   0  0  0  0  0  0  0  0  0  0  0  0
    8.2007  -15.4677   24.2229 C   0  0  0  0  0  0  0  0  0  0  0  0
    7.8899  -17.6283   25.0868 O   0  0  0  0  0  0  0  0  0  0  0  0
    7.9319  -18.6976   25.9718 C   0  0  0  0  0  0  0  0  0  0  0  0
    8.2635  -13.6451   26.9903 C   0  0  0  0  0  0  0  0  0  0  0  0
    8.3320  -12.2833   27.2270 O   0  0  0  0  0  0  0  0  0  0  0  0
  2  1  1  6
  2  3  1  0
  4  3  1  0
  4  5  2  0
  6  7  2  0
  6  2  1  0
  8  4  1  0
 10  9  1  0
 10 12  1  0
 11 10  2  0
 12 13  1  0
 13 14  1  0
 14 15  1  0
 16 15  1  6
 16 17  1  0
 17  6  1  0
 18 16  1  0
 19 18  2  0
 21 31  2  0
 21 20  1  0
 22 21  1  0
 23 24  1  0
 23 22  2  0
 24 30  2  0
 26 25  1  1
 25 24  1  0
 26 28  1  0
 26 27  1  0
 27 18  1  0
 28 29  1  0
 30 31  1  0
 32 28  2  0
M  END
$$$$
