DRY.pdb
     RDKit          3D

 32 32  0  0  1  0  0  0  0  0999 V2000
    9.8540  -19.7093   21.3094 N   0  0  0  0  0  0  0  0  0  0  0  0
   11.1543  -19.0722   21.1355 C   0  0  1  0  0  0  0  0  0  0  0  0
   11.6369  -19.3732   19.7318 C   0  0  0  0  0  0  0  0  0  0  0  0
   11.7083  -20.8532   19.5640 C   0  0  0  0  0  0  0  0  0  0  0  0
   10.8336  -21.4775   18.9175 O   0  0  0  0  0  0  0  0  0  0  0  0
   10.9726  -17.6106   21.2733 C   0  0  0  0  0  0  0  0  0  0  0  0
   11.9466  -16.8224   21.1375 O   0  0  0  0  0  0  0  0  0  0  0  0
   12.7590  -21.5809   20.1279 O   0  0  0  0  0  0  0  0  0  0  0  0
    7.5543  -12.2375   17.0405 N   0  0  0  0  0  0  0  0  0  0  0  0
    7.8769  -13.5662   17.3977 C   0  0  0  0  0  0  0  0  0  0  0  0
    8.0595  -14.4999   16.5359 N   0  0  0  0  0  0  0  0  0  0  0  0
    8.0156  -13.9344   18.7828 N   0  0  0  0  0  0  0  0  0  0  0  0
    7.3454  -13.2246   19.8477 C   0  0  0  0  0  0  0  0  0  0  0  0
    7.7590  -13.8629   21.1495 C   0  0  0  0  0  0  0  0  0  0  0  0
    8.1819  -15.2631   21.0589 C   0  0  0  0  0  0  0  0  0  0  0  0
    9.4388  -15.6449   21.7594 C   0  0  2  0  0  0  0  0  0  0  0  0
    9.6972  -17.0810   21.5601 N   0  0  0  0  0  0  0  0  0  0  0  0
    9.4751  -15.3907   23.2089 C   0  0  0  0  0  0  0  0  0  0  0  0
    9.1283  -14.2309   23.6529 O   0  0  0  0  0  0  0  0  0  0  0  0
    8.3649  -15.4347   16.8464 O   0  0  0  0  0  0  0  0  0  0  0  0
    6.3921  -10.5394   26.7650 C   0  0  0  0  0  0  0  0  0  0  0  0
    6.8451  -11.8597   26.5772 C   0  0  0  0  0  0  0  0  0  0  0  0
    7.2706  -12.6269   27.6369 C   0  0  0  0  0  0  0  0  0  0  0  0
    7.7117  -13.9232   27.4225 C   0  0  0  0  0  0  0  0  0  0  0  0
    7.7465  -14.4984   26.1670 C   0  0  0  0  0  0  0  0  0  0  0  0
    8.2161  -15.8545   25.9012 C   0  0  2  0  0  0  0  0  0  0  0  0
    9.6921  -15.9824   25.6440 N   0  0  0  0  0  0  0  0  0  0  0  0
    9.8541  -16.2911   24.2273 C   0  0  0  0  0  0  0  0  0  0  0  0
   10.2073  -17.1636   26.3779 O   0  0  0  0  0  0  0  0  0  0  0  0
   10.4596  -17.1754   27.7434 C   0  0  0  0  0  0  0  0  0  0  0  0
    7.3131  -13.7045   25.1183 C   0  0  0  0  0  0  0  0  0  0  0  0
    6.8702  -12.4087   25.3179 O   0  0  0  0  0  0  0  0  0  0  0  0
  2  1  1  6
  2  3  1  0
  4  3  1  0
  4  5  2  0
  6  7  2  0
  6  2  1  0
  8  4  1  0
 10  9  1  0
 10 12  1  0
 11 10  2  0
 12 13  1  0
 13 14  1  0
 14 15  1  0
 16 15  1  1
 16 17  1  0
 17  6  1  0
 18 16  1  0
 19 18  2  0
 21 31  2  0
 21 20  1  0
 22 21  1  0
 23 24  1  0
 23 22  2  0
 24 30  2  0
 26 25  1  6
 25 24  1  0
 26 28  1  0
 26 27  1  0
 27 18  1  0
 28 29  1  0
 30 31  1  0
 32 28  2  0
M  END
$$$$
