CYK.pdb
     RDKit          3D

 28 28  0  0  1  0  0  0  0  0999 V2000
    8.1042  -13.2278   19.6460 N   0  0  0  0  0  0  0  0  0  0  0  0
    7.1680  -13.2954   20.7861 C   0  0  1  0  0  0  0  0  0  0  0  0
    6.0941  -14.3212   20.4199 C   0  0  0  0  0  0  0  0  0  0  0  0
    6.6942  -16.0078   20.5790 S   0  0  0  0  0  0  0  0  0  0  0  0
    7.9439  -13.7768   21.9364 C   0  0  0  0  0  0  0  0  0  0  0  0
    9.0969  -14.3074   21.7830 O   0  0  0  0  0  0  0  0  0  0  0  0
   10.9072  -15.4123   30.1333 O   0  0  0  0  0  0  0  0  0  0  0  0
   10.1277  -14.9924   29.0413 C   0  0  0  0  0  0  0  0  0  0  0  0
   10.1713  -13.7027   28.5723 C   0  0  0  0  0  0  0  0  0  0  0  0
    9.4151  -13.2551   27.4968 C   0  0  0  0  0  0  0  0  0  0  0  0
    8.5864  -14.1626   26.8824 C   0  0  0  0  0  0  0  0  0  0  0  0
    7.7623  -13.7291   25.7313 C   0  0  0  0  0  0  0  0  0  0  0  0
    8.3516  -14.1622   24.3966 C   0  0  2  0  0  0  0  0  0  0  0  0
    7.5193  -13.7097   23.2983 N   0  0  0  0  0  0  0  0  0  0  0  0
    8.6491  -15.6081   24.3345 C   0  0  0  0  0  0  0  0  0  0  0  0
    7.7184  -16.4437   24.0627 O   0  0  0  0  0  0  0  0  0  0  0  0
    8.5236  -15.4621   27.3326 C   0  0  0  0  0  0  0  0  0  0  0  0
    9.2945  -15.8900   28.4177 C   0  0  0  0  0  0  0  0  0  0  0  0
    9.9414  -16.1463   24.5617 N   0  0  0  0  0  0  0  0  0  0  0  0
   10.1368  -17.6024   24.4245 C   0  0  1  0  0  0  0  0  0  0  0  0
   10.5397  -17.9193   22.9975 C   0  0  0  0  0  0  0  0  0  0  0  0
   10.7644  -19.3766   22.7578 C   0  0  0  0  0  0  0  0  0  0  0  0
   11.2339  -19.6636   21.3450 C   0  0  0  0  0  0  0  0  0  0  0  0
   11.3411  -21.1658   21.1652 C   0  0  0  0  0  0  0  0  0  0  0  0
   11.9038  -21.5126   19.8794 N   0  0  0  0  0  0  0  0  0  0  0  0
   11.2224  -17.9999   25.3232 C   0  0  0  0  0  0  0  0  0  0  0  0
   12.0567  -17.0483   25.8653 O   0  0  0  0  0  0  0  0  0  0  0  0
   11.4072  -19.1984   25.6080 O   0  0  0  0  0  0  0  0  0  0  0  0
  2  3  1  0
  2  1  1  6
  3  4  1  0
  5  2  1  0
  5  6  2  0
  8  9  2  0
  8  7  1  0
 10  9  1  0
 11 10  2  0
 12 11  1  0
 13 12  1  1
 13 14  1  0
 14  5  1  0
 15 13  1  0
 15 19  1  0
 16 15  2  0
 17 11  1  0
 17 18  2  0
 18  8  1  0
 20 19  1  0
 20 26  1  0
 20 21  1  6
 22 21  1  0
 23 22  1  0
 24 23  1  0
 25 24  1  0
 26 28  2  0
 26 27  1  0
M  END
$$$$
