CYK.pdb
     RDKit          3D

 28 28  0  0  1  0  0  0  0  0999 V2000
    7.2375  -16.5500   21.0107 N   0  0  0  0  0  0  0  0  0  0  0  0
    8.4271  -15.7429   20.6728 C   0  0  1  0  0  0  0  0  0  0  0  0
    7.9192  -14.4368   20.0598 C   0  0  0  0  0  0  0  0  0  0  0  0
    6.2758  -14.6196   19.3556 S   0  0  0  0  0  0  0  0  0  0  0  0
    9.1160  -15.4630   21.9393 C   0  0  0  0  0  0  0  0  0  0  0  0
   10.2594  -14.8914   21.9597 O   0  0  0  0  0  0  0  0  0  0  0  0
   11.1419  -14.5037   30.5191 O   0  0  0  0  0  0  0  0  0  0  0  0
   10.4619  -14.6992   29.3043 C   0  0  0  0  0  0  0  0  0  0  0  0
   10.1380  -13.6519   28.4776 C   0  0  0  0  0  0  0  0  0  0  0  0
    9.4672  -13.8097   27.2718 C   0  0  0  0  0  0  0  0  0  0  0  0
    9.1174  -15.0861   26.9027 C   0  0  0  0  0  0  0  0  0  0  0  0
    8.4016  -15.3013   25.6246 C   0  0  0  0  0  0  0  0  0  0  0  0
    9.3504  -15.5005   24.4514 C   0  0  2  0  0  0  0  0  0  0  0  0
    8.6102  -15.7818   23.2363 N   0  0  0  0  0  0  0  0  0  0  0  0
   10.4092  -16.4946   24.7227 C   0  0  0  0  0  0  0  0  0  0  0  0
   11.2279  -16.3125   25.6896 O   0  0  0  0  0  0  0  0  0  0  0  0
    9.4301  -16.1541   27.7131 C   0  0  0  0  0  0  0  0  0  0  0  0
   10.1062  -15.9708   28.9232 C   0  0  0  0  0  0  0  0  0  0  0  0
   10.5805  -17.6763   23.9575 N   0  0  0  0  0  0  0  0  0  0  0  0
   11.6110  -18.6469   24.3738 C   0  0  1  0  0  0  0  0  0  0  0  0
   12.6852  -18.7224   23.3063 C   0  0  0  0  0  0  0  0  0  0  0  0
   12.1761  -19.2152   21.9911 C   0  0  0  0  0  0  0  0  0  0  0  0
   13.2765  -19.3373   20.9552 C   0  0  0  0  0  0  0  0  0  0  0  0
   12.6736  -19.8633   19.6667 C   0  0  0  0  0  0  0  0  0  0  0  0
   13.6514  -19.9245   18.6036 N   0  0  0  0  0  0  0  0  0  0  0  0
   12.2122  -18.1628   25.6181 C   0  0  0  0  0  0  0  0  0  0  0  0
   12.1312  -18.9178   26.7664 O   0  0  0  0  0  0  0  0  0  0  0  0
   12.8015  -17.0659   25.6564 O   0  0  0  0  0  0  0  0  0  0  0  0
  2  3  1  0
  2  1  1  1
  3  4  1  0
  5  2  1  0
  5  6  2  0
  8  9  2  0
  8  7  1  0
 10  9  1  0
 11 10  2  0
 12 11  1  0
 13 12  1  1
 13 14  1  0
 14  5  1  0
 15 13  1  0
 15 19  1  0
 16 15  2  0
 17 11  1  0
 17 18  2  0
 18  8  1  0
 20 19  1  0
 20 26  1  0
 20 21  1  6
 22 21  1  0
 23 22  1  0
 24 23  1  0
 25 24  1  0
 26 28  2  0
 26 27  1  0
M  END
$$$$
