CYK.pdb
     RDKit          3D

 28 28  0  0  1  0  0  0  0  0999 V2000
    8.4010  -14.9866   19.1736 N   0  0  0  0  0  0  0  0  0  0  0  0
    7.5689  -15.5340   20.2639 C   0  0  1  0  0  0  0  0  0  0  0  0
    7.3641  -17.0199   19.9643 C   0  0  0  0  0  0  0  0  0  0  0  0
    5.7636  -17.3392   19.2117 S   0  0  0  0  0  0  0  0  0  0  0  0
    8.3453  -15.3785   21.5009 C   0  0  0  0  0  0  0  0  0  0  0  0
    9.6157  -15.5217   21.5086 O   0  0  0  0  0  0  0  0  0  0  0  0
   10.6472  -14.5921   30.0410 O   0  0  0  0  0  0  0  0  0  0  0  0
    9.9441  -14.5492   28.8243 C   0  0  0  0  0  0  0  0  0  0  0  0
    9.2362  -15.6290   28.3572 C   0  0  0  0  0  0  0  0  0  0  0  0
    8.5313  -15.6203   27.1606 C   0  0  0  0  0  0  0  0  0  0  0  0
    8.5542  -14.4640   26.4190 C   0  0  0  0  0  0  0  0  0  0  0  0
    7.8160  -14.4097   25.1367 C   0  0  0  0  0  0  0  0  0  0  0  0
    8.6007  -15.0230   23.9859 C   0  0  2  0  0  0  0  0  0  0  0  0
    7.7953  -15.0625   22.7804 N   0  0  0  0  0  0  0  0  0  0  0  0
    9.1972  -16.3323   24.3219 C   0  0  0  0  0  0  0  0  0  0  0  0
    8.4533  -17.3686   24.4259 O   0  0  0  0  0  0  0  0  0  0  0  0
    9.2562  -13.3667   26.8644 C   0  0  0  0  0  0  0  0  0  0  0  0
    9.9588  -13.3987   28.0728 C   0  0  0  0  0  0  0  0  0  0  0  0
   10.5856  -16.5208   24.5412 N   0  0  0  0  0  0  0  0  0  0  0  0
   11.0879  -17.8897   24.7673 C   0  0  1  0  0  0  0  0  0  0  0  0
   12.4050  -18.0646   24.0368 C   0  0  0  0  0  0  0  0  0  0  0  0
   13.0158  -19.4132   24.2366 C   0  0  0  0  0  0  0  0  0  0  0  0
   14.2149  -19.6428   23.3376 C   0  0  0  0  0  0  0  0  0  0  0  0
   14.7291  -21.0515   23.5650 C   0  0  0  0  0  0  0  0  0  0  0  0
   15.7905  -21.3896   22.6435 N   0  0  0  0  0  0  0  0  0  0  0  0
   11.3167  -18.0561   26.2040 C   0  0  0  0  0  0  0  0  0  0  0  0
   11.7448  -16.9920   26.9653 O   0  0  0  0  0  0  0  0  0  0  0  0
   11.1297  -19.1573   26.7555 O   0  0  0  0  0  0  0  0  0  0  0  0
  2  3  1  0
  2  1  1  6
  3  4  1  0
  5  2  1  0
  5  6  2  0
  8  9  2  0
  8  7  1  0
 10  9  1  0
 11 10  2  0
 12 11  1  0
 13 12  1  1
 13 14  1  0
 14  5  1  0
 15 13  1  0
 15 19  1  0
 16 15  2  0
 17 11  1  0
 17 18  2  0
 18  8  1  0
 20 19  1  0
 20 26  1  0
 20 21  1  6
 22 21  1  0
 23 22  1  0
 24 23  1  0
 25 24  1  0
 26 28  2  0
 26 27  1  0
M  END
$$$$
