CYK.pdb
     RDKit          3D

 28 28  0  0  1  0  0  0  0  0999 V2000
    8.1956  -14.9679   19.3461 N   0  0  0  0  0  0  0  0  0  0  0  0
    7.4919  -15.6515   20.4498 C   0  0  1  0  0  0  0  0  0  0  0  0
    7.4645  -17.1415   20.1049 C   0  0  0  0  0  0  0  0  0  0  0  0
    6.0178  -17.5794   19.1326 S   0  0  0  0  0  0  0  0  0  0  0  0
    8.2991  -15.4355   21.6577 C   0  0  0  0  0  0  0  0  0  0  0  0
    9.5715  -15.3286   21.5944 O   0  0  0  0  0  0  0  0  0  0  0  0
   10.9005  -14.7753   30.1225 O   0  0  0  0  0  0  0  0  0  0  0  0
   10.1423  -14.7604   28.9387 C   0  0  0  0  0  0  0  0  0  0  0  0
   10.0280  -13.6321   28.1647 C   0  0  0  0  0  0  0  0  0  0  0  0
    9.2877  -13.5830   26.9907 C   0  0  0  0  0  0  0  0  0  0  0  0
    8.6433  -14.7313   26.5984 C   0  0  0  0  0  0  0  0  0  0  0  0
    7.8432  -14.7248   25.3527 C   0  0  0  0  0  0  0  0  0  0  0  0
    8.6345  -15.2157   24.1489 C   0  0  2  0  0  0  0  0  0  0  0  0
    7.7787  -15.3240   22.9830 N   0  0  0  0  0  0  0  0  0  0  0  0
    9.3965  -16.4523   24.4195 C   0  0  0  0  0  0  0  0  0  0  0  0
    8.7921  -17.5792   24.4755 O   0  0  0  0  0  0  0  0  0  0  0  0
    8.7414  -15.8766   27.3561 C   0  0  0  0  0  0  0  0  0  0  0  0
    9.4927  -15.9022   28.5350 C   0  0  0  0  0  0  0  0  0  0  0  0
   10.7995  -16.4716   24.6253 N   0  0  0  0  0  0  0  0  0  0  0  0
   11.4881  -17.7749   24.6926 C   0  0  1  0  0  0  0  0  0  0  0  0
   12.7630  -17.7082   23.8747 C   0  0  0  0  0  0  0  0  0  0  0  0
   13.5669  -18.9661   23.9318 C   0  0  0  0  0  0  0  0  0  0  0  0
   14.8217  -18.8882   23.0843 C   0  0  0  0  0  0  0  0  0  0  0  0
   15.5708  -20.2015   23.2049 C   0  0  0  0  0  0  0  0  0  0  0  0
   16.7614  -20.2164   22.3849 N   0  0  0  0  0  0  0  0  0  0  0  0
   11.8352  -18.0314   26.0919 C   0  0  0  0  0  0  0  0  0  0  0  0
   12.2121  -16.9933   26.9139 O   0  0  0  0  0  0  0  0  0  0  0  0
   11.7961  -19.1866   26.5565 O   0  0  0  0  0  0  0  0  0  0  0  0
  2  3  1  0
  2  1  1  6
  3  4  1  0
  5  2  1  0
  5  6  2  0
  8  9  2  0
  8  7  1  0
 10  9  1  0
 11 10  2  0
 12 11  1  0
 13 12  1  1
 13 14  1  0
 14  5  1  0
 15 13  1  0
 15 19  1  0
 16 15  2  0
 17 11  1  0
 17 18  2  0
 18  8  1  0
 20 19  1  0
 20 26  1  0
 20 21  1  6
 22 21  1  0
 23 22  1  0
 24 23  1  0
 25 24  1  0
 26 28  2  0
 26 27  1  0
M  END
$$$$
