CYK.pdb
     RDKit          3D

 28 28  0  0  1  0  0  0  0  0999 V2000
   10.7363  -17.9354   19.3611 N   0  0  0  0  0  0  0  0  0  0  0  0
    9.9819  -18.3850   20.5484 C   0  0  1  0  0  0  0  0  0  0  0  0
   10.6608  -19.6605   21.0502 C   0  0  0  0  0  0  0  0  0  0  0  0
    9.4862  -21.0016   21.2778 S   0  0  0  0  0  0  0  0  0  0  0  0
   10.1135  -17.3229   21.5543 C   0  0  0  0  0  0  0  0  0  0  0  0
   11.1964  -16.6541   21.6745 O   0  0  0  0  0  0  0  0  0  0  0  0
    7.0853  -12.4644   18.5824 O   0  0  0  0  0  0  0  0  0  0  0  0
    7.3461  -13.0830   19.8176 C   0  0  0  0  0  0  0  0  0  0  0  0
    8.3041  -12.6080   20.6789 C   0  0  0  0  0  0  0  0  0  0  0  0
    8.5868  -13.1946   21.9056 C   0  0  0  0  0  0  0  0  0  0  0  0
    7.8613  -14.3064   22.2595 C   0  0  0  0  0  0  0  0  0  0  0  0
    8.1288  -14.9640   23.5588 C   0  0  0  0  0  0  0  0  0  0  0  0
    9.3074  -15.9248   23.4941 C   0  0  2  0  0  0  0  0  0  0  0  0
    9.0920  -16.9315   22.4725 N   0  0  0  0  0  0  0  0  0  0  0  0
    9.6576  -16.5042   24.8073 C   0  0  0  0  0  0  0  0  0  0  0  0
    9.7867  -15.7451   25.8298 O   0  0  0  0  0  0  0  0  0  0  0  0
    6.8948  -14.8035   21.4143 C   0  0  0  0  0  0  0  0  0  0  0  0
    6.6276  -14.1958   20.1838 C   0  0  0  0  0  0  0  0  0  0  0  0
    9.8640  -17.8919   25.0146 N   0  0  0  0  0  0  0  0  0  0  0  0
   10.3062  -18.3516   26.3452 C   0  0  1  0  0  0  0  0  0  0  0  0
   11.2438  -19.5315   26.1790 C   0  0  0  0  0  0  0  0  0  0  0  0
   10.6213  -20.8368   26.5535 C   0  0  0  0  0  0  0  0  0  0  0  0
   11.0704  -21.9703   25.6521 C   0  0  0  0  0  0  0  0  0  0  0  0
   10.3747  -23.2444   26.0916 C   0  0  0  0  0  0  0  0  0  0  0  0
   10.5879  -24.3225   25.1522 N   0  0  0  0  0  0  0  0  0  0  0  0
   11.0342  -17.2536   26.9843 C   0  0  0  0  0  0  0  0  0  0  0  0
   12.0102  -16.5733   26.2915 O   0  0  0  0  0  0  0  0  0  0  0  0
   10.7837  -16.9212   28.1585 O   0  0  0  0  0  0  0  0  0  0  0  0
  2  3  1  0
  2  1  1  6
  3  4  1  0
  5  2  1  0
  5  6  2  0
  8  9  2  0
  8  7  1  0
 10  9  1  0
 11 10  2  0
 12 11  1  0
 13 12  1  1
 13 14  1  0
 14  5  1  0
 15 13  1  0
 15 19  1  0
 16 15  2  0
 17 11  1  0
 17 18  2  0
 18  8  1  0
 20 19  1  0
 20 26  1  0
 20 21  1  6
 22 21  1  0
 23 22  1  0
 24 23  1  0
 25 24  1  0
 26 28  2  0
 26 27  1  0
M  END
$$$$
