CYK.pdb
     RDKit          3D

 28 28  0  0  1  0  0  0  0  0999 V2000
    7.8288  -12.8708   19.7422 N   0  0  0  0  0  0  0  0  0  0  0  0
    7.1256  -13.8327   20.6146 C   0  0  1  0  0  0  0  0  0  0  0  0
    7.0188  -15.1445   19.8354 C   0  0  0  0  0  0  0  0  0  0  0  0
    6.3892  -16.4830   20.8564 S   0  0  0  0  0  0  0  0  0  0  0  0
    7.9760  -14.0242   21.7967 C   0  0  0  0  0  0  0  0  0  0  0  0
    9.2511  -14.0088   21.7055 O   0  0  0  0  0  0  0  0  0  0  0  0
   10.9690  -15.3026   30.0480 O   0  0  0  0  0  0  0  0  0  0  0  0
   10.1582  -15.0218   28.9344 C   0  0  0  0  0  0  0  0  0  0  0  0
    9.3466  -15.9743   28.3695 C   0  0  0  0  0  0  0  0  0  0  0  0
    8.5339  -15.7306   27.2700 C   0  0  0  0  0  0  0  0  0  0  0  0
    8.5554  -14.4662   26.7328 C   0  0  0  0  0  0  0  0  0  0  0  0
    7.7042  -14.1615   25.5603 C   0  0  0  0  0  0  0  0  0  0  0  0
    8.3882  -14.4925   24.2416 C   0  0  2  0  0  0  0  0  0  0  0  0
    7.4978  -14.2391   23.1251 N   0  0  0  0  0  0  0  0  0  0  0  0
    8.9723  -15.8494   24.2146 C   0  0  0  0  0  0  0  0  0  0  0  0
    8.2100  -16.8748   24.1381 O   0  0  0  0  0  0  0  0  0  0  0  0
    9.3602  -13.4924   27.2800 C   0  0  0  0  0  0  0  0  0  0  0  0
   10.1703  -13.7612   28.3874 C   0  0  0  0  0  0  0  0  0  0  0  0
   10.3678  -16.0962   24.2672 N   0  0  0  0  0  0  0  0  0  0  0  0
   10.8442  -17.4908   24.1928 C   0  0  1  0  0  0  0  0  0  0  0  0
   12.0418  -17.5599   23.2655 C   0  0  0  0  0  0  0  0  0  0  0  0
   12.6221  -18.9319   23.1528 C   0  0  0  0  0  0  0  0  0  0  0  0
   13.8073  -18.9816   22.2085 C   0  0  0  0  0  0  0  0  0  0  0  0
   14.2555  -20.4237   22.0680 C   0  0  0  0  0  0  0  0  0  0  0  0
   15.4633  -20.5351   21.2813 N   0  0  0  0  0  0  0  0  0  0  0  0
   11.2603  -17.8990   25.5360 C   0  0  0  0  0  0  0  0  0  0  0  0
   11.8245  -16.9830   26.3951 O   0  0  0  0  0  0  0  0  0  0  0  0
   11.1121  -19.0751   25.9190 O   0  0  0  0  0  0  0  0  0  0  0  0
  2  3  1  0
  2  1  1  6
  3  4  1  0
  5  2  1  0
  5  6  2  0
  8  9  2  0
  8  7  1  0
 10  9  1  0
 11 10  2  0
 12 11  1  0
 13 12  1  1
 13 14  1  0
 14  5  1  0
 15 13  1  0
 15 19  1  0
 16 15  2  0
 17 11  1  0
 17 18  2  0
 18  8  1  0
 20 19  1  0
 20 26  1  0
 20 21  1  6
 22 21  1  0
 23 22  1  0
 24 23  1  0
 25 24  1  0
 26 28  2  0
 26 27  1  0
M  END
$$$$
