YSV.pdb
     RDKit          3D

 26 26  0  0  1  0  0  0  0  0999 V2000
   28.5257  -20.0237   -4.6855 O   0  0  0  0  0  0  0  0  0  0  0  0
   27.9021  -19.9658   -5.9215 C   0  0  0  0  0  0  0  0  0  0  0  0
   28.1618  -18.9154   -6.7661 C   0  0  0  0  0  0  0  0  0  0  0  0
   27.5319  -18.8628   -8.0072 C   0  0  0  0  0  0  0  0  0  0  0  0
   26.6639  -19.8467   -8.3812 C   0  0  0  0  0  0  0  0  0  0  0  0
   25.9943  -19.7823   -9.7112 C   0  0  0  0  0  0  0  0  0  0  0  0
   26.1934  -21.0861  -10.4762 C   0  0  2  0  0  0  0  0  0  0  0  0
   27.6143  -21.1936  -10.7434 N   0  0  0  0  0  0  0  0  0  0  0  0
   25.4232  -20.9984  -11.7236 C   0  0  0  0  0  0  0  0  0  0  0  0
   25.9296  -20.3415  -12.6833 O   0  0  0  0  0  0  0  0  0  0  0  0
   26.4076  -20.9051   -7.5199 C   0  0  0  0  0  0  0  0  0  0  0  0
   27.0215  -20.9716   -6.2911 C   0  0  0  0  0  0  0  0  0  0  0  0
   21.5998  -22.8592  -12.3138 O   0  0  0  0  0  0  0  0  0  0  0  0
   22.5737  -22.8187  -13.2855 C   0  0  0  0  0  0  0  0  0  0  0  0
   23.4933  -21.5988  -13.1213 C   0  0  2  0  0  0  0  0  0  0  0  0
   24.1579  -21.6287  -11.8440 N   0  0  0  0  0  0  0  0  0  0  0  0
   22.5847  -20.4140  -13.2164 C   0  0  0  0  0  0  0  0  0  0  0  0
   22.2304  -19.7869  -12.1868 O   0  0  0  0  0  0  0  0  0  0  0  0
   21.9204  -19.1126  -16.9978 C   0  0  0  0  0  0  0  0  0  0  0  0
   21.7058  -18.1103  -15.8574 C   0  0  2  0  0  0  0  0  0  0  0  0
   22.9701  -17.3863  -15.5247 C   0  0  0  0  0  0  0  0  0  0  0  0
   21.1801  -18.9262  -14.6880 C   0  0  2  0  0  0  0  0  0  0  0  0
   22.1255  -20.0026  -14.4754 N   0  0  0  0  0  0  0  0  0  0  0  0
   19.8705  -19.5228  -15.0144 C   0  0  0  0  0  0  0  0  0  0  0  0
   18.6991  -18.8031  -14.8485 O   0  0  0  0  0  0  0  0  0  0  0  0
   19.7997  -20.6880  -15.4459 O   0  0  0  0  0  0  0  0  0  0  0  0
  2  3  2  0
  2  1  1  0
  4  3  1  0
  5  4  2  0
  6  5  1  0
  7  6  1  0
  7  9  1  0
  7  8  1  6
  9 16  1  0
  9 10  2  0
 11  5  1  0
 11 12  2  0
 12  2  1  0
 13 14  1  0
 15 14  1  1
 16 15  1  0
 17 15  1  0
 17 18  2  0
 20 19  1  6
 20 21  1  0
 20 22  1  0
 22 23  1  6
 23 17  1  0
 24 22  1  0
 25 24  1  0
 26 24  2  0
M  END
$$$$
