YSV.pdb
     RDKit          3D

 26 26  0  0  1  0  0  0  0  0999 V2000
   28.9203  -30.3379  -19.6255 O   0  0  0  0  0  0  0  0  0  0  0  0
   28.8339  -29.2140  -18.8197 C   0  0  0  0  0  0  0  0  0  0  0  0
   29.7914  -28.9876  -17.8627 C   0  0  0  0  0  0  0  0  0  0  0  0
   29.6990  -27.8561  -17.0559 C   0  0  0  0  0  0  0  0  0  0  0  0
   28.6658  -26.9795  -17.2148 C   0  0  0  0  0  0  0  0  0  0  0  0
   28.5750  -25.7711  -16.3469 C   0  0  0  0  0  0  0  0  0  0  0  0
   28.9122  -24.5136  -17.1404 C   0  0  2  0  0  0  0  0  0  0  0  0
   30.3504  -24.5156  -17.3231 N   0  0  0  0  0  0  0  0  0  0  0  0
   28.4782  -23.3534  -16.3514 C   0  0  0  0  0  0  0  0  0  0  0  0
   29.3125  -22.8471  -15.5410 O   0  0  0  0  0  0  0  0  0  0  0  0
   27.7021  -27.2170  -18.1857 C   0  0  0  0  0  0  0  0  0  0  0  0
   27.7791  -28.3296  -18.9902 C   0  0  0  0  0  0  0  0  0  0  0  0
   25.2431  -20.9822  -17.4147 O   0  0  0  0  0  0  0  0  0  0  0  0
   26.2676  -20.5475  -16.6050 C   0  0  0  0  0  0  0  0  0  0  0  0
   26.8034  -21.6741  -15.7081 C   0  0  2  0  0  0  0  0  0  0  0  0
   27.1705  -22.8227  -16.4956 N   0  0  0  0  0  0  0  0  0  0  0  0
   25.6729  -22.0052  -14.7860 C   0  0  0  0  0  0  0  0  0  0  0  0
   24.8391  -22.8980  -15.0803 O   0  0  0  0  0  0  0  0  0  0  0  0
   25.3582  -19.6730  -11.3047 C   0  0  0  0  0  0  0  0  0  0  0  0
   25.1145  -21.1855  -11.2399 C   0  0  2  0  0  0  0  0  0  0  0  0
   26.3774  -21.9275  -10.9439 C   0  0  0  0  0  0  0  0  0  0  0  0
   24.5223  -21.5634  -12.5875 C   0  0  2  0  0  0  0  0  0  0  0  0
   25.5474  -21.3056  -13.5777 N   0  0  0  0  0  0  0  0  0  0  0  0
   23.3564  -20.7152  -12.9019 C   0  0  0  0  0  0  0  0  0  0  0  0
   22.1274  -20.9452  -12.3066 O   0  0  0  0  0  0  0  0  0  0  0  0
   23.4616  -19.7756  -13.7112 O   0  0  0  0  0  0  0  0  0  0  0  0
  2  3  2  0
  2  1  1  0
  4  3  1  0
  5  4  2  0
  6  5  1  0
  7  6  1  0
  7  9  1  0
  7  8  1  1
  9 16  1  0
  9 10  2  0
 11  5  1  0
 11 12  2  0
 12  2  1  0
 13 14  1  0
 15 14  1  6
 16 15  1  0
 17 15  1  0
 17 18  2  0
 20 19  1  6
 20 21  1  0
 20 22  1  0
 22 23  1  6
 23 17  1  0
 24 22  1  0
 25 24  1  0
 26 24  2  0
M  END
$$$$
