YSV.pdb
     RDKit          3D

 26 26  0  0  1  0  0  0  0  0999 V2000
   22.8549  -21.8092   -6.7143 O   0  0  0  0  0  0  0  0  0  0  0  0
   23.4649  -21.3769   -7.8809 C   0  0  0  0  0  0  0  0  0  0  0  0
   24.8290  -21.2297   -7.9212 C   0  0  0  0  0  0  0  0  0  0  0  0
   25.4363  -20.7948   -9.0968 C   0  0  0  0  0  0  0  0  0  0  0  0
   24.6825  -20.5172  -10.1995 C   0  0  0  0  0  0  0  0  0  0  0  0
   25.3409  -20.0524  -11.4532 C   0  0  0  0  0  0  0  0  0  0  0  0
   25.1449  -21.0699  -12.5717 C   0  0  2  0  0  0  0  0  0  0  0  0
   26.2458  -22.0080  -12.4721 N   0  0  0  0  0  0  0  0  0  0  0  0
   25.1770  -20.3464  -13.8494 C   0  0  0  0  0  0  0  0  0  0  0  0
   26.3128  -20.0420  -14.3252 O   0  0  0  0  0  0  0  0  0  0  0  0
   23.3033  -20.6691  -10.1489 C   0  0  0  0  0  0  0  0  0  0  0  0
   22.6885  -21.0976   -8.9958 C   0  0  0  0  0  0  0  0  0  0  0  0
   21.6600  -19.3293  -15.9704 O   0  0  0  0  0  0  0  0  0  0  0  0
   22.8198  -19.6262  -16.6493 C   0  0  0  0  0  0  0  0  0  0  0  0
   24.0675  -19.3427  -15.7987 C   0  0  2  0  0  0  0  0  0  0  0  0
   23.9762  -20.0034  -14.5223 N   0  0  0  0  0  0  0  0  0  0  0  0
   24.0873  -17.8570  -15.6244 C   0  0  0  0  0  0  0  0  0  0  0  0
   23.3544  -17.2966  -14.7712 O   0  0  0  0  0  0  0  0  0  0  0  0
   27.2669  -15.8342  -17.0267 C   0  0  0  0  0  0  0  0  0  0  0  0
   26.2739  -15.1445  -16.0834 C   0  0  2  0  0  0  0  0  0  0  0  0
   26.5786  -15.4529  -14.6533 C   0  0  0  0  0  0  0  0  0  0  0  0
   24.8993  -15.6387  -16.5029 C   0  0  2  0  0  0  0  0  0  0  0  0
   24.9378  -17.0845  -16.4275 N   0  0  0  0  0  0  0  0  0  0  0  0
   24.6117  -15.2590  -17.8996 C   0  0  0  0  0  0  0  0  0  0  0  0
   24.6713  -16.1951  -18.9184 O   0  0  0  0  0  0  0  0  0  0  0  0
   24.3098  -14.0855  -18.1834 O   0  0  0  0  0  0  0  0  0  0  0  0
  2  3  2  0
  2  1  1  0
  4  3  1  0
  5  4  2  0
  6  5  1  0
  7  6  1  0
  7  9  1  0
  7  8  1  6
  9 16  1  0
  9 10  2  0
 11  5  1  0
 11 12  2  0
 12  2  1  0
 13 14  1  0
 15 14  1  6
 16 15  1  0
 17 15  1  0
 17 18  2  0
 20 19  1  6
 20 21  1  0
 20 22  1  0
 22 23  1  6
 23 17  1  0
 24 22  1  0
 25 24  1  0
 26 24  2  0
M  END
$$$$
