YSV.pdb
     RDKit          3D

 26 26  0  0  1  0  0  0  0  0999 V2000
   28.8231  -19.5274   -3.9466 O   0  0  0  0  0  0  0  0  0  0  0  0
   28.2131  -19.5641   -5.1903 C   0  0  0  0  0  0  0  0  0  0  0  0
   27.1397  -20.3940   -5.3975 C   0  0  0  0  0  0  0  0  0  0  0  0
   26.5309  -20.4264   -6.6497 C   0  0  0  0  0  0  0  0  0  0  0  0
   26.9969  -19.6401   -7.6626 C   0  0  0  0  0  0  0  0  0  0  0  0
   26.3393  -19.6812   -8.9995 C   0  0  0  0  0  0  0  0  0  0  0  0
   26.3946  -21.0892   -9.5820 C   0  0  2  0  0  0  0  0  0  0  0  0
   27.7817  -21.3399   -9.9214 N   0  0  0  0  0  0  0  0  0  0  0  0
   25.5418  -21.1158  -10.7774 C   0  0  0  0  0  0  0  0  0  0  0  0
   26.1016  -20.9518  -11.9038 O   0  0  0  0  0  0  0  0  0  0  0  0
   28.0834  -18.8039   -7.4433 C   0  0  0  0  0  0  0  0  0  0  0  0
   28.6955  -18.7603   -6.2126 C   0  0  0  0  0  0  0  0  0  0  0  0
   21.3670  -21.4378  -10.5385 O   0  0  0  0  0  0  0  0  0  0  0  0
   21.9997  -22.0971  -11.5677 C   0  0  0  0  0  0  0  0  0  0  0  0
   23.3753  -21.4865  -11.8764 C   0  0  2  0  0  0  0  0  0  0  0  0
   24.1418  -21.3182  -10.6688 N   0  0  0  0  0  0  0  0  0  0  0  0
   23.0782  -20.1607  -12.5026 C   0  0  0  0  0  0  0  0  0  0  0  0
   22.9102  -19.1353  -11.7959 O   0  0  0  0  0  0  0  0  0  0  0  0
   23.2692  -20.1452  -16.5777 C   0  0  0  0  0  0  0  0  0  0  0  0
   23.4982  -18.8121  -15.8553 C   0  0  2  0  0  0  0  0  0  0  0  0
   24.9422  -18.6129  -15.5263 C   0  0  0  0  0  0  0  0  0  0  0  0
   22.6224  -18.8627  -14.6144 C   0  0  2  0  0  0  0  0  0  0  0  0
   22.9873  -20.0676  -13.8984 N   0  0  0  0  0  0  0  0  0  0  0  0
   21.1974  -18.9622  -14.9846 C   0  0  0  0  0  0  0  0  0  0  0  0
   20.4823  -17.8410  -15.3711 O   0  0  0  0  0  0  0  0  0  0  0  0
   20.6146  -20.0613  -14.9545 O   0  0  0  0  0  0  0  0  0  0  0  0
  2  3  2  0
  2  1  1  0
  4  3  1  0
  5  4  2  0
  6  5  1  0
  7  6  1  0
  7  9  1  0
  7  8  1  6
  9 16  1  0
  9 10  2  0
 11  5  1  0
 11 12  2  0
 12  2  1  0
 13 14  1  0
 15 14  1  1
 16 15  1  0
 17 15  1  0
 17 18  2  0
 20 19  1  1
 20 21  1  0
 20 22  1  0
 22 23  1  1
 23 17  1  0
 24 22  1  0
 25 24  1  0
 26 24  2  0
M  END
$$$$
