YSV.pdb
     RDKit          3D

 26 26  0  0  1  0  0  0  0  0999 V2000
   20.0334  -22.3747  -13.8891 O   0  0  0  0  0  0  0  0  0  0  0  0
   20.4696  -21.1552  -14.3819 C   0  0  0  0  0  0  0  0  0  0  0  0
   21.4587  -21.1201  -15.3328 C   0  0  0  0  0  0  0  0  0  0  0  0
   21.8929  -19.8914  -15.8242 C   0  0  0  0  0  0  0  0  0  0  0  0
   21.3402  -18.7317  -15.3648 C   0  0  0  0  0  0  0  0  0  0  0  0
   21.8109  -17.4212  -15.8963 C   0  0  0  0  0  0  0  0  0  0  0  0
   20.7937  -16.8413  -16.8729 C   0  0  2  0  0  0  0  0  0  0  0  0
   20.8318  -17.6815  -18.0539 N   0  0  0  0  0  0  0  0  0  0  0  0
   21.2031  -15.4660  -17.1857 C   0  0  0  0  0  0  0  0  0  0  0  0
   22.1358  -15.3070  -18.0306 O   0  0  0  0  0  0  0  0  0  0  0  0
   20.3401  -18.7775  -14.4027 C   0  0  0  0  0  0  0  0  0  0  0  0
   19.9004  -19.9827  -13.9075 C   0  0  0  0  0  0  0  0  0  0  0  0
   18.7210  -12.3908  -17.3604 O   0  0  0  0  0  0  0  0  0  0  0  0
   19.9996  -12.3681  -17.8692 C   0  0  0  0  0  0  0  0  0  0  0  0
   21.0052  -13.0316  -16.9157 C   0  0  2  0  0  0  0  0  0  0  0  0
   20.5733  -14.3589  -16.5611 N   0  0  0  0  0  0  0  0  0  0  0  0
   21.0367  -12.1464  -15.7100 C   0  0  0  0  0  0  0  0  0  0  0  0
   20.2712  -12.3544  -14.7354 O   0  0  0  0  0  0  0  0  0  0  0  0
   24.3326   -9.7856  -15.4399 C   0  0  0  0  0  0  0  0  0  0  0  0
   23.5879  -10.2351  -14.1772 C   0  0  2  0  0  0  0  0  0  0  0  0
   24.0298  -11.5940  -13.7400 C   0  0  0  0  0  0  0  0  0  0  0  0
   22.1115  -10.1928  -14.5351 C   0  0  2  0  0  0  0  0  0  0  0  0
   21.9356  -11.0713  -15.6730 N   0  0  0  0  0  0  0  0  0  0  0  0
   21.7111   -8.8313  -14.9397 C   0  0  0  0  0  0  0  0  0  0  0  0
   21.4861   -7.8449  -13.9941 O   0  0  0  0  0  0  0  0  0  0  0  0
   21.5690   -8.5486  -16.1433 O   0  0  0  0  0  0  0  0  0  0  0  0
  2  3  2  0
  2  1  1  0
  4  3  1  0
  5  4  2  0
  6  5  1  0
  7  6  1  0
  7  9  1  0
  7  8  1  6
  9 16  1  0
  9 10  2  0
 11  5  1  0
 11 12  2  0
 12  2  1  0
 13 14  1  0
 15 14  1  6
 16 15  1  0
 17 15  1  0
 17 18  2  0
 20 19  1  6
 20 21  1  0
 20 22  1  0
 22 23  1  6
 23 17  1  0
 24 22  1  0
 25 24  1  0
 26 24  2  0
M  END
$$$$
