YSV.pdb
     RDKit          3D

 26 26  0  0  1  0  0  0  0  0999 V2000
   17.1602  -12.4644  -24.7346 O   0  0  0  0  0  0  0  0  0  0  0  0
   17.3005  -11.3736  -23.8917 C   0  0  0  0  0  0  0  0  0  0  0  0
   17.8619  -11.5407  -22.6504 C   0  0  0  0  0  0  0  0  0  0  0  0
   18.0002  -10.4404  -21.8077 C   0  0  0  0  0  0  0  0  0  0  0  0
   17.5813   -9.2065  -22.2117 C   0  0  0  0  0  0  0  0  0  0  0  0
   17.7332   -8.0347  -21.3033 C   0  0  0  0  0  0  0  0  0  0  0  0
   16.5528   -7.9437  -20.3424 C   0  0  2  0  0  0  0  0  0  0  0  0
   15.4124   -7.5193  -21.1306 N   0  0  0  0  0  0  0  0  0  0  0  0
   16.8860   -6.9511  -19.3125 C   0  0  0  0  0  0  0  0  0  0  0  0
   16.2130   -5.8761  -19.2912 O   0  0  0  0  0  0  0  0  0  0  0  0
   17.0145   -9.0475  -23.4692 C   0  0  0  0  0  0  0  0  0  0  0  0
   16.8710  -10.1238  -24.3130 C   0  0  0  0  0  0  0  0  0  0  0  0
   16.6994   -7.1952  -15.7578 O   0  0  0  0  0  0  0  0  0  0  0  0
   16.9833   -6.0318  -16.4362 C   0  0  0  0  0  0  0  0  0  0  0  0
   18.1909   -6.1968  -17.3717 C   0  0  2  0  0  0  0  0  0  0  0  0
   17.9253   -7.1927  -18.3775 N   0  0  0  0  0  0  0  0  0  0  0  0
   19.3128   -6.6307  -16.4821 C   0  0  0  0  0  0  0  0  0  0  0  0
   19.4305   -7.8309  -16.1289 O   0  0  0  0  0  0  0  0  0  0  0  0
   22.8131   -5.5391  -17.2193 C   0  0  0  0  0  0  0  0  0  0  0  0
   22.5330   -5.0830  -15.7824 C   0  0  2  0  0  0  0  0  0  0  0  0
   23.7653   -5.1520  -14.9400 C   0  0  0  0  0  0  0  0  0  0  0  0
   21.4294   -5.9941  -15.2709 C   0  0  2  0  0  0  0  0  0  0  0  0
   20.2428   -5.6797  -16.0395 N   0  0  0  0  0  0  0  0  0  0  0  0
   21.1422   -5.7195  -13.8497 C   0  0  0  0  0  0  0  0  0  0  0  0
   21.7030   -6.4934  -12.8476 O   0  0  0  0  0  0  0  0  0  0  0  0
   20.3876   -4.7831  -13.5297 O   0  0  0  0  0  0  0  0  0  0  0  0
  2  3  2  0
  2  1  1  0
  4  3  1  0
  5  4  2  0
  6  5  1  0
  7  6  1  0
  7  9  1  0
  7  8  1  6
  9 16  1  0
  9 10  2  0
 11  5  1  0
 11 12  2  0
 12  2  1  0
 13 14  1  0
 15 14  1  1
 16 15  1  0
 17 15  1  0
 17 18  2  0
 20 19  1  6
 20 21  1  0
 20 22  1  0
 22 23  1  6
 23 17  1  0
 24 22  1  0
 25 24  1  0
 26 24  2  0
M  END
$$$$
