YSV.pdb
     RDKit          3D

 26 26  0  0  1  0  0  0  0  0999 V2000
   19.2145  -17.6453  -16.7736 O   0  0  0  0  0  0  0  0  0  0  0  0
   19.4140  -16.2942  -17.0075 C   0  0  0  0  0  0  0  0  0  0  0  0
   18.9732  -15.3726  -16.0908 C   0  0  0  0  0  0  0  0  0  0  0  0
   19.1766  -14.0160  -16.3317 C   0  0  0  0  0  0  0  0  0  0  0  0
   19.8086  -13.6056  -17.4690 C   0  0  0  0  0  0  0  0  0  0  0  0
   20.0220  -12.1518  -17.7185 C   0  0  0  0  0  0  0  0  0  0  0  0
   18.7262  -11.4890  -18.1728 C   0  0  2  0  0  0  0  0  0  0  0  0
   18.4166  -12.0416  -19.4770 N   0  0  0  0  0  0  0  0  0  0  0  0
   18.9640  -10.0419  -18.2515 C   0  0  0  0  0  0  0  0  0  0  0  0
   19.0846   -9.5269  -19.4044 O   0  0  0  0  0  0  0  0  0  0  0  0
   20.2508  -14.5454  -18.3904 C   0  0  0  0  0  0  0  0  0  0  0  0
   20.0577  -15.8886  -18.1673 C   0  0  0  0  0  0  0  0  0  0  0  0
   16.8053   -7.3743  -17.0214 O   0  0  0  0  0  0  0  0  0  0  0  0
   17.8993   -7.2347  -17.8448 C   0  0  0  0  0  0  0  0  0  0  0  0
   19.1690   -7.8247  -17.2120 C   0  0  2  0  0  0  0  0  0  0  0  0
   19.0546   -9.2538  -17.0754 N   0  0  0  0  0  0  0  0  0  0  0  0
   19.2711   -7.1722  -15.8696 C   0  0  0  0  0  0  0  0  0  0  0  0
   18.4911   -7.4881  -14.9364 O   0  0  0  0  0  0  0  0  0  0  0  0
   22.7766   -5.1725  -15.4525 C   0  0  0  0  0  0  0  0  0  0  0  0
   22.1855   -5.9703  -14.2840 C   0  0  2  0  0  0  0  0  0  0  0  0
   22.5468   -7.4174  -14.3757 C   0  0  0  0  0  0  0  0  0  0  0  0
   20.6845   -5.7423  -14.3497 C   0  0  2  0  0  0  0  0  0  0  0  0
   20.2533   -6.1950  -15.6561 N   0  0  0  0  0  0  0  0  0  0  0  0
   20.3690   -4.3054  -14.2343 C   0  0  0  0  0  0  0  0  0  0  0  0
   20.4046   -3.6650  -13.0070 O   0  0  0  0  0  0  0  0  0  0  0  0
   20.0647   -3.6447  -15.2442 O   0  0  0  0  0  0  0  0  0  0  0  0
  2  3  2  0
  2  1  1  0
  4  3  1  0
  5  4  2  0
  6  5  1  0
  7  6  1  0
  7  9  1  0
  7  8  1  6
  9 16  1  0
  9 10  2  0
 11  5  1  0
 11 12  2  0
 12  2  1  0
 13 14  1  0
 15 14  1  1
 16 15  1  0
 17 15  1  0
 17 18  2  0
 20 19  1  6
 20 21  1  0
 20 22  1  0
 22 23  1  6
 23 17  1  0
 24 22  1  0
 25 24  1  0
 26 24  2  0
M  END
$$$$
