YSV.pdb
     RDKit          3D

 26 26  0  0  1  0  0  0  0  0999 V2000
   28.4454  -13.5936  -16.9547 O   0  0  0  0  0  0  0  0  0  0  0  0
   27.7721  -14.7105  -16.4864 C   0  0  0  0  0  0  0  0  0  0  0  0
   27.3139  -15.6510  -17.3749 C   0  0  0  0  0  0  0  0  0  0  0  0
   26.6378  -16.7714  -16.8980 C   0  0  0  0  0  0  0  0  0  0  0  0
   26.4321  -16.9335  -15.5591 C   0  0  0  0  0  0  0  0  0  0  0  0
   25.7076  -18.1356  -15.0576 C   0  0  0  0  0  0  0  0  0  0  0  0
   26.6915  -19.1747  -14.5312 C   0  0  2  0  0  0  0  0  0  0  0  0
   27.4339  -19.6572  -15.6792 N   0  0  0  0  0  0  0  0  0  0  0  0
   25.9154  -20.2546  -13.9080 C   0  0  0  0  0  0  0  0  0  0  0  0
   25.3726  -21.1075  -14.6742 O   0  0  0  0  0  0  0  0  0  0  0  0
   26.8994  -15.9766  -14.6681 C   0  0  0  0  0  0  0  0  0  0  0  0
   27.5688  -14.8648  -15.1230 C   0  0  0  0  0  0  0  0  0  0  0  0
   24.8672  -20.0668   -9.8590 O   0  0  0  0  0  0  0  0  0  0  0  0
   24.9456  -21.3224  -10.4171 C   0  0  0  0  0  0  0  0  0  0  0  0
   24.8375  -21.2739  -11.9490 C   0  0  2  0  0  0  0  0  0  0  0  0
   25.7816  -20.3351  -12.4980 N   0  0  0  0  0  0  0  0  0  0  0  0
   23.4342  -20.8340  -12.2239 C   0  0  0  0  0  0  0  0  0  0  0  0
   23.1238  -19.6164  -12.2080 O   0  0  0  0  0  0  0  0  0  0  0  0
   19.5127  -21.4649  -14.7242 C   0  0  0  0  0  0  0  0  0  0  0  0
   20.9815  -21.7266  -14.3698 C   0  0  2  0  0  0  0  0  0  0  0  0
   21.3982  -23.1067  -14.7633 C   0  0  0  0  0  0  0  0  0  0  0  0
   21.0896  -21.4933  -12.8720 C   0  0  2  0  0  0  0  0  0  0  0  0
   22.4562  -21.7988  -12.5025 N   0  0  0  0  0  0  0  0  0  0  0  0
   20.1986  -22.4101  -12.1351 C   0  0  0  0  0  0  0  0  0  0  0  0
   18.9053  -22.0373  -11.8093 O   0  0  0  0  0  0  0  0  0  0  0  0
   20.5990  -23.5380  -11.7938 O   0  0  0  0  0  0  0  0  0  0  0  0
  2  3  2  0
  2  1  1  0
  4  3  1  0
  5  4  2  0
  6  5  1  0
  7  6  1  0
  7  9  1  0
  7  8  1  6
  9 16  1  0
  9 10  2  0
 11  5  1  0
 11 12  2  0
 12  2  1  0
 13 14  1  0
 15 14  1  1
 16 15  1  0
 17 15  1  0
 17 18  2  0
 20 19  1  1
 20 21  1  0
 20 22  1  0
 22 23  1  1
 23 17  1  0
 24 22  1  0
 25 24  1  0
 26 24  2  0
M  END
$$$$
