ITK.pdb
     RDKit          3D

 25 24  0  0  1  0  0  0  0  0999 V2000
   22.6099  -20.8281   -7.6086 C   0  0  0  0  0  0  0  0  0  0  0  0
   23.9609  -21.1434   -8.1844 C   0  0  0  0  0  0  0  0  0  0  0  0
   24.1980  -20.4704   -9.5175 C   0  0  2  0  0  0  0  0  0  0  0  0
   23.0925  -20.6908  -10.4966 C   0  0  0  0  0  0  0  0  0  0  0  0
   25.5513  -20.8863  -10.0672 C   0  0  2  0  0  0  0  0  0  0  0  0
   26.5285  -20.6693   -9.0484 N   0  0  0  0  0  0  0  0  0  0  0  0
   25.8461  -20.1913  -11.3312 C   0  0  0  0  0  0  0  0  0  0  0  0
   26.1657  -18.9673  -11.2509 O   0  0  0  0  0  0  0  0  0  0  0  0
   28.6043  -20.4355  -13.6587 C   0  0  0  0  0  0  0  0  0  0  0  0
   27.3685  -20.6516  -14.4831 C   0  0  1  0  0  0  0  0  0  0  0  0
   27.1723  -22.0147  -14.6352 O   0  0  0  0  0  0  0  0  0  0  0  0
   26.1400  -20.0613  -13.8399 C   0  0  2  0  0  0  0  0  0  0  0  0
   25.8037  -20.7650  -12.6091 N   0  0  0  0  0  0  0  0  0  0  0  0
   24.9862  -20.2045  -14.7688 C   0  0  0  0  0  0  0  0  0  0  0  0
   24.1417  -21.1553  -14.5951 O   0  0  0  0  0  0  0  0  0  0  0  0
   24.7803  -19.3215  -15.8483 N   0  0  0  0  0  0  0  0  0  0  0  0
   23.5668  -19.4546  -16.6951 C   0  0  1  0  0  0  0  0  0  0  0  0
   23.0968  -18.0883  -17.0643 C   0  0  0  0  0  0  0  0  0  0  0  0
   21.8920  -17.9887  -17.9079 C   0  0  0  0  0  0  0  0  0  0  0  0
   21.4006  -16.6761  -18.3537 C   0  0  0  0  0  0  0  0  0  0  0  0
   20.1722  -16.6644  -19.2058 C   0  0  0  0  0  0  0  0  0  0  0  0
   19.7357  -15.3415  -19.4874 N   0  0  0  0  0  0  0  0  0  0  0  0
   23.7945  -20.4231  -17.7411 C   0  0  0  0  0  0  0  0  0  0  0  0
   22.8906  -21.3238  -18.2757 O   0  0  0  0  0  0  0  0  0  0  0  0
   24.9655  -20.4983  -18.2664 O   0  0  0  0  0  0  0  0  0  0  0  0
  2  1  1  0
  2  3  1  0
  3  4  1  6
  5  3  1  0
  5  6  1  1
  7  5  1  0
  8  7  2  0
 10  9  1  1
 10 12  1  0
 11 10  1  0
 12 13  1  1
 13  7  1  0
 14 12  1  0
 14 15  2  0
 16 14  1  0
 17 16  1  0
 17 18  1  6
 17 23  1  0
 19 18  1  0
 19 20  1  0
 21 20  1  0
 21 22  1  0
 23 25  2  0
 23 24  1  0
M  END
$$$$
