ITK.pdb
     RDKit          3D

 25 24  0  0  1  0  0  0  0  0999 V2000
   23.0764  -15.9452  -20.8352 C   0  0  0  0  0  0  0  0  0  0  0  0
   24.2106  -15.3568  -20.0457 C   0  0  0  0  0  0  0  0  0  0  0  0
   23.7413  -14.3853  -18.9863 C   0  0  2  0  0  0  0  0  0  0  0  0
   22.8417  -13.3188  -19.5181 C   0  0  0  0  0  0  0  0  0  0  0  0
   24.9395  -13.8176  -18.2456 C   0  0  2  0  0  0  0  0  0  0  0  0
   25.7414  -14.9112  -17.7972 N   0  0  0  0  0  0  0  0  0  0  0  0
   24.5144  -12.9106  -17.1666 C   0  0  0  0  0  0  0  0  0  0  0  0
   23.9393  -13.4385  -16.1679 O   0  0  0  0  0  0  0  0  0  0  0  0
   26.6122  -10.6800  -15.0287 C   0  0  0  0  0  0  0  0  0  0  0  0
   25.5014   -9.8331  -15.5785 C   0  0  1  0  0  0  0  0  0  0  0  0
   25.9854   -9.1206  -16.6638 O   0  0  0  0  0  0  0  0  0  0  0  0
   24.3247  -10.6569  -16.0348 C   0  0  2  0  0  0  0  0  0  0  0  0
   24.6907  -11.5205  -17.1497 N   0  0  0  0  0  0  0  0  0  0  0  0
   23.2457   -9.7470  -16.5066 C   0  0  0  0  0  0  0  0  0  0  0  0
   23.0716   -9.5629  -17.7648 O   0  0  0  0  0  0  0  0  0  0  0  0
   22.3928   -9.0699  -15.6114 N   0  0  0  0  0  0  0  0  0  0  0  0
   21.3257   -8.1778  -16.1339 C   0  0  1  0  0  0  0  0  0  0  0  0
   20.0182   -8.8849  -16.0128 C   0  0  0  0  0  0  0  0  0  0  0  0
   18.8005   -8.1244  -16.3474 C   0  0  0  0  0  0  0  0  0  0  0  0
   17.4799   -8.7693  -16.2916 C   0  0  0  0  0  0  0  0  0  0  0  0
   16.2912   -7.9087  -16.5770 C   0  0  0  0  0  0  0  0  0  0  0  0
   15.0872   -8.6630  -16.6103 N   0  0  0  0  0  0  0  0  0  0  0  0
   21.4619   -6.8564  -15.5690 C   0  0  0  0  0  0  0  0  0  0  0  0
   20.9955   -5.6603  -16.0847 O   0  0  0  0  0  0  0  0  0  0  0  0
   22.0900   -6.7246  -14.4550 O   0  0  0  0  0  0  0  0  0  0  0  0
  2  1  1  0
  2  3  1  0
  3  4  1  6
  5  3  1  0
  5  6  1  1
  7  5  1  0
  8  7  2  0
 10  9  1  6
 10 12  1  0
 11 10  1  0
 12 13  1  6
 13  7  1  0
 14 12  1  0
 14 15  2  0
 16 14  1  0
 17 16  1  0
 17 18  1  1
 17 23  1  0
 19 18  1  0
 19 20  1  0
 21 20  1  0
 21 22  1  0
 23 25  2  0
 23 24  1  0
M  END
$$$$
