ITK.pdb
     RDKit          3D

 25 24  0  0  1  0  0  0  0  0999 V2000
   22.1950  -15.2198  -22.7462 C   0  0  0  0  0  0  0  0  0  0  0  0
   21.2280  -14.8727  -21.6506 C   0  0  0  0  0  0  0  0  0  0  0  0
   21.7806  -13.8449  -20.6891 C   0  0  2  0  0  0  0  0  0  0  0  0
   23.0710  -14.2562  -20.0604 C   0  0  0  0  0  0  0  0  0  0  0  0
   20.7227  -13.4853  -19.6605 C   0  0  2  0  0  0  0  0  0  0  0  0
   19.4441  -13.5749  -20.2908 N   0  0  0  0  0  0  0  0  0  0  0  0
   20.9965  -12.1711  -19.0559 C   0  0  0  0  0  0  0  0  0  0  0  0
   22.1058  -12.0357  -18.4577 O   0  0  0  0  0  0  0  0  0  0  0  0
   21.8627   -8.9473  -20.4355 C   0  0  0  0  0  0  0  0  0  0  0  0
   20.6221   -8.7272  -19.6195 C   0  0  1  0  0  0  0  0  0  0  0  0
   19.5225   -8.8040  -20.4589 O   0  0  0  0  0  0  0  0  0  0  0  0
   20.4633   -9.7555  -18.5293 C   0  0  2  0  0  0  0  0  0  0  0  0
   20.1394  -11.0627  -19.0854 N   0  0  0  0  0  0  0  0  0  0  0  0
   19.3392   -9.3546  -17.6403 C   0  0  0  0  0  0  0  0  0  0  0  0
   18.1647   -9.8306  -17.8430 O   0  0  0  0  0  0  0  0  0  0  0  0
   19.5172   -8.4592  -16.5660 N   0  0  0  0  0  0  0  0  0  0  0  0
   18.3531   -8.0549  -15.7360 C   0  0  1  0  0  0  0  0  0  0  0  0
   18.3559   -8.8727  -14.4889 C   0  0  0  0  0  0  0  0  0  0  0  0
   17.3188   -8.5815  -13.4826 C   0  0  0  0  0  0  0  0  0  0  0  0
   17.2469   -9.3627  -12.2386 C   0  0  0  0  0  0  0  0  0  0  0  0
   16.1577   -9.0101  -11.2772 C   0  0  0  0  0  0  0  0  0  0  0  0
   16.0957   -9.9226  -10.1894 N   0  0  0  0  0  0  0  0  0  0  0  0
   18.2943   -6.6164  -15.6297 C   0  0  0  0  0  0  0  0  0  0  0  0
   17.2551   -5.8427  -15.1444 O   0  0  0  0  0  0  0  0  0  0  0  0
   19.3047   -5.9277  -16.0268 O   0  0  0  0  0  0  0  0  0  0  0  0
  2  1  1  0
  2  3  1  0
  3  4  1  1
  5  3  1  0
  5  6  1  6
  7  5  1  0
  8  7  2  0
 10  9  1  6
 10 12  1  0
 11 10  1  0
 12 13  1  6
 13  7  1  0
 14 12  1  0
 14 15  2  0
 16 14  1  0
 17 16  1  0
 17 18  1  1
 17 23  1  0
 19 18  1  0
 19 20  1  0
 21 20  1  0
 21 22  1  0
 23 25  2  0
 23 24  1  0
M  END
$$$$
