ITK.pdb
     RDKit          3D

 25 24  0  0  1  0  0  0  0  0999 V2000
   28.4679  -19.7529   -4.6346 C   0  0  0  0  0  0  0  0  0  0  0  0
   27.1667  -20.0440   -5.3262 C   0  0  0  0  0  0  0  0  0  0  0  0
   27.1543  -19.5791   -6.7650 C   0  0  2  0  0  0  0  0  0  0  0  0
   27.4873  -18.1321   -6.9222 C   0  0  0  0  0  0  0  0  0  0  0  0
   25.8277  -19.9425   -7.4088 C   0  0  2  0  0  0  0  0  0  0  0  0
   25.5291  -21.2981   -7.0723 N   0  0  0  0  0  0  0  0  0  0  0  0
   25.8527  -19.6815   -8.8576 C   0  0  0  0  0  0  0  0  0  0  0  0
   26.0902  -18.4905   -9.2210 O   0  0  0  0  0  0  0  0  0  0  0  0
   28.0531  -21.1785  -11.4698 C   0  0  0  0  0  0  0  0  0  0  0  0
   26.6491  -21.2936  -11.9883 C   0  0  1  0  0  0  0  0  0  0  0  0
   26.2076  -22.5907  -11.7823 O   0  0  0  0  0  0  0  0  0  0  0  0
   25.7018  -20.3507  -11.2919 C   0  0  2  0  0  0  0  0  0  0  0  0
   25.6375  -20.6328   -9.8639 N   0  0  0  0  0  0  0  0  0  0  0  0
   24.3338  -20.5343  -11.8481 C   0  0  0  0  0  0  0  0  0  0  0  0
   23.4556  -21.1883  -11.1786 O   0  0  0  0  0  0  0  0  0  0  0  0
   23.9583  -20.0083  -13.1010 N   0  0  0  0  0  0  0  0  0  0  0  0
   22.5683  -20.1865  -13.5945 C   0  0  1  0  0  0  0  0  0  0  0  0
   22.2276  -19.0304  -14.4729 C   0  0  0  0  0  0  0  0  0  0  0  0
   20.8799  -19.0041  -15.0697 C   0  0  0  0  0  0  0  0  0  0  0  0
   20.4740  -17.8946  -15.9456 C   0  0  0  0  0  0  0  0  0  0  0  0
   19.0758  -17.9231  -16.4742 C   0  0  0  0  0  0  0  0  0  0  0  0
   18.7539  -16.7348  -17.1842 N   0  0  0  0  0  0  0  0  0  0  0  0
   22.3884  -21.5267  -14.0999 C   0  0  0  0  0  0  0  0  0  0  0  0
   21.2302  -22.2834  -14.1059 O   0  0  0  0  0  0  0  0  0  0  0  0
   23.4003  -22.1332  -14.6108 O   0  0  0  0  0  0  0  0  0  0  0  0
  2  1  1  0
  2  3  1  0
  3  4  1  1
  5  3  1  0
  5  6  1  6
  7  5  1  0
  8  7  2  0
 10  9  1  1
 10 12  1  0
 11 10  1  0
 12 13  1  1
 13  7  1  0
 14 12  1  0
 14 15  2  0
 16 14  1  0
 17 16  1  0
 17 18  1  6
 17 23  1  0
 19 18  1  0
 19 20  1  0
 21 20  1  0
 21 22  1  0
 23 25  2  0
 23 24  1  0
M  END
$$$$
