ITK.pdb
     RDKit          3D

 25 24  0  0  1  0  0  0  0  0999 V2000
   17.5959  -14.1473  -19.7929 C   0  0  0  0  0  0  0  0  0  0  0  0
   19.0286  -14.1523  -19.3416 C   0  0  0  0  0  0  0  0  0  0  0  0
   19.3106  -13.1085  -18.2847 C   0  0  2  0  0  0  0  0  0  0  0  0
   18.9365  -11.7252  -18.7044 C   0  0  0  0  0  0  0  0  0  0  0  0
   20.7596  -13.2082  -17.8408 C   0  0  2  0  0  0  0  0  0  0  0  0
   21.0118  -14.5596  -17.4534 N   0  0  0  0  0  0  0  0  0  0  0  0
   21.0607  -12.2225  -16.7894 C   0  0  0  0  0  0  0  0  0  0  0  0
   20.5287  -12.4145  -15.6549 O   0  0  0  0  0  0  0  0  0  0  0  0
   24.0486  -11.4522  -14.8657 C   0  0  0  0  0  0  0  0  0  0  0  0
   23.6350  -10.1621  -15.5121 C   0  0  1  0  0  0  0  0  0  0  0  0
   24.3732   -9.9933  -16.6724 O   0  0  0  0  0  0  0  0  0  0  0  0
   22.1713  -10.1442  -15.8708 C   0  0  2  0  0  0  0  0  0  0  0  0
   21.8812  -11.0958  -16.9353 N   0  0  0  0  0  0  0  0  0  0  0  0
   21.8071   -8.7895  -16.3678 C   0  0  0  0  0  0  0  0  0  0  0  0
   21.4421   -8.6348  -17.5884 O   0  0  0  0  0  0  0  0  0  0  0  0
   21.8465   -7.6516  -15.5364 N   0  0  0  0  0  0  0  0  0  0  0  0
   21.3997   -6.3346  -16.0592 C   0  0  1  0  0  0  0  0  0  0  0  0
   20.0296   -6.4923  -16.6265 C   0  0  0  0  0  0  0  0  0  0  0  0
   19.3383   -5.2729  -17.0830 C   0  0  0  0  0  0  0  0  0  0  0  0
   17.9837   -5.3519  -17.6503 C   0  0  0  0  0  0  0  0  0  0  0  0
   17.4088   -4.0921  -18.2138 C   0  0  0  0  0  0  0  0  0  0  0  0
   16.1274   -4.3062  -18.7898 N   0  0  0  0  0  0  0  0  0  0  0  0
   21.6363   -5.3038  -15.0767 C   0  0  0  0  0  0  0  0  0  0  0  0
   21.8081   -3.9482  -15.2928 O   0  0  0  0  0  0  0  0  0  0  0  0
   21.7095   -5.6392  -13.8377 O   0  0  0  0  0  0  0  0  0  0  0  0
  2  1  1  0
  2  3  1  0
  3  4  1  6
  5  3  1  0
  5  6  1  1
  7  5  1  0
  8  7  2  0
 10  9  1  6
 10 12  1  0
 11 10  1  0
 12 13  1  6
 13  7  1  0
 14 12  1  0
 14 15  2  0
 16 14  1  0
 17 16  1  0
 17 18  1  1
 17 23  1  0
 19 18  1  0
 19 20  1  0
 21 20  1  0
 21 22  1  0
 23 25  2  0
 23 24  1  0
M  END
$$$$
