ITK.pdb
     RDKit          3D

 25 24  0  0  1  0  0  0  0  0999 V2000
   28.1968  -19.4221   -6.2055 C   0  0  0  0  0  0  0  0  0  0  0  0
   26.9743  -20.0610   -6.8000 C   0  0  0  0  0  0  0  0  0  0  0  0
   26.9332  -19.9501   -8.3075 C   0  0  2  0  0  0  0  0  0  0  0  0
   26.9748  -18.5406   -8.7985 C   0  0  0  0  0  0  0  0  0  0  0  0
   25.7371  -20.7165   -8.8446 C   0  0  2  0  0  0  0  0  0  0  0  0
   25.7638  -22.0292   -8.2822 N   0  0  0  0  0  0  0  0  0  0  0  0
   25.7152  -20.7009  -10.3166 C   0  0  0  0  0  0  0  0  0  0  0  0
   26.7793  -21.0522  -10.9090 O   0  0  0  0  0  0  0  0  0  0  0  0
   25.4678  -22.7496  -12.6969 C   0  0  0  0  0  0  0  0  0  0  0  0
   24.3410  -21.8173  -13.0351 C   0  0  1  0  0  0  0  0  0  0  0  0
   23.1884  -22.2759  -12.4179 O   0  0  0  0  0  0  0  0  0  0  0  0
   24.6035  -20.4082  -12.5694 C   0  0  2  0  0  0  0  0  0  0  0  0
   24.6236  -20.3326  -11.1145 N   0  0  0  0  0  0  0  0  0  0  0  0
   23.5079  -19.5233  -13.0502 C   0  0  0  0  0  0  0  0  0  0  0  0
   22.5926  -19.1414  -12.2355 O   0  0  0  0  0  0  0  0  0  0  0  0
   23.4358  -19.0796  -14.3863 N   0  0  0  0  0  0  0  0  0  0  0  0
   22.2997  -18.2290  -14.8258 C   0  0  1  0  0  0  0  0  0  0  0  0
   22.6739  -17.5681  -16.1093 C   0  0  0  0  0  0  0  0  0  0  0  0
   21.6857  -16.6604  -16.7198 C   0  0  0  0  0  0  0  0  0  0  0  0
   22.0006  -15.9451  -17.9658 C   0  0  0  0  0  0  0  0  0  0  0  0
   20.9238  -15.0852  -18.5458 C   0  0  0  0  0  0  0  0  0  0  0  0
   21.3482  -14.4371  -19.7373 N   0  0  0  0  0  0  0  0  0  0  0  0
   21.0651  -18.9739  -14.7559 C   0  0  0  0  0  0  0  0  0  0  0  0
   19.8230  -18.5223  -14.3469 O   0  0  0  0  0  0  0  0  0  0  0  0
   21.0729  -20.2126  -15.1002 O   0  0  0  0  0  0  0  0  0  0  0  0
  2  1  1  0
  2  3  1  0
  3  4  1  1
  5  3  1  0
  5  6  1  6
  7  5  1  0
  8  7  2  0
 10  9  1  1
 10 12  1  0
 11 10  1  0
 12 13  1  1
 13  7  1  0
 14 12  1  0
 14 15  2  0
 16 14  1  0
 17 16  1  0
 17 18  1  6
 17 23  1  0
 19 18  1  0
 19 20  1  0
 21 20  1  0
 21 22  1  0
 23 25  2  0
 23 24  1  0
M  END
$$$$
