WTA.pdb
     RDKit          3D

 27 28  0  0  1  0  0  0  0  0999 V2000
    6.1754  -17.5138   24.6654 N   0  0  0  0  0  0  0  0  0  0  0  0
    6.8605  -16.4234   24.0428 C   0  0  1  0  0  0  0  0  0  0  0  0
    7.7248  -15.7190   25.0582 C   0  0  0  0  0  0  0  0  0  0  0  0
    6.9331  -14.7203   25.8139 C   0  0  0  0  0  0  0  0  0  0  0  0
    5.8220  -15.0534   26.5682 C   0  0  0  0  0  0  0  0  0  0  0  0
    5.3265  -13.9784   27.1644 N   0  0  0  0  0  0  0  0  0  0  0  0
    6.1014  -12.9281   26.8112 C   0  0  0  0  0  0  0  0  0  0  0  0
    6.0475  -11.5838   27.1299 C   0  0  0  0  0  0  0  0  0  0  0  0
    6.9665  -10.7097   26.6246 C   0  0  0  0  0  0  0  0  0  0  0  0
    7.9617  -11.1487   25.7900 C   0  0  0  0  0  0  0  0  0  0  0  0
    8.0430  -12.5024   25.4491 C   0  0  0  0  0  0  0  0  0  0  0  0
    7.1072  -13.3688   25.9702 C   0  0  0  0  0  0  0  0  0  0  0  0
    7.6299  -16.8392   22.8460 C   0  0  0  0  0  0  0  0  0  0  0  0
    7.9365  -18.0795   22.7777 O   0  0  0  0  0  0  0  0  0  0  0  0
    7.1854  -14.8258   19.6109 C   0  0  0  0  0  0  0  0  0  0  0  0
    8.5540  -15.4373   19.5120 C   0  0  1  0  0  0  0  0  0  0  0  0
    9.4567  -14.3724   19.7606 O   0  0  0  0  0  0  0  0  0  0  0  0
    8.7331  -16.4955   20.6063 C   0  0  2  0  0  0  0  0  0  0  0  0
    8.0303  -15.9808   21.8130 N   0  0  0  0  0  0  0  0  0  0  0  0
   10.1453  -16.7378   20.9404 C   0  0  0  0  0  0  0  0  0  0  0  0
   10.7071  -15.9970   21.8174 O   0  0  0  0  0  0  0  0  0  0  0  0
   12.9287  -19.2200   20.4454 C   0  0  0  0  0  0  0  0  0  0  0  0
   12.3652  -17.8874   20.8013 C   0  0  2  0  0  0  0  0  0  0  0  0
   10.9826  -17.7321   20.3850 N   0  0  0  0  0  0  0  0  0  0  0  0
   13.2219  -16.8215   20.1960 C   0  0  0  0  0  0  0  0  0  0  0  0
   14.4160  -16.7708   20.5738 O   0  0  0  0  0  0  0  0  0  0  0  0
   12.7925  -15.9079   19.2668 O   0  0  0  0  0  0  0  0  0  0  0  0
  2  3  1  0
  2  1  1  1
  2 13  1  0
  4  3  1  0
  4  5  2  0
  6  5  1  0
  7  6  1  0
  8  7  2  0
  9  8  1  0
 10  9  2  0
 10 11  1  0
 11 12  2  0
 12  7  1  0
 12  4  1  0
 13 19  1  0
 14 13  2  0
 16 17  1  0
 16 15  1  1
 18 16  1  0
 18 19  1  1
 20 21  2  0
 20 18  1  0
 23 24  1  0
 23 22  1  6
 24 20  1  0
 25 23  1  0
 26 25  2  0
 27 25  1  0
M  END
$$$$
