WTA.pdb
     RDKit          3D

 27 28  0  0  1  0  0  0  0  0999 V2000
    5.8593  -17.3850   24.1006 N   0  0  0  0  0  0  0  0  0  0  0  0
    6.7032  -16.3069   23.6863 C   0  0  1  0  0  0  0  0  0  0  0  0
    7.5976  -15.8931   24.8278 C   0  0  0  0  0  0  0  0  0  0  0  0
    6.9112  -14.9101   25.6983 C   0  0  0  0  0  0  0  0  0  0  0  0
    5.8434  -15.2413   26.5134 C   0  0  0  0  0  0  0  0  0  0  0  0
    5.4441  -14.1849   27.2074 N   0  0  0  0  0  0  0  0  0  0  0  0
    6.2402  -13.1491   26.8588 C   0  0  0  0  0  0  0  0  0  0  0  0
    6.2735  -11.8260   27.2589 C   0  0  0  0  0  0  0  0  0  0  0  0
    7.1936  -10.9626   26.7378 C   0  0  0  0  0  0  0  0  0  0  0  0
    8.1036  -11.3913   25.8062 C   0  0  0  0  0  0  0  0  0  0  0  0
    8.0956  -12.7235   25.3813 C   0  0  0  0  0  0  0  0  0  0  0  0
    7.1601  -13.5796   25.9199 C   0  0  0  0  0  0  0  0  0  0  0  0
    7.4724  -16.6212   22.4588 C   0  0  0  0  0  0  0  0  0  0  0  0
    7.7112  -17.8601   22.2466 O   0  0  0  0  0  0  0  0  0  0  0  0
    7.2994  -14.1593   19.4647 C   0  0  0  0  0  0  0  0  0  0  0  0
    8.6252  -14.8588   19.3651 C   0  0  1  0  0  0  0  0  0  0  0  0
    9.5782  -13.9191   19.8333 O   0  0  0  0  0  0  0  0  0  0  0  0
    8.6432  -16.0776   20.2942 C   0  0  2  0  0  0  0  0  0  0  0  0
    7.9406  -15.6706   21.5415 N   0  0  0  0  0  0  0  0  0  0  0  0
   10.0059  -16.5171   20.6329 C   0  0  0  0  0  0  0  0  0  0  0  0
   10.5740  -16.0235   21.6659 O   0  0  0  0  0  0  0  0  0  0  0  0
   12.7225  -18.9186   19.5695 C   0  0  0  0  0  0  0  0  0  0  0  0
   12.1633  -17.7410   20.2912 C   0  0  2  0  0  0  0  0  0  0  0  0
   10.7873  -17.4574   19.9233 N   0  0  0  0  0  0  0  0  0  0  0  0
   13.0350  -16.5541   20.0307 C   0  0  0  0  0  0  0  0  0  0  0  0
   12.6297  -15.7288   19.1787 O   0  0  0  0  0  0  0  0  0  0  0  0
   14.2327  -16.3123   20.6547 O   0  0  0  0  0  0  0  0  0  0  0  0
  2  3  1  0
  2  1  1  1
  2 13  1  0
  4  3  1  0
  4  5  2  0
  6  5  1  0
  7  6  1  0
  8  7  2  0
  9  8  1  0
 10  9  2  0
 10 11  1  0
 11 12  2  0
 12  7  1  0
 12  4  1  0
 13 19  1  0
 14 13  2  0
 16 17  1  0
 16 15  1  1
 18 16  1  0
 18 19  1  1
 20 21  2  0
 20 18  1  0
 23 24  1  0
 23 22  1  6
 24 20  1  0
 25 23  1  0
 26 25  2  0
 27 25  1  0
M  END
$$$$
