WTA.pdb
     RDKit          3D

 27 28  0  0  1  0  0  0  0  0999 V2000
    5.8574  -17.6760   24.3669 N   0  0  0  0  0  0  0  0  0  0  0  0
    6.7756  -16.6306   24.0352 C   0  0  1  0  0  0  0  0  0  0  0  0
    7.6607  -16.3356   25.2200 C   0  0  0  0  0  0  0  0  0  0  0  0
    7.0515  -15.2938   26.0796 C   0  0  0  0  0  0  0  0  0  0  0  0
    6.1700  -15.5839   27.1058 C   0  0  0  0  0  0  0  0  0  0  0  0
    5.8063  -14.4742   27.7329 N   0  0  0  0  0  0  0  0  0  0  0  0
    6.4406  -13.4438   27.1294 C   0  0  0  0  0  0  0  0  0  0  0  0
    6.4289  -12.0807   27.3608 C   0  0  0  0  0  0  0  0  0  0  0  0
    7.1703  -11.2353   26.5867 C   0  0  0  0  0  0  0  0  0  0  0  0
    7.9415  -11.7223   25.5630 C   0  0  0  0  0  0  0  0  0  0  0  0
    7.9745  -13.0960   25.3039 C   0  0  0  0  0  0  0  0  0  0  0  0
    7.2205  -13.9328   26.0971 C   0  0  0  0  0  0  0  0  0  0  0  0
    7.5589  -16.9237   22.8113 C   0  0  0  0  0  0  0  0  0  0  0  0
    7.8176  -18.1573   22.5913 O   0  0  0  0  0  0  0  0  0  0  0  0
    7.2711  -14.5064   19.8192 C   0  0  0  0  0  0  0  0  0  0  0  0
    8.6289  -15.1399   19.7092 C   0  0  1  0  0  0  0  0  0  0  0  0
    9.5395  -14.1490   20.1556 O   0  0  0  0  0  0  0  0  0  0  0  0
    8.7195  -16.3465   20.6500 C   0  0  2  0  0  0  0  0  0  0  0  0
    8.0202  -15.9590   21.9053 N   0  0  0  0  0  0  0  0  0  0  0  0
   10.1068  -16.7186   20.9689 C   0  0  0  0  0  0  0  0  0  0  0  0
   10.6653  -16.1964   21.9930 O   0  0  0  0  0  0  0  0  0  0  0  0
   12.7811  -19.2036   20.0343 C   0  0  0  0  0  0  0  0  0  0  0  0
   12.2505  -17.9860   20.7096 C   0  0  2  0  0  0  0  0  0  0  0  0
   10.9225  -17.6211   20.2489 N   0  0  0  0  0  0  0  0  0  0  0  0
   13.2104  -16.8584   20.5004 C   0  0  0  0  0  0  0  0  0  0  0  0
   12.8337  -15.9236   19.7551 O   0  0  0  0  0  0  0  0  0  0  0  0
   14.4593  -16.7810   21.0631 O   0  0  0  0  0  0  0  0  0  0  0  0
  2  3  1  0
  2  1  1  1
  2 13  1  0
  4  3  1  0
  4  5  2  0
  6  5  1  0
  7  6  1  0
  8  7  2  0
  9  8  1  0
 10  9  2  0
 10 11  1  0
 11 12  2  0
 12  7  1  0
 12  4  1  0
 13 19  1  0
 14 13  2  0
 16 17  1  0
 16 15  1  1
 18 16  1  0
 18 19  1  1
 20 21  2  0
 20 18  1  0
 23 24  1  0
 23 22  1  6
 24 20  1  0
 25 23  1  0
 26 25  2  0
 27 25  1  0
M  END
$$$$
