WTA.pdb
     RDKit          3D

 27 28  0  0  1  0  0  0  0  0999 V2000
    6.8556  -17.8936   24.9011 N   0  0  0  0  0  0  0  0  0  0  0  0
    6.2202  -17.2692   23.7820 C   0  0  1  0  0  0  0  0  0  0  0  0
    5.5318  -16.0038   24.2284 C   0  0  0  0  0  0  0  0  0  0  0  0
    6.2785  -15.3675   25.3387 C   0  0  0  0  0  0  0  0  0  0  0  0
    6.7610  -16.0749   26.4255 C   0  0  0  0  0  0  0  0  0  0  0  0
    7.4176  -15.2699   27.2487 N   0  0  0  0  0  0  0  0  0  0  0  0
    7.3753  -14.0275   26.7169 C   0  0  0  0  0  0  0  0  0  0  0  0
    7.8828  -12.8147   27.1451 C   0  0  0  0  0  0  0  0  0  0  0  0
    7.6914  -11.6800   26.4106 C   0  0  0  0  0  0  0  0  0  0  0  0
    6.9909  -11.7211   25.2327 C   0  0  0  0  0  0  0  0  0  0  0  0
    6.4651  -12.9325   24.7729 C   0  0  0  0  0  0  0  0  0  0  0  0
    6.6701  -14.0667   25.5276 C   0  0  0  0  0  0  0  0  0  0  0  0
    7.1521  -17.0307   22.6542 C   0  0  0  0  0  0  0  0  0  0  0  0
    6.6127  -16.8435   21.5092 O   0  0  0  0  0  0  0  0  0  0  0  0
    7.3893  -15.3253   20.9644 C   0  0  0  0  0  0  0  0  0  0  0  0
    8.8857  -15.2795   21.0899 C   0  0  1  0  0  0  0  0  0  0  0  0
    9.1471  -14.2880   22.0692 O   0  0  0  0  0  0  0  0  0  0  0  0
    9.4076  -16.6253   21.6054 C   0  0  2  0  0  0  0  0  0  0  0  0
    8.5491  -16.9981   22.7625 N   0  0  0  0  0  0  0  0  0  0  0  0
   10.8091  -16.5620   22.0486 C   0  0  0  0  0  0  0  0  0  0  0  0
   11.7093  -16.2364   21.2018 O   0  0  0  0  0  0  0  0  0  0  0  0
   13.0416  -16.3190   24.9895 C   0  0  0  0  0  0  0  0  0  0  0  0
   12.7143  -16.8689   23.6439 C   0  0  2  0  0  0  0  0  0  0  0  0
   11.2927  -16.8276   23.3501 N   0  0  0  0  0  0  0  0  0  0  0  0
   13.2318  -18.2691   23.5535 C   0  0  0  0  0  0  0  0  0  0  0  0
   12.4023  -19.1627   23.2624 O   0  0  0  0  0  0  0  0  0  0  0  0
   14.5371  -18.6348   23.7650 O   0  0  0  0  0  0  0  0  0  0  0  0
  2  3  1  0
  2  1  1  1
  2 13  1  0
  4  3  1  0
  4  5  2  0
  6  5  1  0
  7  6  1  0
  8  7  2  0
  9  8  1  0
 10  9  2  0
 10 11  1  0
 11 12  2  0
 12  7  1  0
 12  4  1  0
 13 19  1  0
 14 13  2  0
 16 17  1  0
 16 15  1  1
 18 16  1  0
 18 19  1  1
 20 21  2  0
 20 18  1  0
 23 24  1  0
 23 22  1  1
 24 20  1  0
 25 23  1  0
 26 25  2  0
 27 25  1  0
M  END
$$$$
