WTA.pdb
     RDKit          3D

 27 28  0  0  1  0  0  0  0  0999 V2000
    6.1673  -17.6329   24.5078 N   0  0  0  0  0  0  0  0  0  0  0  0
    7.1109  -16.6621   24.0460 C   0  0  1  0  0  0  0  0  0  0  0  0
    7.8034  -16.0246   25.2243 C   0  0  0  0  0  0  0  0  0  0  0  0
    6.9391  -14.9909   25.8405 C   0  0  0  0  0  0  0  0  0  0  0  0
    5.7674  -15.2908   26.5125 C   0  0  0  0  0  0  0  0  0  0  0  0
    5.2118  -14.1869   26.9918 N   0  0  0  0  0  0  0  0  0  0  0  0
    6.0070  -13.1507   26.6422 C   0  0  0  0  0  0  0  0  0  0  0  0
    5.9140  -11.7897   26.8676 C   0  0  0  0  0  0  0  0  0  0  0  0
    6.8677  -10.9370   26.3911 C   0  0  0  0  0  0  0  0  0  0  0  0
    7.9374  -11.4144   25.6786 C   0  0  0  0  0  0  0  0  0  0  0  0
    8.0597  -12.7857   25.4341 C   0  0  0  0  0  0  0  0  0  0  0  0
    7.0877  -13.6301   25.9244 C   0  0  0  0  0  0  0  0  0  0  0  0
    8.0736  -17.2203   23.0667 C   0  0  0  0  0  0  0  0  0  0  0  0
    8.4295  -18.4344   23.2574 O   0  0  0  0  0  0  0  0  0  0  0  0
    8.0492  -15.9649   19.3725 C   0  0  0  0  0  0  0  0  0  0  0  0
    9.4675  -16.3164   19.7217 C   0  0  1  0  0  0  0  0  0  0  0  0
   10.0980  -15.0792   20.0088 O   0  0  0  0  0  0  0  0  0  0  0  0
    9.4942  -17.1834   20.9853 C   0  0  2  0  0  0  0  0  0  0  0  0
    8.6026  -16.5191   21.9745 N   0  0  0  0  0  0  0  0  0  0  0  0
   10.8416  -17.3095   21.5627 C   0  0  0  0  0  0  0  0  0  0  0  0
   11.2564  -16.4036   22.3633 O   0  0  0  0  0  0  0  0  0  0  0  0
   13.8634  -19.5776   21.6430 C   0  0  0  0  0  0  0  0  0  0  0  0
   13.1328  -18.2894   21.8063 C   0  0  2  0  0  0  0  0  0  0  0  0
   11.7632  -18.3551   21.3275 N   0  0  0  0  0  0  0  0  0  0  0  0
   13.8884  -17.2103   21.0984 C   0  0  0  0  0  0  0  0  0  0  0  0
   13.4667  -16.8704   19.9680 O   0  0  0  0  0  0  0  0  0  0  0  0
   14.9978  -16.5765   21.5984 O   0  0  0  0  0  0  0  0  0  0  0  0
  2  3  1  0
  2  1  1  1
  2 13  1  0
  4  3  1  0
  4  5  2  0
  6  5  1  0
  7  6  1  0
  8  7  2  0
  9  8  1  0
 10  9  2  0
 10 11  1  0
 11 12  2  0
 12  7  1  0
 12  4  1  0
 13 19  1  0
 14 13  2  0
 16 17  1  0
 16 15  1  1
 18 16  1  0
 18 19  1  1
 20 21  2  0
 20 18  1  0
 23 24  1  0
 23 22  1  6
 24 20  1  0
 25 23  1  0
 26 25  2  0
 27 25  1  0
M  END
$$$$
