RSV.pdb
     RDKit          3D

 25 24  0  0  1  0  0  0  0  0999 V2000
   21.5246  -23.3784  -17.7198 N   0  0  0  0  0  0  0  0  0  0  0  0
   21.8019  -24.1524  -16.5438 C   0  0  0  0  0  0  0  0  0  0  0  0
   20.9671  -24.1947  -15.5664 N   0  0  0  0  0  0  0  0  0  0  0  0
   23.0086  -24.8908  -16.4352 N   0  0  0  0  0  0  0  0  0  0  0  0
   23.6552  -25.4048  -17.6165 C   0  0  0  0  0  0  0  0  0  0  0  0
   24.3951  -26.6722  -17.1664 C   0  0  0  0  0  0  0  0  0  0  0  0
   25.6592  -26.2809  -16.4397 C   0  0  0  0  0  0  0  0  0  0  0  0
   26.4946  -25.3121  -17.2085 C   0  0  2  0  0  0  0  0  0  0  0  0
   27.6451  -25.9368  -17.8269 N   0  0  0  0  0  0  0  0  0  0  0  0
   26.9321  -24.2452  -16.2403 C   0  0  0  0  0  0  0  0  0  0  0  0
   28.1185  -24.2532  -15.8137 O   0  0  0  0  0  0  0  0  0  0  0  0
   21.1499  -24.7896  -14.7549 O   0  0  0  0  0  0  0  0  0  0  0  0
   25.5309  -20.3034  -15.9912 C   0  0  0  0  0  0  0  0  0  0  0  0
   26.7514  -20.8784  -15.6436 C   0  0  1  0  0  0  0  0  0  0  0  0
   26.5315  -22.1844  -14.9091 N   0  0  0  0  0  0  0  0  0  0  0  0
   26.0714  -23.2287  -15.7833 C   0  0  0  0  0  0  0  0  0  0  0  0
   25.5886  -22.0335  -13.7915 O   0  0  0  0  0  0  0  0  0  0  0  0
   24.3791  -22.3171  -13.9776 C   0  0  0  0  0  0  0  0  0  0  0  0
   24.6107  -20.8944   -9.1225 C   0  0  1  0  0  0  0  0  0  0  0  0
   25.6590  -20.9919  -10.2250 C   0  0  0  0  0  0  0  0  0  0  0  0
   26.4485  -19.7252  -10.3257 C   0  0  2  0  0  0  0  0  0  0  0  0
   24.9488  -21.3093  -11.5270 N   0  0  0  0  0  0  0  0  0  0  0  0
   25.9696  -21.5809  -12.5011 C   0  0  0  0  0  0  0  0  0  0  0  0
   24.0310  -20.2362  -11.9322 O   0  0  0  0  0  0  0  0  0  0  0  0
   24.4180  -19.3277  -12.6993 O   0  0  0  0  0  0  0  0  0  0  0  0
  1  2  1  0
  2  3  2  0
  4  2  1  0
  4  5  1  0
  6  5  1  0
  6  7  1  0
  7  8  1  0
  8 10  1  0
  8  9  1  1
 10 11  2  0
 13 12  1  0
 14 13  1  6
 14 16  1  0
 15 10  1  0
 15 14  1  0
 16 22  1  0
 16 17  2  0
 19 18  1  1
 19 21  1  0
 20 19  1  0
 21 23  1  0
 21 22  1  6
 23 24  2  0
 23 25  1  0
M  END
$$$$
