RSV.pdb
     RDKit          3D

 25 24  0  0  1  0  0  0  0  0999 V2000
   22.5111  -22.8623  -16.1979 N   0  0  0  0  0  0  0  0  0  0  0  0
   21.8979  -21.5797  -16.3921 C   0  0  0  0  0  0  0  0  0  0  0  0
   22.0302  -20.9433  -17.5019 N   0  0  0  0  0  0  0  0  0  0  0  0
   21.1291  -20.9848  -15.3587 N   0  0  0  0  0  0  0  0  0  0  0  0
   20.9477  -21.6678  -14.1024 C   0  0  0  0  0  0  0  0  0  0  0  0
   21.8805  -20.9625  -13.1080 C   0  0  0  0  0  0  0  0  0  0  0  0
   22.7011  -21.9957  -12.3742 C   0  0  0  0  0  0  0  0  0  0  0  0
   23.5340  -21.4081  -11.2840 C   0  0  2  0  0  0  0  0  0  0  0  0
   22.7504  -20.6496  -10.3316 N   0  0  0  0  0  0  0  0  0  0  0  0
   24.5599  -20.5248  -11.9432 C   0  0  0  0  0  0  0  0  0  0  0  0
   24.4006  -19.2744  -11.9169 O   0  0  0  0  0  0  0  0  0  0  0  0
   21.5904  -20.0290  -17.6299 O   0  0  0  0  0  0  0  0  0  0  0  0
   27.8053  -21.9480  -14.2684 C   0  0  0  0  0  0  0  0  0  0  0  0
   28.0285  -20.9232  -13.3513 C   0  0  1  0  0  0  0  0  0  0  0  0
   26.7441  -20.1698  -13.0759 N   0  0  0  0  0  0  0  0  0  0  0  0
   25.7002  -21.0331  -12.5947 C   0  0  0  0  0  0  0  0  0  0  0  0
   26.2683  -19.4440  -14.2624 O   0  0  0  0  0  0  0  0  0  0  0  0
   25.2700  -19.8871  -14.8829 C   0  0  0  0  0  0  0  0  0  0  0  0
   25.7406  -15.6828  -14.6121 C   0  0  1  0  0  0  0  0  0  0  0  0
   26.5627  -16.1578  -15.8048 C   0  0  0  0  0  0  0  0  0  0  0  0
   26.1687  -15.4287  -17.0503 C   0  0  2  0  0  0  0  0  0  0  0  0
   26.3645  -17.6544  -15.9505 N   0  0  0  0  0  0  0  0  0  0  0  0
   26.8781  -18.2596  -14.7527 C   0  0  0  0  0  0  0  0  0  0  0  0
   26.9831  -18.1775  -17.1759 O   0  0  0  0  0  0  0  0  0  0  0  0
   28.2037  -18.4475  -17.2039 O   0  0  0  0  0  0  0  0  0  0  0  0
  1  2  1  0
  2  3  2  0
  4  2  1  0
  4  5  1  0
  6  5  1  0
  6  7  1  0
  7  8  1  0
  8 10  1  0
  8  9  1  1
 10 11  2  0
 13 12  1  0
 14 13  1  1
 14 16  1  0
 15 10  1  0
 15 14  1  0
 16 22  1  0
 16 17  2  0
 19 18  1  1
 19 21  1  0
 20 19  1  0
 21 23  1  0
 21 22  1  6
 23 24  2  0
 23 25  1  0
M  END
$$$$
