RSV.pdb
     RDKit          3D

 25 24  0  0  1  0  0  0  0  0999 V2000
   20.9945  -31.8244   -9.4657 N   0  0  0  0  0  0  0  0  0  0  0  0
   20.6804  -33.0845  -10.0758 C   0  0  0  0  0  0  0  0  0  0  0  0
   19.9301  -33.1470  -11.1186 N   0  0  0  0  0  0  0  0  0  0  0  0
   21.1941  -34.2930   -9.5386 N   0  0  0  0  0  0  0  0  0  0  0  0
   22.0816  -34.2645   -8.4032 C   0  0  0  0  0  0  0  0  0  0  0  0
   23.4706  -33.9396   -8.9701 C   0  0  0  0  0  0  0  0  0  0  0  0
   24.4830  -33.9544   -7.8503 C   0  0  0  0  0  0  0  0  0  0  0  0
   24.4647  -32.7047   -7.0345 C   0  0  2  0  0  0  0  0  0  0  0  0
   25.1413  -31.6035   -7.6871 N   0  0  0  0  0  0  0  0  0  0  0  0
   25.1293  -33.0275   -5.7226 C   0  0  0  0  0  0  0  0  0  0  0  0
   26.3402  -33.3786   -5.7184 O   0  0  0  0  0  0  0  0  0  0  0  0
   19.6783  -34.0526  -11.5215 O   0  0  0  0  0  0  0  0  0  0  0  0
   22.9733  -32.9153   -2.2608 C   0  0  0  0  0  0  0  0  0  0  0  0
   24.3357  -32.7125   -2.0519 C   0  0  1  0  0  0  0  0  0  0  0  0
   25.1328  -33.2020   -3.2429 N   0  0  0  0  0  0  0  0  0  0  0  0
   24.4569  -32.9556   -4.4874 C   0  0  0  0  0  0  0  0  0  0  0  0
   25.4544  -34.6324   -3.1375 O   0  0  0  0  0  0  0  0  0  0  0  0
   24.7643  -35.4573   -3.7866 C   0  0  0  0  0  0  0  0  0  0  0  0
   28.9991  -36.0123   -2.7883 C   0  0  1  0  0  0  0  0  0  0  0  0
   28.1171  -36.8116   -1.8358 C   0  0  0  0  0  0  0  0  0  0  0  0
   28.4555  -38.2679   -1.8886 C   0  0  2  0  0  0  0  0  0  0  0  0
   26.6687  -36.5635   -2.2111 N   0  0  0  0  0  0  0  0  0  0  0  0
   26.5102  -35.1408   -2.3364 C   0  0  0  0  0  0  0  0  0  0  0  0
   25.7369  -37.1685   -1.2500 O   0  0  0  0  0  0  0  0  0  0  0  0
   25.3642  -36.5304   -0.2413 O   0  0  0  0  0  0  0  0  0  0  0  0
  1  2  1  0
  2  3  2  0
  4  2  1  0
  4  5  1  0
  6  5  1  0
  6  7  1  0
  7  8  1  0
  8 10  1  0
  8  9  1  6
 10 11  2  0
 13 12  1  0
 14 13  1  6
 14 16  1  0
 15 10  1  0
 15 14  1  0
 16 22  1  0
 16 17  2  0
 19 18  1  1
 19 21  1  0
 20 19  1  0
 21 23  1  0
 21 22  1  6
 23 24  2  0
 23 25  1  0
M  END
$$$$
