RSV.pdb
     RDKit          3D

 25 24  0  0  1  0  0  0  0  0999 V2000
   19.3308  -24.7126   -7.7314 N   0  0  0  0  0  0  0  0  0  0  0  0
   18.5333  -24.2535   -8.8323 C   0  0  0  0  0  0  0  0  0  0  0  0
   17.7124  -25.0426   -9.4302 N   0  0  0  0  0  0  0  0  0  0  0  0
   18.6343  -22.9128   -9.2854 N   0  0  0  0  0  0  0  0  0  0  0  0
   19.8696  -22.4261   -9.8464 C   0  0  0  0  0  0  0  0  0  0  0  0
   19.9367  -23.0044  -11.2667 C   0  0  0  0  0  0  0  0  0  0  0  0
   21.0213  -22.2973  -12.0431 C   0  0  0  0  0  0  0  0  0  0  0  0
   21.0141  -20.8192  -11.8358 C   0  0  2  0  0  0  0  0  0  0  0  0
   20.0185  -20.1482  -12.6450 N   0  0  0  0  0  0  0  0  0  0  0  0
   22.3933  -20.3215  -12.1783 C   0  0  0  0  0  0  0  0  0  0  0  0
   22.5173  -19.3825  -13.0106 O   0  0  0  0  0  0  0  0  0  0  0  0
   17.1168  -24.6947  -10.1852 O   0  0  0  0  0  0  0  0  0  0  0  0
   25.9514  -22.1382  -10.8086 C   0  0  0  0  0  0  0  0  0  0  0  0
   25.8935  -20.7471  -10.8584 C   0  0  1  0  0  0  0  0  0  0  0  0
   24.8596  -20.2959  -11.8689 N   0  0  0  0  0  0  0  0  0  0  0  0
   23.5632  -20.8596  -11.6085 C   0  0  0  0  0  0  0  0  0  0  0  0
   25.2625  -20.6152  -13.2461 O   0  0  0  0  0  0  0  0  0  0  0  0
   24.8098  -21.6568  -13.7829 C   0  0  0  0  0  0  0  0  0  0  0  0
   28.2259  -18.4657  -15.3767 C   0  0  1  0  0  0  0  0  0  0  0  0
   26.9828  -19.0011  -16.0782 C   0  0  0  0  0  0  0  0  0  0  0  0
   25.9127  -17.9576  -16.1404 C   0  0  1  0  0  0  0  0  0  0  0  0
   26.5130  -20.2354  -15.3326 N   0  0  0  0  0  0  0  0  0  0  0  0
   26.1424  -19.8067  -14.0121 C   0  0  0  0  0  0  0  0  0  0  0  0
   27.5244  -21.3009  -15.3341 O   0  0  0  0  0  0  0  0  0  0  0  0
   28.2315  -21.5045  -14.3232 O   0  0  0  0  0  0  0  0  0  0  0  0
  1  2  1  0
  2  3  2  0
  4  2  1  0
  4  5  1  0
  6  5  1  0
  6  7  1  0
  7  8  1  0
  8 10  1  0
  8  9  1  6
 10 11  2  0
 13 12  1  0
 14 13  1  1
 14 16  1  0
 15 10  1  0
 15 14  1  0
 16 22  1  0
 16 17  2  0
 19 18  1  6
 19 21  1  0
 20 19  1  0
 21 23  1  0
 21 22  1  1
 23 24  2  0
 23 25  1  0
M  END
$$$$
