RSV.pdb
     RDKit          3D

 25 24  0  0  1  0  0  0  0  0999 V2000
   15.3996  -21.3895    1.2728 N   0  0  0  0  0  0  0  0  0  0  0  0
   16.2535  -21.9268    2.2931 C   0  0  0  0  0  0  0  0  0  0  0  0
   16.1704  -23.1612    2.6442 N   0  0  0  0  0  0  0  0  0  0  0  0
   17.2117  -21.1030    2.9381 N   0  0  0  0  0  0  0  0  0  0  0  0
   17.3409  -19.7147    2.5724 C   0  0  0  0  0  0  0  0  0  0  0  0
   16.1002  -19.0170    3.1470 C   0  0  0  0  0  0  0  0  0  0  0  0
   16.5303  -17.8058    3.9390 C   0  0  0  0  0  0  0  0  0  0  0  0
   15.3846  -17.0908    4.5743 C   0  0  2  0  0  0  0  0  0  0  0  0
   14.3825  -16.6801    3.6133 N   0  0  0  0  0  0  0  0  0  0  0  0
   15.9551  -15.8919    5.2845 C   0  0  0  0  0  0  0  0  0  0  0  0
   16.1274  -14.8219    4.6402 O   0  0  0  0  0  0  0  0  0  0  0  0
   16.7245  -23.5150    3.4276 O   0  0  0  0  0  0  0  0  0  0  0  0
   16.8194  -15.9029    9.4279 C   0  0  0  0  0  0  0  0  0  0  0  0
   16.1381  -14.8368    8.8445 C   0  0  1  0  0  0  0  0  0  0  0  0
   16.5248  -14.6948    7.3873 N   0  0  0  0  0  0  0  0  0  0  0  0
   16.3095  -15.9082    6.6472 C   0  0  0  0  0  0  0  0  0  0  0  0
   17.9229  -14.2691    7.2295 O   0  0  0  0  0  0  0  0  0  0  0  0
   18.7856  -15.1277    6.9188 C   0  0  0  0  0  0  0  0  0  0  0  0
   19.0713  -11.3446    5.2425 C   0  0  1  0  0  0  0  0  0  0  0  0
   19.8179  -11.2604    6.5690 C   0  0  0  0  0  0  0  0  0  0  0  0
   21.2324  -10.8208    6.3595 C   0  0  2  0  0  0  0  0  0  0  0  0
   19.7515  -12.6205    7.2369 N   0  0  0  0  0  0  0  0  0  0  0  0
   18.3591  -12.9304    7.4099 C   0  0  0  0  0  0  0  0  0  0  0  0
   20.5145  -12.6583    8.4916 O   0  0  0  0  0  0  0  0  0  0  0  0
   19.9423  -12.4677    9.5870 O   0  0  0  0  0  0  0  0  0  0  0  0
  1  2  1  0
  2  3  2  0
  4  2  1  0
  4  5  1  0
  6  5  1  0
  6  7  1  0
  7  8  1  0
  8 10  1  0
  8  9  1  6
 10 11  2  0
 13 12  1  0
 14 13  1  6
 14 16  1  0
 15 10  1  0
 15 14  1  0
 16 22  1  0
 16 17  2  0
 19 18  1  1
 19 21  1  0
 20 19  1  0
 21 23  1  0
 21 22  1  6
 23 24  2  0
 23 25  1  0
M  END
$$$$
