RSV.pdb
     RDKit          3D

 25 24  0  0  1  0  0  0  0  0999 V2000
   26.0973  -23.1195  -16.7365 N   0  0  0  0  0  0  0  0  0  0  0  0
   27.4635  -23.4911  -16.5039 C   0  0  0  0  0  0  0  0  0  0  0  0
   27.8910  -24.6662  -16.8047 N   0  0  0  0  0  0  0  0  0  0  0  0
   28.3752  -22.5648  -15.9349 N   0  0  0  0  0  0  0  0  0  0  0  0
   28.1807  -22.0866  -14.5890 C   0  0  0  0  0  0  0  0  0  0  0  0
   27.9048  -20.5822  -14.7190 C   0  0  0  0  0  0  0  0  0  0  0  0
   27.5341  -20.0238  -13.3662 C   0  0  0  0  0  0  0  0  0  0  0  0
   26.3026  -20.6471  -12.7985 C   0  0  2  0  0  0  0  0  0  0  0  0
   25.1255  -20.3850  -13.5999 N   0  0  0  0  0  0  0  0  0  0  0  0
   26.1288  -20.0901  -11.4105 C   0  0  0  0  0  0  0  0  0  0  0  0
   26.2021  -18.8436  -11.2362 O   0  0  0  0  0  0  0  0  0  0  0  0
   28.8473  -24.9443  -16.5725 O   0  0  0  0  0  0  0  0  0  0  0  0
   23.2305  -20.5498   -9.1011 C   0  0  0  0  0  0  0  0  0  0  0  0
   24.3568  -20.9240   -8.3714 C   0  0  2  0  0  0  0  0  0  0  0  0
   25.6085  -20.3402   -8.9926 N   0  0  0  0  0  0  0  0  0  0  0  0
   25.8862  -20.9024  -10.2860 C   0  0  0  0  0  0  0  0  0  0  0  0
   26.7826  -20.5102   -8.1246 O   0  0  0  0  0  0  0  0  0  0  0  0
   27.5263  -21.5071   -8.3012 C   0  0  0  0  0  0  0  0  0  0  0  0
   29.7033  -18.5778   -6.4775 C   0  0  1  0  0  0  0  0  0  0  0  0
   28.6729  -18.9424   -5.4148 C   0  0  0  0  0  0  0  0  0  0  0  0
   29.3389  -19.2917   -4.1216 C   0  0  2  0  0  0  0  0  0  0  0  0
   27.8389  -20.0952   -5.9397 N   0  0  0  0  0  0  0  0  0  0  0  0
   27.1280  -19.6042   -7.0880 C   0  0  0  0  0  0  0  0  0  0  0  0
   26.9567  -20.6550   -4.9070 O   0  0  0  0  0  0  0  0  0  0  0  0
   25.7539  -20.3179   -4.8507 O   0  0  0  0  0  0  0  0  0  0  0  0
  1  2  1  0
  2  3  2  0
  4  2  1  0
  4  5  1  0
  6  5  1  0
  6  7  1  0
  7  8  1  0
  8 10  1  0
  8  9  1  6
 10 11  2  0
 13 12  1  0
 14 13  1  6
 14 16  1  0
 15 10  1  0
 15 14  1  0
 16 22  1  0
 16 17  2  0
 19 18  1  1
 19 21  1  0
 20 19  1  0
 21 23  1  0
 21 22  1  6
 23 24  2  0
 23 25  1  0
M  END
$$$$
