RSV.pdb
     RDKit          3D

 25 24  0  0  1  0  0  0  0  0999 V2000
   21.5895  -20.8477   -7.9778 N   0  0  0  0  0  0  0  0  0  0  0  0
   20.5446  -20.6179   -8.9339 C   0  0  0  0  0  0  0  0  0  0  0  0
   19.3739  -20.2404   -8.5581 N   0  0  0  0  0  0  0  0  0  0  0  0
   20.7830  -20.8029  -10.3202 N   0  0  0  0  0  0  0  0  0  0  0  0
   22.0108  -21.4078  -10.7723 C   0  0  0  0  0  0  0  0  0  0  0  0
   22.9787  -20.2435  -11.0251 C   0  0  0  0  0  0  0  0  0  0  0  0
   23.8812  -20.5872  -12.1854 C   0  0  0  0  0  0  0  0  0  0  0  0
   25.2437  -21.0170  -11.7537 C   0  0  2  0  0  0  0  0  0  0  0  0
   25.4936  -20.7512  -10.3525 N   0  0  0  0  0  0  0  0  0  0  0  0
   26.2312  -20.2745  -12.6144 C   0  0  0  0  0  0  0  0  0  0  0  0
   26.4968  -19.0718  -12.3451 O   0  0  0  0  0  0  0  0  0  0  0  0
   18.6432  -20.0550   -9.2491 O   0  0  0  0  0  0  0  0  0  0  0  0
   27.8522  -21.9165  -16.1525 C   0  0  0  0  0  0  0  0  0  0  0  0
   28.6014  -20.9701  -15.4567 C   0  0  1  0  0  0  0  0  0  0  0  0
   27.6977  -20.0951  -14.6135 N   0  0  0  0  0  0  0  0  0  0  0  0
   26.8788  -20.8644  -13.7169 C   0  0  0  0  0  0  0  0  0  0  0  0
   26.8396  -19.2345  -15.4405 O   0  0  0  0  0  0  0  0  0  0  0  0
   25.6474  -19.5780  -15.6367 C   0  0  0  0  0  0  0  0  0  0  0  0
   27.8201  -15.3665  -16.5305 C   0  0  1  0  0  0  0  0  0  0  0  0
   26.3890  -15.8915  -16.5536 C   0  0  0  0  0  0  0  0  0  0  0  0
   25.7343  -15.7184  -15.2197 C   0  0  1  0  0  0  0  0  0  0  0  0
   26.4262  -17.3496  -16.9696 N   0  0  0  0  0  0  0  0  0  0  0  0
   27.2849  -18.0256  -16.0365 C   0  0  0  0  0  0  0  0  0  0  0  0
   26.8445  -17.5153  -18.3680 O   0  0  0  0  0  0  0  0  0  0  0  0
   26.0745  -17.1994  -19.3012 O   0  0  0  0  0  0  0  0  0  0  0  0
  1  2  1  0
  2  3  2  0
  4  2  1  0
  4  5  1  0
  6  5  1  0
  6  7  1  0
  7  8  1  0
  8 10  1  0
  8  9  1  1
 10 11  2  0
 13 12  1  0
 14 13  1  1
 14 16  1  0
 15 10  1  0
 15 14  1  0
 16 22  1  0
 16 17  2  0
 19 18  1  6
 19 21  1  0
 20 19  1  0
 21 23  1  0
 21 22  1  1
 23 24  2  0
 23 25  1  0
M  END
$$$$
