RSV.pdb
     RDKit          3D

 25 24  0  0  1  0  0  0  0  0999 V2000
   16.3166  -18.4922  -16.7609 N   0  0  0  0  0  0  0  0  0  0  0  0
   15.4769  -17.6940  -15.9144 C   0  0  0  0  0  0  0  0  0  0  0  0
   14.7254  -18.2381  -15.0237 N   0  0  0  0  0  0  0  0  0  0  0  0
   15.4588  -16.2812  -16.0433 N   0  0  0  0  0  0  0  0  0  0  0  0
   15.9279  -15.6556  -17.2542 C   0  0  0  0  0  0  0  0  0  0  0  0
   17.4338  -15.4373  -17.0521 C   0  0  0  0  0  0  0  0  0  0  0  0
   17.7532  -13.9716  -17.2224 C   0  0  0  0  0  0  0  0  0  0  0  0
   18.4394  -13.6732  -18.5138 C   0  0  2  0  0  0  0  0  0  0  0  0
   19.1738  -14.8093  -19.0297 N   0  0  0  0  0  0  0  0  0  0  0  0
   19.3696  -12.5169  -18.2593 C   0  0  0  0  0  0  0  0  0  0  0  0
   20.5117  -12.7434  -17.7755 O   0  0  0  0  0  0  0  0  0  0  0  0
   14.1494  -17.6590  -14.4084 O   0  0  0  0  0  0  0  0  0  0  0  0
   18.2423   -8.4236  -18.2516 C   0  0  0  0  0  0  0  0  0  0  0  0
   19.4292   -8.7892  -18.8832 C   0  0  1  0  0  0  0  0  0  0  0  0
   19.9444  -10.0993  -18.3249 N   0  0  0  0  0  0  0  0  0  0  0  0
   19.0221  -11.1810  -18.5381 C   0  0  0  0  0  0  0  0  0  0  0  0
   20.2568  -10.0002  -16.8919 O   0  0  0  0  0  0  0  0  0  0  0  0
   19.3831  -10.3430  -16.0570 C   0  0  0  0  0  0  0  0  0  0  0  0
   23.2879  -10.3792  -13.2545 C   0  0  1  0  0  0  0  0  0  0  0  0
   23.0778  -10.2121  -14.7552 C   0  0  0  0  0  0  0  0  0  0  0  0
   24.1882   -9.4166  -15.3653 C   0  0  2  0  0  0  0  0  0  0  0  0
   21.7323   -9.5471  -14.9738 N   0  0  0  0  0  0  0  0  0  0  0  0
   21.5010   -9.5346  -16.3919 C   0  0  0  0  0  0  0  0  0  0  0  0
   21.6696   -8.2121  -14.3640 O   0  0  0  0  0  0  0  0  0  0  0  0
   21.5688   -8.0861  -13.1240 O   0  0  0  0  0  0  0  0  0  0  0  0
  1  2  1  0
  2  3  2  0
  4  2  1  0
  4  5  1  0
  6  5  1  0
  6  7  1  0
  7  8  1  0
  8 10  1  0
  8  9  1  1
 10 11  2  0
 13 12  1  0
 14 13  1  6
 14 16  1  0
 15 10  1  0
 15 14  1  0
 16 22  1  0
 16 17  2  0
 19 18  1  6
 19 21  1  0
 20 19  1  0
 21 23  1  0
 21 22  1  1
 23 24  2  0
 23 25  1  0
M  END
$$$$
