ILN.pdb
     RDKit          3D

 25 24  0  0  1  0  0  0  0  0999 V2000
   16.4383  -12.1318  -21.0695 C   0  0  0  0  0  0  0  0  0  0  0  0
   17.6465  -12.5262  -20.2531 C   0  0  0  0  0  0  0  0  0  0  0  0
   17.9434  -11.5318  -19.1670 C   0  0  2  0  0  0  0  0  0  0  0  0
   18.0266  -10.1598  -19.7804 C   0  0  0  0  0  0  0  0  0  0  0  0
   19.1086  -11.8726  -18.3069 C   0  0  2  0  0  0  0  0  0  0  0  0
   19.0005  -13.2195  -17.8331 N   0  0  0  0  0  0  0  0  0  0  0  0
   19.3682  -10.9127  -17.2017 C   0  0  0  0  0  0  0  0  0  0  0  0
   18.6689  -11.0155  -16.1676 O   0  0  0  0  0  0  0  0  0  0  0  0
   21.6502   -9.4106  -13.2871 C   0  0  0  0  0  0  0  0  0  0  0  0
   22.2937  -10.0939  -14.5186 C   0  0  2  0  0  0  0  0  0  0  0  0
   23.6949  -10.3759  -14.1492 C   0  0  0  0  0  0  0  0  0  0  0  0
   22.0688   -9.2696  -15.7135 C   0  0  0  0  0  0  0  0  0  0  0  0
   20.6939   -8.9909  -16.1709 C   0  0  2  0  0  0  0  0  0  0  0  0
   20.3593   -9.9075  -17.2786 N   0  0  0  0  0  0  0  0  0  0  0  0
   20.4339   -7.6235  -16.6693 C   0  0  0  0  0  0  0  0  0  0  0  0
   21.0268   -7.1945  -17.7271 O   0  0  0  0  0  0  0  0  0  0  0  0
   16.1471   -3.4518  -17.6665 N   0  0  0  0  0  0  0  0  0  0  0  0
   17.5185   -3.8369  -17.5204 C   0  0  0  0  0  0  0  0  0  0  0  0
   18.3588   -3.0315  -17.9692 O   0  0  0  0  0  0  0  0  0  0  0  0
   17.8786   -5.1055  -16.8787 C   0  0  0  0  0  0  0  0  0  0  0  0
   19.3302   -5.3463  -16.6523 C   0  0  2  0  0  0  0  0  0  0  0  0
   19.5600   -6.6825  -16.0897 N   0  0  0  0  0  0  0  0  0  0  0  0
   19.8544   -4.3504  -15.6641 C   0  0  0  0  0  0  0  0  0  0  0  0
   19.6945   -4.5504  -14.4074 O   0  0  0  0  0  0  0  0  0  0  0  0
   20.5205   -3.1911  -15.9787 O   0  0  0  0  0  0  0  0  0  0  0  0
  2  1  1  0
  2  3  1  0
  3  5  1  0
  3  4  1  6
  5  7  1  0
  5  6  1  1
  7  8  2  0
 10  9  1  1
 10 12  1  0
 11 10  1  0
 13 12  1  6
 14  7  1  0
 14 13  1  0
 15 16  2  0
 15 13  1  0
 17 18  1  0
 18 19  2  0
 18 20  1  0
 21 20  1  1
 21 22  1  0
 22 15  1  0
 23 25  1  0
 23 21  1  0
 24 23  2  0
M  END
$$$$
