ILN.pdb
     RDKit          3D

 25 24  0  0  1  0  0  0  0  0999 V2000
   19.8667  -13.0410  -21.3695 C   0  0  0  0  0  0  0  0  0  0  0  0
   21.1666  -13.4213  -20.7006 C   0  0  0  0  0  0  0  0  0  0  0  0
   21.5463  -12.4559  -19.6140 C   0  0  2  0  0  0  0  0  0  0  0  0
   21.4972  -11.0591  -20.1726 C   0  0  0  0  0  0  0  0  0  0  0  0
   22.8184  -12.7729  -18.9106 C   0  0  2  0  0  0  0  0  0  0  0  0
   22.8248  -14.1402  -18.4854 N   0  0  0  0  0  0  0  0  0  0  0  0
   23.1655  -11.8438  -17.8032 C   0  0  0  0  0  0  0  0  0  0  0  0
   22.5497  -11.9757  -16.7204 O   0  0  0  0  0  0  0  0  0  0  0  0
   26.6431  -11.1541  -15.0643 C   0  0  0  0  0  0  0  0  0  0  0  0
   26.8725  -10.7196  -16.5327 C   0  0  2  0  0  0  0  0  0  0  0  0
   28.3159  -10.4367  -16.6589 C   0  0  0  0  0  0  0  0  0  0  0  0
   25.9445   -9.6341  -16.8765 C   0  0  0  0  0  0  0  0  0  0  0  0
   24.4887   -9.8744  -16.8628 C   0  0  2  0  0  0  0  0  0  0  0  0
   24.1487  -10.8359  -17.9300 N   0  0  0  0  0  0  0  0  0  0  0  0
   23.6276   -8.6921  -17.0781 C   0  0  0  0  0  0  0  0  0  0  0  0
   23.6045   -8.1055  -18.2226 O   0  0  0  0  0  0  0  0  0  0  0  0
   19.9367   -5.0564  -17.3020 N   0  0  0  0  0  0  0  0  0  0  0  0
   19.9120   -6.3659  -17.8808 C   0  0  0  0  0  0  0  0  0  0  0  0
   18.9916   -6.5820  -18.6946 O   0  0  0  0  0  0  0  0  0  0  0  0
   20.9205   -7.3670  -17.5180 C   0  0  0  0  0  0  0  0  0  0  0  0
   21.8682   -6.9914  -16.4329 C   0  0  2  0  0  0  0  0  0  0  0  0
   22.7780   -8.1006  -16.1223 N   0  0  0  0  0  0  0  0  0  0  0  0
   21.1015   -6.6808  -15.1844 C   0  0  0  0  0  0  0  0  0  0  0  0
   21.1852   -7.4618  -14.1706 O   0  0  0  0  0  0  0  0  0  0  0  0
   20.2801   -5.5948  -15.0036 O   0  0  0  0  0  0  0  0  0  0  0  0
  2  1  1  0
  2  3  1  0
  3  5  1  0
  3  4  1  6
  5  7  1  0
  5  6  1  1
  7  8  2  0
 10  9  1  1
 10 12  1  0
 11 10  1  0
 13 12  1  6
 14  7  1  0
 14 13  1  0
 15 16  2  0
 15 13  1  0
 17 18  1  0
 18 19  2  0
 18 20  1  0
 21 20  1  6
 21 22  1  0
 22 15  1  0
 23 25  1  0
 23 21  1  0
 24 23  2  0
M  END
$$$$
