ILN.pdb
     RDKit          3D

 25 24  0  0  1  0  0  0  0  0999 V2000
   21.2787  -20.4393  -18.3181 C   0  0  0  0  0  0  0  0  0  0  0  0
   22.5443  -20.0607  -17.5856 C   0  0  0  0  0  0  0  0  0  0  0  0
   22.6192  -18.5853  -17.3129 C   0  0  2  0  0  0  0  0  0  0  0  0
   22.3577  -17.8448  -18.5970 C   0  0  0  0  0  0  0  0  0  0  0  0
   23.8514  -18.1402  -16.6077 C   0  0  2  0  0  0  0  0  0  0  0  0
   24.0707  -18.9366  -15.4381 N   0  0  0  0  0  0  0  0  0  0  0  0
   23.9062  -16.6849  -16.3088 C   0  0  0  0  0  0  0  0  0  0  0  0
   23.1868  -16.2564  -15.3773 O   0  0  0  0  0  0  0  0  0  0  0  0
   27.1306  -14.0287  -14.8021 C   0  0  0  0  0  0  0  0  0  0  0  0
   27.3108  -14.3679  -16.3021 C   0  0  2  0  0  0  0  0  0  0  0  0
   28.6465  -13.8666  -16.6814 C   0  0  0  0  0  0  0  0  0  0  0  0
   26.1629  -13.8586  -17.0642 C   0  0  0  0  0  0  0  0  0  0  0  0
   24.8012  -14.3374  -16.7576 C   0  0  2  0  0  0  0  0  0  0  0  0
   24.7277  -15.7868  -17.0278 N   0  0  0  0  0  0  0  0  0  0  0  0
   23.7002  -13.7149  -17.5230 C   0  0  0  0  0  0  0  0  0  0  0  0
   23.2545  -14.2754  -18.5916 O   0  0  0  0  0  0  0  0  0  0  0  0
   19.1472  -12.6365  -19.7450 N   0  0  0  0  0  0  0  0  0  0  0  0
   19.4433  -12.4488  -18.3567 C   0  0  0  0  0  0  0  0  0  0  0  0
   18.5617  -11.8738  -17.6870 O   0  0  0  0  0  0  0  0  0  0  0  0
   20.7127  -12.9151  -17.7893 C   0  0  0  0  0  0  0  0  0  0  0  0
   21.8816  -12.0056  -17.9412 C   0  0  2  0  0  0  0  0  0  0  0  0
   23.0419  -12.5122  -17.1985 N   0  0  0  0  0  0  0  0  0  0  0  0
   21.5447  -10.6595  -17.3777 C   0  0  0  0  0  0  0  0  0  0  0  0
   22.1125  -10.2559  -16.3009 O   0  0  0  0  0  0  0  0  0  0  0  0
   20.6492   -9.7704  -17.9201 O   0  0  0  0  0  0  0  0  0  0  0  0
  2  1  1  0
  2  3  1  0
  3  5  1  0
  3  4  1  6
  5  7  1  0
  5  6  1  1
  7  8  2  0
 10  9  1  1
 10 12  1  0
 11 10  1  0
 13 12  1  6
 14  7  1  0
 14 13  1  0
 15 16  2  0
 15 13  1  0
 17 18  1  0
 18 19  2  0
 18 20  1  0
 21 20  1  1
 21 22  1  0
 22 15  1  0
 23 25  1  0
 23 21  1  0
 24 23  2  0
M  END
$$$$
