ILN.pdb
     RDKit          3D

 25 24  0  0  1  0  0  0  0  0999 V2000
   29.7121  -18.8953  -15.8299 C   0  0  0  0  0  0  0  0  0  0  0  0
   28.2059  -18.7816  -15.8108 C   0  0  0  0  0  0  0  0  0  0  0  0
   27.5606  -19.9428  -15.1094 C   0  0  2  0  0  0  0  0  0  0  0  0
   28.1240  -21.2194  -15.6739 C   0  0  0  0  0  0  0  0  0  0  0  0
   26.0735  -19.9088  -15.0792 C   0  0  2  0  0  0  0  0  0  0  0  0
   25.6047  -18.5586  -15.1651 N   0  0  0  0  0  0  0  0  0  0  0  0
   25.4572  -20.6409  -13.9414 C   0  0  0  0  0  0  0  0  0  0  0  0
   25.3955  -21.8895  -14.0200 O   0  0  0  0  0  0  0  0  0  0  0  0
   26.2269  -21.8227   -9.8181 C   0  0  0  0  0  0  0  0  0  0  0  0
   25.9128  -20.3137   -9.9653 C   0  0  2  0  0  0  0  0  0  0  0  0
   26.2692  -19.6900   -8.6756 C   0  0  0  0  0  0  0  0  0  0  0  0
   24.5313  -20.1409  -10.4339 C   0  0  0  0  0  0  0  0  0  0  0  0
   24.1320  -20.6491  -11.7604 C   0  0  2  0  0  0  0  0  0  0  0  0
   24.9485  -19.9864  -12.7963 N   0  0  0  0  0  0  0  0  0  0  0  0
   22.7202  -20.4378  -12.1449 C   0  0  0  0  0  0  0  0  0  0  0  0
   22.3661  -19.3576  -12.7469 O   0  0  0  0  0  0  0  0  0  0  0  0
   18.9577  -22.7051  -15.5688 N   0  0  0  0  0  0  0  0  0  0  0  0
   19.3853  -21.4914  -14.9407 C   0  0  0  0  0  0  0  0  0  0  0  0
   18.6717  -20.4904  -15.1528 O   0  0  0  0  0  0  0  0  0  0  0  0
   20.5911  -21.4613  -14.1066 C   0  0  0  0  0  0  0  0  0  0  0  0
   20.3827  -21.2684  -12.6451 C   0  0  2  0  0  0  0  0  0  0  0  0
   21.6568  -21.3341  -11.9192 N   0  0  0  0  0  0  0  0  0  0  0  0
   19.5107  -22.3646  -12.1151 C   0  0  0  0  0  0  0  0  0  0  0  0
   20.0357  -23.3580  -11.4968 O   0  0  0  0  0  0  0  0  0  0  0  0
   18.1427  -22.4187  -12.2271 O   0  0  0  0  0  0  0  0  0  0  0  0
  2  1  1  0
  2  3  1  0
  3  5  1  0
  3  4  1  6
  5  7  1  0
  5  6  1  1
  7  8  2  0
 10  9  1  1
 10 12  1  0
 11 10  1  0
 13 12  1  1
 14  7  1  0
 14 13  1  0
 15 16  2  0
 15 13  1  0
 17 18  1  0
 18 19  2  0
 18 20  1  0
 21 20  1  6
 21 22  1  0
 22 15  1  0
 23 25  1  0
 23 21  1  0
 24 23  2  0
M  END
$$$$
