IDR.pdb
     RDKit          3D

 28 27  0  0  1  0  0  0  0  0999 V2000
    6.9066  -12.1187   18.8962 C   0  0  0  0  0  0  0  0  0  0  0  0
    7.8954  -13.0946   18.3464 C   0  0  0  0  0  0  0  0  0  0  0  0
    8.1415  -14.2060   19.3369 C   0  0  2  0  0  0  0  0  0  0  0  0
    8.5122  -13.7347   20.7038 C   0  0  0  0  0  0  0  0  0  0  0  0
    9.1920  -15.1660   18.8274 C   0  0  2  0  0  0  0  0  0  0  0  0
    8.8616  -15.6742   17.5297 N   0  0  0  0  0  0  0  0  0  0  0  0
    9.4618  -16.2076   19.8283 C   0  0  0  0  0  0  0  0  0  0  0  0
    9.7394  -15.8561   21.0135 O   0  0  0  0  0  0  0  0  0  0  0  0
    9.4272  -17.5805   19.5337 N   0  0  0  0  0  0  0  0  0  0  0  0
    9.7366  -18.5959   20.5493 C   0  0  1  0  0  0  0  0  0  0  0  0
    9.6852  -19.9357   19.8470 C   0  0  0  0  0  0  0  0  0  0  0  0
    8.6498  -20.7843   20.4831 C   0  0  0  0  0  0  0  0  0  0  0  0
    8.2879  -20.6740   21.6788 O   0  0  0  0  0  0  0  0  0  0  0  0
   11.1199  -18.3551   21.0314 C   0  0  0  0  0  0  0  0  0  0  0  0
   12.1155  -18.5313   20.2482 O   0  0  0  0  0  0  0  0  0  0  0  0
    8.0099  -21.7883   19.7305 O   0  0  0  0  0  0  0  0  0  0  0  0
   13.8885  -15.1512   18.1247 N   0  0  0  0  0  0  0  0  0  0  0  0
   14.9920  -14.7024   18.9217 C   0  0  0  0  0  0  0  0  0  0  0  0
   15.7837  -13.8504   18.4334 N   0  0  0  0  0  0  0  0  0  0  0  0
   15.2344  -15.1566   20.2233 N   0  0  0  0  0  0  0  0  0  0  0  0
   14.4904  -14.9022   21.3654 C   0  0  0  0  0  0  0  0  0  0  0  0
   13.2592  -15.5381   21.7686 C   0  0  0  0  0  0  0  0  0  0  0  0
   13.0450  -16.3638   22.9456 C   0  0  0  0  0  0  0  0  0  0  0  0
   12.7830  -17.8316   22.8647 C   0  0  2  0  0  0  0  0  0  0  0  0
   11.3615  -17.9297   22.3545 N   0  0  0  0  0  0  0  0  0  0  0  0
   12.7826  -18.6252   24.0851 C   0  0  0  0  0  0  0  0  0  0  0  0
   13.4024  -19.7544   24.1614 O   0  0  0  0  0  0  0  0  0  0  0  0
   12.1454  -18.2559   25.2393 O   0  0  0  0  0  0  0  0  0  0  0  0
  2  1  1  0
  3  2  1  0
  3  4  1  1
  5  3  1  0
  5  6  1  6
  7  5  1  0
  8  7  2  0
  9  7  1  0
 10  9  1  0
 11 12  1  0
 10 11  1  6
 12 13  2  0
 14 10  1  0
 14 15  2  0
 16 12  1  0
 18 17  1  0
 19 18  2  0
 20 18  1  0
 21 20  1  0
 22 21  1  0
 23 22  1  0
 24 23  1  1
 24 25  1  0
 25 14  1  0
 26 24  1  0
 27 26  2  0
 28 26  1  0
M  END
$$$$
