IDR.pdb
     RDKit          3D

 28 27  0  0  1  0  0  0  0  0999 V2000
    8.4035  -12.5237   18.1921 C   0  0  0  0  0  0  0  0  0  0  0  0
    7.3160  -13.0121   19.0928 C   0  0  0  0  0  0  0  0  0  0  0  0
    7.8573  -14.0342   20.0618 C   0  0  2  0  0  0  0  0  0  0  0  0
    8.9579  -13.5268   20.9330 C   0  0  0  0  0  0  0  0  0  0  0  0
    8.3141  -15.2807   19.3389 C   0  0  2  0  0  0  0  0  0  0  0  0
    7.2637  -15.8513   18.5499 N   0  0  0  0  0  0  0  0  0  0  0  0
    8.9339  -16.2213   20.2825 C   0  0  0  0  0  0  0  0  0  0  0  0
    8.1891  -16.8574   21.0863 O   0  0  0  0  0  0  0  0  0  0  0  0
   10.3186  -16.4507   20.3374 N   0  0  0  0  0  0  0  0  0  0  0  0
   10.9119  -17.3583   21.3285 C   0  0  1  0  0  0  0  0  0  0  0  0
   12.3429  -17.5926   20.8943 C   0  0  0  0  0  0  0  0  0  0  0  0
   12.9829  -18.5622   21.8146 C   0  0  0  0  0  0  0  0  0  0  0  0
   12.3500  -19.3681   22.5376 O   0  0  0  0  0  0  0  0  0  0  0  0
   10.9120  -16.6659   22.6417 C   0  0  0  0  0  0  0  0  0  0  0  0
   11.4012  -15.4892   22.7502 O   0  0  0  0  0  0  0  0  0  0  0  0
   14.3873  -18.6114   21.9115 O   0  0  0  0  0  0  0  0  0  0  0  0
    4.8121  -12.8300   26.5896 N   0  0  0  0  0  0  0  0  0  0  0  0
    6.0451  -12.1239   26.7782 C   0  0  0  0  0  0  0  0  0  0  0  0
    6.0022  -10.9270   27.1740 N   0  0  0  0  0  0  0  0  0  0  0  0
    7.3015  -12.6982   26.5524 N   0  0  0  0  0  0  0  0  0  0  0  0
    7.6474  -13.6372   25.5927 C   0  0  0  0  0  0  0  0  0  0  0  0
    8.2086  -14.9486   25.8123 C   0  0  0  0  0  0  0  0  0  0  0  0
    8.8311  -15.8115   24.8219 C   0  0  0  0  0  0  0  0  0  0  0  0
   10.1479  -16.4786   25.0464 C   0  0  2  0  0  0  0  0  0  0  0  0
   10.3755  -17.2885   23.7882 N   0  0  0  0  0  0  0  0  0  0  0  0
   10.2839  -17.4454   26.1261 C   0  0  0  0  0  0  0  0  0  0  0  0
   10.2446  -17.0895   27.3657 O   0  0  0  0  0  0  0  0  0  0  0  0
   10.4569  -18.7899   25.9336 O   0  0  0  0  0  0  0  0  0  0  0  0
  2  1  1  0
  3  2  1  0
  3  4  1  6
  5  3  1  0
  5  6  1  1
  7  5  1  0
  8  7  2  0
  9  7  1  0
 10  9  1  0
 11 12  1  0
 10 11  1  6
 12 13  2  0
 14 10  1  0
 14 15  2  0
 16 12  1  0
 18 17  1  0
 19 18  2  0
 20 18  1  0
 21 20  1  0
 22 21  1  0
 23 22  1  0
 24 23  1  6
 24 25  1  0
 25 14  1  0
 26 24  1  0
 27 26  2  0
 28 26  1  0
M  END
$$$$
