IDR.pdb
     RDKit          3D

 28 27  0  0  1  0  0  0  0  0999 V2000
    7.7458  -12.5349   21.3006 C   0  0  0  0  0  0  0  0  0  0  0  0
    7.6673  -13.8883   20.6724 C   0  0  0  0  0  0  0  0  0  0  0  0
    8.5103  -13.9355   19.4218 C   0  0  2  0  0  0  0  0  0  0  0  0
    8.1508  -12.9048   18.4039 C   0  0  0  0  0  0  0  0  0  0  0  0
    8.4715  -15.3086   18.7912 C   0  0  2  0  0  0  0  0  0  0  0  0
    7.1629  -15.6340   18.3084 N   0  0  0  0  0  0  0  0  0  0  0  0
    9.0385  -16.3085   19.7068 C   0  0  0  0  0  0  0  0  0  0  0  0
    8.2545  -17.1185   20.2852 O   0  0  0  0  0  0  0  0  0  0  0  0
   10.4137  -16.4102   19.9736 N   0  0  0  0  0  0  0  0  0  0  0  0
   10.9445  -17.3965   20.9243 C   0  0  1  0  0  0  0  0  0  0  0  0
   12.3860  -17.6392   20.5317 C   0  0  0  0  0  0  0  0  0  0  0  0
   12.4280  -18.4787   19.3110 C   0  0  0  0  0  0  0  0  0  0  0  0
   11.7369  -19.5119   19.1445 O   0  0  0  0  0  0  0  0  0  0  0  0
   10.9075  -16.7923   22.2799 C   0  0  0  0  0  0  0  0  0  0  0  0
   11.3923  -15.6258   22.4794 O   0  0  0  0  0  0  0  0  0  0  0  0
   13.2851  -18.1270   18.2500 O   0  0  0  0  0  0  0  0  0  0  0  0
    5.2845  -12.6993   26.5576 N   0  0  0  0  0  0  0  0  0  0  0  0
    6.6985  -12.4658   26.5837 C   0  0  0  0  0  0  0  0  0  0  0  0
    7.1137  -11.2854   26.7426 N   0  0  0  0  0  0  0  0  0  0  0  0
    7.6480  -13.4853   26.4489 N   0  0  0  0  0  0  0  0  0  0  0  0
    7.4208  -14.8365   26.2359 C   0  0  0  0  0  0  0  0  0  0  0  0
    8.4027  -15.8931   26.1880 C   0  0  0  0  0  0  0  0  0  0  0  0
    8.8721  -16.5991   25.0072 C   0  0  0  0  0  0  0  0  0  0  0  0
   10.3192  -16.8512   24.7399 C   0  0  2  0  0  0  0  0  0  0  0  0
   10.3400  -17.4888   23.3674 N   0  0  0  0  0  0  0  0  0  0  0  0
   11.0486  -17.7877   25.5826 C   0  0  0  0  0  0  0  0  0  0  0  0
   11.0885  -19.0501   25.3188 O   0  0  0  0  0  0  0  0  0  0  0  0
   11.7477  -17.4263   26.7030 O   0  0  0  0  0  0  0  0  0  0  0  0
  2  1  1  0
  3  2  1  0
  3  4  1  6
  5  3  1  0
  5  6  1  1
  7  5  1  0
  8  7  2  0
  9  7  1  0
 10  9  1  0
 11 12  1  0
 10 11  1  6
 12 13  2  0
 14 10  1  0
 14 15  2  0
 16 12  1  0
 18 17  1  0
 19 18  2  0
 20 18  1  0
 21 20  1  0
 22 21  1  0
 23 22  1  0
 24 23  1  1
 24 25  1  0
 25 14  1  0
 26 24  1  0
 27 26  2  0
 28 26  1  0
M  END
$$$$
