IDR.pdb
     RDKit          3D

 28 27  0  0  1  0  0  0  0  0999 V2000
    7.9527  -11.5032   20.2263 C   0  0  0  0  0  0  0  0  0  0  0  0
    7.7217  -12.8806   19.6953 C   0  0  0  0  0  0  0  0  0  0  0  0
    8.3394  -13.9067   20.6131 C   0  0  2  0  0  0  0  0  0  0  0  0
    9.7680  -13.6401   20.9537 C   0  0  0  0  0  0  0  0  0  0  0  0
    8.2040  -15.2994   20.0415 C   0  0  2  0  0  0  0  0  0  0  0  0
    6.8428  -15.6128   19.7247 N   0  0  0  0  0  0  0  0  0  0  0  0
    8.8557  -16.2794   20.9215 C   0  0  0  0  0  0  0  0  0  0  0  0
    8.1908  -16.7744   21.8798 O   0  0  0  0  0  0  0  0  0  0  0  0
   10.1863  -16.6959   20.7516 N   0  0  0  0  0  0  0  0  0  0  0  0
   10.8400  -17.6001   21.7073 C   0  0  1  0  0  0  0  0  0  0  0  0
   12.1856  -17.9548   21.1119 C   0  0  0  0  0  0  0  0  0  0  0  0
   12.0034  -18.9924   20.0693 C   0  0  0  0  0  0  0  0  0  0  0  0
   10.9517  -19.6583   19.9169 O   0  0  0  0  0  0  0  0  0  0  0  0
   11.0525  -16.8536   22.9727 C   0  0  0  0  0  0  0  0  0  0  0  0
   11.1846  -15.5816   22.9566 O   0  0  0  0  0  0  0  0  0  0  0  0
   13.0541  -19.2770   19.1755 O   0  0  0  0  0  0  0  0  0  0  0  0
    4.9380  -14.2101   26.5356 N   0  0  0  0  0  0  0  0  0  0  0  0
    5.8818  -13.2902   25.9719 C   0  0  0  0  0  0  0  0  0  0  0  0
    5.8620  -12.0901   26.3595 N   0  0  0  0  0  0  0  0  0  0  0  0
    6.8344  -13.6574   25.0143 N   0  0  0  0  0  0  0  0  0  0  0  0
    8.1398  -14.0726   25.2289 C   0  0  0  0  0  0  0  0  0  0  0  0
    8.5784  -15.3115   25.8253 C   0  0  0  0  0  0  0  0  0  0  0  0
    9.2379  -16.4202   25.1556 C   0  0  0  0  0  0  0  0  0  0  0  0
   10.6379  -16.8344   25.4685 C   0  0  2  0  0  0  0  0  0  0  0  0
   11.1122  -17.5285   24.2100 N   0  0  0  0  0  0  0  0  0  0  0  0
   10.8757  -17.8057   26.5264 C   0  0  0  0  0  0  0  0  0  0  0  0
   11.6403  -17.5418   27.5318 O   0  0  0  0  0  0  0  0  0  0  0  0
   10.3210  -19.0572   26.5567 O   0  0  0  0  0  0  0  0  0  0  0  0
  2  1  1  0
  3  2  1  0
  3  4  1  6
  5  3  1  0
  5  6  1  1
  7  5  1  0
  8  7  2  0
  9  7  1  0
 10  9  1  0
 11 12  1  0
 10 11  1  6
 12 13  2  0
 14 10  1  0
 14 15  2  0
 16 12  1  0
 18 17  1  0
 19 18  2  0
 20 18  1  0
 21 20  1  0
 22 21  1  0
 23 22  1  0
 24 23  1  6
 24 25  1  0
 25 14  1  0
 26 24  1  0
 27 26  2  0
 28 26  1  0
M  END
$$$$
