IDR.pdb
     RDKit          3D

 28 27  0  0  1  0  0  0  0  0999 V2000
    7.2886  -12.7315   18.7892 C   0  0  0  0  0  0  0  0  0  0  0  0
    7.7549  -14.0994   19.1689 C   0  0  0  0  0  0  0  0  0  0  0  0
    9.0307  -14.0147   19.9701 C   0  0  2  0  0  0  0  0  0  0  0  0
   10.1246  -13.2538   19.2977 C   0  0  0  0  0  0  0  0  0  0  0  0
    9.5271  -15.3911   20.3496 C   0  0  2  0  0  0  0  0  0  0  0  0
    8.4483  -16.2670   20.6966 N   0  0  0  0  0  0  0  0  0  0  0  0
   10.5735  -15.2925   21.3766 C   0  0  0  0  0  0  0  0  0  0  0  0
   11.6269  -14.6400   21.1122 O   0  0  0  0  0  0  0  0  0  0  0  0
   10.4624  -15.8894   22.6432 N   0  0  0  0  0  0  0  0  0  0  0  0
   11.5729  -15.8715   23.6049 C   0  0  1  0  0  0  0  0  0  0  0  0
   10.9976  -16.3120   24.9338 C   0  0  0  0  0  0  0  0  0  0  0  0
   10.7746  -17.7771   24.9111 C   0  0  0  0  0  0  0  0  0  0  0  0
   11.6881  -18.6288   25.0243 O   0  0  0  0  0  0  0  0  0  0  0  0
   12.5804  -16.8670   23.1600 C   0  0  0  0  0  0  0  0  0  0  0  0
   12.2180  -17.8997   22.4983 O   0  0  0  0  0  0  0  0  0  0  0  0
    9.4695  -18.2830   24.7542 O   0  0  0  0  0  0  0  0  0  0  0  0
   15.9942  -13.3913   16.8810 N   0  0  0  0  0  0  0  0  0  0  0  0
   15.2803  -13.9700   17.9810 C   0  0  0  0  0  0  0  0  0  0  0  0
   15.2167  -13.3285   19.0652 N   0  0  0  0  0  0  0  0  0  0  0  0
   14.6402  -15.2129   17.9126 N   0  0  0  0  0  0  0  0  0  0  0  0
   14.8563  -16.3260   18.7106 C   0  0  0  0  0  0  0  0  0  0  0  0
   14.2795  -16.6020   20.0044 C   0  0  0  0  0  0  0  0  0  0  0  0
   14.7773  -16.1611   21.2969 C   0  0  0  0  0  0  0  0  0  0  0  0
   14.9948  -17.0969   22.4398 C   0  0  2  0  0  0  0  0  0  0  0  0
   13.9486  -16.6941   23.4566 N   0  0  0  0  0  0  0  0  0  0  0  0
   16.2498  -17.0460   23.1757 C   0  0  0  0  0  0  0  0  0  0  0  0
   17.0424  -18.0623   23.2383 O   0  0  0  0  0  0  0  0  0  0  0  0
   16.6991  -15.9419   23.8493 O   0  0  0  0  0  0  0  0  0  0  0  0
  2  1  1  0
  3  2  1  0
  3  4  1  6
  5  3  1  0
  5  6  1  1
  7  5  1  0
  8  7  2  0
  9  7  1  0
 10  9  1  0
 11 12  1  0
 10 11  1  1
 12 13  2  0
 14 10  1  0
 14 15  2  0
 16 12  1  0
 18 17  1  0
 19 18  2  0
 20 18  1  0
 21 20  1  0
 22 21  1  0
 23 22  1  0
 24 23  1  6
 24 25  1  0
 25 14  1  0
 26 24  1  0
 27 26  2  0
 28 26  1  0
M  END
$$$$
