IDR.pdb
     RDKit          3D

 28 27  0  0  1  0  0  0  0  0999 V2000
    6.7708  -12.7423   21.0321 C   0  0  0  0  0  0  0  0  0  0  0  0
    7.0393  -13.3752   22.3587 C   0  0  0  0  0  0  0  0  0  0  0  0
    8.1239  -14.4166   22.2329 C   0  0  2  0  0  0  0  0  0  0  0  0
    7.8790  -15.4271   21.1620 C   0  0  0  0  0  0  0  0  0  0  0  0
    8.3594  -15.1187   23.5507 C   0  0  2  0  0  0  0  0  0  0  0  0
    8.3325  -14.2032   24.6518 N   0  0  0  0  0  0  0  0  0  0  0  0
    9.5764  -15.9395   23.4829 C   0  0  0  0  0  0  0  0  0  0  0  0
   10.7014  -15.3582   23.4402 O   0  0  0  0  0  0  0  0  0  0  0  0
    9.5533  -17.3437   23.4627 N   0  0  0  0  0  0  0  0  0  0  0  0
   10.7840  -18.1340   23.3241 C   0  0  1  0  0  0  0  0  0  0  0  0
   10.4536  -19.5313   23.8033 C   0  0  0  0  0  0  0  0  0  0  0  0
   11.7073  -20.3062   23.9595 C   0  0  0  0  0  0  0  0  0  0  0  0
   12.8516  -19.8442   23.7360 O   0  0  0  0  0  0  0  0  0  0  0  0
   11.1345  -18.1871   21.8826 C   0  0  0  0  0  0  0  0  0  0  0  0
   10.2174  -18.3127   21.0001 O   0  0  0  0  0  0  0  0  0  0  0  0
   11.6511  -21.6484   24.3831 O   0  0  0  0  0  0  0  0  0  0  0  0
    8.7774  -12.7323   18.4630 N   0  0  0  0  0  0  0  0  0  0  0  0
    9.2200  -13.4899   17.3296 C   0  0  0  0  0  0  0  0  0  0  0  0
    8.4359  -13.6287   16.3514 N   0  0  0  0  0  0  0  0  0  0  0  0
   10.4863  -14.0805   17.2475 N   0  0  0  0  0  0  0  0  0  0  0  0
   11.2938  -14.5099   18.2897 C   0  0  0  0  0  0  0  0  0  0  0  0
   11.2348  -15.7763   18.9794 C   0  0  0  0  0  0  0  0  0  0  0  0
   12.0515  -16.1990   20.1051 C   0  0  0  0  0  0  0  0  0  0  0  0
   12.8054  -17.4877   20.1162 C   0  0  2  0  0  0  0  0  0  0  0  0
   12.4779  -18.1005   21.4607 N   0  0  0  0  0  0  0  0  0  0  0  0
   14.2604  -17.4644   20.0764 C   0  0  0  0  0  0  0  0  0  0  0  0
   14.9696  -17.4619   21.1543 O   0  0  0  0  0  0  0  0  0  0  0  0
   14.9953  -17.4485   18.9213 O   0  0  0  0  0  0  0  0  0  0  0  0
  2  1  1  0
  3  2  1  0
  3  4  1  6
  5  3  1  0
  5  6  1  1
  7  5  1  0
  8  7  2  0
  9  7  1  0
 10  9  1  0
 11 12  1  0
 10 11  1  6
 12 13  2  0
 14 10  1  0
 14 15  2  0
 16 12  1  0
 18 17  1  0
 19 18  2  0
 20 18  1  0
 21 20  1  0
 22 21  1  0
 23 22  1  0
 24 23  1  1
 24 25  1  0
 25 14  1  0
 26 24  1  0
 27 26  2  0
 28 26  1  0
M  END
$$$$
