IDR.pdb
     RDKit          3D

 28 27  0  0  1  0  0  0  0  0999 V2000
    6.6730  -11.7475   27.1380 C   0  0  0  0  0  0  0  0  0  0  0  0
    6.1207  -12.9490   26.4424 C   0  0  0  0  0  0  0  0  0  0  0  0
    7.2359  -13.7557   25.8242 C   0  0  2  0  0  0  0  0  0  0  0  0
    8.0742  -12.9940   24.8521 C   0  0  0  0  0  0  0  0  0  0  0  0
    6.7015  -15.0064   25.1646 C   0  0  2  0  0  0  0  0  0  0  0  0
    5.8351  -15.7385   26.0391 N   0  0  0  0  0  0  0  0  0  0  0  0
    7.8043  -15.8028   24.6085 C   0  0  0  0  0  0  0  0  0  0  0  0
    8.0843  -16.9150   25.1469 O   0  0  0  0  0  0  0  0  0  0  0  0
    8.5670  -15.3890   23.5040 N   0  0  0  0  0  0  0  0  0  0  0  0
    9.3142  -16.3480   22.6792 C   0  0  1  0  0  0  0  0  0  0  0  0
    9.1125  -15.9254   21.2398 C   0  0  0  0  0  0  0  0  0  0  0  0
    9.8862  -16.8243   20.3510 C   0  0  0  0  0  0  0  0  0  0  0  0
   10.5490  -16.4334   19.3607 O   0  0  0  0  0  0  0  0  0  0  0  0
   10.7531  -16.2243   23.0227 C   0  0  0  0  0  0  0  0  0  0  0  0
   11.6483  -16.6387   22.2087 O   0  0  0  0  0  0  0  0  0  0  0  0
    9.9022  -18.2103   20.6013 O   0  0  0  0  0  0  0  0  0  0  0  0
   13.6244  -19.6049   29.3802 N   0  0  0  0  0  0  0  0  0  0  0  0
   12.2421  -19.6799   29.7519 C   0  0  0  0  0  0  0  0  0  0  0  0
   11.9517  -19.9102   30.9576 N   0  0  0  0  0  0  0  0  0  0  0  0
   11.1918  -19.5026   28.8439 N   0  0  0  0  0  0  0  0  0  0  0  0
   11.2705  -19.3865   27.4644 C   0  0  0  0  0  0  0  0  0  0  0  0
   11.9688  -18.3745   26.7087 C   0  0  0  0  0  0  0  0  0  0  0  0
   11.3782  -17.2765   25.9615 C   0  0  0  0  0  0  0  0  0  0  0  0
   12.1848  -16.3577   25.1044 C   0  0  2  0  0  0  0  0  0  0  0  0
   11.1584  -15.6504   24.2460 N   0  0  0  0  0  0  0  0  0  0  0  0
   13.1289  -16.9177   24.1483 C   0  0  0  0  0  0  0  0  0  0  0  0
   12.7499  -17.3516   22.9938 O   0  0  0  0  0  0  0  0  0  0  0  0
   14.4745  -17.0296   24.3756 O   0  0  0  0  0  0  0  0  0  0  0  0
  2  1  1  0
  3  2  1  0
  3  4  1  6
  5  3  1  0
  5  6  1  1
  7  5  1  0
  8  7  2  0
  9  7  1  0
 10  9  1  0
 11 12  1  0
 10 11  1  6
 12 13  2  0
 14 10  1  0
 14 15  2  0
 16 12  1  0
 18 17  1  0
 19 18  2  0
 20 18  1  0
 21 20  1  0
 22 21  1  0
 23 22  1  0
 24 23  1  6
 24 25  1  0
 25 14  1  0
 26 24  1  0
 27 26  2  0
 28 26  1  0
M  END
$$$$
