IDR.pdb
     RDKit          3D

 28 27  0  0  1  0  0  0  0  0999 V2000
    7.6065  -13.4500   18.1010 C   0  0  0  0  0  0  0  0  0  0  0  0
    8.3651  -12.7073   19.1524 C   0  0  0  0  0  0  0  0  0  0  0  0
    9.2125  -13.6601   19.9592 C   0  0  2  0  0  0  0  0  0  0  0  0
   10.2287  -14.4027   19.1569 C   0  0  0  0  0  0  0  0  0  0  0  0
    8.3517  -14.6403   20.7228 C   0  0  2  0  0  0  0  0  0  0  0  0
    7.2790  -13.9831   21.4075 N   0  0  0  0  0  0  0  0  0  0  0  0
    9.1850  -15.4876   21.5873 C   0  0  0  0  0  0  0  0  0  0  0  0
    9.7834  -14.9543   22.5686 O   0  0  0  0  0  0  0  0  0  0  0  0
    9.3514  -16.8665   21.3778 N   0  0  0  0  0  0  0  0  0  0  0  0
   10.3030  -17.6580   22.1691 C   0  0  1  0  0  0  0  0  0  0  0  0
    9.8980  -19.1071   22.0043 C   0  0  0  0  0  0  0  0  0  0  0  0
    8.6556  -19.3603   22.7718 C   0  0  0  0  0  0  0  0  0  0  0  0
    8.2708  -18.6586   23.7374 O   0  0  0  0  0  0  0  0  0  0  0  0
   11.6551  -17.4644   21.5875 C   0  0  0  0  0  0  0  0  0  0  0  0
   11.8406  -17.5966   20.3291 O   0  0  0  0  0  0  0  0  0  0  0  0
    7.8296  -20.4474   22.4257 O   0  0  0  0  0  0  0  0  0  0  0  0
   16.5219  -15.1317   17.4530 N   0  0  0  0  0  0  0  0  0  0  0  0
   16.3765  -13.7150   17.6151 C   0  0  0  0  0  0  0  0  0  0  0  0
   17.2116  -12.9534   17.0550 N   0  0  0  0  0  0  0  0  0  0  0  0
   15.3467  -13.1287   18.3600 N   0  0  0  0  0  0  0  0  0  0  0  0
   14.4367  -13.7582   19.1956 C   0  0  0  0  0  0  0  0  0  0  0  0
   14.6683  -14.9097   20.0342 C   0  0  0  0  0  0  0  0  0  0  0  0
   13.7269  -15.5263   20.9542 C   0  0  0  0  0  0  0  0  0  0  0  0
   14.0681  -16.7269   21.7737 C   0  0  2  0  0  0  0  0  0  0  0  0
   12.7545  -17.1326   22.4067 N   0  0  0  0  0  0  0  0  0  0  0  0
   14.9816  -16.5877   22.8985 C   0  0  0  0  0  0  0  0  0  0  0  0
   14.5539  -16.4309   24.1057 O   0  0  0  0  0  0  0  0  0  0  0  0
   16.3458  -16.6145   22.7857 O   0  0  0  0  0  0  0  0  0  0  0  0
  2  1  1  0
  3  2  1  0
  3  4  1  6
  5  3  1  0
  5  6  1  1
  7  5  1  0
  8  7  2  0
  9  7  1  0
 10  9  1  0
 11 12  1  0
 10 11  1  6
 12 13  2  0
 14 10  1  0
 14 15  2  0
 16 12  1  0
 18 17  1  0
 19 18  2  0
 20 18  1  0
 21 20  1  0
 22 21  1  0
 23 22  1  0
 24 23  1  1
 24 25  1  0
 25 14  1  0
 26 24  1  0
 27 26  2  0
 28 26  1  0
M  END
$$$$
