IDR.pdb
     RDKit          3D

 28 27  0  0  1  0  0  0  0  0999 V2000
    7.1691  -11.7441   20.5863 C   0  0  0  0  0  0  0  0  0  0  0  0
    7.3638  -13.0449   19.8774 C   0  0  0  0  0  0  0  0  0  0  0  0
    8.1467  -14.0015   20.7427 C   0  0  2  0  0  0  0  0  0  0  0  0
    9.4655  -13.4723   21.1992 C   0  0  0  0  0  0  0  0  0  0  0  0
    8.3444  -15.3281   20.0457 C   0  0  2  0  0  0  0  0  0  0  0  0
    7.1079  -15.8593   19.5555 N   0  0  0  0  0  0  0  0  0  0  0  0
    9.0941  -16.2524   20.9078 C   0  0  0  0  0  0  0  0  0  0  0  0
    8.4533  -16.9788   21.7246 O   0  0  0  0  0  0  0  0  0  0  0  0
   10.4933  -16.3702   20.8706 N   0  0  0  0  0  0  0  0  0  0  0  0
   11.2127  -17.3046   21.7468 C   0  0  1  0  0  0  0  0  0  0  0  0
   12.6699  -17.2367   21.3431 C   0  0  0  0  0  0  0  0  0  0  0  0
   13.4239  -18.3032   22.0437 C   0  0  0  0  0  0  0  0  0  0  0  0
   12.9152  -19.0948   22.8727 O   0  0  0  0  0  0  0  0  0  0  0  0
   11.0746  -16.8214   23.1437 C   0  0  0  0  0  0  0  0  0  0  0  0
   11.6237  -15.7239   23.5036 O   0  0  0  0  0  0  0  0  0  0  0  0
   14.7993  -18.4692   21.7893 O   0  0  0  0  0  0  0  0  0  0  0  0
    5.8922  -13.0643   24.0915 N   0  0  0  0  0  0  0  0  0  0  0  0
    6.2945  -12.7996   25.4415 C   0  0  0  0  0  0  0  0  0  0  0  0
    6.6197  -11.6221   25.7558 N   0  0  0  0  0  0  0  0  0  0  0  0
    6.3385  -13.7828   26.4367 N   0  0  0  0  0  0  0  0  0  0  0  0
    6.8969  -15.0495   26.3569 C   0  0  0  0  0  0  0  0  0  0  0  0
    8.1533  -15.4164   25.7488 C   0  0  0  0  0  0  0  0  0  0  0  0
    8.7039  -16.7551   25.6165 C   0  0  0  0  0  0  0  0  0  0  0  0
   10.1691  -17.0169   25.4981 C   0  0  2  0  0  0  0  0  0  0  0  0
   10.3394  -17.5590   24.0953 N   0  0  0  0  0  0  0  0  0  0  0  0
   10.7860  -18.0234   26.3499 C   0  0  0  0  0  0  0  0  0  0  0  0
   11.3652  -17.7116   27.4599 O   0  0  0  0  0  0  0  0  0  0  0  0
   10.8050  -19.3622   26.0639 O   0  0  0  0  0  0  0  0  0  0  0  0
  2  1  1  0
  3  2  1  0
  3  4  1  6
  5  3  1  0
  5  6  1  1
  7  5  1  0
  8  7  2  0
  9  7  1  0
 10  9  1  0
 11 12  1  0
 10 11  1  6
 12 13  2  0
 14 10  1  0
 14 15  2  0
 16 12  1  0
 18 17  1  0
 19 18  2  0
 20 18  1  0
 21 20  1  0
 22 21  1  0
 23 22  1  0
 24 23  1  1
 24 25  1  0
 25 14  1  0
 26 24  1  0
 27 26  2  0
 28 26  1  0
M  END
$$$$
