FNV.pdb
     RDKit          3D

 27 27  0  0  1  0  0  0  0  0999 V2000
   27.4906  -22.0388  -11.5236 N   0  0  0  0  0  0  0  0  0  0  0  0
   26.3888  -21.4955  -10.7507 C   0  0  1  0  0  0  0  0  0  0  0  0
   26.8472  -20.0996  -10.3079 C   0  0  0  0  0  0  0  0  0  0  0  0
   27.3072  -20.1501   -8.9116 C   0  0  0  0  0  0  0  0  0  0  0  0
   28.6346  -20.2035   -8.5547 C   0  0  0  0  0  0  0  0  0  0  0  0
   29.0318  -20.2493   -7.2338 C   0  0  0  0  0  0  0  0  0  0  0  0
   28.0791  -20.2416   -6.2488 C   0  0  0  0  0  0  0  0  0  0  0  0
   26.7544  -20.1889   -6.5806 C   0  0  0  0  0  0  0  0  0  0  0  0
   26.3682  -20.1433   -7.9038 C   0  0  0  0  0  0  0  0  0  0  0  0
   25.2008  -21.3222  -11.6219 C   0  0  0  0  0  0  0  0  0  0  0  0
   25.3646  -21.1356  -12.8536 O   0  0  0  0  0  0  0  0  0  0  0  0
   20.3827  -22.6952  -13.3761 N   0  0  0  0  0  0  0  0  0  0  0  0
   20.4460  -22.4747  -11.9897 C   0  0  0  0  0  0  0  0  0  0  0  0
   19.4423  -22.8924  -11.3182 O   0  0  0  0  0  0  0  0  0  0  0  0
   21.5159  -21.8284  -11.2242 C   0  0  0  0  0  0  0  0  0  0  0  0
   22.7192  -21.4206  -12.0255 C   0  0  2  0  0  0  0  0  0  0  0  0
   23.8661  -21.3528  -11.1527 N   0  0  0  0  0  0  0  0  0  0  0  0
   22.4241  -20.1377  -12.7073 C   0  0  0  0  0  0  0  0  0  0  0  0
   22.3663  -19.0635  -12.0546 O   0  0  0  0  0  0  0  0  0  0  0  0
   22.7810  -20.1479  -16.7650 C   0  0  0  0  0  0  0  0  0  0  0  0
   22.7036  -18.8460  -16.0273 C   0  0  2  0  0  0  0  0  0  0  0  0
   24.0608  -18.4104  -15.5203 C   0  0  0  0  0  0  0  0  0  0  0  0
   21.7761  -18.9153  -14.8224 C   0  0  2  0  0  0  0  0  0  0  0  0
   22.2064  -20.1142  -14.0929 N   0  0  0  0  0  0  0  0  0  0  0  0
   20.4065  -19.0876  -15.3706 C   0  0  0  0  0  0  0  0  0  0  0  0
   19.8518  -18.0672  -15.8815 O   0  0  0  0  0  0  0  0  0  0  0  0
   19.7179  -20.2649  -15.3573 O   0  0  0  0  0  0  0  0  0  0  0  0
  2  1  1  6
  3  4  1  0
  3  2  1  0
  4  9  2  0
  5  6  2  0
  5  4  1  0
  6  7  1  0
  7  8  2  0
  9  8  1  0
 10 11  2  0
 10  2  1  0
 12 13  1  0
 13 15  1  0
 13 14  2  0
 16 15  1  1
 16 18  1  0
 16 17  1  0
 17 10  1  0
 18 19  2  0
 21 20  1  1
 22 21  1  0
 23 21  1  0
 23 24  1  1
 24 18  1  0
 25 27  1  0
 25 23  1  0
 26 25  2  0
M  END
$$$$
