FNV.pdb
     RDKit          3D

 27 27  0  0  1  0  0  0  0  0999 V2000
   28.1383  -20.1768  -10.9672 N   0  0  0  0  0  0  0  0  0  0  0  0
   26.9800  -20.9759  -10.6118 C   0  0  1  0  0  0  0  0  0  0  0  0
   26.4316  -20.3522   -9.3214 C   0  0  0  0  0  0  0  0  0  0  0  0
   27.4777  -20.3553   -8.2873 C   0  0  0  0  0  0  0  0  0  0  0  0
   28.5148  -21.2587   -8.2643 C   0  0  0  0  0  0  0  0  0  0  0  0
   29.4807  -21.2329   -7.2787 C   0  0  0  0  0  0  0  0  0  0  0  0
   29.4063  -20.2819   -6.2949 C   0  0  0  0  0  0  0  0  0  0  0  0
   28.3845  -19.3744   -6.2983 C   0  0  0  0  0  0  0  0  0  0  0  0
   27.4244  -19.4089   -7.2879 C   0  0  0  0  0  0  0  0  0  0  0  0
   25.9352  -20.8388  -11.6557 C   0  0  0  0  0  0  0  0  0  0  0  0
   25.7618  -19.7238  -12.2083 O   0  0  0  0  0  0  0  0  0  0  0  0
   23.3748  -22.2221  -16.4635 N   0  0  0  0  0  0  0  0  0  0  0  0
   23.2411  -22.8127  -15.1953 C   0  0  0  0  0  0  0  0  0  0  0  0
   22.1256  -23.3945  -14.9725 O   0  0  0  0  0  0  0  0  0  0  0  0
   24.2189  -22.8430  -14.1038 C   0  0  0  0  0  0  0  0  0  0  0  0
   24.0751  -21.7481  -13.0855 C   0  0  2  0  0  0  0  0  0  0  0  0
   25.1011  -21.8994  -12.0823 N   0  0  0  0  0  0  0  0  0  0  0  0
   22.7011  -21.7920  -12.5308 C   0  0  0  0  0  0  0  0  0  0  0  0
   22.3532  -22.7180  -11.7530 O   0  0  0  0  0  0  0  0  0  0  0  0
   20.0462  -18.9001  -14.0340 C   0  0  0  0  0  0  0  0  0  0  0  0
   19.8926  -19.3836  -12.6242 C   0  0  2  0  0  0  0  0  0  0  0  0
   20.6767  -18.5294  -11.6526 C   0  0  0  0  0  0  0  0  0  0  0  0
   20.3705  -20.8179  -12.4467 C   0  0  2  0  0  0  0  0  0  0  0  0
   21.7752  -20.7950  -12.8719 N   0  0  0  0  0  0  0  0  0  0  0  0
   19.5472  -21.6400  -13.3700 C   0  0  0  0  0  0  0  0  0  0  0  0
   20.0589  -21.9455  -14.4902 O   0  0  0  0  0  0  0  0  0  0  0  0
   18.2877  -22.0808  -13.0876 O   0  0  0  0  0  0  0  0  0  0  0  0
  2  1  1  6
  3  4  1  0
  3  2  1  0
  4  9  2  0
  5  6  2  0
  5  4  1  0
  6  7  1  0
  7  8  2  0
  9  8  1  0
 10 11  2  0
 10  2  1  0
 12 13  1  0
 13 15  1  0
 13 14  2  0
 16 15  1  6
 16 18  1  0
 16 17  1  0
 17 10  1  0
 18 19  2  0
 21 20  1  6
 22 21  1  0
 23 21  1  0
 23 24  1  6
 24 18  1  0
 25 27  1  0
 25 23  1  0
 26 25  2  0
M  END
$$$$
