FNV.pdb
     RDKit          3D

 27 27  0  0  1  0  0  0  0  0999 V2000
   28.1503  -21.5560  -11.5748 N   0  0  0  0  0  0  0  0  0  0  0  0
   26.8146  -21.3225  -11.0571 C   0  0  1  0  0  0  0  0  0  0  0  0
   26.8830  -19.9665  -10.3421 C   0  0  0  0  0  0  0  0  0  0  0  0
   27.4598  -20.1435   -9.0005 C   0  0  0  0  0  0  0  0  0  0  0  0
   28.7990  -20.3638   -8.7768 C   0  0  0  0  0  0  0  0  0  0  0  0
   29.3074  -20.5251   -7.5039 C   0  0  0  0  0  0  0  0  0  0  0  0
   28.4562  -20.4644   -6.4317 C   0  0  0  0  0  0  0  0  0  0  0  0
   27.1219  -20.2464   -6.6308 C   0  0  0  0  0  0  0  0  0  0  0  0
   26.6241  -20.0865   -7.9070 C   0  0  0  0  0  0  0  0  0  0  0  0
   25.8559  -21.1892  -12.1810 C   0  0  0  0  0  0  0  0  0  0  0  0
   26.1373  -20.4294  -13.1413 O   0  0  0  0  0  0  0  0  0  0  0  0
   24.8654  -25.1984  -14.0285 N   0  0  0  0  0  0  0  0  0  0  0  0
   24.3796  -23.9406  -14.4246 C   0  0  0  0  0  0  0  0  0  0  0  0
   24.9419  -23.4306  -15.4523 O   0  0  0  0  0  0  0  0  0  0  0  0
   23.3131  -23.1472  -13.8070 C   0  0  0  0  0  0  0  0  0  0  0  0
   23.7142  -21.7677  -13.3684 C   0  0  2  0  0  0  0  0  0  0  0  0
   24.6188  -21.8730  -12.2492 N   0  0  0  0  0  0  0  0  0  0  0  0
   22.4892  -20.9912  -13.0616 C   0  0  0  0  0  0  0  0  0  0  0  0
   22.0022  -20.9945  -11.9014 O   0  0  0  0  0  0  0  0  0  0  0  0
   20.4480  -19.0767  -16.3281 C   0  0  0  0  0  0  0  0  0  0  0  0
   20.6233  -18.4458  -14.9804 C   0  0  2  0  0  0  0  0  0  0  0  0
   21.9213  -17.6739  -14.8902 C   0  0  0  0  0  0  0  0  0  0  0  0
   20.6326  -19.4713  -13.8556 C   0  0  2  0  0  0  0  0  0  0  0  0
   21.8624  -20.2437  -14.0695 N   0  0  0  0  0  0  0  0  0  0  0  0
   19.4291  -20.3165  -14.0636 C   0  0  0  0  0  0  0  0  0  0  0  0
   19.5651  -21.3571  -14.7769 O   0  0  0  0  0  0  0  0  0  0  0  0
   18.2002  -20.0430  -13.5387 O   0  0  0  0  0  0  0  0  0  0  0  0
  2  1  1  6
  3  4  1  0
  3  2  1  0
  4  9  2  0
  5  6  2  0
  5  4  1  0
  6  7  1  0
  7  8  2  0
  9  8  1  0
 10 11  2  0
 10  2  1  0
 12 13  1  0
 13 15  1  0
 13 14  2  0
 16 15  1  1
 16 18  1  0
 16 17  1  0
 17 10  1  0
 18 19  2  0
 21 20  1  6
 22 21  1  0
 23 21  1  0
 23 24  1  6
 24 18  1  0
 25 27  1  0
 25 23  1  0
 26 25  2  0
M  END
$$$$
