FNV.pdb
     RDKit          3D

 27 27  0  0  1  0  0  0  0  0999 V2000
   28.6441  -21.7386  -11.0561 N   0  0  0  0  0  0  0  0  0  0  0  0
   27.3034  -21.2834  -10.7373 C   0  0  1  0  0  0  0  0  0  0  0  0
   27.4589  -19.8187  -10.3067 C   0  0  0  0  0  0  0  0  0  0  0  0
   27.7737  -19.7561   -8.8712 C   0  0  0  0  0  0  0  0  0  0  0  0
   29.0543  -19.8301   -8.3745 C   0  0  0  0  0  0  0  0  0  0  0  0
   29.3145  -19.7674   -7.0205 C   0  0  0  0  0  0  0  0  0  0  0  0
   28.2697  -19.6276   -6.1450 C   0  0  0  0  0  0  0  0  0  0  0  0
   26.9892  -19.5520   -6.6166 C   0  0  0  0  0  0  0  0  0  0  0  0
   26.7401  -19.6156   -7.9716 C   0  0  0  0  0  0  0  0  0  0  0  0
   26.4614  -21.3051  -11.9582 C   0  0  0  0  0  0  0  0  0  0  0  0
   26.9721  -20.9897  -13.0621 O   0  0  0  0  0  0  0  0  0  0  0  0
   25.4763  -23.8857  -14.8363 N   0  0  0  0  0  0  0  0  0  0  0  0
   24.3188  -24.0536  -14.0573 C   0  0  0  0  0  0  0  0  0  0  0  0
   23.8224  -25.2309  -14.0533 O   0  0  0  0  0  0  0  0  0  0  0  0
   23.6158  -23.0496  -13.2535 C   0  0  0  0  0  0  0  0  0  0  0  0
   24.2923  -21.7112  -13.1670 C   0  0  2  0  0  0  0  0  0  0  0  0
   25.0926  -21.6639  -11.9674 N   0  0  0  0  0  0  0  0  0  0  0  0
   23.2578  -20.6509  -13.2244 C   0  0  0  0  0  0  0  0  0  0  0  0
   22.6692  -20.2726  -12.1786 O   0  0  0  0  0  0  0  0  0  0  0  0
   22.6775  -18.9297  -16.9808 C   0  0  0  0  0  0  0  0  0  0  0  0
   22.3621  -18.1550  -15.7376 C   0  0  2  0  0  0  0  0  0  0  0  0
   23.5721  -17.4053  -15.2252 C   0  0  0  0  0  0  0  0  0  0  0  0
   21.8752  -19.0476  -14.6048 C   0  0  2  0  0  0  0  0  0  0  0  0
   22.9276  -20.0595  -14.4528 N   0  0  0  0  0  0  0  0  0  0  0  0
   20.6102  -19.6615  -15.0834 C   0  0  0  0  0  0  0  0  0  0  0  0
   20.6806  -20.8269  -15.5801 O   0  0  0  0  0  0  0  0  0  0  0  0
   19.3912  -19.0529  -15.0209 O   0  0  0  0  0  0  0  0  0  0  0  0
  2  1  1  6
  3  4  1  0
  3  2  1  0
  4  9  2  0
  5  6  2  0
  5  4  1  0
  6  7  1  0
  7  8  2  0
  9  8  1  0
 10 11  2  0
 10  2  1  0
 12 13  1  0
 13 15  1  0
 13 14  2  0
 16 15  1  1
 16 18  1  0
 16 17  1  0
 17 10  1  0
 18 19  2  0
 21 20  1  6
 22 21  1  0
 23 21  1  0
 23 24  1  6
 24 18  1  0
 25 27  1  0
 25 23  1  0
 26 25  2  0
M  END
$$$$
