FNV.pdb
     RDKit          3D

 27 27  0  0  1  0  0  0  0  0999 V2000
   25.8972  -12.0813  -18.3125 N   0  0  0  0  0  0  0  0  0  0  0  0
   24.9446  -11.1491  -18.8870 C   0  0  1  0  0  0  0  0  0  0  0  0
   23.6114  -11.9069  -18.9427 C   0  0  0  0  0  0  0  0  0  0  0  0
   23.6527  -12.9011  -20.0261 C   0  0  0  0  0  0  0  0  0  0  0  0
   23.7391  -12.5651  -21.3572 C   0  0  0  0  0  0  0  0  0  0  0  0
   23.7764  -13.5241  -22.3490 C   0  0  0  0  0  0  0  0  0  0  0  0
   23.7261  -14.8484  -22.0002 C   0  0  0  0  0  0  0  0  0  0  0  0
   23.6402  -15.2049  -20.6837 C   0  0  0  0  0  0  0  0  0  0  0  0
   23.6036  -14.2386  -19.7004 C   0  0  0  0  0  0  0  0  0  0  0  0
   24.7644   -9.9904  -17.9786 C   0  0  0  0  0  0  0  0  0  0  0  0
   24.7939  -10.1741  -16.7359 O   0  0  0  0  0  0  0  0  0  0  0  0
   24.2932   -4.9316  -16.0926 N   0  0  0  0  0  0  0  0  0  0  0  0
   24.5557   -5.0480  -17.4683 C   0  0  0  0  0  0  0  0  0  0  0  0
   24.7383   -3.9469  -18.0903 O   0  0  0  0  0  0  0  0  0  0  0  0
   24.6456   -6.2705  -18.2719 C   0  0  0  0  0  0  0  0  0  0  0  0
   24.3702   -7.5464  -17.5285 C   0  0  2  0  0  0  0  0  0  0  0  0
   24.5569   -8.6631  -18.4230 N   0  0  0  0  0  0  0  0  0  0  0  0
   23.0054   -7.4768  -16.9538 C   0  0  0  0  0  0  0  0  0  0  0  0
   21.9964   -7.4204  -17.7036 O   0  0  0  0  0  0  0  0  0  0  0  0
   22.4442   -8.9755  -13.1966 C   0  0  0  0  0  0  0  0  0  0  0  0
   21.3603   -8.7338  -14.2024 C   0  0  2  0  0  0  0  0  0  0  0  0
   21.3395   -9.8064  -15.2691 C   0  0  0  0  0  0  0  0  0  0  0  0
   21.5155   -7.3972  -14.9139 C   0  0  2  0  0  0  0  0  0  0  0  0
   22.8302   -7.4737  -15.5621 N   0  0  0  0  0  0  0  0  0  0  0  0
   21.5060   -6.3633  -13.8475 C   0  0  0  0  0  0  0  0  0  0  0  0
   20.3808   -6.0475  -13.3534 O   0  0  0  0  0  0  0  0  0  0  0  0
   22.6231   -5.7406  -13.3736 O   0  0  0  0  0  0  0  0  0  0  0  0
  2  1  1  1
  3  4  1  0
  3  2  1  0
  4  9  2  0
  5  6  2  0
  5  4  1  0
  6  7  1  0
  7  8  2  0
  9  8  1  0
 10 11  2  0
 10  2  1  0
 12 13  1  0
 13 15  1  0
 13 14  2  0
 16 15  1  6
 16 18  1  0
 16 17  1  0
 17 10  1  0
 18 19  2  0
 21 20  1  1
 22 21  1  0
 23 21  1  0
 23 24  1  1
 24 18  1  0
 25 27  1  0
 25 23  1  0
 26 25  2  0
M  END
$$$$
