FNV.pdb
     RDKit          3D

 27 27  0  0  1  0  0  0  0  0999 V2000
   26.7426  -18.4645   -7.9707 N   0  0  0  0  0  0  0  0  0  0  0  0
   27.0042  -19.8086   -8.4516 C   0  0  1  0  0  0  0  0  0  0  0  0
   26.6297  -20.7399   -7.2909 C   0  0  0  0  0  0  0  0  0  0  0  0
   27.5550  -20.5265   -6.1674 C   0  0  0  0  0  0  0  0  0  0  0  0
   27.1649  -20.0044   -4.9560 C   0  0  0  0  0  0  0  0  0  0  0  0
   28.0597  -19.8177   -3.9220 C   0  0  0  0  0  0  0  0  0  0  0  0
   29.3736  -20.1614   -4.1050 C   0  0  0  0  0  0  0  0  0  0  0  0
   29.7831  -20.6820   -5.3004 C   0  0  0  0  0  0  0  0  0  0  0  0
   28.8807  -20.8644   -6.3274 C   0  0  0  0  0  0  0  0  0  0  0  0
   26.1019  -20.1211   -9.5867 C   0  0  0  0  0  0  0  0  0  0  0  0
   24.9128  -19.7163   -9.5552 O   0  0  0  0  0  0  0  0  0  0  0  0
   29.4835  -20.4938  -12.7018 N   0  0  0  0  0  0  0  0  0  0  0  0
   28.1713  -20.1311  -13.0504 C   0  0  0  0  0  0  0  0  0  0  0  0
   28.0075  -18.9094  -13.3868 O   0  0  0  0  0  0  0  0  0  0  0  0
   26.9750  -20.9776  -13.0754 C   0  0  0  0  0  0  0  0  0  0  0  0
   25.9364  -20.6482  -12.0415 C   0  0  2  0  0  0  0  0  0  0  0  0
   26.4950  -20.8596  -10.7279 N   0  0  0  0  0  0  0  0  0  0  0  0
   24.7281  -21.4660  -12.3037 C   0  0  0  0  0  0  0  0  0  0  0  0
   24.7414  -22.7093  -12.1110 O   0  0  0  0  0  0  0  0  0  0  0  0
   21.2425  -19.3376  -13.3814 C   0  0  0  0  0  0  0  0  0  0  0  0
   21.2099  -20.6068  -12.5856 C   0  0  2  0  0  0  0  0  0  0  0  0
   21.3890  -20.3428  -11.1068 C   0  0  0  0  0  0  0  0  0  0  0  0
   22.3019  -21.5819  -13.0023 C   0  0  2  0  0  0  0  0  0  0  0  0
   23.5556  -20.8541  -12.7712 N   0  0  0  0  0  0  0  0  0  0  0  0
   22.0919  -21.8357  -14.4506 C   0  0  0  0  0  0  0  0  0  0  0  0
   22.8690  -21.2474  -15.2631 O   0  0  0  0  0  0  0  0  0  0  0  0
   21.1239  -22.6549  -14.9528 O   0  0  0  0  0  0  0  0  0  0  0  0
  2  1  1  1
  3  4  1  0
  3  2  1  0
  4  9  2  0
  5  6  2  0
  5  4  1  0
  6  7  1  0
  7  8  2  0
  9  8  1  0
 10 11  2  0
 10  2  1  0
 12 13  1  0
 13 15  1  0
 13 14  2  0
 16 15  1  6
 16 18  1  0
 16 17  1  0
 17 10  1  0
 18 19  2  0
 21 20  1  6
 22 21  1  0
 23 21  1  0
 23 24  1  6
 24 18  1  0
 25 27  1  0
 25 23  1  0
 26 25  2  0
M  END
$$$$
