FNV.pdb
     RDKit          3D

 27 27  0  0  1  0  0  0  0  0999 V2000
   29.0900  -21.4351   -9.0695 N   0  0  0  0  0  0  0  0  0  0  0  0
   27.6800  -21.1188   -8.9351 C   0  0  1  0  0  0  0  0  0  0  0  0
   27.6315  -19.7102   -8.3283 C   0  0  0  0  0  0  0  0  0  0  0  0
   27.8315  -19.7914   -6.8732 C   0  0  0  0  0  0  0  0  0  0  0  0
   26.9188  -20.3606   -6.0157 C   0  0  0  0  0  0  0  0  0  0  0  0
   27.1385  -20.4208   -4.6544 C   0  0  0  0  0  0  0  0  0  0  0  0
   28.2972  -19.8997   -4.1408 C   0  0  0  0  0  0  0  0  0  0  0  0
   29.2178  -19.3295   -4.9745 C   0  0  0  0  0  0  0  0  0  0  0  0
   28.9885  -19.2745   -6.3334 C   0  0  0  0  0  0  0  0  0  0  0  0
   27.0497  -21.0515  -10.2761 C   0  0  0  0  0  0  0  0  0  0  0  0
   27.7684  -20.8261  -11.2818 O   0  0  0  0  0  0  0  0  0  0  0  0
   24.7178  -24.1227  -14.1112 N   0  0  0  0  0  0  0  0  0  0  0  0
   24.0648  -23.3387  -13.1449 C   0  0  0  0  0  0  0  0  0  0  0  0
   22.8781  -22.9706  -13.4431 O   0  0  0  0  0  0  0  0  0  0  0  0
   24.5750  -22.8946  -11.8446 C   0  0  0  0  0  0  0  0  0  0  0  0
   25.1048  -21.4894  -11.8113 C   0  0  2  0  0  0  0  0  0  0  0  0
   25.6647  -21.2273  -10.5076 N   0  0  0  0  0  0  0  0  0  0  0  0
   24.0097  -20.5595  -12.1773 C   0  0  0  0  0  0  0  0  0  0  0  0
   23.1520  -20.2124  -11.3246 O   0  0  0  0  0  0  0  0  0  0  0  0
   22.4665  -17.6014  -15.8859 C   0  0  0  0  0  0  0  0  0  0  0  0
   23.3263  -18.6903  -15.3202 C   0  0  2  0  0  0  0  0  0  0  0  0
   23.2751  -19.9405  -16.1706 C   0  0  0  0  0  0  0  0  0  0  0  0
   22.9077  -19.0887  -13.9120 C   0  0  2  0  0  0  0  0  0  0  0  0
   23.9234  -20.0583  -13.4845 N   0  0  0  0  0  0  0  0  0  0  0  0
   21.5774  -19.7351  -14.0489 C   0  0  0  0  0  0  0  0  0  0  0  0
   21.5567  -20.9560  -14.3941 O   0  0  0  0  0  0  0  0  0  0  0  0
   20.3904  -19.1008  -13.8278 O   0  0  0  0  0  0  0  0  0  0  0  0
  2  1  1  6
  3  4  1  0
  3  2  1  0
  4  9  2  0
  5  6  2  0
  5  4  1  0
  6  7  1  0
  7  8  2  0
  9  8  1  0
 10 11  2  0
 10  2  1  0
 12 13  1  0
 13 15  1  0
 13 14  2  0
 16 15  1  1
 16 18  1  0
 16 17  1  0
 17 10  1  0
 18 19  2  0
 21 20  1  6
 22 21  1  0
 23 21  1  0
 23 24  1  6
 24 18  1  0
 25 27  1  0
 25 23  1  0
 26 25  2  0
M  END
$$$$
