FNV.pdb
     RDKit          3D

 27 27  0  0  1  0  0  0  0  0999 V2000
   19.5525  -12.9626  -18.5134 N   0  0  0  0  0  0  0  0  0  0  0  0
   19.6735  -11.6016  -19.0026 C   0  0  1  0  0  0  0  0  0  0  0  0
   18.5325  -11.4260  -20.0135 C   0  0  0  0  0  0  0  0  0  0  0  0
   18.9160  -12.0252  -21.3010 C   0  0  0  0  0  0  0  0  0  0  0  0
   18.4730  -13.2573  -21.7229 C   0  0  0  0  0  0  0  0  0  0  0  0
   18.8522  -13.7901  -22.9382 C   0  0  0  0  0  0  0  0  0  0  0  0
   19.6934  -13.0736  -23.7487 C   0  0  0  0  0  0  0  0  0  0  0  0
   20.1457  -11.8473  -23.3496 C   0  0  0  0  0  0  0  0  0  0  0  0
   19.7606  -11.3240  -22.1330 C   0  0  0  0  0  0  0  0  0  0  0  0
   19.4406  -10.6457  -17.8926 C   0  0  0  0  0  0  0  0  0  0  0  0
   18.6048  -10.9336  -16.9996 O   0  0  0  0  0  0  0  0  0  0  0  0
   19.8441   -6.7878  -14.2271 N   0  0  0  0  0  0  0  0  0  0  0  0
   20.8333   -7.7504  -14.4915 C   0  0  0  0  0  0  0  0  0  0  0  0
   21.7574   -7.8471  -13.6144 O   0  0  0  0  0  0  0  0  0  0  0  0
   20.9338   -8.6517  -15.6430 C   0  0  0  0  0  0  0  0  0  0  0  0
   19.8661   -8.4794  -16.6854 C   0  0  2  0  0  0  0  0  0  0  0  0
   20.1083   -9.4045  -17.7659 N   0  0  0  0  0  0  0  0  0  0  0  0
   19.8492   -7.0620  -17.1192 C   0  0  0  0  0  0  0  0  0  0  0  0
   20.8115   -6.5797  -17.7709 O   0  0  0  0  0  0  0  0  0  0  0  0
   16.9442   -3.4433  -18.4817 C   0  0  0  0  0  0  0  0  0  0  0  0
   17.2494   -4.7969  -17.9162 C   0  0  2  0  0  0  0  0  0  0  0  0
   16.2379   -5.2047  -16.8677 C   0  0  0  0  0  0  0  0  0  0  0  0
   18.6223   -4.8570  -17.2617 C   0  0  2  0  0  0  0  0  0  0  0  0
   18.7533   -6.2453  -16.8035 N   0  0  0  0  0  0  0  0  0  0  0  0
   18.5679   -3.9187  -16.1115 C   0  0  0  0  0  0  0  0  0  0  0  0
   18.1296   -4.3727  -15.0107 O   0  0  0  0  0  0  0  0  0  0  0  0
   18.9569   -2.6127  -16.1685 O   0  0  0  0  0  0  0  0  0  0  0  0
  2  1  1  1
  3  4  1  0
  3  2  1  0
  4  9  2  0
  5  6  2  0
  5  4  1  0
  6  7  1  0
  7  8  2  0
  9  8  1  0
 10 11  2  0
 10  2  1  0
 12 13  1  0
 13 15  1  0
 13 14  2  0
 16 15  1  1
 16 18  1  0
 16 17  1  0
 17 10  1  0
 18 19  2  0
 21 20  1  1
 22 21  1  0
 23 21  1  0
 23 24  1  1
 24 18  1  0
 25 27  1  0
 25 23  1  0
 26 25  2  0
M  END
$$$$
