FNV.pdb
     RDKit          3D

 27 27  0  0  1  0  0  0  0  0999 V2000
   27.3191  -21.4756  -15.3480 N   0  0  0  0  0  0  0  0  0  0  0  0
   26.0308  -21.6545  -15.9918 C   0  0  1  0  0  0  0  0  0  0  0  0
   25.7222  -23.1537  -15.8826 C   0  0  0  0  0  0  0  0  0  0  0  0
   26.0629  -23.8222  -17.1478 C   0  0  0  0  0  0  0  0  0  0  0  0
   25.2838  -23.7416  -18.2787 C   0  0  0  0  0  0  0  0  0  0  0  0
   25.6336  -24.3814  -19.4505 C   0  0  0  0  0  0  0  0  0  0  0  0
   26.7886  -25.1178  -19.4908 C   0  0  0  0  0  0  0  0  0  0  0  0
   27.5777  -25.2115  -18.3789 C   0  0  0  0  0  0  0  0  0  0  0  0
   27.2190  -24.5682  -17.2129 C   0  0  0  0  0  0  0  0  0  0  0  0
   24.9846  -20.9248  -15.2347 C   0  0  0  0  0  0  0  0  0  0  0  0
   24.9335  -21.0463  -13.9852 O   0  0  0  0  0  0  0  0  0  0  0  0
   21.3846  -17.1659  -13.8476 N   0  0  0  0  0  0  0  0  0  0  0  0
   21.8736  -17.0968  -15.1633 C   0  0  0  0  0  0  0  0  0  0  0  0
   21.5304  -16.0593  -15.8256 O   0  0  0  0  0  0  0  0  0  0  0  0
   22.7241  -18.0629  -15.8644 C   0  0  0  0  0  0  0  0  0  0  0  0
   23.0739  -19.2950  -15.0795 C   0  0  2  0  0  0  0  0  0  0  0  0
   24.0183  -20.0826  -15.8343 N   0  0  0  0  0  0  0  0  0  0  0  0
   21.8244  -20.0255  -14.7591 C   0  0  0  0  0  0  0  0  0  0  0  0
   21.2395  -20.7109  -15.6375 O   0  0  0  0  0  0  0  0  0  0  0  0
   19.1338  -21.6800  -10.9478 C   0  0  0  0  0  0  0  0  0  0  0  0
   20.2507  -20.8837  -11.5508 C   0  0  2  0  0  0  0  0  0  0  0  0
   20.3476  -19.5045  -10.9367 C   0  0  0  0  0  0  0  0  0  0  0  0
   20.0851  -20.6953  -13.0521 C   0  0  2  0  0  0  0  0  0  0  0  0
   21.2838  -19.9564  -13.4666 N   0  0  0  0  0  0  0  0  0  0  0  0
   18.8627  -19.8701  -13.2278 C   0  0  0  0  0  0  0  0  0  0  0  0
   19.0201  -18.6182  -13.3620 O   0  0  0  0  0  0  0  0  0  0  0  0
   17.5952  -20.3733  -13.2530 O   0  0  0  0  0  0  0  0  0  0  0  0
  2  1  1  1
  3  4  1  0
  3  2  1  0
  4  9  2  0
  5  6  2  0
  5  4  1  0
  6  7  1  0
  7  8  2  0
  9  8  1  0
 10 11  2  0
 10  2  1  0
 12 13  1  0
 13 15  1  0
 13 14  2  0
 16 15  1  6
 16 18  1  0
 16 17  1  0
 17 10  1  0
 18 19  2  0
 21 20  1  1
 22 21  1  0
 23 21  1  0
 23 24  1  1
 24 18  1  0
 25 27  1  0
 25 23  1  0
 26 25  2  0
M  END
$$$$
