FNV.pdb
     RDKit          3D

 27 27  0  0  1  0  0  0  0  0999 V2000
   27.7243  -22.3130  -13.3619 N   0  0  0  0  0  0  0  0  0  0  0  0
   27.0344  -21.8039  -12.1909 C   0  0  1  0  0  0  0  0  0  0  0  0
   27.7982  -20.5369  -11.7833 C   0  0  0  0  0  0  0  0  0  0  0  0
   27.6662  -20.3247  -10.3336 C   0  0  0  0  0  0  0  0  0  0  0  0
   28.5598  -20.8206   -9.4129 C   0  0  0  0  0  0  0  0  0  0  0  0
   28.4062  -20.6021   -8.0589 C   0  0  0  0  0  0  0  0  0  0  0  0
   27.3344  -19.8713   -7.6172 C   0  0  0  0  0  0  0  0  0  0  0  0
   26.4341  -19.3691   -8.5145 C   0  0  0  0  0  0  0  0  0  0  0  0
   26.5970  -19.5932   -9.8656 C   0  0  0  0  0  0  0  0  0  0  0  0
   25.6553  -21.3984  -12.5564 C   0  0  0  0  0  0  0  0  0  0  0  0
   25.3965  -21.1100  -13.7516 O   0  0  0  0  0  0  0  0  0  0  0  0
   19.8993  -20.4567  -10.4103 N   0  0  0  0  0  0  0  0  0  0  0  0
   20.8959  -21.2113  -11.0522 C   0  0  0  0  0  0  0  0  0  0  0  0
   20.4857  -21.9997  -11.9703 O   0  0  0  0  0  0  0  0  0  0  0  0
   22.3397  -21.2046  -10.7993 C   0  0  0  0  0  0  0  0  0  0  0  0
   23.2042  -21.1888  -12.0276 C   0  0  2  0  0  0  0  0  0  0  0  0
   24.5867  -21.3113  -11.6328 N   0  0  0  0  0  0  0  0  0  0  0  0
   22.9202  -19.9517  -12.7933 C   0  0  0  0  0  0  0  0  0  0  0  0
   23.0344  -18.8219  -12.2512 O   0  0  0  0  0  0  0  0  0  0  0  0
   22.8204  -20.4081  -16.7960 C   0  0  0  0  0  0  0  0  0  0  0  0
   22.9128  -19.0210  -16.2368 C   0  0  2  0  0  0  0  0  0  0  0  0
   24.3455  -18.6296  -15.9493 C   0  0  0  0  0  0  0  0  0  0  0  0
   22.1364  -18.8660  -14.9367 C   0  0  2  0  0  0  0  0  0  0  0  0
   22.5199  -20.0342  -14.1352 N   0  0  0  0  0  0  0  0  0  0  0  0
   20.6998  -18.9235  -15.3097 C   0  0  0  0  0  0  0  0  0  0  0  0
   20.2050  -17.9027  -15.8782 O   0  0  0  0  0  0  0  0  0  0  0  0
   19.8904  -19.9969  -15.0796 O   0  0  0  0  0  0  0  0  0  0  0  0
  2  1  1  6
  3  4  1  0
  3  2  1  0
  4  9  2  0
  5  6  2  0
  5  4  1  0
  6  7  1  0
  7  8  2  0
  9  8  1  0
 10 11  2  0
 10  2  1  0
 12 13  1  0
 13 15  1  0
 13 14  2  0
 16 15  1  1
 16 18  1  0
 16 17  1  0
 17 10  1  0
 18 19  2  0
 21 20  1  1
 22 21  1  0
 23 21  1  0
 23 24  1  1
 24 18  1  0
 25 27  1  0
 25 23  1  0
 26 25  2  0
M  END
$$$$
