EDT.pdb
     RDKit          3D

 25 24  0  0  1  0  0  0  0  0999 V2000
    9.6157  -15.6683   19.7780 N   0  0  0  0  0  0  0  0  0  0  0  0
    8.2519  -15.7715   20.1352 C   0  0  1  0  0  0  0  0  0  0  0  0
    7.3738  -16.6527   19.3284 C   0  0  0  0  0  0  0  0  0  0  0  0
    7.9259  -17.2318   18.0858 C   0  0  0  0  0  0  0  0  0  0  0  0
    7.0521  -18.1567   17.3908 C   0  0  0  0  0  0  0  0  0  0  0  0
    6.8083  -19.3154   17.7607 O   0  0  0  0  0  0  0  0  0  0  0  0
    8.1381  -16.1064   21.6090 C   0  0  0  0  0  0  0  0  0  0  0  0
    6.9991  -16.2368   22.1379 O   0  0  0  0  0  0  0  0  0  0  0  0
    6.4170  -17.7386   16.2041 O   0  0  0  0  0  0  0  0  0  0  0  0
    9.2660  -16.2846   22.4412 N   0  0  0  0  0  0  0  0  0  0  0  0
    9.1345  -16.5831   23.8583 C   0  0  1  0  0  0  0  0  0  0  0  0
   10.3470  -17.3744   24.2868 C   0  0  0  0  0  0  0  0  0  0  0  0
   10.3586  -17.6983   25.7252 C   0  0  0  0  0  0  0  0  0  0  0  0
    9.3087  -17.9552   26.3551 O   0  0  0  0  0  0  0  0  0  0  0  0
    9.1742  -15.2985   24.6106 C   0  0  0  0  0  0  0  0  0  0  0  0
   10.1399  -14.5064   24.4701 O   0  0  0  0  0  0  0  0  0  0  0  0
   11.6114  -17.7054   26.3612 O   0  0  0  0  0  0  0  0  0  0  0  0
    6.8441  -12.3057   24.5458 C   0  0  0  0  0  0  0  0  0  0  0  0
    6.9450  -12.8132   25.9561 C   0  0  1  0  0  0  0  0  0  0  0  0
    5.8619  -13.6974   26.1550 O   0  0  0  0  0  0  0  0  0  0  0  0
    8.1961  -13.6257   26.1928 C   0  0  2  0  0  0  0  0  0  0  0  0
    8.1465  -14.9034   25.5099 N   0  0  0  0  0  0  0  0  0  0  0  0
    8.4868  -13.8236   27.6139 C   0  0  0  0  0  0  0  0  0  0  0  0
    8.5709  -14.9899   28.0722 O   0  0  0  0  0  0  0  0  0  0  0  0
    8.6766  -12.7743   28.4918 O   0  0  0  0  0  0  0  0  0  0  0  0
  2  1  1  6
  3  4  1  0
  3  2  1  0
  5  4  1  0
  5  6  2  0
  7  2  1  0
  7  8  2  0
  9  5  1  0
 10  7  1  0
 11 10  1  0
 11 15  1  0
 11 12  1  1
 13 17  1  0
 13 12  1  0
 14 13  2  0
 15 22  1  0
 16 15  2  0
 19 18  1  6
 19 20  1  0
 19 21  1  0
 21 23  1  0
 21 22  1  6
 23 24  2  0
 23 25  1  0
M  END
$$$$
