EDT.pdb
     RDKit          3D

 25 24  0  0  1  0  0  0  0  0999 V2000
    9.4580  -16.6567   18.4327 N   0  0  0  0  0  0  0  0  0  0  0  0
    8.2420  -16.5942   19.1509 C   0  0  1  0  0  0  0  0  0  0  0  0
    7.0963  -17.4059   18.6747 C   0  0  0  0  0  0  0  0  0  0  0  0
    7.3470  -18.8190   18.3215 C   0  0  0  0  0  0  0  0  0  0  0  0
    6.1941  -19.5503   17.8338 C   0  0  0  0  0  0  0  0  0  0  0  0
    5.3043  -19.0725   17.1136 O   0  0  0  0  0  0  0  0  0  0  0  0
    8.5078  -16.8532   20.6205 C   0  0  0  0  0  0  0  0  0  0  0  0
    7.5402  -17.0167   21.4150 O   0  0  0  0  0  0  0  0  0  0  0  0
    6.0443  -20.9068   18.1862 O   0  0  0  0  0  0  0  0  0  0  0  0
    9.8117  -16.9230   21.1602 N   0  0  0  0  0  0  0  0  0  0  0  0
   10.0446  -17.1702   22.5742 C   0  0  1  0  0  0  0  0  0  0  0  0
   11.4838  -17.5929   22.7471 C   0  0  0  0  0  0  0  0  0  0  0  0
   11.7281  -19.0034   22.3941 C   0  0  0  0  0  0  0  0  0  0  0  0
   10.8139  -19.8573   22.4057 O   0  0  0  0  0  0  0  0  0  0  0  0
    9.8862  -15.8822   23.3046 C   0  0  0  0  0  0  0  0  0  0  0  0
   10.6382  -14.9078   23.0501 O   0  0  0  0  0  0  0  0  0  0  0  0
   13.0438  -19.3478   22.0416 O   0  0  0  0  0  0  0  0  0  0  0  0
    7.5393  -13.2267   23.1916 C   0  0  0  0  0  0  0  0  0  0  0  0
    7.5264  -13.6780   24.6243 C   0  0  1  0  0  0  0  0  0  0  0  0
    6.4684  -14.6043   24.7557 O   0  0  0  0  0  0  0  0  0  0  0  0
    8.7829  -14.4221   25.0102 C   0  0  2  0  0  0  0  0  0  0  0  0
    8.8988  -15.6850   24.3082 N   0  0  0  0  0  0  0  0  0  0  0  0
    8.8990  -14.6344   26.4540 C   0  0  0  0  0  0  0  0  0  0  0  0
    9.0138  -15.8025   26.9009 O   0  0  0  0  0  0  0  0  0  0  0  0
    8.8883  -13.5970   27.3659 O   0  0  0  0  0  0  0  0  0  0  0  0
  2  1  1  6
  3  4  1  0
  3  2  1  0
  5  4  1  0
  5  6  2  0
  7  2  1  0
  7  8  2  0
  9  5  1  0
 10  7  1  0
 11 10  1  0
 11 15  1  0
 11 12  1  6
 13 17  1  0
 13 12  1  0
 14 13  2  0
 15 22  1  0
 16 15  2  0
 19 18  1  6
 19 20  1  0
 19 21  1  0
 21 23  1  0
 21 22  1  6
 23 24  2  0
 23 25  1  0
M  END
$$$$
