EDT.pdb
     RDKit          3D

 25 24  0  0  1  0  0  0  0  0999 V2000
    9.7276  -17.8251   15.7717 N   0  0  0  0  0  0  0  0  0  0  0  0
    8.5433  -17.3868   16.4070 C   0  0  1  0  0  0  0  0  0  0  0  0
    7.2410  -17.8649   15.8836 C   0  0  0  0  0  0  0  0  0  0  0  0
    7.0520  -19.3216   15.7205 C   0  0  0  0  0  0  0  0  0  0  0  0
    5.7453  -19.7276   15.2412 C   0  0  0  0  0  0  0  0  0  0  0  0
    5.3141  -19.5200   14.0968 O   0  0  0  0  0  0  0  0  0  0  0  0
    8.6458  -17.6375   17.8983 C   0  0  0  0  0  0  0  0  0  0  0  0
    7.6614  -17.3843   18.6473 O   0  0  0  0  0  0  0  0  0  0  0  0
    4.8770  -20.4112   16.1160 O   0  0  0  0  0  0  0  0  0  0  0  0
    9.8120  -18.1517   18.5080 N   0  0  0  0  0  0  0  0  0  0  0  0
    9.8761  -18.4217   19.9355 C   0  0  1  0  0  0  0  0  0  0  0  0
   11.1671  -19.1519   20.2186 C   0  0  0  0  0  0  0  0  0  0  0  0
   11.1400  -20.5702   19.8168 C   0  0  0  0  0  0  0  0  0  0  0  0
   12.1117  -21.1168   19.2493 O   0  0  0  0  0  0  0  0  0  0  0  0
    9.9551  -17.1191   20.6529 C   0  0  0  0  0  0  0  0  0  0  0  0
   10.7211  -16.2107   20.2435 O   0  0  0  0  0  0  0  0  0  0  0  0
    9.9648  -21.2854   20.1020 O   0  0  0  0  0  0  0  0  0  0  0  0
    7.9691  -13.4160   22.9085 C   0  0  0  0  0  0  0  0  0  0  0  0
    7.9458  -14.7652   22.2485 C   0  0  1  0  0  0  0  0  0  0  0  0
    7.8328  -14.5427   20.8583 O   0  0  0  0  0  0  0  0  0  0  0  0
    9.2332  -15.5303   22.4454 C   0  0  2  0  0  0  0  0  0  0  0  0
    9.1869  -16.8348   21.8149 N   0  0  0  0  0  0  0  0  0  0  0  0
    9.6073  -15.6635   23.8544 C   0  0  0  0  0  0  0  0  0  0  0  0
    9.5277  -16.7856   24.4128 O   0  0  0  0  0  0  0  0  0  0  0  0
   10.0511  -14.5990   24.6144 O   0  0  0  0  0  0  0  0  0  0  0  0
  2  1  1  6
  3  4  1  0
  3  2  1  0
  5  4  1  0
  5  6  2  0
  7  2  1  0
  7  8  2  0
  9  5  1  0
 10  7  1  0
 11 10  1  0
 11 15  1  0
 11 12  1  6
 13 17  1  0
 13 12  1  0
 14 13  2  0
 15 22  1  0
 16 15  2  0
 19 18  1  1
 19 20  1  0
 19 21  1  0
 21 23  1  0
 21 22  1  1
 23 24  2  0
 23 25  1  0
M  END
$$$$
