EDT.pdb
     RDKit          3D

 25 24  0  0  1  0  0  0  0  0999 V2000
    6.4143  -15.6345   19.8488 N   0  0  0  0  0  0  0  0  0  0  0  0
    7.5263  -15.0073   20.4556 C   0  0  1  0  0  0  0  0  0  0  0  0
    7.6245  -13.5290   20.3962 C   0  0  0  0  0  0  0  0  0  0  0  0
    7.5573  -12.8825   19.0689 C   0  0  0  0  0  0  0  0  0  0  0  0
    8.6748  -13.1583   18.1874 C   0  0  0  0  0  0  0  0  0  0  0  0
    9.8582  -13.2450   18.5489 O   0  0  0  0  0  0  0  0  0  0  0  0
    7.6673  -15.4965   21.8832 C   0  0  0  0  0  0  0  0  0  0  0  0
    6.6398  -15.6408   22.6026 O   0  0  0  0  0  0  0  0  0  0  0  0
    8.4317  -13.3472   16.8119 O   0  0  0  0  0  0  0  0  0  0  0  0
    8.9172  -15.8069   22.4644 N   0  0  0  0  0  0  0  0  0  0  0  0
    9.0230  -16.3751   23.7987 C   0  0  1  0  0  0  0  0  0  0  0  0
   10.2148  -17.3019   23.8223 C   0  0  0  0  0  0  0  0  0  0  0  0
   10.0268  -18.5211   23.0148 C   0  0  0  0  0  0  0  0  0  0  0  0
   10.5260  -18.6440   21.8743 O   0  0  0  0  0  0  0  0  0  0  0  0
    9.3205  -15.2712   24.7529 C   0  0  0  0  0  0  0  0  0  0  0  0
   10.3002  -14.5078   24.5600 O   0  0  0  0  0  0  0  0  0  0  0  0
    9.2559  -19.5462   23.5882 O   0  0  0  0  0  0  0  0  0  0  0  0
    7.1073  -12.3272   25.7279 C   0  0  0  0  0  0  0  0  0  0  0  0
    7.5408  -13.0483   26.9723 C   0  0  1  0  0  0  0  0  0  0  0  0
    6.5149  -13.9626   27.2981 O   0  0  0  0  0  0  0  0  0  0  0  0
    8.7860  -13.8764   26.7597 C   0  0  2  0  0  0  0  0  0  0  0  0
    8.5324  -15.0230   25.9098 N   0  0  0  0  0  0  0  0  0  0  0  0
    9.4063  -14.3054   28.0145 C   0  0  0  0  0  0  0  0  0  0  0  0
    9.5177  -15.5315   28.2627 O   0  0  0  0  0  0  0  0  0  0  0  0
    9.8838  -13.4145   28.9557 O   0  0  0  0  0  0  0  0  0  0  0  0
  2  1  1  1
  3  4  1  0
  3  2  1  0
  5  4  1  0
  5  6  2  0
  7  2  1  0
  7  8  2  0
  9  5  1  0
 10  7  1  0
 11 10  1  0
 11 15  1  0
 11 12  1  6
 13 17  1  0
 13 12  1  0
 14 13  2  0
 15 22  1  0
 16 15  2  0
 19 18  1  6
 19 20  1  0
 19 21  1  0
 21 23  1  0
 21 22  1  6
 23 24  2  0
 23 25  1  0
M  END
$$$$
