EDT.pdb
     RDKit          3D

 25 24  0  0  1  0  0  0  0  0999 V2000
    8.3397  -17.4312   20.0461 N   0  0  0  0  0  0  0  0  0  0  0  0
    9.0799  -18.6219   20.2264 C   0  0  1  0  0  0  0  0  0  0  0  0
    9.6741  -19.2731   19.0342 C   0  0  0  0  0  0  0  0  0  0  0  0
   10.2478  -18.4057   17.9841 C   0  0  0  0  0  0  0  0  0  0  0  0
   10.9065  -19.1017   16.8961 C   0  0  0  0  0  0  0  0  0  0  0  0
   10.3221  -19.6661   15.9587 O   0  0  0  0  0  0  0  0  0  0  0  0
   10.1294  -18.4085   21.2990 C   0  0  0  0  0  0  0  0  0  0  0  0
   10.8433  -19.3770   21.6814 O   0  0  0  0  0  0  0  0  0  0  0  0
   12.3146  -19.1591   16.8728 O   0  0  0  0  0  0  0  0  0  0  0  0
   10.3558  -17.1534   21.9071 N   0  0  0  0  0  0  0  0  0  0  0  0
   11.3405  -16.9787   22.9628 C   0  0  1  0  0  0  0  0  0  0  0  0
   12.1735  -15.7634   22.6327 C   0  0  0  0  0  0  0  0  0  0  0  0
   13.4069  -16.0809   21.8898 C   0  0  0  0  0  0  0  0  0  0  0  0
   14.3090  -16.7968   22.3784 O   0  0  0  0  0  0  0  0  0  0  0  0
   10.6176  -16.6713   24.2279 C   0  0  0  0  0  0  0  0  0  0  0  0
   10.4023  -15.4802   24.5664 O   0  0  0  0  0  0  0  0  0  0  0  0
   13.5242  -15.5389   20.5989 O   0  0  0  0  0  0  0  0  0  0  0  0
    7.4698  -16.2805   25.2052 C   0  0  0  0  0  0  0  0  0  0  0  0
    7.9415  -17.3583   26.1391 C   0  0  1  0  0  0  0  0  0  0  0  0
    7.6339  -18.5952   25.5306 O   0  0  0  0  0  0  0  0  0  0  0  0
    9.4399  -17.3477   26.3288 C   0  0  2  0  0  0  0  0  0  0  0  0
   10.1408  -17.6833   25.1052 N   0  0  0  0  0  0  0  0  0  0  0  0
    9.8826  -18.2184   27.4193 C   0  0  0  0  0  0  0  0  0  0  0  0
   10.6568  -19.1759   27.1719 O   0  0  0  0  0  0  0  0  0  0  0  0
    9.4850  -18.0372   28.7296 O   0  0  0  0  0  0  0  0  0  0  0  0
  2  1  1  6
  3  4  1  0
  3  2  1  0
  5  4  1  0
  5  6  2  0
  7  2  1  0
  7  8  2  0
  9  5  1  0
 10  7  1  0
 11 10  1  0
 11 15  1  0
 11 12  1  6
 13 17  1  0
 13 12  1  0
 14 13  2  0
 15 22  1  0
 16 15  2  0
 19 18  1  6
 19 20  1  0
 19 21  1  0
 21 23  1  0
 21 22  1  6
 23 24  2  0
 23 25  1  0
M  END
$$$$
