EDT.pdb
     RDKit          3D

 25 24  0  0  1  0  0  0  0  0999 V2000
    9.1118  -12.4108   19.1409 N   0  0  0  0  0  0  0  0  0  0  0  0
    8.1180  -13.4148   19.0876 C   0  0  1  0  0  0  0  0  0  0  0  0
    7.7197  -13.9465   17.7621 C   0  0  0  0  0  0  0  0  0  0  0  0
    8.7329  -14.6828   16.9775 C   0  0  0  0  0  0  0  0  0  0  0  0
    8.2443  -15.3056   15.7628 C   0  0  0  0  0  0  0  0  0  0  0  0
    7.0916  -15.1876   15.3199 O   0  0  0  0  0  0  0  0  0  0  0  0
    8.4877  -14.5440   20.0287 C   0  0  0  0  0  0  0  0  0  0  0  0
    7.6403  -15.4402   20.2986 O   0  0  0  0  0  0  0  0  0  0  0  0
    9.1194  -16.1109   15.0063 O   0  0  0  0  0  0  0  0  0  0  0  0
    9.7604  -14.6486   20.6334 N   0  0  0  0  0  0  0  0  0  0  0  0
   10.1085  -15.7628   21.5006 C   0  0  1  0  0  0  0  0  0  0  0  0
   11.6053  -15.9531   21.4442 C   0  0  0  0  0  0  0  0  0  0  0  0
   12.0823  -16.4778   20.1515 C   0  0  0  0  0  0  0  0  0  0  0  0
   11.5314  -17.4485   19.5865 O   0  0  0  0  0  0  0  0  0  0  0  0
    9.7780  -15.3832   22.9022 C   0  0  0  0  0  0  0  0  0  0  0  0
   10.4796  -14.5413   23.5175 O   0  0  0  0  0  0  0  0  0  0  0  0
   13.1919  -15.8338   19.5788 O   0  0  0  0  0  0  0  0  0  0  0  0
    6.9846  -13.5374   24.2926 C   0  0  0  0  0  0  0  0  0  0  0  0
    7.0184  -14.8388   25.0421 C   0  0  1  0  0  0  0  0  0  0  0  0
    6.1024  -15.7053   24.4060 O   0  0  0  0  0  0  0  0  0  0  0  0
    8.3636  -15.5210   24.9610 C   0  0  2  0  0  0  0  0  0  0  0  0
    8.6759  -15.9381   23.6084 N   0  0  0  0  0  0  0  0  0  0  0  0
    8.4841  -16.6546   25.8795 C   0  0  0  0  0  0  0  0  0  0  0  0
    8.6521  -17.8104   25.4180 O   0  0  0  0  0  0  0  0  0  0  0  0
    8.4213  -16.5150   27.2522 O   0  0  0  0  0  0  0  0  0  0  0  0
  2  1  1  6
  3  4  1  0
  3  2  1  0
  5  4  1  0
  5  6  2  0
  7  2  1  0
  7  8  2  0
  9  5  1  0
 10  7  1  0
 11 10  1  0
 11 15  1  0
 11 12  1  1
 13 17  1  0
 13 12  1  0
 14 13  2  0
 15 22  1  0
 16 15  2  0
 19 18  1  6
 19 20  1  0
 19 21  1  0
 21 23  1  0
 21 22  1  6
 23 24  2  0
 23 25  1  0
M  END
$$$$
