EDT.pdb
     RDKit          3D

 25 24  0  0  1  0  0  0  0  0999 V2000
    9.8408  -17.1787   19.9430 N   0  0  0  0  0  0  0  0  0  0  0  0
   10.3785  -17.7690   21.1095 C   0  0  1  0  0  0  0  0  0  0  0  0
   11.8520  -17.8040   21.2702 C   0  0  0  0  0  0  0  0  0  0  0  0
   12.5554  -16.5240   21.4962 C   0  0  0  0  0  0  0  0  0  0  0  0
   14.0028  -16.6066   21.5155 C   0  0  0  0  0  0  0  0  0  0  0  0
   14.7059  -16.4897   22.5307 O   0  0  0  0  0  0  0  0  0  0  0  0
    9.7205  -17.1633   22.3333 C   0  0  0  0  0  0  0  0  0  0  0  0
    9.3717  -15.9498   22.3236 O   0  0  0  0  0  0  0  0  0  0  0  0
   14.6918  -16.8364   20.3076 O   0  0  0  0  0  0  0  0  0  0  0  0
    9.4712  -17.9025   23.5113 N   0  0  0  0  0  0  0  0  0  0  0  0
    8.7150  -17.3451   24.6213 C   0  0  1  0  0  0  0  0  0  0  0  0
    8.0004  -18.4773   25.3193 C   0  0  0  0  0  0  0  0  0  0  0  0
    8.8689  -19.6348   25.6016 C   0  0  0  0  0  0  0  0  0  0  0  0
   10.0362  -19.4983   26.0305 O   0  0  0  0  0  0  0  0  0  0  0  0
    9.6797  -16.7777   25.6038 C   0  0  0  0  0  0  0  0  0  0  0  0
   10.9169  -16.9332   25.4459 O   0  0  0  0  0  0  0  0  0  0  0  0
    8.3225  -20.9074   25.3655 O   0  0  0  0  0  0  0  0  0  0  0  0
    9.7747  -13.0437   26.5261 C   0  0  0  0  0  0  0  0  0  0  0  0
    9.7546  -13.8733   27.7782 C   0  0  1  0  0  0  0  0  0  0  0  0
    8.4069  -13.9663   28.1901 O   0  0  0  0  0  0  0  0  0  0  0  0
   10.2179  -15.2915   27.5428 C   0  0  2  0  0  0  0  0  0  0  0  0
    9.2667  -16.0449   26.7498 N   0  0  0  0  0  0  0  0  0  0  0  0
   10.5186  -16.0065   28.7844 C   0  0  0  0  0  0  0  0  0  0  0  0
    9.9473  -17.0990   29.0238 O   0  0  0  0  0  0  0  0  0  0  0  0
   11.4144  -15.5321   29.7226 O   0  0  0  0  0  0  0  0  0  0  0  0
  2  1  1  6
  3  4  1  0
  3  2  1  0
  5  4  1  0
  5  6  2  0
  7  2  1  0
  7  8  2  0
  9  5  1  0
 10  7  1  0
 11 10  1  0
 11 15  1  0
 11 12  1  1
 13 17  1  0
 13 12  1  0
 14 13  2  0
 15 22  1  0
 16 15  2  0
 19 18  1  6
 19 20  1  0
 19 21  1  0
 21 23  1  0
 21 22  1  1
 23 24  2  0
 23 25  1  0
M  END
$$$$
