EDT.pdb
     RDKit          3D

 25 24  0  0  1  0  0  0  0  0999 V2000
   12.0464  -14.9348   18.9141 N   0  0  0  0  0  0  0  0  0  0  0  0
   10.9759  -15.8580   18.9076 C   0  0  1  0  0  0  0  0  0  0  0  0
   10.6958  -16.6080   17.6596 C   0  0  0  0  0  0  0  0  0  0  0  0
   11.8308  -17.2588   16.9722 C   0  0  0  0  0  0  0  0  0  0  0  0
   11.4928  -17.9724   15.7563 C   0  0  0  0  0  0  0  0  0  0  0  0
   10.5476  -17.6860   15.0057 O   0  0  0  0  0  0  0  0  0  0  0  0
   11.1173  -16.8059   20.0818 C   0  0  0  0  0  0  0  0  0  0  0  0
   10.2287  -17.6766   20.2973 O   0  0  0  0  0  0  0  0  0  0  0  0
   12.2773  -19.0780   15.3705 O   0  0  0  0  0  0  0  0  0  0  0  0
   12.2170  -16.7654   20.9681 N   0  0  0  0  0  0  0  0  0  0  0  0
   12.3779  -17.7391   22.0361 C   0  0  1  0  0  0  0  0  0  0  0  0
   13.8417  -18.0969   22.1299 C   0  0  0  0  0  0  0  0  0  0  0  0
   14.2597  -19.1210   21.1550 C   0  0  0  0  0  0  0  0  0  0  0  0
   14.4727  -18.8444   19.9536 O   0  0  0  0  0  0  0  0  0  0  0  0
   12.0144  -17.0834   23.3229 C   0  0  0  0  0  0  0  0  0  0  0  0
   12.6596  -16.0869   23.7358 O   0  0  0  0  0  0  0  0  0  0  0  0
   14.4089  -20.4312   21.6396 O   0  0  0  0  0  0  0  0  0  0  0  0
    9.2943  -14.9950   24.2768 C   0  0  0  0  0  0  0  0  0  0  0  0
    9.2570  -16.1414   25.2468 C   0  0  1  0  0  0  0  0  0  0  0  0
    8.3548  -17.0945   24.7249 O   0  0  0  0  0  0  0  0  0  0  0  0
   10.5876  -16.8466   25.3640 C   0  0  2  0  0  0  0  0  0  0  0  0
   10.9421  -17.5361   24.1392 N   0  0  0  0  0  0  0  0  0  0  0  0
   10.6451  -17.7703   26.4983 C   0  0  0  0  0  0  0  0  0  0  0  0
   10.8038  -18.9985   26.2892 O   0  0  0  0  0  0  0  0  0  0  0  0
   10.5317  -17.3524   27.8099 O   0  0  0  0  0  0  0  0  0  0  0  0
  2  1  1  6
  3  4  1  0
  3  2  1  0
  5  4  1  0
  5  6  2  0
  7  2  1  0
  7  8  2  0
  9  5  1  0
 10  7  1  0
 11 10  1  0
 11 15  1  0
 11 12  1  1
 13 17  1  0
 13 12  1  0
 14 13  2  0
 15 22  1  0
 16 15  2  0
 19 18  1  6
 19 20  1  0
 19 21  1  0
 21 23  1  0
 21 22  1  6
 23 24  2  0
 23 25  1  0
M  END
$$$$
