EDT.pdb
     RDKit          3D

 25 24  0  0  1  0  0  0  0  0999 V2000
    7.0973  -19.6456   15.4821 N   0  0  0  0  0  0  0  0  0  0  0  0
    8.3826  -19.2831   15.9457 C   0  0  1  0  0  0  0  0  0  0  0  0
    9.2127  -18.3891   15.1031 C   0  0  0  0  0  0  0  0  0  0  0  0
    8.5813  -17.1713   14.5531 C   0  0  0  0  0  0  0  0  0  0  0  0
    9.4055  -16.4035   13.6404 C   0  0  0  0  0  0  0  0  0  0  0  0
   10.4439  -15.8033   13.9572 O   0  0  0  0  0  0  0  0  0  0  0  0
    8.2779  -18.7430   17.3581 C   0  0  0  0  0  0  0  0  0  0  0  0
    7.2180  -18.1697   17.7349 O   0  0  0  0  0  0  0  0  0  0  0  0
    9.0262  -16.3129   12.2860 O   0  0  0  0  0  0  0  0  0  0  0  0
    9.3286  -18.8502   18.2967 N   0  0  0  0  0  0  0  0  0  0  0  0
    9.1509  -18.4833   19.6925 C   0  0  1  0  0  0  0  0  0  0  0  0
   10.1649  -19.2450   20.5119 C   0  0  0  0  0  0  0  0  0  0  0  0
   10.0650  -18.9849   21.9598 C   0  0  0  0  0  0  0  0  0  0  0  0
   11.0765  -18.7880   22.6690 O   0  0  0  0  0  0  0  0  0  0  0  0
    9.4799  -17.0385   19.8399 C   0  0  0  0  0  0  0  0  0  0  0  0
   10.5598  -16.5807   19.3882 O   0  0  0  0  0  0  0  0  0  0  0  0
    8.7728  -18.9680   22.5110 O   0  0  0  0  0  0  0  0  0  0  0  0
    7.6506  -13.8563   18.6949 C   0  0  0  0  0  0  0  0  0  0  0  0
    7.8743  -13.7973   20.1791 C   0  0  1  0  0  0  0  0  0  0  0  0
    6.6924  -14.2666   20.7935 O   0  0  0  0  0  0  0  0  0  0  0  0
    8.9780  -14.7210   20.6373 C   0  0  2  0  0  0  0  0  0  0  0  0
    8.6122  -16.1154   20.4850 N   0  0  0  0  0  0  0  0  0  0  0  0
    9.4067  -14.4587   22.0123 C   0  0  0  0  0  0  0  0  0  0  0  0
    9.8978  -13.3405   22.3052 O   0  0  0  0  0  0  0  0  0  0  0  0
    9.2967  -15.3951   23.0216 O   0  0  0  0  0  0  0  0  0  0  0  0
  2  1  1  6
  3  4  1  0
  3  2  1  0
  5  4  1  0
  5  6  2  0
  7  2  1  0
  7  8  2  0
  9  5  1  0
 10  7  1  0
 11 10  1  0
 11 15  1  0
 11 12  1  1
 13 17  1  0
 13 12  1  0
 14 13  2  0
 15 22  1  0
 16 15  2  0
 19 18  1  6
 19 20  1  0
 19 21  1  0
 21 23  1  0
 21 22  1  1
 23 24  2  0
 23 25  1  0
M  END
$$$$
