SMP.pdb
     RDKit          3D

 22 22  0  0  1  0  0  0  0  0999 V2000
   10.8572  -18.6346   22.3501 O   0  0  0  0  0  0  0  0  0  0  0  0
    9.8235  -18.1336   21.5575 C   0  0  0  0  0  0  0  0  0  0  0  0
   10.0926  -16.6839   21.3258 C   0  0  2  0  0  0  0  0  0  0  0  0
   11.2808  -16.4894   20.5504 N   0  0  0  0  0  0  0  0  0  0  0  0
   10.1026  -15.9084   22.5883 C   0  0  0  0  0  0  0  0  0  0  0  0
   11.1614  -15.5610   23.1658 O   0  0  0  0  0  0  0  0  0  0  0  0
    6.2165  -11.7626   27.7494 C   0  0  0  0  0  0  0  0  0  0  0  0
    6.2379  -12.5524   26.1342 S   0  0  0  0  0  0  0  0  0  0  0  0
    7.2698  -14.0332   26.2240 C   0  0  0  0  0  0  0  0  0  0  0  0
    7.4005  -14.6750   24.8750 C   0  0  0  0  0  0  0  0  0  0  0  0
    8.8486  -14.9249   24.5319 C   0  0  2  0  0  0  0  0  0  0  0  0
    8.8778  -15.5282   23.1969 N   0  0  0  0  0  0  0  0  0  0  0  0
    9.3502  -15.8991   25.5420 C   0  0  0  0  0  0  0  0  0  0  0  0
    9.4251  -17.1131   25.1942 O   0  0  0  0  0  0  0  0  0  0  0  0
    9.7258  -15.4771   26.8345 N   0  0  0  0  0  0  0  0  0  0  0  0
    9.2387  -14.3039   27.5042 C   0  0  0  0  0  0  0  0  0  0  0  0
   10.5248  -13.7465   28.1316 C   0  0  0  0  0  0  0  0  0  0  0  0
   11.4025  -14.9595   28.3285 C   0  0  0  0  0  0  0  0  0  0  0  0
   10.6464  -16.1236   27.7411 C   0  0  1  0  0  0  0  0  0  0  0  0
    9.8899  -16.8524   28.7703 C   0  0  0  0  0  0  0  0  0  0  0  0
    8.5104  -16.8713   28.7405 O   0  0  0  0  0  0  0  0  0  0  0  0
   10.4790  -17.4670   29.6890 O   0  0  0  0  0  0  0  0  0  0  0  0
  1  2  1  0
  3  5  1  0
  3  2  1  0
  3  4  1  1
  5  6  2  0
  8  7  1  0
  8  9  1  0
  9 10  1  0
 11 10  1  1
 11 13  1  0
 12  5  1  0
 12 11  1  0
 13 15  1  0
 14 13  2  0
 15 16  1  0
 15 19  1  0
 17 16  1  0
 18 17  1  0
 18 19  1  0
 19 20  1  1
 20 21  1  0
 22 20  2  0
M  END
$$$$
