SMP.pdb
     RDKit          3D

 22 22  0  0  1  0  0  0  0  0999 V2000
    8.3267  -18.7142   20.7643 O   0  0  0  0  0  0  0  0  0  0  0  0
    7.2404  -17.9165   20.4015 C   0  0  0  0  0  0  0  0  0  0  0  0
    7.7356  -16.5161   20.2567 C   0  0  2  0  0  0  0  0  0  0  0  0
    8.6119  -16.3843   19.1315 N   0  0  0  0  0  0  0  0  0  0  0  0
    8.3364  -16.0030   21.5101 C   0  0  0  0  0  0  0  0  0  0  0  0
    9.5762  -15.9315   21.6916 O   0  0  0  0  0  0  0  0  0  0  0  0
    7.8253  -11.8271   27.8175 C   0  0  0  0  0  0  0  0  0  0  0  0
    7.0929  -12.3284   26.2537 S   0  0  0  0  0  0  0  0  0  0  0  0
    7.4013  -14.0915   26.0053 C   0  0  0  0  0  0  0  0  0  0  0  0
    6.9300  -14.5300   24.6508 C   0  0  0  0  0  0  0  0  0  0  0  0
    8.0639  -15.1162   23.8460 C   0  0  2  0  0  0  0  0  0  0  0  0
    7.5000  -15.5674   22.5712 N   0  0  0  0  0  0  0  0  0  0  0  0
    8.5620  -16.2851   24.6248 C   0  0  0  0  0  0  0  0  0  0  0  0
    7.8576  -17.3359   24.6139 O   0  0  0  0  0  0  0  0  0  0  0  0
    9.7734  -16.2160   25.3441 N   0  0  0  0  0  0  0  0  0  0  0  0
   10.5261  -15.0199   25.5991 C   0  0  0  0  0  0  0  0  0  0  0  0
   11.9641  -15.4972   25.3488 C   0  0  0  0  0  0  0  0  0  0  0  0
   11.9271  -16.9759   25.6535 C   0  0  0  0  0  0  0  0  0  0  0  0
   10.4903  -17.3023   25.9714 C   0  0  1  0  0  0  0  0  0  0  0  0
   10.2387  -17.2834   27.4202 C   0  0  0  0  0  0  0  0  0  0  0  0
    9.5164  -16.2548   27.9899 O   0  0  0  0  0  0  0  0  0  0  0  0
   10.6723  -18.1950   28.1616 O   0  0  0  0  0  0  0  0  0  0  0  0
  1  2  1  0
  3  5  1  0
  3  2  1  0
  3  4  1  6
  5  6  2  0
  8  7  1  0
  8  9  1  0
  9 10  1  0
 11 10  1  1
 11 13  1  0
 12  5  1  0
 12 11  1  0
 13 15  1  0
 14 13  2  0
 15 16  1  0
 15 19  1  0
 17 16  1  0
 18 17  1  0
 18 19  1  0
 19 20  1  1
 20 21  1  0
 22 20  2  0
M  END
$$$$
