SMP.pdb
     RDKit          3D

 22 22  0  0  1  0  0  0  0  0999 V2000
    7.0795  -18.6824   20.4691 O   0  0  0  0  0  0  0  0  0  0  0  0
    6.0315  -17.7647   20.3834 C   0  0  0  0  0  0  0  0  0  0  0  0
    6.6221  -16.4314   20.0658 C   0  0  2  0  0  0  0  0  0  0  0  0
    7.2701  -16.4366   18.7885 N   0  0  0  0  0  0  0  0  0  0  0  0
    7.5033  -15.9377   21.1498 C   0  0  0  0  0  0  0  0  0  0  0  0
    8.7559  -15.9668   21.0758 O   0  0  0  0  0  0  0  0  0  0  0  0
    7.7162  -11.5462   27.6518 C   0  0  0  0  0  0  0  0  0  0  0  0
    6.6666  -12.4482   26.5037 S   0  0  0  0  0  0  0  0  0  0  0  0
    7.7101  -13.4794   25.4485 C   0  0  0  0  0  0  0  0  0  0  0  0
    6.9245  -14.0293   24.2955 C   0  0  0  0  0  0  0  0  0  0  0  0
    7.7825  -14.9202   23.4311 C   0  0  2  0  0  0  0  0  0  0  0  0
    6.9366  -15.4043   22.3370 N   0  0  0  0  0  0  0  0  0  0  0  0
    8.1975  -16.0601   24.2967 C   0  0  0  0  0  0  0  0  0  0  0  0
    7.3350  -16.9538   24.5370 O   0  0  0  0  0  0  0  0  0  0  0  0
    9.5036  -16.1340   24.8243 N   0  0  0  0  0  0  0  0  0  0  0  0
   10.4328  -15.0424   24.9090 C   0  0  0  0  0  0  0  0  0  0  0  0
   11.7428  -15.7135   24.4706 C   0  0  0  0  0  0  0  0  0  0  0  0
   11.5644  -17.1654   24.8458 C   0  0  0  0  0  0  0  0  0  0  0  0
   10.1635  -17.2890   25.3881 C   0  0  1  0  0  0  0  0  0  0  0  0
   10.1412  -17.1982   26.8557 C   0  0  0  0  0  0  0  0  0  0  0  0
    9.8163  -16.0095   27.4767 O   0  0  0  0  0  0  0  0  0  0  0  0
   10.4151  -18.1920   27.5672 O   0  0  0  0  0  0  0  0  0  0  0  0
  1  2  1  0
  3  5  1  0
  3  2  1  0
  3  4  1  6
  5  6  2  0
  8  7  1  0
  8  9  1  0
  9 10  1  0
 11 10  1  1
 11 13  1  0
 12  5  1  0
 12 11  1  0
 13 15  1  0
 14 13  2  0
 15 16  1  0
 15 19  1  0
 17 16  1  0
 18 17  1  0
 18 19  1  0
 19 20  1  1
 20 21  1  0
 22 20  2  0
M  END
$$$$
