SMP.pdb
     RDKit          3D

 22 22  0  0  1  0  0  0  0  0999 V2000
    6.1822  -17.9922   20.4406 O   0  0  0  0  0  0  0  0  0  0  0  0
    7.5496  -17.8155   20.2236 C   0  0  0  0  0  0  0  0  0  0  0  0
    7.8069  -16.3484   20.1290 C   0  0  2  0  0  0  0  0  0  0  0  0
    8.5369  -16.0204   18.9412 N   0  0  0  0  0  0  0  0  0  0  0  0
    8.4428  -15.8120   21.3550 C   0  0  0  0  0  0  0  0  0  0  0  0
    9.6871  -15.7274   21.4957 O   0  0  0  0  0  0  0  0  0  0  0  0
    7.3598  -11.4337   27.5021 C   0  0  0  0  0  0  0  0  0  0  0  0
    6.4651  -12.7569   26.6764 S   0  0  0  0  0  0  0  0  0  0  0  0
    7.6545  -13.8300   25.8401 C   0  0  0  0  0  0  0  0  0  0  0  0
    7.2014  -14.1436   24.4453 C   0  0  0  0  0  0  0  0  0  0  0  0
    8.2333  -14.9650   23.7122 C   0  0  2  0  0  0  0  0  0  0  0  0
    7.6369  -15.3680   22.4360 N   0  0  0  0  0  0  0  0  0  0  0  0
    8.4834  -16.1655   24.5590 C   0  0  0  0  0  0  0  0  0  0  0  0
    7.5889  -17.0598   24.5816 O   0  0  0  0  0  0  0  0  0  0  0  0
    9.6742  -16.2937   25.3042 N   0  0  0  0  0  0  0  0  0  0  0  0
   10.6004  -15.2334   25.5871 C   0  0  0  0  0  0  0  0  0  0  0  0
   11.9503  -15.9304   25.3622 C   0  0  0  0  0  0  0  0  0  0  0  0
   11.6734  -17.3866   25.6510 C   0  0  0  0  0  0  0  0  0  0  0  0
   10.1964  -17.4839   25.9354 C   0  0  1  0  0  0  0  0  0  0  0  0
    9.9187  -17.4352   27.3786 C   0  0  0  0  0  0  0  0  0  0  0  0
    9.3798  -16.2995   27.9479 O   0  0  0  0  0  0  0  0  0  0  0  0
   10.1642  -18.4177   28.1157 O   0  0  0  0  0  0  0  0  0  0  0  0
  1  2  1  0
  3  5  1  0
  3  2  1  0
  3  4  1  6
  5  6  2  0
  8  7  1  0
  8  9  1  0
  9 10  1  0
 11 10  1  1
 11 13  1  0
 12  5  1  0
 12 11  1  0
 13 15  1  0
 14 13  2  0
 15 16  1  0
 15 19  1  0
 17 16  1  0
 18 17  1  0
 18 19  1  0
 19 20  1  1
 20 21  1  0
 22 20  2  0
M  END
$$$$
