SMP.pdb
     RDKit          3D

 22 22  0  0  1  0  0  0  0  0999 V2000
   10.2896  -18.4223   21.9095 O   0  0  0  0  0  0  0  0  0  0  0  0
    9.0993  -17.8465   21.4628 C   0  0  0  0  0  0  0  0  0  0  0  0
    9.3641  -16.4001   21.2072 C   0  0  2  0  0  0  0  0  0  0  0  0
   10.4263  -16.2212   20.2633 N   0  0  0  0  0  0  0  0  0  0  0  0
    9.5821  -15.6415   22.4611 C   0  0  0  0  0  0  0  0  0  0  0  0
   10.7247  -15.3491   22.8902 O   0  0  0  0  0  0  0  0  0  0  0  0
    5.9834  -11.0689   26.2334 C   0  0  0  0  0  0  0  0  0  0  0  0
    5.8548  -12.7487   26.8617 S   0  0  0  0  0  0  0  0  0  0  0  0
    7.3678  -13.6439   26.4435 C   0  0  0  0  0  0  0  0  0  0  0  0
    7.2924  -14.1985   25.0522 C   0  0  0  0  0  0  0  0  0  0  0  0
    8.6495  -14.6556   24.5766 C   0  0  2  0  0  0  0  0  0  0  0  0
    8.4707  -15.2142   23.2339 N   0  0  0  0  0  0  0  0  0  0  0  0
    9.0790  -15.7260   25.5205 C   0  0  0  0  0  0  0  0  0  0  0  0
    8.9966  -16.9233   25.1206 O   0  0  0  0  0  0  0  0  0  0  0  0
    9.5583  -15.4093   26.8088 N   0  0  0  0  0  0  0  0  0  0  0  0
    9.1404  -14.2882   27.6029 C   0  0  0  0  0  0  0  0  0  0  0  0
   10.4785  -13.7919   28.1701 C   0  0  0  0  0  0  0  0  0  0  0  0
   11.3516  -15.0236   28.2040 C   0  0  0  0  0  0  0  0  0  0  0  0
   10.5364  -16.1321   27.5887 C   0  0  1  0  0  0  0  0  0  0  0  0
    9.8509  -16.9331   28.6139 C   0  0  0  0  0  0  0  0  0  0  0  0
   10.5600  -17.8243   29.3931 O   0  0  0  0  0  0  0  0  0  0  0  0
    8.6170  -16.8232   28.7992 O   0  0  0  0  0  0  0  0  0  0  0  0
  1  2  1  0
  3  5  1  0
  3  2  1  0
  3  4  1  6
  5  6  2  0
  8  7  1  0
  8  9  1  0
  9 10  1  0
 11 10  1  1
 11 13  1  0
 12  5  1  0
 12 11  1  0
 13 15  1  0
 14 13  2  0
 15 16  1  0
 15 19  1  0
 17 16  1  0
 18 17  1  0
 18 19  1  0
 19 20  1  1
 20 21  1  0
 22 20  2  0
M  END
$$$$
