SMP.pdb
     RDKit          3D

 22 22  0  0  1  0  0  0  0  0999 V2000
    7.6321  -20.1764   23.4447 O   0  0  0  0  0  0  0  0  0  0  0  0
    6.8001  -20.4735   24.5252 C   0  0  0  0  0  0  0  0  0  0  0  0
    5.5551  -19.6644   24.3736 C   0  0  2  0  0  0  0  0  0  0  0  0
    4.6002  -20.3250   23.5351 N   0  0  0  0  0  0  0  0  0  0  0  0
    5.8390  -18.2789   23.9321 C   0  0  0  0  0  0  0  0  0  0  0  0
    5.7701  -17.9189   22.7317 O   0  0  0  0  0  0  0  0  0  0  0  0
    6.0062  -11.9432   27.1066 C   0  0  0  0  0  0  0  0  0  0  0  0
    7.5792  -12.7819   26.8713 S   0  0  0  0  0  0  0  0  0  0  0  0
    7.4739  -13.8113   25.3898 C   0  0  0  0  0  0  0  0  0  0  0  0
    6.8925  -15.1551   25.7141 C   0  0  0  0  0  0  0  0  0  0  0  0
    6.6922  -15.9751   24.4633 C   0  0  2  0  0  0  0  0  0  0  0  0
    6.2092  -17.2929   24.8839 N   0  0  0  0  0  0  0  0  0  0  0  0
    8.0367  -16.1028   23.8334 C   0  0  0  0  0  0  0  0  0  0  0  0
    8.7753  -17.0531   24.2230 O   0  0  0  0  0  0  0  0  0  0  0  0
    8.4633  -15.1956   22.8410 N   0  0  0  0  0  0  0  0  0  0  0  0
    7.9979  -13.8456   22.6882 C   0  0  0  0  0  0  0  0  0  0  0  0
    7.8269  -13.7454   21.1653 C   0  0  0  0  0  0  0  0  0  0  0  0
    8.8189  -14.7396   20.6101 C   0  0  0  0  0  0  0  0  0  0  0  0
    9.4418  -15.4201   21.8020 C   0  0  1  0  0  0  0  0  0  0  0  0
   10.7141  -14.7883   22.1823 C   0  0  0  0  0  0  0  0  0  0  0  0
   10.8345  -14.1335   23.3910 O   0  0  0  0  0  0  0  0  0  0  0  0
   11.7081  -14.8316   21.4213 O   0  0  0  0  0  0  0  0  0  0  0  0
  1  2  1  0
  3  5  1  0
  3  2  1  0
  3  4  1  6
  5  6  2  0
  8  7  1  0
  8  9  1  0
  9 10  1  0
 11 10  1  1
 11 13  1  0
 12  5  1  0
 12 11  1  0
 13 15  1  0
 14 13  2  0
 15 16  1  0
 15 19  1  0
 17 16  1  0
 18 17  1  0
 18 19  1  0
 19 20  1  1
 20 21  1  0
 22 20  2  0
M  END
$$$$
