KIH.pdb
     RDKit          3D

 28 28  0  0  1  0  0  0  0  0999 V2000
   28.4229  -27.4991  -16.6583 N   0  0  0  0  0  0  0  0  0  0  0  0
   27.2199  -26.9463  -17.2009 C   0  0  1  0  0  0  0  0  0  0  0  0
   26.2611  -28.0168  -17.6740 C   0  0  0  0  0  0  0  0  0  0  0  0
   26.7497  -28.7500  -18.8730 C   0  0  0  0  0  0  0  0  0  0  0  0
   26.4329  -28.1105  -20.1761 C   0  0  0  0  0  0  0  0  0  0  0  0
   26.8347  -28.9366  -21.3735 C   0  0  0  0  0  0  0  0  0  0  0  0
   26.4094  -28.1690  -22.5553 N   0  0  0  0  0  0  0  0  0  0  0  0
   26.5218  -26.0461  -16.2466 C   0  0  0  0  0  0  0  0  0  0  0  0
   26.5871  -26.3385  -15.0155 O   0  0  0  0  0  0  0  0  0  0  0  0
   26.0963  -20.1972  -15.4132 C   0  0  0  0  0  0  0  0  0  0  0  0
   25.2878  -21.4916  -15.1349 C   0  0  0  0  0  0  0  0  0  0  0  0
   25.8561  -22.5835  -15.9536 C   0  0  2  0  0  0  0  0  0  0  0  0
   25.6892  -22.2900  -17.4444 C   0  0  0  0  0  0  0  0  0  0  0  0
   25.2344  -23.9235  -15.7103 C   0  0  2  0  0  0  0  0  0  0  0  0
   25.8018  -24.8986  -16.6531 N   0  0  0  0  0  0  0  0  0  0  0  0
   23.7828  -23.8569  -15.9685 C   0  0  0  0  0  0  0  0  0  0  0  0
   23.3972  -23.3920  -17.0923 O   0  0  0  0  0  0  0  0  0  0  0  0
   22.7615  -24.2701  -15.0800 N   0  0  0  0  0  0  0  0  0  0  0  0
   21.3659  -24.0623  -15.4580 C   0  0  1  0  0  0  0  0  0  0  0  0
   20.5042  -25.1913  -14.9232 C   0  0  0  0  0  0  0  0  0  0  0  0
   20.7776  -26.4572  -15.6456 C   0  0  0  0  0  0  0  0  0  0  0  0
   21.6175  -26.6569  -16.7069 C   0  0  0  0  0  0  0  0  0  0  0  0
   21.5446  -27.9503  -17.0265 N   0  0  0  0  0  0  0  0  0  0  0  0
   20.6798  -28.5348  -16.1818 C   0  0  0  0  0  0  0  0  0  0  0  0
   20.1949  -27.6235  -15.3192 N   0  0  0  0  0  0  0  0  0  0  0  0
   20.8055  -22.8104  -14.9145 C   0  0  0  0  0  0  0  0  0  0  0  0
   19.5446  -22.4121  -15.3067 O   0  0  0  0  0  0  0  0  0  0  0  0
   21.4343  -22.0842  -14.1016 O   0  0  0  0  0  0  0  0  0  0  0  0
  2  1  1  1
  2  3  1  0
  3  4  1  0
  4  5  1  0
  5  6  1  0
  7  6  1  0
  8  2  1  0
  9  8  2  0
 10 11  1  0
 11 12  1  0
 12 14  1  0
 12 13  1  6
 14 15  1  6
 15  8  1  0
 16 14  1  0
 16 18  1  0
 17 16  2  0
 19 18  1  0
 19 26  1  0
 19 20  1  1
 20 21  1  0
 21 25  1  0
 22 21  2  0
 22 23  1  0
 23 24  1  0
 25 24  2  0
 26 27  1  0
 28 26  2  0
M  END
$$$$
