KIH.pdb
     RDKit          3D

 28 28  0  0  1  0  0  0  0  0999 V2000
   17.4908  -13.9504  -16.0360 N   0  0  0  0  0  0  0  0  0  0  0  0
   17.3987  -12.5281  -15.9107 C   0  0  1  0  0  0  0  0  0  0  0  0
   16.0091  -12.0776  -15.5166 C   0  0  0  0  0  0  0  0  0  0  0  0
   14.9469  -12.6078  -16.4135 C   0  0  0  0  0  0  0  0  0  0  0  0
   13.5634  -12.1899  -16.0688 C   0  0  0  0  0  0  0  0  0  0  0  0
   12.5179  -12.6879  -17.0365 C   0  0  0  0  0  0  0  0  0  0  0  0
   11.2205  -12.2723  -16.4791 N   0  0  0  0  0  0  0  0  0  0  0  0
   18.3877  -11.9724  -14.9508 C   0  0  0  0  0  0  0  0  0  0  0  0
   18.5731  -12.6089  -13.8711 O   0  0  0  0  0  0  0  0  0  0  0  0
   23.9315  -10.0594  -15.2247 C   0  0  0  0  0  0  0  0  0  0  0  0
   22.6912  -10.0183  -14.2938 C   0  0  0  0  0  0  0  0  0  0  0  0
   21.5010  -10.4008  -15.0827 C   0  0  2  0  0  0  0  0  0  0  0  0
   21.3500   -9.5032  -16.3107 C   0  0  0  0  0  0  0  0  0  0  0  0
   20.2096  -10.3152  -14.3302 C   0  0  2  0  0  0  0  0  0  0  0  0
   19.1150  -10.7836  -15.1927 N   0  0  0  0  0  0  0  0  0  0  0  0
   19.9240   -8.9095  -13.9831 C   0  0  0  0  0  0  0  0  0  0  0  0
   19.3279   -8.1895  -14.8515 O   0  0  0  0  0  0  0  0  0  0  0  0
   20.2463   -8.2742  -12.7601 N   0  0  0  0  0  0  0  0  0  0  0  0
   19.9224   -6.8601  -12.5886 C   0  0  1  0  0  0  0  0  0  0  0  0
   19.4953   -6.5898  -11.1577 C   0  0  0  0  0  0  0  0  0  0  0  0
   18.1081   -7.0569  -10.9193 C   0  0  0  0  0  0  0  0  0  0  0  0
   17.2461   -7.6282  -11.8149 C   0  0  0  0  0  0  0  0  0  0  0  0
   16.1131   -7.8855  -11.1591 N   0  0  0  0  0  0  0  0  0  0  0  0
   16.2725   -7.4822   -9.8882 C   0  0  0  0  0  0  0  0  0  0  0  0
   17.5037   -6.9661   -9.7224 N   0  0  0  0  0  0  0  0  0  0  0  0
   21.0691   -5.9727  -12.8612 C   0  0  0  0  0  0  0  0  0  0  0  0
   20.8643   -4.6103  -12.9268 O   0  0  0  0  0  0  0  0  0  0  0  0
   22.2359   -6.4095  -13.0380 O   0  0  0  0  0  0  0  0  0  0  0  0
  2  1  1  1
  2  3  1  0
  3  4  1  0
  4  5  1  0
  5  6  1  0
  7  6  1  0
  8  2  1  0
  9  8  2  0
 10 11  1  0
 11 12  1  0
 12 14  1  0
 12 13  1  6
 14 15  1  6
 15  8  1  0
 16 14  1  0
 16 18  1  0
 17 16  2  0
 19 18  1  0
 19 26  1  0
 19 20  1  1
 20 21  1  0
 21 25  1  0
 22 21  2  0
 22 23  1  0
 23 24  1  0
 25 24  2  0
 26 27  1  0
 28 26  2  0
M  END
$$$$
