KIH.pdb
     RDKit          3D

 28 28  0  0  1  0  0  0  0  0999 V2000
   24.2150  -14.1612  -19.1957 N   0  0  0  0  0  0  0  0  0  0  0  0
   24.3552  -12.7628  -18.9272 C   0  0  1  0  0  0  0  0  0  0  0  0
   25.0117  -12.0236  -20.0726 C   0  0  0  0  0  0  0  0  0  0  0  0
   26.3172  -12.6126  -20.4759 C   0  0  0  0  0  0  0  0  0  0  0  0
   27.0751  -11.8332  -21.4886 C   0  0  0  0  0  0  0  0  0  0  0  0
   28.4098  -12.4383  -21.8489 C   0  0  0  0  0  0  0  0  0  0  0  0
   29.0678  -11.4664  -22.7373 N   0  0  0  0  0  0  0  0  0  0  0  0
   23.0616  -12.1104  -18.5966 C   0  0  0  0  0  0  0  0  0  0  0  0
   22.1197  -12.2251  -19.4363 O   0  0  0  0  0  0  0  0  0  0  0  0
   19.5997  -13.7427  -15.6075 C   0  0  0  0  0  0  0  0  0  0  0  0
   20.3693  -12.9435  -16.6918 C   0  0  0  0  0  0  0  0  0  0  0  0
   20.8335  -11.6729  -16.0954 C   0  0  2  0  0  0  0  0  0  0  0  0
   19.6567  -10.8681  -15.5441 C   0  0  0  0  0  0  0  0  0  0  0  0
   21.5565  -10.7729  -17.0485 C   0  0  2  0  0  0  0  0  0  0  0  0
   22.8470  -11.3810  -17.4039 N   0  0  0  0  0  0  0  0  0  0  0  0
   21.8451   -9.4806  -16.3967 C   0  0  0  0  0  0  0  0  0  0  0  0
   22.6835   -9.4712  -15.4351 O   0  0  0  0  0  0  0  0  0  0  0  0
   21.2784   -8.2309  -16.7434 N   0  0  0  0  0  0  0  0  0  0  0  0
   21.7205   -7.0313  -16.0367 C   0  0  1  0  0  0  0  0  0  0  0  0
   21.9301   -5.8923  -17.0174 C   0  0  0  0  0  0  0  0  0  0  0  0
   23.0291   -6.2008  -17.9640 C   0  0  0  0  0  0  0  0  0  0  0  0
   24.2888   -6.6496  -17.6749 C   0  0  0  0  0  0  0  0  0  0  0  0
   24.9317   -6.7880  -18.8358 N   0  0  0  0  0  0  0  0  0  0  0  0
   24.0881   -6.4328  -19.8183 C   0  0  0  0  0  0  0  0  0  0  0  0
   22.9042   -6.0660  -19.2954 N   0  0  0  0  0  0  0  0  0  0  0  0
   20.7381   -6.5570  -15.0434 C   0  0  0  0  0  0  0  0  0  0  0  0
   21.0810   -5.5204  -14.2006 O   0  0  0  0  0  0  0  0  0  0  0  0
   19.5911   -7.0623  -14.9311 O   0  0  0  0  0  0  0  0  0  0  0  0
  2  1  1  6
  2  3  1  0
  3  4  1  0
  4  5  1  0
  5  6  1  0
  7  6  1  0
  8  2  1  0
  9  8  2  0
 10 11  1  0
 11 12  1  0
 12 14  1  0
 12 13  1  6
 14 15  1  1
 15  8  1  0
 16 14  1  0
 16 18  1  0
 17 16  2  0
 19 18  1  0
 19 26  1  0
 19 20  1  6
 20 21  1  0
 21 25  1  0
 22 21  2  0
 22 23  1  0
 23 24  1  0
 25 24  2  0
 26 27  1  0
 28 26  2  0
M  END
$$$$
