KIH.pdb
     RDKit          3D

 28 28  0  0  1  0  0  0  0  0999 V2000
   14.4180  -11.8124    3.5752 N   0  0  0  0  0  0  0  0  0  0  0  0
   14.8017  -11.9613    4.9455 C   0  0  1  0  0  0  0  0  0  0  0  0
   13.6640  -12.4648    5.8065 C   0  0  0  0  0  0  0  0  0  0  0  0
   12.6515  -11.4170    6.1077 C   0  0  0  0  0  0  0  0  0  0  0  0
   11.5020  -11.8691    6.9333 C   0  0  0  0  0  0  0  0  0  0  0  0
   10.4898  -10.7854    7.2133 C   0  0  0  0  0  0  0  0  0  0  0  0
    9.4711  -11.3981    8.0814 N   0  0  0  0  0  0  0  0  0  0  0  0
   15.9803  -12.8501    5.1171 C   0  0  0  0  0  0  0  0  0  0  0  0
   16.1815  -13.7293    4.2274 O   0  0  0  0  0  0  0  0  0  0  0  0
   20.6806  -10.7768    7.0483 C   0  0  0  0  0  0  0  0  0  0  0  0
   19.6455  -11.5629    6.2014 C   0  0  0  0  0  0  0  0  0  0  0  0
   19.1537  -12.7032    7.0036 C   0  0  2  0  0  0  0  0  0  0  0  0
   20.2981  -13.6516    7.3606 C   0  0  0  0  0  0  0  0  0  0  0  0
   18.1100  -13.5316    6.3213 C   0  0  2  0  0  0  0  0  0  0  0  0
   16.8676  -12.7529    6.2142 N   0  0  0  0  0  0  0  0  0  0  0  0
   17.8099  -14.7274    7.1327 C   0  0  0  0  0  0  0  0  0  0  0  0
   17.3008  -14.5516    8.2892 O   0  0  0  0  0  0  0  0  0  0  0  0
   18.0294  -16.0707    6.7447 N   0  0  0  0  0  0  0  0  0  0  0  0
   17.5861  -17.1457    7.6287 C   0  0  1  0  0  0  0  0  0  0  0  0
   17.3417  -18.4134    6.8311 C   0  0  0  0  0  0  0  0  0  0  0  0
   16.1075  -19.0983    7.2856 C   0  0  0  0  0  0  0  0  0  0  0  0
   15.2154  -18.6836    8.2363 C   0  0  0  0  0  0  0  0  0  0  0  0
   14.2625  -19.6143    8.3123 N   0  0  0  0  0  0  0  0  0  0  0  0
   14.5599  -20.5809    7.4289 C   0  0  0  0  0  0  0  0  0  0  0  0
   15.7006  -20.2769    6.7839 N   0  0  0  0  0  0  0  0  0  0  0  0
   18.5820  -17.4839    8.6634 C   0  0  0  0  0  0  0  0  0  0  0  0
   18.1912  -18.2328    9.7537 O   0  0  0  0  0  0  0  0  0  0  0  0
   19.7831  -17.1149    8.5931 O   0  0  0  0  0  0  0  0  0  0  0  0
  2  1  1  6
  2  3  1  0
  3  4  1  0
  4  5  1  0
  5  6  1  0
  7  6  1  0
  8  2  1  0
  9  8  2  0
 10 11  1  0
 11 12  1  0
 12 14  1  0
 12 13  1  6
 14 15  1  1
 15  8  1  0
 16 14  1  0
 16 18  1  0
 17 16  2  0
 19 18  1  0
 19 26  1  0
 19 20  1  6
 20 21  1  0
 21 25  1  0
 22 21  2  0
 22 23  1  0
 23 24  1  0
 25 24  2  0
 26 27  1  0
 28 26  2  0
M  END
$$$$
