KIH.pdb
     RDKit          3D

 28 28  0  0  1  0  0  0  0  0999 V2000
   28.4036  -22.5229  -15.6521 N   0  0  0  0  0  0  0  0  0  0  0  0
   27.6203  -21.3709  -15.3258 C   0  0  1  0  0  0  0  0  0  0  0  0
   26.8069  -20.8803  -16.5034 C   0  0  0  0  0  0  0  0  0  0  0  0
   27.5899  -20.8139  -17.7670 C   0  0  0  0  0  0  0  0  0  0  0  0
   28.6521  -19.7756  -17.7972 C   0  0  0  0  0  0  0  0  0  0  0  0
   29.3800  -19.6873  -19.1162 C   0  0  0  0  0  0  0  0  0  0  0  0
   30.4189  -18.6599  -18.9368 N   0  0  0  0  0  0  0  0  0  0  0  0
   26.7197  -21.6002  -14.1662 C   0  0  0  0  0  0  0  0  0  0  0  0
   25.8086  -22.4705  -14.2990 O   0  0  0  0  0  0  0  0  0  0  0  0
   28.4148  -20.3263   -9.0455 C   0  0  0  0  0  0  0  0  0  0  0  0
   27.8052  -21.1091  -10.2381 C   0  0  0  0  0  0  0  0  0  0  0  0
   26.5036  -20.4985  -10.5824 C   0  0  2  0  0  0  0  0  0  0  0  0
   25.4855  -20.7198   -9.4640 C   0  0  0  0  0  0  0  0  0  0  0  0
   25.8841  -21.0343  -11.8355 C   0  0  2  0  0  0  0  0  0  0  0  0
   26.8395  -20.8974  -12.9446 N   0  0  0  0  0  0  0  0  0  0  0  0
   24.6904  -20.2394  -12.1840 C   0  0  0  0  0  0  0  0  0  0  0  0
   24.8074  -19.3554  -13.0965 O   0  0  0  0  0  0  0  0  0  0  0  0
   23.4075  -20.3681  -11.6001 N   0  0  0  0  0  0  0  0  0  0  0  0
   22.2317  -20.3774  -12.4666 C   0  0  1  0  0  0  0  0  0  0  0  0
   22.2934  -21.5553  -13.4216 C   0  0  0  0  0  0  0  0  0  0  0  0
   22.4916  -21.0980  -14.8183 C   0  0  0  0  0  0  0  0  0  0  0  0
   22.4966  -19.8144  -15.2916 C   0  0  0  0  0  0  0  0  0  0  0  0
   22.7107  -19.8824  -16.6068 N   0  0  0  0  0  0  0  0  0  0  0  0
   22.8349  -21.1780  -16.9371 C   0  0  0  0  0  0  0  0  0  0  0  0
   22.7018  -21.9453  -15.8401 N   0  0  0  0  0  0  0  0  0  0  0  0
   20.9681  -20.5088  -11.7163 C   0  0  0  0  0  0  0  0  0  0  0  0
   20.8765  -21.4511  -10.7132 O   0  0  0  0  0  0  0  0  0  0  0  0
   19.9618  -19.7918  -11.9546 O   0  0  0  0  0  0  0  0  0  0  0  0
  2  1  1  6
  2  3  1  0
  3  4  1  0
  4  5  1  0
  5  6  1  0
  7  6  1  0
  8  2  1  0
  9  8  2  0
 10 11  1  0
 11 12  1  0
 12 14  1  0
 12 13  1  1
 14 15  1  6
 15  8  1  0
 16 14  1  0
 16 18  1  0
 17 16  2  0
 19 18  1  0
 19 26  1  0
 19 20  1  6
 20 21  1  0
 21 25  1  0
 22 21  2  0
 22 23  1  0
 23 24  1  0
 25 24  2  0
 26 27  1  0
 28 26  2  0
M  END
$$$$
