INP.pdb
     RDKit          3D

 24 24  0  0  1  0  0  0  0  0999 V2000
   27.5355  -18.7212  -18.4452 C   0  0  0  0  0  0  0  0  0  0  0  0
   27.7525  -19.3308  -17.1163 C   0  0  0  0  0  0  0  0  0  0  0  0
   26.6086  -19.9208  -16.3975 C   0  0  2  0  0  0  0  0  0  0  0  0
   25.4089  -18.9627  -16.3755 C   0  0  0  0  0  0  0  0  0  0  0  0
   26.8003  -20.4834  -15.0431 C   0  0  2  0  0  0  0  0  0  0  0  0
   27.8584  -21.5274  -15.1898 N   0  0  0  0  0  0  0  0  0  0  0  0
   25.6394  -21.0853  -14.3770 C   0  0  0  0  0  0  0  0  0  0  0  0
   25.1631  -22.1639  -14.7356 O   0  0  0  0  0  0  0  0  0  0  0  0
   25.9310  -22.1858  -10.8972 N   0  0  0  0  0  0  0  0  0  0  0  0
   25.1151  -21.1765  -10.3158 C   0  0  0  0  0  0  0  0  0  0  0  0
   25.3738  -20.8765   -9.1291 O   0  0  0  0  0  0  0  0  0  0  0  0
   24.0617  -20.5669  -11.0983 C   0  0  0  0  0  0  0  0  0  0  0  0
   23.8981  -21.0152  -12.5155 C   0  0  2  0  0  0  0  0  0  0  0  0
   25.0311  -20.4296  -13.2887 N   0  0  0  0  0  0  0  0  0  0  0  0
   22.7104  -20.5556  -13.2265 C   0  0  0  0  0  0  0  0  0  0  0  0
   22.7967  -19.3118  -13.6345 O   0  0  0  0  0  0  0  0  0  0  0  0
   21.5045  -21.1941  -13.5551 N   0  0  0  0  0  0  0  0  0  0  0  0
   21.0130  -22.5093  -13.2890 C   0  0  0  0  0  0  0  0  0  0  0  0
   19.8838  -22.8111  -14.2468 C   0  0  0  0  0  0  0  0  0  0  0  0
   19.8215  -21.6308  -15.1811 C   0  0  0  0  0  0  0  0  0  0  0  0
   20.4092  -20.5387  -14.3203 C   0  0  1  0  0  0  0  0  0  0  0  0
   19.3463  -20.0619  -13.4141 C   0  0  0  0  0  0  0  0  0  0  0  0
   19.3883  -20.2898  -12.1953 O   0  0  0  0  0  0  0  0  0  0  0  0
   18.2901  -19.3498  -13.9349 O   0  0  0  0  0  0  0  0  0  0  0  0
  1  2  1  0
  3  5  1  0
  3  2  1  0
  3  4  1  1
  5  6  1  6
  7  5  1  0
  7  8  2  0
 10 12  1  0
 10  9  1  0
 11 10  2  0
 13 12  1  1
 13 14  1  0
 14  7  1  0
 15 17  1  0
 15 13  1  0
 16 15  2  0
 17 18  1  0
 18 19  1  0
 19 20  1  0
 21 17  1  0
 21 22  1  1
 21 20  1  0
 22 24  1  0
 23 22  2  0
M  END
$$$$
