INP.pdb
     RDKit          3D

 24 24  0  0  1  0  0  0  0  0999 V2000
   27.2168  -19.1586   -5.3110 C   0  0  0  0  0  0  0  0  0  0  0  0
   26.0858  -19.4284   -6.2235 C   0  0  0  0  0  0  0  0  0  0  0  0
   26.3378  -20.1225   -7.4994 C   0  0  2  0  0  0  0  0  0  0  0  0
   27.4960  -19.4721   -8.2695 C   0  0  0  0  0  0  0  0  0  0  0  0
   25.2197  -20.3748   -8.4343 C   0  0  2  0  0  0  0  0  0  0  0  0
   24.2153  -21.1582   -7.6543 N   0  0  0  0  0  0  0  0  0  0  0  0
   25.5118  -21.0968   -9.6780 C   0  0  0  0  0  0  0  0  0  0  0  0
   25.7147  -22.3122   -9.6992 O   0  0  0  0  0  0  0  0  0  0  0  0
   25.4768  -24.0489  -13.7850 N   0  0  0  0  0  0  0  0  0  0  0  0
   24.6971  -22.8766  -13.5844 C   0  0  0  0  0  0  0  0  0  0  0  0
   23.9678  -22.5313  -14.5404 O   0  0  0  0  0  0  0  0  0  0  0  0
   24.7826  -22.1649  -12.3275 C   0  0  0  0  0  0  0  0  0  0  0  0
   25.8011  -21.0761  -12.2114 C   0  0  2  0  0  0  0  0  0  0  0  0
   25.5670  -20.4017  -10.9020 N   0  0  0  0  0  0  0  0  0  0  0  0
   25.7310  -19.9920  -13.1847 C   0  0  0  0  0  0  0  0  0  0  0  0
   24.7583  -19.1437  -12.9498 O   0  0  0  0  0  0  0  0  0  0  0  0
   26.5076  -19.6896  -14.3140 N   0  0  0  0  0  0  0  0  0  0  0  0
   27.5630  -20.3967  -14.9685 C   0  0  0  0  0  0  0  0  0  0  0  0
   28.3372  -19.4276  -15.8318 C   0  0  0  0  0  0  0  0  0  0  0  0
   27.7438  -18.0722  -15.5479 C   0  0  0  0  0  0  0  0  0  0  0  0
   26.3470  -18.4443  -15.1126 C   0  0  1  0  0  0  0  0  0  0  0  0
   25.5513  -18.6983  -16.3296 C   0  0  0  0  0  0  0  0  0  0  0  0
   25.0792  -19.8204  -16.5681 O   0  0  0  0  0  0  0  0  0  0  0  0
   25.3301  -17.6673  -17.2139 O   0  0  0  0  0  0  0  0  0  0  0  0
  1  2  1  0
  3  5  1  0
  3  2  1  0
  3  4  1  6
  5  6  1  1
  7  5  1  0
  7  8  2  0
 10 12  1  0
 10  9  1  0
 11 10  2  0
 13 12  1  6
 13 14  1  0
 14  7  1  0
 15 17  1  0
 15 13  1  0
 16 15  2  0
 17 18  1  0
 18 19  1  0
 19 20  1  0
 21 17  1  0
 21 22  1  6
 21 20  1  0
 22 24  1  0
 23 22  2  0
M  END
$$$$
