INP.pdb
     RDKit          3D

 24 24  0  0  1  0  0  0  0  0999 V2000
   25.3240  -20.9808   -7.9915 C   0  0  0  0  0  0  0  0  0  0  0  0
   25.6044  -20.1104   -9.1527 C   0  0  0  0  0  0  0  0  0  0  0  0
   25.3404  -20.6143  -10.5128 C   0  0  2  0  0  0  0  0  0  0  0  0
   26.0255  -21.9680  -10.7492 C   0  0  0  0  0  0  0  0  0  0  0  0
   25.5829  -19.7413  -11.6819 C   0  0  2  0  0  0  0  0  0  0  0  0
   24.7697  -18.5123  -11.4387 N   0  0  0  0  0  0  0  0  0  0  0  0
   25.2518  -20.2648  -13.0123 C   0  0  0  0  0  0  0  0  0  0  0  0
   24.1118  -20.2045  -13.4764 O   0  0  0  0  0  0  0  0  0  0  0  0
   27.0712  -18.7872  -15.8671 N   0  0  0  0  0  0  0  0  0  0  0  0
   27.8268  -19.9380  -16.2239 C   0  0  0  0  0  0  0  0  0  0  0  0
   28.9200  -19.7231  -16.7930 O   0  0  0  0  0  0  0  0  0  0  0  0
   27.3117  -21.2559  -15.9218 C   0  0  0  0  0  0  0  0  0  0  0  0
   26.0077  -21.3446  -15.1952 C   0  0  2  0  0  0  0  0  0  0  0  0
   26.2520  -20.8600  -13.8060 N   0  0  0  0  0  0  0  0  0  0  0  0
   25.4374  -22.6743  -15.0103 C   0  0  0  0  0  0  0  0  0  0  0  0
   25.9566  -23.3272  -13.9978 O   0  0  0  0  0  0  0  0  0  0  0  0
   24.4419  -23.3764  -15.7072 N   0  0  0  0  0  0  0  0  0  0  0  0
   23.7183  -23.0789  -16.9031 C   0  0  0  0  0  0  0  0  0  0  0  0
   22.4726  -23.9334  -16.9448 C   0  0  0  0  0  0  0  0  0  0  0  0
   22.4445  -24.6692  -15.6304 C   0  0  0  0  0  0  0  0  0  0  0  0
   23.9111  -24.6974  -15.2738 C   0  0  1  0  0  0  0  0  0  0  0  0
   24.5372  -25.7931  -16.0393 C   0  0  0  0  0  0  0  0  0  0  0  0
   25.3014  -25.5611  -16.9887 O   0  0  0  0  0  0  0  0  0  0  0  0
   24.2664  -27.0962  -15.6893 O   0  0  0  0  0  0  0  0  0  0  0  0
  1  2  1  0
  3  5  1  0
  3  2  1  0
  3  4  1  6
  5  6  1  1
  7  5  1  0
  7  8  2  0
 10 12  1  0
 10  9  1  0
 11 10  2  0
 13 12  1  6
 13 14  1  0
 14  7  1  0
 15 17  1  0
 15 13  1  0
 16 15  2  0
 17 18  1  0
 18 19  1  0
 19 20  1  0
 21 17  1  0
 21 22  1  6
 21 20  1  0
 22 24  1  0
 23 22  2  0
M  END
$$$$
