INP.pdb
     RDKit          3D

 24 24  0  0  1  0  0  0  0  0999 V2000
   17.1734  -17.6720  -18.3353 C   0  0  0  0  0  0  0  0  0  0  0  0
   17.2142  -16.2234  -18.0448 C   0  0  0  0  0  0  0  0  0  0  0  0
   18.5022  -15.5913  -17.7059 C   0  0  2  0  0  0  0  0  0  0  0  0
   19.1541  -16.2686  -16.4918 C   0  0  0  0  0  0  0  0  0  0  0  0
   18.5814  -14.1238  -17.5386 C   0  0  2  0  0  0  0  0  0  0  0  0
   18.1809  -13.5488  -18.8577 N   0  0  0  0  0  0  0  0  0  0  0  0
   19.8719  -13.5441  -17.1487 C   0  0  0  0  0  0  0  0  0  0  0  0
   20.4569  -13.8787  -16.1169 O   0  0  0  0  0  0  0  0  0  0  0  0
   24.0659  -10.2172  -17.5015 N   0  0  0  0  0  0  0  0  0  0  0  0
   23.5755  -10.6057  -18.7786 C   0  0  0  0  0  0  0  0  0  0  0  0
   24.2294  -10.2003  -19.7650 O   0  0  0  0  0  0  0  0  0  0  0  0
   22.3848  -11.4226  -18.8714 C   0  0  0  0  0  0  0  0  0  0  0  0
   21.7565  -11.8856  -17.5958 C   0  0  2  0  0  0  0  0  0  0  0  0
   20.4845  -12.5719  -17.9636 N   0  0  0  0  0  0  0  0  0  0  0  0
   21.3421  -10.8587  -16.6464 C   0  0  0  0  0  0  0  0  0  0  0  0
   20.1998  -10.2932  -16.9569 O   0  0  0  0  0  0  0  0  0  0  0  0
   21.9329  -10.3709  -15.4705 N   0  0  0  0  0  0  0  0  0  0  0  0
   23.1230  -10.7408  -14.7712 C   0  0  0  0  0  0  0  0  0  0  0  0
   23.0383  -10.2205  -13.3550 C   0  0  0  0  0  0  0  0  0  0  0  0
   21.6612   -9.6228  -13.2270 C   0  0  0  0  0  0  0  0  0  0  0  0
   21.3593   -9.2616  -14.6613 C   0  0  1  0  0  0  0  0  0  0  0  0
   22.0430   -7.9871  -14.9557 C   0  0  0  0  0  0  0  0  0  0  0  0
   23.0005   -7.9364  -15.7429 O   0  0  0  0  0  0  0  0  0  0  0  0
   21.6063   -6.8344  -14.3437 O   0  0  0  0  0  0  0  0  0  0  0  0
  1  2  1  0
  3  5  1  0
  3  2  1  0
  3  4  1  1
  5  6  1  6
  7  5  1  0
  7  8  2  0
 10 12  1  0
 10  9  1  0
 11 10  2  0
 13 12  1  6
 13 14  1  0
 14  7  1  0
 15 17  1  0
 15 13  1  0
 16 15  2  0
 17 18  1  0
 18 19  1  0
 19 20  1  0
 21 17  1  0
 21 22  1  6
 21 20  1  0
 22 24  1  0
 23 22  2  0
M  END
$$$$
