INP.pdb
     RDKit          3D

 24 24  0  0  1  0  0  0  0  0999 V2000
   20.6511  -14.5162  -19.3227 C   0  0  0  0  0  0  0  0  0  0  0  0
   21.5305  -13.3335  -19.2113 C   0  0  0  0  0  0  0  0  0  0  0  0
   20.9844  -12.0768  -18.6675 C   0  0  2  0  0  0  0  0  0  0  0  0
   19.7240  -11.6405  -19.4282 C   0  0  0  0  0  0  0  0  0  0  0  0
   21.8692  -10.9049  -18.4897 C   0  0  2  0  0  0  0  0  0  0  0  0
   22.9163  -11.3384  -17.5167 N   0  0  0  0  0  0  0  0  0  0  0  0
   21.2691   -9.6566  -18.0048 C   0  0  0  0  0  0  0  0  0  0  0  0
   20.3584   -9.0879  -18.6096 O   0  0  0  0  0  0  0  0  0  0  0  0
   20.5933   -5.4809  -14.7044 N   0  0  0  0  0  0  0  0  0  0  0  0
   21.1862   -6.5915  -14.0430 C   0  0  0  0  0  0  0  0  0  0  0  0
   21.3660   -6.4657  -12.8113 O   0  0  0  0  0  0  0  0  0  0  0  0
   21.5406   -7.7719  -14.8009 C   0  0  0  0  0  0  0  0  0  0  0  0
   21.1526   -7.8155  -16.2444 C   0  0  2  0  0  0  0  0  0  0  0  0
   21.7303   -9.0684  -16.8107 N   0  0  0  0  0  0  0  0  0  0  0  0
   21.6775   -6.7630  -17.1072 C   0  0  0  0  0  0  0  0  0  0  0  0
   22.9410   -6.9278  -17.4195 O   0  0  0  0  0  0  0  0  0  0  0  0
   21.0846   -5.6187  -17.6629 N   0  0  0  0  0  0  0  0  0  0  0  0
   19.7499   -5.1105  -17.6125 C   0  0  0  0  0  0  0  0  0  0  0  0
   19.5613   -4.1225  -18.7403 C   0  0  0  0  0  0  0  0  0  0  0  0
   20.8386   -4.1725  -19.5377 C   0  0  0  0  0  0  0  0  0  0  0  0
   21.8255   -4.6283  -18.4902 C   0  0  1  0  0  0  0  0  0  0  0  0
   22.2028   -3.4488  -17.6871 C   0  0  0  0  0  0  0  0  0  0  0  0
   21.8560   -3.3392  -16.5010 O   0  0  0  0  0  0  0  0  0  0  0  0
   22.9552   -2.4539  -18.2685 O   0  0  0  0  0  0  0  0  0  0  0  0
  1  2  1  0
  3  5  1  0
  3  2  1  0
  3  4  1  6
  5  6  1  1
  7  5  1  0
  7  8  2  0
 10 12  1  0
 10  9  1  0
 11 10  2  0
 13 12  1  1
 13 14  1  0
 14  7  1  0
 15 17  1  0
 15 13  1  0
 16 15  2  0
 17 18  1  0
 18 19  1  0
 19 20  1  0
 21 17  1  0
 21 22  1  1
 21 20  1  0
 22 24  1  0
 23 22  2  0
M  END
$$$$
