INP.pdb
     RDKit          3D

 24 24  0  0  1  0  0  0  0  0999 V2000
   18.6319  -15.0996  -15.7953 C   0  0  0  0  0  0  0  0  0  0  0  0
   17.7295  -14.1242  -16.4426 C   0  0  0  0  0  0  0  0  0  0  0  0
   18.2862  -12.8642  -16.9679 C   0  0  2  0  0  0  0  0  0  0  0  0
   19.2582  -13.1241  -18.1277 C   0  0  0  0  0  0  0  0  0  0  0  0
   18.8933  -11.8841  -16.0413 C   0  0  2  0  0  0  0  0  0  0  0  0
   17.8188  -11.5406  -15.0623 N   0  0  0  0  0  0  0  0  0  0  0  0
   19.4245  -10.6389  -16.6078 C   0  0  0  0  0  0  0  0  0  0  0  0
   20.4040  -10.6234  -17.3555 O   0  0  0  0  0  0  0  0  0  0  0  0
   16.1173   -7.6650  -18.8670 N   0  0  0  0  0  0  0  0  0  0  0  0
   17.5213   -7.6976  -18.6427 C   0  0  0  0  0  0  0  0  0  0  0  0
   18.2280   -8.0095  -19.6267 O   0  0  0  0  0  0  0  0  0  0  0  0
   18.0456   -7.3797  -17.3321 C   0  0  0  0  0  0  0  0  0  0  0  0
   19.2695   -8.1078  -16.8760 C   0  0  2  0  0  0  0  0  0  0  0  0
   18.8126   -9.4070  -16.3037 N   0  0  0  0  0  0  0  0  0  0  0  0
   20.0435   -7.5002  -15.7993 C   0  0  0  0  0  0  0  0  0  0  0  0
   19.5883   -7.7900  -14.6035 O   0  0  0  0  0  0  0  0  0  0  0  0
   21.1774   -6.6732  -15.8064 N   0  0  0  0  0  0  0  0  0  0  0  0
   21.9414   -6.1036  -16.8713 C   0  0  0  0  0  0  0  0  0  0  0  0
   23.2936   -5.6929  -16.3360 C   0  0  0  0  0  0  0  0  0  0  0  0
   23.3239   -6.1714  -14.9077 C   0  0  0  0  0  0  0  0  0  0  0  0
   21.8526   -6.1934  -14.5701 C   0  0  1  0  0  0  0  0  0  0  0  0
   21.4457   -4.8110  -14.2507 C   0  0  0  0  0  0  0  0  0  0  0  0
   20.7262   -4.1569  -15.0211 O   0  0  0  0  0  0  0  0  0  0  0  0
   21.8739   -4.2405  -13.0739 O   0  0  0  0  0  0  0  0  0  0  0  0
  1  2  1  0
  3  5  1  0
  3  2  1  0
  3  4  1  6
  5  6  1  1
  7  5  1  0
  7  8  2  0
 10 12  1  0
 10  9  1  0
 11 10  2  0
 13 12  1  1
 13 14  1  0
 14  7  1  0
 15 17  1  0
 15 13  1  0
 16 15  2  0
 17 18  1  0
 18 19  1  0
 19 20  1  0
 21 17  1  0
 21 22  1  6
 21 20  1  0
 22 24  1  0
 23 22  2  0
M  END
$$$$
