INP.pdb
     RDKit          3D

 24 24  0  0  1  0  0  0  0  0999 V2000
   22.9850  -21.2185   -7.0471 C   0  0  0  0  0  0  0  0  0  0  0  0
   23.7085  -20.2448   -7.8916 C   0  0  0  0  0  0  0  0  0  0  0  0
   24.5822  -20.7361   -8.9726 C   0  0  2  0  0  0  0  0  0  0  0  0
   26.0481  -20.7997   -8.5201 C   0  0  0  0  0  0  0  0  0  0  0  0
   24.5186  -20.1124  -10.3123 C   0  0  2  0  0  0  0  0  0  0  0  0
   23.0910  -20.2228  -10.7373 N   0  0  0  0  0  0  0  0  0  0  0  0
   25.3662  -20.6704  -11.3724 C   0  0  0  0  0  0  0  0  0  0  0  0
   26.5967  -20.6498  -11.3080 O   0  0  0  0  0  0  0  0  0  0  0  0
   25.8372  -24.7040  -15.6449 N   0  0  0  0  0  0  0  0  0  0  0  0
   25.2910  -23.3946  -15.5462 C   0  0  0  0  0  0  0  0  0  0  0  0
   25.2267  -22.7441  -16.6128 O   0  0  0  0  0  0  0  0  0  0  0  0
   24.8519  -22.8959  -14.2609 C   0  0  0  0  0  0  0  0  0  0  0  0
   25.5696  -21.7149  -13.6897 C   0  0  2  0  0  0  0  0  0  0  0  0
   24.7791  -21.2558  -12.5113 N   0  0  0  0  0  0  0  0  0  0  0  0
   25.6725  -20.5274  -14.5304 C   0  0  0  0  0  0  0  0  0  0  0  0
   24.6190  -19.7487  -14.4624 O   0  0  0  0  0  0  0  0  0  0  0  0
   26.6832  -20.0664  -15.3881 N   0  0  0  0  0  0  0  0  0  0  0  0
   27.9344  -20.6312  -15.7854 C   0  0  0  0  0  0  0  0  0  0  0  0
   28.8106  -19.5329  -16.3417 C   0  0  0  0  0  0  0  0  0  0  0  0
   28.0383  -18.2563  -16.1326 C   0  0  0  0  0  0  0  0  0  0  0  0
   26.6181  -18.7680  -16.1121 C   0  0  1  0  0  0  0  0  0  0  0  0
   26.1933  -18.9663  -17.5116 C   0  0  0  0  0  0  0  0  0  0  0  0
   25.9277  -20.0959  -17.9505 O   0  0  0  0  0  0  0  0  0  0  0  0
   26.0897  -17.8742  -18.3426 O   0  0  0  0  0  0  0  0  0  0  0  0
  1  2  1  0
  3  5  1  0
  3  2  1  0
  3  4  1  1
  5  6  1  6
  7  5  1  0
  7  8  2  0
 10 12  1  0
 10  9  1  0
 11 10  2  0
 13 12  1  6
 13 14  1  0
 14  7  1  0
 15 17  1  0
 15 13  1  0
 16 15  2  0
 17 18  1  0
 18 19  1  0
 19 20  1  0
 21 17  1  0
 21 22  1  6
 21 20  1  0
 22 24  1  0
 23 22  2  0
M  END
$$$$
