PQM.pdb
     RDKit          3D

 25 25  0  0  1  0  0  0  0  0999 V2000
   17.4838  -11.8000  -14.4014 N   0  0  0  0  0  0  0  0  0  0  0  0
   16.9259  -12.9420  -15.0761 C   0  0  0  0  0  0  0  0  0  0  0  0
   16.2526  -12.4392  -16.3292 C   0  0  0  0  0  0  0  0  0  0  0  0
   16.3431  -10.9246  -16.1800 C   0  0  0  0  0  0  0  0  0  0  0  0
   17.6481  -10.8120  -15.4180 C   0  0  1  0  0  0  0  0  0  0  0  0
   17.9047   -9.4569  -14.9005 C   0  0  0  0  0  0  0  0  0  0  0  0
   18.1543   -8.5549  -15.7316 O   0  0  0  0  0  0  0  0  0  0  0  0
   16.1921   -7.3819   -9.0411 N   0  0  0  0  0  0  0  0  0  0  0  0
   15.4445   -6.9664  -10.1711 C   0  0  0  0  0  0  0  0  0  0  0  0
   14.3043   -6.4878   -9.9901 O   0  0  0  0  0  0  0  0  0  0  0  0
   16.0018   -7.0991  -11.5095 C   0  0  0  0  0  0  0  0  0  0  0  0
   17.3442   -7.7273  -11.6077 C   0  0  0  0  0  0  0  0  0  0  0  0
   17.9552   -7.8211  -12.9537 C   0  0  2  0  0  0  0  0  0  0  0  0
   17.8732   -9.1702  -13.5116 N   0  0  0  0  0  0  0  0  0  0  0  0
   19.3329   -7.2897  -13.0442 C   0  0  0  0  0  0  0  0  0  0  0  0
   20.2518   -7.9019  -12.4623 O   0  0  0  0  0  0  0  0  0  0  0  0
   24.7455   -3.9103  -17.5460 C   0  0  0  0  0  0  0  0  0  0  0  0
   22.9940   -4.2787  -17.2405 S   0  0  0  0  0  0  0  0  0  0  0  0
   22.7452   -4.8241  -15.5185 C   0  0  0  0  0  0  0  0  0  0  0  0
   21.3154   -5.2527  -15.3208 C   0  0  0  0  0  0  0  0  0  0  0  0
   21.0741   -5.7508  -13.9159 C   0  0  2  0  0  0  0  0  0  0  0  0
   19.6501   -6.1101  -13.7670 N   0  0  0  0  0  0  0  0  0  0  0  0
   21.3436   -4.6930  -12.9263 C   0  0  0  0  0  0  0  0  0  0  0  0
   22.4993   -4.4061  -12.4769 O   0  0  0  0  0  0  0  0  0  0  0  0
   20.2628   -3.9366  -12.4316 O   0  0  0  0  0  0  0  0  0  0  0  0
  1  5  1  0
  2  1  1  0
  2  3  1  0
  3  4  1  0
  5  6  1  1
  5  4  1  0
  6  7  2  0
  8  9  1  0
  9 11  1  0
 10  9  2  0
 11 12  1  0
 13 12  1  1
 14  6  1  0
 14 13  1  0
 15 16  2  0
 15 13  1  0
 18 17  1  0
 19 20  1  0
 19 18  1  0
 21 20  1  6
 21 22  1  0
 22 15  1  0
 23 25  1  0
 23 21  1  0
 24 23  2  0
M  END
$$$$
