PQM.pdb
     RDKit          3D

 25 25  0  0  1  0  0  0  0  0999 V2000
   27.1691  -20.2966  -16.3318 N   0  0  0  0  0  0  0  0  0  0  0  0
   27.9674  -21.1018  -17.2178 C   0  0  0  0  0  0  0  0  0  0  0  0
   28.8051  -22.0181  -16.3605 C   0  0  0  0  0  0  0  0  0  0  0  0
   28.5207  -21.5178  -14.9487 C   0  0  0  0  0  0  0  0  0  0  0  0
   27.0911  -21.0451  -15.1193 C   0  0  1  0  0  0  0  0  0  0  0  0
   26.5927  -20.2717  -13.9689 C   0  0  0  0  0  0  0  0  0  0  0  0
   26.8906  -19.0573  -13.9119 O   0  0  0  0  0  0  0  0  0  0  0  0
   21.0821  -19.3931  -11.9751 N   0  0  0  0  0  0  0  0  0  0  0  0
   21.5332  -20.7362  -12.0096 C   0  0  0  0  0  0  0  0  0  0  0  0
   20.6827  -21.6514  -12.0403 O   0  0  0  0  0  0  0  0  0  0  0  0
   22.9585  -21.0324  -12.0083 C   0  0  0  0  0  0  0  0  0  0  0  0
   23.8738  -19.8777  -11.8205 C   0  0  0  0  0  0  0  0  0  0  0  0
   25.3264  -20.1622  -11.7660 C   0  0  2  0  0  0  0  0  0  0  0  0
   25.8022  -20.8695  -12.9540 N   0  0  0  0  0  0  0  0  0  0  0  0
   25.7770  -20.8360  -10.5283 C   0  0  0  0  0  0  0  0  0  0  0  0
   25.8630  -22.0811  -10.5200 O   0  0  0  0  0  0  0  0  0  0  0  0
   28.4830  -17.8527   -5.4202 C   0  0  0  0  0  0  0  0  0  0  0  0
   28.6297  -19.5822   -4.8873 S   0  0  0  0  0  0  0  0  0  0  0  0
   27.5802  -20.6607   -5.9169 C   0  0  0  0  0  0  0  0  0  0  0  0
   27.3746  -20.0317   -7.2694 C   0  0  0  0  0  0  0  0  0  0  0  0
   26.5154  -20.8972   -8.1596 C   0  0  2  0  0  0  0  0  0  0  0  0
   26.1149  -20.1211   -9.3497 N   0  0  0  0  0  0  0  0  0  0  0  0
   25.2695  -21.2860   -7.4759 C   0  0  0  0  0  0  0  0  0  0  0  0
   24.1342  -20.7527   -7.6918 O   0  0  0  0  0  0  0  0  0  0  0  0
   25.3165  -22.3154   -6.5151 O   0  0  0  0  0  0  0  0  0  0  0  0
  1  5  1  0
  2  1  1  0
  2  3  1  0
  3  4  1  0
  5  6  1  1
  5  4  1  0
  6  7  2  0
  8  9  1  0
  9 11  1  0
 10  9  2  0
 11 12  1  0
 13 12  1  6
 14  6  1  0
 14 13  1  0
 15 16  2  0
 15 13  1  0
 18 17  1  0
 19 20  1  0
 19 18  1  0
 21 20  1  1
 21 22  1  0
 22 15  1  0
 23 25  1  0
 23 21  1  0
 24 23  2  0
M  END
$$$$
