PQM.pdb
     RDKit          3D

 25 25  0  0  1  0  0  0  0  0999 V2000
   27.8662  -20.6617  -15.8917 N   0  0  0  0  0  0  0  0  0  0  0  0
   28.4219  -20.3418  -17.1799 C   0  0  0  0  0  0  0  0  0  0  0  0
   28.8160  -18.8857  -17.1505 C   0  0  0  0  0  0  0  0  0  0  0  0
   28.2672  -18.4116  -15.8095 C   0  0  0  0  0  0  0  0  0  0  0  0
   28.4068  -19.6859  -15.0017 C   0  0  1  0  0  0  0  0  0  0  0  0
   27.7276  -19.6245  -13.6959 C   0  0  0  0  0  0  0  0  0  0  0  0
   28.1088  -18.7526  -12.8828 O   0  0  0  0  0  0  0  0  0  0  0  0
   21.6805  -20.9555  -14.1261 N   0  0  0  0  0  0  0  0  0  0  0  0
   21.7663  -20.5104  -12.7833 C   0  0  0  0  0  0  0  0  0  0  0  0
   20.7116  -20.4001  -12.1219 O   0  0  0  0  0  0  0  0  0  0  0  0
   23.0599  -20.1908  -12.1969 C   0  0  0  0  0  0  0  0  0  0  0  0
   24.2511  -20.4353  -13.0497 C   0  0  0  0  0  0  0  0  0  0  0  0
   25.5815  -20.1814  -12.4500 C   0  0  2  0  0  0  0  0  0  0  0  0
   26.6770  -20.5161  -13.3587 N   0  0  0  0  0  0  0  0  0  0  0  0
   25.7859  -20.7957  -11.1197 C   0  0  0  0  0  0  0  0  0  0  0  0
   25.7908  -22.0404  -11.0276 O   0  0  0  0  0  0  0  0  0  0  0  0
   29.2945  -18.9604   -5.8819 C   0  0  0  0  0  0  0  0  0  0  0  0
   27.7097  -19.4189   -5.1235 S   0  0  0  0  0  0  0  0  0  0  0  0
   26.7261  -20.4446   -6.2659 C   0  0  0  0  0  0  0  0  0  0  0  0
   26.7680  -19.8509   -7.6490 C   0  0  0  0  0  0  0  0  0  0  0  0
   26.0745  -20.7377   -8.6552 C   0  0  2  0  0  0  0  0  0  0  0  0
   25.9762  -20.0240   -9.9437 N   0  0  0  0  0  0  0  0  0  0  0  0
   24.6935  -21.0341   -8.2358 C   0  0  0  0  0  0  0  0  0  0  0  0
   24.3848  -21.7994   -7.2667 O   0  0  0  0  0  0  0  0  0  0  0  0
   23.6286  -20.4403   -8.9417 O   0  0  0  0  0  0  0  0  0  0  0  0
  1  5  1  0
  2  1  1  0
  2  3  1  0
  3  4  1  0
  5  6  1  1
  5  4  1  0
  6  7  2  0
  8  9  1  0
  9 11  1  0
 10  9  2  0
 11 12  1  0
 13 12  1  6
 14  6  1  0
 14 13  1  0
 15 16  2  0
 15 13  1  0
 18 17  1  0
 19 20  1  0
 19 18  1  0
 21 20  1  1
 21 22  1  0
 22 15  1  0
 23 25  1  0
 23 21  1  0
 24 23  2  0
M  END
$$$$
