PQM.pdb
     RDKit          3D

 25 25  0  0  1  0  0  0  0  0999 V2000
   17.1055  -11.0134  -15.7324 N   0  0  0  0  0  0  0  0  0  0  0  0
   17.6387  -12.2340  -16.2770 C   0  0  0  0  0  0  0  0  0  0  0  0
   19.0771  -12.3338  -15.8329 C   0  0  0  0  0  0  0  0  0  0  0  0
   19.3190  -10.9886  -15.1576 C   0  0  0  0  0  0  0  0  0  0  0  0
   17.9332  -10.7158  -14.6087 C   0  0  1  0  0  0  0  0  0  0  0  0
   17.7714   -9.3460  -14.0916 C   0  0  0  0  0  0  0  0  0  0  0  0
   17.4461   -8.4521  -14.9051 O   0  0  0  0  0  0  0  0  0  0  0  0
   15.2771   -7.5637   -8.6959 N   0  0  0  0  0  0  0  0  0  0  0  0
   15.9385   -6.3739   -9.0903 C   0  0  0  0  0  0  0  0  0  0  0  0
   15.7168   -5.3258   -8.4468 O   0  0  0  0  0  0  0  0  0  0  0  0
   16.8539   -6.3834  -10.2223 C   0  0  0  0  0  0  0  0  0  0  0  0
   17.0696   -7.6937  -10.8875 C   0  0  0  0  0  0  0  0  0  0  0  0
   17.8316   -7.6953  -12.1576 C   0  0  2  0  0  0  0  0  0  0  0  0
   17.9740   -9.0366  -12.7220 N   0  0  0  0  0  0  0  0  0  0  0  0
   19.1371   -7.0021  -12.0947 C   0  0  0  0  0  0  0  0  0  0  0  0
   20.0962   -7.5776  -11.5408 O   0  0  0  0  0  0  0  0  0  0  0  0
   21.9124   -6.7992  -17.8269 C   0  0  0  0  0  0  0  0  0  0  0  0
   22.3967   -6.8674  -16.0783 S   0  0  0  0  0  0  0  0  0  0  0  0
   21.2493   -5.8849  -15.0572 C   0  0  0  0  0  0  0  0  0  0  0  0
   21.5405   -6.1149  -13.5979 C   0  0  0  0  0  0  0  0  0  0  0  0
   20.7245   -5.1988  -12.7177 C   0  0  2  0  0  0  0  0  0  0  0  0
   19.3410   -5.7074  -12.6395 N   0  0  0  0  0  0  0  0  0  0  0  0
   20.6401   -3.8464  -13.2964 C   0  0  0  0  0  0  0  0  0  0  0  0
   19.6005   -3.3652  -13.8511 O   0  0  0  0  0  0  0  0  0  0  0  0
   21.7755   -3.0140  -13.2422 O   0  0  0  0  0  0  0  0  0  0  0  0
  1  5  1  0
  2  1  1  0
  2  3  1  0
  3  4  1  0
  5  6  1  6
  5  4  1  0
  6  7  2  0
  8  9  1  0
  9 11  1  0
 10  9  2  0
 11 12  1  0
 13 12  1  1
 14  6  1  0
 14 13  1  0
 15 16  2  0
 15 13  1  0
 18 17  1  0
 19 20  1  0
 19 18  1  0
 21 20  1  6
 21 22  1  0
 22 15  1  0
 23 25  1  0
 23 21  1  0
 24 23  2  0
M  END
$$$$
