PQM.pdb
     RDKit          3D

 25 25  0  0  1  0  0  0  0  0999 V2000
   24.4194  -21.9678  -15.8746 N   0  0  0  0  0  0  0  0  0  0  0  0
   23.8874  -22.0190  -17.2106 C   0  0  0  0  0  0  0  0  0  0  0  0
   25.0525  -21.9108  -18.1630 C   0  0  0  0  0  0  0  0  0  0  0  0
   26.2261  -21.6220  -17.2337 C   0  0  0  0  0  0  0  0  0  0  0  0
   25.7794  -22.3812  -16.0007 C   0  0  1  0  0  0  0  0  0  0  0  0
   26.6040  -22.0989  -14.8131 C   0  0  0  0  0  0  0  0  0  0  0  0
   27.8099  -22.4320  -14.8500 O   0  0  0  0  0  0  0  0  0  0  0  0
   25.8823  -17.9496  -15.2811 N   0  0  0  0  0  0  0  0  0  0  0  0
   27.2854  -18.0803  -15.1297 C   0  0  0  0  0  0  0  0  0  0  0  0
   28.0288  -17.5991  -16.0115 O   0  0  0  0  0  0  0  0  0  0  0  0
   27.8382  -18.7628  -13.9687 C   0  0  0  0  0  0  0  0  0  0  0  0
   26.8610  -19.2648  -12.9692 C   0  0  0  0  0  0  0  0  0  0  0  0
   26.8578  -20.7197  -12.6913 C   0  0  2  0  0  0  0  0  0  0  0  0
   26.0631  -21.4720  -13.6612 N   0  0  0  0  0  0  0  0  0  0  0  0
   26.4896  -21.0822  -11.3050 C   0  0  0  0  0  0  0  0  0  0  0  0
   25.4545  -21.7531  -11.1147 O   0  0  0  0  0  0  0  0  0  0  0  0
   29.3648  -20.2529   -4.8486 C   0  0  0  0  0  0  0  0  0  0  0  0
   27.8884  -19.2802   -5.2623 S   0  0  0  0  0  0  0  0  0  0  0  0
   26.8470  -20.1757   -6.4615 C   0  0  0  0  0  0  0  0  0  0  0  0
   27.4433  -20.0623   -7.8395 C   0  0  0  0  0  0  0  0  0  0  0  0
   26.7025  -20.9196   -8.8375 C   0  0  2  0  0  0  0  0  0  0  0  0
   27.2678  -20.6959  -10.1827 N   0  0  0  0  0  0  0  0  0  0  0  0
   25.2819  -20.5358   -8.9126 C   0  0  0  0  0  0  0  0  0  0  0  0
   24.8250  -19.6122   -9.6597 O   0  0  0  0  0  0  0  0  0  0  0  0
   24.3504  -21.2255   -8.1115 O   0  0  0  0  0  0  0  0  0  0  0  0
  1  5  1  0
  2  1  1  0
  2  3  1  0
  3  4  1  0
  5  6  1  1
  5  4  1  0
  6  7  2  0
  8  9  1  0
  9 11  1  0
 10  9  2  0
 11 12  1  0
 13 12  1  1
 14  6  1  0
 14 13  1  0
 15 16  2  0
 15 13  1  0
 18 17  1  0
 19 20  1  0
 19 18  1  0
 21 20  1  1
 21 22  1  0
 22 15  1  0
 23 25  1  0
 23 21  1  0
 24 23  2  0
M  END
$$$$
