PQM.pdb
     RDKit          3D

 25 25  0  0  1  0  0  0  0  0999 V2000
   24.0616  -20.4013  -16.7135 N   0  0  0  0  0  0  0  0  0  0  0  0
   23.8337  -20.0827  -18.0982 C   0  0  0  0  0  0  0  0  0  0  0  0
   23.8444  -18.5791  -18.2212 C   0  0  0  0  0  0  0  0  0  0  0  0
   23.9203  -18.1192  -16.7697 C   0  0  0  0  0  0  0  0  0  0  0  0
   24.7232  -19.2578  -16.1737 C   0  0  1  0  0  0  0  0  0  0  0  0
   24.7673  -19.2307  -14.7015 C   0  0  0  0  0  0  0  0  0  0  0  0
   25.2530  -18.2158  -14.1531 O   0  0  0  0  0  0  0  0  0  0  0  0
   19.5344  -21.3294  -12.5784 N   0  0  0  0  0  0  0  0  0  0  0  0
   19.8563  -19.9820  -12.8774 C   0  0  0  0  0  0  0  0  0  0  0  0
   18.9264  -19.1901  -13.1421 O   0  0  0  0  0  0  0  0  0  0  0  0
   21.2436  -19.5403  -12.8739 C   0  0  0  0  0  0  0  0  0  0  0  0
   22.2650  -20.5710  -12.5570 C   0  0  0  0  0  0  0  0  0  0  0  0
   23.6861  -20.1550  -12.5932 C   0  0  2  0  0  0  0  0  0  0  0  0
   24.2799  -20.3098  -13.9204 N   0  0  0  0  0  0  0  0  0  0  0  0
   24.5368  -20.7742  -11.5532 C   0  0  0  0  0  0  0  0  0  0  0  0
   24.8074  -21.9893  -11.6441 O   0  0  0  0  0  0  0  0  0  0  0  0
   27.5172  -18.3298   -5.4281 C   0  0  0  0  0  0  0  0  0  0  0  0
   28.4506  -19.3023   -6.6446 S   0  0  0  0  0  0  0  0  0  0  0  0
   27.3560  -20.4900   -7.4907 C   0  0  0  0  0  0  0  0  0  0  0  0
   26.6936  -19.8240   -8.6676 C   0  0  0  0  0  0  0  0  0  0  0  0
   25.7951  -20.7808   -9.4139 C   0  0  2  0  0  0  0  0  0  0  0  0
   25.0569  -20.0399  -10.4556 N   0  0  0  0  0  0  0  0  0  0  0  0
   24.7809  -21.3623   -8.5171 C   0  0  0  0  0  0  0  0  0  0  0  0
   23.5727  -20.9684   -8.4465 O   0  0  0  0  0  0  0  0  0  0  0  0
   25.1534  -22.4270   -7.6729 O   0  0  0  0  0  0  0  0  0  0  0  0
  1  5  1  0
  2  1  1  0
  2  3  1  0
  3  4  1  0
  5  6  1  1
  5  4  1  0
  6  7  2  0
  8  9  1  0
  9 11  1  0
 10  9  2  0
 11 12  1  0
 13 12  1  6
 14  6  1  0
 14 13  1  0
 15 16  2  0
 15 13  1  0
 18 17  1  0
 19 20  1  0
 19 18  1  0
 21 20  1  1
 21 22  1  0
 22 15  1  0
 23 25  1  0
 23 21  1  0
 24 23  2  0
M  END
$$$$
