PQM.pdb
     RDKit          3D

 25 25  0  0  1  0  0  0  0  0999 V2000
   19.2283  -12.5535  -17.9703 N   0  0  0  0  0  0  0  0  0  0  0  0
   18.2351  -13.4714  -18.4619 C   0  0  0  0  0  0  0  0  0  0  0  0
   17.9053  -14.4216  -17.3373 C   0  0  0  0  0  0  0  0  0  0  0  0
   18.9251  -14.0494  -16.2670 C   0  0  0  0  0  0  0  0  0  0  0  0
   19.0777  -12.5689  -16.5513 C   0  0  1  0  0  0  0  0  0  0  0  0
   20.1983  -11.9490  -15.8232 C   0  0  0  0  0  0  0  0  0  0  0  0
   20.1017  -11.8544  -14.5789 O   0  0  0  0  0  0  0  0  0  0  0  0
   26.2491  -12.7681  -16.7853 N   0  0  0  0  0  0  0  0  0  0  0  0
   26.2606  -11.6496  -15.9150 C   0  0  0  0  0  0  0  0  0  0  0  0
   27.3587  -11.2454  -15.4761 O   0  0  0  0  0  0  0  0  0  0  0  0
   25.0145  -10.9933  -15.5462 C   0  0  0  0  0  0  0  0  0  0  0  0
   23.7748  -11.5361  -16.1583 C   0  0  0  0  0  0  0  0  0  0  0  0
   22.4985  -10.8640  -15.8217 C   0  0  2  0  0  0  0  0  0  0  0  0
   21.3523  -11.4716  -16.4961 N   0  0  0  0  0  0  0  0  0  0  0  0
   22.5076   -9.3959  -16.0043 C   0  0  0  0  0  0  0  0  0  0  0  0
   22.1010   -8.9230  -17.0855 O   0  0  0  0  0  0  0  0  0  0  0  0
   23.0516   -3.3665  -19.3212 C   0  0  0  0  0  0  0  0  0  0  0  0
   23.2779   -5.1100  -18.8674 S   0  0  0  0  0  0  0  0  0  0  0  0
   22.9910   -5.3495  -17.0828 C   0  0  0  0  0  0  0  0  0  0  0  0
   23.1166   -6.8098  -16.7375 C   0  0  0  0  0  0  0  0  0  0  0  0
   22.8782   -7.0552  -15.2669 C   0  0  2  0  0  0  0  0  0  0  0  0
   22.9614   -8.5042  -14.9976 N   0  0  0  0  0  0  0  0  0  0  0  0
   21.5220   -6.6346  -14.8736 C   0  0  0  0  0  0  0  0  0  0  0  0
   20.4839   -7.3632  -14.9801 O   0  0  0  0  0  0  0  0  0  0  0  0
   21.3407   -5.3427  -14.3415 O   0  0  0  0  0  0  0  0  0  0  0  0
  1  5  1  0
  2  1  1  0
  2  3  1  0
  3  4  1  0
  5  6  1  1
  5  4  1  0
  6  7  2  0
  8  9  1  0
  9 11  1  0
 10  9  2  0
 11 12  1  0
 13 12  1  6
 14  6  1  0
 14 13  1  0
 15 16  2  0
 15 13  1  0
 18 17  1  0
 19 20  1  0
 19 18  1  0
 21 20  1  6
 21 22  1  0
 22 15  1  0
 23 25  1  0
 23 21  1  0
 24 23  2  0
M  END
$$$$
