MDS.pdb
     RDKit          3D

 23 22  0  0  1  0  0  0  0  0999 V2000
    8.7761  -11.8840   20.4239 C   0  0  0  0  0  0  0  0  0  0  0  0
    7.4511  -12.7491   19.5349 S   0  0  0  0  0  0  0  0  0  0  0  0
    8.0964  -13.3883   17.9280 C   0  0  0  0  0  0  0  0  0  0  0  0
    8.6278  -14.7599   18.2393 C   0  0  0  0  0  0  0  0  0  0  0  0
    9.9249  -14.7003   18.9033 C   0  0  2  0  0  0  0  0  0  0  0  0
   10.9217  -13.9027   18.2099 N   0  0  0  0  0  0  0  0  0  0  0  0
   10.5454  -15.8732   19.4710 C   0  0  0  0  0  0  0  0  0  0  0  0
    9.7544  -16.6431   20.1287 O   0  0  0  0  0  0  0  0  0  0  0  0
   11.9056  -16.2159   19.3612 N   0  0  0  0  0  0  0  0  0  0  0  0
   12.4960  -17.3830   20.0514 C   0  0  1  0  0  0  0  0  0  0  0  0
   13.7711  -17.6616   19.3552 C   0  0  0  0  0  0  0  0  0  0  0  0
   14.5305  -18.8317   19.7806 C   0  0  0  0  0  0  0  0  0  0  0  0
   14.0511  -19.5536   20.6920 O   0  0  0  0  0  0  0  0  0  0  0  0
   12.5703  -17.0622   21.4883 C   0  0  0  0  0  0  0  0  0  0  0  0
   13.2448  -16.0593   21.9118 O   0  0  0  0  0  0  0  0  0  0  0  0
   15.7532  -19.2092   19.2478 O   0  0  0  0  0  0  0  0  0  0  0  0
    9.7727  -17.7667   23.9772 O   0  0  0  0  0  0  0  0  0  0  0  0
   10.7816  -16.9048   24.4302 C   0  0  0  0  0  0  0  0  0  0  0  0
   12.0917  -17.4731   23.9266 C   0  0  2  0  0  0  0  0  0  0  0  0
   11.9239  -17.8009   22.5144 N   0  0  0  0  0  0  0  0  0  0  0  0
   12.4644  -18.6949   24.6831 C   0  0  0  0  0  0  0  0  0  0  0  0
   12.5298  -19.7819   24.0844 O   0  0  0  0  0  0  0  0  0  0  0  0
   12.7377  -18.6206   26.0483 O   0  0  0  0  0  0  0  0  0  0  0  0
  1  2  1  0
  2  3  1  0
  4  3  1  0
  5  7  1  0
  5  4  1  0
  5  6  1  6
  7  9  1  0
  7  8  2  0
  9 10  1  0
 10 14  1  0
 10 11  1  6
 12 13  2  0
 12 11  1  0
 14 20  1  0
 14 15  2  0
 16 12  1  0
 17 18  1  0
 19 18  1  1
 19 21  1  0
 20 19  1  0
 21 23  1  0
 22 21  2  0
M  END
$$$$
