MDS.pdb
     RDKit          3D

 23 22  0  0  1  0  0  0  0  0999 V2000
    7.0382  -10.7545   26.0487 C   0  0  0  0  0  0  0  0  0  0  0  0
    7.1167  -12.4444   26.7063 S   0  0  0  0  0  0  0  0  0  0  0  0
    5.8413  -13.4919   25.8796 C   0  0  0  0  0  0  0  0  0  0  0  0
    6.5648  -14.1655   24.7467 C   0  0  0  0  0  0  0  0  0  0  0  0
    7.1653  -15.4279   25.1621 C   0  0  2  0  0  0  0  0  0  0  0  0
    7.8225  -15.3864   26.4571 N   0  0  0  0  0  0  0  0  0  0  0  0
    7.9309  -16.2443   24.2509 C   0  0  0  0  0  0  0  0  0  0  0  0
    7.3905  -16.4287   23.0999 O   0  0  0  0  0  0  0  0  0  0  0  0
    9.1787  -16.8328   24.5276 N   0  0  0  0  0  0  0  0  0  0  0  0
   10.1641  -17.1547   23.4730 C   0  0  1  0  0  0  0  0  0  0  0  0
   10.2408  -15.9546   22.6117 C   0  0  0  0  0  0  0  0  0  0  0  0
   11.2057  -15.9691   21.5183 C   0  0  0  0  0  0  0  0  0  0  0  0
   10.9600  -16.6892   20.5169 O   0  0  0  0  0  0  0  0  0  0  0  0
   11.4069  -17.5852   24.1388 C   0  0  0  0  0  0  0  0  0  0  0  0
   12.2477  -18.3495   23.5480 O   0  0  0  0  0  0  0  0  0  0  0  0
   12.3842  -15.2398   21.5027 O   0  0  0  0  0  0  0  0  0  0  0  0
    9.8528  -18.5866   28.1605 O   0  0  0  0  0  0  0  0  0  0  0  0
   10.0396  -17.9753   26.9126 C   0  0  0  0  0  0  0  0  0  0  0  0
   11.5211  -18.0581   26.6100 C   0  0  2  0  0  0  0  0  0  0  0  0
   11.7898  -17.2093   25.4536 N   0  0  0  0  0  0  0  0  0  0  0  0
   11.9228  -19.4554   26.3094 C   0  0  0  0  0  0  0  0  0  0  0  0
   11.6111  -19.9532   25.2143 O   0  0  0  0  0  0  0  0  0  0  0  0
   12.6413  -20.1974   27.2460 O   0  0  0  0  0  0  0  0  0  0  0  0
  1  2  1  0
  2  3  1  0
  4  3  1  0
  5  7  1  0
  5  4  1  0
  5  6  1  1
  7  9  1  0
  7  8  2  0
  9 10  1  0
 10 14  1  0
 10 11  1  1
 12 13  2  0
 12 11  1  0
 14 20  1  0
 14 15  2  0
 16 12  1  0
 17 18  1  0
 19 18  1  6
 19 21  1  0
 20 19  1  0
 21 23  1  0
 22 21  2  0
M  END
$$$$
