MDS.pdb
     RDKit          3D

 23 22  0  0  1  0  0  0  0  0999 V2000
    7.0548  -11.1449   26.3089 C   0  0  0  0  0  0  0  0  0  0  0  0
    7.3635  -12.5216   25.1670 S   0  0  0  0  0  0  0  0  0  0  0  0
    6.0235  -13.7799   25.3354 C   0  0  0  0  0  0  0  0  0  0  0  0
    6.5833  -15.0306   24.7167 C   0  0  0  0  0  0  0  0  0  0  0  0
    8.0382  -14.9857   24.6264 C   0  0  2  0  0  0  0  0  0  0  0  0
    8.5502  -14.1899   23.5241 N   0  0  0  0  0  0  0  0  0  0  0  0
    8.8493  -16.1676   24.7946 C   0  0  0  0  0  0  0  0  0  0  0  0
    8.4481  -16.9777   25.7076 O   0  0  0  0  0  0  0  0  0  0  0  0
   10.0072  -16.4792   24.0584 N   0  0  0  0  0  0  0  0  0  0  0  0
   10.7343  -17.7578   24.2121 C   0  0  1  0  0  0  0  0  0  0  0  0
   11.7775  -17.7578   23.1633 C   0  0  0  0  0  0  0  0  0  0  0  0
   11.3391  -17.6664   21.7754 C   0  0  0  0  0  0  0  0  0  0  0  0
   10.3465  -18.3512   21.4182 O   0  0  0  0  0  0  0  0  0  0  0  0
   11.1878  -17.8488   25.6117 C   0  0  0  0  0  0  0  0  0  0  0  0
   12.0838  -17.0587   26.0733 O   0  0  0  0  0  0  0  0  0  0  0  0
   11.9425  -16.8719   20.8132 O   0  0  0  0  0  0  0  0  0  0  0  0
    9.3065  -20.1363   28.2698 O   0  0  0  0  0  0  0  0  0  0  0  0
   10.0969  -19.1404   28.8609 C   0  0  0  0  0  0  0  0  0  0  0  0
   11.2453  -18.8804   27.9087 C   0  0  2  0  0  0  0  0  0  0  0  0
   10.6954  -18.7838   26.5602 N   0  0  0  0  0  0  0  0  0  0  0  0
   12.2400  -19.9810   27.9659 C   0  0  0  0  0  0  0  0  0  0  0  0
   12.8324  -20.2076   29.0345 O   0  0  0  0  0  0  0  0  0  0  0  0
   12.5040  -20.7497   26.8329 O   0  0  0  0  0  0  0  0  0  0  0  0
  1  2  1  0
  2  3  1  0
  4  3  1  0
  5  7  1  0
  5  4  1  0
  5  6  1  6
  7  9  1  0
  7  8  2  0
  9 10  1  0
 10 14  1  0
 10 11  1  6
 12 13  2  0
 12 11  1  0
 14 20  1  0
 14 15  2  0
 16 12  1  0
 17 18  1  0
 19 18  1  1
 19 21  1  0
 20 19  1  0
 21 23  1  0
 22 21  2  0
M  END
$$$$
