MDS.pdb
     RDKit          3D

 23 22  0  0  1  0  0  0  0  0999 V2000
    7.8956  -11.7800   26.5308 C   0  0  0  0  0  0  0  0  0  0  0  0
    6.1560  -12.2605   26.7237 S   0  0  0  0  0  0  0  0  0  0  0  0
    5.8157  -13.7742   25.7236 C   0  0  0  0  0  0  0  0  0  0  0  0
    7.1485  -14.4553   25.5815 C   0  0  0  0  0  0  0  0  0  0  0  0
    7.0565  -15.6606   24.7656 C   0  0  2  0  0  0  0  0  0  0  0  0
    5.9560  -16.5428   25.1141 N   0  0  0  0  0  0  0  0  0  0  0  0
    8.2213  -16.4421   24.4260 C   0  0  0  0  0  0  0  0  0  0  0  0
    8.0713  -17.7143   24.5260 O   0  0  0  0  0  0  0  0  0  0  0  0
    9.4633  -15.9259   24.0129 N   0  0  0  0  0  0  0  0  0  0  0  0
   10.5817  -16.7867   23.5712 C   0  0  1  0  0  0  0  0  0  0  0  0
   11.1697  -16.1124   22.3932 C   0  0  0  0  0  0  0  0  0  0  0  0
   12.3752  -16.6942   21.8144 C   0  0  0  0  0  0  0  0  0  0  0  0
   12.3604  -17.9144   21.5101 O   0  0  0  0  0  0  0  0  0  0  0  0
   11.4642  -17.0038   24.7319 C   0  0  0  0  0  0  0  0  0  0  0  0
   12.6254  -17.5265   24.5960 O   0  0  0  0  0  0  0  0  0  0  0  0
   13.5462  -15.9931   21.5728 O   0  0  0  0  0  0  0  0  0  0  0  0
    9.7500  -19.3855   28.0031 O   0  0  0  0  0  0  0  0  0  0  0  0
    9.7759  -18.4309   26.9764 C   0  0  0  0  0  0  0  0  0  0  0  0
   11.0754  -17.6687   27.1299 C   0  0  2  0  0  0  0  0  0  0  0  0
   11.1338  -16.6660   26.0710 N   0  0  0  0  0  0  0  0  0  0  0  0
   12.2409  -18.5817   27.0194 C   0  0  0  0  0  0  0  0  0  0  0  0
   12.3918  -19.2488   25.9820 O   0  0  0  0  0  0  0  0  0  0  0  0
   13.1535  -18.6868   28.0683 O   0  0  0  0  0  0  0  0  0  0  0  0
  1  2  1  0
  2  3  1  0
  4  3  1  0
  5  7  1  0
  5  4  1  0
  5  6  1  1
  7  9  1  0
  7  8  2  0
  9 10  1  0
 10 14  1  0
 10 11  1  6
 12 13  2  0
 12 11  1  0
 14 20  1  0
 14 15  2  0
 16 12  1  0
 17 18  1  0
 19 18  1  6
 19 21  1  0
 20 19  1  0
 21 23  1  0
 22 21  2  0
M  END
$$$$
