MDS.pdb
     RDKit          3D

 23 22  0  0  1  0  0  0  0  0999 V2000
    7.0555  -10.8026   26.2404 C   0  0  0  0  0  0  0  0  0  0  0  0
    7.1165  -12.2870   25.1977 S   0  0  0  0  0  0  0  0  0  0  0  0
    6.0692  -13.6120   25.9424 C   0  0  0  0  0  0  0  0  0  0  0  0
    6.1348  -14.7548   24.9676 C   0  0  0  0  0  0  0  0  0  0  0  0
    7.4185  -14.8044   24.2770 C   0  0  2  0  0  0  0  0  0  0  0  0
    7.3810  -14.3439   22.8996 N   0  0  0  0  0  0  0  0  0  0  0  0
    8.3010  -15.9409   24.3891 C   0  0  0  0  0  0  0  0  0  0  0  0
    7.9243  -16.8424   25.2236 O   0  0  0  0  0  0  0  0  0  0  0  0
    9.5015  -16.1203   23.6775 N   0  0  0  0  0  0  0  0  0  0  0  0
   10.3435  -17.3278   23.8184 C   0  0  1  0  0  0  0  0  0  0  0  0
   11.3768  -17.2250   22.7649 C   0  0  0  0  0  0  0  0  0  0  0  0
   12.3123  -18.3352   22.6265 C   0  0  0  0  0  0  0  0  0  0  0  0
   12.1515  -19.3442   23.3599 O   0  0  0  0  0  0  0  0  0  0  0  0
   10.8107  -17.3865   25.2153 C   0  0  0  0  0  0  0  0  0  0  0  0
   11.4675  -16.4194   25.7382 O   0  0  0  0  0  0  0  0  0  0  0  0
   13.3749  -18.3591   21.7369 O   0  0  0  0  0  0  0  0  0  0  0  0
    9.0593  -19.1964   28.0915 O   0  0  0  0  0  0  0  0  0  0  0  0
   10.1092  -18.3379   28.4472 C   0  0  0  0  0  0  0  0  0  0  0  0
   11.2010  -18.5436   27.4182 C   0  0  2  0  0  0  0  0  0  0  0  0
   10.5873  -18.4782   26.0956 N   0  0  0  0  0  0  0  0  0  0  0  0
   11.8585  -19.8621   27.6002 C   0  0  0  0  0  0  0  0  0  0  0  0
   11.8574  -20.6747   26.6600 O   0  0  0  0  0  0  0  0  0  0  0  0
   12.4696  -20.1817   28.8120 O   0  0  0  0  0  0  0  0  0  0  0  0
  1  2  1  0
  2  3  1  0
  4  3  1  0
  5  7  1  0
  5  4  1  0
  5  6  1  6
  7  9  1  0
  7  8  2  0
  9 10  1  0
 10 14  1  0
 10 11  1  6
 12 13  2  0
 12 11  1  0
 14 20  1  0
 14 15  2  0
 16 12  1  0
 17 18  1  0
 19 18  1  1
 19 21  1  0
 20 19  1  0
 21 23  1  0
 22 21  2  0
M  END
$$$$
