MDS.pdb
     RDKit          3D

 23 22  0  0  1  0  0  0  0  0999 V2000
    7.7673  -11.6736   21.2256 C   0  0  0  0  0  0  0  0  0  0  0  0
    7.6661  -12.7307   19.7536 S   0  0  0  0  0  0  0  0  0  0  0  0
    6.5359  -14.1516   20.0864 C   0  0  0  0  0  0  0  0  0  0  0  0
    7.1612  -14.8850   21.2404 C   0  0  0  0  0  0  0  0  0  0  0  0
    7.7694  -16.1414   20.8178 C   0  0  2  0  0  0  0  0  0  0  0  0
    6.8829  -17.0218   20.0764 N   0  0  0  0  0  0  0  0  0  0  0  0
    8.6046  -16.9192   21.7012 C   0  0  0  0  0  0  0  0  0  0  0  0
    8.0249  -17.9238   22.2541 O   0  0  0  0  0  0  0  0  0  0  0  0
    9.9570  -16.6601   21.9906 N   0  0  0  0  0  0  0  0  0  0  0  0
   10.7142  -17.4083   23.0172 C   0  0  1  0  0  0  0  0  0  0  0  0
   12.1432  -17.1674   22.7207 C   0  0  0  0  0  0  0  0  0  0  0  0
   12.6706  -17.6944   21.4673 C   0  0  0  0  0  0  0  0  0  0  0  0
   13.5429  -17.0228   20.8592 O   0  0  0  0  0  0  0  0  0  0  0  0
   10.2199  -16.9797   24.3382 C   0  0  0  0  0  0  0  0  0  0  0  0
   10.4723  -15.8104   24.7955 O   0  0  0  0  0  0  0  0  0  0  0  0
   12.2768  -18.8929   20.8931 O   0  0  0  0  0  0  0  0  0  0  0  0
    7.1475  -18.5840   26.1610 O   0  0  0  0  0  0  0  0  0  0  0  0
    7.5888  -17.3595   26.6824 C   0  0  0  0  0  0  0  0  0  0  0  0
    9.0982  -17.3587   26.5612 C   0  0  2  0  0  0  0  0  0  0  0  0
    9.4387  -17.7859   25.2078 N   0  0  0  0  0  0  0  0  0  0  0  0
    9.7090  -18.2856   27.5470 C   0  0  0  0  0  0  0  0  0  0  0  0
   10.3885  -19.2426   27.1388 O   0  0  0  0  0  0  0  0  0  0  0  0
    9.5212  -18.0820   28.9136 O   0  0  0  0  0  0  0  0  0  0  0  0
  1  2  1  0
  2  3  1  0
  4  3  1  0
  5  7  1  0
  5  4  1  0
  5  6  1  1
  7  9  1  0
  7  8  2  0
  9 10  1  0
 10 14  1  0
 10 11  1  1
 12 13  2  0
 12 11  1  0
 14 20  1  0
 14 15  2  0
 16 12  1  0
 17 18  1  0
 19 18  1  6
 19 21  1  0
 20 19  1  0
 21 23  1  0
 22 21  2  0
M  END
$$$$
