MDS.pdb
     RDKit          3D

 23 22  0  0  1  0  0  0  0  0999 V2000
    7.7973  -11.5177   26.8293 C   0  0  0  0  0  0  0  0  0  0  0  0
    6.1254  -12.1427   27.1587 S   0  0  0  0  0  0  0  0  0  0  0  0
    5.7315  -13.5106   25.9835 C   0  0  0  0  0  0  0  0  0  0  0  0
    6.9773  -14.3506   25.9314 C   0  0  0  0  0  0  0  0  0  0  0  0
    6.8483  -15.4525   24.9847 C   0  0  2  0  0  0  0  0  0  0  0  0
    5.6208  -16.2189   25.1143 N   0  0  0  0  0  0  0  0  0  0  0  0
    7.9493  -16.3382   24.6910 C   0  0  0  0  0  0  0  0  0  0  0  0
    7.8370  -17.5243   25.1720 O   0  0  0  0  0  0  0  0  0  0  0  0
    9.0951  -16.0032   23.9463 N   0  0  0  0  0  0  0  0  0  0  0  0
   10.2621  -16.9032   23.8234 C   0  0  1  0  0  0  0  0  0  0  0  0
   11.1305  -16.2997   22.7890 C   0  0  0  0  0  0  0  0  0  0  0  0
   12.3411  -17.0234   22.4180 C   0  0  0  0  0  0  0  0  0  0  0  0
   12.5404  -18.1536   22.9325 O   0  0  0  0  0  0  0  0  0  0  0  0
   10.8385  -17.0742   25.1693 C   0  0  0  0  0  0  0  0  0  0  0  0
   11.3903  -16.0967   25.7858 O   0  0  0  0  0  0  0  0  0  0  0  0
   13.2960  -16.5516   21.5310 O   0  0  0  0  0  0  0  0  0  0  0  0
    9.5418  -19.5707   27.7487 O   0  0  0  0  0  0  0  0  0  0  0  0
   10.4263  -18.6027   28.2454 C   0  0  0  0  0  0  0  0  0  0  0  0
   11.4998  -18.4199   27.1930 C   0  0  2  0  0  0  0  0  0  0  0  0
   10.8395  -18.2933   25.8976 N   0  0  0  0  0  0  0  0  0  0  0  0
   12.4240  -19.5816   27.1723 C   0  0  0  0  0  0  0  0  0  0  0  0
   12.5390  -20.2458   26.1284 O   0  0  0  0  0  0  0  0  0  0  0  0
   13.1531  -19.9204   28.3114 O   0  0  0  0  0  0  0  0  0  0  0  0
  1  2  1  0
  2  3  1  0
  4  3  1  0
  5  7  1  0
  5  4  1  0
  5  6  1  1
  7  9  1  0
  7  8  2  0
  9 10  1  0
 10 14  1  0
 10 11  1  6
 12 13  2  0
 12 11  1  0
 14 20  1  0
 14 15  2  0
 16 12  1  0
 17 18  1  0
 19 18  1  1
 19 21  1  0
 20 19  1  0
 21 23  1  0
 22 21  2  0
M  END
$$$$
