MDS.pdb
     RDKit          3D

 23 22  0  0  1  0  0  0  0  0999 V2000
    7.9457  -12.4068   21.5436 C   0  0  0  0  0  0  0  0  0  0  0  0
    8.4067  -12.0831   19.8182 S   0  0  0  0  0  0  0  0  0  0  0  0
    8.2175  -13.6275   18.8251 C   0  0  0  0  0  0  0  0  0  0  0  0
    8.2856  -14.7462   19.8273 C   0  0  0  0  0  0  0  0  0  0  0  0
    9.4680  -15.5772   19.6318 C   0  0  2  0  0  0  0  0  0  0  0  0
    9.6847  -16.0053   18.2605 N   0  0  0  0  0  0  0  0  0  0  0  0
    9.8050  -16.6488   20.5379 C   0  0  0  0  0  0  0  0  0  0  0  0
    9.1283  -16.6714   21.6299 O   0  0  0  0  0  0  0  0  0  0  0  0
   10.7890  -17.6302   20.3176 N   0  0  0  0  0  0  0  0  0  0  0  0
   11.0706  -18.7135   21.2841 C   0  0  1  0  0  0  0  0  0  0  0  0
   12.0454  -19.6052   20.6187 C   0  0  0  0  0  0  0  0  0  0  0  0
   11.5573  -20.4490   19.5341 C   0  0  0  0  0  0  0  0  0  0  0  0
   10.3285  -20.4241   19.2672 O   0  0  0  0  0  0  0  0  0  0  0  0
   11.4889  -18.0853   22.5504 C   0  0  0  0  0  0  0  0  0  0  0  0
   12.3950  -17.1806   22.5765 O   0  0  0  0  0  0  0  0  0  0  0  0
   12.3570  -21.2835   18.7690 O   0  0  0  0  0  0  0  0  0  0  0  0
    9.3044  -18.0667   25.7862 O   0  0  0  0  0  0  0  0  0  0  0  0
   10.4031  -17.1968   25.8317 C   0  0  0  0  0  0  0  0  0  0  0  0
   11.5180  -17.8707   25.0597 C   0  0  2  0  0  0  0  0  0  0  0  0
   10.9496  -18.4024   23.8251 N   0  0  0  0  0  0  0  0  0  0  0  0
   12.1177  -18.9747   25.8507 C   0  0  0  0  0  0  0  0  0  0  0  0
   12.6874  -18.7117   26.9232 O   0  0  0  0  0  0  0  0  0  0  0  0
   12.0404  -20.2896   25.3934 O   0  0  0  0  0  0  0  0  0  0  0  0
  1  2  1  0
  2  3  1  0
  4  3  1  0
  5  7  1  0
  5  4  1  0
  5  6  1  6
  7  9  1  0
  7  8  2  0
  9 10  1  0
 10 14  1  0
 10 11  1  6
 12 13  2  0
 12 11  1  0
 14 20  1  0
 14 15  2  0
 16 12  1  0
 17 18  1  0
 19 18  1  1
 19 21  1  0
 20 19  1  0
 21 23  1  0
 22 21  2  0
M  END
$$$$
