TCA.pdb
     RDKit          3D

 19 18  0  0  1  0  0  0  0  0999 V2000
   16.5894   -9.6030  -18.1900 C   0  0  0  0  0  0  0  0  0  0  0  0
   16.6736  -10.8303  -17.3264 C   0  0  1  0  0  0  0  0  0  0  0  0
   16.4030  -11.9653  -18.0483 O   0  0  0  0  0  0  0  0  0  0  0  0
   18.0260  -10.9243  -16.6173 C   0  0  2  0  0  0  0  0  0  0  0  0
   17.9812  -12.1634  -15.8188 N   0  0  0  0  0  0  0  0  0  0  0  0
   18.2969   -9.7734  -15.7486 C   0  0  0  0  0  0  0  0  0  0  0  0
   17.6259   -9.6038  -14.7014 O   0  0  0  0  0  0  0  0  0  0  0  0
   19.3173   -8.8558  -16.0956 N   0  0  0  0  0  0  0  0  0  0  0  0
   19.7216   -7.7733  -15.2096 C   0  0  1  0  0  0  0  0  0  0  0  0
   21.2297   -7.7561  -15.1611 C   0  0  0  0  0  0  0  0  0  0  0  0
   21.8507   -9.0724  -14.0908 S   0  0  0  0  0  0  0  0  0  0  0  0
   19.1621   -6.5172  -15.7450 C   0  0  0  0  0  0  0  0  0  0  0  0
   19.3888   -6.1370  -16.9451 O   0  0  0  0  0  0  0  0  0  0  0  0
   16.6762   -3.9647  -14.6486 C   0  0  0  0  0  0  0  0  0  0  0  0
   17.8992   -4.3446  -15.4647 C   0  0  2  0  0  0  0  0  0  0  0  0
   18.3382   -5.6399  -14.9837 N   0  0  0  0  0  0  0  0  0  0  0  0
   18.9532   -3.3116  -15.3129 C   0  0  0  0  0  0  0  0  0  0  0  0
   19.9443   -3.6138  -14.5997 O   0  0  0  0  0  0  0  0  0  0  0  0
   18.9180   -2.0723  -15.8885 O   0  0  0  0  0  0  0  0  0  0  0  0
  2  1  1  6
  2  3  1  0
  4  2  1  0
  4  5  1  1
  6  4  1  0
  7  6  2  0
  8  6  1  0
  9  8  1  0
  9 12  1  0
  9 10  1  6
 11 10  1  0
 12 16  1  0
 13 12  2  0
 15 14  1  1
 15 17  1  0
 16 15  1  0
 17 18  2  0
 17 19  1  0
M  END
$$$$
