TCA.pdb
     RDKit          3D

 19 18  0  0  1  0  0  0  0  0999 V2000
   29.3408  -21.4249  -17.1479 C   0  0  0  0  0  0  0  0  0  0  0  0
   28.2995  -21.9603  -16.2054 C   0  0  1  0  0  0  0  0  0  0  0  0
   28.8766  -22.5236  -15.0953 O   0  0  0  0  0  0  0  0  0  0  0  0
   27.2823  -20.8829  -15.8245 C   0  0  2  0  0  0  0  0  0  0  0  0
   28.0607  -19.7814  -15.2281 N   0  0  0  0  0  0  0  0  0  0  0  0
   26.2731  -21.3610  -14.8728 C   0  0  0  0  0  0  0  0  0  0  0  0
   25.4759  -22.2716  -15.2056 O   0  0  0  0  0  0  0  0  0  0  0  0
   26.2023  -20.7919  -13.5787 N   0  0  0  0  0  0  0  0  0  0  0  0
   25.2772  -21.2803  -12.5657 C   0  0  1  0  0  0  0  0  0  0  0  0
   25.7618  -20.7893  -11.2237 C   0  0  0  0  0  0  0  0  0  0  0  0
   24.4939  -21.0276   -9.9590 S   0  0  0  0  0  0  0  0  0  0  0  0
   23.9324  -20.7722  -12.8981 C   0  0  0  0  0  0  0  0  0  0  0  0
   23.6775  -19.5193  -12.9397 O   0  0  0  0  0  0  0  0  0  0  0  0
   20.9882  -21.9487  -14.6754 C   0  0  0  0  0  0  0  0  0  0  0  0
   21.5044  -21.1172  -13.5142 C   0  0  2  0  0  0  0  0  0  0  0  0
   22.8266  -21.6191  -13.1947 N   0  0  0  0  0  0  0  0  0  0  0  0
   20.5781  -21.2242  -12.3603 C   0  0  0  0  0  0  0  0  0  0  0  0
   20.9219  -21.9944  -11.4270 O   0  0  0  0  0  0  0  0  0  0  0  0
   19.3939  -20.5509  -12.2469 O   0  0  0  0  0  0  0  0  0  0  0  0
  2  1  1  6
  2  3  1  0
  4  2  1  0
  4  5  1  1
  6  4  1  0
  7  6  2  0
  8  6  1  0
  9  8  1  0
  9 12  1  0
  9 10  1  1
 11 10  1  0
 12 16  1  0
 13 12  2  0
 15 14  1  6
 15 17  1  0
 16 15  1  0
 17 18  2  0
 17 19  1  0
M  END
$$$$
