TCA.pdb
     RDKit          3D

 19 18  0  0  1  0  0  0  0  0999 V2000
   28.6016  -13.1427  -16.3694 C   0  0  0  0  0  0  0  0  0  0  0  0
   27.1675  -13.5842  -16.4562 C   0  0  1  0  0  0  0  0  0  0  0  0
   26.9146  -14.6233  -15.5964 O   0  0  0  0  0  0  0  0  0  0  0  0
   26.2070  -12.4162  -16.2240 C   0  0  2  0  0  0  0  0  0  0  0  0
   24.8529  -13.0004  -16.2077 N   0  0  0  0  0  0  0  0  0  0  0  0
   26.2995  -11.3851  -17.2636 C   0  0  0  0  0  0  0  0  0  0  0  0
   25.5578  -11.4425  -18.2745 O   0  0  0  0  0  0  0  0  0  0  0  0
   27.2277  -10.3258  -17.1220 N   0  0  0  0  0  0  0  0  0  0  0  0
   27.3260   -9.2452  -18.0931 C   0  0  1  0  0  0  0  0  0  0  0  0
   26.1725   -8.3027  -17.8525 C   0  0  0  0  0  0  0  0  0  0  0  0
   25.8208   -8.1593  -16.0862 S   0  0  0  0  0  0  0  0  0  0  0  0
   28.6352   -8.5896  -17.9098 C   0  0  0  0  0  0  0  0  0  0  0  0
   29.1833   -8.4910  -16.7582 O   0  0  0  0  0  0  0  0  0  0  0  0
   31.2839   -7.2444  -20.1905 C   0  0  0  0  0  0  0  0  0  0  0  0
   30.6886   -7.4158  -18.8040 C   0  0  2  0  0  0  0  0  0  0  0  0
   29.3837   -8.0226  -18.9805 N   0  0  0  0  0  0  0  0  0  0  0  0
   30.6000   -6.1012  -18.1222 C   0  0  0  0  0  0  0  0  0  0  0  0
   29.5145   -5.4757  -18.2361 O   0  0  0  0  0  0  0  0  0  0  0  0
   31.6052   -5.5343  -17.3897 O   0  0  0  0  0  0  0  0  0  0  0  0
  2  1  1  1
  2  3  1  0
  4  2  1  0
  4  5  1  6
  6  4  1  0
  7  6  2  0
  8  6  1  0
  9  8  1  0
  9 12  1  0
  9 10  1  1
 11 10  1  0
 12 16  1  0
 13 12  2  0
 15 14  1  6
 15 17  1  0
 16 15  1  0
 17 18  2  0
 17 19  1  0
M  END
$$$$
