TCA.pdb
     RDKit          3D

 19 18  0  0  1  0  0  0  0  0999 V2000
   17.6303  -11.5194  -18.3177 C   0  0  0  0  0  0  0  0  0  0  0  0
   18.2462  -12.7875  -17.7963 C   0  0  1  0  0  0  0  0  0  0  0  0
   18.5054  -13.6695  -18.8149 O   0  0  0  0  0  0  0  0  0  0  0  0
   19.5002  -12.5014  -16.9679 C   0  0  2  0  0  0  0  0  0  0  0  0
   20.0381  -13.8177  -16.5768 N   0  0  0  0  0  0  0  0  0  0  0  0
   19.2245  -11.6939  -15.7744 C   0  0  0  0  0  0  0  0  0  0  0  0
   18.6024  -12.1944  -14.8059 O   0  0  0  0  0  0  0  0  0  0  0  0
   19.6629  -10.3491  -15.7192 N   0  0  0  0  0  0  0  0  0  0  0  0
   19.2907   -9.4556  -14.6314 C   0  0  1  0  0  0  0  0  0  0  0  0
   20.5280   -9.1890  -13.8099 C   0  0  0  0  0  0  0  0  0  0  0  0
   21.7891   -8.3595  -14.8028 S   0  0  0  0  0  0  0  0  0  0  0  0
   18.7351   -8.2249  -15.2264 C   0  0  0  0  0  0  0  0  0  0  0  0
   19.2576   -7.6816  -16.2599 O   0  0  0  0  0  0  0  0  0  0  0  0
   15.6521   -6.1690  -14.7879 C   0  0  0  0  0  0  0  0  0  0  0  0
   17.0932   -6.3020  -15.2482 C   0  0  2  0  0  0  0  0  0  0  0  0
   17.5917   -7.5520  -14.7087 N   0  0  0  0  0  0  0  0  0  0  0  0
   17.8869   -5.1404  -14.7776 C   0  0  0  0  0  0  0  0  0  0  0  0
   18.5735   -5.3075  -13.7368 O   0  0  0  0  0  0  0  0  0  0  0  0
   17.9204   -3.9196  -15.3915 O   0  0  0  0  0  0  0  0  0  0  0  0
  2  1  1  6
  2  3  1  0
  4  2  1  0
  4  5  1  1
  6  4  1  0
  7  6  2  0
  8  6  1  0
  9  8  1  0
  9 12  1  0
  9 10  1  6
 11 10  1  0
 12 16  1  0
 13 12  2  0
 15 14  1  1
 15 17  1  0
 16 15  1  0
 17 18  2  0
 17 19  1  0
M  END
$$$$
