TCA.pdb
     RDKit          3D

 19 18  0  0  1  0  0  0  0  0999 V2000
   24.9924  -24.9919  -15.3286 C   0  0  0  0  0  0  0  0  0  0  0  0
   25.6277  -23.9423  -16.1969 C   0  0  1  0  0  0  0  0  0  0  0  0
   25.5385  -22.7002  -15.6208 O   0  0  0  0  0  0  0  0  0  0  0  0
   27.0751  -24.3001  -16.5398 C   0  0  2  0  0  0  0  0  0  0  0  0
   27.5827  -23.1911  -17.3688 N   0  0  0  0  0  0  0  0  0  0  0  0
   27.1930  -25.5689  -17.2669 C   0  0  0  0  0  0  0  0  0  0  0  0
   26.7066  -25.6818  -18.4185 O   0  0  0  0  0  0  0  0  0  0  0  0
   27.8573  -26.6645  -16.6653 N   0  0  0  0  0  0  0  0  0  0  0  0
   28.0439  -27.9331  -17.3555 C   0  0  1  0  0  0  0  0  0  0  0  0
   29.4308  -28.4332  -17.0341 C   0  0  0  0  0  0  0  0  0  0  0  0
   30.6555  -27.6646  -18.1173 S   0  0  0  0  0  0  0  0  0  0  0  0
   26.9915  -28.8587  -16.8939 C   0  0  0  0  0  0  0  0  0  0  0  0
   26.6712  -28.9517  -15.6590 O   0  0  0  0  0  0  0  0  0  0  0  0
   24.0359  -30.3922  -18.2942 C   0  0  0  0  0  0  0  0  0  0  0  0
   25.1869  -30.5776  -17.3209 C   0  0  2  0  0  0  0  0  0  0  0  0
   26.2585  -29.7099  -17.7692 N   0  0  0  0  0  0  0  0  0  0  0  0
   25.6033  -32.0011  -17.2906 C   0  0  0  0  0  0  0  0  0  0  0  0
   26.5998  -32.3151  -17.9914 O   0  0  0  0  0  0  0  0  0  0  0  0
   24.9847  -32.9785  -16.5623 O   0  0  0  0  0  0  0  0  0  0  0  0
  2  1  1  1
  2  3  1  0
  4  2  1  0
  4  5  1  6
  6  4  1  0
  7  6  2  0
  8  6  1  0
  9  8  1  0
  9 12  1  0
  9 10  1  1
 11 10  1  0
 12 16  1  0
 13 12  2  0
 15 14  1  6
 15 17  1  0
 16 15  1  0
 17 18  2  0
 17 19  1  0
M  END
$$$$
