TCA.pdb
     RDKit          3D

 19 18  0  0  1  0  0  0  0  0999 V2000
   27.0131  -10.5490  -15.5198 C   0  0  0  0  0  0  0  0  0  0  0  0
   26.9594  -11.5441  -16.6450 C   0  0  1  0  0  0  0  0  0  0  0  0
   27.7633  -12.6265  -16.3899 O   0  0  0  0  0  0  0  0  0  0  0  0
   25.5216  -11.9707  -16.9470 C   0  0  2  0  0  0  0  0  0  0  0  0
   25.6175  -13.0253  -17.9734 N   0  0  0  0  0  0  0  0  0  0  0  0
   24.6883  -10.8659  -17.4346 C   0  0  0  0  0  0  0  0  0  0  0  0
   24.6506  -10.6000  -18.6607 O   0  0  0  0  0  0  0  0  0  0  0  0
   23.9274  -10.1019  -16.5176 N   0  0  0  0  0  0  0  0  0  0  0  0
   23.0897   -8.9890  -16.9421 C   0  0  1  0  0  0  0  0  0  0  0  0
   21.6712   -9.4931  -17.0459 C   0  0  0  0  0  0  0  0  0  0  0  0
   21.1989  -10.3881  -15.5492 S   0  0  0  0  0  0  0  0  0  0  0  0
   23.2313   -7.9101  -15.9456 C   0  0  0  0  0  0  0  0  0  0  0  0
   23.3766   -8.1595  -14.6994 O   0  0  0  0  0  0  0  0  0  0  0  0
   23.5113   -4.1709  -16.0663 C   0  0  0  0  0  0  0  0  0  0  0  0
   23.3261   -5.4677  -15.2979 C   0  0  2  0  0  0  0  0  0  0  0  0
   23.2182   -6.5264  -16.2825 N   0  0  0  0  0  0  0  0  0  0  0  0
   22.1178   -5.3833  -14.4412 C   0  0  0  0  0  0  0  0  0  0  0  0
   22.2136   -4.6953  -13.3925 O   0  0  0  0  0  0  0  0  0  0  0  0
   20.9259   -5.9948  -14.7129 O   0  0  0  0  0  0  0  0  0  0  0  0
  2  1  1  1
  2  3  1  0
  4  2  1  0
  4  5  1  6
  6  4  1  0
  7  6  2  0
  8  6  1  0
  9  8  1  0
  9 12  1  0
  9 10  1  1
 11 10  1  0
 12 16  1  0
 13 12  2  0
 15 14  1  6
 15 17  1  0
 16 15  1  0
 17 18  2  0
 17 19  1  0
M  END
$$$$
