TCA.pdb
     RDKit          3D

 19 18  0  0  1  0  0  0  0  0999 V2000
   33.9444  -37.5728   -6.6121 C   0  0  0  0  0  0  0  0  0  0  0  0
   33.1803  -36.8083   -5.5676 C   0  0  1  0  0  0  0  0  0  0  0  0
   34.0017  -36.4099   -4.5432 O   0  0  0  0  0  0  0  0  0  0  0  0
   32.4290  -35.6238   -6.1785 C   0  0  2  0  0  0  0  0  0  0  0  0
   33.4643  -34.6857   -6.6510 N   0  0  0  0  0  0  0  0  0  0  0  0
   31.5410  -34.9552   -5.2209 C   0  0  0  0  0  0  0  0  0  0  0  0
   32.0004  -34.0930   -4.4328 O   0  0  0  0  0  0  0  0  0  0  0  0
   30.1650  -35.2858   -5.1895 N   0  0  0  0  0  0  0  0  0  0  0  0
   29.2376  -34.6598   -4.2576 C   0  0  1  0  0  0  0  0  0  0  0  0
   27.9987  -34.2752   -5.0285 C   0  0  0  0  0  0  0  0  0  0  0  0
   26.7232  -33.6428   -3.9161 S   0  0  0  0  0  0  0  0  0  0  0  0
   28.9523  -35.6297   -3.1827 C   0  0  0  0  0  0  0  0  0  0  0  0
   28.5318  -36.8109   -3.4360 O   0  0  0  0  0  0  0  0  0  0  0  0
   29.3702  -35.7248    0.5390 C   0  0  0  0  0  0  0  0  0  0  0  0
   28.7525  -36.2583   -0.7417 C   0  0  2  0  0  0  0  0  0  0  0  0
   29.1184  -35.3363   -1.7991 N   0  0  0  0  0  0  0  0  0  0  0  0
   27.2810  -36.3695   -0.5890 C   0  0  0  0  0  0  0  0  0  0  0  0
   26.8607  -37.1857    0.2711 O   0  0  0  0  0  0  0  0  0  0  0  0
   26.3666  -35.6543   -1.3105 O   0  0  0  0  0  0  0  0  0  0  0  0
  2  1  1  6
  2  3  1  0
  4  2  1  0
  4  5  1  1
  6  4  1  0
  7  6  2  0
  8  6  1  0
  9  8  1  0
  9 12  1  0
  9 10  1  6
 11 10  1  0
 12 16  1  0
 13 12  2  0
 15 14  1  1
 15 17  1  0
 16 15  1  0
 17 18  2  0
 17 19  1  0
M  END
$$$$
