EPQ.pdb
     RDKit          3D

 26 26  0  0  1  0  0  0  0  0999 V2000
   20.3313  -15.3052  -16.6582 N   0  0  0  0  0  0  0  0  0  0  0  0
   21.4858  -14.4516  -16.8894 C   0  0  1  0  0  0  0  0  0  0  0  0
   21.5525  -14.1994  -18.3650 C   0  0  0  0  0  0  0  0  0  0  0  0
   20.4280  -13.4132  -18.9364 C   0  0  0  0  0  0  0  0  0  0  0  0
   20.6378  -13.1301  -20.3674 C   0  0  0  0  0  0  0  0  0  0  0  0
   20.7619  -13.9546  -21.2801 O   0  0  0  0  0  0  0  0  0  0  0  0
   21.3646  -13.2138  -16.0807 C   0  0  0  0  0  0  0  0  0  0  0  0
   20.1926  -12.8889  -15.7460 O   0  0  0  0  0  0  0  0  0  0  0  0
   20.7018  -11.7726  -20.7188 O   0  0  0  0  0  0  0  0  0  0  0  0
   22.4588  -12.4196  -15.6875 N   0  0  0  0  0  0  0  0  0  0  0  0
   23.8524  -12.5814  -16.0603 C   0  0  0  0  0  0  0  0  0  0  0  0
   24.6361  -11.5561  -15.2944 C   0  0  0  0  0  0  0  0  0  0  0  0
   23.7265  -11.2279  -14.1227 C   0  0  0  0  0  0  0  0  0  0  0  0
   22.3751  -11.2626  -14.8130 C   0  0  1  0  0  0  0  0  0  0  0  0
   22.2643   -9.9992  -15.5910 C   0  0  0  0  0  0  0  0  0  0  0  0
   22.7719   -9.8206  -16.7090 O   0  0  0  0  0  0  0  0  0  0  0  0
   16.9704   -8.0130  -16.3973 N   0  0  0  0  0  0  0  0  0  0  0  0
   17.6229   -6.8893  -16.9930 C   0  0  0  0  0  0  0  0  0  0  0  0
   17.0056   -6.0400  -17.6717 O   0  0  0  0  0  0  0  0  0  0  0  0
   19.1067   -6.7344  -16.7884 C   0  0  0  0  0  0  0  0  0  0  0  0
   19.6141   -7.8973  -15.9988 C   0  0  0  0  0  0  0  0  0  0  0  0
   21.0991   -7.7751  -15.7493 C   0  0  2  0  0  0  0  0  0  0  0  0
   21.5248   -8.9366  -15.0005 N   0  0  0  0  0  0  0  0  0  0  0  0
   21.4012   -6.5611  -14.9220 C   0  0  0  0  0  0  0  0  0  0  0  0
   21.4450   -6.6181  -13.6569 O   0  0  0  0  0  0  0  0  0  0  0  0
   21.6464   -5.3226  -15.4960 O   0  0  0  0  0  0  0  0  0  0  0  0
  2  3  1  0
  2  1  1  6
  4  5  1  0
  4  3  1  0
  5  9  1  0
  6  5  2  0
  7  2  1  0
  8  7  2  0
 10  7  1  0
 11 10  1  0
 12 13  1  0
 12 11  1  0
 13 14  1  0
 14 15  1  6
 14 10  1  0
 15 23  1  0
 16 15  2  0
 17 18  1  0
 18 19  2  0
 18 20  1  0
 20 21  1  0
 22 21  1  1
 22 24  1  0
 23 22  1  0
 24 25  2  0
 24 26  1  0
M  END
$$$$
