EPQ.pdb
     RDKit          3D

 26 26  0  0  1  0  0  0  0  0999 V2000
   18.4858  -24.1671    7.7893 N   0  0  0  0  0  0  0  0  0  0  0  0
   19.2598  -23.1582    7.0836 C   0  0  1  0  0  0  0  0  0  0  0  0
   18.8687  -23.2406    5.6393 C   0  0  0  0  0  0  0  0  0  0  0  0
   19.3075  -24.4657    4.9212 C   0  0  0  0  0  0  0  0  0  0  0  0
   18.8597  -24.4596    3.5172 C   0  0  0  0  0  0  0  0  0  0  0  0
   19.0528  -23.5737    2.6769 O   0  0  0  0  0  0  0  0  0  0  0  0
   19.0174  -21.8256    7.6890 C   0  0  0  0  0  0  0  0  0  0  0  0
   17.9572  -21.7131    8.3630 O   0  0  0  0  0  0  0  0  0  0  0  0
   18.1362  -25.5884    3.1017 O   0  0  0  0  0  0  0  0  0  0  0  0
   19.8864  -20.7267    7.5478 N   0  0  0  0  0  0  0  0  0  0  0  0
   21.1140  -20.6592    6.7760 C   0  0  0  0  0  0  0  0  0  0  0  0
   21.7275  -19.3151    7.0390 C   0  0  0  0  0  0  0  0  0  0  0  0
   21.1047  -18.9022    8.3618 C   0  0  0  0  0  0  0  0  0  0  0  0
   19.6940  -19.4288    8.1712 C   0  0  1  0  0  0  0  0  0  0  0  0
   19.0082  -18.4801    7.2528 C   0  0  0  0  0  0  0  0  0  0  0  0
   19.1893  -18.4416    6.0259 O   0  0  0  0  0  0  0  0  0  0  0  0
   13.5042  -16.2204    8.7171 N   0  0  0  0  0  0  0  0  0  0  0  0
   13.8229  -17.5223    8.2203 C   0  0  0  0  0  0  0  0  0  0  0  0
   13.0070  -18.4690    8.2540 O   0  0  0  0  0  0  0  0  0  0  0  0
   15.1932  -17.7486    7.6384 C   0  0  0  0  0  0  0  0  0  0  0  0
   15.9644  -16.4698    7.6954 C   0  0  0  0  0  0  0  0  0  0  0  0
   17.3198  -16.6263    7.0468 C   0  0  2  0  0  0  0  0  0  0  0  0
   18.0882  -17.5640    7.8350 N   0  0  0  0  0  0  0  0  0  0  0  0
   18.0593  -15.3215    7.0384 C   0  0  0  0  0  0  0  0  0  0  0  0
   18.9842  -15.0811    7.8704 O   0  0  0  0  0  0  0  0  0  0  0  0
   17.7700  -14.3183    6.1254 O   0  0  0  0  0  0  0  0  0  0  0  0
  2  3  1  0
  2  1  1  1
  4  5  1  0
  4  3  1  0
  5  9  1  0
  6  5  2  0
  7  2  1  0
  8  7  2  0
 10  7  1  0
 11 10  1  0
 12 13  1  0
 12 11  1  0
 13 14  1  0
 14 15  1  6
 14 10  1  0
 15 23  1  0
 16 15  2  0
 17 18  1  0
 18 19  2  0
 18 20  1  0
 20 21  1  0
 22 21  1  1
 22 24  1  0
 23 22  1  0
 24 25  2  0
 24 26  1  0
M  END
$$$$
