EPQ.pdb
     RDKit          3D

 26 26  0  0  1  0  0  0  0  0999 V2000
   17.3695  -11.5125  -15.7729 N   0  0  0  0  0  0  0  0  0  0  0  0
   18.4607  -11.0172  -16.5968 C   0  0  1  0  0  0  0  0  0  0  0  0
   17.8397  -10.3210  -17.7694 C   0  0  0  0  0  0  0  0  0  0  0  0
   17.0047  -11.1721  -18.6568 C   0  0  0  0  0  0  0  0  0  0  0  0
   15.6220  -11.2802  -18.1583 C   0  0  0  0  0  0  0  0  0  0  0  0
   14.7954  -10.3675  -18.0491 O   0  0  0  0  0  0  0  0  0  0  0  0
   19.3439  -10.1425  -15.7868 C   0  0  0  0  0  0  0  0  0  0  0  0
   18.7954   -9.5601  -14.8116 O   0  0  0  0  0  0  0  0  0  0  0  0
   15.2116  -12.5647  -17.7685 O   0  0  0  0  0  0  0  0  0  0  0  0
   20.7126   -9.9439  -16.0510 N   0  0  0  0  0  0  0  0  0  0  0  0
   21.5043  -10.5278  -17.1185 C   0  0  0  0  0  0  0  0  0  0  0  0
   22.9249  -10.0950  -16.9019 C   0  0  0  0  0  0  0  0  0  0  0  0
   22.9581   -9.7395  -15.4252 C   0  0  0  0  0  0  0  0  0  0  0  0
   21.5945   -9.0904  -15.2739 C   0  0  1  0  0  0  0  0  0  0  0  0
   21.7031   -7.7322  -15.8716 C   0  0  0  0  0  0  0  0  0  0  0  0
   21.4910   -7.4761  -17.0669 O   0  0  0  0  0  0  0  0  0  0  0  0
   17.4077   -5.3440  -15.0890 N   0  0  0  0  0  0  0  0  0  0  0  0
   18.0125   -4.0502  -15.1507 C   0  0  0  0  0  0  0  0  0  0  0  0
   17.3385   -2.9977  -15.1799 O   0  0  0  0  0  0  0  0  0  0  0  0
   19.5157   -3.9658  -15.1811 C   0  0  0  0  0  0  0  0  0  0  0  0
   20.0839   -5.3433  -15.0670 C   0  0  0  0  0  0  0  0  0  0  0  0
   21.5906   -5.3174  -15.1745 C   0  0  2  0  0  0  0  0  0  0  0  0
   22.0753   -6.6688  -15.0024 N   0  0  0  0  0  0  0  0  0  0  0  0
   22.1870   -4.4751  -14.0863 C   0  0  0  0  0  0  0  0  0  0  0  0
   22.4465   -4.9583  -12.9441 O   0  0  0  0  0  0  0  0  0  0  0  0
   22.4830   -3.1331  -14.2739 O   0  0  0  0  0  0  0  0  0  0  0  0
  2  3  1  0
  2  1  1  1
  4  5  1  0
  4  3  1  0
  5  9  1  0
  6  5  2  0
  7  2  1  0
  8  7  2  0
 10  7  1  0
 11 10  1  0
 12 13  1  0
 12 11  1  0
 13 14  1  0
 14 15  1  6
 14 10  1  0
 15 23  1  0
 16 15  2  0
 17 18  1  0
 18 19  2  0
 18 20  1  0
 20 21  1  0
 22 21  1  1
 22 24  1  0
 23 22  1  0
 24 25  2  0
 24 26  1  0
M  END
$$$$
