EPQ.pdb
     RDKit          3D

 26 26  0  0  1  0  0  0  0  0999 V2000
   15.1398  -22.4454    2.1713 N   0  0  0  0  0  0  0  0  0  0  0  0
   16.5043  -22.2796    2.6464 C   0  0  1  0  0  0  0  0  0  0  0  0
   16.4973  -21.1196    3.5950 C   0  0  0  0  0  0  0  0  0  0  0  0
   16.2503  -19.7877    2.9833 C   0  0  0  0  0  0  0  0  0  0  0  0
   16.3827  -18.7044    3.9738 C   0  0  0  0  0  0  0  0  0  0  0  0
   17.3892  -18.0250    4.2056 O   0  0  0  0  0  0  0  0  0  0  0  0
   16.9794  -23.5445    3.2591 C   0  0  0  0  0  0  0  0  0  0  0  0
   16.0828  -24.3771    3.5656 O   0  0  0  0  0  0  0  0  0  0  0  0
   15.2336  -18.4237    4.7295 O   0  0  0  0  0  0  0  0  0  0  0  0
   18.3341  -23.8414    3.5025 N   0  0  0  0  0  0  0  0  0  0  0  0
   19.4925  -23.0265    3.1841 C   0  0  0  0  0  0  0  0  0  0  0  0
   20.7089  -23.8305    3.5393 C   0  0  0  0  0  0  0  0  0  0  0  0
   20.1948  -25.2601    3.5304 C   0  0  0  0  0  0  0  0  0  0  0  0
   18.8186  -25.0551    4.1368 C   0  0  1  0  0  0  0  0  0  0  0  0
   19.0241  -24.8611    5.5976 C   0  0  0  0  0  0  0  0  0  0  0  0
   19.3753  -23.7906    6.1174 O   0  0  0  0  0  0  0  0  0  0  0  0
   15.9838  -28.8037    8.4010 N   0  0  0  0  0  0  0  0  0  0  0  0
   17.3169  -29.3062    8.2841 C   0  0  0  0  0  0  0  0  0  0  0  0
   17.5667  -30.5291    8.2125 O   0  0  0  0  0  0  0  0  0  0  0  0
   18.4519  -28.3172    8.2469 C   0  0  0  0  0  0  0  0  0  0  0  0
   17.9054  -26.9403    8.4439 C   0  0  0  0  0  0  0  0  0  0  0  0
   18.8457  -25.8998    7.8821 C   0  0  2  0  0  0  0  0  0  0  0  0
   18.7990  -25.9860    6.4394 N   0  0  0  0  0  0  0  0  0  0  0  0
   20.2569  -26.1709    8.3116 C   0  0  0  0  0  0  0  0  0  0  0  0
   21.1081  -26.6617    7.5115 O   0  0  0  0  0  0  0  0  0  0  0  0
   20.6989  -25.9000    9.5980 O   0  0  0  0  0  0  0  0  0  0  0  0
  2  3  1  0
  2  1  1  1
  4  5  1  0
  4  3  1  0
  5  9  1  0
  6  5  2  0
  7  2  1  0
  8  7  2  0
 10  7  1  0
 11 10  1  0
 12 13  1  0
 12 11  1  0
 13 14  1  0
 14 15  1  1
 14 10  1  0
 15 23  1  0
 16 15  2  0
 17 18  1  0
 18 19  2  0
 18 20  1  0
 20 21  1  0
 22 21  1  1
 22 24  1  0
 23 22  1  0
 24 25  2  0
 24 26  1  0
M  END
$$$$
