EPQ.pdb
     RDKit          3D

 26 26  0  0  1  0  0  0  0  0999 V2000
   32.3618  -25.3846  -17.2472 N   0  0  0  0  0  0  0  0  0  0  0  0
   31.3095  -24.4754  -17.6727 C   0  0  1  0  0  0  0  0  0  0  0  0
   31.2256  -24.5743  -19.1655 C   0  0  0  0  0  0  0  0  0  0  0  0
   30.9728  -25.9346  -19.7086 C   0  0  0  0  0  0  0  0  0  0  0  0
   30.8909  -25.9232  -21.1800 C   0  0  0  0  0  0  0  0  0  0  0  0
   31.8068  -25.6873  -21.9760 O   0  0  0  0  0  0  0  0  0  0  0  0
   30.0413  -24.8179  -16.9831 C   0  0  0  0  0  0  0  0  0  0  0  0
   30.0505  -25.8886  -16.3162 O   0  0  0  0  0  0  0  0  0  0  0  0
   29.6298  -26.2134  -21.7240 O   0  0  0  0  0  0  0  0  0  0  0  0
   28.8760  -24.0296  -17.0400 N   0  0  0  0  0  0  0  0  0  0  0  0
   28.6523  -22.8319  -17.8292 C   0  0  0  0  0  0  0  0  0  0  0  0
   27.2986  -22.3032  -17.4552 C   0  0  0  0  0  0  0  0  0  0  0  0
   27.0534  -22.9144  -16.0860 C   0  0  0  0  0  0  0  0  0  0  0  0
   27.6575  -24.2912  -16.2937 C   0  0  1  0  0  0  0  0  0  0  0  0
   26.6787  -25.0655  -17.1038 C   0  0  0  0  0  0  0  0  0  0  0  0
   26.5969  -25.0100  -18.3406 O   0  0  0  0  0  0  0  0  0  0  0  0
   26.1755  -30.2262  -16.4583 N   0  0  0  0  0  0  0  0  0  0  0  0
   24.8152  -30.3218  -16.8873 C   0  0  0  0  0  0  0  0  0  0  0  0
   24.3545  -31.3523  -17.4248 O   0  0  0  0  0  0  0  0  0  0  0  0
   23.9157  -29.1324  -16.6786 C   0  0  0  0  0  0  0  0  0  0  0  0
   24.7050  -28.0275  -16.0545 C   0  0  0  0  0  0  0  0  0  0  0  0
   25.0003  -26.9391  -17.0597 C   0  0  2  0  0  0  0  0  0  0  0  0
   25.7856  -25.9203  -16.3992 N   0  0  0  0  0  0  0  0  0  0  0  0
   23.7313  -26.2997  -17.5394 C   0  0  0  0  0  0  0  0  0  0  0  0
   23.2850  -25.2387  -17.0097 O   0  0  0  0  0  0  0  0  0  0  0  0
   22.9868  -26.8339  -18.5805 O   0  0  0  0  0  0  0  0  0  0  0  0
  2  3  1  0
  2  1  1  1
  4  5  1  0
  4  3  1  0
  5  9  1  0
  6  5  2  0
  7  2  1  0
  8  7  2  0
 10  7  1  0
 11 10  1  0
 12 13  1  0
 12 11  1  0
 13 14  1  0
 14 15  1  6
 14 10  1  0
 15 23  1  0
 16 15  2  0
 17 18  1  0
 18 19  2  0
 18 20  1  0
 20 21  1  0
 22 21  1  1
 22 24  1  0
 23 22  1  0
 24 25  2  0
 24 26  1  0
M  END
$$$$
