EPQ.pdb
     RDKit          3D

 26 26  0  0  1  0  0  0  0  0999 V2000
   28.5344  -22.1740  -17.2248 N   0  0  0  0  0  0  0  0  0  0  0  0
   28.4876  -20.9798  -16.3961 C   0  0  1  0  0  0  0  0  0  0  0  0
   27.5975  -19.9984  -17.0963 C   0  0  0  0  0  0  0  0  0  0  0  0
   27.3299  -18.7334  -16.3634 C   0  0  0  0  0  0  0  0  0  0  0  0
   26.3932  -17.8679  -17.1020 C   0  0  0  0  0  0  0  0  0  0  0  0
   25.1978  -17.6779  -16.8510 O   0  0  0  0  0  0  0  0  0  0  0  0
   28.0236  -21.3335  -15.0320 C   0  0  0  0  0  0  0  0  0  0  0  0
   27.0654  -22.1517  -14.9727 O   0  0  0  0  0  0  0  0  0  0  0  0
   26.9297  -17.1913  -18.2087 O   0  0  0  0  0  0  0  0  0  0  0  0
   28.5857  -20.8148  -13.8498 N   0  0  0  0  0  0  0  0  0  0  0  0
   29.6958  -19.8875  -13.7272 C   0  0  0  0  0  0  0  0  0  0  0  0
   29.9830  -19.7338  -12.2623 C   0  0  0  0  0  0  0  0  0  0  0  0
   29.3840  -20.9922  -11.6573 C   0  0  0  0  0  0  0  0  0  0  0  0
   28.1331  -21.1297  -12.5058 C   0  0  1  0  0  0  0  0  0  0  0  0
   27.1676  -20.1146  -12.0048 C   0  0  0  0  0  0  0  0  0  0  0  0
   27.0733  -18.9605  -12.4506 O   0  0  0  0  0  0  0  0  0  0  0  0
   23.0761  -22.2052  -14.1465 N   0  0  0  0  0  0  0  0  0  0  0  0
   22.2080  -21.3822  -13.3638 C   0  0  0  0  0  0  0  0  0  0  0  0
   20.9906  -21.2605  -13.6208 O   0  0  0  0  0  0  0  0  0  0  0  0
   22.7930  -20.6407  -12.1910 C   0  0  0  0  0  0  0  0  0  0  0  0
   24.2567  -20.9317  -12.1110 C   0  0  0  0  0  0  0  0  0  0  0  0
   24.8885  -20.2105  -10.9435 C   0  0  2  0  0  0  0  0  0  0  0  0
   26.3034  -20.5087  -10.9452 N   0  0  0  0  0  0  0  0  0  0  0  0
   24.3191  -20.6996   -9.6451 C   0  0  0  0  0  0  0  0  0  0  0  0
   24.8271  -21.6843   -9.0303 O   0  0  0  0  0  0  0  0  0  0  0  0
   23.2149  -20.1027   -9.0552 O   0  0  0  0  0  0  0  0  0  0  0  0
  2  3  1  0
  2  1  1  6
  4  5  1  0
  4  3  1  0
  5  9  1  0
  6  5  2  0
  7  2  1  0
  8  7  2  0
 10  7  1  0
 11 10  1  0
 12 13  1  0
 12 11  1  0
 13 14  1  0
 14 15  1  1
 14 10  1  0
 15 23  1  0
 16 15  2  0
 17 18  1  0
 18 19  2  0
 18 20  1  0
 20 21  1  0
 22 21  1  6
 22 24  1  0
 23 22  1  0
 24 25  2  0
 24 26  1  0
M  END
$$$$
