EPQ.pdb
     RDKit          3D

 26 26  0  0  1  0  0  0  0  0999 V2000
   21.9268  -13.7322  -17.1236 N   0  0  0  0  0  0  0  0  0  0  0  0
   22.8955  -12.7566  -17.5979 C   0  0  1  0  0  0  0  0  0  0  0  0
   22.4158  -12.2813  -18.9356 C   0  0  0  0  0  0  0  0  0  0  0  0
   22.3023  -13.3245  -19.9881 C   0  0  0  0  0  0  0  0  0  0  0  0
   21.9119  -12.7442  -21.2853 C   0  0  0  0  0  0  0  0  0  0  0  0
   22.5329  -11.9007  -21.9418 O   0  0  0  0  0  0  0  0  0  0  0  0
   23.0426  -11.6692  -16.5994 C   0  0  0  0  0  0  0  0  0  0  0  0
   22.0152  -11.4089  -15.9154 O   0  0  0  0  0  0  0  0  0  0  0  0
   20.7012  -13.2086  -21.8229 O   0  0  0  0  0  0  0  0  0  0  0  0
   24.2327  -10.9457  -16.3924 N   0  0  0  0  0  0  0  0  0  0  0  0
   25.5096  -11.1281  -17.0583 C   0  0  0  0  0  0  0  0  0  0  0  0
   26.4847  -10.1913  -16.4075 C   0  0  0  0  0  0  0  0  0  0  0  0
   25.8538   -9.9202  -15.0522 C   0  0  0  0  0  0  0  0  0  0  0  0
   24.3892   -9.8555  -15.4452 C   0  0  1  0  0  0  0  0  0  0  0  0
   24.1836   -8.5341  -16.0975 C   0  0  0  0  0  0  0  0  0  0  0  0
   24.3163   -8.3274  -17.3137 O   0  0  0  0  0  0  0  0  0  0  0  0
   20.2588   -7.5223  -18.2801 N   0  0  0  0  0  0  0  0  0  0  0  0
   19.8574   -6.3254  -17.6095 C   0  0  0  0  0  0  0  0  0  0  0  0
   18.9251   -5.6051  -18.0277 O   0  0  0  0  0  0  0  0  0  0  0  0
   20.5915   -5.9291  -16.3558 C   0  0  0  0  0  0  0  0  0  0  0  0
   21.5883   -6.9901  -16.0184 C   0  0  0  0  0  0  0  0  0  0  0  0
   22.9362   -6.3852  -15.7029 C   0  0  2  0  0  0  0  0  0  0  0  0
   23.8110   -7.4473  -15.2581 N   0  0  0  0  0  0  0  0  0  0  0  0
   22.8238   -5.3878  -14.5884 C   0  0  0  0  0  0  0  0  0  0  0  0
   22.9032   -5.7420  -13.3745 O   0  0  0  0  0  0  0  0  0  0  0  0
   22.6287   -4.0358  -14.8286 O   0  0  0  0  0  0  0  0  0  0  0  0
  2  3  1  0
  2  1  1  1
  4  5  1  0
  4  3  1  0
  5  9  1  0
  6  5  2  0
  7  2  1  0
  8  7  2  0
 10  7  1  0
 11 10  1  0
 12 13  1  0
 12 11  1  0
 13 14  1  0
 14 15  1  6
 14 10  1  0
 15 23  1  0
 16 15  2  0
 17 18  1  0
 18 19  2  0
 18 20  1  0
 20 21  1  0
 22 21  1  1
 22 24  1  0
 23 22  1  0
 24 25  2  0
 24 26  1  0
M  END
$$$$
