EPQ.pdb
     RDKit          3D

 26 26  0  0  1  0  0  0  0  0999 V2000
   23.5850  -21.3939  -15.1979 N   0  0  0  0  0  0  0  0  0  0  0  0
   22.8486  -20.5088  -14.3094 C   0  0  1  0  0  0  0  0  0  0  0  0
   21.6782  -19.9871  -15.0862 C   0  0  0  0  0  0  0  0  0  0  0  0
   21.8621  -19.9156  -16.5594 C   0  0  0  0  0  0  0  0  0  0  0  0
   20.6629  -19.3812  -17.2291 C   0  0  0  0  0  0  0  0  0  0  0  0
   20.4748  -19.2723  -18.4460 O   0  0  0  0  0  0  0  0  0  0  0  0
   22.4646  -21.2406  -13.0773 C   0  0  0  0  0  0  0  0  0  0  0  0
   22.5789  -22.4959  -13.1258 O   0  0  0  0  0  0  0  0  0  0  0  0
   19.6294  -18.9529  -16.3813 O   0  0  0  0  0  0  0  0  0  0  0  0
   21.9969  -20.6173  -11.9045 N   0  0  0  0  0  0  0  0  0  0  0  0
   21.7498  -19.2032  -11.6889 C   0  0  0  0  0  0  0  0  0  0  0  0
   21.3707  -19.0362  -10.2465 C   0  0  0  0  0  0  0  0  0  0  0  0
   21.9488  -20.2782   -9.5897 C   0  0  0  0  0  0  0  0  0  0  0  0
   21.6700  -21.3081  -10.6692 C   0  0  1  0  0  0  0  0  0  0  0  0
   20.2180  -21.6229  -10.5895 C   0  0  0  0  0  0  0  0  0  0  0  0
   19.3562  -21.1392  -11.3398 O   0  0  0  0  0  0  0  0  0  0  0  0
   18.4647  -26.0697   -6.5513 N   0  0  0  0  0  0  0  0  0  0  0  0
   17.3061  -26.0426   -7.3882 C   0  0  0  0  0  0  0  0  0  0  0  0
   16.3341  -26.8083   -7.2094 O   0  0  0  0  0  0  0  0  0  0  0  0
   17.2675  -25.0523   -8.5219 C   0  0  0  0  0  0  0  0  0  0  0  0
   18.4907  -24.1958   -8.4631 C   0  0  0  0  0  0  0  0  0  0  0  0
   18.5666  -23.2783   -9.6610 C   0  0  2  0  0  0  0  0  0  0  0  0
   19.8073  -22.5398   -9.5818 N   0  0  0  0  0  0  0  0  0  0  0  0
   17.4416  -22.2866   -9.6435 C   0  0  0  0  0  0  0  0  0  0  0  0
   17.5152  -21.2161   -8.9696 O   0  0  0  0  0  0  0  0  0  0  0  0
   16.2712  -22.4897  -10.3594 O   0  0  0  0  0  0  0  0  0  0  0  0
  2  3  1  0
  2  1  1  6
  4  5  1  0
  4  3  1  0
  5  9  1  0
  6  5  2  0
  7  2  1  0
  8  7  2  0
 10  7  1  0
 11 10  1  0
 12 13  1  0
 12 11  1  0
 13 14  1  0
 14 15  1  6
 14 10  1  0
 15 23  1  0
 16 15  2  0
 17 18  1  0
 18 19  2  0
 18 20  1  0
 20 21  1  0
 22 21  1  1
 22 24  1  0
 23 22  1  0
 24 25  2  0
 24 26  1  0
M  END
$$$$
