EPQ.pdb
     RDKit          3D

 26 26  0  0  1  0  0  0  0  0999 V2000
   25.4743  -21.0284  -10.9668 N   0  0  0  0  0  0  0  0  0  0  0  0
   26.3126  -20.3340  -11.9312 C   0  0  1  0  0  0  0  0  0  0  0  0
   27.0199  -21.3859  -12.7305 C   0  0  0  0  0  0  0  0  0  0  0  0
   26.1501  -22.2560  -13.5644 C   0  0  0  0  0  0  0  0  0  0  0  0
   26.4177  -22.0703  -15.0017 C   0  0  0  0  0  0  0  0  0  0  0  0
   25.5836  -21.9346  -15.9039 O   0  0  0  0  0  0  0  0  0  0  0  0
   25.4807  -19.4223  -12.7545 C   0  0  0  0  0  0  0  0  0  0  0  0
   24.2695  -19.3274  -12.4153 O   0  0  0  0  0  0  0  0  0  0  0  0
   27.7711  -22.0470  -15.3732 O   0  0  0  0  0  0  0  0  0  0  0  0
   25.9675  -18.6891  -13.8536 N   0  0  0  0  0  0  0  0  0  0  0  0
   27.2908  -18.7526  -14.4470 C   0  0  0  0  0  0  0  0  0  0  0  0
   27.3466  -17.7000  -15.5152 C   0  0  0  0  0  0  0  0  0  0  0  0
   26.2476  -16.7334  -15.1077 C   0  0  0  0  0  0  0  0  0  0  0  0
   25.2008  -17.7117  -14.6067 C   0  0  1  0  0  0  0  0  0  0  0  0
   24.5784  -18.3207  -15.8131 C   0  0  0  0  0  0  0  0  0  0  0  0
   25.0176  -19.3253  -16.3940 O   0  0  0  0  0  0  0  0  0  0  0  0
   18.5614  -17.0610  -16.1127 N   0  0  0  0  0  0  0  0  0  0  0  0
   18.8375  -18.4177  -15.7569 C   0  0  0  0  0  0  0  0  0  0  0  0
   17.9864  -19.1519  -15.2096 O   0  0  0  0  0  0  0  0  0  0  0  0
   20.2057  -18.9701  -16.0574 C   0  0  0  0  0  0  0  0  0  0  0  0
   21.0436  -17.8929  -16.6664 C   0  0  0  0  0  0  0  0  0  0  0  0
   22.3998  -18.4241  -17.0673 C   0  0  2  0  0  0  0  0  0  0  0  0
   23.4037  -17.6986  -16.3211 N   0  0  0  0  0  0  0  0  0  0  0  0
   22.6538  -18.1872  -18.5263 C   0  0  0  0  0  0  0  0  0  0  0  0
   23.3987  -17.2418  -18.9221 O   0  0  0  0  0  0  0  0  0  0  0  0
   22.0897  -18.9859  -19.5100 O   0  0  0  0  0  0  0  0  0  0  0  0
  2  3  1  0
  2  1  1  1
  4  5  1  0
  4  3  1  0
  5  9  1  0
  6  5  2  0
  7  2  1  0
  8  7  2  0
 10  7  1  0
 11 10  1  0
 12 13  1  0
 12 11  1  0
 13 14  1  0
 14 15  1  6
 14 10  1  0
 15 23  1  0
 16 15  2  0
 17 18  1  0
 18 19  2  0
 18 20  1  0
 20 21  1  0
 22 21  1  1
 22 24  1  0
 23 22  1  0
 24 25  2  0
 24 26  1  0
M  END
$$$$
