VRQ.pdb
     RDKit          3D

 28 27  0  0  1  0  0  0  0  0999 V2000
   24.8710  -26.1210  -16.4553 C   0  0  0  0  0  0  0  0  0  0  0  0
   25.2939  -24.7829  -17.0583 C   0  0  2  0  0  0  0  0  0  0  0  0
   26.7984  -24.7264  -17.1364 C   0  0  0  0  0  0  0  0  0  0  0  0
   24.8201  -23.6681  -16.1266 C   0  0  2  0  0  0  0  0  0  0  0  0
   25.5129  -23.7482  -14.8573 N   0  0  0  0  0  0  0  0  0  0  0  0
   23.3675  -23.7782  -15.9435 C   0  0  0  0  0  0  0  0  0  0  0  0
   22.6432  -23.8183  -16.9896 O   0  0  0  0  0  0  0  0  0  0  0  0
   18.5137  -25.5764   -9.0529 N   0  0  0  0  0  0  0  0  0  0  0  0
   17.5097  -25.6029  -10.0610 C   0  0  0  0  0  0  0  0  0  0  0  0
   16.2761  -25.7065   -9.7016 N   0  0  0  0  0  0  0  0  0  0  0  0
   17.8434  -25.5173  -11.4520 N   0  0  0  0  0  0  0  0  0  0  0  0
   19.2506  -25.4074  -11.7732 C   0  0  0  0  0  0  0  0  0  0  0  0
   19.4713  -24.6938  -13.0897 C   0  0  0  0  0  0  0  0  0  0  0  0
   20.9921  -24.5537  -13.2403 C   0  0  0  0  0  0  0  0  0  0  0  0
   21.3423  -23.8849  -14.5521 C   0  0  2  0  0  0  0  0  0  0  0  0
   22.7784  -23.8385  -14.6699 N   0  0  0  0  0  0  0  0  0  0  0  0
   20.7548  -22.5248  -14.6350 C   0  0  0  0  0  0  0  0  0  0  0  0
   21.1169  -21.6387  -13.7978 O   0  0  0  0  0  0  0  0  0  0  0  0
   15.5215  -25.7967  -10.3985 N   0  0  0  0  0  0  0  0  0  0  0  0
   19.3242  -19.9260  -19.9123 C   0  0  0  0  0  0  0  0  0  0  0  0
   18.7766  -18.9589  -19.0165 O   0  0  0  0  0  0  0  0  0  0  0  0
   18.3767  -17.8554  -19.4955 C   0  0  0  0  0  0  0  0  0  0  0  0
   18.6886  -19.2734  -17.5832 C   0  0  0  0  0  0  0  0  0  0  0  0
   19.2966  -20.5456  -17.1597 C   0  0  1  0  0  0  0  0  0  0  0  0
   19.2242  -20.8999  -15.7153 N   0  0  0  0  0  0  0  0  0  0  0  0
   19.8142  -22.2749  -15.6461 C   0  0  0  0  0  0  0  0  0  0  0  0
   17.8653  -21.0066  -15.1970 O   0  0  0  0  0  0  0  0  0  0  0  0
   17.1758  -19.9035  -14.7194 O   0  0  0  0  0  0  0  0  0  0  0  0
  2  1  1  1
  2  3  1  0
  4  5  1  1
  4  2  1  0
  6  4  1  0
  6  7  2  0
  9 11  1  0
  9  8  1  0
 10  9  2  0
 12 11  1  0
 12 13  1  0
 13 14  1  0
 15 14  1  1
 15 17  1  0
 15 16  1  0
 16  6  1  0
 17 25  1  0
 18 17  2  0
 19 20  1  0
 20 22  1  0
 20 21  2  0
 22 23  1  0
 24 23  1  1
 24 26  1  0
 25 24  1  0
 26 28  2  0
 26 27  1  0
M  END
$$$$
