VRQ.pdb
     RDKit          3D

 28 27  0  0  1  0  0  0  0  0999 V2000
   24.8755  -22.4090  -19.4423 C   0  0  0  0  0  0  0  0  0  0  0  0
   24.3119  -21.2406  -20.2486 C   0  0  2  0  0  0  0  0  0  0  0  0
   25.2574  -20.9131  -21.3763 C   0  0  0  0  0  0  0  0  0  0  0  0
   24.2235  -20.0238  -19.3285 C   0  0  2  0  0  0  0  0  0  0  0  0
   25.5358  -19.4395  -19.1437 N   0  0  0  0  0  0  0  0  0  0  0  0
   23.6415  -20.4324  -18.0439 C   0  0  0  0  0  0  0  0  0  0  0  0
   22.5037  -21.0029  -18.0675 O   0  0  0  0  0  0  0  0  0  0  0  0
   26.3745  -21.2474  -11.2390 N   0  0  0  0  0  0  0  0  0  0  0  0
   25.1870  -21.0863  -10.4717 C   0  0  0  0  0  0  0  0  0  0  0  0
   25.2887  -20.6690   -9.2564 N   0  0  0  0  0  0  0  0  0  0  0  0
   23.8958  -21.3766  -11.0213 N   0  0  0  0  0  0  0  0  0  0  0  0
   23.8120  -21.4625  -12.4639 C   0  0  0  0  0  0  0  0  0  0  0  0
   23.8281  -20.0933  -13.1091 C   0  0  0  0  0  0  0  0  0  0  0  0
   24.5692  -20.2669  -14.4416 C   0  0  0  0  0  0  0  0  0  0  0  0
   23.5894  -20.4185  -15.5852 C   0  0  2  0  0  0  0  0  0  0  0  0
   24.2992  -20.2115  -16.8227 N   0  0  0  0  0  0  0  0  0  0  0  0
   22.4578  -19.4680  -15.4521 C   0  0  0  0  0  0  0  0  0  0  0  0
   22.6807  -18.2191  -15.5409 O   0  0  0  0  0  0  0  0  0  0  0  0
   24.4524  -20.4707   -8.6869 N   0  0  0  0  0  0  0  0  0  0  0  0
   19.5307  -20.2614  -18.9217 C   0  0  0  0  0  0  0  0  0  0  0  0
   18.6719  -20.9036  -17.9796 O   0  0  0  0  0  0  0  0  0  0  0  0
   18.0471  -21.9432  -18.3481 C   0  0  0  0  0  0  0  0  0  0  0  0
   18.5464  -20.3482  -16.6243 C   0  0  0  0  0  0  0  0  0  0  0  0
   19.3040  -19.1148  -16.3559 C   0  0  1  0  0  0  0  0  0  0  0  0
   20.0479  -19.0259  -15.0691 N   0  0  0  0  0  0  0  0  0  0  0  0
   21.1768  -19.9969  -15.2316 C   0  0  0  0  0  0  0  0  0  0  0  0
   19.2839  -19.4705  -13.9092 O   0  0  0  0  0  0  0  0  0  0  0  0
   18.2983  -18.6825  -13.3365 O   0  0  0  0  0  0  0  0  0  0  0  0
  2  1  1  1
  2  3  1  0
  4  5  1  1
  4  2  1  0
  6  4  1  0
  6  7  2  0
  9 11  1  0
  9  8  1  0
 10  9  2  0
 12 11  1  0
 12 13  1  0
 13 14  1  0
 15 14  1  1
 15 17  1  0
 15 16  1  0
 16  6  1  0
 17 25  1  0
 18 17  2  0
 19 20  1  0
 20 22  1  0
 20 21  2  0
 22 23  1  0
 24 23  1  6
 24 26  1  0
 25 24  1  0
 26 28  2  0
 26 27  1  0
M  END
$$$$
