VRQ.pdb
     RDKit          3D

 28 27  0  0  1  0  0  0  0  0999 V2000
   18.5326  -13.0309  -15.4184 C   0  0  0  0  0  0  0  0  0  0  0  0
   17.2472  -13.8246  -15.6438 C   0  0  2  0  0  0  0  0  0  0  0  0
   16.5477  -13.2995  -16.8717 C   0  0  0  0  0  0  0  0  0  0  0  0
   16.3323  -13.6040  -14.4398 C   0  0  2  0  0  0  0  0  0  0  0  0
   15.1603  -14.4490  -14.5402 N   0  0  0  0  0  0  0  0  0  0  0  0
   15.9570  -12.1861  -14.3733 C   0  0  0  0  0  0  0  0  0  0  0  0
   15.3734  -11.6830  -15.3867 O   0  0  0  0  0  0  0  0  0  0  0  0
   11.8806   -8.9632   -8.0601 N   0  0  0  0  0  0  0  0  0  0  0  0
   11.2732   -9.9431   -8.8942 C   0  0  0  0  0  0  0  0  0  0  0  0
   10.1067  -10.3889   -8.5748 N   0  0  0  0  0  0  0  0  0  0  0  0
   11.9289  -10.4362  -10.0692 N   0  0  0  0  0  0  0  0  0  0  0  0
   13.2499   -9.9101  -10.3407 C   0  0  0  0  0  0  0  0  0  0  0  0
   13.7363  -10.3002  -11.7200 C   0  0  0  0  0  0  0  0  0  0  0  0
   15.1750   -9.7759  -11.8206 C   0  0  0  0  0  0  0  0  0  0  0  0
   15.7463  -10.0362  -13.1978 C   0  0  2  0  0  0  0  0  0  0  0  0
   16.2229  -11.3960  -13.2429 N   0  0  0  0  0  0  0  0  0  0  0  0
   16.8329   -9.0777  -13.5181 C   0  0  0  0  0  0  0  0  0  0  0  0
   18.0003   -9.2842  -13.0579 O   0  0  0  0  0  0  0  0  0  0  0  0
    9.6672  -11.1610   -9.0980 N   0  0  0  0  0  0  0  0  0  0  0  0
   17.7505   -7.5520  -19.0443 C   0  0  0  0  0  0  0  0  0  0  0  0
   18.6468   -6.6102  -18.4551 O   0  0  0  0  0  0  0  0  0  0  0  0
   19.4245   -5.9627  -19.2186 C   0  0  0  0  0  0  0  0  0  0  0  0
   18.6342   -6.4185  -16.9977 C   0  0  0  0  0  0  0  0  0  0  0  0
   17.6619   -7.2283  -16.2452 C   0  0  1  0  0  0  0  0  0  0  0  0
   17.6505   -7.0944  -14.7623 N   0  0  0  0  0  0  0  0  0  0  0  0
   16.5190   -7.9729  -14.3245 C   0  0  0  0  0  0  0  0  0  0  0  0
   17.3375   -5.7508  -14.2895 O   0  0  0  0  0  0  0  0  0  0  0  0
   18.3272   -4.8118  -14.0465 O   0  0  0  0  0  0  0  0  0  0  0  0
  2  1  1  1
  2  3  1  0
  4  5  1  6
  4  2  1  0
  6  4  1  0
  6  7  2  0
  9 11  1  0
  9  8  1  0
 10  9  2  0
 12 11  1  0
 12 13  1  0
 13 14  1  0
 15 14  1  1
 15 17  1  0
 15 16  1  0
 16  6  1  0
 17 25  1  0
 18 17  2  0
 19 20  1  0
 20 22  1  0
 20 21  2  0
 22 23  1  0
 24 23  1  1
 24 26  1  0
 25 24  1  0
 26 28  2  0
 26 27  1  0
M  END
$$$$
