VRQ.pdb
     RDKit          3D

 28 27  0  0  1  0  0  0  0  0999 V2000
   19.7740  -13.7680  -19.6827 C   0  0  0  0  0  0  0  0  0  0  0  0
   18.9786  -14.5098  -18.6104 C   0  0  2  0  0  0  0  0  0  0  0  0
   17.5132  -14.1934  -18.7707 C   0  0  0  0  0  0  0  0  0  0  0  0
   19.4318  -14.0016  -17.2424 C   0  0  2  0  0  0  0  0  0  0  0  0
   18.8467  -14.8068  -16.1902 N   0  0  0  0  0  0  0  0  0  0  0  0
   19.0503  -12.5908  -17.1019 C   0  0  0  0  0  0  0  0  0  0  0  0
   19.5754  -11.7555  -17.9065 O   0  0  0  0  0  0  0  0  0  0  0  0
   12.6386  -10.8297  -17.0561 N   0  0  0  0  0  0  0  0  0  0  0  0
   12.3988  -11.9966  -16.2780 C   0  0  0  0  0  0  0  0  0  0  0  0
   11.4547  -12.7965  -16.6389 N   0  0  0  0  0  0  0  0  0  0  0  0
   13.1802  -12.2936  -15.1139 N   0  0  0  0  0  0  0  0  0  0  0  0
   14.2579  -11.3767  -14.8081 C   0  0  0  0  0  0  0  0  0  0  0  0
   15.4528  -11.5945  -15.7115 C   0  0  0  0  0  0  0  0  0  0  0  0
   16.5354  -10.6271  -15.2143 C   0  0  0  0  0  0  0  0  0  0  0  0
   17.7955  -10.7602  -16.0421 C   0  0  2  0  0  0  0  0  0  0  0  0
   18.1413  -12.1574  -16.1228 N   0  0  0  0  0  0  0  0  0  0  0  0
   18.9064   -9.9671  -15.4600 C   0  0  0  0  0  0  0  0  0  0  0  0
   19.4672  -10.3719  -14.3928 O   0  0  0  0  0  0  0  0  0  0  0  0
   11.2582  -13.6631  -16.1158 N   0  0  0  0  0  0  0  0  0  0  0  0
   23.1142   -7.5395  -18.9060 C   0  0  0  0  0  0  0  0  0  0  0  0
   23.5196   -6.9957  -17.6500 O   0  0  0  0  0  0  0  0  0  0  0  0
   24.6295   -6.3862  -17.5897 C   0  0  0  0  0  0  0  0  0  0  0  0
   22.6426   -7.1524  -16.4806 C   0  0  0  0  0  0  0  0  0  0  0  0
   21.4027   -7.9160  -16.6974 C   0  0  1  0  0  0  0  0  0  0  0  0
   20.4525   -8.0305  -15.5567 N   0  0  0  0  0  0  0  0  0  0  0  0
   19.2927   -8.7915  -16.1219 C   0  0  0  0  0  0  0  0  0  0  0  0
   19.9227   -6.7530  -15.0940 O   0  0  0  0  0  0  0  0  0  0  0  0
   20.5740   -5.9958  -14.1334 O   0  0  0  0  0  0  0  0  0  0  0  0
  2  1  1  6
  2  3  1  0
  4  5  1  1
  4  2  1  0
  6  4  1  0
  6  7  2  0
  9 11  1  0
  9  8  1  0
 10  9  2  0
 12 11  1  0
 12 13  1  0
 13 14  1  0
 15 14  1  1
 15 17  1  0
 15 16  1  0
 16  6  1  0
 17 25  1  0
 18 17  2  0
 19 20  1  0
 20 22  1  0
 20 21  2  0
 22 23  1  0
 24 23  1  1
 24 26  1  0
 25 24  1  0
 26 28  2  0
 26 27  1  0
M  END
$$$$
