CYP.pdb
     RDKit          3D

 26 27  0  0  1  0  0  0  0  0999 V2000
    8.0492  -13.1389   17.4888 N   0  0  0  0  0  0  0  0  0  0  0  0
    7.2534  -13.9348   18.4097 C   0  0  1  0  0  0  0  0  0  0  0  0
    7.3000  -15.3633   17.8679 C   0  0  0  0  0  0  0  0  0  0  0  0
    9.0066  -16.0094   17.9498 S   0  0  0  0  0  0  0  0  0  0  0  0
    7.8296  -13.8895   19.7886 C   0  0  0  0  0  0  0  0  0  0  0  0
    9.0596  -13.6030   19.8456 O   0  0  0  0  0  0  0  0  0  0  0  0
    7.7412  -13.3797   28.7563 O   0  0  0  0  0  0  0  0  0  0  0  0
    7.5114  -13.3822   27.3734 C   0  0  0  0  0  0  0  0  0  0  0  0
    7.8426  -12.3057   26.5824 C   0  0  0  0  0  0  0  0  0  0  0  0
    7.5997  -12.3463   25.2203 C   0  0  0  0  0  0  0  0  0  0  0  0
    7.0297  -13.4286   24.5845 C   0  0  0  0  0  0  0  0  0  0  0  0
    6.7231  -13.4924   23.1652 C   0  0  0  0  0  0  0  0  0  0  0  0
    7.7196  -14.1655   22.2587 C   0  0  2  0  0  0  0  0  0  0  0  0
    7.0719  -14.1437   20.9398 N   0  0  0  0  0  0  0  0  0  0  0  0
    8.0545  -15.5574   22.6207 C   0  0  0  0  0  0  0  0  0  0  0  0
    7.2568  -16.4449   22.1239 O   0  0  0  0  0  0  0  0  0  0  0  0
    6.7026  -14.5113   25.4143 C   0  0  0  0  0  0  0  0  0  0  0  0
    6.9406  -14.4769   26.7636 C   0  0  0  0  0  0  0  0  0  0  0  0
    9.1369  -15.9447   23.4247 N   0  0  0  0  0  0  0  0  0  0  0  0
   10.0862  -15.0492   24.0527 C   0  0  0  0  0  0  0  0  0  0  0  0
   11.4390  -15.7338   23.8384 C   0  0  0  0  0  0  0  0  0  0  0  0
   11.0807  -17.1370   23.4279 C   0  0  0  0  0  0  0  0  0  0  0  0
    9.6245  -17.2408   23.8226 C   0  0  1  0  0  0  0  0  0  0  0  0
    9.4445  -17.6204   25.2032 C   0  0  0  0  0  0  0  0  0  0  0  0
    9.8174  -18.9437   25.5280 O   0  0  0  0  0  0  0  0  0  0  0  0
    9.0114  -16.9638   26.1555 O   0  0  0  0  0  0  0  0  0  0  0  0
  2  5  1  0
  2  1  1  6
  3  2  1  0
  4  3  1  0
  5  6  2  0
  7  8  1  0
  8  9  2  0
  8 18  1  0
  9 10  1  0
 10 11  2  0
 11 12  1  0
 13 12  1  1
 14 13  1  0
 14  5  1  0
 15 16  2  0
 15 13  1  0
 17 11  1  0
 18 17  2  0
 19 15  1  0
 20 19  1  0
 21 22  1  0
 21 20  1  0
 22 23  1  0
 23 19  1  0
 23 24  1  1
 24 25  1  0
 26 24  2  0
M  END
$$$$
