CYP.pdb
     RDKit          3D

 26 27  0  0  1  0  0  0  0  0999 V2000
    5.3358  -15.5294   20.1904 N   0  0  0  0  0  0  0  0  0  0  0  0
    5.3435  -16.1719   21.4950 C   0  0  1  0  0  0  0  0  0  0  0  0
    5.3256  -17.6746   21.2157 C   0  0  0  0  0  0  0  0  0  0  0  0
    7.0290  -18.3342   21.2249 S   0  0  0  0  0  0  0  0  0  0  0  0
    6.5739  -15.8068   22.2620 C   0  0  0  0  0  0  0  0  0  0  0  0
    7.5662  -15.4718   21.5539 O   0  0  0  0  0  0  0  0  0  0  0  0
   11.2335  -14.6541   29.9135 O   0  0  0  0  0  0  0  0  0  0  0  0
   10.3054  -14.7113   28.8645 C   0  0  0  0  0  0  0  0  0  0  0  0
    9.9749  -13.5963   28.1285 C   0  0  0  0  0  0  0  0  0  0  0  0
    9.0534  -13.6932   27.1002 C   0  0  0  0  0  0  0  0  0  0  0  0
    8.4254  -14.8708   26.7544 C   0  0  0  0  0  0  0  0  0  0  0  0
    7.4247  -15.0034   25.7088 C   0  0  0  0  0  0  0  0  0  0  0  0
    7.8809  -15.4715   24.3522 C   0  0  2  0  0  0  0  0  0  0  0  0
    6.6341  -15.8302   23.6619 N   0  0  0  0  0  0  0  0  0  0  0  0
    8.7899  -16.6353   24.3647 C   0  0  0  0  0  0  0  0  0  0  0  0
    8.1947  -17.7762   24.4860 O   0  0  0  0  0  0  0  0  0  0  0  0
    8.7811  -15.9909   27.5205 C   0  0  0  0  0  0  0  0  0  0  0  0
    9.6926  -15.9010   28.5400 C   0  0  0  0  0  0  0  0  0  0  0  0
   10.1866  -16.5703   24.2509 N   0  0  0  0  0  0  0  0  0  0  0  0
   10.9704  -15.3571   24.1447 C   0  0  0  0  0  0  0  0  0  0  0  0
   12.0129  -15.6824   23.0714 C   0  0  0  0  0  0  0  0  0  0  0  0
   11.9466  -17.1800   22.9354 C   0  0  0  0  0  0  0  0  0  0  0  0
   11.1949  -17.5972   24.1796 C   0  0  1  0  0  0  0  0  0  0  0  0
   12.0562  -17.7596   25.3260 C   0  0  0  0  0  0  0  0  0  0  0  0
   12.9204  -18.8766   25.2891 O   0  0  0  0  0  0  0  0  0  0  0  0
   12.1581  -17.0689   26.3448 O   0  0  0  0  0  0  0  0  0  0  0  0
  2  5  1  0
  2  1  1  6
  3  2  1  0
  4  3  1  0
  5  6  2  0
  7  8  1  0
  8  9  2  0
  8 18  1  0
  9 10  1  0
 10 11  2  0
 11 12  1  0
 13 12  1  1
 14 13  1  0
 14  5  1  0
 15 16  2  0
 15 13  1  0
 17 11  1  0
 18 17  2  0
 19 15  1  0
 20 19  1  0
 21 22  1  0
 21 20  1  0
 22 23  1  0
 23 19  1  0
 23 24  1  1
 24 25  1  0
 26 24  2  0
M  END
$$$$
