CYP.pdb
     RDKit          3D

 26 27  0  0  1  0  0  0  0  0999 V2000
    3.2971  -20.2970   22.2111 N   0  0  0  0  0  0  0  0  0  0  0  0
    4.6586  -20.2069   22.7142 C   0  0  1  0  0  0  0  0  0  0  0  0
    5.5429  -20.8112   21.6237 C   0  0  0  0  0  0  0  0  0  0  0  0
    7.2961  -20.7496   22.1327 S   0  0  0  0  0  0  0  0  0  0  0  0
    5.0440  -18.7829   22.9574 C   0  0  0  0  0  0  0  0  0  0  0  0
    4.5569  -17.9496   22.1409 O   0  0  0  0  0  0  0  0  0  0  0  0
    8.0850  -11.5517   27.2646 O   0  0  0  0  0  0  0  0  0  0  0  0
    7.6276  -12.8051   26.8346 C   0  0  0  0  0  0  0  0  0  0  0  0
    6.2861  -13.0746   26.6865 C   0  0  0  0  0  0  0  0  0  0  0  0
    5.8738  -14.3251   26.2598 C   0  0  0  0  0  0  0  0  0  0  0  0
    6.7467  -15.3504   25.9641 C   0  0  0  0  0  0  0  0  0  0  0  0
    6.3505  -16.6868   25.5523 C   0  0  0  0  0  0  0  0  0  0  0  0
    6.3758  -17.0071   24.0810 C   0  0  2  0  0  0  0  0  0  0  0  0
    5.8820  -18.3893   24.0095 N   0  0  0  0  0  0  0  0  0  0  0  0
    7.7062  -16.9252   23.4454 C   0  0  0  0  0  0  0  0  0  0  0  0
    8.3243  -18.0567   23.3534 O   0  0  0  0  0  0  0  0  0  0  0  0
    8.1072  -15.0482   26.1234 C   0  0  0  0  0  0  0  0  0  0  0  0
    8.5215  -13.8119   26.5458 C   0  0  0  0  0  0  0  0  0  0  0  0
    8.2972  -15.7503   22.9574 N   0  0  0  0  0  0  0  0  0  0  0  0
    7.9412  -14.4011   23.3452 C   0  0  0  0  0  0  0  0  0  0  0  0
    7.9416  -13.6241   22.0258 C   0  0  0  0  0  0  0  0  0  0  0  0
    8.6584  -14.5328   21.0634 C   0  0  0  0  0  0  0  0  0  0  0  0
    9.3329  -15.5283   21.9806 C   0  0  1  0  0  0  0  0  0  0  0  0
   10.6113  -15.0662   22.4650 C   0  0  0  0  0  0  0  0  0  0  0  0
   11.6308  -14.9562   21.4933 O   0  0  0  0  0  0  0  0  0  0  0  0
   10.9581  -14.7483   23.6070 O   0  0  0  0  0  0  0  0  0  0  0  0
  2  5  1  0
  2  1  1  6
  3  2  1  0
  4  3  1  0
  5  6  2  0
  7  8  1  0
  8  9  2  0
  8 18  1  0
  9 10  1  0
 10 11  2  0
 11 12  1  0
 13 12  1  1
 14 13  1  0
 14  5  1  0
 15 16  2  0
 15 13  1  0
 17 11  1  0
 18 17  2  0
 19 15  1  0
 20 19  1  0
 21 22  1  0
 21 20  1  0
 22 23  1  0
 23 19  1  0
 23 24  1  1
 24 25  1  0
 26 24  2  0
M  END
$$$$
