CYP.pdb
     RDKit          3D

 26 27  0  0  1  0  0  0  0  0999 V2000
    6.2195  -18.9127   26.0015 N   0  0  0  0  0  0  0  0  0  0  0  0
    7.1326  -18.7038   24.8892 C   0  0  1  0  0  0  0  0  0  0  0  0
    6.8637  -19.8491   23.9132 C   0  0  0  0  0  0  0  0  0  0  0  0
    8.0201  -19.7548   22.5023 S   0  0  0  0  0  0  0  0  0  0  0  0
    6.8713  -17.3904   24.2243 C   0  0  0  0  0  0  0  0  0  0  0  0
    5.6507  -17.1172   24.0401 O   0  0  0  0  0  0  0  0  0  0  0  0
    6.6013  -12.3391   28.6541 O   0  0  0  0  0  0  0  0  0  0  0  0
    7.0178  -12.7833   27.3915 C   0  0  0  0  0  0  0  0  0  0  0  0
    6.3250  -12.4627   26.2463 C   0  0  0  0  0  0  0  0  0  0  0  0
    6.7682  -12.9208   25.0176 C   0  0  0  0  0  0  0  0  0  0  0  0
    7.8935  -13.7017   24.8613 C   0  0  0  0  0  0  0  0  0  0  0  0
    8.3668  -14.2338   23.5943 C   0  0  0  0  0  0  0  0  0  0  0  0
    7.5920  -15.3652   22.9718 C   0  0  2  0  0  0  0  0  0  0  0  0
    7.8954  -16.5186   23.8304 N   0  0  0  0  0  0  0  0  0  0  0  0
    7.9568  -15.6800   21.5759 C   0  0  0  0  0  0  0  0  0  0  0  0
    7.8706  -16.9333   21.2714 O   0  0  0  0  0  0  0  0  0  0  0  0
    8.5801  -14.0128   26.0444 C   0  0  0  0  0  0  0  0  0  0  0  0
    8.1460  -13.5623   27.2638 C   0  0  0  0  0  0  0  0  0  0  0  0
    8.3621  -14.7410   20.6157 N   0  0  0  0  0  0  0  0  0  0  0  0
    8.5426  -13.3224   20.8445 C   0  0  0  0  0  0  0  0  0  0  0  0
    7.9279  -12.6661   19.6052 C   0  0  0  0  0  0  0  0  0  0  0  0
    7.7864  -13.7967   18.6216 C   0  0  0  0  0  0  0  0  0  0  0  0
    8.6714  -14.8702   19.2144 C   0  0  1  0  0  0  0  0  0  0  0  0
   10.0546  -14.7327   18.8266 C   0  0  0  0  0  0  0  0  0  0  0  0
   10.3797  -15.2121   17.5381 O   0  0  0  0  0  0  0  0  0  0  0  0
   11.0087  -14.2570   19.4500 O   0  0  0  0  0  0  0  0  0  0  0  0
  2  5  1  0
  2  1  1  1
  3  2  1  0
  4  3  1  0
  5  6  2  0
  7  8  1  0
  8  9  2  0
  8 18  1  0
  9 10  1  0
 10 11  2  0
 11 12  1  0
 13 12  1  1
 14 13  1  0
 14  5  1  0
 15 16  2  0
 15 13  1  0
 17 11  1  0
 18 17  2  0
 19 15  1  0
 20 19  1  0
 21 22  1  0
 21 20  1  0
 22 23  1  0
 23 19  1  0
 23 24  1  1
 24 25  1  0
 26 24  2  0
M  END
$$$$
