CYP.pdb
     RDKit          3D

 26 27  0  0  1  0  0  0  0  0999 V2000
    4.3028  -20.5734   22.3213 N   0  0  0  0  0  0  0  0  0  0  0  0
    5.2704  -20.3054   23.3733 C   0  0  1  0  0  0  0  0  0  0  0  0
    6.4949  -21.1555   23.0349 C   0  0  0  0  0  0  0  0  0  0  0  0
    7.3050  -20.5157   21.5279 S   0  0  0  0  0  0  0  0  0  0  0  0
    5.6420  -18.8574   23.3998 C   0  0  0  0  0  0  0  0  0  0  0  0
    5.3856  -18.2195   22.3388 O   0  0  0  0  0  0  0  0  0  0  0  0
    7.5209  -10.8890   27.0449 O   0  0  0  0  0  0  0  0  0  0  0  0
    7.2623  -12.2350   26.7511 C   0  0  0  0  0  0  0  0  0  0  0  0
    5.9790  -12.7276   26.6824 C   0  0  0  0  0  0  0  0  0  0  0  0
    5.7646  -14.0634   26.3897 C   0  0  0  0  0  0  0  0  0  0  0  0
    6.7847  -14.9606   26.1551 C   0  0  0  0  0  0  0  0  0  0  0  0
    6.6005  -16.3767   25.8845 C   0  0  0  0  0  0  0  0  0  0  0  0
    6.6300  -16.8292   24.4485 C   0  0  2  0  0  0  0  0  0  0  0  0
    6.2309  -18.2420   24.5126 N   0  0  0  0  0  0  0  0  0  0  0  0
    7.9440  -16.7177   23.7840 C   0  0  0  0  0  0  0  0  0  0  0  0
    8.6631  -17.7903   23.8397 O   0  0  0  0  0  0  0  0  0  0  0  0
    8.0817  -14.4317   26.2312 C   0  0  0  0  0  0  0  0  0  0  0  0
    8.3003  -13.1101   26.5208 C   0  0  0  0  0  0  0  0  0  0  0  0
    8.4220  -15.5745   23.1263 N   0  0  0  0  0  0  0  0  0  0  0  0
    7.9980  -14.2134   23.3815 C   0  0  0  0  0  0  0  0  0  0  0  0
    7.8649  -13.5989   21.9853 C   0  0  0  0  0  0  0  0  0  0  0  0
    8.5830  -14.5691   21.0859 C   0  0  0  0  0  0  0  0  0  0  0  0
    9.3788  -15.4061   22.0622 C   0  0  1  0  0  0  0  0  0  0  0  0
   10.6494  -14.8125   22.4026 C   0  0  0  0  0  0  0  0  0  0  0  0
   10.8474  -14.5340   23.7733 O   0  0  0  0  0  0  0  0  0  0  0  0
   11.6007  -14.5065   21.6768 O   0  0  0  0  0  0  0  0  0  0  0  0
  2  5  1  0
  2  1  1  6
  3  2  1  0
  4  3  1  0
  5  6  2  0
  7  8  1  0
  8  9  2  0
  8 18  1  0
  9 10  1  0
 10 11  2  0
 11 12  1  0
 13 12  1  1
 14 13  1  0
 14  5  1  0
 15 16  2  0
 15 13  1  0
 17 11  1  0
 18 17  2  0
 19 15  1  0
 20 19  1  0
 21 22  1  0
 21 20  1  0
 22 23  1  0
 23 19  1  0
 23 24  1  1
 24 25  1  0
 26 24  2  0
M  END
$$$$
