CYP.pdb
     RDKit          3D

 26 27  0  0  1  0  0  0  0  0999 V2000
    3.9465  -20.5478   22.5472 N   0  0  0  0  0  0  0  0  0  0  0  0
    5.2316  -20.3319   23.1927 C   0  0  1  0  0  0  0  0  0  0  0  0
    6.2550  -21.0760   22.3351 C   0  0  0  0  0  0  0  0  0  0  0  0
    7.9174  -20.9343   23.0788 S   0  0  0  0  0  0  0  0  0  0  0  0
    5.5653  -18.8753   23.2423 C   0  0  0  0  0  0  0  0  0  0  0  0
    5.2481  -18.2180   22.2100 O   0  0  0  0  0  0  0  0  0  0  0  0
    7.6871  -10.9884   26.9648 O   0  0  0  0  0  0  0  0  0  0  0  0
    7.3794  -12.3208   26.6563 C   0  0  0  0  0  0  0  0  0  0  0  0
    6.0822  -12.7806   26.6456 C   0  0  0  0  0  0  0  0  0  0  0  0
    5.8189  -14.1038   26.3360 C   0  0  0  0  0  0  0  0  0  0  0  0
    6.8022  -15.0198   26.0281 C   0  0  0  0  0  0  0  0  0  0  0  0
    6.5682  -16.4244   25.7374 C   0  0  0  0  0  0  0  0  0  0  0  0
    6.5641  -16.8539   24.2940 C   0  0  2  0  0  0  0  0  0  0  0  0
    6.1833  -18.2723   24.3462 N   0  0  0  0  0  0  0  0  0  0  0  0
    7.8584  -16.7162   23.5963 C   0  0  0  0  0  0  0  0  0  0  0  0
    8.6347  -17.7440   23.7038 O   0  0  0  0  0  0  0  0  0  0  0  0
    8.1144  -14.5242   26.0463 C   0  0  0  0  0  0  0  0  0  0  0  0
    8.3813  -13.2152   26.3523 C   0  0  0  0  0  0  0  0  0  0  0  0
    8.2627  -15.5936   22.8586 N   0  0  0  0  0  0  0  0  0  0  0  0
    7.6536  -14.2809   22.9153 C   0  0  0  0  0  0  0  0  0  0  0  0
    7.5968  -13.8353   21.4515 C   0  0  0  0  0  0  0  0  0  0  0  0
    8.5177  -14.7899   20.7399 C   0  0  0  0  0  0  0  0  0  0  0  0
    9.3000  -15.4111   21.8754 C   0  0  1  0  0  0  0  0  0  0  0  0
   10.4466  -14.6244   22.2613 C   0  0  0  0  0  0  0  0  0  0  0  0
   11.4895  -14.5553   21.3108 O   0  0  0  0  0  0  0  0  0  0  0  0
   10.6620  -13.9955   23.3022 O   0  0  0  0  0  0  0  0  0  0  0  0
  2  5  1  0
  2  1  1  6
  3  2  1  0
  4  3  1  0
  5  6  2  0
  7  8  1  0
  8  9  2  0
  8 18  1  0
  9 10  1  0
 10 11  2  0
 11 12  1  0
 13 12  1  1
 14 13  1  0
 14  5  1  0
 15 16  2  0
 15 13  1  0
 17 11  1  0
 18 17  2  0
 19 15  1  0
 20 19  1  0
 21 22  1  0
 21 20  1  0
 22 23  1  0
 23 19  1  0
 23 24  1  1
 24 25  1  0
 26 24  2  0
M  END
$$$$
