CYP.pdb
     RDKit          3D

 26 27  0  0  1  0  0  0  0  0999 V2000
    4.4319  -20.3604   21.8993 N   0  0  0  0  0  0  0  0  0  0  0  0
    5.4260  -20.2624   22.9562 C   0  0  1  0  0  0  0  0  0  0  0  0
    6.5589  -21.2032   22.5464 C   0  0  0  0  0  0  0  0  0  0  0  0
    7.8458  -21.2364   23.8423 S   0  0  0  0  0  0  0  0  0  0  0  0
    5.9390  -18.8633   23.0775 C   0  0  0  0  0  0  0  0  0  0  0  0
    6.2425  -18.3077   21.9832 O   0  0  0  0  0  0  0  0  0  0  0  0
    7.6003  -11.0052   27.0879 O   0  0  0  0  0  0  0  0  0  0  0  0
    7.3244  -12.3418   26.7679 C   0  0  0  0  0  0  0  0  0  0  0  0
    8.3266  -13.2369   26.4701 C   0  0  0  0  0  0  0  0  0  0  0  0
    8.0137  -14.5488   26.1588 C   0  0  0  0  0  0  0  0  0  0  0  0
    6.7231  -15.0325   26.1266 C   0  0  0  0  0  0  0  0  0  0  0  0
    6.3532  -16.3909   25.7660 C   0  0  0  0  0  0  0  0  0  0  0  0
    6.6369  -16.8486   24.3596 C   0  0  2  0  0  0  0  0  0  0  0  0
    6.0769  -18.2063   24.3077 N   0  0  0  0  0  0  0  0  0  0  0  0
    8.0663  -16.8904   23.9913 C   0  0  0  0  0  0  0  0  0  0  0  0
    8.6840  -17.9609   24.3699 O   0  0  0  0  0  0  0  0  0  0  0  0
    5.7220  -14.0993   26.4344 C   0  0  0  0  0  0  0  0  0  0  0  0
    6.0257  -12.7989   26.7431 C   0  0  0  0  0  0  0  0  0  0  0  0
    8.7481  -15.8879   23.2854 N   0  0  0  0  0  0  0  0  0  0  0  0
    8.3272  -14.5080   23.1591 C   0  0  0  0  0  0  0  0  0  0  0  0
    8.5954  -14.1719   21.6895 C   0  0  0  0  0  0  0  0  0  0  0  0
    9.4867  -15.2874   21.2133 C   0  0  0  0  0  0  0  0  0  0  0  0
    9.9595  -15.9144   22.5058 C   0  0  1  0  0  0  0  0  0  0  0  0
   11.1168  -15.2528   23.0585 C   0  0  0  0  0  0  0  0  0  0  0  0
   10.9429  -14.6838   24.3398 O   0  0  0  0  0  0  0  0  0  0  0  0
   12.2469  -15.1042   22.5830 O   0  0  0  0  0  0  0  0  0  0  0  0
  2  5  1  0
  2  1  1  6
  3  2  1  0
  4  3  1  0
  5  6  2  0
  7  8  1  0
  8  9  2  0
  8 18  1  0
  9 10  1  0
 10 11  2  0
 11 12  1  0
 13 12  1  1
 14 13  1  0
 14  5  1  0
 15 16  2  0
 15 13  1  0
 17 11  1  0
 18 17  2  0
 19 15  1  0
 20 19  1  0
 21 22  1  0
 21 20  1  0
 22 23  1  0
 23 19  1  0
 23 24  1  1
 24 25  1  0
 26 24  2  0
M  END
$$$$
