CYP.pdb
     RDKit          3D

 26 27  0  0  1  0  0  0  0  0999 V2000
    2.8433  -19.1762   21.8028 N   0  0  0  0  0  0  0  0  0  0  0  0
    4.1807  -19.4115   22.3233 C   0  0  1  0  0  0  0  0  0  0  0  0
    4.9181  -20.1875   21.2321 C   0  0  0  0  0  0  0  0  0  0  0  0
    6.3618  -21.0511   21.9439 S   0  0  0  0  0  0  0  0  0  0  0  0
    4.8812  -18.1194   22.5972 C   0  0  0  0  0  0  0  0  0  0  0  0
    4.7645  -17.2448   21.6917 O   0  0  0  0  0  0  0  0  0  0  0  0
    7.8184  -11.3187   27.4383 O   0  0  0  0  0  0  0  0  0  0  0  0
    7.4957  -12.5949   26.9566 C   0  0  0  0  0  0  0  0  0  0  0  0
    8.4676  -13.5171   26.6416 C   0  0  0  0  0  0  0  0  0  0  0  0
    8.1086  -14.7674   26.1683 C   0  0  0  0  0  0  0  0  0  0  0  0
    6.8002  -15.1614   25.9860 C   0  0  0  0  0  0  0  0  0  0  0  0
    6.3860  -16.4491   25.4545 C   0  0  0  0  0  0  0  0  0  0  0  0
    6.3066  -16.6011   23.9583 C   0  0  2  0  0  0  0  0  0  0  0  0
    5.6153  -17.8838   23.7675 N   0  0  0  0  0  0  0  0  0  0  0  0
    7.6087  -16.6344   23.2626 C   0  0  0  0  0  0  0  0  0  0  0  0
    8.1457  -17.8080   23.1909 O   0  0  0  0  0  0  0  0  0  0  0  0
    5.8307  -14.2023   26.3151 C   0  0  0  0  0  0  0  0  0  0  0  0
    6.1800  -12.9628   26.7839 C   0  0  0  0  0  0  0  0  0  0  0  0
    8.2529  -15.5220   22.7009 N   0  0  0  0  0  0  0  0  0  0  0  0
    7.8606  -14.1393   22.8786 C   0  0  0  0  0  0  0  0  0  0  0  0
    8.0075  -13.5301   21.4815 C   0  0  0  0  0  0  0  0  0  0  0  0
    8.8225  -14.5423   20.7221 C   0  0  0  0  0  0  0  0  0  0  0  0
    9.3898  -15.4106   21.8228 C   0  0  1  0  0  0  0  0  0  0  0  0
   10.6090  -14.8790   22.3828 C   0  0  0  0  0  0  0  0  0  0  0  0
   11.7400  -14.9203   21.5373 O   0  0  0  0  0  0  0  0  0  0  0  0
   10.8215  -14.3885   23.4962 O   0  0  0  0  0  0  0  0  0  0  0  0
  2  5  1  0
  2  1  1  6
  3  2  1  0
  4  3  1  0
  5  6  2  0
  7  8  1  0
  8  9  2  0
  8 18  1  0
  9 10  1  0
 10 11  2  0
 11 12  1  0
 13 12  1  1
 14 13  1  0
 14  5  1  0
 15 16  2  0
 15 13  1  0
 17 11  1  0
 18 17  2  0
 19 15  1  0
 20 19  1  0
 21 22  1  0
 21 20  1  0
 22 23  1  0
 23 19  1  0
 23 24  1  1
 24 25  1  0
 26 24  2  0
M  END
$$$$
