IQI.pdb
     RDKit          3D

 26 25  0  0  1  0  0  0  0  0999 V2000
   16.3804  -12.6826  -17.8586 C   0  0  0  0  0  0  0  0  0  0  0  0
   16.8199  -12.4517  -16.4480 C   0  0  0  0  0  0  0  0  0  0  0  0
   16.5610  -11.0339  -15.9775 C   0  0  2  0  0  0  0  0  0  0  0  0
   17.1948  -10.0134  -16.8570 C   0  0  0  0  0  0  0  0  0  0  0  0
   16.9600  -10.9720  -14.5299 C   0  0  2  0  0  0  0  0  0  0  0  0
   16.1786  -12.0358  -13.8695 N   0  0  0  0  0  0  0  0  0  0  0  0
   16.6393   -9.7046  -13.8579 C   0  0  0  0  0  0  0  0  0  0  0  0
   15.4296   -9.3101  -13.7801 O   0  0  0  0  0  0  0  0  0  0  0  0
   16.7066   -5.6322   -9.6955 N   0  0  0  0  0  0  0  0  0  0  0  0
   16.5633   -7.0402   -9.4911 C   0  0  0  0  0  0  0  0  0  0  0  0
   15.8401   -7.4104   -8.5432 O   0  0  0  0  0  0  0  0  0  0  0  0
   17.2632   -8.0155  -10.3916 C   0  0  0  0  0  0  0  0  0  0  0  0
   17.9670   -7.2120  -11.4671 C   0  0  0  0  0  0  0  0  0  0  0  0
   17.2835   -7.5149  -12.7908 C   0  0  2  0  0  0  0  0  0  0  0  0
   17.5814   -8.8379  -13.2602 N   0  0  0  0  0  0  0  0  0  0  0  0
   17.5862   -6.4694  -13.8046 C   0  0  0  0  0  0  0  0  0  0  0  0
   18.5882   -6.6492  -14.5137 O   0  0  0  0  0  0  0  0  0  0  0  0
   14.9366   -5.3364  -18.0324 C   0  0  0  0  0  0  0  0  0  0  0  0
   15.9893   -5.3600  -16.9908 C   0  0  0  0  0  0  0  0  0  0  0  0
   16.0954   -4.2540  -16.0303 C   0  0  2  0  0  0  0  0  0  0  0  0
   16.1170   -2.9562  -16.8547 C   0  0  0  0  0  0  0  0  0  0  0  0
   17.0596   -4.2418  -14.9330 C   0  0  2  0  0  0  0  0  0  0  0  0
   16.7934   -5.3230  -13.9735 N   0  0  0  0  0  0  0  0  0  0  0  0
   17.4838   -3.0164  -14.2779 C   0  0  0  0  0  0  0  0  0  0  0  0
   16.9575   -2.4234  -13.3154 O   0  0  0  0  0  0  0  0  0  0  0  0
   18.6505   -2.3382  -14.7440 O   0  0  0  0  0  0  0  0  0  0  0  0
  2  1  1  0
  3  2  1  0
  3  5  1  0
  3  4  1  6
  5  6  1  1
  7  5  1  0
  7  8  2  0
  9 10  1  0
 10 12  1  0
 11 10  2  0
 12 13  1  0
 14 13  1  1
 14 15  1  0
 15  7  1  0
 16 14  1  0
 17 16  2  0
 19 18  1  0
 20 19  1  0
 20 22  1  0
 20 21  1  6
 22 23  1  1
 22 24  1  0
 23 16  1  0
 24 26  1  0
 25 24  2  0
M  END
$$$$
