IQI.pdb
     RDKit          3D

 26 25  0  0  1  0  0  0  0  0999 V2000
   28.2192  -15.8886  -16.9886 C   0  0  0  0  0  0  0  0  0  0  0  0
   27.4430  -17.1668  -16.9946 C   0  0  0  0  0  0  0  0  0  0  0  0
   27.0163  -17.6006  -15.6060 C   0  0  2  0  0  0  0  0  0  0  0  0
   28.1636  -17.7181  -14.6644 C   0  0  0  0  0  0  0  0  0  0  0  0
   26.1888  -18.8444  -15.7694 C   0  0  2  0  0  0  0  0  0  0  0  0
   25.1201  -18.4737  -16.7175 N   0  0  0  0  0  0  0  0  0  0  0  0
   25.5431  -19.3190  -14.5372 C   0  0  0  0  0  0  0  0  0  0  0  0
   24.4703  -18.7680  -14.1241 O   0  0  0  0  0  0  0  0  0  0  0  0
   23.7526  -24.6474  -13.6887 N   0  0  0  0  0  0  0  0  0  0  0  0
   23.0274  -23.4866  -14.1028 C   0  0  0  0  0  0  0  0  0  0  0  0
   21.9780  -23.6694  -14.7538 O   0  0  0  0  0  0  0  0  0  0  0  0
   23.5260  -22.1139  -13.7579 C   0  0  0  0  0  0  0  0  0  0  0  0
   24.7399  -22.2854  -12.8664 C   0  0  0  0  0  0  0  0  0  0  0  0
   25.3094  -20.9029  -12.5916 C   0  0  2  0  0  0  0  0  0  0  0  0
   26.0133  -20.3754  -13.7255 N   0  0  0  0  0  0  0  0  0  0  0  0
   26.1361  -20.8971  -11.3551 C   0  0  0  0  0  0  0  0  0  0  0  0
   27.2710  -21.3914  -11.4369 O   0  0  0  0  0  0  0  0  0  0  0  0
   28.8698  -19.1018   -6.5580 C   0  0  0  0  0  0  0  0  0  0  0  0
   27.8176  -20.0496   -6.9918 C   0  0  0  0  0  0  0  0  0  0  0  0
   27.1139  -19.8326   -8.2625 C   0  0  2  0  0  0  0  0  0  0  0  0
   26.5862  -18.3886   -8.2319 C   0  0  0  0  0  0  0  0  0  0  0  0
   26.1414  -20.7775   -8.8059 C   0  0  2  0  0  0  0  0  0  0  0  0
   25.6797  -20.3645  -10.1388 N   0  0  0  0  0  0  0  0  0  0  0  0
   25.0715  -21.3466   -8.0045 C   0  0  0  0  0  0  0  0  0  0  0  0
   23.8407  -21.2991   -8.1990 O   0  0  0  0  0  0  0  0  0  0  0  0
   25.3924  -22.0699   -6.8161 O   0  0  0  0  0  0  0  0  0  0  0  0
  2  1  1  0
  3  2  1  0
  3  5  1  0
  3  4  1  1
  5  6  1  6
  7  5  1  0
  7  8  2  0
  9 10  1  0
 10 12  1  0
 11 10  2  0
 12 13  1  0
 14 13  1  6
 14 15  1  0
 15  7  1  0
 16 14  1  0
 17 16  2  0
 19 18  1  0
 20 19  1  0
 20 22  1  0
 20 21  1  1
 22 23  1  6
 22 24  1  0
 23 16  1  0
 24 26  1  0
 25 24  2  0
M  END
$$$$
