IQI.pdb
     RDKit          3D

 26 25  0  0  1  0  0  0  0  0999 V2000
   27.5047  -20.1632   -5.8839 C   0  0  0  0  0  0  0  0  0  0  0  0
   26.3325  -20.1028   -6.8104 C   0  0  0  0  0  0  0  0  0  0  0  0
   26.7189  -20.3197   -8.2603 C   0  0  2  0  0  0  0  0  0  0  0  0
   27.8915  -19.4987   -8.6699 C   0  0  0  0  0  0  0  0  0  0  0  0
   25.4758  -20.1193   -9.0808 C   0  0  2  0  0  0  0  0  0  0  0  0
   24.5749  -21.2210   -8.6897 N   0  0  0  0  0  0  0  0  0  0  0  0
   25.6781  -20.2069  -10.5340 C   0  0  0  0  0  0  0  0  0  0  0  0
   26.3478  -19.3086  -11.1420 O   0  0  0  0  0  0  0  0  0  0  0  0
   24.3753  -25.0700  -14.3718 N   0  0  0  0  0  0  0  0  0  0  0  0
   23.3099  -24.1847  -14.0170 C   0  0  0  0  0  0  0  0  0  0  0  0
   22.1441  -24.5789  -14.2268 O   0  0  0  0  0  0  0  0  0  0  0  0
   23.6042  -22.8405  -13.4182 C   0  0  0  0  0  0  0  0  0  0  0  0
   25.1113  -22.7089  -13.3232 C   0  0  0  0  0  0  0  0  0  0  0  0
   25.4198  -21.3237  -12.7778 C   0  0  2  0  0  0  0  0  0  0  0  0
   25.1822  -21.2360  -11.3653 N   0  0  0  0  0  0  0  0  0  0  0  0
   24.6993  -20.2711  -13.5429 C   0  0  0  0  0  0  0  0  0  0  0  0
   23.6538  -19.8300  -13.0417 O   0  0  0  0  0  0  0  0  0  0  0  0
   27.7573  -16.4311  -15.5754 C   0  0  0  0  0  0  0  0  0  0  0  0
   26.6174  -17.2037  -15.0301 C   0  0  0  0  0  0  0  0  0  0  0  0
   25.5652  -17.6924  -15.9306 C   0  0  2  0  0  0  0  0  0  0  0  0
   24.9560  -16.4537  -16.6081 C   0  0  0  0  0  0  0  0  0  0  0  0
   24.5557  -18.6659  -15.5216 C   0  0  2  0  0  0  0  0  0  0  0  0
   25.1572  -19.7809  -14.7764 N   0  0  0  0  0  0  0  0  0  0  0  0
   23.4899  -19.1059  -16.4055 C   0  0  0  0  0  0  0  0  0  0  0  0
   23.5160  -19.9993  -17.2752 O   0  0  0  0  0  0  0  0  0  0  0  0
   22.2106  -18.4765  -16.3311 O   0  0  0  0  0  0  0  0  0  0  0  0
  2  1  1  0
  3  2  1  0
  3  5  1  0
  3  4  1  6
  5  6  1  1
  7  5  1  0
  7  8  2  0
  9 10  1  0
 10 12  1  0
 11 10  2  0
 12 13  1  0
 14 13  1  6
 14 15  1  0
 15  7  1  0
 16 14  1  0
 17 16  2  0
 19 18  1  0
 20 19  1  0
 20 22  1  0
 20 21  1  1
 22 23  1  6
 22 24  1  0
 23 16  1  0
 24 26  1  0
 25 24  2  0
M  END
$$$$
