IQI.pdb
     RDKit          3D

 26 25  0  0  1  0  0  0  0  0999 V2000
   17.5510  -13.6025  -15.1988 C   0  0  0  0  0  0  0  0  0  0  0  0
   17.1088  -12.1740  -15.2088 C   0  0  0  0  0  0  0  0  0  0  0  0
   17.1633  -11.5334  -13.8357 C   0  0  2  0  0  0  0  0  0  0  0  0
   16.4461  -12.3304  -12.8026 C   0  0  0  0  0  0  0  0  0  0  0  0
   16.6933  -10.1148  -13.9941 C   0  0  2  0  0  0  0  0  0  0  0  0
   17.3879   -9.6111  -15.1951 N   0  0  0  0  0  0  0  0  0  0  0  0
   17.0388   -9.2248  -12.8764 C   0  0  0  0  0  0  0  0  0  0  0  0
   16.5758   -9.4524  -11.7108 O   0  0  0  0  0  0  0  0  0  0  0  0
   21.3166   -4.5760  -12.7450 N   0  0  0  0  0  0  0  0  0  0  0  0
   21.4409   -5.9296  -13.1889 C   0  0  0  0  0  0  0  0  0  0  0  0
   22.5056   -6.2505  -13.7563 O   0  0  0  0  0  0  0  0  0  0  0  0
   20.3241   -6.9080  -12.9711 C   0  0  0  0  0  0  0  0  0  0  0  0
   19.2198   -6.1759  -12.2349 C   0  0  0  0  0  0  0  0  0  0  0  0
   18.1486   -7.1944  -11.8792 C   0  0  2  0  0  0  0  0  0  0  0  0
   17.8729   -8.0882  -12.9676 N   0  0  0  0  0  0  0  0  0  0  0  0
   16.9222   -6.5285  -11.3645 C   0  0  0  0  0  0  0  0  0  0  0  0
   15.9898   -6.3722  -12.1677 O   0  0  0  0  0  0  0  0  0  0  0  0
   12.8141   -6.7170   -7.1428 C   0  0  0  0  0  0  0  0  0  0  0  0
   13.6570   -5.7571   -7.8923 C   0  0  0  0  0  0  0  0  0  0  0  0
   14.8199   -6.2381   -8.6495 C   0  0  2  0  0  0  0  0  0  0  0  0
   15.6567   -7.0868   -7.6780 C   0  0  0  0  0  0  0  0  0  0  0  0
   15.6396   -5.3674   -9.4885 C   0  0  2  0  0  0  0  0  0  0  0  0
   16.7975   -6.0873  -10.0374 N   0  0  0  0  0  0  0  0  0  0  0  0
   15.9669   -4.0023   -9.1141 C   0  0  0  0  0  0  0  0  0  0  0  0
   15.1958   -3.0481   -8.8903 O   0  0  0  0  0  0  0  0  0  0  0  0
   17.3354   -3.6233   -8.9658 O   0  0  0  0  0  0  0  0  0  0  0  0
  2  1  1  0
  3  2  1  0
  3  5  1  0
  3  4  1  1
  5  6  1  6
  7  5  1  0
  7  8  2  0
  9 10  1  0
 10 12  1  0
 11 10  2  0
 12 13  1  0
 14 13  1  6
 14 15  1  0
 15  7  1  0
 16 14  1  0
 17 16  2  0
 19 18  1  0
 20 19  1  0
 20 22  1  0
 20 21  1  1
 22 23  1  1
 22 24  1  0
 23 16  1  0
 24 26  1  0
 25 24  2  0
M  END
$$$$
