IQI.pdb
     RDKit          3D

 26 25  0  0  1  0  0  0  0  0999 V2000
   16.0667  -15.9186  -15.9290 C   0  0  0  0  0  0  0  0  0  0  0  0
   16.3709  -15.2158  -17.2134 C   0  0  0  0  0  0  0  0  0  0  0  0
   17.2018  -13.9634  -17.0143 C   0  0  2  0  0  0  0  0  0  0  0  0
   16.6024  -13.0298  -16.0213 C   0  0  0  0  0  0  0  0  0  0  0  0
   17.4501  -13.3800  -18.3768 C   0  0  2  0  0  0  0  0  0  0  0  0
   18.1240  -14.4507  -19.1369 N   0  0  0  0  0  0  0  0  0  0  0  0
   18.3324  -12.2044  -18.3902 C   0  0  0  0  0  0  0  0  0  0  0  0
   19.5891  -12.3459  -18.2307 O   0  0  0  0  0  0  0  0  0  0  0  0
   18.7516   -7.7695  -21.7007 N   0  0  0  0  0  0  0  0  0  0  0  0
   19.4834   -7.1034  -20.6685 C   0  0  0  0  0  0  0  0  0  0  0  0
   20.3241   -6.2508  -21.0218 O   0  0  0  0  0  0  0  0  0  0  0  0
   19.2349   -7.4317  -19.2254 C   0  0  0  0  0  0  0  0  0  0  0  0
   18.1709   -8.5105  -19.1847 C   0  0  0  0  0  0  0  0  0  0  0  0
   18.7721   -9.7257  -18.4968 C   0  0  2  0  0  0  0  0  0  0  0  0
   17.9081  -10.8691  -18.5716 N   0  0  0  0  0  0  0  0  0  0  0  0
   19.1776   -9.4086  -17.1013 C   0  0  0  0  0  0  0  0  0  0  0  0
   18.2892   -9.4486  -16.2363 O   0  0  0  0  0  0  0  0  0  0  0  0
   23.3330  -10.9854  -13.1578 C   0  0  0  0  0  0  0  0  0  0  0  0
   22.4650   -9.8601  -13.5749 C   0  0  0  0  0  0  0  0  0  0  0  0
   21.9077   -9.8284  -14.9333 C   0  0  2  0  0  0  0  0  0  0  0  0
   23.0903  -10.0151  -15.8982 C   0  0  0  0  0  0  0  0  0  0  0  0
   20.9670   -8.8059  -15.3845 C   0  0  2  0  0  0  0  0  0  0  0  0
   20.4958   -9.0764  -16.7503 N   0  0  0  0  0  0  0  0  0  0  0  0
   21.1782   -7.3884  -15.1455 C   0  0  0  0  0  0  0  0  0  0  0  0
   21.2762   -6.7864  -14.0579 O   0  0  0  0  0  0  0  0  0  0  0  0
   21.2961   -6.4987  -16.2559 O   0  0  0  0  0  0  0  0  0  0  0  0
  2  1  1  0
  3  2  1  0
  3  5  1  0
  3  4  1  1
  5  6  1  6
  7  5  1  0
  7  8  2  0
  9 10  1  0
 10 12  1  0
 11 10  2  0
 12 13  1  0
 14 13  1  1
 14 15  1  0
 15  7  1  0
 16 14  1  0
 17 16  2  0
 19 18  1  0
 20 19  1  0
 20 22  1  0
 20 21  1  6
 22 23  1  6
 22 24  1  0
 23 16  1  0
 24 26  1  0
 25 24  2  0
M  END
$$$$
