IQI.pdb
     RDKit          3D

 26 25  0  0  1  0  0  0  0  0999 V2000
   30.0086  -18.2482  -17.1121 C   0  0  0  0  0  0  0  0  0  0  0  0
   28.7504  -19.0448  -16.9754 C   0  0  0  0  0  0  0  0  0  0  0  0
   28.0549  -18.8196  -15.6472 C   0  0  2  0  0  0  0  0  0  0  0  0
   28.9467  -19.0754  -14.4826 C   0  0  0  0  0  0  0  0  0  0  0  0
   26.7859  -19.6241  -15.6740 C   0  0  2  0  0  0  0  0  0  0  0  0
   26.0742  -19.1797  -16.8883 N   0  0  0  0  0  0  0  0  0  0  0  0
   25.8918  -19.3996  -14.5291 C   0  0  0  0  0  0  0  0  0  0  0  0
   25.4662  -18.2262  -14.2703 O   0  0  0  0  0  0  0  0  0  0  0  0
   20.6015  -21.4334  -12.9854 N   0  0  0  0  0  0  0  0  0  0  0  0
   20.8942  -20.5903  -11.8682 C   0  0  0  0  0  0  0  0  0  0  0  0
   19.9493  -20.3034  -11.1045 O   0  0  0  0  0  0  0  0  0  0  0  0
   22.2880  -20.0823  -11.6421 C   0  0  0  0  0  0  0  0  0  0  0  0
   23.1357  -20.5568  -12.8057 C   0  0  0  0  0  0  0  0  0  0  0  0
   24.5751  -20.1598  -12.5199 C   0  0  2  0  0  0  0  0  0  0  0  0
   25.4336  -20.4011  -13.6442 N   0  0  0  0  0  0  0  0  0  0  0  0
   25.0737  -20.8023  -11.2745 C   0  0  0  0  0  0  0  0  0  0  0  0
   25.5177  -21.9561  -11.3777 O   0  0  0  0  0  0  0  0  0  0  0  0
   28.8687  -19.1875   -8.0122 C   0  0  0  0  0  0  0  0  0  0  0  0
   27.8353  -20.0271   -8.6607 C   0  0  0  0  0  0  0  0  0  0  0  0
   26.4899  -20.1147   -8.0781 C   0  0  2  0  0  0  0  0  0  0  0  0
   26.6715  -20.5606   -6.6177 C   0  0  0  0  0  0  0  0  0  0  0  0
   25.3776  -20.7910   -8.7407 C   0  0  2  0  0  0  0  0  0  0  0  0
   25.0550  -20.1577  -10.0273 N   0  0  0  0  0  0  0  0  0  0  0  0
   24.1886  -21.2243   -8.0269 C   0  0  0  0  0  0  0  0  0  0  0  0
   23.0331  -20.7585   -8.0802 O   0  0  0  0  0  0  0  0  0  0  0  0
   24.2749  -22.3242   -7.1207 O   0  0  0  0  0  0  0  0  0  0  0  0
  2  1  1  0
  3  2  1  0
  3  5  1  0
  3  4  1  1
  5  6  1  6
  7  5  1  0
  7  8  2  0
  9 10  1  0
 10 12  1  0
 11 10  2  0
 12 13  1  0
 14 13  1  6
 14 15  1  0
 15  7  1  0
 16 14  1  0
 17 16  2  0
 19 18  1  0
 20 19  1  0
 20 22  1  0
 20 21  1  1
 22 23  1  6
 22 24  1  0
 23 16  1  0
 24 26  1  0
 25 24  2  0
M  END
$$$$
