IQI.pdb
     RDKit          3D

 26 25  0  0  1  0  0  0  0  0999 V2000
   46.2666  -19.7953   -8.3100 C   0  0  0  0  0  0  0  0  0  0  0  0
   44.9501  -19.2373   -8.7478 C   0  0  0  0  0  0  0  0  0  0  0  0
   44.9244  -17.7214   -8.7423 C   0  0  2  0  0  0  0  0  0  0  0  0
   45.3425  -17.1459   -7.4343 C   0  0  0  0  0  0  0  0  0  0  0  0
   43.5632  -17.3035   -9.2228 C   0  0  2  0  0  0  0  0  0  0  0  0
   43.3789  -18.0006  -10.5106 N   0  0  0  0  0  0  0  0  0  0  0  0
   43.4158  -15.8627   -9.4738 C   0  0  0  0  0  0  0  0  0  0  0  0
   43.9019  -15.3448  -10.5324 O   0  0  0  0  0  0  0  0  0  0  0  0
   39.7561  -11.4637   -6.6994 N   0  0  0  0  0  0  0  0  0  0  0  0
   40.5185  -10.7256   -7.6579 C   0  0  0  0  0  0  0  0  0  0  0  0
   40.2078   -9.5300   -7.8383 O   0  0  0  0  0  0  0  0  0  0  0  0
   41.6422  -11.3817   -8.4054 C   0  0  0  0  0  0  0  0  0  0  0  0
   41.6303  -12.8524   -8.0386 C   0  0  0  0  0  0  0  0  0  0  0  0
   42.7650  -13.5254   -8.7941 C   0  0  2  0  0  0  0  0  0  0  0  0
   42.7576  -14.9498   -8.6198 N   0  0  0  0  0  0  0  0  0  0  0  0
   44.0774  -12.9163   -8.4490 C   0  0  0  0  0  0  0  0  0  0  0  0
   44.5598  -13.2117   -7.3449 O   0  0  0  0  0  0  0  0  0  0  0  0
   49.5404  -12.5919  -10.5291 C   0  0  0  0  0  0  0  0  0  0  0  0
   48.5476  -11.8181   -9.7486 C   0  0  0  0  0  0  0  0  0  0  0  0
   47.1202  -12.1505   -9.8433 C   0  0  2  0  0  0  0  0  0  0  0  0
   46.7818  -12.2128  -11.3420 C   0  0  0  0  0  0  0  0  0  0  0  0
   46.0907  -11.4720   -9.0600 C   0  0  2  0  0  0  0  0  0  0  0  0
   44.7608  -12.0448   -9.3121 N   0  0  0  0  0  0  0  0  0  0  0  0
   46.0483  -10.0277   -8.9079 C   0  0  0  0  0  0  0  0  0  0  0  0
   46.8660   -9.2786   -8.3375 O   0  0  0  0  0  0  0  0  0  0  0  0
   44.9517   -9.2955   -9.4554 O   0  0  0  0  0  0  0  0  0  0  0  0
  2  1  1  0
  3  2  1  0
  3  5  1  0
  3  4  1  1
  5  6  1  6
  7  5  1  0
  7  8  2  0
  9 10  1  0
 10 12  1  0
 11 10  2  0
 12 13  1  0
 14 13  1  1
 14 15  1  0
 15  7  1  0
 16 14  1  0
 17 16  2  0
 19 18  1  0
 20 19  1  0
 20 22  1  0
 20 21  1  6
 22 23  1  6
 22 24  1  0
 23 16  1  0
 24 26  1  0
 25 24  2  0
M  END
$$$$
