NEE.pdb
     RDKit          3D

 27 26  0  0  1  0  0  0  0  0999 V2000
   13.2169  -11.7872  -16.4655 N   0  0  0  0  0  0  0  0  0  0  0  0
   13.8079  -10.6495  -15.8629 C   0  0  0  0  0  0  0  0  0  0  0  0
   13.0423   -9.6575  -15.6739 O   0  0  0  0  0  0  0  0  0  0  0  0
   15.1959  -10.5116  -15.4441 C   0  0  0  0  0  0  0  0  0  0  0  0
   16.0859  -11.6681  -15.7119 C   0  0  2  0  0  0  0  0  0  0  0  0
   15.7828  -12.8690  -14.9921 N   0  0  0  0  0  0  0  0  0  0  0  0
   17.5179  -11.3685  -15.6007 C   0  0  0  0  0  0  0  0  0  0  0  0
   18.0489  -11.3240  -14.4454 O   0  0  0  0  0  0  0  0  0  0  0  0
   18.3097  -11.1308  -16.7444 N   0  0  0  0  0  0  0  0  0  0  0  0
   19.7354  -10.8373  -16.5411 C   0  0  1  0  0  0  0  0  0  0  0  0
   20.5297  -11.6290  -17.5693 C   0  0  0  0  0  0  0  0  0  0  0  0
   21.9803  -11.2547  -17.5755 C   0  0  0  0  0  0  0  0  0  0  0  0
   22.6996  -11.9589  -18.6894 C   0  0  0  0  0  0  0  0  0  0  0  0
   22.1015  -12.3066  -19.7183 O   0  0  0  0  0  0  0  0  0  0  0  0
   19.9721   -9.3875  -16.5808 C   0  0  0  0  0  0  0  0  0  0  0  0
   19.2581   -8.7126  -17.3990 O   0  0  0  0  0  0  0  0  0  0  0  0
   24.0571  -12.2245  -18.5642 O   0  0  0  0  0  0  0  0  0  0  0  0
   20.8912   -8.6577  -15.8177 N   0  0  0  0  0  0  0  0  0  0  0  0
   21.0455   -7.2487  -15.9170 C   0  0  1  0  0  0  0  0  0  0  0  0
   21.2393   -6.5384  -14.6133 C   0  0  0  0  0  0  0  0  0  0  0  0
   21.4400   -5.0522  -14.7094 C   0  0  0  0  0  0  0  0  0  0  0  0
   21.5260   -4.3747  -13.4267 C   0  0  0  0  0  0  0  0  0  0  0  0
   22.3844   -4.6347  -12.5514 O   0  0  0  0  0  0  0  0  0  0  0  0
   21.9520   -6.8043  -17.0018 C   0  0  0  0  0  0  0  0  0  0  0  0
   22.9693   -7.4808  -17.2836 O   0  0  0  0  0  0  0  0  0  0  0  0
   20.6043   -3.3683  -13.1305 O   0  0  0  0  0  0  0  0  0  0  0  0
   21.7402   -5.6550  -17.7457 O   0  0  0  0  0  0  0  0  0  0  0  0
  2  1  1  0
  3  2  2  0
  4  5  1  0
  4  2  1  0
  5  6  1  1
  7  5  1  0
  7  8  2  0
  9  7  1  0
 10  9  1  0
 10 11  1  6
 11 12  1  0
 12 13  1  0
 13 17  1  0
 14 13  2  0
 15 10  1  0
 16 15  2  0
 18 15  1  0
 19 20  1  1
 19 18  1  0
 20 21  1  0
 21 22  1  0
 22 26  1  0
 23 22  2  0
 24 19  1  0
 25 24  2  0
 27 24  1  0
M  END
$$$$
