NEE.pdb
     RDKit          3D

 27 26  0  0  1  0  0  0  0  0999 V2000
   24.2255  -14.9135  -18.3742 N   0  0  0  0  0  0  0  0  0  0  0  0
   24.0173  -14.0114  -19.4464 C   0  0  0  0  0  0  0  0  0  0  0  0
   24.0073  -14.5185  -20.6078 O   0  0  0  0  0  0  0  0  0  0  0  0
   23.8157  -12.5728  -19.3438 C   0  0  0  0  0  0  0  0  0  0  0  0
   23.9082  -11.9870  -17.9837 C   0  0  2  0  0  0  0  0  0  0  0  0
   23.9254  -12.9240  -16.9002 N   0  0  0  0  0  0  0  0  0  0  0  0
   22.9284  -10.9293  -17.7121 C   0  0  0  0  0  0  0  0  0  0  0  0
   22.9712   -9.8600  -18.4003 O   0  0  0  0  0  0  0  0  0  0  0  0
   21.9473  -11.0767  -16.7086 N   0  0  0  0  0  0  0  0  0  0  0  0
   20.9976   -9.9724  -16.5122 C   0  0  1  0  0  0  0  0  0  0  0  0
   19.7845  -10.5209  -15.7756 C   0  0  0  0  0  0  0  0  0  0  0  0
   18.7489   -9.4675  -15.5262 C   0  0  0  0  0  0  0  0  0  0  0  0
   17.5403  -10.0652  -14.8659 C   0  0  0  0  0  0  0  0  0  0  0  0
   17.6342  -11.0760  -14.1541 O   0  0  0  0  0  0  0  0  0  0  0  0
   21.6543   -8.8440  -15.8376 C   0  0  0  0  0  0  0  0  0  0  0  0
   22.5510   -9.1359  -14.9740 O   0  0  0  0  0  0  0  0  0  0  0  0
   16.2973   -9.4754  -15.0561 O   0  0  0  0  0  0  0  0  0  0  0  0
   21.4122   -7.4798  -16.0378 N   0  0  0  0  0  0  0  0  0  0  0  0
   22.2008   -6.4520  -15.4539 C   0  0  1  0  0  0  0  0  0  0  0  0
   23.0531   -5.6831  -16.4150 C   0  0  0  0  0  0  0  0  0  0  0  0
   23.9581   -4.6544  -15.7978 C   0  0  0  0  0  0  0  0  0  0  0  0
   24.7275   -3.8800  -16.7571 C   0  0  0  0  0  0  0  0  0  0  0  0
   24.4347   -2.7154  -17.1157 O   0  0  0  0  0  0  0  0  0  0  0  0
   21.4850   -5.6171  -14.4605 C   0  0  0  0  0  0  0  0  0  0  0  0
   20.2629   -5.3790  -14.6076 O   0  0  0  0  0  0  0  0  0  0  0  0
   25.8677   -4.4504  -17.3271 O   0  0  0  0  0  0  0  0  0  0  0  0
   22.0990   -5.0672  -13.3471 O   0  0  0  0  0  0  0  0  0  0  0  0
  2  1  1  0
  3  2  2  0
  4  5  1  0
  4  2  1  0
  5  6  1  1
  7  5  1  0
  7  8  2  0
  9  7  1  0
 10  9  1  0
 10 11  1  1
 11 12  1  0
 12 13  1  0
 13 17  1  0
 14 13  2  0
 15 10  1  0
 16 15  2  0
 18 15  1  0
 19 20  1  6
 19 18  1  0
 20 21  1  0
 21 22  1  0
 22 26  1  0
 23 22  2  0
 24 19  1  0
 25 24  2  0
 27 24  1  0
M  END
$$$$
