NEE.pdb
     RDKit          3D

 27 26  0  0  1  0  0  0  0  0999 V2000
   17.4501   -4.7568   -8.5508 N   0  0  0  0  0  0  0  0  0  0  0  0
   16.0382   -4.7222   -8.6607 C   0  0  0  0  0  0  0  0  0  0  0  0
   15.4856   -3.6117   -8.4007 O   0  0  0  0  0  0  0  0  0  0  0  0
   15.1697   -5.8280   -9.0397 C   0  0  0  0  0  0  0  0  0  0  0  0
   15.8341   -7.1239   -9.3239 C   0  0  2  0  0  0  0  0  0  0  0  0
   16.9078   -7.4809   -8.4453 N   0  0  0  0  0  0  0  0  0  0  0  0
   16.2539   -7.2959  -10.7192 C   0  0  0  0  0  0  0  0  0  0  0  0
   15.4052   -7.0960  -11.6458 O   0  0  0  0  0  0  0  0  0  0  0  0
   17.5724   -7.6763  -11.0481 N   0  0  0  0  0  0  0  0  0  0  0  0
   17.9193   -7.7821  -12.4724 C   0  0  1  0  0  0  0  0  0  0  0  0
   19.4184   -7.5610  -12.6088 C   0  0  0  0  0  0  0  0  0  0  0  0
   19.8659   -7.5783  -14.0385 C   0  0  0  0  0  0  0  0  0  0  0  0
   21.3359   -7.2876  -14.1321 C   0  0  0  0  0  0  0  0  0  0  0  0
   21.7468   -6.1932  -14.5452 O   0  0  0  0  0  0  0  0  0  0  0  0
   17.4446   -9.0592  -13.0231 C   0  0  0  0  0  0  0  0  0  0  0  0
   17.8494  -10.1214  -12.4378 O   0  0  0  0  0  0  0  0  0  0  0  0
   22.2495   -8.2613  -13.7493 O   0  0  0  0  0  0  0  0  0  0  0  0
   16.5918   -9.2453  -14.1176 N   0  0  0  0  0  0  0  0  0  0  0  0
   16.2662  -10.5234  -14.6463 C   0  0  1  0  0  0  0  0  0  0  0  0
   14.9995  -11.1236  -14.1200 C   0  0  0  0  0  0  0  0  0  0  0  0
   13.7333  -10.6246  -14.7570 C   0  0  0  0  0  0  0  0  0  0  0  0
   12.6881  -11.6269  -14.8786 C   0  0  0  0  0  0  0  0  0  0  0  0
   12.8268  -12.8292  -14.5533 O   0  0  0  0  0  0  0  0  0  0  0  0
   16.4435  -10.6455  -16.1126 C   0  0  0  0  0  0  0  0  0  0  0  0
   16.4983  -11.7798  -16.6439 O   0  0  0  0  0  0  0  0  0  0  0  0
   11.4440  -11.2481  -15.3875 O   0  0  0  0  0  0  0  0  0  0  0  0
   16.5557   -9.5536  -16.9577 O   0  0  0  0  0  0  0  0  0  0  0  0
  2  1  1  0
  3  2  2  0
  4  5  1  0
  4  2  1  0
  5  6  1  1
  7  5  1  0
  7  8  2  0
  9  7  1  0
 10  9  1  0
 10 11  1  1
 11 12  1  0
 12 13  1  0
 13 17  1  0
 14 13  2  0
 15 10  1  0
 16 15  2  0
 18 15  1  0
 19 20  1  6
 19 18  1  0
 20 21  1  0
 21 22  1  0
 22 26  1  0
 23 22  2  0
 24 19  1  0
 25 24  2  0
 27 24  1  0
M  END
$$$$
