NEE.pdb
     RDKit          3D

 27 26  0  0  1  0  0  0  0  0999 V2000
   22.9623  -13.1903  -19.8654 N   0  0  0  0  0  0  0  0  0  0  0  0
   23.1888  -12.1088  -20.7519 C   0  0  0  0  0  0  0  0  0  0  0  0
   23.0893  -12.3706  -21.9878 O   0  0  0  0  0  0  0  0  0  0  0  0
   23.5213  -10.7397  -20.3836 C   0  0  0  0  0  0  0  0  0  0  0  0
   23.5814  -10.4409  -18.9315 C   0  0  2  0  0  0  0  0  0  0  0  0
   23.7401  -11.5724  -18.0674 N   0  0  0  0  0  0  0  0  0  0  0  0
   22.4907   -9.5899  -18.4428 C   0  0  0  0  0  0  0  0  0  0  0  0
   22.2223   -8.5148  -19.0680 O   0  0  0  0  0  0  0  0  0  0  0  0
   21.7406   -9.9409  -17.3002 N   0  0  0  0  0  0  0  0  0  0  0  0
   20.7007   -9.0049  -16.8499 C   0  0  1  0  0  0  0  0  0  0  0  0
   19.6916   -9.7863  -16.0217 C   0  0  0  0  0  0  0  0  0  0  0  0
   18.5970   -8.9124  -15.4899 C   0  0  0  0  0  0  0  0  0  0  0  0
   17.5743   -9.7361  -14.7621 C   0  0  0  0  0  0  0  0  0  0  0  0
   16.4548   -9.9453  -15.2520 O   0  0  0  0  0  0  0  0  0  0  0  0
   21.3053   -7.8648  -16.1471 C   0  0  0  0  0  0  0  0  0  0  0  0
   22.3396   -8.1123  -15.4373 O   0  0  0  0  0  0  0  0  0  0  0  0
   17.8887  -10.2720  -13.5198 O   0  0  0  0  0  0  0  0  0  0  0  0
   20.8785   -6.5317  -16.1706 N   0  0  0  0  0  0  0  0  0  0  0  0
   21.5409   -5.4864  -15.4721 C   0  0  1  0  0  0  0  0  0  0  0  0
   21.3127   -4.1125  -16.0216 C   0  0  0  0  0  0  0  0  0  0  0  0
   22.0755   -3.0094  -15.3437 C   0  0  0  0  0  0  0  0  0  0  0  0
   21.5916   -1.6727  -15.6456 C   0  0  0  0  0  0  0  0  0  0  0  0
   21.5953   -0.7231  -14.8278 O   0  0  0  0  0  0  0  0  0  0  0  0
   21.4543   -5.5822  -13.9958 C   0  0  0  0  0  0  0  0  0  0  0  0
   20.3709   -5.9016  -13.4519 O   0  0  0  0  0  0  0  0  0  0  0  0
   21.0867   -1.4085  -16.9206 O   0  0  0  0  0  0  0  0  0  0  0  0
   22.5264   -5.3337  -13.1543 O   0  0  0  0  0  0  0  0  0  0  0  0
  2  1  1  0
  3  2  2  0
  4  5  1  0
  4  2  1  0
  5  6  1  1
  7  5  1  0
  7  8  2  0
  9  7  1  0
 10  9  1  0
 10 11  1  1
 11 12  1  0
 12 13  1  0
 13 17  1  0
 14 13  2  0
 15 10  1  0
 16 15  2  0
 18 15  1  0
 19 20  1  6
 19 18  1  0
 20 21  1  0
 21 22  1  0
 22 26  1  0
 23 22  2  0
 24 19  1  0
 25 24  2  0
 27 24  1  0
M  END
$$$$
