NEE.pdb
     RDKit          3D

 27 26  0  0  1  0  0  0  0  0999 V2000
   17.0261  -14.9632  -15.6403 N   0  0  0  0  0  0  0  0  0  0  0  0
   17.8821  -14.6550  -16.7262 C   0  0  0  0  0  0  0  0  0  0  0  0
   17.8973  -15.4906  -17.6789 O   0  0  0  0  0  0  0  0  0  0  0  0
   18.7370  -13.4828  -16.8519 C   0  0  0  0  0  0  0  0  0  0  0  0
   18.7243  -12.5295  -15.7150 C   0  0  2  0  0  0  0  0  0  0  0  0
   17.6129  -12.6421  -14.8182 N   0  0  0  0  0  0  0  0  0  0  0  0
   18.9142  -11.1263  -16.0994 C   0  0  0  0  0  0  0  0  0  0  0  0
   19.8288  -10.8359  -16.9348 O   0  0  0  0  0  0  0  0  0  0  0  0
   18.1059  -10.1017  -15.5625 N   0  0  0  0  0  0  0  0  0  0  0  0
   18.3000   -8.7376  -16.0740 C   0  0  1  0  0  0  0  0  0  0  0  0
   17.0230   -7.9522  -15.8150 C   0  0  0  0  0  0  0  0  0  0  0  0
   17.0959   -6.5573  -16.3567 C   0  0  0  0  0  0  0  0  0  0  0  0
   15.8065   -5.8294  -16.1081 C   0  0  0  0  0  0  0  0  0  0  0  0
   15.7652   -4.5905  -16.0853 O   0  0  0  0  0  0  0  0  0  0  0  0
   19.5074   -8.1370  -15.4899 C   0  0  0  0  0  0  0  0  0  0  0  0
   19.7430   -8.4031  -14.2617 O   0  0  0  0  0  0  0  0  0  0  0  0
   14.6417   -6.5569  -15.9005 O   0  0  0  0  0  0  0  0  0  0  0  0
   20.4355   -7.3069  -16.1298 N   0  0  0  0  0  0  0  0  0  0  0  0
   21.5913   -6.7862  -15.4880 C   0  0  1  0  0  0  0  0  0  0  0  0
   22.8108   -6.6972  -16.3521 C   0  0  0  0  0  0  0  0  0  0  0  0
   24.0486   -6.1815  -15.6737 C   0  0  0  0  0  0  0  0  0  0  0  0
   25.2047   -6.0621  -16.5462 C   0  0  0  0  0  0  0  0  0  0  0  0
   25.5409   -6.9266  -17.3888 O   0  0  0  0  0  0  0  0  0  0  0  0
   21.3424   -5.5908  -14.6482 C   0  0  0  0  0  0  0  0  0  0  0  0
   21.8510   -5.5123  -13.5050 O   0  0  0  0  0  0  0  0  0  0  0  0
   26.0045   -4.9207  -16.4562 O   0  0  0  0  0  0  0  0  0  0  0  0
   20.5601   -4.5237  -15.0586 O   0  0  0  0  0  0  0  0  0  0  0  0
  2  1  1  0
  3  2  2  0
  4  5  1  0
  4  2  1  0
  5  6  1  6
  7  5  1  0
  7  8  2  0
  9  7  1  0
 10  9  1  0
 10 11  1  1
 11 12  1  0
 12 13  1  0
 13 17  1  0
 14 13  2  0
 15 10  1  0
 16 15  2  0
 18 15  1  0
 19 20  1  6
 19 18  1  0
 20 21  1  0
 21 22  1  0
 22 26  1  0
 23 22  2  0
 24 19  1  0
 25 24  2  0
 27 24  1  0
M  END
$$$$
