NEE.pdb
     RDKit          3D

 27 26  0  0  1  0  0  0  0  0999 V2000
   17.3749  -12.9313  -16.7133 N   0  0  0  0  0  0  0  0  0  0  0  0
   18.3662  -13.1215  -15.7194 C   0  0  0  0  0  0  0  0  0  0  0  0
   18.2149  -14.1295  -14.9664 O   0  0  0  0  0  0  0  0  0  0  0  0
   19.5303  -12.2792  -15.4821 C   0  0  0  0  0  0  0  0  0  0  0  0
   19.6724  -11.0862  -16.3528 C   0  0  2  0  0  0  0  0  0  0  0  0
   19.7016  -11.3418  -17.7621 N   0  0  0  0  0  0  0  0  0  0  0  0
   20.7796  -10.1965  -15.9848 C   0  0  0  0  0  0  0  0  0  0  0  0
   20.9239   -9.8668  -14.7645 O   0  0  0  0  0  0  0  0  0  0  0  0
   21.6797   -9.7043  -16.9538 N   0  0  0  0  0  0  0  0  0  0  0  0
   22.7224   -8.7696  -16.5075 C   0  0  1  0  0  0  0  0  0  0  0  0
   23.8709   -8.8360  -17.5032 C   0  0  0  0  0  0  0  0  0  0  0  0
   25.0289   -7.9798  -17.0904 C   0  0  0  0  0  0  0  0  0  0  0  0
   26.1257   -8.0514  -18.1132 C   0  0  0  0  0  0  0  0  0  0  0  0
   26.2566   -7.1688  -18.9739 O   0  0  0  0  0  0  0  0  0  0  0  0
   22.1609   -7.4243  -16.3221 C   0  0  0  0  0  0  0  0  0  0  0  0
   21.5795   -6.9016  -17.3339 O   0  0  0  0  0  0  0  0  0  0  0  0
   27.0075   -9.1244  -18.0937 O   0  0  0  0  0  0  0  0  0  0  0  0
   22.1860   -6.6487  -15.1569 N   0  0  0  0  0  0  0  0  0  0  0  0
   21.5923   -5.3612  -15.0619 C   0  0  1  0  0  0  0  0  0  0  0  0
   20.1822   -5.2749  -15.5576 C   0  0  0  0  0  0  0  0  0  0  0  0
   19.1600   -6.0037  -14.7318 C   0  0  0  0  0  0  0  0  0  0  0  0
   17.7856   -5.7886  -15.1524 C   0  0  0  0  0  0  0  0  0  0  0  0
   17.1511   -6.5661  -15.9030 O   0  0  0  0  0  0  0  0  0  0  0  0
   21.8380   -4.6641  -13.7774 C   0  0  0  0  0  0  0  0  0  0  0  0
   22.4018   -5.2690  -12.8351 O   0  0  0  0  0  0  0  0  0  0  0  0
   17.1116   -4.6507  -14.7038 O   0  0  0  0  0  0  0  0  0  0  0  0
   21.4732   -3.3480  -13.5455 O   0  0  0  0  0  0  0  0  0  0  0  0
  2  1  1  0
  3  2  2  0
  4  5  1  0
  4  2  1  0
  5  6  1  6
  7  5  1  0
  7  8  2  0
  9  7  1  0
 10  9  1  0
 10 11  1  6
 11 12  1  0
 12 13  1  0
 13 17  1  0
 14 13  2  0
 15 10  1  0
 16 15  2  0
 18 15  1  0
 19 20  1  1
 19 18  1  0
 20 21  1  0
 21 22  1  0
 22 26  1  0
 23 22  2  0
 24 19  1  0
 25 24  2  0
 27 24  1  0
M  END
$$$$
