NEE.pdb
     RDKit          3D

 27 26  0  0  1  0  0  0  0  0999 V2000
   16.9707  -13.8816  -14.8528 N   0  0  0  0  0  0  0  0  0  0  0  0
   17.4524  -12.8264  -15.6659 C   0  0  0  0  0  0  0  0  0  0  0  0
   16.7044  -12.4771  -16.6274 O   0  0  0  0  0  0  0  0  0  0  0  0
   18.7110  -12.1117  -15.5050 C   0  0  0  0  0  0  0  0  0  0  0  0
   18.8181  -10.7983  -16.1870 C   0  0  2  0  0  0  0  0  0  0  0  0
   18.7637  -10.8317  -17.6181 N   0  0  0  0  0  0  0  0  0  0  0  0
   19.9554   -9.9805  -15.7506 C   0  0  0  0  0  0  0  0  0  0  0  0
   20.1165   -9.7648  -14.5071 O   0  0  0  0  0  0  0  0  0  0  0  0
   20.8662   -9.4334  -16.6794 N   0  0  0  0  0  0  0  0  0  0  0  0
   21.9363   -8.5694  -16.1613 C   0  0  1  0  0  0  0  0  0  0  0  0
   23.1880   -8.8244  -16.9877 C   0  0  0  0  0  0  0  0  0  0  0  0
   24.3715   -8.0636  -16.4729 C   0  0  0  0  0  0  0  0  0  0  0  0
   25.5427   -8.2256  -17.3982 C   0  0  0  0  0  0  0  0  0  0  0  0
   25.6270   -9.2008  -18.1591 O   0  0  0  0  0  0  0  0  0  0  0  0
   21.4999   -7.1662  -16.1434 C   0  0  0  0  0  0  0  0  0  0  0  0
   21.3599   -6.5951  -17.2788 O   0  0  0  0  0  0  0  0  0  0  0  0
   26.5475   -7.2666  -17.4010 O   0  0  0  0  0  0  0  0  0  0  0  0
   21.2142   -6.3819  -15.0195 N   0  0  0  0  0  0  0  0  0  0  0  0
   20.9915   -4.9799  -15.0809 C   0  0  1  0  0  0  0  0  0  0  0  0
   19.5615   -4.5582  -14.9433 C   0  0  0  0  0  0  0  0  0  0  0  0
   18.5919   -5.2487  -15.8606 C   0  0  0  0  0  0  0  0  0  0  0  0
   17.2437   -5.3640  -15.3307 C   0  0  0  0  0  0  0  0  0  0  0  0
   16.8438   -4.7817  -14.2955 O   0  0  0  0  0  0  0  0  0  0  0  0
   21.9514   -4.1698  -14.2944 C   0  0  0  0  0  0  0  0  0  0  0  0
   22.8096   -4.7375  -13.5781 O   0  0  0  0  0  0  0  0  0  0  0  0
   16.3202   -6.1688  -16.0014 O   0  0  0  0  0  0  0  0  0  0  0  0
   21.9605   -2.7845  -14.3009 O   0  0  0  0  0  0  0  0  0  0  0  0
  2  1  1  0
  3  2  2  0
  4  5  1  0
  4  2  1  0
  5  6  1  6
  7  5  1  0
  7  8  2  0
  9  7  1  0
 10  9  1  0
 10 11  1  6
 11 12  1  0
 12 13  1  0
 13 17  1  0
 14 13  2  0
 15 10  1  0
 16 15  2  0
 18 15  1  0
 19 20  1  1
 19 18  1  0
 20 21  1  0
 21 22  1  0
 22 26  1  0
 23 22  2  0
 24 19  1  0
 25 24  2  0
 27 24  1  0
M  END
$$$$
