GYM.pdb
     RDKit          3D

 25 25  0  0  1  0  0  0  0  0999 V2000
    6.2042  -21.8893   26.6591 N   0  0  0  0  0  0  0  0  0  0  0  0
    6.6037  -21.2437   25.4135 C   0  0  0  0  0  0  0  0  0  0  0  0
    6.9882  -19.8300   25.7021 C   0  0  0  0  0  0  0  0  0  0  0  0
    6.1217  -19.0542   26.1906 O   0  0  0  0  0  0  0  0  0  0  0  0
   11.1924  -13.6725   30.0546 O   0  0  0  0  0  0  0  0  0  0  0  0
   10.8740  -14.7236   29.1783 C   0  0  0  0  0  0  0  0  0  0  0  0
   10.6262  -15.9886   29.6490 C   0  0  0  0  0  0  0  0  0  0  0  0
   10.3158  -17.0087   28.7833 C   0  0  0  0  0  0  0  0  0  0  0  0
   10.2339  -16.8364   27.4171 C   0  0  0  0  0  0  0  0  0  0  0  0
    9.9343  -17.9324   26.5023 C   0  0  0  0  0  0  0  0  0  0  0  0
    8.6546  -17.9229   25.7722 C   0  0  2  0  0  0  0  0  0  0  0  0
    8.2814  -19.3255   25.4506 N   0  0  0  0  0  0  0  0  0  0  0  0
    8.5455  -17.1912   24.5249 C   0  0  0  0  0  0  0  0  0  0  0  0
    8.6426  -17.7666   23.3787 O   0  0  0  0  0  0  0  0  0  0  0  0
   10.4845  -15.5630   26.9568 C   0  0  0  0  0  0  0  0  0  0  0  0
   10.7996  -14.5209   27.8178 C   0  0  0  0  0  0  0  0  0  0  0  0
    5.0103  -13.2896   26.7374 C   0  0  0  0  0  0  0  0  0  0  0  0
    6.6333  -13.1737   25.9038 S   0  0  0  0  0  0  0  0  0  0  0  0
    6.4440  -13.6986   24.1718 C   0  0  0  0  0  0  0  0  0  0  0  0
    7.7524  -13.6701   23.4595 C   0  0  0  0  0  0  0  0  0  0  0  0
    8.3062  -15.0569   23.2020 C   0  0  2  0  0  0  0  0  0  0  0  0
    8.3196  -15.7969   24.4562 N   0  0  0  0  0  0  0  0  0  0  0  0
    9.5917  -15.0434   22.4993 C   0  0  0  0  0  0  0  0  0  0  0  0
    9.6619  -14.5354   21.3576 O   0  0  0  0  0  0  0  0  0  0  0  0
   10.7594  -15.5640   23.0212 O   0  0  0  0  0  0  0  0  0  0  0  0
  1  2  1  0
  3 12  1  0
  3  2  1  0
  4  3  2  0
  6  5  1  0
  7  6  2  0
  8  7  1  0
  9  8  2  0
  9 15  1  0
 10  9  1  0
 11 10  1  6
 11 12  1  0
 13 14  2  0
 13 11  1  0
 15 16  2  0
 16  6  1  0
 18 17  1  0
 19 18  1  0
 20 19  1  0
 21 20  1  1
 21 22  1  0
 22 13  1  0
 23 21  1  0
 24 23  2  0
 25 23  1  0
M  END
$$$$
