GYM.pdb
     RDKit          3D

 25 25  0  0  1  0  0  0  0  0999 V2000
   10.3403  -17.9428   18.3312 N   0  0  0  0  0  0  0  0  0  0  0  0
    9.3264  -18.1729   19.3544 C   0  0  0  0  0  0  0  0  0  0  0  0
    9.4448  -17.1143   20.4006 C   0  0  0  0  0  0  0  0  0  0  0  0
   10.4701  -16.3795   20.4057 O   0  0  0  0  0  0  0  0  0  0  0  0
    6.4757  -11.9508   27.1989 O   0  0  0  0  0  0  0  0  0  0  0  0
    6.6472  -12.7751   26.0740 C   0  0  0  0  0  0  0  0  0  0  0  0
    6.3127  -14.1054   26.1123 C   0  0  0  0  0  0  0  0  0  0  0  0
    6.4846  -14.9019   25.0067 C   0  0  0  0  0  0  0  0  0  0  0  0
    6.9918  -14.4318   23.8131 C   0  0  0  0  0  0  0  0  0  0  0  0
    7.2002  -15.2920   22.6535 C   0  0  0  0  0  0  0  0  0  0  0  0
    8.5562  -15.7954   22.3730 C   0  0  2  0  0  0  0  0  0  0  0  0
    8.4567  -16.9016   21.3848 N   0  0  0  0  0  0  0  0  0  0  0  0
    9.3694  -16.3097   23.4581 C   0  0  0  0  0  0  0  0  0  0  0  0
    9.0696  -17.3883   24.0913 O   0  0  0  0  0  0  0  0  0  0  0  0
    7.3236  -13.0957   23.7868 C   0  0  0  0  0  0  0  0  0  0  0  0
    7.1565  -12.2768   24.8950 C   0  0  0  0  0  0  0  0  0  0  0  0
   10.3636  -14.2514   30.4127 C   0  0  0  0  0  0  0  0  0  0  0  0
   10.0926  -13.7826   28.6666 S   0  0  0  0  0  0  0  0  0  0  0  0
   10.8810  -15.0238   27.5947 C   0  0  0  0  0  0  0  0  0  0  0  0
   10.4221  -14.8800   26.1845 C   0  0  0  0  0  0  0  0  0  0  0  0
   11.0885  -15.8703   25.2509 C   0  0  2  0  0  0  0  0  0  0  0  0
   10.5540  -15.6829   23.9093 N   0  0  0  0  0  0  0  0  0  0  0  0
   11.0250  -17.2518   25.7347 C   0  0  0  0  0  0  0  0  0  0  0  0
    9.9320  -17.7128   26.1338 O   0  0  0  0  0  0  0  0  0  0  0  0
   12.1126  -18.1012   25.7820 O   0  0  0  0  0  0  0  0  0  0  0  0
  1  2  1  0
  3 12  1  0
  3  2  1  0
  4  3  2  0
  6  5  1  0
  7  6  2  0
  8  7  1  0
  9  8  2  0
  9 15  1  0
 10  9  1  0
 11 10  1  1
 11 12  1  0
 13 14  2  0
 13 11  1  0
 15 16  2  0
 16  6  1  0
 18 17  1  0
 19 18  1  0
 20 19  1  0
 21 20  1  1
 21 22  1  0
 22 13  1  0
 23 21  1  0
 24 23  2  0
 25 23  1  0
M  END
$$$$
