GYM.pdb
     RDKit          3D

 25 25  0  0  1  0  0  0  0  0999 V2000
    8.3367  -19.3902   20.8732 N   0  0  0  0  0  0  0  0  0  0  0  0
    7.6379  -18.5197   21.8121 C   0  0  0  0  0  0  0  0  0  0  0  0
    8.4506  -17.2854   22.0255 C   0  0  0  0  0  0  0  0  0  0  0  0
    9.6028  -17.2231   21.5159 O   0  0  0  0  0  0  0  0  0  0  0  0
    6.9750  -13.5907   16.7876 O   0  0  0  0  0  0  0  0  0  0  0  0
    7.2149  -13.6384   18.1712 C   0  0  0  0  0  0  0  0  0  0  0  0
    8.3428  -13.0766   18.7149 C   0  0  0  0  0  0  0  0  0  0  0  0
    8.5673  -13.1292   20.0689 C   0  0  0  0  0  0  0  0  0  0  0  0
    7.6974  -13.7343   20.9521 C   0  0  0  0  0  0  0  0  0  0  0  0
    7.9592  -13.8129   22.3850 C   0  0  0  0  0  0  0  0  0  0  0  0
    8.7690  -14.9297   22.9022 C   0  0  2  0  0  0  0  0  0  0  0  0
    7.9828  -16.1850   22.7742 N   0  0  0  0  0  0  0  0  0  0  0  0
    9.2406  -14.8994   24.2733 C   0  0  0  0  0  0  0  0  0  0  0  0
    8.7959  -14.0550   25.1355 O   0  0  0  0  0  0  0  0  0  0  0  0
    6.5696  -14.2943   20.3949 C   0  0  0  0  0  0  0  0  0  0  0  0
    6.3273  -14.2502   19.0289 C   0  0  0  0  0  0  0  0  0  0  0  0
    9.0425  -15.0938   30.3068 C   0  0  0  0  0  0  0  0  0  0  0  0
   10.0360  -13.7800   29.5135 S   0  0  0  0  0  0  0  0  0  0  0  0
   11.0720  -14.5271   28.2175 C   0  0  0  0  0  0  0  0  0  0  0  0
   10.2556  -14.8913   27.0254 C   0  0  0  0  0  0  0  0  0  0  0  0
   11.0941  -15.4495   25.8933 C   0  0  2  0  0  0  0  0  0  0  0  0
   10.2158  -15.7881   24.7820 N   0  0  0  0  0  0  0  0  0  0  0  0
   11.9781  -16.5397   26.3134 C   0  0  0  0  0  0  0  0  0  0  0  0
   13.1843  -16.2979   26.5436 O   0  0  0  0  0  0  0  0  0  0  0  0
   11.5635  -17.8466   26.4775 O   0  0  0  0  0  0  0  0  0  0  0  0
  1  2  1  0
  3 12  1  0
  3  2  1  0
  4  3  2  0
  6  5  1  0
  7  6  2  0
  8  7  1  0
  9  8  2  0
  9 15  1  0
 10  9  1  0
 11 10  1  1
 11 12  1  0
 13 14  2  0
 13 11  1  0
 15 16  2  0
 16  6  1  0
 18 17  1  0
 19 18  1  0
 20 19  1  0
 21 20  1  1
 21 22  1  0
 22 13  1  0
 23 21  1  0
 24 23  2  0
 25 23  1  0
M  END
$$$$
