GYM.pdb
     RDKit          3D

 25 25  0  0  1  0  0  0  0  0999 V2000
    5.8731  -21.1695   22.4134 N   0  0  0  0  0  0  0  0  0  0  0  0
    6.0210  -21.2457   23.8626 C   0  0  0  0  0  0  0  0  0  0  0  0
    6.2490  -19.8712   24.3995 C   0  0  0  0  0  0  0  0  0  0  0  0
    5.3088  -19.0326   24.3367 O   0  0  0  0  0  0  0  0  0  0  0  0
   10.3899  -13.3980   29.1098 O   0  0  0  0  0  0  0  0  0  0  0  0
    9.9037  -14.5875   28.5415 C   0  0  0  0  0  0  0  0  0  0  0  0
   10.7605  -15.5407   28.0511 C   0  0  0  0  0  0  0  0  0  0  0  0
   10.2743  -16.6998   27.4976 C   0  0  0  0  0  0  0  0  0  0  0  0
    8.9269  -16.9783   27.3992 C   0  0  0  0  0  0  0  0  0  0  0  0
    8.4185  -18.1981   26.7815 C   0  0  0  0  0  0  0  0  0  0  0  0
    7.6799  -18.0999   25.5105 C   0  0  2  0  0  0  0  0  0  0  0  0
    7.4736  -19.4711   24.9743 N   0  0  0  0  0  0  0  0  0  0  0  0
    8.2359  -17.3291   24.4151 C   0  0  0  0  0  0  0  0  0  0  0  0
    9.3824  -17.5970   23.8974 O   0  0  0  0  0  0  0  0  0  0  0  0
    8.0772  -16.0147   27.8946 C   0  0  0  0  0  0  0  0  0  0  0  0
    8.5517  -14.8377   28.4570 C   0  0  0  0  0  0  0  0  0  0  0  0
    6.1626  -11.6920   26.8020 C   0  0  0  0  0  0  0  0  0  0  0  0
    7.6989  -12.1820   25.9407 S   0  0  0  0  0  0  0  0  0  0  0  0
    7.3168  -13.5256   24.7745 C   0  0  0  0  0  0  0  0  0  0  0  0
    8.5577  -14.0457   24.1345 C   0  0  0  0  0  0  0  0  0  0  0  0
    8.2796  -15.1538   23.1390 C   0  0  2  0  0  0  0  0  0  0  0  0
    7.5739  -16.2302   23.8203 N   0  0  0  0  0  0  0  0  0  0  0  0
    9.4739  -15.5867   22.4091 C   0  0  0  0  0  0  0  0  0  0  0  0
   10.3589  -16.2363   23.0103 O   0  0  0  0  0  0  0  0  0  0  0  0
    9.6967  -15.3223   21.0723 O   0  0  0  0  0  0  0  0  0  0  0  0
  1  2  1  0
  3 12  1  0
  3  2  1  0
  4  3  2  0
  6  5  1  0
  7  6  2  0
  8  7  1  0
  9  8  2  0
  9 15  1  0
 10  9  1  0
 11 10  1  1
 11 12  1  0
 13 14  2  0
 13 11  1  0
 15 16  2  0
 16  6  1  0
 18 17  1  0
 19 18  1  0
 20 19  1  0
 21 20  1  1
 21 22  1  0
 22 13  1  0
 23 21  1  0
 24 23  2  0
 25 23  1  0
M  END
$$$$
