GYM.pdb
     RDKit          3D

 25 25  0  0  1  0  0  0  0  0999 V2000
    2.7361  -19.2529   21.3733 N   0  0  0  0  0  0  0  0  0  0  0  0
    4.1739  -19.0401   21.2493 C   0  0  0  0  0  0  0  0  0  0  0  0
    4.7329  -18.7115   22.5943 C   0  0  0  0  0  0  0  0  0  0  0  0
    4.0545  -17.9854   23.3714 O   0  0  0  0  0  0  0  0  0  0  0  0
    9.6774  -19.4804   30.0303 O   0  0  0  0  0  0  0  0  0  0  0  0
    9.0350  -19.6233   28.7890 C   0  0  0  0  0  0  0  0  0  0  0  0
    9.7554  -19.7239   27.6253 C   0  0  0  0  0  0  0  0  0  0  0  0
    9.1169  -19.8633   26.4173 C   0  0  0  0  0  0  0  0  0  0  0  0
    7.7438  -19.9106   26.2939 C   0  0  0  0  0  0  0  0  0  0  0  0
    7.0733  -20.0274   25.0036 C   0  0  0  0  0  0  0  0  0  0  0  0
    6.5468  -18.8109   24.3604 C   0  0  2  0  0  0  0  0  0  0  0  0
    5.9895  -19.1796   23.0323 N   0  0  0  0  0  0  0  0  0  0  0  0
    7.4311  -17.6875   24.1175 C   0  0  0  0  0  0  0  0  0  0  0  0
    8.0762  -17.5455   23.0139 O   0  0  0  0  0  0  0  0  0  0  0  0
    7.0319  -19.8087   27.4681 C   0  0  0  0  0  0  0  0  0  0  0  0
    7.6612  -19.6674   28.6972 C   0  0  0  0  0  0  0  0  0  0  0  0
    5.3141  -11.3632   26.0693 C   0  0  0  0  0  0  0  0  0  0  0  0
    6.5727  -12.5187   26.7197 S   0  0  0  0  0  0  0  0  0  0  0  0
    7.2310  -13.5083   25.3419 C   0  0  0  0  0  0  0  0  0  0  0  0
    8.2847  -14.4490   25.8161 C   0  0  0  0  0  0  0  0  0  0  0  0
    8.5748  -15.5509   24.8170 C   0  0  2  0  0  0  0  0  0  0  0  0
    7.6574  -16.6560   25.0579 N   0  0  0  0  0  0  0  0  0  0  0  0
    9.9868  -15.9399   24.7812 C   0  0  0  0  0  0  0  0  0  0  0  0
   10.8455  -15.1023   24.4240 O   0  0  0  0  0  0  0  0  0  0  0  0
   10.4478  -17.1960   25.1225 O   0  0  0  0  0  0  0  0  0  0  0  0
  1  2  1  0
  3 12  1  0
  3  2  1  0
  4  3  2  0
  6  5  1  0
  7  6  2  0
  8  7  1  0
  9  8  2  0
  9 15  1  0
 10  9  1  0
 11 10  1  6
 11 12  1  0
 13 14  2  0
 13 11  1  0
 15 16  2  0
 16  6  1  0
 18 17  1  0
 19 18  1  0
 20 19  1  0
 21 20  1  1
 21 22  1  0
 22 13  1  0
 23 21  1  0
 24 23  2  0
 25 23  1  0
M  END
$$$$
