GYM.pdb
     RDKit          3D

 25 25  0  0  1  0  0  0  0  0999 V2000
    9.2074  -19.0738   19.9081 N   0  0  0  0  0  0  0  0  0  0  0  0
    8.2864  -18.4670   20.8629 C   0  0  0  0  0  0  0  0  0  0  0  0
    8.8280  -17.1404   21.2826 C   0  0  0  0  0  0  0  0  0  0  0  0
   10.0059  -16.8344   20.9508 O   0  0  0  0  0  0  0  0  0  0  0  0
    7.6124  -13.2574   16.0812 O   0  0  0  0  0  0  0  0  0  0  0  0
    7.6391  -13.4122   17.4774 C   0  0  0  0  0  0  0  0  0  0  0  0
    6.7592  -14.2507   18.1146 C   0  0  0  0  0  0  0  0  0  0  0  0
    6.7942  -14.3945   19.4800 C   0  0  0  0  0  0  0  0  0  0  0  0
    7.6925  -13.7236   20.2837 C   0  0  0  0  0  0  0  0  0  0  0  0
    7.7020  -13.8585   21.7362 C   0  0  0  0  0  0  0  0  0  0  0  0
    8.5921  -14.8567   22.3542 C   0  0  2  0  0  0  0  0  0  0  0  0
    8.0763  -16.2142   22.0358 N   0  0  0  0  0  0  0  0  0  0  0  0
    8.8000  -14.8419   23.7894 C   0  0  0  0  0  0  0  0  0  0  0  0
    9.0974  -13.7674   24.4307 O   0  0  0  0  0  0  0  0  0  0  0  0
    8.5701  -12.8855   19.6331 C   0  0  0  0  0  0  0  0  0  0  0  0
    8.5484  -12.7285   18.2542 C   0  0  0  0  0  0  0  0  0  0  0  0
    7.1104  -11.8107   28.3395 C   0  0  0  0  0  0  0  0  0  0  0  0
    6.5417  -12.4497   26.7238 S   0  0  0  0  0  0  0  0  0  0  0  0
    7.8064  -13.5762   26.0583 C   0  0  0  0  0  0  0  0  0  0  0  0
    7.5417  -14.9819   26.4755 C   0  0  0  0  0  0  0  0  0  0  0  0
    8.6471  -15.9313   26.0593 C   0  0  2  0  0  0  0  0  0  0  0  0
    8.6904  -15.9919   24.6049 N   0  0  0  0  0  0  0  0  0  0  0  0
    8.5598  -17.2398   26.7123 C   0  0  0  0  0  0  0  0  0  0  0  0
    7.9026  -18.1552   26.1675 O   0  0  0  0  0  0  0  0  0  0  0  0
    9.1668  -17.5414   27.9154 O   0  0  0  0  0  0  0  0  0  0  0  0
  1  2  1  0
  3 12  1  0
  3  2  1  0
  4  3  2  0
  6  5  1  0
  7  6  2  0
  8  7  1  0
  9  8  2  0
  9 15  1  0
 10  9  1  0
 11 10  1  1
 11 12  1  0
 13 14  2  0
 13 11  1  0
 15 16  2  0
 16  6  1  0
 18 17  1  0
 19 18  1  0
 20 19  1  0
 21 20  1  6
 21 22  1  0
 22 13  1  0
 23 21  1  0
 24 23  2  0
 25 23  1  0
M  END
$$$$
