GYM.pdb
     RDKit          3D

 25 25  0  0  1  0  0  0  0  0999 V2000
    4.9335  -21.9296   22.6099 N   0  0  0  0  0  0  0  0  0  0  0  0
    5.9622  -20.9146   22.4115 C   0  0  0  0  0  0  0  0  0  0  0  0
    6.1689  -20.1770   23.6932 C   0  0  0  0  0  0  0  0  0  0  0  0
    5.1583  -19.8504   24.3739 O   0  0  0  0  0  0  0  0  0  0  0  0
    7.8823  -23.9817   29.4503 O   0  0  0  0  0  0  0  0  0  0  0  0
    8.1053  -22.8561   28.6394 C   0  0  0  0  0  0  0  0  0  0  0  0
    7.6485  -21.6155   29.0075 C   0  0  0  0  0  0  0  0  0  0  0  0
    7.8721  -20.5220   28.2070 C   0  0  0  0  0  0  0  0  0  0  0  0
    8.5533  -20.5937   27.0096 C   0  0  0  0  0  0  0  0  0  0  0  0
    8.7590  -19.4328   26.1507 C   0  0  0  0  0  0  0  0  0  0  0  0
    7.6313  -18.9320   25.3456 C   0  0  2  0  0  0  0  0  0  0  0  0
    7.4485  -19.8297   24.1747 N   0  0  0  0  0  0  0  0  0  0  0  0
    7.6763  -17.5866   24.8062 C   0  0  0  0  0  0  0  0  0  0  0  0
    8.2489  -17.3124   23.6877 O   0  0  0  0  0  0  0  0  0  0  0  0
    9.0067  -21.8434   26.6511 C   0  0  0  0  0  0  0  0  0  0  0  0
    8.7893  -22.9589   27.4481 C   0  0  0  0  0  0  0  0  0  0  0  0
    6.0548   -9.9108   26.1912 C   0  0  0  0  0  0  0  0  0  0  0  0
    5.7089  -11.6553   26.6148 S   0  0  0  0  0  0  0  0  0  0  0  0
    6.7281  -12.7306   25.5584 C   0  0  0  0  0  0  0  0  0  0  0  0
    6.5047  -14.1670   25.8857 C   0  0  0  0  0  0  0  0  0  0  0  0
    7.3292  -15.0973   25.0190 C   0  0  2  0  0  0  0  0  0  0  0  0
    7.0970  -16.4688   25.4502 N   0  0  0  0  0  0  0  0  0  0  0  0
    8.7434  -14.7205   24.9515 C   0  0  0  0  0  0  0  0  0  0  0  0
    9.5465  -15.1989   25.7837 O   0  0  0  0  0  0  0  0  0  0  0  0
    9.2648  -13.8542   24.0111 O   0  0  0  0  0  0  0  0  0  0  0  0
  1  2  1  0
  3 12  1  0
  3  2  1  0
  4  3  2  0
  6  5  1  0
  7  6  2  0
  8  7  1  0
  9  8  2  0
  9 15  1  0
 10  9  1  0
 11 10  1  6
 11 12  1  0
 13 14  2  0
 13 11  1  0
 15 16  2  0
 16  6  1  0
 18 17  1  0
 19 18  1  0
 20 19  1  0
 21 20  1  1
 21 22  1  0
 22 13  1  0
 23 21  1  0
 24 23  2  0
 25 23  1  0
M  END
$$$$
