GYM.pdb
     RDKit          3D

 25 25  0  0  1  0  0  0  0  0999 V2000
    7.8091  -19.4340   20.1345 N   0  0  0  0  0  0  0  0  0  0  0  0
    7.3102  -18.5807   21.2073 C   0  0  0  0  0  0  0  0  0  0  0  0
    8.2450  -17.4302   21.3858 C   0  0  0  0  0  0  0  0  0  0  0  0
    9.3405  -17.4369   20.7603 O   0  0  0  0  0  0  0  0  0  0  0  0
    7.6358  -13.1286   16.2061 O   0  0  0  0  0  0  0  0  0  0  0  0
    7.7590  -13.3444   17.5890 C   0  0  0  0  0  0  0  0  0  0  0  0
    6.7856  -14.0087   18.2923 C   0  0  0  0  0  0  0  0  0  0  0  0
    6.9163  -14.2141   19.6440 C   0  0  0  0  0  0  0  0  0  0  0  0
    8.0062  -13.7782   20.3686 C   0  0  0  0  0  0  0  0  0  0  0  0
    8.1221  -13.9732   21.8096 C   0  0  0  0  0  0  0  0  0  0  0  0
    8.8490  -15.1514   22.3139 C   0  0  2  0  0  0  0  0  0  0  0  0
    7.9537  -16.3349   22.2259 N   0  0  0  0  0  0  0  0  0  0  0  0
    9.3662  -15.1496   23.6688 C   0  0  0  0  0  0  0  0  0  0  0  0
   10.2110  -14.2722   24.0818 O   0  0  0  0  0  0  0  0  0  0  0  0
    8.9760  -13.1132   19.6522 C   0  0  0  0  0  0  0  0  0  0  0  0
    8.8598  -12.8971   18.2860 C   0  0  0  0  0  0  0  0  0  0  0  0
    7.1040  -11.2566   26.9558 C   0  0  0  0  0  0  0  0  0  0  0  0
    6.2594  -12.7890   27.4854 S   0  0  0  0  0  0  0  0  0  0  0  0
    7.4611  -14.1554   27.4796 C   0  0  0  0  0  0  0  0  0  0  0  0
    7.7238  -14.6292   26.0916 C   0  0  0  0  0  0  0  0  0  0  0  0
    8.7481  -15.7448   26.0407 C   0  0  2  0  0  0  0  0  0  0  0  0
    8.9891  -16.0972   24.6484 N   0  0  0  0  0  0  0  0  0  0  0  0
    8.4044  -16.8829   26.8970 C   0  0  0  0  0  0  0  0  0  0  0  0
    8.3517  -16.7240   28.1374 O   0  0  0  0  0  0  0  0  0  0  0  0
    8.1276  -18.1488   26.4199 O   0  0  0  0  0  0  0  0  0  0  0  0
  1  2  1  0
  3 12  1  0
  3  2  1  0
  4  3  2  0
  6  5  1  0
  7  6  2  0
  8  7  1  0
  9  8  2  0
  9 15  1  0
 10  9  1  0
 11 10  1  1
 11 12  1  0
 13 14  2  0
 13 11  1  0
 15 16  2  0
 16  6  1  0
 18 17  1  0
 19 18  1  0
 20 19  1  0
 21 20  1  6
 21 22  1  0
 22 13  1  0
 23 21  1  0
 24 23  2  0
 25 23  1  0
M  END
$$$$
