GYM.pdb
     RDKit          3D

 25 25  0  0  1  0  0  0  0  0999 V2000
    8.3109  -20.6727   21.2127 N   0  0  0  0  0  0  0  0  0  0  0  0
    7.4749  -19.6370   21.8095 C   0  0  0  0  0  0  0  0  0  0  0  0
    8.1847  -18.3268   21.7146 C   0  0  0  0  0  0  0  0  0  0  0  0
    9.4159  -18.3233   21.4399 O   0  0  0  0  0  0  0  0  0  0  0  0
    8.1235  -13.1941   15.7643 O   0  0  0  0  0  0  0  0  0  0  0  0
    7.9338  -13.5998   17.0960 C   0  0  0  0  0  0  0  0  0  0  0  0
    7.4198  -14.8369   17.3938 C   0  0  0  0  0  0  0  0  0  0  0  0
    7.2386  -15.2231   18.6993 C   0  0  0  0  0  0  0  0  0  0  0  0
    7.5525  -14.4154   19.7727 C   0  0  0  0  0  0  0  0  0  0  0  0
    7.3275  -14.8218   21.1555 C   0  0  0  0  0  0  0  0  0  0  0  0
    8.2465  -15.7946   21.7718 C   0  0  2  0  0  0  0  0  0  0  0  0
    7.5350  -17.0916   21.9199 N   0  0  0  0  0  0  0  0  0  0  0  0
    8.8239  -15.5123   23.0719 C   0  0  0  0  0  0  0  0  0  0  0  0
    9.9189  -14.8519   23.2099 O   0  0  0  0  0  0  0  0  0  0  0  0
    8.0675  -13.1770   19.4613 C   0  0  0  0  0  0  0  0  0  0  0  0
    8.2570  -12.7708   18.1477 C   0  0  0  0  0  0  0  0  0  0  0  0
    6.8845  -10.7144   27.8301 C   0  0  0  0  0  0  0  0  0  0  0  0
    6.1899  -12.3288   27.3266 S   0  0  0  0  0  0  0  0  0  0  0  0
    7.5557  -13.5052   27.0778 C   0  0  0  0  0  0  0  0  0  0  0  0
    7.3196  -14.3502   25.8736 C   0  0  0  0  0  0  0  0  0  0  0  0
    8.4920  -15.2575   25.5593 C   0  0  2  0  0  0  0  0  0  0  0  0
    8.2398  -15.9274   24.2910 N   0  0  0  0  0  0  0  0  0  0  0  0
    8.8314  -16.1635   26.6595 C   0  0  0  0  0  0  0  0  0  0  0  0
    8.6138  -17.3897   26.5344 O   0  0  0  0  0  0  0  0  0  0  0  0
    9.3882  -15.7494   27.8533 O   0  0  0  0  0  0  0  0  0  0  0  0
  1  2  1  0
  3 12  1  0
  3  2  1  0
  4  3  2  0
  6  5  1  0
  7  6  2  0
  8  7  1  0
  9  8  2  0
  9 15  1  0
 10  9  1  0
 11 10  1  1
 11 12  1  0
 13 14  2  0
 13 11  1  0
 15 16  2  0
 16  6  1  0
 18 17  1  0
 19 18  1  0
 20 19  1  0
 21 20  1  1
 21 22  1  0
 22 13  1  0
 23 21  1  0
 24 23  2  0
 25 23  1  0
M  END
$$$$
