MNY.pdb
     RDKit          3D

 29 29  0  0  1  0  0  0  0  0999 V2000
   16.5493  -15.7154  -16.1632 C   0  0  0  0  0  0  0  0  0  0  0  0
   17.4624  -14.1600  -16.3148 S   0  0  0  0  0  0  0  0  0  0  0  0
   19.2429  -14.4189  -16.3090 C   0  0  0  0  0  0  0  0  0  0  0  0
   20.0323  -13.1330  -16.2916 C   0  0  0  0  0  0  0  0  0  0  0  0
   20.1047  -12.5449  -17.6625 C   0  0  2  0  0  0  0  0  0  0  0  0
   20.9377  -13.3599  -18.5146 N   0  0  0  0  0  0  0  0  0  0  0  0
   20.5812  -11.1384  -17.6606 C   0  0  0  0  0  0  0  0  0  0  0  0
   21.8098  -10.8934  -17.5622 O   0  0  0  0  0  0  0  0  0  0  0  0
   18.3327   -5.3982  -18.6100 N   0  0  0  0  0  0  0  0  0  0  0  0
   19.3074   -6.3660  -18.2715 C   0  0  0  0  0  0  0  0  0  0  0  0
   20.4686   -5.9966  -17.9961 O   0  0  0  0  0  0  0  0  0  0  0  0
   18.9673   -7.8018  -18.2409 C   0  0  0  0  0  0  0  0  0  0  0  0
   20.0929   -8.6468  -17.6949 C   0  0  2  0  0  0  0  0  0  0  0  0
   19.6991  -10.0315  -17.7667 N   0  0  0  0  0  0  0  0  0  0  0  0
   20.4034   -8.2542  -16.2777 C   0  0  0  0  0  0  0  0  0  0  0  0
   19.5228   -8.4017  -15.4021 O   0  0  0  0  0  0  0  0  0  0  0  0
   27.5327   -9.4146  -16.8487 O   0  0  0  0  0  0  0  0  0  0  0  0
   26.3609   -9.1261  -16.1355 C   0  0  0  0  0  0  0  0  0  0  0  0
   25.9859   -9.9324  -15.0878 C   0  0  0  0  0  0  0  0  0  0  0  0
   24.8360   -9.6534  -14.3842 C   0  0  0  0  0  0  0  0  0  0  0  0
   24.0280   -8.5650  -14.7035 C   0  0  0  0  0  0  0  0  0  0  0  0
   22.7995   -8.3209  -13.9164 C   0  0  0  0  0  0  0  0  0  0  0  0
   21.9394   -7.2562  -14.5489 C   0  0  2  0  0  0  0  0  0  0  0  0
   21.6614   -7.7234  -15.9076 N   0  0  0  0  0  0  0  0  0  0  0  0
   22.5827   -5.9278  -14.5665 C   0  0  0  0  0  0  0  0  0  0  0  0
   22.8586   -5.2514  -13.3913 O   0  0  0  0  0  0  0  0  0  0  0  0
   24.4150   -7.7651  -15.7556 C   0  0  0  0  0  0  0  0  0  0  0  0
   25.5756   -8.0580  -16.4553 C   0  0  0  0  0  0  0  0  0  0  0  0
   22.8940   -5.3820  -15.6496 O   0  0  0  0  0  0  0  0  0  0  0  0
  2  1  1  0
  3  2  1  0
  4  5  1  0
  4  3  1  0
  5  6  1  6
  7  8  2  0
  7  5  1  0
  9 10  1  0
 10 12  1  0
 11 10  2  0
 13 12  1  1
 13 14  1  0
 14  7  1  0
 15 24  1  0
 15 13  1  0
 16 15  2  0
 18 17  1  0
 19 18  2  0
 20 19  1  0
 21 27  1  0
 21 20  2  0
 22 21  1  0
 23 22  1  6
 23 24  1  0
 25 23  1  0
 26 25  1  0
 27 28  2  0
 28 18  1  0
 29 25  2  0
M  END
$$$$
