MNY.pdb
     RDKit          3D

 29 29  0  0  1  0  0  0  0  0999 V2000
   28.8609  -15.9157  -16.6145 C   0  0  0  0  0  0  0  0  0  0  0  0
   29.9932  -16.7902  -17.7230 S   0  0  0  0  0  0  0  0  0  0  0  0
   29.2886  -18.3301  -18.3306 C   0  0  0  0  0  0  0  0  0  0  0  0
   27.9012  -18.6004  -17.8024 C   0  0  0  0  0  0  0  0  0  0  0  0
   27.8073  -19.9909  -17.2655 C   0  0  2  0  0  0  0  0  0  0  0  0
   28.2881  -20.9391  -18.2420 N   0  0  0  0  0  0  0  0  0  0  0  0
   26.4337  -20.3467  -16.8272 C   0  0  0  0  0  0  0  0  0  0  0  0
   25.4778  -19.5672  -17.0678 O   0  0  0  0  0  0  0  0  0  0  0  0
   26.5629  -24.1263  -15.6583 N   0  0  0  0  0  0  0  0  0  0  0  0
   25.3261  -24.2869  -16.3260 C   0  0  0  0  0  0  0  0  0  0  0  0
   25.0247  -25.4034  -16.7984 O   0  0  0  0  0  0  0  0  0  0  0  0
   24.3926  -23.1529  -16.4695 C   0  0  0  0  0  0  0  0  0  0  0  0
   24.8306  -21.9450  -15.6769 C   0  0  2  0  0  0  0  0  0  0  0  0
   26.1392  -21.5500  -16.1345 N   0  0  0  0  0  0  0  0  0  0  0  0
   24.8534  -22.2619  -14.2079 C   0  0  0  0  0  0  0  0  0  0  0  0
   25.6523  -23.1275  -13.7878 O   0  0  0  0  0  0  0  0  0  0  0  0
   27.1916  -19.4957   -6.5143 O   0  0  0  0  0  0  0  0  0  0  0  0
   26.8228  -19.8306   -7.8245 C   0  0  0  0  0  0  0  0  0  0  0  0
   26.2964  -18.8669   -8.6507 C   0  0  0  0  0  0  0  0  0  0  0  0
   25.9326  -19.1906   -9.9384 C   0  0  0  0  0  0  0  0  0  0  0  0
   26.0825  -20.4814  -10.4392 C   0  0  0  0  0  0  0  0  0  0  0  0
   25.6655  -20.7708  -11.8287 C   0  0  0  0  0  0  0  0  0  0  0  0
   24.3346  -21.4782  -11.8711 C   0  0  2  0  0  0  0  0  0  0  0  0
   23.9979  -21.6096  -13.2892 N   0  0  0  0  0  0  0  0  0  0  0  0
   23.2737  -20.7590  -11.1390 C   0  0  0  0  0  0  0  0  0  0  0  0
   22.9001  -21.1418   -9.8628 O   0  0  0  0  0  0  0  0  0  0  0  0
   26.6110  -21.4377   -9.6010 C   0  0  0  0  0  0  0  0  0  0  0  0
   26.9731  -21.0975   -8.3065 C   0  0  0  0  0  0  0  0  0  0  0  0
   22.6864  -19.7830  -11.6590 O   0  0  0  0  0  0  0  0  0  0  0  0
  2  1  1  0
  3  2  1  0
  4  5  1  0
  4  3  1  0
  5  6  1  6
  7  8  2  0
  7  5  1  0
  9 10  1  0
 10 12  1  0
 11 10  2  0
 13 12  1  6
 13 14  1  0
 14  7  1  0
 15 24  1  0
 15 13  1  0
 16 15  2  0
 18 17  1  0
 19 18  2  0
 20 19  1  0
 21 27  1  0
 21 20  2  0
 22 21  1  0
 23 22  1  6
 23 24  1  0
 25 23  1  0
 26 25  1  0
 27 28  2  0
 28 18  1  0
 29 25  2  0
M  END
$$$$
