MNY.pdb
     RDKit          3D

 29 29  0  0  1  0  0  0  0  0999 V2000
   26.3697  -17.2676  -14.3013 C   0  0  0  0  0  0  0  0  0  0  0  0
   27.6731  -17.3715  -15.5527 S   0  0  0  0  0  0  0  0  0  0  0  0
   27.4262  -16.1877  -16.8849 C   0  0  0  0  0  0  0  0  0  0  0  0
   27.8292  -14.7813  -16.5152 C   0  0  0  0  0  0  0  0  0  0  0  0
   27.4396  -13.8247  -17.5939 C   0  0  2  0  0  0  0  0  0  0  0  0
   28.1300  -14.1438  -18.8209 N   0  0  0  0  0  0  0  0  0  0  0  0
   27.6746  -12.4073  -17.2181 C   0  0  0  0  0  0  0  0  0  0  0  0
   27.0837  -11.9167  -16.2235 O   0  0  0  0  0  0  0  0  0  0  0  0
   31.9170   -7.9951  -18.1037 N   0  0  0  0  0  0  0  0  0  0  0  0
   30.6405   -8.4860  -17.7418 C   0  0  0  0  0  0  0  0  0  0  0  0
   29.8548   -7.7462  -17.1126 O   0  0  0  0  0  0  0  0  0  0  0  0
   30.2300   -9.8579  -18.0987 C   0  0  0  0  0  0  0  0  0  0  0  0
   28.8387  -10.1854  -17.6129 C   0  0  2  0  0  0  0  0  0  0  0  0
   28.5530  -11.5593  -17.9421 N   0  0  0  0  0  0  0  0  0  0  0  0
   27.8324   -9.2658  -18.2458 C   0  0  0  0  0  0  0  0  0  0  0  0
   27.6996   -9.2777  -19.4892 O   0  0  0  0  0  0  0  0  0  0  0  0
   20.6372   -5.6975  -21.0131 O   0  0  0  0  0  0  0  0  0  0  0  0
   21.7381   -6.3773  -20.4740 C   0  0  0  0  0  0  0  0  0  0  0  0
   21.5795   -7.1393  -19.3414 C   0  0  0  0  0  0  0  0  0  0  0  0
   22.6576   -7.8090  -18.8080 C   0  0  0  0  0  0  0  0  0  0  0  0
   23.9224   -7.7389  -19.3865 C   0  0  0  0  0  0  0  0  0  0  0  0
   25.0445   -8.4738  -18.7626 C   0  0  0  0  0  0  0  0  0  0  0  0
   26.0086   -7.5365  -18.0804 C   0  0  2  0  0  0  0  0  0  0  0  0
   27.0329   -8.3889  -17.4755 N   0  0  0  0  0  0  0  0  0  0  0  0
   25.3633   -6.6815  -17.0648 C   0  0  0  0  0  0  0  0  0  0  0  0
   24.7347   -5.5008  -17.4190 O   0  0  0  0  0  0  0  0  0  0  0  0
   24.0678   -6.9718  -20.5208 C   0  0  0  0  0  0  0  0  0  0  0  0
   22.9733   -6.3028  -21.0472 C   0  0  0  0  0  0  0  0  0  0  0  0
   25.3710   -7.0073  -15.8557 O   0  0  0  0  0  0  0  0  0  0  0  0
  2  1  1  0
  3  2  1  0
  4  5  1  0
  4  3  1  0
  5  6  1  6
  7  8  2  0
  7  5  1  0
  9 10  1  0
 10 12  1  0
 11 10  2  0
 13 12  1  6
 13 14  1  0
 14  7  1  0
 15 24  1  0
 15 13  1  0
 16 15  2  0
 18 17  1  0
 19 18  2  0
 20 19  1  0
 21 27  1  0
 21 20  2  0
 22 21  1  0
 23 22  1  1
 23 24  1  0
 25 23  1  0
 26 25  1  0
 27 28  2  0
 28 18  1  0
 29 25  2  0
M  END
$$$$
