VDY.pdb
     RDKit          3D

 28 28  0  0  1  0  0  0  0  0999 V2000
    8.6953  -12.9957   20.3415 C   0  0  0  0  0  0  0  0  0  0  0  0
    7.7462  -13.5602   19.3343 C   0  0  1  0  0  0  0  0  0  0  0  0
    7.3683  -12.5287   18.2845 C   0  0  0  0  0  0  0  0  0  0  0  0
    8.3373  -14.7552   18.5751 C   0  0  2  0  0  0  0  0  0  0  0  0
    7.2630  -15.2968   17.7888 N   0  0  0  0  0  0  0  0  0  0  0  0
    8.8011  -15.7524   19.5786 C   0  0  0  0  0  0  0  0  0  0  0  0
    8.0095  -16.4039   20.2839 O   0  0  0  0  0  0  0  0  0  0  0  0
   10.1960  -15.9901   19.7595 N   0  0  0  0  0  0  0  0  0  0  0  0
   10.6673  -17.0093   20.7096 C   0  0  1  0  0  0  0  0  0  0  0  0
   12.0158  -17.4756   20.1398 C   0  0  0  0  0  0  0  0  0  0  0  0
   11.7865  -18.4606   19.0757 C   0  0  0  0  0  0  0  0  0  0  0  0
   10.7067  -19.1110   18.9876 O   0  0  0  0  0  0  0  0  0  0  0  0
   10.9724  -16.3460   21.9943 C   0  0  0  0  0  0  0  0  0  0  0  0
   11.7651  -15.3653   21.9584 O   0  0  0  0  0  0  0  0  0  0  0  0
   12.7483  -18.7281   18.1095 O   0  0  0  0  0  0  0  0  0  0  0  0
   10.8937  -14.5084   30.6722 O   0  0  0  0  0  0  0  0  0  0  0  0
   10.5830  -14.8319   29.3576 C   0  0  0  0  0  0  0  0  0  0  0  0
   10.3040  -13.8735   28.4060 C   0  0  0  0  0  0  0  0  0  0  0  0
   10.0002  -14.2053   27.1179 C   0  0  0  0  0  0  0  0  0  0  0  0
    9.9777  -15.5453   26.7813 C   0  0  0  0  0  0  0  0  0  0  0  0
    9.6569  -16.0173   25.4148 C   0  0  0  0  0  0  0  0  0  0  0  0
   10.8432  -16.1152   24.5009 C   0  0  2  0  0  0  0  0  0  0  0  0
   10.4528  -16.7190   23.2431 N   0  0  0  0  0  0  0  0  0  0  0  0
   11.9809  -16.8698   25.0646 C   0  0  0  0  0  0  0  0  0  0  0  0
   11.9962  -18.1235   25.0160 O   0  0  0  0  0  0  0  0  0  0  0  0
   10.2557  -16.5085   27.7290 C   0  0  0  0  0  0  0  0  0  0  0  0
   10.5628  -16.1731   29.0306 C   0  0  0  0  0  0  0  0  0  0  0  0
   13.0854  -16.2766   25.6706 O   0  0  0  0  0  0  0  0  0  0  0  0
  2  1  1  1
  2  4  1  0
  3  2  1  0
  4  5  1  6
  6  4  1  0
  7  6  2  0
  8  6  1  0
  9 13  1  0
  9  8  1  0
  9 10  1  6
 11 10  1  0
 12 11  2  0
 13 23  1  0
 14 13  2  0
 15 11  1  0
 17 18  2  0
 17 16  1  0
 19 18  1  0
 20 19  2  0
 22 21  1  1
 21 20  1  0
 22 24  1  0
 23 22  1  0
 24 25  2  0
 24 28  1  0
 26 20  1  0
 26 27  2  0
 27 17  1  0
M  END
$$$$
