VDY.pdb
     RDKit          3D

 28 28  0  0  1  0  0  0  0  0999 V2000
    7.0081  -13.2877   17.9827 C   0  0  0  0  0  0  0  0  0  0  0  0
    7.4912  -14.3820   18.8788 C   0  0  1  0  0  0  0  0  0  0  0  0
    8.5296  -15.2505   18.1887 C   0  0  0  0  0  0  0  0  0  0  0  0
    8.1527  -13.8469   20.1556 C   0  0  2  0  0  0  0  0  0  0  0  0
    9.2579  -13.0373   19.7208 N   0  0  0  0  0  0  0  0  0  0  0  0
    8.6403  -15.0126   20.9429 C   0  0  0  0  0  0  0  0  0  0  0  0
    7.8725  -15.8917   21.3745 O   0  0  0  0  0  0  0  0  0  0  0  0
   10.0310  -15.1527   21.2276 N   0  0  0  0  0  0  0  0  0  0  0  0
   10.5213  -16.2720   22.0464 C   0  0  1  0  0  0  0  0  0  0  0  0
   11.9978  -16.4242   21.6497 C   0  0  0  0  0  0  0  0  0  0  0  0
   12.1239  -17.4480   20.6051 C   0  0  0  0  0  0  0  0  0  0  0  0
   13.0665  -17.4324   19.7635 O   0  0  0  0  0  0  0  0  0  0  0  0
   10.5185  -15.8519   23.4630 C   0  0  0  0  0  0  0  0  0  0  0  0
   10.7270  -14.6303   23.6985 O   0  0  0  0  0  0  0  0  0  0  0  0
   11.2104  -18.4882   20.4889 O   0  0  0  0  0  0  0  0  0  0  0  0
    6.4865  -10.9145   27.3639 O   0  0  0  0  0  0  0  0  0  0  0  0
    6.9504  -12.1216   26.8570 C   0  0  0  0  0  0  0  0  0  0  0  0
    8.2937  -12.4242   26.7798 C   0  0  0  0  0  0  0  0  0  0  0  0
    8.7358  -13.6141   26.2795 C   0  0  0  0  0  0  0  0  0  0  0  0
    7.7926  -14.5254   25.8444 C   0  0  0  0  0  0  0  0  0  0  0  0
    8.1610  -15.8443   25.2807 C   0  0  0  0  0  0  0  0  0  0  0  0
    9.5055  -16.3486   25.7169 C   0  0  2  0  0  0  0  0  0  0  0  0
   10.3036  -16.7000   24.5600 N   0  0  0  0  0  0  0  0  0  0  0  0
    9.4498  -17.5059   26.6329 C   0  0  0  0  0  0  0  0  0  0  0  0
    9.4212  -18.6745   26.1767 O   0  0  0  0  0  0  0  0  0  0  0  0
    6.4475  -14.2281   25.9189 C   0  0  0  0  0  0  0  0  0  0  0  0
    6.0008  -13.0257   26.4246 C   0  0  0  0  0  0  0  0  0  0  0  0
    9.4264  -17.4002   28.0213 O   0  0  0  0  0  0  0  0  0  0  0  0
  2  1  1  6
  2  4  1  0
  3  2  1  0
  4  5  1  6
  6  4  1  0
  7  6  2  0
  8  6  1  0
  9 13  1  0
  9  8  1  0
  9 10  1  6
 11 10  1  0
 12 11  2  0
 13 23  1  0
 14 13  2  0
 15 11  1  0
 17 18  2  0
 17 16  1  0
 19 18  1  0
 20 19  2  0
 22 21  1  6
 21 20  1  0
 22 24  1  0
 23 22  1  0
 24 25  2  0
 24 28  1  0
 26 20  1  0
 26 27  2  0
 27 17  1  0
M  END
$$$$
