VDY.pdb
     RDKit          3D

 28 28  0  0  1  0  0  0  0  0999 V2000
    6.4165  -13.6179   20.6364 C   0  0  0  0  0  0  0  0  0  0  0  0
    7.6599  -13.8508   19.8404 C   0  0  1  0  0  0  0  0  0  0  0  0
    7.8976  -12.7341   18.8378 C   0  0  0  0  0  0  0  0  0  0  0  0
    8.9157  -13.9195   20.7190 C   0  0  2  0  0  0  0  0  0  0  0  0
   10.0115  -14.1789   19.8258 N   0  0  0  0  0  0  0  0  0  0  0  0
    8.7458  -15.0482   21.6748 C   0  0  0  0  0  0  0  0  0  0  0  0
    7.7785  -15.1198   22.4544 O   0  0  0  0  0  0  0  0  0  0  0  0
    9.7100  -16.0985   21.7207 N   0  0  0  0  0  0  0  0  0  0  0  0
    9.5367  -17.2381   22.6345 C   0  0  1  0  0  0  0  0  0  0  0  0
   10.6771  -18.2018   22.2722 C   0  0  0  0  0  0  0  0  0  0  0  0
   10.4425  -18.7618   20.9355 C   0  0  0  0  0  0  0  0  0  0  0  0
    9.3436  -19.2993   20.6188 O   0  0  0  0  0  0  0  0  0  0  0  0
    9.8100  -16.7790   24.0122 C   0  0  0  0  0  0  0  0  0  0  0  0
   10.9330  -16.2457   24.2259 O   0  0  0  0  0  0  0  0  0  0  0  0
   11.4200  -18.7289   19.9490 O   0  0  0  0  0  0  0  0  0  0  0  0
    5.8984  -11.0363   25.5753 O   0  0  0  0  0  0  0  0  0  0  0  0
    6.4589  -12.2463   25.9638 C   0  0  0  0  0  0  0  0  0  0  0  0
    7.8097  -12.3943   26.1988 C   0  0  0  0  0  0  0  0  0  0  0  0
    8.3473  -13.5891   26.5800 C   0  0  0  0  0  0  0  0  0  0  0  0
    7.4946  -14.6662   26.7282 C   0  0  0  0  0  0  0  0  0  0  0  0
    7.9709  -16.0084   27.1337 C   0  0  0  0  0  0  0  0  0  0  0  0
    9.2266  -16.4529   26.4425 C   0  0  2  0  0  0  0  0  0  0  0  0
    8.9239  -16.8891   25.0945 N   0  0  0  0  0  0  0  0  0  0  0  0
    9.9555  -17.5288   27.1444 C   0  0  0  0  0  0  0  0  0  0  0  0
   10.4415  -17.3267   28.2834 O   0  0  0  0  0  0  0  0  0  0  0  0
    6.1424  -14.5242   26.4942 C   0  0  0  0  0  0  0  0  0  0  0  0
    5.5993  -13.3169   26.1091 C   0  0  0  0  0  0  0  0  0  0  0  0
   10.1544  -18.8043   26.6220 O   0  0  0  0  0  0  0  0  0  0  0  0
  2  1  1  1
  2  4  1  0
  3  2  1  0
  4  5  1  6
  6  4  1  0
  7  6  2  0
  8  6  1  0
  9 13  1  0
  9  8  1  0
  9 10  1  6
 11 10  1  0
 12 11  2  0
 13 23  1  0
 14 13  2  0
 15 11  1  0
 17 18  2  0
 17 16  1  0
 19 18  1  0
 20 19  2  0
 22 21  1  1
 21 20  1  0
 22 24  1  0
 23 22  1  0
 24 25  2  0
 24 28  1  0
 26 20  1  0
 26 27  2  0
 27 17  1  0
M  END
$$$$
