VDY.pdb
     RDKit          3D

 28 28  0  0  1  0  0  0  0  0999 V2000
    8.2017  -12.4736   18.1940 C   0  0  0  0  0  0  0  0  0  0  0  0
    8.5573  -13.4776   19.2425 C   0  0  1  0  0  0  0  0  0  0  0  0
    7.4287  -13.6626   20.2431 C   0  0  0  0  0  0  0  0  0  0  0  0
    8.8466  -14.8646   18.6538 C   0  0  2  0  0  0  0  0  0  0  0  0
    7.6490  -15.2611   17.9649 N   0  0  0  0  0  0  0  0  0  0  0  0
    9.1281  -15.7928   19.7832 C   0  0  0  0  0  0  0  0  0  0  0  0
    8.2298  -16.4373   20.3543 O   0  0  0  0  0  0  0  0  0  0  0  0
   10.4651  -15.9693   20.2482 N   0  0  0  0  0  0  0  0  0  0  0  0
   10.7542  -16.8578   21.3843 C   0  0  1  0  0  0  0  0  0  0  0  0
   12.2751  -17.0697   21.3328 C   0  0  0  0  0  0  0  0  0  0  0  0
   12.5820  -18.2312   20.4890 C   0  0  0  0  0  0  0  0  0  0  0  0
   11.6755  -18.9808   20.0272 O   0  0  0  0  0  0  0  0  0  0  0  0
   10.4852  -16.1198   22.6358 C   0  0  0  0  0  0  0  0  0  0  0  0
   11.1539  -15.0690   22.8360 O   0  0  0  0  0  0  0  0  0  0  0  0
   13.8885  -18.5657   20.1554 O   0  0  0  0  0  0  0  0  0  0  0  0
    6.0451  -11.4360   28.3517 O   0  0  0  0  0  0  0  0  0  0  0  0
    6.4774  -12.3139   27.3660 C   0  0  0  0  0  0  0  0  0  0  0  0
    5.9151  -13.5604   27.1872 C   0  0  0  0  0  0  0  0  0  0  0  0
    6.3495  -14.4131   26.2147 C   0  0  0  0  0  0  0  0  0  0  0  0
    7.3826  -13.9938   25.3985 C   0  0  0  0  0  0  0  0  0  0  0  0
    7.9342  -14.8392   24.3150 C   0  0  0  0  0  0  0  0  0  0  0  0
    9.1367  -15.6447   24.7116 C   0  0  2  0  0  0  0  0  0  0  0  0
    9.5503  -16.4938   23.6130 N   0  0  0  0  0  0  0  0  0  0  0  0
    8.9372  -16.4776   25.9150 C   0  0  0  0  0  0  0  0  0  0  0  0
    9.0779  -15.9821   27.0592 O   0  0  0  0  0  0  0  0  0  0  0  0
    7.9492  -12.7481   25.5728 C   0  0  0  0  0  0  0  0  0  0  0  0
    7.5101  -11.8864   26.5555 C   0  0  0  0  0  0  0  0  0  0  0  0
    8.5897  -17.8256   25.8806 O   0  0  0  0  0  0  0  0  0  0  0  0
  2  1  1  6
  2  4  1  0
  3  2  1  0
  4  5  1  1
  6  4  1  0
  7  6  2  0
  8  6  1  0
  9 13  1  0
  9  8  1  0
  9 10  1  1
 11 10  1  0
 12 11  2  0
 13 23  1  0
 14 13  2  0
 15 11  1  0
 17 18  2  0
 17 16  1  0
 19 18  1  0
 20 19  2  0
 22 21  1  6
 21 20  1  0
 22 24  1  0
 23 22  1  0
 24 25  2  0
 24 28  1  0
 26 20  1  0
 26 27  2  0
 27 17  1  0
M  END
$$$$
