VDY.pdb
     RDKit          3D

 28 28  0  0  1  0  0  0  0  0999 V2000
    8.3798  -12.9232   21.4401 C   0  0  0  0  0  0  0  0  0  0  0  0
    7.6866  -13.5018   20.2490 C   0  0  1  0  0  0  0  0  0  0  0  0
    7.4998  -12.4649   19.1542 C   0  0  0  0  0  0  0  0  0  0  0  0
    8.4696  -14.6612   19.6193 C   0  0  2  0  0  0  0  0  0  0  0  0
    7.6364  -15.1786   18.5686 N   0  0  0  0  0  0  0  0  0  0  0  0
    8.6834  -15.6945   20.6696 C   0  0  0  0  0  0  0  0  0  0  0  0
    7.7875  -16.4853   21.0168 O   0  0  0  0  0  0  0  0  0  0  0  0
    9.9494  -15.8050   21.3177 N   0  0  0  0  0  0  0  0  0  0  0  0
   10.2355  -16.9304   22.2206 C   0  0  1  0  0  0  0  0  0  0  0  0
   11.7149  -17.2611   21.9704 C   0  0  0  0  0  0  0  0  0  0  0  0
   12.0951  -18.4417   22.7557 C   0  0  0  0  0  0  0  0  0  0  0  0
   13.2381  -18.5549   23.2826 O   0  0  0  0  0  0  0  0  0  0  0  0
   10.1537  -16.4451   23.6138 C   0  0  0  0  0  0  0  0  0  0  0  0
   10.9373  -15.5128   23.9424 O   0  0  0  0  0  0  0  0  0  0  0  0
   11.2149  -19.4971   22.9591 O   0  0  0  0  0  0  0  0  0  0  0  0
    6.6656  -10.7577   26.1075 O   0  0  0  0  0  0  0  0  0  0  0  0
    6.9190  -12.1218   26.1741 C   0  0  0  0  0  0  0  0  0  0  0  0
    5.9526  -13.0678   25.9039 C   0  0  0  0  0  0  0  0  0  0  0  0
    6.2152  -14.4049   25.9730 C   0  0  0  0  0  0  0  0  0  0  0  0
    7.4921  -14.7978   26.3257 C   0  0  0  0  0  0  0  0  0  0  0  0
    7.8851  -16.2214   26.4349 C   0  0  0  0  0  0  0  0  0  0  0  0
    9.2850  -16.5122   25.9790 C   0  0  2  0  0  0  0  0  0  0  0  0
    9.2783  -16.9370   24.5939 N   0  0  0  0  0  0  0  0  0  0  0  0
    9.9872  -17.5272   26.7904 C   0  0  0  0  0  0  0  0  0  0  0  0
   10.1802  -18.6803   26.3348 O   0  0  0  0  0  0  0  0  0  0  0  0
    8.4629  -13.8560   26.5975 C   0  0  0  0  0  0  0  0  0  0  0  0
    8.1975  -12.5049   26.5274 C   0  0  0  0  0  0  0  0  0  0  0  0
   10.4741  -17.2973   28.0747 O   0  0  0  0  0  0  0  0  0  0  0  0
  2  1  1  1
  2  4  1  0
  3  2  1  0
  4  5  1  6
  6  4  1  0
  7  6  2  0
  8  6  1  0
  9 13  1  0
  9  8  1  0
  9 10  1  6
 11 10  1  0
 12 11  2  0
 13 23  1  0
 14 13  2  0
 15 11  1  0
 17 18  2  0
 17 16  1  0
 19 18  1  0
 20 19  2  0
 22 21  1  1
 21 20  1  0
 22 24  1  0
 23 22  1  0
 24 25  2  0
 24 28  1  0
 26 20  1  0
 26 27  2  0
 27 17  1  0
M  END
$$$$
