VDY.pdb
     RDKit          3D

 28 28  0  0  1  0  0  0  0  0999 V2000
    6.7775  -12.9237   18.5202 C   0  0  0  0  0  0  0  0  0  0  0  0
    7.7762  -14.0251   18.6726 C   0  0  1  0  0  0  0  0  0  0  0  0
    9.1965  -13.5210   18.4789 C   0  0  0  0  0  0  0  0  0  0  0  0
    7.7311  -14.6709   20.0636 C   0  0  2  0  0  0  0  0  0  0  0  0
    8.0215  -13.6191   20.9992 N   0  0  0  0  0  0  0  0  0  0  0  0
    8.7861  -15.7200   20.1168 C   0  0  0  0  0  0  0  0  0  0  0  0
    8.6500  -16.8286   19.5681 O   0  0  0  0  0  0  0  0  0  0  0  0
   10.0059  -15.4736   20.8141 N   0  0  0  0  0  0  0  0  0  0  0  0
   10.9554  -16.5661   21.0759 C   0  0  1  0  0  0  0  0  0  0  0  0
   12.1160  -16.3121   20.1016 C   0  0  0  0  0  0  0  0  0  0  0  0
   13.0761  -17.4198   20.1801 C   0  0  0  0  0  0  0  0  0  0  0  0
   14.3179  -17.2407   20.0291 O   0  0  0  0  0  0  0  0  0  0  0  0
   11.5125  -16.3869   22.4327 C   0  0  0  0  0  0  0  0  0  0  0  0
   12.4578  -15.5613   22.5592 O   0  0  0  0  0  0  0  0  0  0  0  0
   12.6664  -18.7245   20.4248 O   0  0  0  0  0  0  0  0  0  0  0  0
   10.5983  -14.3229   30.8522 O   0  0  0  0  0  0  0  0  0  0  0  0
   10.4643  -14.8165   29.5607 C   0  0  0  0  0  0  0  0  0  0  0  0
   10.3923  -16.1665   29.2884 C   0  0  0  0  0  0  0  0  0  0  0  0
   10.2606  -16.6378   28.0148 C   0  0  0  0  0  0  0  0  0  0  0  0
   10.2000  -15.7177   26.9857 C   0  0  0  0  0  0  0  0  0  0  0  0
   10.0617  -16.1185   25.5669 C   0  0  0  0  0  0  0  0  0  0  0  0
   11.3326  -16.6087   24.9370 C   0  0  2  0  0  0  0  0  0  0  0  0
   11.0752  -17.0589   23.5842 N   0  0  0  0  0  0  0  0  0  0  0  0
   12.0005  -17.6925   25.6861 C   0  0  0  0  0  0  0  0  0  0  0  0
   12.9954  -17.4435   26.4089 O   0  0  0  0  0  0  0  0  0  0  0  0
   10.2720  -14.3659   27.2520 C   0  0  0  0  0  0  0  0  0  0  0  0
   10.4048  -13.8897   28.5391 C   0  0  0  0  0  0  0  0  0  0  0  0
   11.5970  -19.0249   25.6542 O   0  0  0  0  0  0  0  0  0  0  0  0
  2  1  1  1
  2  4  1  0
  3  2  1  0
  4  5  1  1
  6  4  1  0
  7  6  2  0
  8  6  1  0
  9 13  1  0
  9  8  1  0
  9 10  1  6
 11 10  1  0
 12 11  2  0
 13 23  1  0
 14 13  2  0
 15 11  1  0
 17 18  2  0
 17 16  1  0
 19 18  1  0
 20 19  2  0
 22 21  1  1
 21 20  1  0
 22 24  1  0
 23 22  1  0
 24 25  2  0
 24 28  1  0
 26 20  1  0
 26 27  2  0
 27 17  1  0
M  END
$$$$
