VDY.pdb
     RDKit          3D

 28 28  0  0  1  0  0  0  0  0999 V2000
    7.6750  -13.2215   22.4754 C   0  0  0  0  0  0  0  0  0  0  0  0
    7.0403  -14.0911   21.4386 C   0  0  1  0  0  0  0  0  0  0  0  0
    6.4600  -13.2688   20.3002 C   0  0  0  0  0  0  0  0  0  0  0  0
    8.0362  -15.0699   20.8029 C   0  0  2  0  0  0  0  0  0  0  0  0
    7.2993  -15.7919   19.8021 N   0  0  0  0  0  0  0  0  0  0  0  0
    8.5123  -15.9958   21.8670 C   0  0  0  0  0  0  0  0  0  0  0  0
    7.8125  -16.9307   22.2972 O   0  0  0  0  0  0  0  0  0  0  0  0
    9.8116  -15.8295   22.4317 N   0  0  0  0  0  0  0  0  0  0  0  0
   10.3218  -16.7769   23.4347 C   0  0  1  0  0  0  0  0  0  0  0  0
   11.7583  -17.0822   22.9834 C   0  0  0  0  0  0  0  0  0  0  0  0
   11.7282  -17.8890   21.7572 C   0  0  0  0  0  0  0  0  0  0  0  0
   11.0946  -18.9803   21.6899 O   0  0  0  0  0  0  0  0  0  0  0  0
   10.4394  -16.0713   24.7276 C   0  0  0  0  0  0  0  0  0  0  0  0
   11.1514  -15.0302   24.7492 O   0  0  0  0  0  0  0  0  0  0  0  0
   12.3972  -17.4921   20.6062 O   0  0  0  0  0  0  0  0  0  0  0  0
    6.4883  -11.0242   25.2763 O   0  0  0  0  0  0  0  0  0  0  0  0
    7.0308  -12.1415   25.8981 C   0  0  0  0  0  0  0  0  0  0  0  0
    6.4471  -13.3884   25.8194 C   0  0  0  0  0  0  0  0  0  0  0  0
    6.9908  -14.4778   26.4353 C   0  0  0  0  0  0  0  0  0  0  0  0
    8.1591  -14.3020   27.1519 C   0  0  0  0  0  0  0  0  0  0  0  0
    8.8321  -15.4136   27.8619 C   0  0  0  0  0  0  0  0  0  0  0  0
   10.1068  -15.8755   27.2184 C   0  0  2  0  0  0  0  0  0  0  0  0
    9.8251  -16.4660   25.9258 N   0  0  0  0  0  0  0  0  0  0  0  0
   10.8799  -16.8380   28.0292 C   0  0  0  0  0  0  0  0  0  0  0  0
   11.2736  -16.5259   29.1790 O   0  0  0  0  0  0  0  0  0  0  0  0
    8.7474  -13.0569   27.2344 C   0  0  0  0  0  0  0  0  0  0  0  0
    8.1980  -11.9561   26.6119 C   0  0  0  0  0  0  0  0  0  0  0  0
   11.2208  -18.1191   27.6026 O   0  0  0  0  0  0  0  0  0  0  0  0
  2  1  1  1
  2  4  1  0
  3  2  1  0
  4  5  1  6
  6  4  1  0
  7  6  2  0
  8  6  1  0
  9 13  1  0
  9  8  1  0
  9 10  1  6
 11 10  1  0
 12 11  2  0
 13 23  1  0
 14 13  2  0
 15 11  1  0
 17 18  2  0
 17 16  1  0
 19 18  1  0
 20 19  2  0
 22 21  1  1
 21 20  1  0
 22 24  1  0
 23 22  1  0
 24 25  2  0
 24 28  1  0
 26 20  1  0
 26 27  2  0
 27 17  1  0
M  END
$$$$
