YEH.pdb
     RDKit          3D

 32 33  0  0  1  0  0  0  0  0999 V2000
   16.1354  -14.8387  -20.6429 O   0  0  0  0  0  0  0  0  0  0  0  0
   16.2624  -13.7228  -19.8452 C   0  0  0  0  0  0  0  0  0  0  0  0
   17.3092  -12.8305  -20.0270 C   0  0  0  0  0  0  0  0  0  0  0  0
   17.4245  -11.7175  -19.2216 C   0  0  0  0  0  0  0  0  0  0  0  0
   16.5246  -11.4391  -18.2151 C   0  0  0  0  0  0  0  0  0  0  0  0
   16.7082  -10.2340  -17.3818 C   0  0  0  0  0  0  0  0  0  0  0  0
   17.7983  -10.3514  -16.3574 C   0  0  2  0  0  0  0  0  0  0  0  0
   17.3484  -11.3649  -15.3893 N   0  0  0  0  0  0  0  0  0  0  0  0
   18.0121   -9.0558  -15.6634 C   0  0  0  0  0  0  0  0  0  0  0  0
   17.3062   -8.7085  -14.6811 O   0  0  0  0  0  0  0  0  0  0  0  0
   15.4863  -12.3293  -18.0387 C   0  0  0  0  0  0  0  0  0  0  0  0
   15.3555  -13.4559  -18.8418 C   0  0  0  0  0  0  0  0  0  0  0  0
   19.0172   -8.1331  -16.0606 N   0  0  0  0  0  0  0  0  0  0  0  0
   19.2740   -6.8789  -15.3548 C   0  0  1  0  0  0  0  0  0  0  0  0
   20.6835   -6.8753  -14.8233 C   0  0  0  0  0  0  0  0  0  0  0  0
   21.0038   -5.6144  -14.0876 C   0  0  0  0  0  0  0  0  0  0  0  0
   22.3873   -5.5061  -13.6102 C   0  0  0  0  0  0  0  0  0  0  0  0
   23.4178   -5.5816  -14.3064 O   0  0  0  0  0  0  0  0  0  0  0  0
   19.1194   -5.7220  -16.2994 C   0  0  0  0  0  0  0  0  0  0  0  0
   19.4805   -5.8658  -17.4821 O   0  0  0  0  0  0  0  0  0  0  0  0
   22.5621   -5.2973  -12.2309 O   0  0  0  0  0  0  0  0  0  0  0  0
   18.5811   -4.4878  -15.8877 N   0  0  0  0  0  0  0  0  0  0  0  0
   18.3705   -3.3834  -16.8758 C   0  0  1  0  0  0  0  0  0  0  0  0
   16.9245   -3.3356  -17.2073 C   0  0  0  0  0  0  0  0  0  0  0  0
   16.4572   -4.2058  -18.2845 C   0  0  0  0  0  0  0  0  0  0  0  0
   17.0694   -5.0488  -19.1545 C   0  0  0  0  0  0  0  0  0  0  0  0
   16.0979   -5.6307  -19.9009 N   0  0  0  0  0  0  0  0  0  0  0  0
   14.9045   -5.1710  -19.5148 C   0  0  0  0  0  0  0  0  0  0  0  0
   15.1187   -4.3116  -18.5397 N   0  0  0  0  0  0  0  0  0  0  0  0
   18.7635   -2.1757  -16.0870 C   0  0  0  0  0  0  0  0  0  0  0  0
   18.9653   -0.9498  -16.6899 O   0  0  0  0  0  0  0  0  0  0  0  0
   18.9181   -2.2503  -14.8619 O   0  0  0  0  0  0  0  0  0  0  0  0
  2  1  1  0
  2  3  2  0
  4  3  1  0
  5  4  2  0
  6  5  1  0
  6  7  1  0
  7  8  1  1
  9  7  1  0
  9 10  2  0
 11 12  2  0
 11  5  1  0
 12  2  1  0
 13  9  1  0
 14 13  1  0
 14 15  1  6
 16 15  1  0
 16 17  1  0
 17 18  2  0
 19 14  1  0
 20 19  2  0
 21 17  1  0
 22 19  1  0
 23 24  1  1
 23 22  1  0
 25 24  1  0
 26 25  2  0
 27 28  1  0
 27 26  1  0
 28 29  2  0
 29 25  1  0
 30 23  1  0
 31 30  1  0
 32 30  2  0
M  END
$$$$
