YEH.pdb
     RDKit          3D

 32 33  0  0  1  0  0  0  0  0999 V2000
   12.7808   -4.3137   -5.6431 O   0  0  0  0  0  0  0  0  0  0  0  0
   13.3199   -5.2679   -6.4777 C   0  0  0  0  0  0  0  0  0  0  0  0
   12.6446   -6.4514   -6.7394 C   0  0  0  0  0  0  0  0  0  0  0  0
   13.1955   -7.3980   -7.5767 C   0  0  0  0  0  0  0  0  0  0  0  0
   14.4201   -7.2216   -8.1847 C   0  0  0  0  0  0  0  0  0  0  0  0
   14.9590   -8.2774   -9.0651 C   0  0  0  0  0  0  0  0  0  0  0  0
   14.1474   -8.5233  -10.3030 C   0  0  2  0  0  0  0  0  0  0  0  0
   13.3523   -9.7343  -10.0423 N   0  0  0  0  0  0  0  0  0  0  0  0
   15.0297   -8.7465  -11.4768 C   0  0  0  0  0  0  0  0  0  0  0  0
   15.3598   -9.9041  -11.8441 O   0  0  0  0  0  0  0  0  0  0  0  0
   15.0869   -6.0437   -7.9210 C   0  0  0  0  0  0  0  0  0  0  0  0
   14.5458   -5.0793   -7.0796 C   0  0  0  0  0  0  0  0  0  0  0  0
   15.5538   -7.6777  -12.2528 N   0  0  0  0  0  0  0  0  0  0  0  0
   16.1978   -7.8737  -13.5505 C   0  0  1  0  0  0  0  0  0  0  0  0
   15.9182   -6.6902  -14.4395 C   0  0  0  0  0  0  0  0  0  0  0  0
   16.5006   -6.8628  -15.8051 C   0  0  0  0  0  0  0  0  0  0  0  0
   16.3203   -5.7199  -16.7080 C   0  0  0  0  0  0  0  0  0  0  0  0
   17.2064   -4.9309  -17.0882 O   0  0  0  0  0  0  0  0  0  0  0  0
   17.6837   -7.9912  -13.3691 C   0  0  0  0  0  0  0  0  0  0  0  0
   18.2389   -7.2725  -12.5177 O   0  0  0  0  0  0  0  0  0  0  0  0
   15.0178   -5.4973  -17.1882 O   0  0  0  0  0  0  0  0  0  0  0  0
   18.4610   -8.8855  -14.1297 N   0  0  0  0  0  0  0  0  0  0  0  0
   19.9336   -9.0051  -13.8904 C   0  0  1  0  0  0  0  0  0  0  0  0
   20.4296  -10.1714  -14.6631 C   0  0  0  0  0  0  0  0  0  0  0  0
   21.8589  -10.4660  -14.5840 C   0  0  0  0  0  0  0  0  0  0  0  0
   22.8790  -10.0099  -13.8134 C   0  0  0  0  0  0  0  0  0  0  0  0
   23.9905  -10.7013  -14.1683 N   0  0  0  0  0  0  0  0  0  0  0  0
   23.6841  -11.5712  -15.1348 C   0  0  0  0  0  0  0  0  0  0  0  0
   22.3987  -11.4312  -15.3870 N   0  0  0  0  0  0  0  0  0  0  0  0
   20.4529   -7.7326  -14.4787 C   0  0  0  0  0  0  0  0  0  0  0  0
   19.9983   -7.2563  -15.6927 O   0  0  0  0  0  0  0  0  0  0  0  0
   21.3116   -7.0711  -13.8827 O   0  0  0  0  0  0  0  0  0  0  0  0
  2  1  1  0
  2  3  2  0
  4  3  1  0
  5  4  2  0
  6  5  1  0
  6  7  1  0
  7  8  1  1
  9  7  1  0
  9 10  2  0
 11 12  2  0
 11  5  1  0
 12  2  1  0
 13  9  1  0
 14 13  1  0
 14 15  1  6
 16 15  1  0
 16 17  1  0
 17 18  2  0
 19 14  1  0
 20 19  2  0
 21 17  1  0
 22 19  1  0
 23 24  1  6
 23 22  1  0
 25 24  1  0
 26 25  2  0
 27 28  1  0
 27 26  1  0
 28 29  2  0
 29 25  1  0
 30 23  1  0
 31 30  1  0
 32 30  2  0
M  END
$$$$
