YEH.pdb
     RDKit          3D

 32 33  0  0  1  0  0  0  0  0999 V2000
   22.2178   -6.4731  -27.3575 O   0  0  0  0  0  0  0  0  0  0  0  0
   22.1211   -6.8373  -26.0325 C   0  0  0  0  0  0  0  0  0  0  0  0
   21.5110   -8.0269  -25.6616 C   0  0  0  0  0  0  0  0  0  0  0  0
   21.4210   -8.3794  -24.3318 C   0  0  0  0  0  0  0  0  0  0  0  0
   21.9221   -7.5850  -23.3227 C   0  0  0  0  0  0  0  0  0  0  0  0
   21.7871   -8.0155  -21.9168 C   0  0  0  0  0  0  0  0  0  0  0  0
   23.0896   -8.3148  -21.2346 C   0  0  2  0  0  0  0  0  0  0  0  0
   23.5560   -9.6002  -21.7794 N   0  0  0  0  0  0  0  0  0  0  0  0
   22.9014   -8.4320  -19.7660 C   0  0  0  0  0  0  0  0  0  0  0  0
   22.7614   -9.5500  -19.2053 O   0  0  0  0  0  0  0  0  0  0  0  0
   22.5273   -6.4038  -23.6970 C   0  0  0  0  0  0  0  0  0  0  0  0
   22.6264   -6.0336  -25.0327 C   0  0  0  0  0  0  0  0  0  0  0  0
   22.8667   -7.3001  -18.9074 N   0  0  0  0  0  0  0  0  0  0  0  0
   22.6434   -7.3975  -17.4660 C   0  0  1  0  0  0  0  0  0  0  0  0
   23.0545   -6.1099  -16.8009 C   0  0  0  0  0  0  0  0  0  0  0  0
   22.8921   -6.1672  -15.3162 C   0  0  0  0  0  0  0  0  0  0  0  0
   23.2173   -4.9249  -14.6057 C   0  0  0  0  0  0  0  0  0  0  0  0
   24.3570   -4.4605  -14.4120 O   0  0  0  0  0  0  0  0  0  0  0  0
   21.1858   -7.6301  -17.1909 C   0  0  0  0  0  0  0  0  0  0  0  0
   20.3477   -6.9233  -17.7807 O   0  0  0  0  0  0  0  0  0  0  0  0
   22.1328   -4.1904  -14.0949 O   0  0  0  0  0  0  0  0  0  0  0  0
   20.7435   -8.6185  -16.2910 N   0  0  0  0  0  0  0  0  0  0  0  0
   19.2807   -8.8358  -16.0599 C   0  0  1  0  0  0  0  0  0  0  0  0
   19.0788  -10.2662  -15.7190 C   0  0  0  0  0  0  0  0  0  0  0  0
   17.7400  -10.6686  -15.2925 C   0  0  0  0  0  0  0  0  0  0  0  0
   16.5629  -10.0143  -15.1238 C   0  0  0  0  0  0  0  0  0  0  0  0
   15.6401  -10.9368  -14.7537 N   0  0  0  0  0  0  0  0  0  0  0  0
   16.2150  -12.1411  -14.6907 C   0  0  0  0  0  0  0  0  0  0  0  0
   17.4817  -11.9818  -15.0156 N   0  0  0  0  0  0  0  0  0  0  0  0
   19.0189   -7.9746  -14.8663 C   0  0  0  0  0  0  0  0  0  0  0  0
   17.7849   -7.3944  -14.6472 O   0  0  0  0  0  0  0  0  0  0  0  0
   19.9136   -7.7609  -14.0391 O   0  0  0  0  0  0  0  0  0  0  0  0
  2  1  1  0
  2  3  2  0
  4  3  1  0
  5  4  2  0
  6  5  1  0
  6  7  1  0
  7  8  1  6
  9  7  1  0
  9 10  2  0
 11 12  2  0
 11  5  1  0
 12  2  1  0
 13  9  1  0
 14 13  1  0
 14 15  1  1
 16 15  1  0
 16 17  1  0
 17 18  2  0
 19 14  1  0
 20 19  2  0
 21 17  1  0
 22 19  1  0
 23 24  1  1
 23 22  1  0
 25 24  1  0
 26 25  2  0
 27 28  1  0
 27 26  1  0
 28 29  2  0
 29 25  1  0
 30 23  1  0
 31 30  1  0
 32 30  2  0
M  END
$$$$
