YEH.pdb
     RDKit          3D

 32 33  0  0  1  0  0  0  0  0999 V2000
   16.0539  -15.6017  -17.0760 O   0  0  0  0  0  0  0  0  0  0  0  0
   16.6972  -14.5746  -16.4210 C   0  0  0  0  0  0  0  0  0  0  0  0
   16.0611  -13.3623  -16.1956 C   0  0  0  0  0  0  0  0  0  0  0  0
   16.7165  -12.3426  -15.5386 C   0  0  0  0  0  0  0  0  0  0  0  0
   18.0105  -12.4718  -15.0813 C   0  0  0  0  0  0  0  0  0  0  0  0
   18.6596  -11.3390  -14.3915 C   0  0  0  0  0  0  0  0  0  0  0  0
   19.3404  -10.3656  -15.3084 C   0  0  2  0  0  0  0  0  0  0  0  0
   20.5212  -11.0607  -15.8461 N   0  0  0  0  0  0  0  0  0  0  0  0
   19.7682   -9.1524  -14.5662 C   0  0  0  0  0  0  0  0  0  0  0  0
   20.9661   -8.9765  -14.2226 O   0  0  0  0  0  0  0  0  0  0  0  0
   18.6379  -13.6787  -15.3082 C   0  0  0  0  0  0  0  0  0  0  0  0
   17.9917  -14.7166  -15.9686 C   0  0  0  0  0  0  0  0  0  0  0  0
   18.8612   -8.1220  -14.1987 N   0  0  0  0  0  0  0  0  0  0  0  0
   19.2909   -6.8414  -13.6396 C   0  0  1  0  0  0  0  0  0  0  0  0
   20.0915   -6.0830  -14.6657 C   0  0  0  0  0  0  0  0  0  0  0  0
   20.5180   -4.7405  -14.1660 C   0  0  0  0  0  0  0  0  0  0  0  0
   21.5637   -4.7626  -13.1365 C   0  0  0  0  0  0  0  0  0  0  0  0
   21.4259   -4.4596  -11.9359 O   0  0  0  0  0  0  0  0  0  0  0  0
   18.0905   -6.0185  -13.2703 C   0  0  0  0  0  0  0  0  0  0  0  0
   17.1868   -5.8706  -14.1137 O   0  0  0  0  0  0  0  0  0  0  0  0
   22.8454   -5.1655  -13.5506 O   0  0  0  0  0  0  0  0  0  0  0  0
   17.9594   -5.4136  -12.0057 N   0  0  0  0  0  0  0  0  0  0  0  0
   16.6941   -4.7088  -11.6281 C   0  0  1  0  0  0  0  0  0  0  0  0
   16.6166   -4.6701  -10.1463 C   0  0  0  0  0  0  0  0  0  0  0  0
   16.0180   -5.8241   -9.4784 C   0  0  0  0  0  0  0  0  0  0  0  0
   15.4750   -6.9913   -9.9087 C   0  0  0  0  0  0  0  0  0  0  0  0
   15.1265   -7.7021   -8.8075 N   0  0  0  0  0  0  0  0  0  0  0  0
   15.4404   -7.0066   -7.7109 C   0  0  0  0  0  0  0  0  0  0  0  0
   15.9785   -5.8735   -8.1132 N   0  0  0  0  0  0  0  0  0  0  0  0
   16.9235   -3.3357  -12.1730 C   0  0  0  0  0  0  0  0  0  0  0  0
   15.9052   -2.4059  -12.2485 O   0  0  0  0  0  0  0  0  0  0  0  0
   18.0448   -2.9993  -12.5728 O   0  0  0  0  0  0  0  0  0  0  0  0
  2  1  1  0
  2  3  2  0
  4  3  1  0
  5  4  2  0
  6  5  1  0
  6  7  1  0
  7  8  1  1
  9  7  1  0
  9 10  2  0
 11 12  2  0
 11  5  1  0
 12  2  1  0
 13  9  1  0
 14 13  1  0
 14 15  1  6
 16 15  1  0
 16 17  1  0
 17 18  2  0
 19 14  1  0
 20 19  2  0
 21 17  1  0
 22 19  1  0
 23 24  1  1
 23 22  1  0
 25 24  1  0
 26 25  2  0
 27 28  1  0
 27 26  1  0
 28 29  2  0
 29 25  1  0
 30 23  1  0
 31 30  1  0
 32 30  2  0
M  END
$$$$
