YEH.pdb
     RDKit          3D

 32 33  0  0  1  0  0  0  0  0999 V2000
   30.0283  -21.2506   -8.1865 O   0  0  0  0  0  0  0  0  0  0  0  0
   29.1363  -20.9881   -9.2029 C   0  0  0  0  0  0  0  0  0  0  0  0
   27.8061  -20.7036   -8.9298 C   0  0  0  0  0  0  0  0  0  0  0  0
   26.9238  -20.4426   -9.9565 C   0  0  0  0  0  0  0  0  0  0  0  0
   27.3093  -20.4506  -11.2801 C   0  0  0  0  0  0  0  0  0  0  0  0
   26.3139  -20.1705  -12.3341 C   0  0  0  0  0  0  0  0  0  0  0  0
   25.1945  -21.1671  -12.4071 C   0  0  2  0  0  0  0  0  0  0  0  0
   25.8084  -22.4518  -12.7805 N   0  0  0  0  0  0  0  0  0  0  0  0
   24.2001  -20.7693  -13.4362 C   0  0  0  0  0  0  0  0  0  0  0  0
   24.3196  -21.1180  -14.6395 O   0  0  0  0  0  0  0  0  0  0  0  0
   28.6324  -20.7342  -11.5458 C   0  0  0  0  0  0  0  0  0  0  0  0
   29.5346  -20.9994  -10.5227 C   0  0  0  0  0  0  0  0  0  0  0  0
   23.0611  -19.9760  -13.1317 N   0  0  0  0  0  0  0  0  0  0  0  0
   22.0469  -19.6209  -14.1228 C   0  0  1  0  0  0  0  0  0  0  0  0
   20.7242  -19.3978  -13.4375 C   0  0  0  0  0  0  0  0  0  0  0  0
   20.0923  -20.6808  -13.0036 C   0  0  0  0  0  0  0  0  0  0  0  0
   18.9284  -21.1002  -13.7932 C   0  0  0  0  0  0  0  0  0  0  0  0
   18.9348  -21.8868  -14.7593 O   0  0  0  0  0  0  0  0  0  0  0  0
   22.4401  -18.3513  -14.8215 C   0  0  0  0  0  0  0  0  0  0  0  0
   22.5865  -17.3181  -14.1428 O   0  0  0  0  0  0  0  0  0  0  0  0
   17.6864  -20.5578  -13.4192 O   0  0  0  0  0  0  0  0  0  0  0  0
   22.6465  -18.2973  -16.2133 N   0  0  0  0  0  0  0  0  0  0  0  0
   23.0489  -17.0152  -16.8725 C   0  0  1  0  0  0  0  0  0  0  0  0
   24.3352  -17.2464  -17.5761 C   0  0  0  0  0  0  0  0  0  0  0  0
   25.5386  -17.3451  -16.7525 C   0  0  0  0  0  0  0  0  0  0  0  0
   25.9266  -16.7977  -15.5726 C   0  0  0  0  0  0  0  0  0  0  0  0
   27.1478  -17.3077  -15.2758 N   0  0  0  0  0  0  0  0  0  0  0  0
   27.5228  -18.1545  -16.2385 C   0  0  0  0  0  0  0  0  0  0  0  0
   26.5535  -18.1789  -17.1303 N   0  0  0  0  0  0  0  0  0  0  0  0
   21.9456  -16.8088  -17.8600 C   0  0  0  0  0  0  0  0  0  0  0  0
   21.8774  -15.6744  -18.6446 O   0  0  0  0  0  0  0  0  0  0  0  0
   21.0594  -17.6609  -17.9968 O   0  0  0  0  0  0  0  0  0  0  0  0
  2  1  1  0
  2  3  2  0
  4  3  1  0
  5  4  2  0
  6  5  1  0
  6  7  1  0
  7  8  1  6
  9  7  1  0
  9 10  2  0
 11 12  2  0
 11  5  1  0
 12  2  1  0
 13  9  1  0
 14 13  1  0
 14 15  1  1
 16 15  1  0
 16 17  1  0
 17 18  2  0
 19 14  1  0
 20 19  2  0
 21 17  1  0
 22 19  1  0
 23 24  1  6
 23 22  1  0
 25 24  1  0
 26 25  2  0
 27 28  1  0
 27 26  1  0
 28 29  2  0
 29 25  1  0
 30 23  1  0
 31 30  1  0
 32 30  2  0
M  END
$$$$
