YEH.pdb
     RDKit          3D

 32 33  0  0  1  0  0  0  0  0999 V2000
   17.4973  -11.7215    2.5075 O   0  0  0  0  0  0  0  0  0  0  0  0
   18.0386  -12.3646    3.5988 C   0  0  0  0  0  0  0  0  0  0  0  0
   17.7624  -13.7010    3.8495 C   0  0  0  0  0  0  0  0  0  0  0  0
   18.3109  -14.3327    4.9455 C   0  0  0  0  0  0  0  0  0  0  0  0
   19.1445  -13.6830    5.8305 C   0  0  0  0  0  0  0  0  0  0  0  0
   19.6936  -14.4139    6.9900 C   0  0  0  0  0  0  0  0  0  0  0  0
   18.7005  -14.6706    8.0852 C   0  0  2  0  0  0  0  0  0  0  0  0
   18.3960  -13.3603    8.6827 N   0  0  0  0  0  0  0  0  0  0  0  0
   19.2745  -15.5708    9.1177 C   0  0  0  0  0  0  0  0  0  0  0  0
   19.9924  -15.1301   10.0527 O   0  0  0  0  0  0  0  0  0  0  0  0
   19.4153  -12.3548    5.5767 C   0  0  0  0  0  0  0  0  0  0  0  0
   18.8709  -11.7033    4.4766 C   0  0  0  0  0  0  0  0  0  0  0  0
   19.0532  -16.9745    9.1160 N   0  0  0  0  0  0  0  0  0  0  0  0
   19.5888  -17.8688   10.1409 C   0  0  1  0  0  0  0  0  0  0  0  0
   18.9379  -19.2222   10.0237 C   0  0  0  0  0  0  0  0  0  0  0  0
   19.4079  -20.1659   11.0831 C   0  0  0  0  0  0  0  0  0  0  0  0
   18.8717  -21.5285   10.9859 C   0  0  0  0  0  0  0  0  0  0  0  0
   17.9481  -21.9083   10.2410 O   0  0  0  0  0  0  0  0  0  0  0  0
   21.0687  -18.0350    9.9489 C   0  0  0  0  0  0  0  0  0  0  0  0
   21.5054  -18.1982    8.7946 O   0  0  0  0  0  0  0  0  0  0  0  0
   19.4610  -22.4970   11.8175 O   0  0  0  0  0  0  0  0  0  0  0  0
   21.9699  -18.0117   11.0305 N   0  0  0  0  0  0  0  0  0  0  0  0
   23.4379  -18.1912   10.8002 C   0  0  1  0  0  0  0  0  0  0  0  0
   24.1306  -16.9746   11.2932 C   0  0  0  0  0  0  0  0  0  0  0  0
   25.5919  -16.9805   11.2654 C   0  0  0  0  0  0  0  0  0  0  0  0
   26.5270  -17.8469   10.7995 C   0  0  0  0  0  0  0  0  0  0  0  0
   27.7408  -17.2808   11.0131 N   0  0  0  0  0  0  0  0  0  0  0  0
   27.5801  -16.0897   11.5963 C   0  0  0  0  0  0  0  0  0  0  0  0
   26.2846  -15.9063   11.7492 N   0  0  0  0  0  0  0  0  0  0  0  0
   23.7536  -19.3606   11.6764 C   0  0  0  0  0  0  0  0  0  0  0  0
   22.7680  -20.0322   12.3727 O   0  0  0  0  0  0  0  0  0  0  0  0
   24.9194  -19.7563   11.7977 O   0  0  0  0  0  0  0  0  0  0  0  0
  2  1  1  0
  2  3  2  0
  4  3  1  0
  5  4  2  0
  6  5  1  0
  6  7  1  0
  7  8  1  1
  9  7  1  0
  9 10  2  0
 11 12  2  0
 11  5  1  0
 12  2  1  0
 13  9  1  0
 14 13  1  0
 14 15  1  6
 16 15  1  0
 16 17  1  0
 17 18  2  0
 19 14  1  0
 20 19  2  0
 21 17  1  0
 22 19  1  0
 23 24  1  1
 23 22  1  0
 25 24  1  0
 26 25  2  0
 27 28  1  0
 27 26  1  0
 28 29  2  0
 29 25  1  0
 30 23  1  0
 31 30  1  0
 32 30  2  0
M  END
$$$$
