YEH.pdb
     RDKit          3D

 32 33  0  0  1  0  0  0  0  0999 V2000
   16.2401  -13.0061  -14.4364 O   0  0  0  0  0  0  0  0  0  0  0  0
   17.1305  -12.3088  -15.2229 C   0  0  0  0  0  0  0  0  0  0  0  0
   17.6089  -11.0668  -14.8308 C   0  0  0  0  0  0  0  0  0  0  0  0
   18.4998  -10.3795  -15.6275 C   0  0  0  0  0  0  0  0  0  0  0  0
   18.9520  -10.8799  -16.8297 C   0  0  0  0  0  0  0  0  0  0  0  0
   19.9006  -10.0907  -17.6407 C   0  0  0  0  0  0  0  0  0  0  0  0
   21.3443  -10.3280  -17.3076 C   0  0  2  0  0  0  0  0  0  0  0  0
   21.3767  -11.5041  -16.4230 N   0  0  0  0  0  0  0  0  0  0  0  0
   21.9230   -9.1554  -16.6033 C   0  0  0  0  0  0  0  0  0  0  0  0
   22.0263   -9.1231  -15.3495 O   0  0  0  0  0  0  0  0  0  0  0  0
   18.4732  -12.1145  -17.2146 C   0  0  0  0  0  0  0  0  0  0  0  0
   17.5750  -12.8204  -16.4234 C   0  0  0  0  0  0  0  0  0  0  0  0
   22.3919   -8.0048  -17.2930 N   0  0  0  0  0  0  0  0  0  0  0  0
   22.9690   -6.8462  -16.6136 C   0  0  1  0  0  0  0  0  0  0  0  0
   24.2646   -6.4614  -17.2788 C   0  0  0  0  0  0  0  0  0  0  0  0
   24.9221   -5.3028  -16.6012 C   0  0  0  0  0  0  0  0  0  0  0  0
   26.0900   -4.7535  -17.3000 C   0  0  0  0  0  0  0  0  0  0  0  0
   26.6334   -5.2263  -18.3165 O   0  0  0  0  0  0  0  0  0  0  0  0
   22.0253   -5.6817  -16.7018 C   0  0  0  0  0  0  0  0  0  0  0  0
   22.2385   -4.6861  -15.9856 O   0  0  0  0  0  0  0  0  0  0  0  0
   26.6472   -3.5785  -16.7657 O   0  0  0  0  0  0  0  0  0  0  0  0
   20.9138   -5.6843  -17.5662 N   0  0  0  0  0  0  0  0  0  0  0  0
   19.9289   -4.5575  -17.5407 C   0  0  1  0  0  0  0  0  0  0  0  0
   19.4277   -4.4192  -16.1505 C   0  0  0  0  0  0  0  0  0  0  0  0
   18.4492   -5.4034  -15.6923 C   0  0  0  0  0  0  0  0  0  0  0  0
   17.8108   -6.4482  -16.2781 C   0  0  0  0  0  0  0  0  0  0  0  0
   17.0447   -7.0358  -15.3256 N   0  0  0  0  0  0  0  0  0  0  0  0
   17.1938   -6.3835  -14.1694 C   0  0  0  0  0  0  0  0  0  0  0  0
   18.0408   -5.3986  -14.3881 N   0  0  0  0  0  0  0  0  0  0  0  0
   20.7820   -3.3851  -17.9051 C   0  0  0  0  0  0  0  0  0  0  0  0
   20.3005   -2.0920  -17.8477 O   0  0  0  0  0  0  0  0  0  0  0  0
   21.9523   -3.5509  -18.2703 O   0  0  0  0  0  0  0  0  0  0  0  0
  2  1  1  0
  2  3  2  0
  4  3  1  0
  5  4  2  0
  6  5  1  0
  6  7  1  0
  7  8  1  1
  9  7  1  0
  9 10  2  0
 11 12  2  0
 11  5  1  0
 12  2  1  0
 13  9  1  0
 14 13  1  0
 14 15  1  6
 16 15  1  0
 16 17  1  0
 17 18  2  0
 19 14  1  0
 20 19  2  0
 21 17  1  0
 22 19  1  0
 23 24  1  1
 23 22  1  0
 25 24  1  0
 26 25  2  0
 27 28  1  0
 27 26  1  0
 28 29  2  0
 29 25  1  0
 30 23  1  0
 31 30  1  0
 32 30  2  0
M  END
$$$$
