YEH.pdb
     RDKit          3D

 32 33  0  0  1  0  0  0  0  0999 V2000
   28.4346  -22.0062  -22.7185 O   0  0  0  0  0  0  0  0  0  0  0  0
   28.4096  -22.9580  -21.7230 C   0  0  0  0  0  0  0  0  0  0  0  0
   27.3917  -23.8987  -21.6599 C   0  0  0  0  0  0  0  0  0  0  0  0
   27.3787  -24.8459  -20.6581 C   0  0  0  0  0  0  0  0  0  0  0  0
   28.3558  -24.9063  -19.6876 C   0  0  0  0  0  0  0  0  0  0  0  0
   28.2806  -25.9407  -18.6366 C   0  0  0  0  0  0  0  0  0  0  0  0
   27.1117  -25.7934  -17.7074 C   0  0  2  0  0  0  0  0  0  0  0  0
   27.4160  -24.6445  -16.8390 N   0  0  0  0  0  0  0  0  0  0  0  0
   26.9381  -27.0146  -16.8800 C   0  0  0  0  0  0  0  0  0  0  0  0
   27.5003  -27.1395  -15.7610 O   0  0  0  0  0  0  0  0  0  0  0  0
   29.3650  -23.9689  -19.7550 C   0  0  0  0  0  0  0  0  0  0  0  0
   29.3930  -23.0075  -20.7581 C   0  0  0  0  0  0  0  0  0  0  0  0
   26.1345  -28.1107  -17.2949 N   0  0  0  0  0  0  0  0  0  0  0  0
   25.9885  -29.3359  -16.5110 C   0  0  1  0  0  0  0  0  0  0  0  0
   24.5802  -29.8551  -16.6387 C   0  0  0  0  0  0  0  0  0  0  0  0
   24.3496  -31.0680  -15.7964 C   0  0  0  0  0  0  0  0  0  0  0  0
   23.0123  -31.6614  -15.9120 C   0  0  0  0  0  0  0  0  0  0  0  0
   22.0690  -31.2299  -16.6020 O   0  0  0  0  0  0  0  0  0  0  0  0
   26.9305  -30.3856  -17.0263 C   0  0  0  0  0  0  0  0  0  0  0  0
   27.1493  -30.4408  -18.2505 O   0  0  0  0  0  0  0  0  0  0  0  0
   22.7771  -32.8313  -15.1687 O   0  0  0  0  0  0  0  0  0  0  0  0
   27.5687  -31.3026  -16.1694 N   0  0  0  0  0  0  0  0  0  0  0  0
   28.5377  -32.3044  -16.7150 C   0  0  1  0  0  0  0  0  0  0  0  0
   29.8470  -32.0827  -16.0518 C   0  0  0  0  0  0  0  0  0  0  0  0
   30.9243  -33.0173  -16.3716 C   0  0  0  0  0  0  0  0  0  0  0  0
   31.0768  -34.0111  -17.2834 C   0  0  0  0  0  0  0  0  0  0  0  0
   32.3323  -34.5023  -17.1357 N   0  0  0  0  0  0  0  0  0  0  0  0
   32.9581  -33.8388  -16.1596 C   0  0  0  0  0  0  0  0  0  0  0  0
   32.1107  -32.9423  -15.6974 N   0  0  0  0  0  0  0  0  0  0  0  0
   27.9395  -33.5986  -16.2654 C   0  0  0  0  0  0  0  0  0  0  0  0
   26.7758  -33.6406  -15.5229 O   0  0  0  0  0  0  0  0  0  0  0  0
   28.4813  -34.6730  -16.5527 O   0  0  0  0  0  0  0  0  0  0  0  0
  2  1  1  0
  2  3  2  0
  4  3  1  0
  5  4  2  0
  6  5  1  0
  6  7  1  0
  7  8  1  1
  9  7  1  0
  9 10  2  0
 11 12  2  0
 11  5  1  0
 12  2  1  0
 13  9  1  0
 14 13  1  0
 14 15  1  6
 16 15  1  0
 16 17  1  0
 17 18  2  0
 19 14  1  0
 20 19  2  0
 21 17  1  0
 22 19  1  0
 23 24  1  1
 23 22  1  0
 25 24  1  0
 26 25  2  0
 27 28  1  0
 27 26  1  0
 28 29  2  0
 29 25  1  0
 30 23  1  0
 31 30  1  0
 32 30  2  0
M  END
$$$$
