QKG.pdb
     RDKit          3D

 23 22  0  0  1  0  0  0  0  0999 V2000
   25.1242  -20.7679   -9.8266 N   0  0  0  0  0  0  0  0  0  0  0  0
   26.5227  -20.8101  -10.1726 C   0  0  0  0  0  0  0  0  0  0  0  0
   27.3211  -21.1325   -9.2692 O   0  0  0  0  0  0  0  0  0  0  0  0
   26.9658  -20.4838  -11.5260 C   0  0  0  0  0  0  0  0  0  0  0  0
   25.9188  -20.1049  -12.4951 C   0  0  0  0  0  0  0  0  0  0  0  0
   25.0499  -21.1608  -13.0357 C   0  0  2  0  0  0  0  0  0  0  0  0
   25.8048  -22.2617  -13.6403 N   0  0  0  0  0  0  0  0  0  0  0  0
   23.8934  -20.8254  -13.8631 C   0  0  0  0  0  0  0  0  0  0  0  0
   23.9374  -20.9596  -15.1395 O   0  0  0  0  0  0  0  0  0  0  0  0
   22.6542  -20.3469  -13.3465 N   0  0  0  0  0  0  0  0  0  0  0  0
   21.4929  -19.9964  -14.1623 C   0  0  1  0  0  0  0  0  0  0  0  0
   20.2481  -20.2516  -13.3955 C   0  0  0  0  0  0  0  0  0  0  0  0
   19.8899  -21.6769  -13.1346 C   0  0  0  0  0  0  0  0  0  0  0  0
   18.5764  -21.7656  -12.3460 C   0  0  0  0  0  0  0  0  0  0  0  0
   18.1045  -23.1587  -12.1303 C   0  0  0  0  0  0  0  0  0  0  0  0
   16.9052  -23.2471  -11.3347 N   0  0  0  0  0  0  0  0  0  0  0  0
   21.6676  -18.6318  -14.7029 C   0  0  0  0  0  0  0  0  0  0  0  0
   22.3336  -17.7752  -14.0116 O   0  0  0  0  0  0  0  0  0  0  0  0
   21.1776  -18.1499  -15.9257 N   0  0  0  0  0  0  0  0  0  0  0  0
   21.4679  -16.7800  -16.3654 C   0  0  0  0  0  0  0  0  0  0  0  0
   20.8596  -16.5035  -17.6803 C   0  0  0  0  0  0  0  0  0  0  0  0
   20.9209  -15.2608  -18.2652 O   0  0  0  0  0  0  0  0  0  0  0  0
   20.2770  -17.4328  -18.2655 O   0  0  0  0  0  0  0  0  0  0  0  0
  1  2  1  0
  2  3  2  0
  4  2  1  0
  4  5  1  0
  6  7  1  6
  6  5  1  0
  6  8  1  0
  8  9  2  0
 10  8  1  0
 10 11  1  0
 11 17  1  0
 12 13  1  0
 11 12  1  1
 14 13  1  0
 15 14  1  0
 16 15  1  0
 17 18  2  0
 19 17  1  0
 19 20  1  0
 21 20  1  0
 21 22  1  0
 23 21  2  0
M  END
$$$$
