QKG.pdb
     RDKit          3D

 23 22  0  0  1  0  0  0  0  0999 V2000
   27.0501  -20.0020  -17.6605 N   0  0  0  0  0  0  0  0  0  0  0  0
   27.5453  -18.7172  -17.2347 C   0  0  0  0  0  0  0  0  0  0  0  0
   28.3330  -18.1295  -18.0039 O   0  0  0  0  0  0  0  0  0  0  0  0
   27.1333  -18.1466  -15.9543 C   0  0  0  0  0  0  0  0  0  0  0  0
   26.1742  -18.9331  -15.1539 C   0  0  0  0  0  0  0  0  0  0  0  0
   24.7453  -18.8473  -15.4903 C   0  0  2  0  0  0  0  0  0  0  0  0
   24.2920  -17.4682  -15.6905 N   0  0  0  0  0  0  0  0  0  0  0  0
   23.7523  -19.6013  -14.7289 C   0  0  0  0  0  0  0  0  0  0  0  0
   23.9495  -20.8351  -14.4326 O   0  0  0  0  0  0  0  0  0  0  0  0
   22.5252  -19.0529  -14.2546 N   0  0  0  0  0  0  0  0  0  0  0  0
   21.4791  -19.8174  -13.5776 C   0  0  1  0  0  0  0  0  0  0  0  0
   21.3843  -19.3880  -12.1601 C   0  0  0  0  0  0  0  0  0  0  0  0
   20.2906  -19.9869  -11.3396 C   0  0  0  0  0  0  0  0  0  0  0  0
   20.5953  -21.4586  -11.0296 C   0  0  0  0  0  0  0  0  0  0  0  0
   19.5507  -22.1219  -10.2056 C   0  0  0  0  0  0  0  0  0  0  0  0
   19.8628  -23.4879   -9.8651 N   0  0  0  0  0  0  0  0  0  0  0  0
   20.2340  -19.7540  -14.3718 C   0  0  0  0  0  0  0  0  0  0  0  0
   19.8083  -18.6037  -14.7603 O   0  0  0  0  0  0  0  0  0  0  0  0
   19.4400  -20.8408  -14.7664 N   0  0  0  0  0  0  0  0  0  0  0  0
   18.1581  -20.6278  -15.4487 C   0  0  0  0  0  0  0  0  0  0  0  0
   18.3083  -20.7445  -16.9113 C   0  0  0  0  0  0  0  0  0  0  0  0
   17.2323  -20.6654  -17.7634 O   0  0  0  0  0  0  0  0  0  0  0  0
   19.4493  -20.9195  -17.3728 O   0  0  0  0  0  0  0  0  0  0  0  0
  1  2  1  0
  2  3  2  0
  4  2  1  0
  4  5  1  0
  6  7  1  1
  6  5  1  0
  6  8  1  0
  8  9  2  0
 10  8  1  0
 10 11  1  0
 11 17  1  0
 12 13  1  0
 11 12  1  1
 14 13  1  0
 15 14  1  0
 16 15  1  0
 17 18  2  0
 19 17  1  0
 19 20  1  0
 21 20  1  0
 21 22  1  0
 23 21  2  0
M  END
$$$$
