QKG.pdb
     RDKit          3D

 23 22  0  0  1  0  0  0  0  0999 V2000
   27.6557  -23.9312  -16.0864 N   0  0  0  0  0  0  0  0  0  0  0  0
   27.2518  -22.5485  -16.1319 C   0  0  0  0  0  0  0  0  0  0  0  0
   27.5678  -21.8329  -15.1596 O   0  0  0  0  0  0  0  0  0  0  0  0
   26.5038  -22.0277  -17.2738 C   0  0  0  0  0  0  0  0  0  0  0  0
   25.0806  -21.7083  -17.0464 C   0  0  0  0  0  0  0  0  0  0  0  0
   24.2055  -22.7579  -16.5038 C   0  0  2  0  0  0  0  0  0  0  0  0
   24.0915  -23.9168  -17.3934 N   0  0  0  0  0  0  0  0  0  0  0  0
   22.9006  -22.4235  -15.9380 C   0  0  0  0  0  0  0  0  0  0  0  0
   21.8639  -22.3260  -16.6896 O   0  0  0  0  0  0  0  0  0  0  0  0
   22.6670  -22.1945  -14.5508 N   0  0  0  0  0  0  0  0  0  0  0  0
   21.3587  -21.9111  -13.9634 C   0  0  1  0  0  0  0  0  0  0  0  0
   21.0727  -22.8895  -12.8847 C   0  0  0  0  0  0  0  0  0  0  0  0
   19.7625  -22.7627  -12.1811 C   0  0  0  0  0  0  0  0  0  0  0  0
   19.6230  -23.8477  -11.1048 C   0  0  0  0  0  0  0  0  0  0  0  0
   18.2998  -23.8473  -10.4272 C   0  0  0  0  0  0  0  0  0  0  0  0
   18.1459  -24.9027   -9.4568 N   0  0  0  0  0  0  0  0  0  0  0  0
   21.2864  -20.4815  -13.5947 C   0  0  0  0  0  0  0  0  0  0  0  0
   22.3578  -19.8932  -13.1932 O   0  0  0  0  0  0  0  0  0  0  0  0
   20.1463  -19.6654  -13.6381 N   0  0  0  0  0  0  0  0  0  0  0  0
   20.2247  -18.2436  -13.2829 C   0  0  0  0  0  0  0  0  0  0  0  0
   19.2883  -17.4410  -14.0919 C   0  0  0  0  0  0  0  0  0  0  0  0
   18.4739  -16.4858  -13.5311 O   0  0  0  0  0  0  0  0  0  0  0  0
   19.2456  -17.6460  -15.3173 O   0  0  0  0  0  0  0  0  0  0  0  0
  1  2  1  0
  2  3  2  0
  4  2  1  0
  4  5  1  0
  6  7  1  6
  6  5  1  0
  6  8  1  0
  8  9  2  0
 10  8  1  0
 10 11  1  0
 11 17  1  0
 12 13  1  0
 11 12  1  1
 14 13  1  0
 15 14  1  0
 16 15  1  0
 17 18  2  0
 19 17  1  0
 19 20  1  0
 21 20  1  0
 21 22  1  0
 23 21  2  0
M  END
$$$$
