QKG.pdb
     RDKit          3D

 23 22  0  0  1  0  0  0  0  0999 V2000
   26.0692  -16.3441  -16.2334 N   0  0  0  0  0  0  0  0  0  0  0  0
   26.0310  -16.9848  -17.5238 C   0  0  0  0  0  0  0  0  0  0  0  0
   25.0111  -16.8000  -18.2189 O   0  0  0  0  0  0  0  0  0  0  0  0
   27.1461  -17.8121  -17.9785 C   0  0  0  0  0  0  0  0  0  0  0  0
   28.2101  -18.0928  -16.9946 C   0  0  0  0  0  0  0  0  0  0  0  0
   28.3606  -19.4691  -16.4994 C   0  0  2  0  0  0  0  0  0  0  0  0
   28.7745  -20.4063  -17.5471 N   0  0  0  0  0  0  0  0  0  0  0  0
   27.3342  -20.0751  -15.6545 C   0  0  0  0  0  0  0  0  0  0  0  0
   26.6025  -21.0341  -16.0948 O   0  0  0  0  0  0  0  0  0  0  0  0
   27.0696  -19.6785  -14.3113 N   0  0  0  0  0  0  0  0  0  0  0  0
   26.0827  -20.3098  -13.4368 C   0  0  1  0  0  0  0  0  0  0  0  0
   26.5009  -20.1595  -12.0208 C   0  0  0  0  0  0  0  0  0  0  0  0
   25.6056  -20.7469  -10.9810 C   0  0  0  0  0  0  0  0  0  0  0  0
   26.0978  -20.3756   -9.5757 C   0  0  0  0  0  0  0  0  0  0  0  0
   25.2987  -20.9906   -8.4833 C   0  0  0  0  0  0  0  0  0  0  0  0
   23.9045  -20.6234   -8.5086 N   0  0  0  0  0  0  0  0  0  0  0  0
   24.7335  -19.8151  -13.7832 C   0  0  0  0  0  0  0  0  0  0  0  0
   24.5765  -18.5581  -14.0084 O   0  0  0  0  0  0  0  0  0  0  0  0
   23.5675  -20.5857  -13.9022 N   0  0  0  0  0  0  0  0  0  0  0  0
   22.2732  -19.9537  -14.1838 C   0  0  0  0  0  0  0  0  0  0  0  0
   21.2031  -20.9621  -14.3000 C   0  0  0  0  0  0  0  0  0  0  0  0
   19.8938  -20.6125  -14.5312 O   0  0  0  0  0  0  0  0  0  0  0  0
   21.5102  -22.1610  -14.1831 O   0  0  0  0  0  0  0  0  0  0  0  0
  1  2  1  0
  2  3  2  0
  4  2  1  0
  4  5  1  0
  6  7  1  6
  6  5  1  0
  6  8  1  0
  8  9  2  0
 10  8  1  0
 10 11  1  0
 11 17  1  0
 12 13  1  0
 11 12  1  1
 14 13  1  0
 15 14  1  0
 16 15  1  0
 17 18  2  0
 19 17  1  0
 19 20  1  0
 21 20  1  0
 21 22  1  0
 23 21  2  0
M  END
$$$$
