QKG.pdb
     RDKit          3D

 23 22  0  0  1  0  0  0  0  0999 V2000
   16.0833  -10.3546  -14.5254 N   0  0  0  0  0  0  0  0  0  0  0  0
   16.2789  -11.6697  -15.0817 C   0  0  0  0  0  0  0  0  0  0  0  0
   15.3152  -12.4604  -15.0212 O   0  0  0  0  0  0  0  0  0  0  0  0
   17.5573  -12.0420  -15.6830 C   0  0  0  0  0  0  0  0  0  0  0  0
   18.6141  -11.0113  -15.6898 C   0  0  0  0  0  0  0  0  0  0  0  0
   19.9137  -11.3448  -16.2911 C   0  0  2  0  0  0  0  0  0  0  0  0
   20.4304  -12.6404  -15.8415 N   0  0  0  0  0  0  0  0  0  0  0  0
   20.9906  -10.3585  -16.3369 C   0  0  0  0  0  0  0  0  0  0  0  0
   21.8545  -10.2842  -15.3897 O   0  0  0  0  0  0  0  0  0  0  0  0
   21.1787   -9.4311  -17.4027 N   0  0  0  0  0  0  0  0  0  0  0  0
   22.2827   -8.4768  -17.4897 C   0  0  1  0  0  0  0  0  0  0  0  0
   22.6310   -8.2440  -18.9135 C   0  0  0  0  0  0  0  0  0  0  0  0
   23.8656   -8.9057  -19.4289 C   0  0  0  0  0  0  0  0  0  0  0  0
   23.6487  -10.4190  -19.5627 C   0  0  0  0  0  0  0  0  0  0  0  0
   24.8572  -11.1557  -20.0175 C   0  0  0  0  0  0  0  0  0  0  0  0
   24.6895  -12.5877  -20.0362 N   0  0  0  0  0  0  0  0  0  0  0  0
   21.9606   -7.2800  -16.6842 C   0  0  0  0  0  0  0  0  0  0  0  0
   20.7621   -6.8139  -16.7245 O   0  0  0  0  0  0  0  0  0  0  0  0
   22.8403   -6.5740  -15.8505 N   0  0  0  0  0  0  0  0  0  0  0  0
   22.3549   -5.4855  -14.9939 C   0  0  0  0  0  0  0  0  0  0  0  0
   22.1486   -5.9502  -13.6094 C   0  0  0  0  0  0  0  0  0  0  0  0
   21.9350   -5.0751  -12.5708 O   0  0  0  0  0  0  0  0  0  0  0  0
   22.1712   -7.1737  -13.3906 O   0  0  0  0  0  0  0  0  0  0  0  0
  1  2  1  0
  2  3  2  0
  4  2  1  0
  4  5  1  0
  6  7  1  1
  6  5  1  0
  6  8  1  0
  8  9  2  0
 10  8  1  0
 10 11  1  0
 11 17  1  0
 12 13  1  0
 11 12  1  6
 14 13  1  0
 15 14  1  0
 16 15  1  0
 17 18  2  0
 19 17  1  0
 19 20  1  0
 21 20  1  0
 21 22  1  0
 23 21  2  0
M  END
$$$$
