QKG.pdb
     RDKit          3D

 23 22  0  0  1  0  0  0  0  0999 V2000
   27.0344  -20.3894   -6.7931 N   0  0  0  0  0  0  0  0  0  0  0  0
   26.6809  -19.8589   -8.0856 C   0  0  0  0  0  0  0  0  0  0  0  0
   26.0081  -18.8079   -8.1029 O   0  0  0  0  0  0  0  0  0  0  0  0
   27.0991  -20.5380   -9.3098 C   0  0  0  0  0  0  0  0  0  0  0  0
   26.1324  -20.5529  -10.4253 C   0  0  0  0  0  0  0  0  0  0  0  0
   26.5345  -21.1820  -11.6920 C   0  0  2  0  0  0  0  0  0  0  0  0
   27.9260  -20.8950  -12.0507 N   0  0  0  0  0  0  0  0  0  0  0  0
   25.6789  -21.0958  -12.8732 C   0  0  0  0  0  0  0  0  0  0  0  0
   25.9140  -20.2313  -13.7933 O   0  0  0  0  0  0  0  0  0  0  0  0
   24.5542  -21.9393  -13.1074 N   0  0  0  0  0  0  0  0  0  0  0  0
   23.6607  -21.8334  -14.2596 C   0  0  1  0  0  0  0  0  0  0  0  0
   23.5114  -23.1638  -14.9002 C   0  0  0  0  0  0  0  0  0  0  0  0
   24.7381  -23.7763  -15.4901 C   0  0  0  0  0  0  0  0  0  0  0  0
   24.3915  -25.0854  -16.2120 C   0  0  0  0  0  0  0  0  0  0  0  0
   25.5457  -25.6978  -16.9210 C   0  0  0  0  0  0  0  0  0  0  0  0
   25.2322  -26.9498  -17.5641 N   0  0  0  0  0  0  0  0  0  0  0  0
   22.4135  -21.1530  -13.8517 C   0  0  0  0  0  0  0  0  0  0  0  0
   22.0389  -21.2362  -12.6236 O   0  0  0  0  0  0  0  0  0  0  0  0
   21.5663  -20.3988  -14.6769 N   0  0  0  0  0  0  0  0  0  0  0  0
   20.3464  -19.7833  -14.1412 C   0  0  0  0  0  0  0  0  0  0  0  0
   19.5835  -19.1022  -15.2041 C   0  0  0  0  0  0  0  0  0  0  0  0
   18.3658  -18.5114  -14.9633 O   0  0  0  0  0  0  0  0  0  0  0  0
   20.0698  -19.0698  -16.3478 O   0  0  0  0  0  0  0  0  0  0  0  0
  1  2  1  0
  2  3  2  0
  4  2  1  0
  4  5  1  0
  6  7  1  6
  6  5  1  0
  6  8  1  0
  8  9  2  0
 10  8  1  0
 10 11  1  0
 11 17  1  0
 12 13  1  0
 11 12  1  1
 14 13  1  0
 15 14  1  0
 16 15  1  0
 17 18  2  0
 19 17  1  0
 19 20  1  0
 21 20  1  0
 21 22  1  0
 23 21  2  0
M  END
$$$$
