QKG.pdb
     RDKit          3D

 23 22  0  0  1  0  0  0  0  0999 V2000
   18.5279  -15.6295  -14.4683 N   0  0  0  0  0  0  0  0  0  0  0  0
   19.2987  -14.5620  -15.0541 C   0  0  0  0  0  0  0  0  0  0  0  0
   19.2286  -13.4438  -14.5044 O   0  0  0  0  0  0  0  0  0  0  0  0
   20.1178  -14.7983  -16.2407 C   0  0  0  0  0  0  0  0  0  0  0  0
   20.0853  -16.1597  -16.8105 C   0  0  0  0  0  0  0  0  0  0  0  0
   21.3624  -16.8256  -17.1063 C   0  0  2  0  0  0  0  0  0  0  0  0
   21.9794  -16.3435  -18.3450 N   0  0  0  0  0  0  0  0  0  0  0  0
   21.4870  -18.2782  -17.0106 C   0  0  0  0  0  0  0  0  0  0  0  0
   21.0597  -19.0380  -17.9535 O   0  0  0  0  0  0  0  0  0  0  0  0
   22.0817  -18.9573  -15.9076 N   0  0  0  0  0  0  0  0  0  0  0  0
   22.1262  -20.4101  -15.7514 C   0  0  1  0  0  0  0  0  0  0  0  0
   23.5335  -20.8768  -15.8153 C   0  0  0  0  0  0  0  0  0  0  0  0
   23.7611  -22.3519  -15.8306 C   0  0  0  0  0  0  0  0  0  0  0  0
   25.2631  -22.6646  -15.7981 C   0  0  0  0  0  0  0  0  0  0  0  0
   25.5738  -24.1098  -15.9561 C   0  0  0  0  0  0  0  0  0  0  0  0
   26.9824  -24.4102  -15.8860 N   0  0  0  0  0  0  0  0  0  0  0  0
   21.3556  -20.7976  -14.5509 C   0  0  0  0  0  0  0  0  0  0  0  0
   21.7234  -20.3378  -13.4070 O   0  0  0  0  0  0  0  0  0  0  0  0
   20.2298  -21.6336  -14.5162 N   0  0  0  0  0  0  0  0  0  0  0  0
   19.6219  -22.0246  -13.2388 C   0  0  0  0  0  0  0  0  0  0  0  0
   19.5513  -23.4923  -13.1107 C   0  0  0  0  0  0  0  0  0  0  0  0
   19.0110  -24.1025  -12.0036 O   0  0  0  0  0  0  0  0  0  0  0  0
   19.9983  -24.1856  -14.0408 O   0  0  0  0  0  0  0  0  0  0  0  0
  1  2  1  0
  2  3  2  0
  4  2  1  0
  4  5  1  0
  6  7  1  6
  6  5  1  0
  6  8  1  0
  8  9  2  0
 10  8  1  0
 10 11  1  0
 11 17  1  0
 12 13  1  0
 11 12  1  1
 14 13  1  0
 15 14  1  0
 16 15  1  0
 17 18  2  0
 19 17  1  0
 19 20  1  0
 21 20  1  0
 21 22  1  0
 23 21  2  0
M  END
$$$$
