QKG.pdb
     RDKit          3D

 23 22  0  0  1  0  0  0  0  0999 V2000
   21.5915  -10.7561    6.3052 N   0  0  0  0  0  0  0  0  0  0  0  0
   20.5178  -11.6197    5.8826 C   0  0  0  0  0  0  0  0  0  0  0  0
   20.7556  -12.3999    4.9380 O   0  0  0  0  0  0  0  0  0  0  0  0
   19.2152  -11.5669    6.5422 C   0  0  0  0  0  0  0  0  0  0  0  0
   18.6206  -12.8570    6.9437 C   0  0  0  0  0  0  0  0  0  0  0  0
   17.4742  -13.3681    6.1778 C   0  0  2  0  0  0  0  0  0  0  0  0
   16.2786  -12.5331    6.3220 N   0  0  0  0  0  0  0  0  0  0  0  0
   17.1129  -14.7828    6.2290 C   0  0  0  0  0  0  0  0  0  0  0  0
   16.2378  -15.2078    7.0673 O   0  0  0  0  0  0  0  0  0  0  0  0
   17.6707  -15.7804    5.3774 N   0  0  0  0  0  0  0  0  0  0  0  0
   17.4950  -17.2205    5.5573 C   0  0  1  0  0  0  0  0  0  0  0  0
   17.0713  -17.8362    4.2752 C   0  0  0  0  0  0  0  0  0  0  0  0
   16.5951  -19.2500    4.3241 C   0  0  0  0  0  0  0  0  0  0  0  0
   16.1239  -19.7069    2.9369 C   0  0  0  0  0  0  0  0  0  0  0  0
   15.6386  -21.1117    2.9060 C   0  0  0  0  0  0  0  0  0  0  0  0
   15.2288  -21.5541    1.5962 N   0  0  0  0  0  0  0  0  0  0  0  0
   18.7034  -17.7858    6.1940 C   0  0  0  0  0  0  0  0  0  0  0  0
   19.8567  -17.3583    5.8166 O   0  0  0  0  0  0  0  0  0  0  0  0
   18.7368  -18.7641    7.1987 N   0  0  0  0  0  0  0  0  0  0  0  0
   20.0111  -19.3342    7.6518 C   0  0  0  0  0  0  0  0  0  0  0  0
   20.5125  -18.6317    8.8479 C   0  0  0  0  0  0  0  0  0  0  0  0
   21.6274  -19.0580    9.5300 O   0  0  0  0  0  0  0  0  0  0  0  0
   19.8973  -17.6247    9.2390 O   0  0  0  0  0  0  0  0  0  0  0  0
  1  2  1  0
  2  3  2  0
  4  2  1  0
  4  5  1  0
  6  7  1  1
  6  5  1  0
  6  8  1  0
  8  9  2  0
 10  8  1  0
 10 11  1  0
 11 17  1  0
 12 13  1  0
 11 12  1  6
 14 13  1  0
 15 14  1  0
 16 15  1  0
 17 18  2  0
 19 17  1  0
 19 20  1  0
 21 20  1  0
 21 22  1  0
 23 21  2  0
M  END
$$$$
