QKG.pdb
     RDKit          3D

 23 22  0  0  1  0  0  0  0  0999 V2000
   18.6228  -21.3144  -14.1964 N   0  0  0  0  0  0  0  0  0  0  0  0
   18.6383  -22.3106  -13.1550 C   0  0  0  0  0  0  0  0  0  0  0  0
   17.6501  -23.0692  -13.0809 O   0  0  0  0  0  0  0  0  0  0  0  0
   19.7691  -22.4098  -12.2352 C   0  0  0  0  0  0  0  0  0  0  0  0
   20.8707  -21.4465  -12.4296 C   0  0  0  0  0  0  0  0  0  0  0  0
   21.6673  -21.5334  -13.6625 C   0  0  2  0  0  0  0  0  0  0  0  0
   22.2401  -22.8655  -13.8745 N   0  0  0  0  0  0  0  0  0  0  0  0
   22.6483  -20.5021  -13.9919 C   0  0  0  0  0  0  0  0  0  0  0  0
   22.9560  -19.5916  -13.1402 O   0  0  0  0  0  0  0  0  0  0  0  0
   23.3349  -20.4225  -15.2385 N   0  0  0  0  0  0  0  0  0  0  0  0
   24.2915  -19.3765  -15.5958 C   0  0  1  0  0  0  0  0  0  0  0  0
   25.3910  -19.9598  -16.4042 C   0  0  0  0  0  0  0  0  0  0  0  0
   26.4181  -20.7624  -15.6771 C   0  0  0  0  0  0  0  0  0  0  0  0
   27.4404  -21.3460  -16.6617 C   0  0  0  0  0  0  0  0  0  0  0  0
   28.4770  -22.1909  -16.0123 C   0  0  0  0  0  0  0  0  0  0  0  0
   29.4018  -22.7899  -16.9424 N   0  0  0  0  0  0  0  0  0  0  0  0
   23.5680  -18.2336  -16.1918 C   0  0  0  0  0  0  0  0  0  0  0  0
   24.2413  -17.1994  -16.5555 O   0  0  0  0  0  0  0  0  0  0  0  0
   22.1863  -18.1469  -16.4172 N   0  0  0  0  0  0  0  0  0  0  0  0
   21.5915  -16.9323  -16.9874 C   0  0  0  0  0  0  0  0  0  0  0  0
   21.2859  -17.1115  -18.4192 C   0  0  0  0  0  0  0  0  0  0  0  0
   20.2983  -16.3923  -19.0495 O   0  0  0  0  0  0  0  0  0  0  0  0
   21.9505  -17.9423  -19.0624 O   0  0  0  0  0  0  0  0  0  0  0  0
  1  2  1  0
  2  3  2  0
  4  2  1  0
  4  5  1  0
  6  7  1  1
  6  5  1  0
  6  8  1  0
  8  9  2  0
 10  8  1  0
 10 11  1  0
 11 17  1  0
 12 13  1  0
 11 12  1  6
 14 13  1  0
 15 14  1  0
 16 15  1  0
 17 18  2  0
 19 17  1  0
 19 20  1  0
 21 20  1  0
 21 22  1  0
 23 21  2  0
M  END
$$$$
