YDS.pdb
     RDKit          3D

 27 27  0  0  1  0  0  0  0  0999 V2000
   17.4619  -14.9969  -12.7812 O   0  0  0  0  0  0  0  0  0  0  0  0
   17.0777  -13.7209  -12.3686 C   0  0  0  0  0  0  0  0  0  0  0  0
   16.1162  -13.0122  -13.0585 C   0  0  0  0  0  0  0  0  0  0  0  0
   15.7213  -11.7487  -12.6679 C   0  0  0  0  0  0  0  0  0  0  0  0
   16.2756  -11.1325  -11.5604 C   0  0  0  0  0  0  0  0  0  0  0  0
   15.8276   -9.7736  -11.1696 C   0  0  0  0  0  0  0  0  0  0  0  0
   14.8092   -9.8488  -10.0169 C   0  0  2  0  0  0  0  0  0  0  0  0
   13.6581  -10.6249  -10.4835 N   0  0  0  0  0  0  0  0  0  0  0  0
   14.3718   -8.4437   -9.7988 C   0  0  0  0  0  0  0  0  0  0  0  0
   13.3753   -8.0276  -10.4353 O   0  0  0  0  0  0  0  0  0  0  0  0
   17.2360  -11.8417  -10.8723 C   0  0  0  0  0  0  0  0  0  0  0  0
   17.6346  -13.1109  -11.2620 C   0  0  0  0  0  0  0  0  0  0  0  0
   15.0855   -7.6430   -8.8940 N   0  0  0  0  0  0  0  0  0  0  0  0
   14.6883   -6.2408   -8.7185 C   0  0  1  0  0  0  0  0  0  0  0  0
   14.5388   -5.9491   -7.2487 C   0  0  0  0  0  0  0  0  0  0  0  0
   14.0998   -4.5770   -6.9767 C   0  0  0  0  0  0  0  0  0  0  0  0
   13.8507   -3.7715   -7.9402 O   0  0  0  0  0  0  0  0  0  0  0  0
   15.7116   -5.4307   -9.4058 C   0  0  0  0  0  0  0  0  0  0  0  0
   16.9167   -5.4210   -8.9481 O   0  0  0  0  0  0  0  0  0  0  0  0
   13.9404   -4.1136   -5.6884 O   0  0  0  0  0  0  0  0  0  0  0  0
   15.1424   -4.2089  -13.0430 O   0  0  0  0  0  0  0  0  0  0  0  0
   16.4857   -4.1540  -12.6332 C   0  0  0  0  0  0  0  0  0  0  0  0
   16.4738   -3.8440  -11.1499 C   0  0  2  0  0  0  0  0  0  0  0  0
   15.4075   -4.6636  -10.5579 N   0  0  0  0  0  0  0  0  0  0  0  0
   16.2282   -2.3965  -11.0064 C   0  0  0  0  0  0  0  0  0  0  0  0
   15.1022   -1.9080  -10.3824 O   0  0  0  0  0  0  0  0  0  0  0  0
   17.0455   -1.5550  -11.4522 O   0  0  0  0  0  0  0  0  0  0  0  0
  2  3  2  0
  2  1  1  0
  4  3  1  0
  5  4  2  0
  6  5  1  0
  7  6  1  0
  7  8  1  6
  9  7  1  0
  9 10  2  0
 11  5  1  0
 11 12  2  0
 12  2  1  0
 13  9  1  0
 14 13  1  0
 14 15  1  1
 16 15  1  0
 16 17  2  0
 18 14  1  0
 19 18  2  0
 20 16  1  0
 22 21  1  0
 23 22  1  6
 23 24  1  0
 24 18  1  0
 25 23  1  0
 26 25  1  0
 27 25  2  0
M  END
$$$$
