YDS.pdb
     RDKit          3D

 27 27  0  0  1  0  0  0  0  0999 V2000
   29.7604  -12.4300  -17.1501 O   0  0  0  0  0  0  0  0  0  0  0  0
   28.5503  -11.7419  -17.0613 C   0  0  0  0  0  0  0  0  0  0  0  0
   28.1984  -11.0721  -15.9078 C   0  0  0  0  0  0  0  0  0  0  0  0
   27.0063  -10.3853  -15.7985 C   0  0  0  0  0  0  0  0  0  0  0  0
   26.1052  -10.3376  -16.8469 C   0  0  0  0  0  0  0  0  0  0  0  0
   24.8331   -9.5903  -16.6943 C   0  0  0  0  0  0  0  0  0  0  0  0
   23.7856  -10.4468  -15.9590 C   0  0  2  0  0  0  0  0  0  0  0  0
   23.6124  -11.6907  -16.7125 N   0  0  0  0  0  0  0  0  0  0  0  0
   22.5225   -9.6656  -16.0443 C   0  0  0  0  0  0  0  0  0  0  0  0
   21.6226  -10.0760  -16.8144 O   0  0  0  0  0  0  0  0  0  0  0  0
   26.4580  -11.0072  -17.9985 C   0  0  0  0  0  0  0  0  0  0  0  0
   27.6546  -11.6978  -18.1114 C   0  0  0  0  0  0  0  0  0  0  0  0
   22.3863   -8.5074  -15.2637 N   0  0  0  0  0  0  0  0  0  0  0  0
   21.0969   -7.8060  -15.2506 C   0  0  1  0  0  0  0  0  0  0  0  0
   20.0240   -8.7516  -14.7791 C   0  0  0  0  0  0  0  0  0  0  0  0
   18.7006   -8.1258  -14.6994 C   0  0  0  0  0  0  0  0  0  0  0  0
   18.1710   -7.8686  -13.5625 O   0  0  0  0  0  0  0  0  0  0  0  0
   21.2821   -6.6132  -14.4029 C   0  0  0  0  0  0  0  0  0  0  0  0
   22.3126   -6.5449  -13.6313 O   0  0  0  0  0  0  0  0  0  0  0  0
   17.9906   -7.7950  -15.8336 O   0  0  0  0  0  0  0  0  0  0  0  0
   22.4380   -2.6801  -15.1605 O   0  0  0  0  0  0  0  0  0  0  0  0
   21.8812   -3.9541  -15.3654 C   0  0  0  0  0  0  0  0  0  0  0  0
   20.8785   -4.1731  -14.2504 C   0  0  2  0  0  0  0  0  0  0  0  0
   20.3592   -5.5378  -14.4143 N   0  0  0  0  0  0  0  0  0  0  0  0
   19.8324   -3.1428  -14.3928 C   0  0  0  0  0  0  0  0  0  0  0  0
   19.8563   -1.9759  -13.6623 O   0  0  0  0  0  0  0  0  0  0  0  0
   18.8775   -3.2973  -15.1923 O   0  0  0  0  0  0  0  0  0  0  0  0
  2  3  2  0
  2  1  1  0
  4  3  1  0
  5  4  2  0
  6  5  1  0
  7  6  1  0
  7  8  1  6
  9  7  1  0
  9 10  2  0
 11  5  1  0
 11 12  2  0
 12  2  1  0
 13  9  1  0
 14 13  1  0
 14 15  1  1
 16 15  1  0
 16 17  2  0
 18 14  1  0
 19 18  2  0
 20 16  1  0
 22 21  1  0
 23 22  1  6
 23 24  1  0
 24 18  1  0
 25 23  1  0
 26 25  1  0
 27 25  2  0
M  END
$$$$
