YDS.pdb
     RDKit          3D

 27 27  0  0  1  0  0  0  0  0999 V2000
   21.6692  -15.9915  -19.1184 O   0  0  0  0  0  0  0  0  0  0  0  0
   21.3623  -14.7193  -18.6357 C   0  0  0  0  0  0  0  0  0  0  0  0
   21.1121  -13.6741  -19.5004 C   0  0  0  0  0  0  0  0  0  0  0  0
   20.8068  -12.4077  -19.0443 C   0  0  0  0  0  0  0  0  0  0  0  0
   20.7378  -12.1280  -17.6913 C   0  0  0  0  0  0  0  0  0  0  0  0
   20.4073  -10.7553  -17.2367 C   0  0  0  0  0  0  0  0  0  0  0  0
   18.9021  -10.6312  -16.9360 C   0  0  2  0  0  0  0  0  0  0  0  0
   18.1758  -10.8039  -18.1960 N   0  0  0  0  0  0  0  0  0  0  0  0
   18.7171   -9.2289  -16.4749 C   0  0  0  0  0  0  0  0  0  0  0  0
   18.5640   -8.3357  -17.3409 O   0  0  0  0  0  0  0  0  0  0  0  0
   20.9879  -13.1730  -16.8287 C   0  0  0  0  0  0  0  0  0  0  0  0
   21.2947  -14.4460  -17.2837 C   0  0  0  0  0  0  0  0  0  0  0  0
   18.7196   -8.9610  -15.0975 N   0  0  0  0  0  0  0  0  0  0  0  0
   18.4490   -7.5932  -14.6384 C   0  0  1  0  0  0  0  0  0  0  0  0
   17.3657   -7.6274  -13.5929 C   0  0  0  0  0  0  0  0  0  0  0  0
   16.0650   -8.0432  -14.1264 C   0  0  0  0  0  0  0  0  0  0  0  0
   15.5176   -7.3930  -15.0838 O   0  0  0  0  0  0  0  0  0  0  0  0
   19.7383   -7.0498  -14.1712 C   0  0  0  0  0  0  0  0  0  0  0  0
   20.6878   -7.8646  -13.8608 O   0  0  0  0  0  0  0  0  0  0  0  0
   15.3958   -9.1375  -13.6218 O   0  0  0  0  0  0  0  0  0  0  0  0
   22.0163   -5.0082  -15.8542 O   0  0  0  0  0  0  0  0  0  0  0  0
   22.2775   -5.7116  -14.6659 C   0  0  0  0  0  0  0  0  0  0  0  0
   21.2944   -5.1979  -13.6334 C   0  0  2  0  0  0  0  0  0  0  0  0
   19.9637   -5.6554  -14.0561 N   0  0  0  0  0  0  0  0  0  0  0  0
   21.4121   -3.7277  -13.6092 C   0  0  0  0  0  0  0  0  0  0  0  0
   22.4952   -3.0938  -13.0428 O   0  0  0  0  0  0  0  0  0  0  0  0
   20.5206   -2.9996  -14.1091 O   0  0  0  0  0  0  0  0  0  0  0  0
  2  3  2  0
  2  1  1  0
  4  3  1  0
  5  4  2  0
  6  5  1  0
  7  6  1  0
  7  8  1  6
  9  7  1  0
  9 10  2  0
 11  5  1  0
 11 12  2  0
 12  2  1  0
 13  9  1  0
 14 13  1  0
 14 15  1  1
 16 15  1  0
 16 17  2  0
 18 14  1  0
 19 18  2  0
 20 16  1  0
 22 21  1  0
 23 22  1  6
 23 24  1  0
 24 18  1  0
 25 23  1  0
 26 25  1  0
 27 25  2  0
M  END
$$$$
