YDS.pdb
     RDKit          3D

 27 27  0  0  1  0  0  0  0  0999 V2000
   24.1961  -20.4717   -8.3448 O   0  0  0  0  0  0  0  0  0  0  0  0
   24.6660  -20.6048   -9.6515 C   0  0  0  0  0  0  0  0  0  0  0  0
   23.8475  -20.3401  -10.7298 C   0  0  0  0  0  0  0  0  0  0  0  0
   24.2918  -20.4655  -12.0305 C   0  0  0  0  0  0  0  0  0  0  0  0
   25.5857  -20.8649  -12.3128 C   0  0  0  0  0  0  0  0  0  0  0  0
   26.0293  -20.9895  -13.7227 C   0  0  0  0  0  0  0  0  0  0  0  0
   25.2234  -22.0815  -14.4505 C   0  0  2  0  0  0  0  0  0  0  0  0
   26.1729  -22.9536  -15.1452 N   0  0  0  0  0  0  0  0  0  0  0  0
   24.4221  -21.3521  -15.4698 C   0  0  0  0  0  0  0  0  0  0  0  0
   24.9906  -21.0008  -16.5303 O   0  0  0  0  0  0  0  0  0  0  0  0
   26.4022  -21.1291  -11.2347 C   0  0  0  0  0  0  0  0  0  0  0  0
   25.9589  -21.0039   -9.9273 C   0  0  0  0  0  0  0  0  0  0  0  0
   23.0690  -21.0880  -15.2082 N   0  0  0  0  0  0  0  0  0  0  0  0
   22.2782  -20.3659  -16.2122 C   0  0  1  0  0  0  0  0  0  0  0  0
   21.6168  -21.3601  -17.1298 C   0  0  0  0  0  0  0  0  0  0  0  0
   20.7634  -20.7294  -18.1413 C   0  0  0  0  0  0  0  0  0  0  0  0
   19.5586  -21.1263  -18.3140 O   0  0  0  0  0  0  0  0  0  0  0  0
   21.3446  -19.5037  -15.4632 C   0  0  0  0  0  0  0  0  0  0  0  0
   20.8310  -19.9400  -14.3643 O   0  0  0  0  0  0  0  0  0  0  0  0
   21.2241  -19.6976  -18.9307 O   0  0  0  0  0  0  0  0  0  0  0  0
   19.4183  -15.1823  -14.7300 O   0  0  0  0  0  0  0  0  0  0  0  0
   20.2826  -15.9570  -15.5224 C   0  0  0  0  0  0  0  0  0  0  0  0
   20.0969  -17.3963  -15.0861 C   0  0  2  0  0  0  0  0  0  0  0  0
   20.9977  -18.2068  -15.9171 N   0  0  0  0  0  0  0  0  0  0  0  0
   18.6753  -17.7353  -15.2863 C   0  0  0  0  0  0  0  0  0  0  0  0
   18.1045  -17.7676  -16.5389 O   0  0  0  0  0  0  0  0  0  0  0  0
   17.9325  -18.0085  -14.3123 O   0  0  0  0  0  0  0  0  0  0  0  0
  2  3  2  0
  2  1  1  0
  4  3  1  0
  5  4  2  0
  6  5  1  0
  7  6  1  0
  7  8  1  6
  9  7  1  0
  9 10  2  0
 11  5  1  0
 11 12  2  0
 12  2  1  0
 13  9  1  0
 14 13  1  0
 14 15  1  1
 16 15  1  0
 16 17  2  0
 18 14  1  0
 19 18  2  0
 20 16  1  0
 22 21  1  0
 23 22  1  6
 23 24  1  0
 24 18  1  0
 25 23  1  0
 26 25  1  0
 27 25  2  0
M  END
$$$$
