YDS.pdb
     RDKit          3D

 27 27  0  0  1  0  0  0  0  0999 V2000
   16.1631  -15.6636  -15.2342 O   0  0  0  0  0  0  0  0  0  0  0  0
   17.0336  -14.6116  -15.5194 C   0  0  0  0  0  0  0  0  0  0  0  0
   18.3981  -14.8104  -15.5558 C   0  0  0  0  0  0  0  0  0  0  0  0
   19.2772  -13.7839  -15.8357 C   0  0  0  0  0  0  0  0  0  0  0  0
   18.8267  -12.5017  -16.0937 C   0  0  0  0  0  0  0  0  0  0  0  0
   19.8000  -11.4225  -16.3905 C   0  0  0  0  0  0  0  0  0  0  0  0
   19.7968  -11.0874  -17.8936 C   0  0  2  0  0  0  0  0  0  0  0  0
   20.4144  -12.2084  -18.6056 N   0  0  0  0  0  0  0  0  0  0  0  0
   20.6845   -9.9008  -18.0242 C   0  0  0  0  0  0  0  0  0  0  0  0
   21.6007   -9.9373  -18.8790 O   0  0  0  0  0  0  0  0  0  0  0  0
   17.4634  -12.3046  -16.0569 C   0  0  0  0  0  0  0  0  0  0  0  0
   16.5780  -13.3336  -15.7762 C   0  0  0  0  0  0  0  0  0  0  0  0
   20.4634   -8.7925  -17.1925 N   0  0  0  0  0  0  0  0  0  0  0  0
   21.2829   -7.5889  -17.3784 C   0  0  1  0  0  0  0  0  0  0  0  0
   21.1552   -7.1186  -18.8033 C   0  0  0  0  0  0  0  0  0  0  0  0
   21.8647   -5.8615  -19.0595 C   0  0  0  0  0  0  0  0  0  0  0  0
   23.0686   -5.7009  -18.6549 O   0  0  0  0  0  0  0  0  0  0  0  0
   20.8282   -6.6170  -16.3663 C   0  0  0  0  0  0  0  0  0  0  0  0
   19.5813   -6.2930  -16.3223 O   0  0  0  0  0  0  0  0  0  0  0  0
   21.2663   -4.8221  -19.7390 O   0  0  0  0  0  0  0  0  0  0  0  0
   21.1569   -6.6896  -12.7974 O   0  0  0  0  0  0  0  0  0  0  0  0
   21.7331   -5.4482  -13.1167 C   0  0  0  0  0  0  0  0  0  0  0  0
   21.1910   -5.0559  -14.4764 C   0  0  2  0  0  0  0  0  0  0  0  0
   21.7243   -6.0303  -15.4383 N   0  0  0  0  0  0  0  0  0  0  0  0
   21.6434   -3.6785  -14.7482 C   0  0  0  0  0  0  0  0  0  0  0  0
   21.1468   -2.5990  -14.0526 O   0  0  0  0  0  0  0  0  0  0  0  0
   22.5043   -3.4431  -15.6304 O   0  0  0  0  0  0  0  0  0  0  0  0
  2  3  2  0
  2  1  1  0
  4  3  1  0
  5  4  2  0
  6  5  1  0
  7  6  1  0
  7  8  1  6
  9  7  1  0
  9 10  2  0
 11  5  1  0
 11 12  2  0
 12  2  1  0
 13  9  1  0
 14 13  1  0
 14 15  1  6
 16 15  1  0
 16 17  2  0
 18 14  1  0
 19 18  2  0
 20 16  1  0
 22 21  1  0
 23 22  1  1
 23 24  1  0
 24 18  1  0
 25 23  1  0
 26 25  1  0
 27 25  2  0
M  END
$$$$
