YDS.pdb
     RDKit          3D

 27 27  0  0  1  0  0  0  0  0999 V2000
   18.6199  -24.7298   -8.2603 O   0  0  0  0  0  0  0  0  0  0  0  0
   19.1536  -24.0426   -9.3506 C   0  0  0  0  0  0  0  0  0  0  0  0
   19.3908  -22.6853   -9.2861 C   0  0  0  0  0  0  0  0  0  0  0  0
   19.9180  -21.9859  -10.3528 C   0  0  0  0  0  0  0  0  0  0  0  0
   20.2338  -22.6184  -11.5417 C   0  0  0  0  0  0  0  0  0  0  0  0
   20.7985  -21.8354  -12.6678 C   0  0  0  0  0  0  0  0  0  0  0  0
   19.6916  -21.0391  -13.3836 C   0  0  2  0  0  0  0  0  0  0  0  0
   18.7286  -21.9981  -13.9292 N   0  0  0  0  0  0  0  0  0  0  0  0
   20.3771  -20.3637  -14.5181 C   0  0  0  0  0  0  0  0  0  0  0  0
   20.3602  -20.9243  -15.6391 O   0  0  0  0  0  0  0  0  0  0  0  0
   19.9962  -23.9743  -11.6047 C   0  0  0  0  0  0  0  0  0  0  0  0
   19.4670  -24.6795  -10.5351 C   0  0  0  0  0  0  0  0  0  0  0  0
   21.0111  -19.1323  -14.2925 N   0  0  0  0  0  0  0  0  0  0  0  0
   21.4945  -18.3598  -15.4433 C   0  0  1  0  0  0  0  0  0  0  0  0
   21.1190  -16.9129  -15.2610 C   0  0  0  0  0  0  0  0  0  0  0  0
   21.5849  -16.0559  -16.3553 C   0  0  0  0  0  0  0  0  0  0  0  0
   22.2364  -16.5540  -17.3384 O   0  0  0  0  0  0  0  0  0  0  0  0
   22.9450  -18.6127  -15.5329 C   0  0  0  0  0  0  0  0  0  0  0  0
   23.6617  -18.5439  -14.4636 O   0  0  0  0  0  0  0  0  0  0  0  0
   21.3382  -14.6998  -16.3634 O   0  0  0  0  0  0  0  0  0  0  0  0
   24.5985  -21.0473  -18.0481 O   0  0  0  0  0  0  0  0  0  0  0  0
   25.2603  -20.6255  -16.8823 C   0  0  0  0  0  0  0  0  0  0  0  0
   25.0289  -19.1321  -16.7690 C   0  0  2  0  0  0  0  0  0  0  0  0
   23.5732  -18.9319  -16.7624 N   0  0  0  0  0  0  0  0  0  0  0  0
   25.6877  -18.4972  -17.9261 C   0  0  0  0  0  0  0  0  0  0  0  0
   27.0540  -18.5292  -18.0932 O   0  0  0  0  0  0  0  0  0  0  0  0
   25.0180  -17.9016  -18.8046 O   0  0  0  0  0  0  0  0  0  0  0  0
  2  3  2  0
  2  1  1  0
  4  3  1  0
  5  4  2  0
  6  5  1  0
  7  6  1  0
  7  8  1  6
  9  7  1  0
  9 10  2  0
 11  5  1  0
 11 12  2  0
 12  2  1  0
 13  9  1  0
 14 13  1  0
 14 15  1  1
 16 15  1  0
 16 17  2  0
 18 14  1  0
 19 18  2  0
 20 16  1  0
 22 21  1  0
 23 22  1  6
 23 24  1  0
 24 18  1  0
 25 23  1  0
 26 25  1  0
 27 25  2  0
M  END
$$$$
