MDC.pdb
     RDKit          3D

 23 22  0  0  1  0  0  0  0  0999 V2000
    7.9300  -11.6548   20.6835 C   0  0  0  0  0  0  0  0  0  0  0  0
    7.2493  -12.5677   19.2762 S   0  0  0  0  0  0  0  0  0  0  0  0
    7.9054  -14.2702   19.2049 C   0  0  0  0  0  0  0  0  0  0  0  0
    8.0208  -14.7558   20.6625 C   0  0  0  0  0  0  0  0  0  0  0  0
    8.5474  -16.1529   20.5632 C   0  0  2  0  0  0  0  0  0  0  0  0
    7.5071  -17.0061   20.0419 N   0  0  0  0  0  0  0  0  0  0  0  0
    9.1196  -16.7209   21.7815 C   0  0  0  0  0  0  0  0  0  0  0  0
    8.4140  -17.5487   22.4174 O   0  0  0  0  0  0  0  0  0  0  0  0
   10.4115  -16.3781   22.2547 N   0  0  0  0  0  0  0  0  0  0  0  0
   10.8331  -16.9825   23.5290 C   0  0  1  0  0  0  0  0  0  0  0  0
   12.1425  -17.6345   23.3078 C   0  0  0  0  0  0  0  0  0  0  0  0
   12.8188  -18.1372   24.5332 C   0  0  0  0  0  0  0  0  0  0  0  0
   12.1583  -18.7704   25.3939 O   0  0  0  0  0  0  0  0  0  0  0  0
   10.7421  -15.9513   24.5589 C   0  0  0  0  0  0  0  0  0  0  0  0
   10.6893  -14.7302   24.1829 O   0  0  0  0  0  0  0  0  0  0  0  0
   14.1821  -17.9171   24.7470 O   0  0  0  0  0  0  0  0  0  0  0  0
   10.7025  -16.1668   25.9512 N   0  0  0  0  0  0  0  0  0  0  0  0
   10.2971  -15.1364   26.8534 C   0  0  1  0  0  0  0  0  0  0  0  0
    8.9430  -14.5267   26.5655 C   0  0  0  0  0  0  0  0  0  0  0  0
    8.7331  -13.1928   27.8154 S   0  0  0  0  0  0  0  0  0  0  0  0
   10.2994  -15.5822   28.2688 C   0  0  0  0  0  0  0  0  0  0  0  0
   10.0159  -16.7926   28.5086 O   0  0  0  0  0  0  0  0  0  0  0  0
   10.5937  -14.7371   29.3056 O   0  0  0  0  0  0  0  0  0  0  0  0
  2  1  1  0
  2  3  1  0
  4  5  1  0
  4  3  1  0
  5  6  1  1
  7  5  1  0
  7  8  2  0
  9  7  1  0
 10  9  1  0
 10 14  1  0
 10 11  1  6
 12 13  2  0
 12 11  1  0
 14 17  1  0
 15 14  2  0
 16 12  1  0
 17 18  1  0
 18 21  1  0
 19 20  1  0
 18 19  1  6
 21 22  2  0
 21 23  1  0
M  END
$$$$
