MDC.pdb
     RDKit          3D

 23 22  0  0  1  0  0  0  0  0999 V2000
    7.0928  -11.3071   24.6852 C   0  0  0  0  0  0  0  0  0  0  0  0
    6.6744  -12.3434   26.1094 S   0  0  0  0  0  0  0  0  0  0  0  0
    5.6457  -13.7696   25.6176 C   0  0  0  0  0  0  0  0  0  0  0  0
    6.3995  -14.4800   24.4770 C   0  0  0  0  0  0  0  0  0  0  0  0
    6.9374  -15.7336   25.0920 C   0  0  2  0  0  0  0  0  0  0  0  0
    7.2638  -15.4714   26.4728 N   0  0  0  0  0  0  0  0  0  0  0  0
    8.0621  -16.3645   24.4057 C   0  0  0  0  0  0  0  0  0  0  0  0
    7.9815  -17.6027   24.1864 O   0  0  0  0  0  0  0  0  0  0  0  0
    9.2095  -15.6430   23.9892 N   0  0  0  0  0  0  0  0  0  0  0  0
   10.4551  -16.4114   23.8316 C   0  0  1  0  0  0  0  0  0  0  0  0
   11.0989  -15.9741   22.5735 C   0  0  0  0  0  0  0  0  0  0  0  0
   12.3151  -16.7353   22.1822 C   0  0  0  0  0  0  0  0  0  0  0  0
   12.3914  -17.9625   22.4396 O   0  0  0  0  0  0  0  0  0  0  0  0
   11.2128  -16.2848   25.0735 C   0  0  0  0  0  0  0  0  0  0  0  0
   12.0512  -15.3241   25.1700 O   0  0  0  0  0  0  0  0  0  0  0  0
   13.3805  -16.1084   21.5307 O   0  0  0  0  0  0  0  0  0  0  0  0
   11.1114  -17.1262   26.1997 N   0  0  0  0  0  0  0  0  0  0  0  0
   11.3569  -16.6377   27.5192 C   0  0  1  0  0  0  0  0  0  0  0  0
   10.6061  -15.3772   27.8875 C   0  0  0  0  0  0  0  0  0  0  0  0
   11.2895  -14.8608   29.5160 S   0  0  0  0  0  0  0  0  0  0  0  0
   11.0767  -17.6517   28.5658 C   0  0  0  0  0  0  0  0  0  0  0  0
   10.2566  -18.5761   28.2899 O   0  0  0  0  0  0  0  0  0  0  0  0
   11.6687  -17.6176   29.8003 O   0  0  0  0  0  0  0  0  0  0  0  0
  2  1  1  0
  2  3  1  0
  4  5  1  0
  4  3  1  0
  5  6  1  1
  7  5  1  0
  7  8  2  0
  9  7  1  0
 10  9  1  0
 10 14  1  0
 10 11  1  6
 12 13  2  0
 12 11  1  0
 14 17  1  0
 15 14  2  0
 16 12  1  0
 17 18  1  0
 18 21  1  0
 19 20  1  0
 18 19  1  1
 21 22  2  0
 21 23  1  0
M  END
$$$$
