MDC.pdb
     RDKit          3D

 23 22  0  0  1  0  0  0  0  0999 V2000
    7.3895  -11.6573   26.7306 C   0  0  0  0  0  0  0  0  0  0  0  0
    5.9689  -11.6468   25.6084 S   0  0  0  0  0  0  0  0  0  0  0  0
    6.2105  -12.8021   24.2153 C   0  0  0  0  0  0  0  0  0  0  0  0
    7.2901  -13.8064   24.6621 C   0  0  0  0  0  0  0  0  0  0  0  0
    7.5471  -14.6576   23.4586 C   0  0  2  0  0  0  0  0  0  0  0  0
    6.3065  -15.2698   23.0484 N   0  0  0  0  0  0  0  0  0  0  0  0
    8.6018  -15.6607   23.5839 C   0  0  0  0  0  0  0  0  0  0  0  0
    8.2511  -16.8278   23.9038 O   0  0  0  0  0  0  0  0  0  0  0  0
    9.9708  -15.3667   23.3604 N   0  0  0  0  0  0  0  0  0  0  0  0
   10.9375  -16.4314   23.6744 C   0  0  1  0  0  0  0  0  0  0  0  0
   11.9918  -16.4040   22.6370 C   0  0  0  0  0  0  0  0  0  0  0  0
   12.9735  -17.5194   22.6968 C   0  0  0  0  0  0  0  0  0  0  0  0
   12.7190  -18.5369   23.3883 O   0  0  0  0  0  0  0  0  0  0  0  0
   11.3386  -16.2671   25.0689 C   0  0  0  0  0  0  0  0  0  0  0  0
   12.3379  -15.5102   25.3209 O   0  0  0  0  0  0  0  0  0  0  0  0
   14.1805  -17.4570   21.9954 O   0  0  0  0  0  0  0  0  0  0  0  0
   10.7246  -16.8655   26.1875 N   0  0  0  0  0  0  0  0  0  0  0  0
   11.2764  -16.7358   27.4986 C   0  0  1  0  0  0  0  0  0  0  0  0
   10.5184  -15.8120   28.4261 C   0  0  0  0  0  0  0  0  0  0  0  0
   10.2570  -14.2642   27.4661 S   0  0  0  0  0  0  0  0  0  0  0  0
   11.4278  -18.0416   28.1870 C   0  0  0  0  0  0  0  0  0  0  0  0
   11.0262  -19.0793   27.5829 O   0  0  0  0  0  0  0  0  0  0  0  0
   11.9791  -18.1553   29.4356 O   0  0  0  0  0  0  0  0  0  0  0  0
  2  1  1  0
  2  3  1  0
  4  5  1  0
  4  3  1  0
  5  6  1  1
  7  5  1  0
  7  8  2  0
  9  7  1  0
 10  9  1  0
 10 14  1  0
 10 11  1  6
 12 13  2  0
 12 11  1  0
 14 17  1  0
 15 14  2  0
 16 12  1  0
 17 18  1  0
 18 21  1  0
 19 20  1  0
 18 19  1  1
 21 22  2  0
 21 23  1  0
M  END
$$$$
