MDC.pdb
     RDKit          3D

 23 22  0  0  1  0  0  0  0  0999 V2000
    5.2225  -11.0080   25.7911 C   0  0  0  0  0  0  0  0  0  0  0  0
    6.5492  -12.2071   26.0731 S   0  0  0  0  0  0  0  0  0  0  0  0
    6.0051  -13.9070   25.6883 C   0  0  0  0  0  0  0  0  0  0  0  0
    7.2058  -14.8273   25.9805 C   0  0  0  0  0  0  0  0  0  0  0  0
    7.2696  -15.7609   24.8129 C   0  0  2  0  0  0  0  0  0  0  0  0
    6.1876  -16.7098   24.9164 N   0  0  0  0  0  0  0  0  0  0  0  0
    8.5408  -16.4479   24.5976 C   0  0  0  0  0  0  0  0  0  0  0  0
    8.6725  -17.5899   25.1132 O   0  0  0  0  0  0  0  0  0  0  0  0
    9.6006  -15.8825   23.8442 N   0  0  0  0  0  0  0  0  0  0  0  0
   10.8420  -16.6682   23.7527 C   0  0  1  0  0  0  0  0  0  0  0  0
   11.5321  -16.2778   22.5037 C   0  0  0  0  0  0  0  0  0  0  0  0
   12.6927  -17.1271   22.1249 C   0  0  0  0  0  0  0  0  0  0  0  0
   12.9491  -18.1629   22.7877 O   0  0  0  0  0  0  0  0  0  0  0  0
   11.5594  -16.5100   25.0146 C   0  0  0  0  0  0  0  0  0  0  0  0
   12.5016  -15.6470   25.0655 O   0  0  0  0  0  0  0  0  0  0  0  0
   13.5082  -16.7929   21.0405 O   0  0  0  0  0  0  0  0  0  0  0  0
   11.3141  -17.2216   26.2063 N   0  0  0  0  0  0  0  0  0  0  0  0
   12.0961  -17.0001   27.3808 C   0  0  1  0  0  0  0  0  0  0  0  0
   12.1259  -15.5698   27.8724 C   0  0  0  0  0  0  0  0  0  0  0  0
   10.4513  -15.2585   28.5686 S   0  0  0  0  0  0  0  0  0  0  0  0
   11.6782  -17.8588   28.5165 C   0  0  0  0  0  0  0  0  0  0  0  0
   12.2679  -17.7016   29.6259 O   0  0  0  0  0  0  0  0  0  0  0  0
   10.6906  -18.8008   28.4019 O   0  0  0  0  0  0  0  0  0  0  0  0
  2  1  1  0
  2  3  1  0
  4  5  1  0
  4  3  1  0
  5  6  1  1
  7  5  1  0
  7  8  2  0
  9  7  1  0
 10  9  1  0
 10 14  1  0
 10 11  1  6
 12 13  2  0
 12 11  1  0
 14 17  1  0
 15 14  2  0
 16 12  1  0
 17 18  1  0
 18 21  1  0
 19 20  1  0
 18 19  1  1
 21 22  2  0
 21 23  1  0
M  END
$$$$
