MDC.pdb
     RDKit          3D

 23 22  0  0  1  0  0  0  0  0999 V2000
    4.7982  -10.8166   26.0895 C   0  0  0  0  0  0  0  0  0  0  0  0
    6.1897  -11.9321   26.4006 S   0  0  0  0  0  0  0  0  0  0  0  0
    6.1435  -13.3820   25.2917 C   0  0  0  0  0  0  0  0  0  0  0  0
    7.3726  -14.2416   25.6442 C   0  0  0  0  0  0  0  0  0  0  0  0
    7.3174  -15.3999   24.6985 C   0  0  2  0  0  0  0  0  0  0  0  0
    6.1892  -16.2299   25.0449 N   0  0  0  0  0  0  0  0  0  0  0  0
    8.5326  -16.2023   24.5805 C   0  0  0  0  0  0  0  0  0  0  0  0
    8.4959  -17.3738   25.0428 O   0  0  0  0  0  0  0  0  0  0  0  0
    9.7186  -15.7143   23.9758 N   0  0  0  0  0  0  0  0  0  0  0  0
   10.8866  -16.6101   23.9889 C   0  0  1  0  0  0  0  0  0  0  0  0
   11.7214  -16.2805   22.8129 C   0  0  0  0  0  0  0  0  0  0  0  0
   12.6578  -17.3502   22.3764 C   0  0  0  0  0  0  0  0  0  0  0  0
   13.6419  -17.6490   23.0977 O   0  0  0  0  0  0  0  0  0  0  0  0
   11.4963  -16.5221   25.3129 C   0  0  0  0  0  0  0  0  0  0  0  0
   12.4421  -15.6786   25.4835 O   0  0  0  0  0  0  0  0  0  0  0  0
   12.4635  -18.0325   21.1725 O   0  0  0  0  0  0  0  0  0  0  0  0
   11.1412  -17.2831   26.4449 N   0  0  0  0  0  0  0  0  0  0  0  0
   11.7616  -17.0661   27.7131 C   0  0  1  0  0  0  0  0  0  0  0  0
   10.8954  -16.3734   28.7417 C   0  0  0  0  0  0  0  0  0  0  0  0
   10.4607  -14.7476   27.9979 S   0  0  0  0  0  0  0  0  0  0  0  0
   12.2708  -18.3196   28.3225 C   0  0  0  0  0  0  0  0  0  0  0  0
   12.0520  -19.4065   27.7110 O   0  0  0  0  0  0  0  0  0  0  0  0
   12.9583  -18.3353   29.5070 O   0  0  0  0  0  0  0  0  0  0  0  0
  2  1  1  0
  2  3  1  0
  4  5  1  0
  4  3  1  0
  5  6  1  1
  7  5  1  0
  7  8  2  0
  9  7  1  0
 10  9  1  0
 10 14  1  0
 10 11  1  6
 12 13  2  0
 12 11  1  0
 14 17  1  0
 15 14  2  0
 16 12  1  0
 17 18  1  0
 18 21  1  0
 19 20  1  0
 18 19  1  1
 21 22  2  0
 21 23  1  0
M  END
$$$$
