QKT.pdb
     RDKit          3D

 26 25  0  0  1  0  0  0  0  0999 V2000
   14.2188  -14.9284   19.8887 N   0  0  0  0  0  0  0  0  0  0  0  0
   13.5202  -14.1254   18.9083 C   0  0  0  0  0  0  0  0  0  0  0  0
   14.1913  -13.7317   17.9421 O   0  0  0  0  0  0  0  0  0  0  0  0
   12.0942  -13.8343   19.1263 C   0  0  0  0  0  0  0  0  0  0  0  0
   11.4726  -14.3955   20.3443 C   0  0  0  0  0  0  0  0  0  0  0  0
   10.0556  -14.8591   20.2304 C   0  0  2  0  0  0  0  0  0  0  0  0
    9.3855  -14.0239   19.2851 N   0  0  0  0  0  0  0  0  0  0  0  0
    9.3491  -15.2023   21.4544 C   0  0  0  0  0  0  0  0  0  0  0  0
    8.3610  -14.4569   21.7945 O   0  0  0  0  0  0  0  0  0  0  0  0
    9.6312  -16.2891   22.3466 N   0  0  0  0  0  0  0  0  0  0  0  0
    8.7611  -16.5034   23.4830 C   0  0  1  0  0  0  0  0  0  0  0  0
    8.6415  -17.9034   23.9617 C   0  0  0  0  0  0  0  0  0  0  0  0
    7.8743  -18.2301   25.1609 C   0  0  0  0  0  0  0  0  0  0  0  0
    7.7343  -19.6418   25.5998 C   0  0  0  0  0  0  0  0  0  0  0  0
    6.7704  -19.6965   26.8240 C   0  0  0  0  0  0  0  0  0  0  0  0
    6.4539  -21.0795   27.1266 N   0  0  0  0  0  0  0  0  0  0  0  0
    9.2260  -15.6093   24.6139 C   0  0  0  0  0  0  0  0  0  0  0  0
   10.4446  -15.4147   24.7520 O   0  0  0  0  0  0  0  0  0  0  0  0
    6.9002  -12.4497   25.4995 C   0  0  0  0  0  0  0  0  0  0  0  0
    7.1932  -13.2648   26.7553 C   0  0  1  0  0  0  0  0  0  0  0  0
    6.1172  -14.1957   26.8079 O   0  0  0  0  0  0  0  0  0  0  0  0
    8.4593  -14.0968   26.5304 C   0  0  2  0  0  0  0  0  0  0  0  0
    8.2924  -15.0383   25.4522 N   0  0  0  0  0  0  0  0  0  0  0  0
    8.7728  -14.8300   27.7457 C   0  0  0  0  0  0  0  0  0  0  0  0
    9.0651  -14.1767   28.9223 O   0  0  0  0  0  0  0  0  0  0  0  0
    8.7946  -16.0832   27.7612 O   0  0  0  0  0  0  0  0  0  0  0  0
  1  2  1  0
  2  3  2  0
  4  5  1  0
  4  2  1  0
  5  6  1  0
  6  7  1  1
  8  9  2  0
  8  6  1  0
 10  8  1  0
 11 10  1  0
 11 12  1  1
 12 13  1  0
 13 14  1  0
 14 15  1  0
 15 16  1  0
 17 11  1  0
 18 17  2  0
 20 19  1  6
 20 22  1  0
 20 21  1  0
 22 23  1  6
 23 17  1  0
 24 25  1  0
 24 22  1  0
 26 24  2  0
M  END
$$$$
