QKT.pdb
     RDKit          3D

 26 25  0  0  1  0  0  0  0  0999 V2000
    8.8427  -12.7816   16.5878 N   0  0  0  0  0  0  0  0  0  0  0  0
    7.9227  -13.8942   16.4897 C   0  0  0  0  0  0  0  0  0  0  0  0
    7.5573  -14.2053   15.3457 O   0  0  0  0  0  0  0  0  0  0  0  0
    7.4905  -14.5595   17.7291 C   0  0  0  0  0  0  0  0  0  0  0  0
    8.0409  -14.0385   18.9982 C   0  0  0  0  0  0  0  0  0  0  0  0
    8.5586  -15.0441   19.9762 C   0  0  2  0  0  0  0  0  0  0  0  0
    7.9567  -16.3057   19.6827 N   0  0  0  0  0  0  0  0  0  0  0  0
    8.6611  -14.6488   21.3721 C   0  0  0  0  0  0  0  0  0  0  0  0
    9.6998  -13.9804   21.7216 O   0  0  0  0  0  0  0  0  0  0  0  0
    7.7282  -14.9251   22.4257 N   0  0  0  0  0  0  0  0  0  0  0  0
    8.0722  -14.5472   23.7797 C   0  0  1  0  0  0  0  0  0  0  0  0
    7.1443  -13.6037   24.4522 C   0  0  0  0  0  0  0  0  0  0  0  0
    7.3097  -13.2546   25.8609 C   0  0  0  0  0  0  0  0  0  0  0  0
    6.3756  -12.3011   26.5115 C   0  0  0  0  0  0  0  0  0  0  0  0
    6.7706  -12.1524   28.0124 C   0  0  0  0  0  0  0  0  0  0  0  0
    5.8549  -11.2344   28.6629 N   0  0  0  0  0  0  0  0  0  0  0  0
    8.2124  -15.8095   24.6053 C   0  0  0  0  0  0  0  0  0  0  0  0
    7.2037  -16.5086   24.7941 O   0  0  0  0  0  0  0  0  0  0  0  0
   10.0209  -18.6745   23.8414 C   0  0  0  0  0  0  0  0  0  0  0  0
   10.7518  -18.2323   25.1053 C   0  0  1  0  0  0  0  0  0  0  0  0
   11.8183  -17.4291   24.6106 O   0  0  0  0  0  0  0  0  0  0  0  0
    9.8486  -17.2877   25.9038 C   0  0  2  0  0  0  0  0  0  0  0  0
    9.4458  -16.1477   25.1198 N   0  0  0  0  0  0  0  0  0  0  0  0
   10.5659  -16.8171   27.0772 C   0  0  0  0  0  0  0  0  0  0  0  0
   10.9129  -17.6744   28.0975 O   0  0  0  0  0  0  0  0  0  0  0  0
   10.8867  -15.6117   27.2027 O   0  0  0  0  0  0  0  0  0  0  0  0
  1  2  1  0
  2  3  2  0
  4  5  1  0
  4  2  1  0
  5  6  1  0
  6  7  1  1
  8  9  2  0
  8  6  1  0
 10  8  1  0
 11 10  1  0
 11 12  1  1
 12 13  1  0
 13 14  1  0
 14 15  1  0
 15 16  1  0
 17 11  1  0
 18 17  2  0
 20 19  1  6
 20 22  1  0
 20 21  1  0
 22 23  1  6
 23 17  1  0
 24 25  1  0
 24 22  1  0
 26 24  2  0
M  END
$$$$
