QKT.pdb
     RDKit          3D

 26 25  0  0  1  0  0  0  0  0999 V2000
    9.1310  -12.7956   16.4847 N   0  0  0  0  0  0  0  0  0  0  0  0
    8.1147  -13.8193   16.3707 C   0  0  0  0  0  0  0  0  0  0  0  0
    7.6940  -14.0505   15.2268 O   0  0  0  0  0  0  0  0  0  0  0  0
    7.6578  -14.4948   17.5957 C   0  0  0  0  0  0  0  0  0  0  0  0
    8.2901  -14.0817   18.8663 C   0  0  0  0  0  0  0  0  0  0  0  0
    8.7056  -15.1710   19.8025 C   0  0  2  0  0  0  0  0  0  0  0  0
    8.0167  -16.3664   19.4331 N   0  0  0  0  0  0  0  0  0  0  0  0
    8.8040  -14.8536   21.2184 C   0  0  0  0  0  0  0  0  0  0  0  0
    9.9535  -14.4974   21.6651 O   0  0  0  0  0  0  0  0  0  0  0  0
    7.7545  -14.8966   22.1949 N   0  0  0  0  0  0  0  0  0  0  0  0
    8.0507  -14.5038   23.5559 C   0  0  1  0  0  0  0  0  0  0  0  0
    7.1100  -13.5391   24.1788 C   0  0  0  0  0  0  0  0  0  0  0  0
    7.2653  -13.1214   25.5698 C   0  0  0  0  0  0  0  0  0  0  0  0
    6.2869  -12.1899   26.1864 C   0  0  0  0  0  0  0  0  0  0  0  0
    6.7421  -11.8718   27.6433 C   0  0  0  0  0  0  0  0  0  0  0  0
    5.8735  -10.8567   28.2086 N   0  0  0  0  0  0  0  0  0  0  0  0
    8.1423  -15.7557   24.4037 C   0  0  0  0  0  0  0  0  0  0  0  0
    7.1207  -16.4456   24.5530 O   0  0  0  0  0  0  0  0  0  0  0  0
    9.9275  -18.5927   23.6717 C   0  0  0  0  0  0  0  0  0  0  0  0
   10.6240  -18.1978   24.9702 C   0  0  1  0  0  0  0  0  0  0  0  0
   11.7257  -17.4096   24.5319 O   0  0  0  0  0  0  0  0  0  0  0  0
    9.7159  -17.2502   25.7596 C   0  0  2  0  0  0  0  0  0  0  0  0
    9.3473  -16.0951   24.9809 N   0  0  0  0  0  0  0  0  0  0  0  0
   10.4125  -16.8042   26.9549 C   0  0  0  0  0  0  0  0  0  0  0  0
   10.7505  -15.4816   27.1368 O   0  0  0  0  0  0  0  0  0  0  0  0
   10.7355  -17.6114   27.8580 O   0  0  0  0  0  0  0  0  0  0  0  0
  1  2  1  0
  2  3  2  0
  4  5  1  0
  4  2  1  0
  5  6  1  0
  6  7  1  1
  8  9  2  0
  8  6  1  0
 10  8  1  0
 11 10  1  0
 11 12  1  1
 12 13  1  0
 13 14  1  0
 14 15  1  0
 15 16  1  0
 17 11  1  0
 18 17  2  0
 20 19  1  6
 20 22  1  0
 20 21  1  0
 22 23  1  6
 23 17  1  0
 24 25  1  0
 24 22  1  0
 26 24  2  0
M  END
$$$$
