QKT.pdb
     RDKit          3D

 26 25  0  0  1  0  0  0  0  0999 V2000
    8.6878  -12.9138   15.9336 N   0  0  0  0  0  0  0  0  0  0  0  0
    8.1722  -14.0466   16.6718 C   0  0  0  0  0  0  0  0  0  0  0  0
    7.9116  -15.0618   16.0082 O   0  0  0  0  0  0  0  0  0  0  0  0
    7.9919  -13.9139   18.1263 C   0  0  0  0  0  0  0  0  0  0  0  0
    9.1541  -14.2397   18.9797 C   0  0  0  0  0  0  0  0  0  0  0  0
    8.9524  -15.2848   20.0298 C   0  0  2  0  0  0  0  0  0  0  0  0
    7.9034  -16.1543   19.6011 N   0  0  0  0  0  0  0  0  0  0  0  0
    8.9595  -14.8640   21.4220 C   0  0  0  0  0  0  0  0  0  0  0  0
   10.0521  -14.3748   21.8852 O   0  0  0  0  0  0  0  0  0  0  0  0
    7.8758  -14.9359   22.3585 N   0  0  0  0  0  0  0  0  0  0  0  0
    8.0852  -14.4542   23.7070 C   0  0  1  0  0  0  0  0  0  0  0  0
    7.1459  -13.4075   24.1820 C   0  0  0  0  0  0  0  0  0  0  0  0
    7.3283  -12.7588   25.4779 C   0  0  0  0  0  0  0  0  0  0  0  0
    6.2154  -12.7208   26.4604 C   0  0  0  0  0  0  0  0  0  0  0  0
    6.6334  -11.8194   27.6618 C   0  0  0  0  0  0  0  0  0  0  0  0
    5.5248  -11.7104   28.5911 N   0  0  0  0  0  0  0  0  0  0  0  0
    8.0529  -15.6415   24.6471 C   0  0  0  0  0  0  0  0  0  0  0  0
    6.9511  -16.1291   24.9474 O   0  0  0  0  0  0  0  0  0  0  0  0
    9.2868  -18.9038   24.1528 C   0  0  0  0  0  0  0  0  0  0  0  0
   10.1808  -18.4138   25.2876 C   0  0  1  0  0  0  0  0  0  0  0  0
   11.2903  -17.8317   24.6112 O   0  0  0  0  0  0  0  0  0  0  0  0
    9.4815  -17.2631   26.0174 C   0  0  2  0  0  0  0  0  0  0  0  0
    9.2372  -16.1469   25.1394 N   0  0  0  0  0  0  0  0  0  0  0  0
   10.3177  -16.8160   27.1191 C   0  0  0  0  0  0  0  0  0  0  0  0
   10.5730  -17.6283   28.2014 O   0  0  0  0  0  0  0  0  0  0  0  0
   10.8293  -15.6716   27.1236 O   0  0  0  0  0  0  0  0  0  0  0  0
  1  2  1  0
  2  3  2  0
  4  5  1  0
  4  2  1  0
  5  6  1  0
  6  7  1  6
  8  9  2  0
  8  6  1  0
 10  8  1  0
 11 10  1  0
 11 12  1  1
 12 13  1  0
 13 14  1  0
 14 15  1  0
 15 16  1  0
 17 11  1  0
 18 17  2  0
 20 19  1  6
 20 22  1  0
 20 21  1  0
 22 23  1  6
 23 17  1  0
 24 25  1  0
 24 22  1  0
 26 24  2  0
M  END
$$$$
