QKT.pdb
     RDKit          3D

 26 25  0  0  1  0  0  0  0  0999 V2000
   14.0508  -14.4049   21.1193 N   0  0  0  0  0  0  0  0  0  0  0  0
   13.0442  -14.0925   20.1278 C   0  0  0  0  0  0  0  0  0  0  0  0
   13.4073  -13.3733   19.1845 O   0  0  0  0  0  0  0  0  0  0  0  0
   11.6880  -14.6343   20.3090 C   0  0  0  0  0  0  0  0  0  0  0  0
   11.5317  -16.1008   20.2096 C   0  0  0  0  0  0  0  0  0  0  0  0
   10.1534  -16.6499   20.3953 C   0  0  2  0  0  0  0  0  0  0  0  0
    9.3784  -16.3144   19.2434 N   0  0  0  0  0  0  0  0  0  0  0  0
    9.5295  -16.5012   21.7006 C   0  0  0  0  0  0  0  0  0  0  0  0
    8.7113  -15.5244   21.8560 O   0  0  0  0  0  0  0  0  0  0  0  0
    9.7253  -17.3254   22.8578 N   0  0  0  0  0  0  0  0  0  0  0  0
    8.8799  -17.1179   24.0140 C   0  0  1  0  0  0  0  0  0  0  0  0
    8.4736  -18.3377   24.7558 C   0  0  0  0  0  0  0  0  0  0  0  0
    8.1024  -19.5628   24.0522 C   0  0  0  0  0  0  0  0  0  0  0  0
    7.6986  -20.7717   24.8141 C   0  0  0  0  0  0  0  0  0  0  0  0
    7.4303  -21.9343   23.8105 C   0  0  0  0  0  0  0  0  0  0  0  0
    7.0559  -23.1280   24.5450 N   0  0  0  0  0  0  0  0  0  0  0  0
    9.5807  -16.1545   24.9495 C   0  0  0  0  0  0  0  0  0  0  0  0
   10.8206  -16.1846   25.0103 O   0  0  0  0  0  0  0  0  0  0  0  0
    7.9925  -12.4472   25.6083 C   0  0  0  0  0  0  0  0  0  0  0  0
    8.1734  -13.2325   26.9036 C   0  0  1  0  0  0  0  0  0  0  0  0
    6.9379  -13.9250   27.0496 O   0  0  0  0  0  0  0  0  0  0  0  0
    9.2389  -14.3121   26.6922 C   0  0  2  0  0  0  0  0  0  0  0  0
    8.8307  -15.2755   25.7013 N   0  0  0  0  0  0  0  0  0  0  0  0
    9.4741  -15.0054   27.9480 C   0  0  0  0  0  0  0  0  0  0  0  0
   10.0260  -14.3593   29.0317 O   0  0  0  0  0  0  0  0  0  0  0  0
    9.1882  -16.2184   28.0840 O   0  0  0  0  0  0  0  0  0  0  0  0
  1  2  1  0
  2  3  2  0
  4  5  1  0
  4  2  1  0
  5  6  1  0
  6  7  1  6
  8  9  2  0
  8  6  1  0
 10  8  1  0
 11 10  1  0
 11 12  1  1
 12 13  1  0
 13 14  1  0
 14 15  1  0
 15 16  1  0
 17 11  1  0
 18 17  2  0
 20 19  1  6
 20 22  1  0
 20 21  1  0
 22 23  1  6
 23 17  1  0
 24 25  1  0
 24 22  1  0
 26 24  2  0
M  END
$$$$
