QQL.pdb
     RDKit          3D

 27 26  0  0  1  0  0  0  0  0999 V2000
    6.5813  -19.3377   27.4717 N   0  0  0  0  0  0  0  0  0  0  0  0
    7.6388  -19.9788   26.7592 C   0  0  0  0  0  0  0  0  0  0  0  0
    8.4802  -20.6016   27.3985 O   0  0  0  0  0  0  0  0  0  0  0  0
    7.6740  -19.8601   25.3012 C   0  0  0  0  0  0  0  0  0  0  0  0
    6.5335  -19.0727   24.7669 C   0  0  0  0  0  0  0  0  0  0  0  0
    6.4326  -19.0929   23.2790 C   0  0  2  0  0  0  0  0  0  0  0  0
    6.4957  -20.3486   22.6380 N   0  0  0  0  0  0  0  0  0  0  0  0
    7.4479  -18.0927   22.7771 C   0  0  0  0  0  0  0  0  0  0  0  0
    8.6205  -18.5014   22.7569 O   0  0  0  0  0  0  0  0  0  0  0  0
    7.3153  -11.8493   19.1401 N   0  0  0  0  0  0  0  0  0  0  0  0
    7.7665  -13.1870   19.1606 C   0  0  0  0  0  0  0  0  0  0  0  0
    7.7564  -13.8770   18.1192 O   0  0  0  0  0  0  0  0  0  0  0  0
    8.2532  -13.7772   20.4164 C   0  0  0  0  0  0  0  0  0  0  0  0
    7.3035  -14.8166   20.9625 C   0  0  0  0  0  0  0  0  0  0  0  0
    7.9489  -15.7389   21.9261 C   0  0  2  0  0  0  0  0  0  0  0  0
    7.1039  -16.8125   22.3692 N   0  0  0  0  0  0  0  0  0  0  0  0
    8.7964  -15.1947   22.9642 C   0  0  0  0  0  0  0  0  0  0  0  0
    9.4714  -14.1633   22.6587 O   0  0  0  0  0  0  0  0  0  0  0  0
    8.0646  -11.8791   26.5854 C   0  0  0  0  0  0  0  0  0  0  0  0
    7.2307  -13.1090   26.3926 C   0  0  1  0  0  0  0  0  0  0  0  0
    5.8047  -12.6249   26.2204 C   0  0  0  0  0  0  0  0  0  0  0  0
    7.6834  -14.0715   25.4077 C   0  0  0  0  0  0  0  0  0  0  0  0
    8.8791  -14.8984   25.5029 C   0  0  2  0  0  0  0  0  0  0  0  0
    8.9421  -15.6940   24.2645 N   0  0  0  0  0  0  0  0  0  0  0  0
    9.0338  -15.7114   26.6787 C   0  0  0  0  0  0  0  0  0  0  0  0
    9.7602  -15.4360   27.8141 O   0  0  0  0  0  0  0  0  0  0  0  0
    8.4361  -16.8497   26.7015 O   0  0  0  0  0  0  0  0  0  0  0  0
  2  3  2  0
  2  1  1  0
  4  2  1  0
  5  4  1  0
  5  6  1  0
  6  8  1  0
  6  7  1  6
  8  9  2  0
 10 11  1  0
 11 13  1  0
 12 11  2  0
 13 14  1  0
 15 14  1  1
 16 15  1  0
 16  8  1  0
 17 24  1  0
 17 15  1  0
 18 17  2  0
 20 19  1  6
 20 21  1  0
 22 20  1  0
 23 22  1  1
 23 24  1  0
 25 26  1  0
 25 23  1  0
 27 25  2  0
M  END
$$$$
