QQL.pdb
     RDKit          3D

 27 26  0  0  1  0  0  0  0  0999 V2000
    7.1004  -12.5233   17.2326 N   0  0  0  0  0  0  0  0  0  0  0  0
    7.8556  -13.7019   16.9541 C   0  0  0  0  0  0  0  0  0  0  0  0
    7.5832  -14.3454   15.9460 O   0  0  0  0  0  0  0  0  0  0  0  0
    8.9155  -14.0912   17.8848 C   0  0  0  0  0  0  0  0  0  0  0  0
    9.0491  -13.1456   19.0224 C   0  0  0  0  0  0  0  0  0  0  0  0
   10.1119  -13.5240   19.9980 C   0  0  2  0  0  0  0  0  0  0  0  0
   11.2919  -14.1035   19.4848 N   0  0  0  0  0  0  0  0  0  0  0  0
    9.4288  -14.3537   21.0601 C   0  0  0  0  0  0  0  0  0  0  0  0
    8.3207  -13.9283   21.4253 O   0  0  0  0  0  0  0  0  0  0  0  0
   10.2166  -20.4739   21.9254 N   0  0  0  0  0  0  0  0  0  0  0  0
    9.8351  -19.6843   20.8188 C   0  0  0  0  0  0  0  0  0  0  0  0
    9.6686  -20.2036   19.6949 O   0  0  0  0  0  0  0  0  0  0  0  0
    9.6308  -18.2377   20.9863 C   0  0  0  0  0  0  0  0  0  0  0  0
    9.8000  -17.8014   22.4221 C   0  0  0  0  0  0  0  0  0  0  0  0
    9.4955  -16.3661   22.6290 C   0  0  2  0  0  0  0  0  0  0  0  0
    9.9915  -15.5041   21.5927 N   0  0  0  0  0  0  0  0  0  0  0  0
    9.6048  -15.8061   23.9581 C   0  0  0  0  0  0  0  0  0  0  0  0
   10.7511  -15.3775   24.2973 O   0  0  0  0  0  0  0  0  0  0  0  0
    5.5587  -12.8540   26.2614 C   0  0  0  0  0  0  0  0  0  0  0  0
    6.9582  -13.2760   25.9316 C   0  0  1  0  0  0  0  0  0  0  0  0
    7.8190  -12.0401   26.1022 C   0  0  0  0  0  0  0  0  0  0  0  0
    7.4593  -14.4756   26.5727 C   0  0  0  0  0  0  0  0  0  0  0  0
    8.7110  -15.1543   26.2637 C   0  0  2  0  0  0  0  0  0  0  0  0
    8.5739  -15.6927   24.8993 N   0  0  0  0  0  0  0  0  0  0  0  0
    9.1771  -16.1464   27.1944 C   0  0  0  0  0  0  0  0  0  0  0  0
    9.8165  -15.9512   28.3967 O   0  0  0  0  0  0  0  0  0  0  0  0
    8.9953  -17.3827   26.8914 O   0  0  0  0  0  0  0  0  0  0  0  0
  2  3  2  0
  2  1  1  0
  4  2  1  0
  5  4  1  0
  5  6  1  0
  6  8  1  0
  6  7  1  6
  8  9  2  0
 10 11  1  0
 11 13  1  0
 12 11  2  0
 13 14  1  0
 15 14  1  1
 16 15  1  0
 16  8  1  0
 17 24  1  0
 17 15  1  0
 18 17  2  0
 20 19  1  1
 20 21  1  0
 22 20  1  0
 23 22  1  1
 23 24  1  0
 25 26  1  0
 25 23  1  0
 27 25  2  0
M  END
$$$$
