QQL.pdb
     RDKit          3D

 27 26  0  0  1  0  0  0  0  0999 V2000
    9.7782  -19.7931   16.1174 N   0  0  0  0  0  0  0  0  0  0  0  0
   10.5667  -19.6230   17.2949 C   0  0  0  0  0  0  0  0  0  0  0  0
   11.7026  -20.0857   17.3089 O   0  0  0  0  0  0  0  0  0  0  0  0
    9.9834  -18.9100   18.4317 C   0  0  0  0  0  0  0  0  0  0  0  0
   10.8950  -18.8652   19.6035 C   0  0  0  0  0  0  0  0  0  0  0  0
   10.1913  -18.6951   20.9075 C   0  0  2  0  0  0  0  0  0  0  0  0
    8.8462  -19.1154   20.9824 N   0  0  0  0  0  0  0  0  0  0  0  0
   10.4120  -17.2577   21.3177 C   0  0  0  0  0  0  0  0  0  0  0  0
   11.5849  -16.8603   21.2245 O   0  0  0  0  0  0  0  0  0  0  0  0
    7.5214  -12.2624   19.5846 N   0  0  0  0  0  0  0  0  0  0  0  0
    7.8161  -13.5541   19.0963 C   0  0  0  0  0  0  0  0  0  0  0  0
    7.3671  -13.9346   17.9944 O   0  0  0  0  0  0  0  0  0  0  0  0
    8.6585  -14.4625   19.8885 C   0  0  0  0  0  0  0  0  0  0  0  0
    8.5945  -14.1552   21.3656 C   0  0  0  0  0  0  0  0  0  0  0  0
    9.4338  -15.0639   22.1813 C   0  0  2  0  0  0  0  0  0  0  0  0
    9.3871  -16.4383   21.7669 N   0  0  0  0  0  0  0  0  0  0  0  0
    9.4770  -14.8865   23.6161 C   0  0  0  0  0  0  0  0  0  0  0  0
   10.5523  -14.4083   24.0934 O   0  0  0  0  0  0  0  0  0  0  0  0
    5.6264  -12.4553   26.2492 C   0  0  0  0  0  0  0  0  0  0  0  0
    7.0150  -12.9397   25.9620 C   0  0  1  0  0  0  0  0  0  0  0  0
    7.9478  -11.8489   26.4494 C   0  0  0  0  0  0  0  0  0  0  0  0
    7.3524  -14.2829   26.3900 C   0  0  0  0  0  0  0  0  0  0  0  0
    8.5285  -15.0420   25.9858 C   0  0  2  0  0  0  0  0  0  0  0  0
    8.4530  -15.1901   24.5220 N   0  0  0  0  0  0  0  0  0  0  0  0
    8.7701  -16.2961   26.6465 C   0  0  0  0  0  0  0  0  0  0  0  0
    9.1545  -16.5109   27.9498 O   0  0  0  0  0  0  0  0  0  0  0  0
    8.6244  -17.3723   25.9582 O   0  0  0  0  0  0  0  0  0  0  0  0
  2  3  2  0
  2  1  1  0
  4  2  1  0
  5  4  1  0
  5  6  1  0
  6  8  1  0
  6  7  1  6
  8  9  2  0
 10 11  1  0
 11 13  1  0
 12 11  2  0
 13 14  1  0
 15 14  1  1
 16 15  1  0
 16  8  1  0
 17 24  1  0
 17 15  1  0
 18 17  2  0
 20 19  1  1
 20 21  1  0
 22 20  1  0
 23 22  1  1
 23 24  1  0
 25 26  1  0
 25 23  1  0
 27 25  2  0
M  END
$$$$
