QQL.pdb
     RDKit          3D

 27 26  0  0  1  0  0  0  0  0999 V2000
    9.2191  -12.2970   19.2906 N   0  0  0  0  0  0  0  0  0  0  0  0
    8.8076  -13.1556   18.2274 C   0  0  0  0  0  0  0  0  0  0  0  0
    9.2852  -12.9744   17.1122 O   0  0  0  0  0  0  0  0  0  0  0  0
    7.8324  -14.2082   18.5143 C   0  0  0  0  0  0  0  0  0  0  0  0
    7.9426  -14.7223   19.9034 C   0  0  0  0  0  0  0  0  0  0  0  0
    8.0332  -16.2085   19.9898 C   0  0  2  0  0  0  0  0  0  0  0  0
    7.0612  -16.9625   19.2981 N   0  0  0  0  0  0  0  0  0  0  0  0
    8.1360  -16.5368   21.4611 C   0  0  0  0  0  0  0  0  0  0  0  0
    7.0690  -16.4575   22.0916 O   0  0  0  0  0  0  0  0  0  0  0  0
   12.5394  -20.0590   24.3030 N   0  0  0  0  0  0  0  0  0  0  0  0
   11.9257  -19.4225   25.4039 C   0  0  0  0  0  0  0  0  0  0  0  0
   12.2481  -19.7235   26.5726 O   0  0  0  0  0  0  0  0  0  0  0  0
   10.8976  -18.3958   25.1772 C   0  0  0  0  0  0  0  0  0  0  0  0
   10.6285  -18.1744   23.7078 C   0  0  0  0  0  0  0  0  0  0  0  0
    9.6120  -17.1255   23.4587 C   0  0  2  0  0  0  0  0  0  0  0  0
    9.3290  -16.8988   22.0689 N   0  0  0  0  0  0  0  0  0  0  0  0
    9.6333  -15.9188   24.2559 C   0  0  0  0  0  0  0  0  0  0  0  0
   10.4616  -15.0235   23.9024 O   0  0  0  0  0  0  0  0  0  0  0  0
    5.6723  -12.0944   26.2046 C   0  0  0  0  0  0  0  0  0  0  0  0
    7.0618  -12.5426   26.5421 C   0  0  1  0  0  0  0  0  0  0  0  0
    7.1711  -12.4655   28.0519 C   0  0  0  0  0  0  0  0  0  0  0  0
    7.5235  -13.7816   25.9481 C   0  0  0  0  0  0  0  0  0  0  0  0
    8.8321  -14.3915   26.1440 C   0  0  2  0  0  0  0  0  0  0  0  0
    8.8329  -15.6465   25.3724 N   0  0  0  0  0  0  0  0  0  0  0  0
    9.2797  -14.5856   27.4966 C   0  0  0  0  0  0  0  0  0  0  0  0
    8.9820  -15.6220   28.3508 O   0  0  0  0  0  0  0  0  0  0  0  0
   10.0516  -13.6918   28.0050 O   0  0  0  0  0  0  0  0  0  0  0  0
  2  3  2  0
  2  1  1  0
  4  2  1  0
  5  4  1  0
  5  6  1  0
  6  8  1  0
  6  7  1  1
  8  9  2  0
 10 11  1  0
 11 13  1  0
 12 11  2  0
 13 14  1  0
 15 14  1  6
 16 15  1  0
 16  8  1  0
 17 24  1  0
 17 15  1  0
 18 17  2  0
 20 19  1  1
 20 21  1  0
 22 20  1  0
 23 22  1  1
 23 24  1  0
 25 26  1  0
 25 23  1  0
 27 25  2  0
M  END
$$$$
