QQL.pdb
     RDKit          3D

 27 26  0  0  1  0  0  0  0  0999 V2000
   10.1006  -13.3307   18.8210 N   0  0  0  0  0  0  0  0  0  0  0  0
    8.8267  -12.9350   18.3135 C   0  0  0  0  0  0  0  0  0  0  0  0
    8.7410  -12.6217   17.1307 O   0  0  0  0  0  0  0  0  0  0  0  0
    7.6837  -12.9161   19.2269 C   0  0  0  0  0  0  0  0  0  0  0  0
    7.9571  -13.6392   20.4952 C   0  0  0  0  0  0  0  0  0  0  0  0
    7.7472  -15.1130   20.4051 C   0  0  2  0  0  0  0  0  0  0  0  0
    6.5405  -15.5661   19.8306 N   0  0  0  0  0  0  0  0  0  0  0  0
    8.0149  -15.6592   21.7883 C   0  0  0  0  0  0  0  0  0  0  0  0
    7.0059  -15.8099   22.4965 O   0  0  0  0  0  0  0  0  0  0  0  0
   11.1185  -20.6406   23.5430 N   0  0  0  0  0  0  0  0  0  0  0  0
   10.7505  -19.7808   24.6008 C   0  0  0  0  0  0  0  0  0  0  0  0
   10.1164  -20.2185   25.5841 O   0  0  0  0  0  0  0  0  0  0  0  0
   11.1149  -18.3571   24.5487 C   0  0  0  0  0  0  0  0  0  0  0  0
   10.6872  -17.7071   23.2545 C   0  0  0  0  0  0  0  0  0  0  0  0
    9.6909  -16.6282   23.4519 C   0  0  2  0  0  0  0  0  0  0  0  0
    9.2888  -15.9699   22.2403 N   0  0  0  0  0  0  0  0  0  0  0  0
    9.8299  -15.7379   24.5832 C   0  0  0  0  0  0  0  0  0  0  0  0
   10.8962  -15.0498   24.6321 O   0  0  0  0  0  0  0  0  0  0  0  0
    5.8243  -12.6288   26.4374 C   0  0  0  0  0  0  0  0  0  0  0  0
    7.1801  -13.1482   26.0668 C   0  0  1  0  0  0  0  0  0  0  0  0
    7.9766  -11.9448   25.6029 C   0  0  0  0  0  0  0  0  0  0  0  0
    7.8494  -14.0040   27.0263 C   0  0  0  0  0  0  0  0  0  0  0  0
    9.1013  -14.7179   26.8122 C   0  0  2  0  0  0  0  0  0  0  0  0
    8.9068  -15.5640   25.6220 N   0  0  0  0  0  0  0  0  0  0  0  0
    9.6438  -15.4565   27.9203 C   0  0  0  0  0  0  0  0  0  0  0  0
   10.2440  -14.9665   29.0570 O   0  0  0  0  0  0  0  0  0  0  0  0
    9.5827  -16.7399   27.8707 O   0  0  0  0  0  0  0  0  0  0  0  0
  2  3  2  0
  2  1  1  0
  4  2  1  0
  5  4  1  0
  5  6  1  0
  6  8  1  0
  6  7  1  1
  8  9  2  0
 10 11  1  0
 11 13  1  0
 12 11  2  0
 13 14  1  0
 15 14  1  6
 16 15  1  0
 16  8  1  0
 17 24  1  0
 17 15  1  0
 18 17  2  0
 20 19  1  1
 20 21  1  0
 22 20  1  0
 23 22  1  1
 23 24  1  0
 25 26  1  0
 25 23  1  0
 27 25  2  0
M  END
$$$$
