QQL.pdb
     RDKit          3D

 27 26  0  0  1  0  0  0  0  0999 V2000
    7.9627  -12.1288   16.6350 N   0  0  0  0  0  0  0  0  0  0  0  0
    7.9799  -13.4010   15.9883 C   0  0  0  0  0  0  0  0  0  0  0  0
    7.8745  -13.4366   14.7668 O   0  0  0  0  0  0  0  0  0  0  0  0
    8.1171  -14.6034   16.8109 C   0  0  0  0  0  0  0  0  0  0  0  0
    8.1744  -14.2957   18.2629 C   0  0  0  0  0  0  0  0  0  0  0  0
    9.0935  -15.1846   19.0307 C   0  0  2  0  0  0  0  0  0  0  0  0
    9.4381  -16.4240   18.4504 N   0  0  0  0  0  0  0  0  0  0  0  0
    8.5060  -15.2955   20.4184 C   0  0  0  0  0  0  0  0  0  0  0  0
    8.0646  -14.2336   20.8871 O   0  0  0  0  0  0  0  0  0  0  0  0
    8.0934  -20.7630   22.3339 N   0  0  0  0  0  0  0  0  0  0  0  0
    7.3101  -20.1749   21.3170 C   0  0  0  0  0  0  0  0  0  0  0  0
    6.9019  -20.8581   20.3541 O   0  0  0  0  0  0  0  0  0  0  0  0
    6.9697  -18.7461   21.3879 C   0  0  0  0  0  0  0  0  0  0  0  0
    7.4589  -18.1071   22.6657 C   0  0  0  0  0  0  0  0  0  0  0  0
    8.0001  -16.7434   22.4589 C   0  0  2  0  0  0  0  0  0  0  0  0
    8.4609  -16.4898   21.1223 N   0  0  0  0  0  0  0  0  0  0  0  0
    8.8277  -16.1494   23.4857 C   0  0  0  0  0  0  0  0  0  0  0  0
    9.5626  -15.1781   23.1263 O   0  0  0  0  0  0  0  0  0  0  0  0
    8.0803  -12.5535   26.8541 C   0  0  0  0  0  0  0  0  0  0  0  0
    7.2659  -13.8112   26.8367 C   0  0  1  0  0  0  0  0  0  0  0  0
    5.8196  -13.3714   26.7243 C   0  0  0  0  0  0  0  0  0  0  0  0
    7.6718  -14.8535   25.9148 C   0  0  0  0  0  0  0  0  0  0  0  0
    8.8997  -15.6342   25.9894 C   0  0  2  0  0  0  0  0  0  0  0  0
    8.8947  -16.5412   24.8286 N   0  0  0  0  0  0  0  0  0  0  0  0
    9.1732  -16.3277   27.2190 C   0  0  0  0  0  0  0  0  0  0  0  0
   10.0470  -15.9721   28.2202 O   0  0  0  0  0  0  0  0  0  0  0  0
    8.5433  -17.4270   27.4382 O   0  0  0  0  0  0  0  0  0  0  0  0
  2  3  2  0
  2  1  1  0
  4  2  1  0
  5  4  1  0
  5  6  1  0
  6  8  1  0
  6  7  1  6
  8  9  2  0
 10 11  1  0
 11 13  1  0
 12 11  2  0
 13 14  1  0
 15 14  1  1
 16 15  1  0
 16  8  1  0
 17 24  1  0
 17 15  1  0
 18 17  2  0
 20 19  1  6
 20 21  1  0
 22 20  1  0
 23 22  1  1
 23 24  1  0
 25 26  1  0
 25 23  1  0
 27 25  2  0
M  END
$$$$
