QQL.pdb
     RDKit          3D

 27 26  0  0  1  0  0  0  0  0999 V2000
   11.1258  -21.6500   25.2329 N   0  0  0  0  0  0  0  0  0  0  0  0
   10.3156  -22.4949   24.4162 C   0  0  0  0  0  0  0  0  0  0  0  0
   10.2701  -23.6921   24.6793 O   0  0  0  0  0  0  0  0  0  0  0  0
    9.5813  -21.8963   23.3011 C   0  0  0  0  0  0  0  0  0  0  0  0
    9.8068  -20.4323   23.1920 C   0  0  0  0  0  0  0  0  0  0  0  0
    9.0567  -19.7893   22.0747 C   0  0  2  0  0  0  0  0  0  0  0  0
    9.0902  -20.4256   20.8155 N   0  0  0  0  0  0  0  0  0  0  0  0
    9.5018  -18.3456   22.0481 C   0  0  0  0  0  0  0  0  0  0  0  0
   10.7316  -18.1769   22.0105 O   0  0  0  0  0  0  0  0  0  0  0  0
    6.3513  -13.3737   19.7652 N   0  0  0  0  0  0  0  0  0  0  0  0
    7.6043  -12.8636   20.1692 C   0  0  0  0  0  0  0  0  0  0  0  0
    8.0144  -11.7670   19.7336 O   0  0  0  0  0  0  0  0  0  0  0  0
    8.4371  -13.6266   21.1109 C   0  0  0  0  0  0  0  0  0  0  0  0
    7.9954  -15.0663   21.2239 C   0  0  0  0  0  0  0  0  0  0  0  0
    8.8736  -15.8722   22.1042 C   0  0  2  0  0  0  0  0  0  0  0  0
    8.6099  -17.2836   22.0654 N   0  0  0  0  0  0  0  0  0  0  0  0
    9.2001  -15.3740   23.4223 C   0  0  0  0  0  0  0  0  0  0  0  0
   10.4030  -15.0108   23.6062 O   0  0  0  0  0  0  0  0  0  0  0  0
    5.3357  -12.9878   26.3225 C   0  0  0  0  0  0  0  0  0  0  0  0
    6.7437  -13.1643   25.8410 C   0  0  1  0  0  0  0  0  0  0  0  0
    7.3691  -11.7837   25.8617 C   0  0  0  0  0  0  0  0  0  0  0  0
    7.5313  -14.2125   26.4590 C   0  0  0  0  0  0  0  0  0  0  0  0
    8.6961  -14.8664   25.8775 C   0  0  2  0  0  0  0  0  0  0  0  0
    8.3218  -15.2552   24.5066 N   0  0  0  0  0  0  0  0  0  0  0  0
    9.2819  -15.9564   26.6099 C   0  0  0  0  0  0  0  0  0  0  0  0
    9.4309  -17.2652   26.2132 O   0  0  0  0  0  0  0  0  0  0  0  0
    9.7261  -15.7124   27.7916 O   0  0  0  0  0  0  0  0  0  0  0  0
  2  3  2  0
  2  1  1  0
  4  2  1  0
  5  4  1  0
  5  6  1  0
  6  8  1  0
  6  7  1  6
  8  9  2  0
 10 11  1  0
 11 13  1  0
 12 11  2  0
 13 14  1  0
 15 14  1  1
 16 15  1  0
 16  8  1  0
 17 24  1  0
 17 15  1  0
 18 17  2  0
 20 19  1  1
 20 21  1  0
 22 20  1  0
 23 22  1  1
 23 24  1  0
 25 26  1  0
 25 23  1  0
 27 25  2  0
M  END
$$$$
