QQL.pdb
     RDKit          3D

 27 26  0  0  1  0  0  0  0  0999 V2000
    6.0556  -20.4377   18.9462 N   0  0  0  0  0  0  0  0  0  0  0  0
    5.8126  -19.2013   18.2758 C   0  0  0  0  0  0  0  0  0  0  0  0
    5.3244  -19.2330   17.1510 O   0  0  0  0  0  0  0  0  0  0  0  0
    6.1610  -17.9543   18.9575 C   0  0  0  0  0  0  0  0  0  0  0  0
    6.6766  -18.1822   20.3317 C   0  0  0  0  0  0  0  0  0  0  0  0
    6.9406  -16.9263   21.0915 C   0  0  2  0  0  0  0  0  0  0  0  0
    6.9984  -15.7211   20.3595 N   0  0  0  0  0  0  0  0  0  0  0  0
    8.1664  -17.1960   21.9329 C   0  0  0  0  0  0  0  0  0  0  0  0
    8.1799  -18.3008   22.5000 O   0  0  0  0  0  0  0  0  0  0  0  0
   13.8801  -17.4523   21.1477 N   0  0  0  0  0  0  0  0  0  0  0  0
   12.7933  -17.2962   20.2600 C   0  0  0  0  0  0  0  0  0  0  0  0
   12.8762  -17.6925   19.0782 O   0  0  0  0  0  0  0  0  0  0  0  0
   11.5511  -16.6623   20.7264 C   0  0  0  0  0  0  0  0  0  0  0  0
   11.6485  -16.2084   22.1634 C   0  0  0  0  0  0  0  0  0  0  0  0
   10.3703  -16.3458   22.9001 C   0  0  2  0  0  0  0  0  0  0  0  0
    9.2016  -16.2829   22.0675 N   0  0  0  0  0  0  0  0  0  0  0  0
   10.2162  -15.6818   24.1758 C   0  0  0  0  0  0  0  0  0  0  0  0
   11.2658  -15.1718   24.6769 O   0  0  0  0  0  0  0  0  0  0  0  0
    6.1660  -12.4922   25.8853 C   0  0  0  0  0  0  0  0  0  0  0  0
    7.5349  -13.0936   25.7851 C   0  0  1  0  0  0  0  0  0  0  0  0
    8.5068  -11.9792   26.1184 C   0  0  0  0  0  0  0  0  0  0  0  0
    7.7635  -14.3456   26.4788 C   0  0  0  0  0  0  0  0  0  0  0  0
    8.9307  -15.2055   26.3346 C   0  0  2  0  0  0  0  0  0  0  0  0
    9.0281  -15.5492   24.9053 N   0  0  0  0  0  0  0  0  0  0  0  0
    9.0096  -16.3670   27.1786 C   0  0  0  0  0  0  0  0  0  0  0  0
    8.9828  -17.6915   26.8079 O   0  0  0  0  0  0  0  0  0  0  0  0
    9.1117  -16.1789   28.4465 O   0  0  0  0  0  0  0  0  0  0  0  0
  2  3  2  0
  2  1  1  0
  4  2  1  0
  5  4  1  0
  5  6  1  0
  6  8  1  0
  6  7  1  6
  8  9  2  0
 10 11  1  0
 11 13  1  0
 12 11  2  0
 13 14  1  0
 15 14  1  6
 16 15  1  0
 16  8  1  0
 17 24  1  0
 17 15  1  0
 18 17  2  0
 20 19  1  1
 20 21  1  0
 22 20  1  0
 23 22  1  6
 23 24  1  0
 25 26  1  0
 25 23  1  0
 27 25  2  0
M  END
$$$$
