QQL.pdb
     RDKit          3D

 27 26  0  0  1  0  0  0  0  0999 V2000
    8.6450  -12.8807   19.0689 N   0  0  0  0  0  0  0  0  0  0  0  0
    8.6667  -13.9298   18.1014 C   0  0  0  0  0  0  0  0  0  0  0  0
    9.1349  -13.6922   16.9928 O   0  0  0  0  0  0  0  0  0  0  0  0
    8.1257  -15.2374   18.4736 C   0  0  0  0  0  0  0  0  0  0  0  0
    7.5880  -15.2574   19.8580 C   0  0  0  0  0  0  0  0  0  0  0  0
    7.0434  -16.5823   20.2731 C   0  0  2  0  0  0  0  0  0  0  0  0
    5.9593  -17.1024   19.5342 N   0  0  0  0  0  0  0  0  0  0  0  0
    6.7854  -16.4820   21.7586 C   0  0  0  0  0  0  0  0  0  0  0  0
    5.7194  -15.9257   22.0690 O   0  0  0  0  0  0  0  0  0  0  0  0
    7.0733  -21.0346   25.6110 N   0  0  0  0  0  0  0  0  0  0  0  0
    7.0630  -19.9846   26.5548 C   0  0  0  0  0  0  0  0  0  0  0  0
    6.9288  -20.2264   27.7730 O   0  0  0  0  0  0  0  0  0  0  0  0
    7.2113  -18.5927   26.1042 C   0  0  0  0  0  0  0  0  0  0  0  0
    7.3587  -18.4924   24.6047 C   0  0  0  0  0  0  0  0  0  0  0  0
    7.5010  -17.0957   24.1307 C   0  0  2  0  0  0  0  0  0  0  0  0
    7.6687  -16.9710   22.7096 N   0  0  0  0  0  0  0  0  0  0  0  0
    8.3030  -16.1684   24.8981 C   0  0  0  0  0  0  0  0  0  0  0  0
    9.5353  -16.1054   24.5977 O   0  0  0  0  0  0  0  0  0  0  0  0
    5.6264  -12.3435   28.0516 C   0  0  0  0  0  0  0  0  0  0  0  0
    6.5048  -12.9784   27.0169 C   0  0  1  0  0  0  0  0  0  0  0  0
    6.6349  -11.9633   25.8988 C   0  0  0  0  0  0  0  0  0  0  0  0
    7.7498  -13.5654   27.4713 C   0  0  0  0  0  0  0  0  0  0  0  0
    8.6700  -14.3562   26.6646 C   0  0  2  0  0  0  0  0  0  0  0  0
    7.8525  -15.3397   25.9333 N   0  0  0  0  0  0  0  0  0  0  0  0
    9.7848  -14.9685   27.3353 C   0  0  0  0  0  0  0  0  0  0  0  0
   10.9038  -14.3600   27.8550 O   0  0  0  0  0  0  0  0  0  0  0  0
    9.7686  -16.2464   27.4776 O   0  0  0  0  0  0  0  0  0  0  0  0
  2  3  2  0
  2  1  1  0
  4  2  1  0
  5  4  1  0
  5  6  1  0
  6  8  1  0
  6  7  1  6
  8  9  2  0
 10 11  1  0
 11 13  1  0
 12 11  2  0
 13 14  1  0
 15 14  1  1
 16 15  1  0
 16  8  1  0
 17 24  1  0
 17 15  1  0
 18 17  2  0
 20 19  1  1
 20 21  1  0
 22 20  1  0
 23 22  1  1
 23 24  1  0
 25 26  1  0
 25 23  1  0
 27 25  2  0
M  END
$$$$
