QQL.pdb
     RDKit          3D

 27 26  0  0  1  0  0  0  0  0999 V2000
    6.6327  -13.7663   16.5743 N   0  0  0  0  0  0  0  0  0  0  0  0
    8.0163  -13.6358   16.2492 C   0  0  0  0  0  0  0  0  0  0  0  0
    8.3407  -13.6359   15.0662 O   0  0  0  0  0  0  0  0  0  0  0  0
    8.9838  -13.5133   17.3400 C   0  0  0  0  0  0  0  0  0  0  0  0
    8.3464  -13.6042   18.6786 C   0  0  0  0  0  0  0  0  0  0  0  0
    9.2947  -13.4016   19.8118 C   0  0  2  0  0  0  0  0  0  0  0  0
   10.6706  -13.3311   19.5062 N   0  0  0  0  0  0  0  0  0  0  0  0
    8.9449  -14.4495   20.8426 C   0  0  0  0  0  0  0  0  0  0  0  0
    7.7334  -14.5517   21.0958 O   0  0  0  0  0  0  0  0  0  0  0  0
   11.6012  -19.9646   21.7356 N   0  0  0  0  0  0  0  0  0  0  0  0
   10.9084  -19.8216   22.9576 C   0  0  0  0  0  0  0  0  0  0  0  0
   10.8659  -20.7628   23.7779 O   0  0  0  0  0  0  0  0  0  0  0  0
   10.2296  -18.5554   23.2713 C   0  0  0  0  0  0  0  0  0  0  0  0
   10.4076  -17.5282   22.1789 C   0  0  0  0  0  0  0  0  0  0  0  0
    9.7324  -16.2437   22.4786 C   0  0  2  0  0  0  0  0  0  0  0  0
    9.8996  -15.2405   21.4643 N   0  0  0  0  0  0  0  0  0  0  0  0
    9.7715  -15.7240   23.8278 C   0  0  0  0  0  0  0  0  0  0  0  0
   10.9034  -15.3306   24.2483 O   0  0  0  0  0  0  0  0  0  0  0  0
    5.5873  -12.8193   26.0717 C   0  0  0  0  0  0  0  0  0  0  0  0
    7.0087  -13.2104   25.8034 C   0  0  1  0  0  0  0  0  0  0  0  0
    7.8494  -11.9993   26.1557 C   0  0  0  0  0  0  0  0  0  0  0  0
    7.4681  -14.4684   26.3580 C   0  0  0  0  0  0  0  0  0  0  0  0
    8.7498  -15.1071   26.0894 C   0  0  2  0  0  0  0  0  0  0  0  0
    8.6875  -15.6143   24.7076 N   0  0  0  0  0  0  0  0  0  0  0  0
    9.2002  -16.1101   27.0160 C   0  0  0  0  0  0  0  0  0  0  0  0
    9.8021  -15.9291   28.2397 O   0  0  0  0  0  0  0  0  0  0  0  0
    9.0419  -17.3429   26.6864 O   0  0  0  0  0  0  0  0  0  0  0  0
  2  3  2  0
  2  1  1  0
  4  2  1  0
  5  4  1  0
  5  6  1  0
  6  8  1  0
  6  7  1  6
  8  9  2  0
 10 11  1  0
 11 13  1  0
 12 11  2  0
 13 14  1  0
 15 14  1  1
 16 15  1  0
 16  8  1  0
 17 24  1  0
 17 15  1  0
 18 17  2  0
 20 19  1  1
 20 21  1  0
 22 20  1  0
 23 22  1  1
 23 24  1  0
 25 26  1  0
 25 23  1  0
 27 25  2  0
M  END
$$$$
