QQL.pdb
     RDKit          3D

 27 26  0  0  1  0  0  0  0  0999 V2000
    7.9972  -12.2983   17.9701 N   0  0  0  0  0  0  0  0  0  0  0  0
    7.9717  -13.5312   17.2515 C   0  0  0  0  0  0  0  0  0  0  0  0
    7.7588  -13.4991   16.0440 O   0  0  0  0  0  0  0  0  0  0  0  0
    8.1954  -14.7759   17.9876 C   0  0  0  0  0  0  0  0  0  0  0  0
    8.4682  -14.5432   19.4290 C   0  0  0  0  0  0  0  0  0  0  0  0
    9.4965  -15.4587   20.0025 C   0  0  2  0  0  0  0  0  0  0  0  0
    9.8410  -16.6038   19.2530 N   0  0  0  0  0  0  0  0  0  0  0  0
    9.0499  -15.7574   21.4148 C   0  0  0  0  0  0  0  0  0  0  0  0
    7.8862  -15.4144   21.6800 O   0  0  0  0  0  0  0  0  0  0  0  0
   11.1782  -20.5832   24.5581 N   0  0  0  0  0  0  0  0  0  0  0  0
   10.5634  -20.4066   23.2994 C   0  0  0  0  0  0  0  0  0  0  0  0
   10.5471  -21.3354   22.4643 O   0  0  0  0  0  0  0  0  0  0  0  0
    9.9356  -19.1197   22.9645 C   0  0  0  0  0  0  0  0  0  0  0  0
   10.1037  -18.1005   24.0661 C   0  0  0  0  0  0  0  0  0  0  0  0
    9.5815  -16.7631   23.6998 C   0  0  2  0  0  0  0  0  0  0  0  0
    9.8726  -16.3672   22.3502 N   0  0  0  0  0  0  0  0  0  0  0  0
    9.6714  -15.6837   24.6585 C   0  0  0  0  0  0  0  0  0  0  0  0
   10.7811  -15.0686   24.7132 O   0  0  0  0  0  0  0  0  0  0  0  0
    5.4628  -12.5385   26.2775 C   0  0  0  0  0  0  0  0  0  0  0  0
    6.8438  -12.9928   25.9146 C   0  0  1  0  0  0  0  0  0  0  0  0
    7.5349  -11.7877   25.3082 C   0  0  0  0  0  0  0  0  0  0  0  0
    7.6005  -13.6970   26.9308 C   0  0  0  0  0  0  0  0  0  0  0  0
    8.8482  -14.4205   26.7239 C   0  0  2  0  0  0  0  0  0  0  0  0
    8.6582  -15.2561   25.5256 N   0  0  0  0  0  0  0  0  0  0  0  0
    9.3729  -15.1719   27.8319 C   0  0  0  0  0  0  0  0  0  0  0  0
    9.5573  -16.5319   27.9263 O   0  0  0  0  0  0  0  0  0  0  0  0
    9.7161  -14.5214   28.8865 O   0  0  0  0  0  0  0  0  0  0  0  0
  2  3  2  0
  2  1  1  0
  4  2  1  0
  5  4  1  0
  5  6  1  0
  6  8  1  0
  6  7  1  6
  8  9  2  0
 10 11  1  0
 11 13  1  0
 12 11  2  0
 13 14  1  0
 15 14  1  1
 16 15  1  0
 16  8  1  0
 17 24  1  0
 17 15  1  0
 18 17  2  0
 20 19  1  1
 20 21  1  0
 22 20  1  0
 23 22  1  1
 23 24  1  0
 25 26  1  0
 25 23  1  0
 27 25  2  0
M  END
$$$$
