QQL.pdb
     RDKit          3D

 27 26  0  0  1  0  0  0  0  0999 V2000
   10.8649  -13.4206   19.1639 N   0  0  0  0  0  0  0  0  0  0  0  0
    9.7244  -13.6051   18.3259 C   0  0  0  0  0  0  0  0  0  0  0  0
    9.8690  -14.2071   17.2670 O   0  0  0  0  0  0  0  0  0  0  0  0
    8.4376  -13.0642   18.7648 C   0  0  0  0  0  0  0  0  0  0  0  0
    8.0557  -13.5345   20.1210 C   0  0  0  0  0  0  0  0  0  0  0  0
    7.8498  -15.0089   20.2109 C   0  0  2  0  0  0  0  0  0  0  0  0
    6.9380  -15.5964   19.3082 N   0  0  0  0  0  0  0  0  0  0  0  0
    7.5552  -15.3025   21.6635 C   0  0  0  0  0  0  0  0  0  0  0  0
    6.6585  -14.6066   22.1674 O   0  0  0  0  0  0  0  0  0  0  0  0
    6.6626  -20.4800   24.3128 N   0  0  0  0  0  0  0  0  0  0  0  0
    7.0474  -19.7800   25.4771 C   0  0  0  0  0  0  0  0  0  0  0  0
    6.6646  -20.1612   26.6034 O   0  0  0  0  0  0  0  0  0  0  0  0
    7.9060  -18.5913   25.3673 C   0  0  0  0  0  0  0  0  0  0  0  0
    8.1155  -18.1709   23.9321 C   0  0  0  0  0  0  0  0  0  0  0  0
    8.0347  -16.7035   23.7427 C   0  0  2  0  0  0  0  0  0  0  0  0
    8.2319  -16.2737   22.3864 N   0  0  0  0  0  0  0  0  0  0  0  0
    8.6370  -15.8309   24.7265 C   0  0  0  0  0  0  0  0  0  0  0  0
    9.8875  -15.6373   24.6189 O   0  0  0  0  0  0  0  0  0  0  0  0
    5.6493  -11.8280   27.0991 C   0  0  0  0  0  0  0  0  0  0  0  0
    6.7377  -12.6065   26.4249 C   0  0  1  0  0  0  0  0  0  0  0  0
    7.4449  -11.6286   25.5077 C   0  0  0  0  0  0  0  0  0  0  0  0
    7.6046  -13.4050   27.2687 C   0  0  0  0  0  0  0  0  0  0  0  0
    8.6154  -14.3490   26.8105 C   0  0  2  0  0  0  0  0  0  0  0  0
    7.9765  -15.1840   25.7785 N   0  0  0  0  0  0  0  0  0  0  0  0
    9.2891  -15.1376   27.8064 C   0  0  0  0  0  0  0  0  0  0  0  0
   10.2328  -14.7289   28.7201 O   0  0  0  0  0  0  0  0  0  0  0  0
    9.0013  -16.3890   27.8734 O   0  0  0  0  0  0  0  0  0  0  0  0
  2  3  2  0
  2  1  1  0
  4  2  1  0
  5  4  1  0
  5  6  1  0
  6  8  1  0
  6  7  1  6
  8  9  2  0
 10 11  1  0
 11 13  1  0
 12 11  2  0
 13 14  1  0
 15 14  1  6
 16 15  1  0
 16  8  1  0
 17 24  1  0
 17 15  1  0
 18 17  2  0
 20 19  1  1
 20 21  1  0
 22 20  1  0
 23 22  1  1
 23 24  1  0
 25 26  1  0
 25 23  1  0
 27 25  2  0
M  END
$$$$
