LCC.pdb
     RDKit          3D

 21 20  0  0  1  0  0  0  0  0999 V2000
   16.5542  -12.5231  -10.2452 C   0  0  0  0  0  0  0  0  0  0  0  0
   15.6701  -12.1302  -11.4298 C   0  0  2  0  0  0  0  0  0  0  0  0
   16.1597  -12.8825  -12.6275 C   0  0  0  0  0  0  0  0  0  0  0  0
   15.7807  -10.6465  -11.5628 C   0  0  0  0  0  0  0  0  0  0  0  0
   15.2513   -9.8642  -10.3852 C   0  0  2  0  0  0  0  0  0  0  0  0
   13.8179  -10.1352  -10.3435 N   0  0  0  0  0  0  0  0  0  0  0  0
   15.5333   -8.4409  -10.5653 C   0  0  0  0  0  0  0  0  0  0  0  0
   14.9547   -7.7582  -11.4461 O   0  0  0  0  0  0  0  0  0  0  0  0
   16.4788   -7.7126   -9.7661 N   0  0  0  0  0  0  0  0  0  0  0  0
   16.7961   -6.3244  -10.0385 C   0  0  1  0  0  0  0  0  0  0  0  0
   16.6462   -5.5829   -8.7083 C   0  0  0  0  0  0  0  0  0  0  0  0
   14.8666   -5.5479   -8.3236 S   0  0  0  0  0  0  0  0  0  0  0  0
   18.2123   -6.1552  -10.4549 C   0  0  0  0  0  0  0  0  0  0  0  0
   19.1389   -6.7132   -9.8116 O   0  0  0  0  0  0  0  0  0  0  0  0
   18.5349   -5.3586  -11.5877 N   0  0  0  0  0  0  0  0  0  0  0  0
   19.8640   -5.2732  -12.1389 C   0  0  1  0  0  0  0  0  0  0  0  0
   20.3813   -6.6223  -12.5875 C   0  0  0  0  0  0  0  0  0  0  0  0
   22.0344   -6.4694  -13.3163 S   0  0  0  0  0  0  0  0  0  0  0  0
   19.9668   -4.2495  -13.2044 C   0  0  0  0  0  0  0  0  0  0  0  0
   21.0933   -3.4590  -13.3636 O   0  0  0  0  0  0  0  0  0  0  0  0
   19.0148   -4.0734  -14.0023 O   0  0  0  0  0  0  0  0  0  0  0  0
  2  1  1  1
  2  3  1  0
  4  2  1  0
  5  4  1  0
  5  6  1  6
  7  5  1  0
  7  8  2  0
  9  7  1  0
 10 13  1  0
 10  9  1  0
 10 11  1  1
 12 11  1  0
 13 15  1  0
 14 13  2  0
 15 16  1  0
 16 19  1  0
 17 18  1  0
 16 17  1  6
 19 21  2  0
 19 20  1  0
M  END
$$$$
