LCC.pdb
     RDKit          3D

 21 20  0  0  1  0  0  0  0  0999 V2000
   23.1268  -14.6182  -19.5287 C   0  0  0  0  0  0  0  0  0  0  0  0
   23.6539  -15.2345  -18.2319 C   0  0  2  0  0  0  0  0  0  0  0  0
   22.6676  -16.2702  -17.7908 C   0  0  0  0  0  0  0  0  0  0  0  0
   23.8165  -14.1065  -17.2663 C   0  0  0  0  0  0  0  0  0  0  0  0
   24.7720  -13.0255  -17.7108 C   0  0  2  0  0  0  0  0  0  0  0  0
   26.1055  -13.6083  -17.6021 N   0  0  0  0  0  0  0  0  0  0  0  0
   24.6202  -11.8459  -16.8602 C   0  0  0  0  0  0  0  0  0  0  0  0
   24.9653  -11.8521  -15.6530 O   0  0  0  0  0  0  0  0  0  0  0  0
   24.0737  -10.6005  -17.3221 N   0  0  0  0  0  0  0  0  0  0  0  0
   23.9806   -9.4421  -16.4552 C   0  0  1  0  0  0  0  0  0  0  0  0
   24.5440   -8.2646  -17.2537 C   0  0  0  0  0  0  0  0  0  0  0  0
   26.3506   -8.2916  -17.0260 S   0  0  0  0  0  0  0  0  0  0  0  0
   22.5686   -9.0996  -16.1442 C   0  0  0  0  0  0  0  0  0  0  0  0
   21.6714   -9.2325  -17.0166 O   0  0  0  0  0  0  0  0  0  0  0  0
   22.2168   -8.6170  -14.8537 N   0  0  0  0  0  0  0  0  0  0  0  0
   20.8730   -8.2422  -14.4915 C   0  0  1  0  0  0  0  0  0  0  0  0
   20.5218   -8.6741  -13.0847 C   0  0  0  0  0  0  0  0  0  0  0  0
   18.8617   -8.1041  -12.6304 S   0  0  0  0  0  0  0  0  0  0  0  0
   20.6093   -6.8026  -14.7194 C   0  0  0  0  0  0  0  0  0  0  0  0
   19.4414   -6.3498  -15.3112 O   0  0  0  0  0  0  0  0  0  0  0  0
   21.4570   -5.9448  -14.3737 O   0  0  0  0  0  0  0  0  0  0  0  0
  2  1  1  6
  2  3  1  0
  4  2  1  0
  5  4  1  0
  5  6  1  1
  7  5  1  0
  7  8  2  0
  9  7  1  0
 10 13  1  0
 10  9  1  0
 10 11  1  6
 12 11  1  0
 13 15  1  0
 14 13  2  0
 15 16  1  0
 16 19  1  0
 17 18  1  0
 16 17  1  1
 19 21  2  0
 19 20  1  0
M  END
$$$$
