LCC.pdb
     RDKit          3D

 21 20  0  0  1  0  0  0  0  0999 V2000
   24.3465  -15.9608  -18.8829 C   0  0  0  0  0  0  0  0  0  0  0  0
   23.8437  -16.6744  -17.6269 C   0  0  2  0  0  0  0  0  0  0  0  0
   22.3909  -16.9727  -17.8284 C   0  0  0  0  0  0  0  0  0  0  0  0
   24.1175  -15.7540  -16.4827 C   0  0  0  0  0  0  0  0  0  0  0  0
   25.5707  -15.3898  -16.2970 C   0  0  2  0  0  0  0  0  0  0  0  0
   26.1355  -16.4378  -15.4529 N   0  0  0  0  0  0  0  0  0  0  0  0
   25.6783  -14.0706  -15.6757 C   0  0  0  0  0  0  0  0  0  0  0  0
   25.5625  -13.9121  -14.4356 O   0  0  0  0  0  0  0  0  0  0  0  0
   25.9211  -12.8635  -16.4153 N   0  0  0  0  0  0  0  0  0  0  0  0
   26.0558  -11.5800  -15.7544 C   0  0  1  0  0  0  0  0  0  0  0  0
   27.4538  -11.0646  -16.1030 C   0  0  0  0  0  0  0  0  0  0  0  0
   27.6498   -9.4637  -15.2572 S   0  0  0  0  0  0  0  0  0  0  0  0
   25.0954  -10.5813  -16.2910 C   0  0  0  0  0  0  0  0  0  0  0  0
   25.0651  -10.3207  -17.5218 O   0  0  0  0  0  0  0  0  0  0  0  0
   24.1989   -9.9085  -15.4161 N   0  0  0  0  0  0  0  0  0  0  0  0
   23.2649   -8.9058  -15.8629 C   0  0  1  0  0  0  0  0  0  0  0  0
   22.0866   -8.7675  -14.9240 C   0  0  0  0  0  0  0  0  0  0  0  0
   21.2340  -10.3547  -14.7210 S   0  0  0  0  0  0  0  0  0  0  0  0
   23.9216   -7.6063  -16.1351 C   0  0  0  0  0  0  0  0  0  0  0  0
   23.2217   -6.5102  -16.6125 O   0  0  0  0  0  0  0  0  0  0  0  0
   25.1524   -7.4686  -15.9345 O   0  0  0  0  0  0  0  0  0  0  0  0
  2  1  1  6
  2  3  1  0
  4  2  1  0
  5  4  1  0
  5  6  1  1
  7  5  1  0
  7  8  2  0
  9  7  1  0
 10 13  1  0
 10  9  1  0
 10 11  1  6
 12 11  1  0
 13 15  1  0
 14 13  2  0
 15 16  1  0
 16 19  1  0
 17 18  1  0
 16 17  1  1
 19 21  2  0
 19 20  1  0
M  END
$$$$
