LCC.pdb
     RDKit          3D

 21 20  0  0  1  0  0  0  0  0999 V2000
   18.3216  -15.1868  -17.7722 C   0  0  0  0  0  0  0  0  0  0  0  0
   19.5057  -15.6419  -16.9177 C   0  0  2  0  0  0  0  0  0  0  0  0
   19.0135  -16.7172  -16.0003 C   0  0  0  0  0  0  0  0  0  0  0  0
   20.0042  -14.4254  -16.2085 C   0  0  0  0  0  0  0  0  0  0  0  0
   20.4013  -13.2836  -17.1127 C   0  0  2  0  0  0  0  0  0  0  0  0
   21.5457  -13.7666  -17.8788 N   0  0  0  0  0  0  0  0  0  0  0  0
   20.7372  -12.1074  -16.3117 C   0  0  0  0  0  0  0  0  0  0  0  0
   19.9261  -11.6125  -15.4910 O   0  0  0  0  0  0  0  0  0  0  0  0
   22.0001  -11.4280  -16.3918 N   0  0  0  0  0  0  0  0  0  0  0  0
   22.2727  -10.2340  -15.6158 C   0  0  1  0  0  0  0  0  0  0  0  0
   23.7497   -9.9045  -15.8432 C   0  0  0  0  0  0  0  0  0  0  0  0
   24.7105  -11.0645  -14.8196 S   0  0  0  0  0  0  0  0  0  0  0  0
   21.5016   -9.0658  -16.1143 C   0  0  0  0  0  0  0  0  0  0  0  0
   21.0892   -9.0321  -17.3027 O   0  0  0  0  0  0  0  0  0  0  0  0
   21.2215   -7.9717  -15.2503 N   0  0  0  0  0  0  0  0  0  0  0  0
   20.2980   -6.9176  -15.5871 C   0  0  1  0  0  0  0  0  0  0  0  0
   18.9150   -7.4492  -15.8928 C   0  0  0  0  0  0  0  0  0  0  0  0
   17.6495   -6.2039  -15.5258 S   0  0  0  0  0  0  0  0  0  0  0  0
   20.2741   -5.8433  -14.5676 C   0  0  0  0  0  0  0  0  0  0  0  0
   20.8429   -6.0010  -13.3143 O   0  0  0  0  0  0  0  0  0  0  0  0
   19.7261   -4.7442  -14.8239 O   0  0  0  0  0  0  0  0  0  0  0  0
  2  1  1  6
  2  3  1  0
  4  2  1  0
  5  4  1  0
  5  6  1  1
  7  5  1  0
  7  8  2  0
  9  7  1  0
 10 13  1  0
 10  9  1  0
 10 11  1  6
 12 11  1  0
 13 15  1  0
 14 13  2  0
 15 16  1  0
 16 19  1  0
 17 18  1  0
 16 17  1  1
 19 21  2  0
 19 20  1  0
M  END
$$$$
