LCC.pdb
     RDKit          3D

 21 20  0  0  1  0  0  0  0  0999 V2000
   27.9055   -9.4466  -16.2106 C   0  0  0  0  0  0  0  0  0  0  0  0
   26.6961  -10.2256  -15.6910 C   0  0  2  0  0  0  0  0  0  0  0  0
   27.1870  -11.5576  -15.2168 C   0  0  0  0  0  0  0  0  0  0  0  0
   25.7300  -10.3085  -16.8272 C   0  0  0  0  0  0  0  0  0  0  0  0
   24.3911  -10.9115  -16.4770 C   0  0  2  0  0  0  0  0  0  0  0  0
   24.3825  -12.2362  -17.0893 N   0  0  0  0  0  0  0  0  0  0  0  0
   23.3143  -10.0656  -16.9898 C   0  0  0  0  0  0  0  0  0  0  0  0
   23.1110   -9.9274  -18.2211 O   0  0  0  0  0  0  0  0  0  0  0  0
   22.4119   -9.3328  -16.1462 N   0  0  0  0  0  0  0  0  0  0  0  0
   21.2923   -8.5908  -16.6925 C   0  0  1  0  0  0  0  0  0  0  0  0
   20.0481   -9.0905  -15.9549 C   0  0  0  0  0  0  0  0  0  0  0  0
   19.7184  -10.7755  -16.5619 S   0  0  0  0  0  0  0  0  0  0  0  0
   21.3986   -7.1384  -16.3980 C   0  0  0  0  0  0  0  0  0  0  0  0
   21.8625   -6.7414  -15.2976 O   0  0  0  0  0  0  0  0  0  0  0  0
   20.9758   -6.1803  -17.3599 N   0  0  0  0  0  0  0  0  0  0  0  0
   21.0931   -4.7577  -17.1601 C   0  0  1  0  0  0  0  0  0  0  0  0
   21.4627   -4.0328  -18.4355 C   0  0  0  0  0  0  0  0  0  0  0  0
   21.6673   -2.2571  -18.1321 S   0  0  0  0  0  0  0  0  0  0  0  0
   19.8928   -4.1794  -16.5130 C   0  0  0  0  0  0  0  0  0  0  0  0
   18.6139   -4.6383  -16.7834 O   0  0  0  0  0  0  0  0  0  0  0  0
   20.0123   -3.2413  -15.6885 O   0  0  0  0  0  0  0  0  0  0  0  0
  2  1  1  6
  2  3  1  0
  4  2  1  0
  5  4  1  0
  5  6  1  6
  7  5  1  0
  7  8  2  0
  9  7  1  0
 10 13  1  0
 10  9  1  0
 10 11  1  1
 12 11  1  0
 13 15  1  0
 14 13  2  0
 15 16  1  0
 16 19  1  0
 17 18  1  0
 16 17  1  6
 19 21  2  0
 19 20  1  0
M  END
$$$$
