LCC.pdb
     RDKit          3D

 21 20  0  0  1  0  0  0  0  0999 V2000
   17.0889  -12.6028  -18.0646 C   0  0  0  0  0  0  0  0  0  0  0  0
   17.1893  -13.3275  -16.7214 C   0  0  2  0  0  0  0  0  0  0  0  0
   15.8332  -13.8740  -16.4010 C   0  0  0  0  0  0  0  0  0  0  0  0
   17.6816  -12.3191  -15.7356 C   0  0  0  0  0  0  0  0  0  0  0  0
   19.0054  -11.6842  -16.0870 C   0  0  2  0  0  0  0  0  0  0  0  0
   20.0210  -12.6760  -15.7484 N   0  0  0  0  0  0  0  0  0  0  0  0
   19.1793  -10.4443  -15.3318 C   0  0  0  0  0  0  0  0  0  0  0  0
   19.0347  -10.4033  -14.0852 O   0  0  0  0  0  0  0  0  0  0  0  0
   19.5243   -9.1887  -15.9379 N   0  0  0  0  0  0  0  0  0  0  0  0
   19.6698   -7.9788  -15.1523 C   0  0  1  0  0  0  0  0  0  0  0  0
   21.1517   -7.8850  -14.7826 C   0  0  0  0  0  0  0  0  0  0  0  0
   22.0951   -8.2124  -16.3055 S   0  0  0  0  0  0  0  0  0  0  0  0
   19.3596   -6.7642  -15.9500 C   0  0  0  0  0  0  0  0  0  0  0  0
   19.1583   -6.8475  -17.1894 O   0  0  0  0  0  0  0  0  0  0  0  0
   19.2870   -5.4923  -15.3182 N   0  0  0  0  0  0  0  0  0  0  0  0
   18.9047   -4.2881  -16.0120 C   0  0  1  0  0  0  0  0  0  0  0  0
   17.5564   -4.4231  -16.6849 C   0  0  0  0  0  0  0  0  0  0  0  0
   17.0447   -2.8493  -17.4255 S   0  0  0  0  0  0  0  0  0  0  0  0
   18.9820   -3.0901  -15.1444 C   0  0  0  0  0  0  0  0  0  0  0  0
   19.4838   -1.8808  -15.5972 O   0  0  0  0  0  0  0  0  0  0  0  0
   18.5860   -3.1471  -13.9554 O   0  0  0  0  0  0  0  0  0  0  0  0
  2  1  1  6
  2  3  1  0
  4  2  1  0
  5  4  1  0
  5  6  1  1
  7  5  1  0
  7  8  2  0
  9  7  1  0
 10 13  1  0
 10  9  1  0
 10 11  1  6
 12 11  1  0
 13 15  1  0
 14 13  2  0
 15 16  1  0
 16 19  1  0
 17 18  1  0
 16 17  1  1
 19 21  2  0
 19 20  1  0
M  END
$$$$
