LCC.pdb
     RDKit          3D

 21 20  0  0  1  0  0  0  0  0999 V2000
   20.7877  -15.8903  -18.3411 C   0  0  0  0  0  0  0  0  0  0  0  0
   21.1089  -14.6851  -19.2264 C   0  0  2  0  0  0  0  0  0  0  0  0
   21.9716  -15.1676  -20.3502 C   0  0  0  0  0  0  0  0  0  0  0  0
   21.7745  -13.6807  -18.3435 C   0  0  0  0  0  0  0  0  0  0  0  0
   21.7107  -12.2576  -18.8431 C   0  0  2  0  0  0  0  0  0  0  0  0
   22.5968  -12.2059  -20.0016 N   0  0  0  0  0  0  0  0  0  0  0  0
   22.1367  -11.3395  -17.7879 C   0  0  0  0  0  0  0  0  0  0  0  0
   21.5739  -11.3146  -16.6658 O   0  0  0  0  0  0  0  0  0  0  0  0
   23.2156  -10.4035  -17.9394 N   0  0  0  0  0  0  0  0  0  0  0  0
   23.5780   -9.4819  -16.8805 C   0  0  1  0  0  0  0  0  0  0  0  0
   25.0416   -9.1066  -17.1231 C   0  0  0  0  0  0  0  0  0  0  0  0
   25.4903   -7.8878  -15.8465 S   0  0  0  0  0  0  0  0  0  0  0  0
   22.8024   -8.2172  -16.9624 C   0  0  0  0  0  0  0  0  0  0  0  0
   22.7334   -7.5784  -18.0444 O   0  0  0  0  0  0  0  0  0  0  0  0
   22.1287   -7.7153  -15.8151 N   0  0  0  0  0  0  0  0  0  0  0  0
   21.3778   -6.4850  -15.8171 C   0  0  1  0  0  0  0  0  0  0  0  0
   19.8983   -6.7214  -15.6073 C   0  0  0  0  0  0  0  0  0  0  0  0
   19.0866   -5.2220  -14.9907 S   0  0  0  0  0  0  0  0  0  0  0  0
   21.9274   -5.4886  -14.8689 C   0  0  0  0  0  0  0  0  0  0  0  0
   21.7838   -4.1247  -15.0643 O   0  0  0  0  0  0  0  0  0  0  0  0
   22.5480   -5.8678  -13.8466 O   0  0  0  0  0  0  0  0  0  0  0  0
  2  1  1  1
  2  3  1  0
  4  2  1  0
  5  4  1  0
  5  6  1  6
  7  5  1  0
  7  8  2  0
  9  7  1  0
 10 13  1  0
 10  9  1  0
 10 11  1  6
 12 11  1  0
 13 15  1  0
 14 13  2  0
 15 16  1  0
 16 19  1  0
 17 18  1  0
 16 17  1  1
 19 21  2  0
 19 20  1  0
M  END
$$$$
