LCC.pdb
     RDKit          3D

 21 20  0  0  1  0  0  0  0  0999 V2000
   19.8289  -14.1925  -16.2972 C   0  0  0  0  0  0  0  0  0  0  0  0
   18.4710  -13.7539  -16.8479 C   0  0  2  0  0  0  0  0  0  0  0  0
   18.2958  -14.4021  -18.1856 C   0  0  0  0  0  0  0  0  0  0  0  0
   18.5010  -12.2614  -16.9001 C   0  0  0  0  0  0  0  0  0  0  0  0
   18.6876  -11.5849  -15.5635 C   0  0  2  0  0  0  0  0  0  0  0  0
   17.6053  -12.0771  -14.7174 N   0  0  0  0  0  0  0  0  0  0  0  0
   18.6351  -10.1330  -15.7284 C   0  0  0  0  0  0  0  0  0  0  0  0
   19.3493   -9.5368  -16.5716 O   0  0  0  0  0  0  0  0  0  0  0  0
   17.7785   -9.2778  -14.9552 N   0  0  0  0  0  0  0  0  0  0  0  0
   17.7182   -7.8482  -15.1892 C   0  0  1  0  0  0  0  0  0  0  0  0
   16.3169   -7.4044  -14.7639 C   0  0  0  0  0  0  0  0  0  0  0  0
   15.1523   -8.1104  -15.9728 S   0  0  0  0  0  0  0  0  0  0  0  0
   18.6726   -7.1082  -14.3236 C   0  0  0  0  0  0  0  0  0  0  0  0
   18.8208   -7.4286  -13.1157 O   0  0  0  0  0  0  0  0  0  0  0  0
   19.4297   -6.0276  -14.8538 N   0  0  0  0  0  0  0  0  0  0  0  0
   20.3552   -5.2523  -14.0664 C   0  0  1  0  0  0  0  0  0  0  0  0
   21.7367   -5.8687  -14.0423 C   0  0  0  0  0  0  0  0  0  0  0  0
   22.9088   -4.7909  -13.1753 S   0  0  0  0  0  0  0  0  0  0  0  0
   20.3828   -3.8278  -14.4711 C   0  0  0  0  0  0  0  0  0  0  0  0
   20.4734   -2.7989  -13.5479 O   0  0  0  0  0  0  0  0  0  0  0  0
   20.3232   -3.5169  -15.6851 O   0  0  0  0  0  0  0  0  0  0  0  0
  2  1  1  6
  2  3  1  0
  4  2  1  0
  5  4  1  0
  5  6  1  1
  7  5  1  0
  7  8  2  0
  9  7  1  0
 10 13  1  0
 10  9  1  0
 10 11  1  1
 12 11  1  0
 13 15  1  0
 14 13  2  0
 15 16  1  0
 16 19  1  0
 17 18  1  0
 16 17  1  6
 19 21  2  0
 19 20  1  0
M  END
$$$$
