FIH.pdb
     RDKit          3D

 30 31  0  0  1  0  0  0  0  0999 V2000
   24.3968   -9.4112  -18.5566 N   0  0  0  0  0  0  0  0  0  0  0  0
   23.8543   -8.8057  -17.3832 C   0  0  1  0  0  0  0  0  0  0  0  0
   24.8516   -7.9341  -16.6384 C   0  0  0  0  0  0  0  0  0  0  0  0
   26.0693   -8.6909  -16.2716 C   0  0  0  0  0  0  0  0  0  0  0  0
   27.2394   -8.5596  -16.9805 C   0  0  0  0  0  0  0  0  0  0  0  0
   28.3392   -9.2913  -16.5897 C   0  0  0  0  0  0  0  0  0  0  0  0
   28.3294  -10.1590  -15.5123 C   0  0  0  0  0  0  0  0  0  0  0  0
   27.1313  -10.2643  -14.8224 C   0  0  0  0  0  0  0  0  0  0  0  0
   26.0201   -9.5436  -15.1944 C   0  0  0  0  0  0  0  0  0  0  0  0
   22.6411   -7.9912  -17.6553 C   0  0  0  0  0  0  0  0  0  0  0  0
   22.4993   -7.5337  -18.8295 O   0  0  0  0  0  0  0  0  0  0  0  0
   16.7838   -8.5570  -16.8437 C   0  0  0  0  0  0  0  0  0  0  0  0
   17.8865   -7.5159  -17.0508 C   0  0  0  0  0  0  0  0  0  0  0  0
   19.2426   -8.1217  -16.7732 C   0  0  2  0  0  0  0  0  0  0  0  0
   19.2587   -8.8207  -15.4426 C   0  0  0  0  0  0  0  0  0  0  0  0
   20.3419   -7.1423  -16.9903 C   0  0  2  0  0  0  0  0  0  0  0  0
   21.6504   -7.7032  -16.6884 N   0  0  0  0  0  0  0  0  0  0  0  0
   20.1487   -5.9115  -16.1620 C   0  0  0  0  0  0  0  0  0  0  0  0
   20.5539   -5.8127  -14.9765 O   0  0  0  0  0  0  0  0  0  0  0  0
   19.4857   -4.7711  -16.6816 N   0  0  0  0  0  0  0  0  0  0  0  0
   19.4678   -3.5172  -15.9216 C   0  0  1  0  0  0  0  0  0  0  0  0
   19.5563   -2.3255  -16.8057 C   0  0  0  0  0  0  0  0  0  0  0  0
   20.9026   -2.2069  -17.3725 C   0  0  0  0  0  0  0  0  0  0  0  0
   21.3208   -2.2204  -18.6750 C   0  0  0  0  0  0  0  0  0  0  0  0
   22.6701   -2.0086  -18.6934 N   0  0  0  0  0  0  0  0  0  0  0  0
   23.0866   -1.8651  -17.4377 C   0  0  0  0  0  0  0  0  0  0  0  0
   22.0255   -1.9835  -16.6382 N   0  0  0  0  0  0  0  0  0  0  0  0
   18.0440   -3.5079  -15.3795 C   0  0  0  0  0  0  0  0  0  0  0  0
   17.1836   -4.3604  -15.7976 O   0  0  0  0  0  0  0  0  0  0  0  0
   17.5722   -2.6310  -14.4442 O   0  0  0  0  0  0  0  0  0  0  0  0
  2  1  1  6
  2 10  1  0
  3  2  1  0
  3  4  1  0
  4  9  1  0
  4  5  2  0
  5  6  1  0
  6  7  2  0
  8  7  1  0
  9  8  2  0
 10 11  2  0
 13 12  1  0
 14 13  1  0
 14 15  1  1
 16 14  1  0
 17 10  1  0
 16 17  1  1
 18 16  1  0
 18 19  2  0
 20 18  1  0
 21 20  1  0
 21 22  1  6
 23 24  2  0
 23 22  1  0
 25 24  1  0
 26 27  2  0
 26 25  1  0
 27 23  1  0
 28 30  1  0
 28 21  1  0
 29 28  2  0
M  END
$$$$
