FIH.pdb
     RDKit          3D

 30 31  0  0  1  0  0  0  0  0999 V2000
   19.7757  -13.4046  -19.1247 N   0  0  0  0  0  0  0  0  0  0  0  0
   20.5563  -12.2163  -19.2529 C   0  0  1  0  0  0  0  0  0  0  0  0
   20.1625  -11.3622  -20.4464 C   0  0  0  0  0  0  0  0  0  0  0  0
   20.3674  -12.0820  -21.7230 C   0  0  0  0  0  0  0  0  0  0  0  0
   19.3109  -12.5862  -22.4429 C   0  0  0  0  0  0  0  0  0  0  0  0
   19.5663  -13.2470  -23.6244 C   0  0  0  0  0  0  0  0  0  0  0  0
   20.8406  -13.4320  -24.1299 C   0  0  0  0  0  0  0  0  0  0  0  0
   21.8800  -12.9094  -23.3757 C   0  0  0  0  0  0  0  0  0  0  0  0
   21.6489  -12.2459  -22.1929 C   0  0  0  0  0  0  0  0  0  0  0  0
   20.5181  -11.3599  -18.0386 C   0  0  0  0  0  0  0  0  0  0  0  0
   19.4245  -11.3070  -17.3987 O   0  0  0  0  0  0  0  0  0  0  0  0
   23.9695  -11.7471  -14.1896 C   0  0  0  0  0  0  0  0  0  0  0  0
   22.7405  -11.4699  -15.0588 C   0  0  0  0  0  0  0  0  0  0  0  0
   22.6889  -10.0112  -15.4492 C   0  0  2  0  0  0  0  0  0  0  0  0
   22.7252   -9.1264  -14.2346 C   0  0  0  0  0  0  0  0  0  0  0  0
   21.5836   -9.7325  -16.4061 C   0  0  2  0  0  0  0  0  0  0  0  0
   21.6204  -10.6115  -17.5654 N   0  0  0  0  0  0  0  0  0  0  0  0
   21.6177   -8.3146  -16.8823 C   0  0  0  0  0  0  0  0  0  0  0  0
   22.5917   -7.8249  -17.5075 O   0  0  0  0  0  0  0  0  0  0  0  0
   20.5322   -7.4332  -16.6484 N   0  0  0  0  0  0  0  0  0  0  0  0
   20.6019   -6.0398  -17.0997 C   0  0  1  0  0  0  0  0  0  0  0  0
   19.4239   -5.6581  -17.9221 C   0  0  0  0  0  0  0  0  0  0  0  0
   19.5014   -4.2452  -18.3035 C   0  0  0  0  0  0  0  0  0  0  0  0
   20.5715   -3.3936  -18.3387 C   0  0  0  0  0  0  0  0  0  0  0  0
   20.1458   -2.1916  -18.8284 N   0  0  0  0  0  0  0  0  0  0  0  0
   18.8453   -2.2867  -19.0941 C   0  0  0  0  0  0  0  0  0  0  0  0
   18.4525   -3.5220  -18.7798 N   0  0  0  0  0  0  0  0  0  0  0  0
   20.4349   -5.2841  -15.7874 C   0  0  0  0  0  0  0  0  0  0  0  0
   20.6891   -4.0299  -15.7225 O   0  0  0  0  0  0  0  0  0  0  0  0
   20.0211   -5.8452  -14.6125 O   0  0  0  0  0  0  0  0  0  0  0  0
  2  1  1  1
  2 10  1  0
  3  2  1  0
  3  4  1  0
  4  9  1  0
  4  5  2  0
  5  6  1  0
  6  7  2  0
  8  7  1  0
  9  8  2  0
 10 11  2  0
 13 12  1  0
 14 13  1  0
 14 15  1  1
 16 14  1  0
 17 10  1  0
 16 17  1  6
 18 16  1  0
 18 19  2  0
 20 18  1  0
 21 20  1  0
 21 22  1  6
 23 24  2  0
 23 22  1  0
 25 24  1  0
 26 27  2  0
 26 25  1  0
 27 23  1  0
 28 30  1  0
 28 21  1  0
 29 28  2  0
M  END
$$$$
