FIH.pdb
     RDKit          3D

 30 31  0  0  1  0  0  0  0  0999 V2000
   27.1265  -35.3426   -4.8104 N   0  0  0  0  0  0  0  0  0  0  0  0
   26.5383  -34.2225   -4.1492 C   0  0  1  0  0  0  0  0  0  0  0  0
   25.3057  -33.6841   -4.8561 C   0  0  0  0  0  0  0  0  0  0  0  0
   25.6089  -33.2769   -6.2461 C   0  0  0  0  0  0  0  0  0  0  0  0
   26.5373  -32.3026   -6.5247 C   0  0  0  0  0  0  0  0  0  0  0  0
   26.7755  -31.9675   -7.8395 C   0  0  0  0  0  0  0  0  0  0  0  0
   26.1246  -32.5643   -8.9044 C   0  0  0  0  0  0  0  0  0  0  0  0
   25.1956  -33.5422   -8.5833 C   0  0  0  0  0  0  0  0  0  0  0  0
   24.9413  -33.8933   -7.2777 C   0  0  0  0  0  0  0  0  0  0  0  0
   26.1746  -34.5049   -2.7359 C   0  0  0  0  0  0  0  0  0  0  0  0
   26.3834  -35.6793   -2.3054 O   0  0  0  0  0  0  0  0  0  0  0  0
   26.8636  -32.2377    2.7422 C   0  0  0  0  0  0  0  0  0  0  0  0
   25.9155  -33.0817    1.8869 C   0  0  0  0  0  0  0  0  0  0  0  0
   26.2128  -32.8842    0.4187 C   0  0  2  0  0  0  0  0  0  0  0  0
   26.1865  -31.4261    0.0547 C   0  0  0  0  0  0  0  0  0  0  0  0
   25.3787  -33.7690   -0.4394 C   0  0  2  0  0  0  0  0  0  0  0  0
   25.6160  -33.5475   -1.8581 N   0  0  0  0  0  0  0  0  0  0  0  0
   23.9203  -33.5792   -0.1651 C   0  0  0  0  0  0  0  0  0  0  0  0
   23.2350  -32.6711   -0.6991 O   0  0  0  0  0  0  0  0  0  0  0  0
   23.2225  -34.4302    0.7286 N   0  0  0  0  0  0  0  0  0  0  0  0
   21.8101  -34.1813    1.0343 C   0  0  1  0  0  0  0  0  0  0  0  0
   21.3387  -32.8832    0.4842 C   0  0  0  0  0  0  0  0  0  0  0  0
   21.2907  -31.8668    1.5389 C   0  0  0  0  0  0  0  0  0  0  0  0
   21.7935  -31.8847    2.8111 C   0  0  0  0  0  0  0  0  0  0  0  0
   21.5482  -30.6698    3.3853 N   0  0  0  0  0  0  0  0  0  0  0  0
   20.9104  -29.9106    2.4977 C   0  0  0  0  0  0  0  0  0  0  0  0
   20.7532  -30.6271    1.3837 N   0  0  0  0  0  0  0  0  0  0  0  0
   21.1217  -35.2467    0.1905 C   0  0  0  0  0  0  0  0  0  0  0  0
   19.8430  -35.3223    0.1555 O   0  0  0  0  0  0  0  0  0  0  0  0
   21.7706  -36.1783   -0.5694 O   0  0  0  0  0  0  0  0  0  0  0  0
  2  1  1  6
  2 10  1  0
  3  2  1  0
  3  4  1  0
  4  9  1  0
  4  5  2  0
  5  6  1  0
  6  7  2  0
  8  7  1  0
  9  8  2  0
 10 11  2  0
 13 12  1  0
 14 13  1  0
 14 15  1  6
 16 14  1  0
 17 10  1  0
 16 17  1  6
 18 16  1  0
 18 19  2  0
 20 18  1  0
 21 20  1  0
 21 22  1  6
 23 24  2  0
 23 22  1  0
 25 24  1  0
 26 27  2  0
 26 25  1  0
 27 23  1  0
 28 30  1  0
 28 21  1  0
 29 28  2  0
M  END
$$$$
