FIH.pdb
     RDKit          3D

 30 31  0  0  1  0  0  0  0  0999 V2000
   28.6616  -20.9820  -16.2818 N   0  0  0  0  0  0  0  0  0  0  0  0
   27.6296  -20.3797  -15.5008 C   0  0  1  0  0  0  0  0  0  0  0  0
   26.6777  -19.5224  -16.3180 C   0  0  0  0  0  0  0  0  0  0  0  0
   27.3998  -18.4749  -17.0737 C   0  0  0  0  0  0  0  0  0  0  0  0
   28.0264  -17.4305  -16.4370 C   0  0  0  0  0  0  0  0  0  0  0  0
   28.6824  -16.4864  -17.1959 C   0  0  0  0  0  0  0  0  0  0  0  0
   28.7451  -16.5333  -18.5771 C   0  0  0  0  0  0  0  0  0  0  0  0
   28.1012  -17.6014  -19.1829 C   0  0  0  0  0  0  0  0  0  0  0  0
   27.4399  -18.5560  -18.4455 C   0  0  0  0  0  0  0  0  0  0  0  0
   26.8231  -21.3685  -14.7385 C   0  0  0  0  0  0  0  0  0  0  0  0
   27.3710  -22.4793  -14.4662 O   0  0  0  0  0  0  0  0  0  0  0  0
   25.9877  -20.4642   -9.4352 C   0  0  0  0  0  0  0  0  0  0  0  0
   25.2949  -21.2793  -10.5299 C   0  0  0  0  0  0  0  0  0  0  0  0
   25.7666  -20.8367  -11.8953 C   0  0  2  0  0  0  0  0  0  0  0  0
   25.8610  -19.3386  -11.9737 C   0  0  0  0  0  0  0  0  0  0  0  0
   24.9881  -21.4828  -12.9868 C   0  0  2  0  0  0  0  0  0  0  0  0
   25.4963  -21.1401  -14.3068 N   0  0  0  0  0  0  0  0  0  0  0  0
   23.5411  -21.1081  -12.9215 C   0  0  0  0  0  0  0  0  0  0  0  0
   22.8197  -21.3324  -11.9173 O   0  0  0  0  0  0  0  0  0  0  0  0
   22.8966  -20.4683  -14.0102 N   0  0  0  0  0  0  0  0  0  0  0  0
   21.5110  -20.8067  -14.3505 C   0  0  1  0  0  0  0  0  0  0  0  0
   20.7651  -19.6383  -14.8874 C   0  0  0  0  0  0  0  0  0  0  0  0
   20.4671  -18.6841  -13.8157 C   0  0  0  0  0  0  0  0  0  0  0  0
   20.5024  -18.8375  -12.4567 C   0  0  0  0  0  0  0  0  0  0  0  0
   20.2040  -17.6346  -11.8825 N   0  0  0  0  0  0  0  0  0  0  0  0
   19.9887  -16.7510  -12.8540 C   0  0  0  0  0  0  0  0  0  0  0  0
   20.1463  -17.3783  -14.0205 N   0  0  0  0  0  0  0  0  0  0  0  0
   21.7065  -21.7374  -15.5407 C   0  0  0  0  0  0  0  0  0  0  0  0
   20.7063  -22.3463  -16.0610 O   0  0  0  0  0  0  0  0  0  0  0  0
   22.9082  -22.0000  -16.1352 O   0  0  0  0  0  0  0  0  0  0  0  0
  2  1  1  6
  2 10  1  0
  3  2  1  0
  3  4  1  0
  4  9  1  0
  4  5  2  0
  5  6  1  0
  6  7  2  0
  8  7  1  0
  9  8  2  0
 10 11  2  0
 13 12  1  0
 14 13  1  0
 14 15  1  1
 16 14  1  0
 17 10  1  0
 16 17  1  6
 18 16  1  0
 18 19  2  0
 20 18  1  0
 21 20  1  0
 21 22  1  6
 23 24  2  0
 23 22  1  0
 25 24  1  0
 26 27  2  0
 26 25  1  0
 27 23  1  0
 28 30  1  0
 28 21  1  0
 29 28  2  0
M  END
$$$$
