FIH.pdb
     RDKit          3D

 30 31  0  0  1  0  0  0  0  0999 V2000
   21.3117  -29.2393    3.7492 N   0  0  0  0  0  0  0  0  0  0  0  0
   22.0909  -29.3434    4.9408 C   0  0  1  0  0  0  0  0  0  0  0  0
   21.3058  -29.8704    6.1302 C   0  0  0  0  0  0  0  0  0  0  0  0
   20.2458  -28.9251    6.5457 C   0  0  0  0  0  0  0  0  0  0  0  0
   20.5154  -27.8568    7.3672 C   0  0  0  0  0  0  0  0  0  0  0  0
   19.4858  -27.0119    7.7189 C   0  0  0  0  0  0  0  0  0  0  0  0
   18.1831  -27.1823    7.2857 C   0  0  0  0  0  0  0  0  0  0  0  0
   17.9506  -28.2707    6.4588 C   0  0  0  0  0  0  0  0  0  0  0  0
   18.9632  -29.1278    6.0944 C   0  0  0  0  0  0  0  0  0  0  0  0
   23.3012  -30.1898    4.7737 C   0  0  0  0  0  0  0  0  0  0  0  0
   23.2680  -31.0802    3.8713 O   0  0  0  0  0  0  0  0  0  0  0  0
   27.7899  -27.7317    5.9626 C   0  0  0  0  0  0  0  0  0  0  0  0
   27.0293  -28.7271    5.0831 C   0  0  0  0  0  0  0  0  0  0  0  0
   26.9064  -30.0612    5.7815 C   0  0  2  0  0  0  0  0  0  0  0  0
   28.1977  -30.8274    5.7113 C   0  0  0  0  0  0  0  0  0  0  0  0
   25.6983  -30.8092    5.3388 C   0  0  2  0  0  0  0  0  0  0  0  0
   24.4714  -30.0573    5.5563 N   0  0  0  0  0  0  0  0  0  0  0  0
   25.5819  -32.1245    6.0421 C   0  0  0  0  0  0  0  0  0  0  0  0
   25.3024  -32.2264    7.2631 O   0  0  0  0  0  0  0  0  0  0  0  0
   25.7847  -33.3475    5.3544 N   0  0  0  0  0  0  0  0  0  0  0  0
   25.6732  -34.6235    6.0683 C   0  0  1  0  0  0  0  0  0  0  0  0
   25.4177  -35.7607    5.1455 C   0  0  0  0  0  0  0  0  0  0  0  0
   25.3436  -37.0196    5.8922 C   0  0  0  0  0  0  0  0  0  0  0  0
   26.3325  -37.8861    6.2700 C   0  0  0  0  0  0  0  0  0  0  0  0
   25.7663  -38.8859    7.0085 N   0  0  0  0  0  0  0  0  0  0  0  0
   24.4588  -38.6527    7.0926 C   0  0  0  0  0  0  0  0  0  0  0  0
   24.1992  -37.5293    6.4219 N   0  0  0  0  0  0  0  0  0  0  0  0
   27.1001  -34.8233    6.5633 C   0  0  0  0  0  0  0  0  0  0  0  0
   28.0953  -34.4645    5.8403 O   0  0  0  0  0  0  0  0  0  0  0  0
   27.4372  -35.3791    7.7649 O   0  0  0  0  0  0  0  0  0  0  0  0
  2  1  1  6
  2 10  1  0
  3  2  1  0
  3  4  1  0
  4  9  1  0
  4  5  2  0
  5  6  1  0
  6  7  2  0
  8  7  1  0
  9  8  2  0
 10 11  2  0
 13 12  1  0
 14 13  1  0
 14 15  1  6
 16 14  1  0
 17 10  1  0
 16 17  1  1
 18 16  1  0
 18 19  2  0
 20 18  1  0
 21 20  1  0
 21 22  1  6
 23 24  2  0
 23 22  1  0
 25 24  1  0
 26 27  2  0
 26 25  1  0
 27 23  1  0
 28 30  1  0
 28 21  1  0
 29 28  2  0
M  END
$$$$
