FIH.pdb
     RDKit          3D

 30 31  0  0  1  0  0  0  0  0999 V2000
   18.2717  -24.4176  -13.5911 N   0  0  0  0  0  0  0  0  0  0  0  0
   17.7561  -23.6646  -12.4933 C   0  0  1  0  0  0  0  0  0  0  0  0
   16.2564  -23.8219  -12.3059 C   0  0  0  0  0  0  0  0  0  0  0  0
   15.5014  -23.2328  -13.4342 C   0  0  0  0  0  0  0  0  0  0  0  0
   15.4230  -21.8727  -13.6158 C   0  0  0  0  0  0  0  0  0  0  0  0
   14.7048  -21.3850  -14.6854 C   0  0  0  0  0  0  0  0  0  0  0  0
   14.0522  -22.1979  -15.5949 C   0  0  0  0  0  0  0  0  0  0  0  0
   14.1544  -23.5635  -15.3783 C   0  0  0  0  0  0  0  0  0  0  0  0
   14.8661  -24.0734  -14.3172 C   0  0  0  0  0  0  0  0  0  0  0  0
   18.4196  -23.9865  -11.2028 C   0  0  0  0  0  0  0  0  0  0  0  0
   18.9124  -25.1482  -11.0763 O   0  0  0  0  0  0  0  0  0  0  0  0
   21.5212  -20.3127   -8.8769 C   0  0  0  0  0  0  0  0  0  0  0  0
   20.9141  -21.6265   -9.3750 C   0  0  0  0  0  0  0  0  0  0  0  0
   19.9564  -22.1871   -8.3496 C   0  0  2  0  0  0  0  0  0  0  0  0
   20.6417  -22.3935   -7.0279 C   0  0  0  0  0  0  0  0  0  0  0  0
   19.2135  -23.3663   -8.8718 C   0  0  2  0  0  0  0  0  0  0  0  0
   18.5293  -23.0795  -10.1238 N   0  0  0  0  0  0  0  0  0  0  0  0
   18.2069  -23.8603   -7.8813 C   0  0  0  0  0  0  0  0  0  0  0  0
   17.0820  -23.3233   -7.7216 O   0  0  0  0  0  0  0  0  0  0  0  0
   18.4752  -24.9812   -7.0557 N   0  0  0  0  0  0  0  0  0  0  0  0
   17.4460  -25.4896   -6.1434 C   0  0  1  0  0  0  0  0  0  0  0  0
   17.6675  -26.9163   -5.7889 C   0  0  0  0  0  0  0  0  0  0  0  0
   17.3246  -27.7841   -6.9190 C   0  0  0  0  0  0  0  0  0  0  0  0
   16.4124  -27.6126   -7.9240 C   0  0  0  0  0  0  0  0  0  0  0  0
   16.5118  -28.6741   -8.7778 N   0  0  0  0  0  0  0  0  0  0  0  0
   17.4606  -29.4883   -8.3219 C   0  0  0  0  0  0  0  0  0  0  0  0
   17.9535  -28.9564   -7.2024 N   0  0  0  0  0  0  0  0  0  0  0  0
   17.7521  -24.7095   -4.8710 C   0  0  0  0  0  0  0  0  0  0  0  0
   18.9198  -24.2204   -4.6735 O   0  0  0  0  0  0  0  0  0  0  0  0
   16.8553  -24.4716   -3.8683 O   0  0  0  0  0  0  0  0  0  0  0  0
  2  1  1  6
  2 10  1  0
  3  2  1  0
  3  4  1  0
  4  9  1  0
  4  5  2  0
  5  6  1  0
  6  7  2  0
  8  7  1  0
  9  8  2  0
 10 11  2  0
 13 12  1  0
 14 13  1  0
 14 15  1  1
 16 14  1  0
 17 10  1  0
 16 17  1  6
 18 16  1  0
 18 19  2  0
 20 18  1  0
 21 20  1  0
 21 22  1  1
 23 24  2  0
 23 22  1  0
 25 24  1  0
 26 27  2  0
 26 25  1  0
 27 23  1  0
 28 30  1  0
 28 21  1  0
 29 28  2  0
M  END
$$$$
