FIH.pdb
     RDKit          3D

 30 31  0  0  1  0  0  0  0  0999 V2000
   28.4504  -21.1216  -15.9075 N   0  0  0  0  0  0  0  0  0  0  0  0
   27.6822  -20.1547  -15.1915 C   0  0  1  0  0  0  0  0  0  0  0  0
   26.9819  -19.1528  -16.0940 C   0  0  0  0  0  0  0  0  0  0  0  0
   27.9508  -18.2864  -16.8016 C   0  0  0  0  0  0  0  0  0  0  0  0
   28.3826  -17.0986  -16.2616 C   0  0  0  0  0  0  0  0  0  0  0  0
   29.2856  -16.3360  -16.9691 C   0  0  0  0  0  0  0  0  0  0  0  0
   29.7859  -16.7045  -18.2051 C   0  0  0  0  0  0  0  0  0  0  0  0
   29.3268  -17.9087  -18.7166 C   0  0  0  0  0  0  0  0  0  0  0  0
   28.4252  -18.6868  -18.0281 C   0  0  0  0  0  0  0  0  0  0  0  0
   26.6623  -20.7652  -14.2992 C   0  0  0  0  0  0  0  0  0  0  0  0
   26.0554  -21.7931  -14.7276 O   0  0  0  0  0  0  0  0  0  0  0  0
   27.0764  -20.3725   -8.8524 C   0  0  0  0  0  0  0  0  0  0  0  0
   26.7698  -20.9721  -10.2269 C   0  0  0  0  0  0  0  0  0  0  0  0
   25.4484  -20.4544  -10.7453 C   0  0  2  0  0  0  0  0  0  0  0  0
   24.3186  -20.8579   -9.8398 C   0  0  0  0  0  0  0  0  0  0  0  0
   25.2544  -20.7749  -12.1857 C   0  0  2  0  0  0  0  0  0  0  0  0
   26.3368  -20.2682  -13.0161 N   0  0  0  0  0  0  0  0  0  0  0  0
   23.9620  -20.2229  -12.6989 C   0  0  0  0  0  0  0  0  0  0  0  0
   23.8654  -19.0906  -13.2356 O   0  0  0  0  0  0  0  0  0  0  0  0
   22.7564  -20.9627  -12.6045 N   0  0  0  0  0  0  0  0  0  0  0  0
   21.6306  -20.6566  -13.4928 C   0  0  1  0  0  0  0  0  0  0  0  0
   21.6901  -21.4323  -14.7595 C   0  0  0  0  0  0  0  0  0  0  0  0
   22.2114  -20.5989  -15.8466 C   0  0  0  0  0  0  0  0  0  0  0  0
   22.5501  -19.2736  -15.8637 C   0  0  0  0  0  0  0  0  0  0  0  0
   23.0515  -18.9760  -17.0989 N   0  0  0  0  0  0  0  0  0  0  0  0
   23.0292  -20.0839  -17.8358 C   0  0  0  0  0  0  0  0  0  0  0  0
   22.5241  -21.0645  -17.0857 N   0  0  0  0  0  0  0  0  0  0  0  0
   20.4594  -21.2467  -12.7175 C   0  0  0  0  0  0  0  0  0  0  0  0
   20.5483  -22.4124  -12.1929 O   0  0  0  0  0  0  0  0  0  0  0  0
   19.2613  -20.6207  -12.5200 O   0  0  0  0  0  0  0  0  0  0  0  0
  2  1  1  6
  2 10  1  0
  3  2  1  0
  3  4  1  0
  4  9  1  0
  4  5  2  0
  5  6  1  0
  6  7  2  0
  8  7  1  0
  9  8  2  0
 10 11  2  0
 13 12  1  0
 14 13  1  0
 14 15  1  1
 16 14  1  0
 17 10  1  0
 16 17  1  6
 18 16  1  0
 18 19  2  0
 20 18  1  0
 21 20  1  0
 21 22  1  6
 23 24  2  0
 23 22  1  0
 25 24  1  0
 26 27  2  0
 26 25  1  0
 27 23  1  0
 28 30  1  0
 28 21  1  0
 29 28  2  0
M  END
$$$$
