FIH.pdb
     RDKit          3D

 30 31  0  0  1  0  0  0  0  0999 V2000
   27.3114  -18.9226  -17.4224 N   0  0  0  0  0  0  0  0  0  0  0  0
   26.5384  -18.4416  -16.3229 C   0  0  1  0  0  0  0  0  0  0  0  0
   25.4884  -17.4196  -16.7256 C   0  0  0  0  0  0  0  0  0  0  0  0
   26.1058  -16.1862  -17.2617 C   0  0  0  0  0  0  0  0  0  0  0  0
   26.1846  -15.9493  -18.6132 C   0  0  0  0  0  0  0  0  0  0  0  0
   26.7711  -14.7822  -19.0506 C   0  0  0  0  0  0  0  0  0  0  0  0
   27.2899  -13.8268  -18.1951 C   0  0  0  0  0  0  0  0  0  0  0  0
   27.1919  -14.1015  -16.8396 C   0  0  0  0  0  0  0  0  0  0  0  0
   26.6103  -15.2603  -16.3796 C   0  0  0  0  0  0  0  0  0  0  0  0
   25.8609  -19.5275  -15.5672 C   0  0  0  0  0  0  0  0  0  0  0  0
   25.4457  -20.5256  -16.2303 O   0  0  0  0  0  0  0  0  0  0  0  0
   28.1230  -21.3282  -11.2209 C   0  0  0  0  0  0  0  0  0  0  0  0
   27.3137  -21.1566  -12.5087 C   0  0  0  0  0  0  0  0  0  0  0  0
   25.8547  -20.9295  -12.1883 C   0  0  2  0  0  0  0  0  0  0  0  0
   25.3049  -22.0520  -11.3536 C   0  0  0  0  0  0  0  0  0  0  0  0
   25.0655  -20.5965  -13.4054 C   0  0  2  0  0  0  0  0  0  0  0  0
   25.6575  -19.5076  -14.1682 N   0  0  0  0  0  0  0  0  0  0  0  0
   23.6581  -20.2254  -13.0593 C   0  0  0  0  0  0  0  0  0  0  0  0
   23.3694  -19.2740  -12.2907 O   0  0  0  0  0  0  0  0  0  0  0  0
   22.5560  -20.9416  -13.5908 N   0  0  0  0  0  0  0  0  0  0  0  0
   21.1859  -20.4907  -13.3273 C   0  0  1  0  0  0  0  0  0  0  0  0
   20.3518  -20.4855  -14.5579 C   0  0  0  0  0  0  0  0  0  0  0  0
   20.7233  -19.3631  -15.4239 C   0  0  0  0  0  0  0  0  0  0  0  0
   21.6719  -18.3913  -15.2581 C   0  0  0  0  0  0  0  0  0  0  0  0
   21.6809  -17.6070  -16.3764 N   0  0  0  0  0  0  0  0  0  0  0  0
   20.7644  -18.0743  -17.2206 C   0  0  0  0  0  0  0  0  0  0  0  0
   20.1850  -19.1324  -16.6515 N   0  0  0  0  0  0  0  0  0  0  0  0
   20.6437  -21.6362  -12.4818 C   0  0  0  0  0  0  0  0  0  0  0  0
   21.1840  -22.7968  -12.5363 O   0  0  0  0  0  0  0  0  0  0  0  0
   19.5805  -21.5399  -11.6293 O   0  0  0  0  0  0  0  0  0  0  0  0
  2  1  1  6
  2 10  1  0
  3  2  1  0
  3  4  1  0
  4  9  1  0
  4  5  2  0
  5  6  1  0
  6  7  2  0
  8  7  1  0
  9  8  2  0
 10 11  2  0
 13 12  1  0
 14 13  1  0
 14 15  1  6
 16 14  1  0
 17 10  1  0
 16 17  1  1
 18 16  1  0
 18 19  2  0
 20 18  1  0
 21 20  1  0
 21 22  1  6
 23 24  2  0
 23 22  1  0
 25 24  1  0
 26 27  2  0
 26 25  1  0
 27 23  1  0
 28 30  1  0
 28 21  1  0
 29 28  2  0
M  END
$$$$
