FIH.pdb
     RDKit          3D

 30 31  0  0  1  0  0  0  0  0999 V2000
   25.2575  -21.2188  -14.2146 N   0  0  0  0  0  0  0  0  0  0  0  0
   24.7475  -20.3526  -13.2010 C   0  0  1  0  0  0  0  0  0  0  0  0
   23.3626  -19.8102  -13.5123 C   0  0  0  0  0  0  0  0  0  0  0  0
   23.3491  -19.0447  -14.7787 C   0  0  0  0  0  0  0  0  0  0  0  0
   23.9532  -17.8147  -14.8829 C   0  0  0  0  0  0  0  0  0  0  0  0
   23.9064  -17.1509  -16.0891 C   0  0  0  0  0  0  0  0  0  0  0  0
   23.2782  -17.6604  -17.2114 C   0  0  0  0  0  0  0  0  0  0  0  0
   22.6805  -18.9030  -17.0670 C   0  0  0  0  0  0  0  0  0  0  0  0
   22.7146  -19.5843  -15.8723 C   0  0  0  0  0  0  0  0  0  0  0  0
   24.7041  -20.9887  -11.8584 C   0  0  0  0  0  0  0  0  0  0  0  0
   24.3545  -22.2065  -11.8030 O   0  0  0  0  0  0  0  0  0  0  0  0
   26.9653  -20.5048   -6.1125 C   0  0  0  0  0  0  0  0  0  0  0  0
   25.8506  -21.0174   -7.0275 C   0  0  0  0  0  0  0  0  0  0  0  0
   25.9754  -20.4068   -8.4038 C   0  0  2  0  0  0  0  0  0  0  0  0
   26.0992  -18.9111   -8.3209 C   0  0  0  0  0  0  0  0  0  0  0  0
   24.9232  -20.9074   -9.3297 C   0  0  2  0  0  0  0  0  0  0  0  0
   25.0272  -20.3181  -10.6562 N   0  0  0  0  0  0  0  0  0  0  0  0
   23.5520  -20.6381   -8.7951 C   0  0  0  0  0  0  0  0  0  0  0  0
   22.9902  -19.5175   -8.8827 O   0  0  0  0  0  0  0  0  0  0  0  0
   22.8012  -21.6529   -8.1497 N   0  0  0  0  0  0  0  0  0  0  0  0
   21.4490  -21.3709   -7.6574 C   0  0  1  0  0  0  0  0  0  0  0  0
   20.4490  -21.3359   -8.7568 C   0  0  0  0  0  0  0  0  0  0  0  0
   19.7445  -22.6176   -8.8496 C   0  0  0  0  0  0  0  0  0  0  0  0
   18.7671  -23.1519   -8.0554 C   0  0  0  0  0  0  0  0  0  0  0  0
   18.3840  -24.3473   -8.5939 N   0  0  0  0  0  0  0  0  0  0  0  0
   19.1002  -24.5566   -9.6958 C   0  0  0  0  0  0  0  0  0  0  0  0
   19.9211  -23.5173   -9.8543 N   0  0  0  0  0  0  0  0  0  0  0  0
   21.1375  -22.6399   -6.8740 C   0  0  0  0  0  0  0  0  0  0  0  0
   21.9195  -23.6528   -6.9396 O   0  0  0  0  0  0  0  0  0  0  0  0
   20.0469  -22.8106   -6.0691 O   0  0  0  0  0  0  0  0  0  0  0  0
  2  1  1  6
  2 10  1  0
  3  2  1  0
  3  4  1  0
  4  9  1  0
  4  5  2  0
  5  6  1  0
  6  7  2  0
  8  7  1  0
  9  8  2  0
 10 11  2  0
 13 12  1  0
 14 13  1  0
 14 15  1  1
 16 14  1  0
 17 10  1  0
 16 17  1  6
 18 16  1  0
 18 19  2  0
 20 18  1  0
 21 20  1  0
 21 22  1  6
 23 24  2  0
 23 22  1  0
 25 24  1  0
 26 27  2  0
 26 25  1  0
 27 23  1  0
 28 30  1  0
 28 21  1  0
 29 28  2  0
M  END
$$$$
