YAH.pdb
     RDKit          3D

 28 29  0  0  1  0  0  0  0  0999 V2000
    5.9437  -10.8475   27.0057 O   0  0  0  0  0  0  0  0  0  0  0  0
    6.5923  -12.0489   26.7526 C   0  0  0  0  0  0  0  0  0  0  0  0
    7.0743  -12.3439   25.4922 C   0  0  0  0  0  0  0  0  0  0  0  0
    7.7070  -13.5239   25.2597 C   0  0  0  0  0  0  0  0  0  0  0  0
    7.8913  -14.4642   26.2616 C   0  0  0  0  0  0  0  0  0  0  0  0
    8.5871  -15.7491   25.9831 C   0  0  0  0  0  0  0  0  0  0  0  0
    7.5466  -16.8388   25.8701 C   0  0  2  0  0  0  0  0  0  0  0  0
    7.8727  -17.8848   26.8441 N   0  0  0  0  0  0  0  0  0  0  0  0
    7.5315  -17.4754   24.5470 C   0  0  0  0  0  0  0  0  0  0  0  0
    8.2722  -18.4723   24.2445 O   0  0  0  0  0  0  0  0  0  0  0  0
    7.4171  -14.1943   27.5381 C   0  0  0  0  0  0  0  0  0  0  0  0
    6.7764  -12.9865   27.7504 C   0  0  0  0  0  0  0  0  0  0  0  0
    5.5123  -17.1823   21.3309 C   0  0  0  0  0  0  0  0  0  0  0  0
    6.7101  -17.6118   22.1710 C   0  0  2  0  0  0  0  0  0  0  0  0
    6.6796  -17.0274   23.4811 N   0  0  0  0  0  0  0  0  0  0  0  0
    7.9154  -17.1092   21.4648 C   0  0  0  0  0  0  0  0  0  0  0  0
    8.1634  -17.5477   20.3165 O   0  0  0  0  0  0  0  0  0  0  0  0
    8.7986  -16.1602   22.0221 N   0  0  0  0  0  0  0  0  0  0  0  0
   10.0479  -15.8678   21.3260 C   0  0  1  0  0  0  0  0  0  0  0  0
   10.1302  -14.4055   20.9682 C   0  0  0  0  0  0  0  0  0  0  0  0
    9.2330  -14.0814   19.8593 C   0  0  0  0  0  0  0  0  0  0  0  0
    8.4705  -14.9860   19.1444 C   0  0  0  0  0  0  0  0  0  0  0  0
    7.8102  -14.2853   18.2148 N   0  0  0  0  0  0  0  0  0  0  0  0
    8.1283  -12.9912   18.3210 C   0  0  0  0  0  0  0  0  0  0  0  0
    9.0039  -12.8433   19.3283 N   0  0  0  0  0  0  0  0  0  0  0  0
   11.1481  -16.3490   22.1778 C   0  0  0  0  0  0  0  0  0  0  0  0
   10.8966  -16.9132   23.2645 O   0  0  0  0  0  0  0  0  0  0  0  0
   12.4695  -16.1958   21.8087 O   0  0  0  0  0  0  0  0  0  0  0  0
  2 12  2  0
  2  1  1  0
  3  2  1  0
  4  5  1  0
  4  3  2  0
  5 11  2  0
  6  5  1  0
  6  7  1  0
  7  8  1  1
  9  7  1  0
  9 15  1  0
 10  9  2  0
 11 12  1  0
 14 13  1  6
 14 15  1  0
 14 16  1  0
 16 17  2  0
 16 18  1  0
 18 19  1  0
 19 26  1  0
 19 20  1  1
 21 20  1  0
 22 21  2  0
 23 24  1  0
 23 22  1  0
 24 25  2  0
 25 21  1  0
 26 27  2  0
 26 28  1  0
M  END
$$$$
