YAH.pdb
     RDKit          3D

 28 29  0  0  1  0  0  0  0  0999 V2000
    9.5064  -22.2773   32.1448 O   0  0  0  0  0  0  0  0  0  0  0  0
    9.1856  -21.5017   31.0386 C   0  0  0  0  0  0  0  0  0  0  0  0
    9.8590  -20.3241   30.7777 C   0  0  0  0  0  0  0  0  0  0  0  0
    9.5338  -19.5756   29.6912 C   0  0  0  0  0  0  0  0  0  0  0  0
    8.5296  -19.9570   28.8147 C   0  0  0  0  0  0  0  0  0  0  0  0
    8.1914  -19.1210   27.6318 C   0  0  0  0  0  0  0  0  0  0  0  0
    8.3291  -19.9733   26.3919 C   0  0  2  0  0  0  0  0  0  0  0  0
    9.6333  -20.6411   26.4388 N   0  0  0  0  0  0  0  0  0  0  0  0
    8.2960  -19.1849   25.1535 C   0  0  0  0  0  0  0  0  0  0  0  0
    9.1274  -18.2471   24.9017 O   0  0  0  0  0  0  0  0  0  0  0  0
    7.8362  -21.1360   29.0524 C   0  0  0  0  0  0  0  0  0  0  0  0
    8.1852  -21.8810   30.1648 C   0  0  0  0  0  0  0  0  0  0  0  0
    6.1334  -19.0411   22.0080 C   0  0  0  0  0  0  0  0  0  0  0  0
    7.2318  -18.5719   22.9557 C   0  0  2  0  0  0  0  0  0  0  0  0
    7.3226  -19.4046   24.1206 N   0  0  0  0  0  0  0  0  0  0  0  0
    6.8510  -17.2041   23.3895 C   0  0  0  0  0  0  0  0  0  0  0  0
    5.8049  -17.0595   24.0656 O   0  0  0  0  0  0  0  0  0  0  0  0
    7.6089  -16.0552   23.0785 N   0  0  0  0  0  0  0  0  0  0  0  0
    7.2000  -14.7700   23.6371 C   0  0  1  0  0  0  0  0  0  0  0  0
    7.1594  -14.8310   25.1430 C   0  0  0  0  0  0  0  0  0  0  0  0
    6.9145  -13.5088   25.7190 C   0  0  0  0  0  0  0  0  0  0  0  0
    6.6767  -12.3477   25.0077 C   0  0  0  0  0  0  0  0  0  0  0  0
    6.5202  -11.3688   25.9069 N   0  0  0  0  0  0  0  0  0  0  0  0
    6.6499  -11.8696   27.1396 C   0  0  0  0  0  0  0  0  0  0  0  0
    6.8933  -13.1869   27.0469 N   0  0  0  0  0  0  0  0  0  0  0  0
    8.1080  -13.7463   23.0936 C   0  0  0  0  0  0  0  0  0  0  0  0
    9.1860  -14.0865   22.5602 O   0  0  0  0  0  0  0  0  0  0  0  0
    7.8016  -12.4016   23.1539 O   0  0  0  0  0  0  0  0  0  0  0  0
  2 12  2  0
  2  1  1  0
  3  2  1  0
  4  5  1  0
  4  3  2  0
  5 11  2  0
  6  5  1  0
  6  7  1  0
  7  8  1  1
  9  7  1  0
  9 15  1  0
 10  9  2  0
 11 12  1  0
 14 13  1  6
 14 15  1  0
 14 16  1  0
 16 17  2  0
 16 18  1  0
 18 19  1  0
 19 26  1  0
 19 20  1  1
 21 20  1  0
 22 21  2  0
 23 24  1  0
 23 22  1  0
 24 25  2  0
 25 21  1  0
 26 27  2  0
 26 28  1  0
M  END
$$$$
