YAH.pdb
     RDKit          3D

 28 29  0  0  1  0  0  0  0  0999 V2000
    0.3622  -20.8684   20.1252 O   0  0  0  0  0  0  0  0  0  0  0  0
    1.5544  -20.4467   20.6987 C   0  0  0  0  0  0  0  0  0  0  0  0
    2.7490  -21.0690   20.3922 C   0  0  0  0  0  0  0  0  0  0  0  0
    3.9078  -20.6451   20.9615 C   0  0  0  0  0  0  0  0  0  0  0  0
    3.9378  -19.5883   21.8583 C   0  0  0  0  0  0  0  0  0  0  0  0
    5.2188  -19.1421   22.4688 C   0  0  0  0  0  0  0  0  0  0  0  0
    5.5644  -17.7821   21.9087 C   0  0  2  0  0  0  0  0  0  0  0  0
    6.1275  -17.9695   20.5682 N   0  0  0  0  0  0  0  0  0  0  0  0
    6.5791  -17.0805   22.7051 C   0  0  0  0  0  0  0  0  0  0  0  0
    7.8208  -17.0728   22.4016 O   0  0  0  0  0  0  0  0  0  0  0  0
    2.7521  -18.9443   22.1848 C   0  0  0  0  0  0  0  0  0  0  0  0
    1.5852  -19.3938   21.5924 C   0  0  0  0  0  0  0  0  0  0  0  0
    6.5965  -14.7509   25.7276 C   0  0  0  0  0  0  0  0  0  0  0  0
    7.2337  -15.5803   24.6181 C   0  0  2  0  0  0  0  0  0  0  0  0
    6.2571  -16.3430   23.8946 N   0  0  0  0  0  0  0  0  0  0  0  0
    8.1618  -16.5267   25.2867 C   0  0  0  0  0  0  0  0  0  0  0  0
    7.8250  -17.7309   25.3799 O   0  0  0  0  0  0  0  0  0  0  0  0
    9.4074  -16.1384   25.8241 N   0  0  0  0  0  0  0  0  0  0  0  0
   10.2373  -17.1466   26.4766 C   0  0  1  0  0  0  0  0  0  0  0  0
   11.4998  -16.5282   27.0211 C   0  0  0  0  0  0  0  0  0  0  0  0
   11.1984  -15.5109   28.0281 C   0  0  0  0  0  0  0  0  0  0  0  0
   11.3441  -15.6573   29.3949 C   0  0  0  0  0  0  0  0  0  0  0  0
   10.9469  -14.5066   29.9513 N   0  0  0  0  0  0  0  0  0  0  0  0
   10.5627  -13.6565   28.9936 C   0  0  0  0  0  0  0  0  0  0  0  0
   10.7096  -14.2553   27.8007 N   0  0  0  0  0  0  0  0  0  0  0  0
    9.4019  -17.8154   27.4878 C   0  0  0  0  0  0  0  0  0  0  0  0
    8.3088  -17.3131   27.8272 O   0  0  0  0  0  0  0  0  0  0  0  0
    9.7925  -18.9989   28.0816 O   0  0  0  0  0  0  0  0  0  0  0  0
  2 12  2  0
  2  1  1  0
  3  2  1  0
  4  5  1  0
  4  3  2  0
  5 11  2  0
  6  5  1  0
  6  7  1  0
  7  8  1  6
  9  7  1  0
  9 15  1  0
 10  9  2  0
 11 12  1  0
 14 13  1  1
 14 15  1  0
 14 16  1  0
 16 17  2  0
 16 18  1  0
 18 19  1  0
 19 26  1  0
 19 20  1  1
 21 20  1  0
 22 21  2  0
 23 24  1  0
 23 22  1  0
 24 25  2  0
 25 21  1  0
 26 27  2  0
 26 28  1  0
M  END
$$$$
