YAH.pdb
     RDKit          3D

 28 29  0  0  1  0  0  0  0  0999 V2000
    5.6036  -10.4480   26.0420 O   0  0  0  0  0  0  0  0  0  0  0  0
    6.1348  -11.7261   25.9301 C   0  0  0  0  0  0  0  0  0  0  0  0
    5.5514  -12.7968   26.5792 C   0  0  0  0  0  0  0  0  0  0  0  0
    6.0827  -14.0419   26.4602 C   0  0  0  0  0  0  0  0  0  0  0  0
    7.2132  -14.2842   25.6951 C   0  0  0  0  0  0  0  0  0  0  0  0
    7.7766  -15.6560   25.5798 C   0  0  0  0  0  0  0  0  0  0  0  0
    7.5845  -16.1314   24.1586 C   0  0  2  0  0  0  0  0  0  0  0  0
    6.3859  -16.9745   24.1168 N   0  0  0  0  0  0  0  0  0  0  0  0
    8.7027  -16.9527   23.6778 C   0  0  0  0  0  0  0  0  0  0  0  0
    8.7404  -18.2238   23.8077 O   0  0  0  0  0  0  0  0  0  0  0  0
    7.8203  -13.2267   25.0316 C   0  0  0  0  0  0  0  0  0  0  0  0
    7.2612  -11.9684   25.1680 C   0  0  0  0  0  0  0  0  0  0  0  0
   11.8201  -16.4426   21.5625 C   0  0  0  0  0  0  0  0  0  0  0  0
   10.9445  -17.1958   22.5579 C   0  0  2  0  0  0  0  0  0  0  0  0
    9.8495  -16.3918   23.0199 N   0  0  0  0  0  0  0  0  0  0  0  0
   11.8127  -17.5121   23.7199 C   0  0  0  0  0  0  0  0  0  0  0  0
   12.8127  -18.2466   23.5383 O   0  0  0  0  0  0  0  0  0  0  0  0
   11.5689  -17.0265   25.0221 N   0  0  0  0  0  0  0  0  0  0  0  0
   12.4027  -17.5068   26.1199 C   0  0  1  0  0  0  0  0  0  0  0  0
   12.8524  -16.3607   26.9899 C   0  0  0  0  0  0  0  0  0  0  0  0
   11.7152  -15.7225   27.6527 C   0  0  0  0  0  0  0  0  0  0  0  0
   10.7486  -14.9500   27.0364 C   0  0  0  0  0  0  0  0  0  0  0  0
    9.9054  -14.5487   27.9951 N   0  0  0  0  0  0  0  0  0  0  0  0
   10.3047  -15.0362   29.1742 C   0  0  0  0  0  0  0  0  0  0  0  0
   11.4184  -15.7625   28.9860 N   0  0  0  0  0  0  0  0  0  0  0  0
   11.6385  -18.5462   26.8292 C   0  0  0  0  0  0  0  0  0  0  0  0
   10.4748  -18.8236   26.4669 O   0  0  0  0  0  0  0  0  0  0  0  0
   12.1747  -19.2364   27.8979 O   0  0  0  0  0  0  0  0  0  0  0  0
  2 12  2  0
  2  1  1  0
  3  2  1  0
  4  5  1  0
  4  3  2  0
  5 11  2  0
  6  5  1  0
  6  7  1  0
  7  8  1  1
  9  7  1  0
  9 15  1  0
 10  9  2  0
 11 12  1  0
 14 13  1  6
 14 15  1  0
 14 16  1  0
 16 17  2  0
 16 18  1  0
 18 19  1  0
 19 26  1  0
 19 20  1  1
 21 20  1  0
 22 21  2  0
 23 24  1  0
 23 22  1  0
 24 25  2  0
 25 21  1  0
 26 27  2  0
 26 28  1  0
M  END
$$$$
