YAH.pdb
     RDKit          3D

 28 29  0  0  1  0  0  0  0  0999 V2000
    9.7755  -29.7813   14.1209 O   0  0  0  0  0  0  0  0  0  0  0  0
   10.1145  -28.8661   15.1086 C   0  0  0  0  0  0  0  0  0  0  0  0
   10.9704  -29.2140   16.1355 C   0  0  0  0  0  0  0  0  0  0  0  0
   11.2929  -28.3074   17.0950 C   0  0  0  0  0  0  0  0  0  0  0  0
   10.7844  -27.0177   17.0826 C   0  0  0  0  0  0  0  0  0  0  0  0
   11.1520  -26.0426   18.1441 C   0  0  0  0  0  0  0  0  0  0  0  0
   10.8157  -26.6506   19.4857 C   0  0  2  0  0  0  0  0  0  0  0  0
    9.3560  -26.7109   19.6071 N   0  0  0  0  0  0  0  0  0  0  0  0
   11.3062  -25.8473   20.6128 C   0  0  0  0  0  0  0  0  0  0  0  0
   10.8872  -24.6655   20.8612 O   0  0  0  0  0  0  0  0  0  0  0  0
    9.9219  -26.6405   16.0624 C   0  0  0  0  0  0  0  0  0  0  0  0
    9.6083  -27.5808   15.0970 C   0  0  0  0  0  0  0  0  0  0  0  0
   13.4726  -26.3641   23.6843 C   0  0  0  0  0  0  0  0  0  0  0  0
   12.8233  -25.5176   22.5949 C   0  0  2  0  0  0  0  0  0  0  0  0
   12.3007  -26.3267   21.5314 N   0  0  0  0  0  0  0  0  0  0  0  0
   13.8984  -24.6570   22.0402 C   0  0  0  0  0  0  0  0  0  0  0  0
   14.5313  -25.0613   21.0361 O   0  0  0  0  0  0  0  0  0  0  0  0
   14.2450  -23.4035   22.5875 N   0  0  0  0  0  0  0  0  0  0  0  0
   15.2644  -22.6010   21.9182 C   0  0  1  0  0  0  0  0  0  0  0  0
   14.6979  -21.2735   21.4824 C   0  0  0  0  0  0  0  0  0  0  0  0
   13.8202  -21.4285   20.3225 C   0  0  0  0  0  0  0  0  0  0  0  0
   14.0094  -22.3130   19.2772 C   0  0  0  0  0  0  0  0  0  0  0  0
   12.9958  -22.1250   18.4236 N   0  0  0  0  0  0  0  0  0  0  0  0
   12.1896  -21.1666   18.8916 C   0  0  0  0  0  0  0  0  0  0  0  0
   12.6792  -20.7236   20.0609 N   0  0  0  0  0  0  0  0  0  0  0  0
   16.4146  -22.5017   22.8317 C   0  0  0  0  0  0  0  0  0  0  0  0
   16.2282  -22.4131   24.0645 O   0  0  0  0  0  0  0  0  0  0  0  0
   17.7133  -22.5047   22.3634 O   0  0  0  0  0  0  0  0  0  0  0  0
  2 12  2  0
  2  1  1  0
  3  2  1  0
  4  5  1  0
  4  3  2  0
  5 11  2  0
  6  5  1  0
  6  7  1  0
  7  8  1  1
  9  7  1  0
  9 15  1  0
 10  9  2  0
 11 12  1  0
 14 13  1  1
 14 15  1  0
 14 16  1  0
 16 17  2  0
 16 18  1  0
 18 19  1  0
 19 26  1  0
 19 20  1  1
 21 20  1  0
 22 21  2  0
 23 24  1  0
 23 22  1  0
 24 25  2  0
 25 21  1  0
 26 27  2  0
 26 28  1  0
M  END
$$$$
