YAH.pdb
     RDKit          3D

 28 29  0  0  1  0  0  0  0  0999 V2000
    8.3178  -12.9796   16.0847 O   0  0  0  0  0  0  0  0  0  0  0  0
    8.1052  -13.4840   17.3608 C   0  0  0  0  0  0  0  0  0  0  0  0
    7.2448  -12.8542   18.2390 C   0  0  0  0  0  0  0  0  0  0  0  0
    7.0469  -13.3598   19.4848 C   0  0  0  0  0  0  0  0  0  0  0  0
    7.6899  -14.5092   19.9178 C   0  0  0  0  0  0  0  0  0  0  0  0
    7.4573  -15.0437   21.2863 C   0  0  0  0  0  0  0  0  0  0  0  0
    6.9088  -16.4461   21.1625 C   0  0  2  0  0  0  0  0  0  0  0  0
    5.5188  -16.3545   20.7058 N   0  0  0  0  0  0  0  0  0  0  0  0
    6.8924  -17.1652   22.4427 C   0  0  0  0  0  0  0  0  0  0  0  0
    5.9824  -16.9978   23.3247 O   0  0  0  0  0  0  0  0  0  0  0  0
    8.5602  -15.1629   19.0562 C   0  0  0  0  0  0  0  0  0  0  0  0
    8.7454  -14.6292   17.7931 C   0  0  0  0  0  0  0  0  0  0  0  0
    8.5926  -20.1565   23.9839 C   0  0  0  0  0  0  0  0  0  0  0  0
    7.8964  -18.8027   24.0703 C   0  0  2  0  0  0  0  0  0  0  0  0
    7.9018  -18.1189   22.8089 N   0  0  0  0  0  0  0  0  0  0  0  0
    8.6764  -17.9948   25.0413 C   0  0  0  0  0  0  0  0  0  0  0  0
    9.6071  -17.2736   24.6098 O   0  0  0  0  0  0  0  0  0  0  0  0
    8.4227  -17.9973   26.4294 N   0  0  0  0  0  0  0  0  0  0  0  0
    9.2730  -17.1928   27.3016 C   0  0  1  0  0  0  0  0  0  0  0  0
    8.4735  -16.1027   27.9692 C   0  0  0  0  0  0  0  0  0  0  0  0
    8.0770  -15.0738   27.0079 C   0  0  0  0  0  0  0  0  0  0  0  0
    8.4425  -15.0273   25.6757 C   0  0  0  0  0  0  0  0  0  0  0  0
    7.8844  -13.9255   25.1601 N   0  0  0  0  0  0  0  0  0  0  0  0
    7.1916  -13.2892   26.1100 C   0  0  0  0  0  0  0  0  0  0  0  0
    7.2970  -13.9798   27.2568 N   0  0  0  0  0  0  0  0  0  0  0  0
    9.9424  -18.1148   28.2340 C   0  0  0  0  0  0  0  0  0  0  0  0
    9.5944  -19.3142   28.2851 O   0  0  0  0  0  0  0  0  0  0  0  0
   10.9593  -17.6909   29.0660 O   0  0  0  0  0  0  0  0  0  0  0  0
  2 12  2  0
  2  1  1  0
  3  2  1  0
  4  5  1  0
  4  3  2  0
  5 11  2  0
  6  5  1  0
  6  7  1  0
  7  8  1  1
  9  7  1  0
  9 15  1  0
 10  9  2  0
 11 12  1  0
 14 13  1  6
 14 15  1  0
 14 16  1  0
 16 17  2  0
 16 18  1  0
 18 19  1  0
 19 26  1  0
 19 20  1  1
 21 20  1  0
 22 21  2  0
 23 24  1  0
 23 22  1  0
 24 25  2  0
 25 21  1  0
 26 27  2  0
 26 28  1  0
M  END
$$$$
