YAH.pdb
     RDKit          3D

 28 29  0  0  1  0  0  0  0  0999 V2000
    7.8738  -13.5552   15.6142 O   0  0  0  0  0  0  0  0  0  0  0  0
    7.6823  -13.8662   16.9539 C   0  0  0  0  0  0  0  0  0  0  0  0
    7.2092  -15.1071   17.3342 C   0  0  0  0  0  0  0  0  0  0  0  0
    7.0268  -15.3968   18.6492 C   0  0  0  0  0  0  0  0  0  0  0  0
    7.3036  -14.4741   19.6462 C   0  0  0  0  0  0  0  0  0  0  0  0
    7.0959  -14.8144   21.0793 C   0  0  0  0  0  0  0  0  0  0  0  0
    8.4461  -14.8736   21.7547 C   0  0  2  0  0  0  0  0  0  0  0  0
    9.3133  -15.7541   20.9661 N   0  0  0  0  0  0  0  0  0  0  0  0
    8.3802  -15.4383   23.1086 C   0  0  0  0  0  0  0  0  0  0  0  0
    7.5276  -15.0581   23.9818 O   0  0  0  0  0  0  0  0  0  0  0  0
    7.7802  -13.2191   19.2930 C   0  0  0  0  0  0  0  0  0  0  0  0
    7.9578  -12.9474   17.9480 C   0  0  0  0  0  0  0  0  0  0  0  0
   10.0659  -18.2840   25.0061 C   0  0  0  0  0  0  0  0  0  0  0  0
    9.1690  -17.0588   24.8667 C   0  0  2  0  0  0  0  0  0  0  0  0
    9.2724  -16.4679   23.5632 N   0  0  0  0  0  0  0  0  0  0  0  0
    9.6537  -16.0724   25.8648 C   0  0  0  0  0  0  0  0  0  0  0  0
   10.6744  -15.3968   25.5928 O   0  0  0  0  0  0  0  0  0  0  0  0
    9.0219  -15.8562   27.1079 N   0  0  0  0  0  0  0  0  0  0  0  0
    9.5867  -14.8679   28.0218 C   0  0  1  0  0  0  0  0  0  0  0  0
    8.5180  -13.9272   28.5179 C   0  0  0  0  0  0  0  0  0  0  0  0
    7.8734  -13.2267   27.4073 C   0  0  0  0  0  0  0  0  0  0  0  0
    6.7883  -12.3762   27.5078 C   0  0  0  0  0  0  0  0  0  0  0  0
    6.5049  -11.9630   26.2668 N   0  0  0  0  0  0  0  0  0  0  0  0
    7.3629  -12.5176   25.4044 C   0  0  0  0  0  0  0  0  0  0  0  0
    8.2149  -13.3001   26.0862 N   0  0  0  0  0  0  0  0  0  0  0  0
   10.2905  -15.6046   29.0846 C   0  0  0  0  0  0  0  0  0  0  0  0
   10.2376  -16.8529   29.1205 O   0  0  0  0  0  0  0  0  0  0  0  0
   11.0196  -14.9508   30.0576 O   0  0  0  0  0  0  0  0  0  0  0  0
  2 12  2  0
  2  1  1  0
  3  2  1  0
  4  5  1  0
  4  3  2  0
  5 11  2  0
  6  5  1  0
  6  7  1  0
  7  8  1  6
  9  7  1  0
  9 15  1  0
 10  9  2  0
 11 12  1  0
 14 13  1  6
 14 15  1  0
 14 16  1  0
 16 17  2  0
 16 18  1  0
 18 19  1  0
 19 26  1  0
 19 20  1  1
 21 20  1  0
 22 21  2  0
 23 24  1  0
 23 22  1  0
 24 25  2  0
 25 21  1  0
 26 27  2  0
 26 28  1  0
M  END
$$$$
