YAH.pdb
     RDKit          3D

 28 29  0  0  1  0  0  0  0  0999 V2000
    7.1458  -12.3020   28.9333 O   0  0  0  0  0  0  0  0  0  0  0  0
    7.0228  -12.7455   27.6232 C   0  0  0  0  0  0  0  0  0  0  0  0
    7.1838  -14.0807   27.3075 C   0  0  0  0  0  0  0  0  0  0  0  0
    7.0605  -14.4998   26.0207 C   0  0  0  0  0  0  0  0  0  0  0  0
    6.7729  -13.6190   24.9895 C   0  0  0  0  0  0  0  0  0  0  0  0
    6.6427  -14.1014   23.5884 C   0  0  0  0  0  0  0  0  0  0  0  0
    7.9463  -14.7502   23.1855 C   0  0  2  0  0  0  0  0  0  0  0  0
    9.0382  -13.8351   23.5311 N   0  0  0  0  0  0  0  0  0  0  0  0
    8.0357  -14.9972   21.7408 C   0  0  0  0  0  0  0  0  0  0  0  0
    7.2158  -15.7479   21.1097 O   0  0  0  0  0  0  0  0  0  0  0  0
    6.6060  -12.2713   25.2777 C   0  0  0  0  0  0  0  0  0  0  0  0
    6.7363  -11.8686   26.5950 C   0  0  0  0  0  0  0  0  0  0  0  0
    9.1677  -13.4227   18.6764 C   0  0  0  0  0  0  0  0  0  0  0  0
    9.1726  -14.6964   19.5145 C   0  0  2  0  0  0  0  0  0  0  0  0
    9.0562  -14.4127   20.9163 N   0  0  0  0  0  0  0  0  0  0  0  0
   10.4869  -15.3451   19.2783 C   0  0  0  0  0  0  0  0  0  0  0  0
   10.7744  -15.7094   18.1134 O   0  0  0  0  0  0  0  0  0  0  0  0
   11.4317  -15.5731   20.3013 N   0  0  0  0  0  0  0  0  0  0  0  0
   12.6187  -16.3670   19.9987 C   0  0  1  0  0  0  0  0  0  0  0  0
   13.8735  -15.5886   20.3025 C   0  0  0  0  0  0  0  0  0  0  0  0
   14.2408  -14.7204   19.1840 C   0  0  0  0  0  0  0  0  0  0  0  0
   13.6556  -14.7231   17.9316 C   0  0  0  0  0  0  0  0  0  0  0  0
   14.2908  -13.7948   17.2063 N   0  0  0  0  0  0  0  0  0  0  0  0
   15.2404  -13.2189   17.9505 C   0  0  0  0  0  0  0  0  0  0  0  0
   15.2269  -13.7745   19.1729 N   0  0  0  0  0  0  0  0  0  0  0  0
   12.4967  -17.6366   20.7343 C   0  0  0  0  0  0  0  0  0  0  0  0
   13.4347  -18.4626   20.7155 O   0  0  0  0  0  0  0  0  0  0  0  0
   11.3624  -17.9485   21.4566 O   0  0  0  0  0  0  0  0  0  0  0  0
  2 12  2  0
  2  1  1  0
  3  2  1  0
  4  5  1  0
  4  3  2  0
  5 11  2  0
  6  5  1  0
  6  7  1  0
  7  8  1  6
  9  7  1  0
  9 15  1  0
 10  9  2  0
 11 12  1  0
 14 13  1  6
 14 15  1  0
 14 16  1  0
 16 17  2  0
 16 18  1  0
 18 19  1  0
 19 26  1  0
 19 20  1  1
 21 20  1  0
 22 21  2  0
 23 24  1  0
 23 22  1  0
 24 25  2  0
 25 21  1  0
 26 27  2  0
 26 28  1  0
M  END
$$$$
