MKY.pdb
     RDKit          3D

 30 30  0  0  1  0  0  0  0  0999 V2000
    9.1464  -11.9356   18.3734 C   0  0  0  0  0  0  0  0  0  0  0  0
    7.6107  -12.6667   19.0511 S   0  0  0  0  0  0  0  0  0  0  0  0
    7.7587  -14.4675   18.8544 C   0  0  0  0  0  0  0  0  0  0  0  0
    9.1586  -14.7692   18.4477 C   0  0  0  0  0  0  0  0  0  0  0  0
    9.3754  -16.2488   18.2568 C   0  0  2  0  0  0  0  0  0  0  0  0
    8.2733  -16.8105   17.4648 N   0  0  0  0  0  0  0  0  0  0  0  0
    9.3581  -16.9322   19.5696 C   0  0  0  0  0  0  0  0  0  0  0  0
    8.3309  -17.5028   20.0047 O   0  0  0  0  0  0  0  0  0  0  0  0
   10.5166  -16.9549   20.3689 N   0  0  0  0  0  0  0  0  0  0  0  0
   10.4912  -17.7280   21.6187 C   0  0  1  0  0  0  0  0  0  0  0  0
   11.8004  -18.4088   21.8350 C   0  0  0  0  0  0  0  0  0  0  0  0
   11.9278  -19.6874   21.0967 C   0  0  0  0  0  0  0  0  0  0  0  0
   13.2523  -20.3493   21.3392 C   0  0  0  0  0  0  0  0  0  0  0  0
   13.3733  -21.6716   20.6421 C   0  0  0  0  0  0  0  0  0  0  0  0
   14.6928  -22.2489   20.7850 N   0  0  0  0  0  0  0  0  0  0  0  0
   10.2681  -16.7118   22.6855 C   0  0  0  0  0  0  0  0  0  0  0  0
   10.9461  -15.6533   22.6765 O   0  0  0  0  0  0  0  0  0  0  0  0
    6.1810  -11.2254   28.0794 O   0  0  0  0  0  0  0  0  0  0  0  0
    6.6071  -12.1724   27.1508 C   0  0  0  0  0  0  0  0  0  0  0  0
    7.7910  -12.0230   26.4579 C   0  0  0  0  0  0  0  0  0  0  0  0
    8.2244  -12.9709   25.5238 C   0  0  0  0  0  0  0  0  0  0  0  0
    7.4554  -14.0831   25.2848 C   0  0  0  0  0  0  0  0  0  0  0  0
    7.8568  -15.1040   24.3144 C   0  0  0  0  0  0  0  0  0  0  0  0
    9.1468  -15.8152   24.6977 C   0  0  2  0  0  0  0  0  0  0  0  0
    9.3188  -16.8725   23.7292 N   0  0  0  0  0  0  0  0  0  0  0  0
    9.0871  -16.4161   26.0480 C   0  0  0  0  0  0  0  0  0  0  0  0
    8.6032  -17.6784   26.2401 O   0  0  0  0  0  0  0  0  0  0  0  0
    6.2676  -14.2307   25.9817 C   0  0  0  0  0  0  0  0  0  0  0  0
    5.8359  -13.2939   26.9072 C   0  0  0  0  0  0  0  0  0  0  0  0
    9.4931  -15.7369   27.0188 O   0  0  0  0  0  0  0  0  0  0  0  0
  1  2  1  0
  3  2  1  0
  4  5  1  0
  4  3  1  0
  5  6  1  6
  7  5  1  0
  8  7  2  0
  9  7  1  0
 10 11  1  1
 10  9  1  0
 11 12  1  0
 12 13  1  0
 13 14  1  0
 15 14  1  0
 16 25  1  0
 16 10  1  0
 17 16  2  0
 19 29  2  0
 19 18  1  0
 20 19  1  0
 21 22  1  0
 21 20  2  0
 22 28  2  0
 23 22  1  0
 24 23  1  6
 24 25  1  0
 26 24  1  0
 26 27  1  0
 28 29  1  0
 30 26  2  0
M  END
$$$$
