MKY.pdb
     RDKit          3D

 30 30  0  0  1  0  0  0  0  0999 V2000
    7.8609  -10.7745   19.9932 C   0  0  0  0  0  0  0  0  0  0  0  0
    7.7116  -11.8223   21.4872 S   0  0  0  0  0  0  0  0  0  0  0  0
    7.5339  -13.5358   20.9076 C   0  0  0  0  0  0  0  0  0  0  0  0
    7.4170  -14.4132   22.1046 C   0  0  0  0  0  0  0  0  0  0  0  0
    7.4468  -15.8729   21.7288 C   0  0  2  0  0  0  0  0  0  0  0  0
    6.1385  -16.2708   21.1928 N   0  0  0  0  0  0  0  0  0  0  0  0
    7.6904  -16.6967   22.9340 C   0  0  0  0  0  0  0  0  0  0  0  0
    6.7641  -17.0160   23.7151 O   0  0  0  0  0  0  0  0  0  0  0  0
    8.9911  -17.1457   23.2311 N   0  0  0  0  0  0  0  0  0  0  0  0
    9.1973  -17.9398   24.4505 C   0  0  1  0  0  0  0  0  0  0  0  0
   10.0711  -19.1140   24.1642 C   0  0  0  0  0  0  0  0  0  0  0  0
    9.3800  -20.1946   23.4219 C   0  0  0  0  0  0  0  0  0  0  0  0
   10.2963  -21.3418   23.1125 C   0  0  0  0  0  0  0  0  0  0  0  0
    9.6245  -22.4180   22.3127 C   0  0  0  0  0  0  0  0  0  0  0  0
   10.5153  -23.5198   22.0178 N   0  0  0  0  0  0  0  0  0  0  0  0
    9.8887  -17.0133   25.3908 C   0  0  0  0  0  0  0  0  0  0  0  0
   10.8540  -16.3240   24.9745 O   0  0  0  0  0  0  0  0  0  0  0  0
    6.7867  -11.6805   24.4578 O   0  0  0  0  0  0  0  0  0  0  0  0
    7.4321  -12.4990   25.3822 C   0  0  0  0  0  0  0  0  0  0  0  0
    8.8004  -12.6758   25.3591 C   0  0  0  0  0  0  0  0  0  0  0  0
    9.4544  -13.4967   26.2850 C   0  0  0  0  0  0  0  0  0  0  0  0
    8.7207  -14.1477   27.2460 C   0  0  0  0  0  0  0  0  0  0  0  0
    9.3514  -15.0233   28.2361 C   0  0  0  0  0  0  0  0  0  0  0  0
   10.3146  -16.0259   27.6165 C   0  0  2  0  0  0  0  0  0  0  0  0
    9.5146  -16.8615   26.7521 N   0  0  0  0  0  0  0  0  0  0  0  0
   10.9727  -16.8834   28.6262 C   0  0  0  0  0  0  0  0  0  0  0  0
   11.8689  -16.3668   29.5174 O   0  0  0  0  0  0  0  0  0  0  0  0
    7.3475  -13.9683   27.2670 C   0  0  0  0  0  0  0  0  0  0  0  0
    6.6971  -13.1561   26.3516 C   0  0  0  0  0  0  0  0  0  0  0  0
   10.6879  -18.1029   28.6464 O   0  0  0  0  0  0  0  0  0  0  0  0
  1  2  1  0
  3  2  1  0
  4  5  1  0
  4  3  1  0
  5  6  1  1
  7  5  1  0
  8  7  2  0
  9  7  1  0
 10 11  1  6
 10  9  1  0
 11 12  1  0
 12 13  1  0
 13 14  1  0
 15 14  1  0
 16 25  1  0
 16 10  1  0
 17 16  2  0
 19 29  2  0
 19 18  1  0
 20 19  1  0
 21 22  1  0
 21 20  2  0
 22 28  2  0
 23 22  1  0
 24 23  1  1
 24 25  1  0
 26 24  1  0
 26 27  1  0
 28 29  1  0
 30 26  2  0
M  END
$$$$
