MKY.pdb
     RDKit          3D

 30 30  0  0  1  0  0  0  0  0999 V2000
    7.3293  -12.3073   20.6200 C   0  0  0  0  0  0  0  0  0  0  0  0
    8.1737  -12.9450   19.1258 S   0  0  0  0  0  0  0  0  0  0  0  0
    7.3407  -14.4971   18.6778 C   0  0  0  0  0  0  0  0  0  0  0  0
    7.4907  -15.4418   19.8185 C   0  0  0  0  0  0  0  0  0  0  0  0
    8.9029  -15.4569   20.3458 C   0  0  2  0  0  0  0  0  0  0  0  0
    9.8062  -15.9963   19.3210 N   0  0  0  0  0  0  0  0  0  0  0  0
    8.9914  -16.3558   21.5184 C   0  0  0  0  0  0  0  0  0  0  0  0
    8.1558  -16.3105   22.4509 O   0  0  0  0  0  0  0  0  0  0  0  0
   10.0350  -17.2961   21.6098 N   0  0  0  0  0  0  0  0  0  0  0  0
   10.1528  -18.0956   22.8375 C   0  0  1  0  0  0  0  0  0  0  0  0
   11.1141  -19.2179   22.6361 C   0  0  0  0  0  0  0  0  0  0  0  0
   10.6503  -20.2195   21.6472 C   0  0  0  0  0  0  0  0  0  0  0  0
   11.6746  -21.2887   21.4043 C   0  0  0  0  0  0  0  0  0  0  0  0
   11.2219  -22.3043   20.3980 C   0  0  0  0  0  0  0  0  0  0  0  0
   12.2661  -23.2488   20.0632 N   0  0  0  0  0  0  0  0  0  0  0  0
   10.6895  -17.1474   23.8542 C   0  0  0  0  0  0  0  0  0  0  0  0
   11.5154  -16.2689   23.4986 O   0  0  0  0  0  0  0  0  0  0  0  0
    6.6120  -10.6050   27.0412 O   0  0  0  0  0  0  0  0  0  0  0  0
    7.1233  -11.7937   26.5250 C   0  0  0  0  0  0  0  0  0  0  0  0
    6.4229  -12.5396   25.5993 C   0  0  0  0  0  0  0  0  0  0  0  0
    6.9312  -13.7346   25.0771 C   0  0  0  0  0  0  0  0  0  0  0  0
    8.1605  -14.1836   25.4930 C   0  0  0  0  0  0  0  0  0  0  0  0
    8.7385  -15.4296   24.9848 C   0  0  0  0  0  0  0  0  0  0  0  0
    9.8614  -15.9660   25.8613 C   0  0  2  0  0  0  0  0  0  0  0  0
   10.3162  -17.1793   25.2237 N   0  0  0  0  0  0  0  0  0  0  0  0
    9.4090  -16.2926   27.2312 C   0  0  0  0  0  0  0  0  0  0  0  0
    8.7203  -17.4420   27.4938 O   0  0  0  0  0  0  0  0  0  0  0  0
    8.8614  -13.4329   26.4222 C   0  0  0  0  0  0  0  0  0  0  0  0
    8.3608  -12.2493   26.9409 C   0  0  0  0  0  0  0  0  0  0  0  0
    9.6734  -15.4860   28.1522 O   0  0  0  0  0  0  0  0  0  0  0  0
  1  2  1  0
  3  2  1  0
  4  5  1  0
  4  3  1  0
  5  6  1  6
  7  5  1  0
  8  7  2  0
  9  7  1  0
 10 11  1  6
 10  9  1  0
 11 12  1  0
 12 13  1  0
 13 14  1  0
 15 14  1  0
 16 25  1  0
 16 10  1  0
 17 16  2  0
 19 29  2  0
 19 18  1  0
 20 19  1  0
 21 22  1  0
 21 20  2  0
 22 28  2  0
 23 22  1  0
 24 23  1  6
 24 25  1  0
 26 24  1  0
 26 27  1  0
 28 29  1  0
 30 26  2  0
M  END
$$$$
