MKY.pdb
     RDKit          3D

 30 30  0  0  1  0  0  0  0  0999 V2000
    8.1408  -28.4993   21.4173 C   0  0  0  0  0  0  0  0  0  0  0  0
    7.0710  -27.2571   20.6020 S   0  0  0  0  0  0  0  0  0  0  0  0
    6.9512  -25.8443   21.7392 C   0  0  0  0  0  0  0  0  0  0  0  0
    8.2702  -25.1541   21.7509 C   0  0  0  0  0  0  0  0  0  0  0  0
    8.3538  -24.1338   22.8577 C   0  0  2  0  0  0  0  0  0  0  0  0
    7.2418  -23.1821   22.7361 N   0  0  0  0  0  0  0  0  0  0  0  0
    9.6064  -23.3558   22.7297 C   0  0  0  0  0  0  0  0  0  0  0  0
   10.7316  -23.9069   22.7436 O   0  0  0  0  0  0  0  0  0  0  0  0
    9.5566  -21.9562   22.5870 N   0  0  0  0  0  0  0  0  0  0  0  0
   10.8222  -21.2101   22.5466 C   0  0  1  0  0  0  0  0  0  0  0  0
   10.7830  -20.1787   21.4700 C   0  0  0  0  0  0  0  0  0  0  0  0
   10.7662  -20.7542   20.1044 C   0  0  0  0  0  0  0  0  0  0  0  0
   10.6541  -19.6952   19.0473 C   0  0  0  0  0  0  0  0  0  0  0  0
   10.5148  -20.2681   17.6684 C   0  0  0  0  0  0  0  0  0  0  0  0
   10.2735  -19.2470   16.6715 N   0  0  0  0  0  0  0  0  0  0  0  0
   10.9109  -20.5469   23.8781 C   0  0  0  0  0  0  0  0  0  0  0  0
   10.6182  -19.3284   23.9777 O   0  0  0  0  0  0  0  0  0  0  0  0
    5.1850  -19.3729   25.0909 O   0  0  0  0  0  0  0  0  0  0  0  0
    6.4196  -19.7850   25.5876 C   0  0  0  0  0  0  0  0  0  0  0  0
    6.9042  -21.0558   25.3547 C   0  0  0  0  0  0  0  0  0  0  0  0
    8.1437  -21.4757   25.8511 C   0  0  0  0  0  0  0  0  0  0  0  0
    8.9043  -20.6044   26.5914 C   0  0  0  0  0  0  0  0  0  0  0  0
   10.2056  -20.9917   27.1403 C   0  0  0  0  0  0  0  0  0  0  0  0
   11.3764  -20.4930   26.3051 C   0  0  2  0  0  0  0  0  0  0  0  0
   11.3139  -21.2223   25.0603 N   0  0  0  0  0  0  0  0  0  0  0  0
   12.6848  -20.7569   26.9425 C   0  0  0  0  0  0  0  0  0  0  0  0
   13.0061  -20.2098   28.1516 O   0  0  0  0  0  0  0  0  0  0  0  0
    8.4155  -19.3295   26.8235 C   0  0  0  0  0  0  0  0  0  0  0  0
    7.1887  -18.9108   26.3333 C   0  0  0  0  0  0  0  0  0  0  0  0
   13.4979  -21.4987   26.3448 O   0  0  0  0  0  0  0  0  0  0  0  0
  1  2  1  0
  3  2  1  0
  4  5  1  0
  4  3  1  0
  5  6  1  6
  7  5  1  0
  8  7  2  0
  9  7  1  0
 10 11  1  6
 10  9  1  0
 11 12  1  0
 12 13  1  0
 13 14  1  0
 15 14  1  0
 16 25  1  0
 16 10  1  0
 17 16  2  0
 19 29  2  0
 19 18  1  0
 20 19  1  0
 21 22  1  0
 21 20  2  0
 22 28  2  0
 23 22  1  0
 24 23  1  1
 24 25  1  0
 26 24  1  0
 26 27  1  0
 28 29  1  0
 30 26  2  0
M  END
$$$$
