MKY.pdb
     RDKit          3D

 30 30  0  0  1  0  0  0  0  0999 V2000
    8.1752  -10.9860   19.2128 C   0  0  0  0  0  0  0  0  0  0  0  0
    9.5347  -12.1356   18.7857 S   0  0  0  0  0  0  0  0  0  0  0  0
    8.7726  -13.7597   18.4934 C   0  0  0  0  0  0  0  0  0  0  0  0
    9.8586  -14.7193   18.1528 C   0  0  0  0  0  0  0  0  0  0  0  0
    9.3247  -16.1150   17.9535 C   0  0  2  0  0  0  0  0  0  0  0  0
    8.1348  -16.0697   17.0938 N   0  0  0  0  0  0  0  0  0  0  0  0
    8.8992  -16.6802   19.2536 C   0  0  0  0  0  0  0  0  0  0  0  0
    7.7715  -16.4374   19.7428 O   0  0  0  0  0  0  0  0  0  0  0  0
    9.7690  -17.5167   19.9783 N   0  0  0  0  0  0  0  0  0  0  0  0
    9.2685  -18.1553   21.2038 C   0  0  1  0  0  0  0  0  0  0  0  0
    9.7262  -19.5729   21.2750 C   0  0  0  0  0  0  0  0  0  0  0  0
    9.3375  -20.2542   22.5324 C   0  0  0  0  0  0  0  0  0  0  0  0
    9.8622  -21.6584   22.5987 C   0  0  0  0  0  0  0  0  0  0  0  0
    9.4984  -22.3511   23.8781 C   0  0  0  0  0  0  0  0  0  0  0  0
    9.8545  -23.7538   23.8635 N   0  0  0  0  0  0  0  0  0  0  0  0
    9.8798  -17.3710   22.3137 C   0  0  0  0  0  0  0  0  0  0  0  0
   11.1047  -17.0922   22.2662 O   0  0  0  0  0  0  0  0  0  0  0  0
   10.5737  -14.1570   30.5655 O   0  0  0  0  0  0  0  0  0  0  0  0
   10.1434  -14.5361   29.2958 C   0  0  0  0  0  0  0  0  0  0  0  0
   10.9189  -15.3323   28.4781 C   0  0  0  0  0  0  0  0  0  0  0  0
   10.4921  -15.7164   27.2017 C   0  0  0  0  0  0  0  0  0  0  0  0
    9.2689  -15.2928   26.7434 C   0  0  0  0  0  0  0  0  0  0  0  0
    8.7745  -15.6591   25.4144 C   0  0  0  0  0  0  0  0  0  0  0  0
    9.8491  -16.2713   24.5272 C   0  0  2  0  0  0  0  0  0  0  0  0
    9.1472  -16.9131   23.4405 N   0  0  0  0  0  0  0  0  0  0  0  0
   10.6599  -17.2878   25.2323 C   0  0  0  0  0  0  0  0  0  0  0  0
   10.1233  -18.4866   25.6056 O   0  0  0  0  0  0  0  0  0  0  0  0
    8.4926  -14.4938   27.5663 C   0  0  0  0  0  0  0  0  0  0  0  0
    8.9124  -14.1119   28.8306 C   0  0  0  0  0  0  0  0  0  0  0  0
   11.8585  -17.0233   25.4815 O   0  0  0  0  0  0  0  0  0  0  0  0
  1  2  1  0
  3  2  1  0
  4  5  1  0
  4  3  1  0
  5  6  1  6
  7  5  1  0
  8  7  2  0
  9  7  1  0
 10 11  1  1
 10  9  1  0
 11 12  1  0
 12 13  1  0
 13 14  1  0
 15 14  1  0
 16 25  1  0
 16 10  1  0
 17 16  2  0
 19 29  2  0
 19 18  1  0
 20 19  1  0
 21 22  1  0
 21 20  2  0
 22 28  2  0
 23 22  1  0
 24 23  1  1
 24 25  1  0
 26 24  1  0
 26 27  1  0
 28 29  1  0
 30 26  2  0
M  END
$$$$
