VQW.pdb
     RDKit          3D

 31 32  0  0  1  0  0  0  0  0999 V2000
    6.9846  -13.3668   20.7074 C   0  0  0  0  0  0  0  0  0  0  0  0
    8.4009  -13.2403   20.1789 C   0  0  2  0  0  0  0  0  0  0  0  0
    8.3863  -12.1789   19.0998 C   0  0  0  0  0  0  0  0  0  0  0  0
    8.8244  -14.5662   19.6522 C   0  0  2  0  0  0  0  0  0  0  0  0
    7.9827  -14.9480   18.5057 N   0  0  0  0  0  0  0  0  0  0  0  0
    8.8040  -15.6719   20.5921 C   0  0  0  0  0  0  0  0  0  0  0  0
    7.7847  -16.4422   20.5633 O   0  0  0  0  0  0  0  0  0  0  0  0
   12.6824  -19.8013   21.3072 N   0  0  0  0  0  0  0  0  0  0  0  0
   12.6889  -18.6007   20.5704 C   0  0  0  0  0  0  0  0  0  0  0  0
   13.5633  -18.4732   19.6799 O   0  0  0  0  0  0  0  0  0  0  0  0
   11.6678  -17.5733   20.8950 C   0  0  0  0  0  0  0  0  0  0  0  0
   10.8229  -18.0084   22.0308 C   0  0  0  0  0  0  0  0  0  0  0  0
    9.7615  -17.0513   22.4988 C   0  0  2  0  0  0  0  0  0  0  0  0
    9.8404  -15.9305   21.5197 N   0  0  0  0  0  0  0  0  0  0  0  0
   10.1234  -16.5260   23.8390 C   0  0  0  0  0  0  0  0  0  0  0  0
   10.9762  -15.5764   23.9401 O   0  0  0  0  0  0  0  0  0  0  0  0
    9.5868  -16.9954   25.0604 N   0  0  0  0  0  0  0  0  0  0  0  0
   10.0789  -16.4907   26.3635 C   0  0  1  0  0  0  0  0  0  0  0  0
    8.9101  -16.2869   27.2628 C   0  0  0  0  0  0  0  0  0  0  0  0
    7.8205  -15.4959   26.6679 C   0  0  0  0  0  0  0  0  0  0  0  0
    6.7074  -16.0293   25.9931 C   0  0  0  0  0  0  0  0  0  0  0  0
    5.9238  -15.0529   25.5442 N   0  0  0  0  0  0  0  0  0  0  0  0
    6.4761  -13.8849   25.8974 C   0  0  0  0  0  0  0  0  0  0  0  0
    6.0674  -12.5679   25.6983 C   0  0  0  0  0  0  0  0  0  0  0  0
    6.8231  -11.5337   26.1903 C   0  0  0  0  0  0  0  0  0  0  0  0
    7.9899  -11.7641   26.8849 C   0  0  0  0  0  0  0  0  0  0  0  0
    8.3742  -13.0696   27.0689 C   0  0  0  0  0  0  0  0  0  0  0  0
    7.6289  -14.1244   26.5815 C   0  0  0  0  0  0  0  0  0  0  0  0
   11.1103  -17.3710   26.8639 C   0  0  0  0  0  0  0  0  0  0  0  0
   11.3728  -18.4919   26.3231 O   0  0  0  0  0  0  0  0  0  0  0  0
   11.9007  -17.0712   27.9732 O   0  0  0  0  0  0  0  0  0  0  0  0
  2  3  1  6
  2  1  1  0
  4  2  1  0
  4  5  1  6
  6  4  1  0
  6  7  2  0
  8  9  1  0
  9 10  2  0
 11 12  1  0
 11  9  1  0
 13 14  1  0
 13 12  1  6
 14  6  1  0
 15 13  1  0
 16 15  2  0
 17 15  1  0
 18 17  1  0
 18 19  1  1
 20 19  1  0
 20 28  1  0
 21 22  1  0
 21 20  2  0
 22 23  1  0
 23 28  2  0
 23 24  1  0
 24 25  2  0
 25 26  1  0
 27 26  2  0
 28 27  1  0
 29 18  1  0
 29 31  1  0
 30 29  2  0
M  END
$$$$
