VQW.pdb
     RDKit          3D

 31 32  0  0  1  0  0  0  0  0999 V2000
    8.3880  -12.9331   17.7511 C   0  0  0  0  0  0  0  0  0  0  0  0
    7.8283  -13.4477   19.0637 C   0  0  2  0  0  0  0  0  0  0  0  0
    7.9941  -12.3453   20.0876 C   0  0  0  0  0  0  0  0  0  0  0  0
    8.5760  -14.6778   19.4415 C   0  0  2  0  0  0  0  0  0  0  0  0
    8.1347  -15.8129   18.6136 N   0  0  0  0  0  0  0  0  0  0  0  0
    8.4816  -15.0912   20.8296 C   0  0  0  0  0  0  0  0  0  0  0  0
    9.0318  -14.3357   21.7011 O   0  0  0  0  0  0  0  0  0  0  0  0
    9.7483  -21.3521   22.0638 N   0  0  0  0  0  0  0  0  0  0  0  0
    9.6370  -20.3470   21.0831 C   0  0  0  0  0  0  0  0  0  0  0  0
    8.9562  -20.6077   20.0622 O   0  0  0  0  0  0  0  0  0  0  0  0
   10.3286  -19.0552   21.3213 C   0  0  0  0  0  0  0  0  0  0  0  0
    9.4715  -17.9155   20.9221 C   0  0  0  0  0  0  0  0  0  0  0  0
    8.5395  -17.3633   21.9651 C   0  0  2  0  0  0  0  0  0  0  0  0
    7.8215  -16.2686   21.2528 N   0  0  0  0  0  0  0  0  0  0  0  0
    9.3298  -16.7618   23.0681 C   0  0  0  0  0  0  0  0  0  0  0  0
   10.3140  -15.9893   22.7966 O   0  0  0  0  0  0  0  0  0  0  0  0
    9.0808  -16.9702   24.4446 N   0  0  0  0  0  0  0  0  0  0  0  0
    9.9711  -16.4027   25.4839 C   0  0  1  0  0  0  0  0  0  0  0  0
    9.1378  -15.9954   26.6485 C   0  0  0  0  0  0  0  0  0  0  0  0
    7.9147  -15.2597   26.2885 C   0  0  0  0  0  0  0  0  0  0  0  0
    6.7089  -15.8494   25.8678 C   0  0  0  0  0  0  0  0  0  0  0  0
    5.8073  -14.9136   25.5845 N   0  0  0  0  0  0  0  0  0  0  0  0
    6.3706  -13.7182   25.8028 C   0  0  0  0  0  0  0  0  0  0  0  0
    5.8729  -12.4224   25.6818 C   0  0  0  0  0  0  0  0  0  0  0  0
    6.6697  -11.3500   25.9944 C   0  0  0  0  0  0  0  0  0  0  0  0
    7.9649  -11.5208   26.4303 C   0  0  0  0  0  0  0  0  0  0  0  0
    8.4351  -12.8062   26.5416 C   0  0  0  0  0  0  0  0  0  0  0  0
    7.6504  -13.8987   26.2316 C   0  0  0  0  0  0  0  0  0  0  0  0
   11.0361  -17.3371   25.7701 C   0  0  0  0  0  0  0  0  0  0  0  0
   11.0178  -18.5402   25.3581 O   0  0  0  0  0  0  0  0  0  0  0  0
   12.1666  -17.0043   26.5160 O   0  0  0  0  0  0  0  0  0  0  0  0
  2  3  1  1
  2  1  1  0
  4  2  1  0
  4  5  1  6
  6  4  1  0
  6  7  2  0
  8  9  1  0
  9 10  2  0
 11 12  1  0
 11  9  1  0
 13 14  1  0
 13 12  1  6
 14  6  1  0
 15 13  1  0
 16 15  2  0
 17 15  1  0
 18 17  1  0
 18 19  1  1
 20 19  1  0
 20 28  1  0
 21 22  1  0
 21 20  2  0
 22 23  1  0
 23 28  2  0
 23 24  1  0
 24 25  2  0
 25 26  1  0
 27 26  2  0
 28 27  1  0
 29 18  1  0
 29 31  1  0
 30 29  2  0
M  END
$$$$
