VQW.pdb
     RDKit          3D

 31 32  0  0  1  0  0  0  0  0999 V2000
   10.1043  -21.9293   22.1280 C   0  0  0  0  0  0  0  0  0  0  0  0
   10.3512  -20.4589   22.4071 C   0  0  2  0  0  0  0  0  0  0  0  0
    9.5477  -20.0921   23.6363 C   0  0  0  0  0  0  0  0  0  0  0  0
    9.9306  -19.6782   21.2118 C   0  0  2  0  0  0  0  0  0  0  0  0
   10.6753  -20.1301   20.0243 N   0  0  0  0  0  0  0  0  0  0  0  0
   10.0807  -18.2371   21.2950 C   0  0  0  0  0  0  0  0  0  0  0  0
   11.2319  -17.7545   21.0213 O   0  0  0  0  0  0  0  0  0  0  0  0
    5.8466  -17.1203   21.0736 N   0  0  0  0  0  0  0  0  0  0  0  0
    6.6104  -16.5944   20.0132 C   0  0  0  0  0  0  0  0  0  0  0  0
    6.6037  -17.2235   18.9278 O   0  0  0  0  0  0  0  0  0  0  0  0
    7.3677  -15.3397   20.2494 C   0  0  0  0  0  0  0  0  0  0  0  0
    7.8997  -15.2957   21.6308 C   0  0  0  0  0  0  0  0  0  0  0  0
    9.2571  -15.9009   21.8599 C   0  0  2  0  0  0  0  0  0  0  0  0
    9.0315  -17.3602   21.6578 N   0  0  0  0  0  0  0  0  0  0  0  0
    9.6656  -15.6832   23.2702 C   0  0  0  0  0  0  0  0  0  0  0  0
   10.1312  -14.5456   23.6284 O   0  0  0  0  0  0  0  0  0  0  0  0
    9.5791  -16.6556   24.2935 N   0  0  0  0  0  0  0  0  0  0  0  0
   10.0617  -16.3757   25.6660 C   0  0  1  0  0  0  0  0  0  0  0  0
    8.9132  -16.5000   26.6050 C   0  0  0  0  0  0  0  0  0  0  0  0
    7.7856  -15.6033   26.3027 C   0  0  0  0  0  0  0  0  0  0  0  0
    6.5324  -16.0143   25.8135 C   0  0  0  0  0  0  0  0  0  0  0  0
    5.7445  -14.9622   25.6104 N   0  0  0  0  0  0  0  0  0  0  0  0
    6.4296  -13.8620   25.9484 C   0  0  0  0  0  0  0  0  0  0  0  0
    6.0787  -12.5136   25.9459 C   0  0  0  0  0  0  0  0  0  0  0  0
    6.9803  -11.5697   26.3687 C   0  0  0  0  0  0  0  0  0  0  0  0
    8.2394  -11.9226   26.8014 C   0  0  0  0  0  0  0  0  0  0  0  0
    8.5643  -13.2568   26.7949 C   0  0  0  0  0  0  0  0  0  0  0  0
    7.6724  -14.2222   26.3729 C   0  0  0  0  0  0  0  0  0  0  0  0
   11.2036  -17.2130   25.9564 C   0  0  0  0  0  0  0  0  0  0  0  0
   11.8183  -17.1675   27.0689 O   0  0  0  0  0  0  0  0  0  0  0  0
   11.7262  -18.1357   25.0505 O   0  0  0  0  0  0  0  0  0  0  0  0
  2  3  1  1
  2  1  1  0
  4  2  1  0
  4  5  1  6
  6  4  1  0
  6  7  2  0
  8  9  1  0
  9 10  2  0
 11 12  1  0
 11  9  1  0
 13 14  1  0
 13 12  1  1
 14  6  1  0
 15 13  1  0
 16 15  2  0
 17 15  1  0
 18 17  1  0
 18 19  1  1
 20 19  1  0
 20 28  1  0
 21 22  1  0
 21 20  2  0
 22 23  1  0
 23 28  2  0
 23 24  1  0
 24 25  2  0
 25 26  1  0
 27 26  2  0
 28 27  1  0
 29 18  1  0
 29 31  1  0
 30 29  2  0
M  END
$$$$
