VQW.pdb
     RDKit          3D

 31 32  0  0  1  0  0  0  0  0999 V2000
    7.7243  -12.3667   19.1613 C   0  0  0  0  0  0  0  0  0  0  0  0
    7.9629  -13.2823   20.3470 C   0  0  2  0  0  0  0  0  0  0  0  0
    8.9092  -12.5660   21.2864 C   0  0  0  0  0  0  0  0  0  0  0  0
    8.5365  -14.5602   19.8440 C   0  0  2  0  0  0  0  0  0  0  0  0
    7.6661  -15.1303   18.8017 N   0  0  0  0  0  0  0  0  0  0  0  0
    8.7673  -15.5984   20.8315 C   0  0  0  0  0  0  0  0  0  0  0  0
    7.7798  -16.3556   21.1224 O   0  0  0  0  0  0  0  0  0  0  0  0
   11.2525  -19.9168   20.7160 N   0  0  0  0  0  0  0  0  0  0  0  0
   11.9155  -19.9495   21.9585 C   0  0  0  0  0  0  0  0  0  0  0  0
   12.3099  -21.0654   22.3745 O   0  0  0  0  0  0  0  0  0  0  0  0
   12.1016  -18.6701   22.6879 C   0  0  0  0  0  0  0  0  0  0  0  0
   11.5464  -17.5355   21.9149 C   0  0  0  0  0  0  0  0  0  0  0  0
   10.2424  -16.9573   22.3911 C   0  0  2  0  0  0  0  0  0  0  0  0
   10.0107  -15.8061   21.4734 N   0  0  0  0  0  0  0  0  0  0  0  0
   10.4074  -16.4296   23.7685 C   0  0  0  0  0  0  0  0  0  0  0  0
   11.1662  -15.4193   23.9752 O   0  0  0  0  0  0  0  0  0  0  0  0
    9.7740  -16.9606   24.9162 N   0  0  0  0  0  0  0  0  0  0  0  0
   10.0798  -16.4483   26.2723 C   0  0  1  0  0  0  0  0  0  0  0  0
    8.8279  -16.4677   27.0778 C   0  0  0  0  0  0  0  0  0  0  0  0
    7.7283  -15.6743   26.5050 C   0  0  0  0  0  0  0  0  0  0  0  0
    6.6237  -16.2023   25.8122 C   0  0  0  0  0  0  0  0  0  0  0  0
    5.8273  -15.2237   25.3916 N   0  0  0  0  0  0  0  0  0  0  0  0
    6.3628  -14.0594   25.7809 C   0  0  0  0  0  0  0  0  0  0  0  0
    5.9362  -12.7428   25.6210 C   0  0  0  0  0  0  0  0  0  0  0  0
    6.6766  -11.7135   26.1456 C   0  0  0  0  0  0  0  0  0  0  0  0
    7.8454  -11.9487   26.8351 C   0  0  0  0  0  0  0  0  0  0  0  0
    8.2476  -13.2537   26.9803 C   0  0  0  0  0  0  0  0  0  0  0  0
    7.5178  -14.3035   26.4598 C   0  0  0  0  0  0  0  0  0  0  0  0
   11.1943  -17.1833   26.8261 C   0  0  0  0  0  0  0  0  0  0  0  0
   11.6825  -18.2123   26.2598 O   0  0  0  0  0  0  0  0  0  0  0  0
   11.8262  -16.8319   28.0187 O   0  0  0  0  0  0  0  0  0  0  0  0
  2  3  1  1
  2  1  1  0
  4  2  1  0
  4  5  1  6
  6  4  1  0
  6  7  2  0
  8  9  1  0
  9 10  2  0
 11 12  1  0
 11  9  1  0
 13 14  1  0
 13 12  1  6
 14  6  1  0
 15 13  1  0
 16 15  2  0
 17 15  1  0
 18 17  1  0
 18 19  1  1
 20 19  1  0
 20 28  1  0
 21 22  1  0
 21 20  2  0
 22 23  1  0
 23 28  2  0
 23 24  1  0
 24 25  2  0
 25 26  1  0
 27 26  2  0
 28 27  1  0
 29 18  1  0
 29 31  1  0
 30 29  2  0
M  END
$$$$
