VQW.pdb
     RDKit          3D

 31 32  0  0  1  0  0  0  0  0999 V2000
    7.3435  -13.2159   18.0301 C   0  0  0  0  0  0  0  0  0  0  0  0
    7.8811  -13.8536   19.2971 C   0  0  2  0  0  0  0  0  0  0  0  0
    8.8714  -12.8836   19.9049 C   0  0  0  0  0  0  0  0  0  0  0  0
    8.5184  -15.1490   18.9355 C   0  0  2  0  0  0  0  0  0  0  0  0
    7.5524  -16.0094   18.2317 N   0  0  0  0  0  0  0  0  0  0  0  0
    9.0728  -15.9247   20.0298 C   0  0  0  0  0  0  0  0  0  0  0  0
    8.2503  -16.5861   20.7502 O   0  0  0  0  0  0  0  0  0  0  0  0
   14.9745  -19.0015   20.5941 N   0  0  0  0  0  0  0  0  0  0  0  0
   14.1760  -18.1668   19.7879 C   0  0  0  0  0  0  0  0  0  0  0  0
   14.7473  -17.5304   18.8700 O   0  0  0  0  0  0  0  0  0  0  0  0
   12.7216  -18.0960   20.0766 C   0  0  0  0  0  0  0  0  0  0  0  0
   12.4299  -17.0306   21.0630 C   0  0  0  0  0  0  0  0  0  0  0  0
   10.9884  -16.8218   21.4371 C   0  0  2  0  0  0  0  0  0  0  0  0
   10.4544  -15.9807   20.3287 N   0  0  0  0  0  0  0  0  0  0  0  0
   10.9110  -16.0387   22.6956 C   0  0  0  0  0  0  0  0  0  0  0  0
   11.0632  -14.7679   22.6634 O   0  0  0  0  0  0  0  0  0  0  0  0
   10.6706  -16.5913   23.9750 N   0  0  0  0  0  0  0  0  0  0  0  0
    9.7468  -15.9420   24.9343 C   0  0  1  0  0  0  0  0  0  0  0  0
    8.5262  -15.5130   24.1977 C   0  0  0  0  0  0  0  0  0  0  0  0
    7.5273  -14.8254   25.0321 C   0  0  0  0  0  0  0  0  0  0  0  0
    6.2373  -15.3093   25.3157 C   0  0  0  0  0  0  0  0  0  0  0  0
    5.5687  -14.4391   26.0672 N   0  0  0  0  0  0  0  0  0  0  0  0
    6.3697  -13.3902   26.2958 C   0  0  0  0  0  0  0  0  0  0  0  0
    6.1793  -12.2200   27.0276 C   0  0  0  0  0  0  0  0  0  0  0  0
    7.1905  -11.2972   27.1204 C   0  0  0  0  0  0  0  0  0  0  0  0
    8.4047  -11.4980   26.5022 C   0  0  0  0  0  0  0  0  0  0  0  0
    8.5704  -12.6577   25.7857 C   0  0  0  0  0  0  0  0  0  0  0  0
    7.5659  -13.5985   25.6792 C   0  0  0  0  0  0  0  0  0  0  0  0
    9.5244  -16.8204   26.0604 C   0  0  0  0  0  0  0  0  0  0  0  0
    9.3641  -18.0750   25.9264 O   0  0  0  0  0  0  0  0  0  0  0  0
    9.4669  -16.3733   27.3802 O   0  0  0  0  0  0  0  0  0  0  0  0
  2  3  1  6
  2  1  1  0
  4  2  1  0
  4  5  1  1
  6  4  1  0
  6  7  2  0
  8  9  1  0
  9 10  2  0
 11 12  1  0
 11  9  1  0
 13 14  1  0
 13 12  1  6
 14  6  1  0
 15 13  1  0
 16 15  2  0
 17 15  1  0
 18 17  1  0
 18 19  1  6
 20 19  1  0
 20 28  1  0
 21 22  1  0
 21 20  2  0
 22 23  1  0
 23 28  2  0
 23 24  1  0
 24 25  2  0
 25 26  1  0
 27 26  2  0
 28 27  1  0
 29 18  1  0
 29 31  1  0
 30 29  2  0
M  END
$$$$
