VRK.pdb
     RDKit          3D

 28 27  0  0  1  0  0  0  0  0999 V2000
   27.4039  -16.7895  -18.1295 C   0  0  0  0  0  0  0  0  0  0  0  0
   27.3491  -16.6922  -16.6416 C   0  0  2  0  0  0  0  0  0  0  0  0
   28.3788  -17.6027  -16.0107 C   0  0  0  0  0  0  0  0  0  0  0  0
   25.9741  -17.0133  -16.0905 C   0  0  2  0  0  0  0  0  0  0  0  0
   25.9595  -16.5844  -14.7075 N   0  0  0  0  0  0  0  0  0  0  0  0
   25.6963  -18.4650  -16.1192 C   0  0  0  0  0  0  0  0  0  0  0  0
   25.5414  -19.0330  -17.2245 O   0  0  0  0  0  0  0  0  0  0  0  0
   25.9737  -19.4189   -9.2157 N   0  0  0  0  0  0  0  0  0  0  0  0
   25.3057  -20.6859   -9.3176 C   0  0  0  0  0  0  0  0  0  0  0  0
   24.4505  -21.0099   -8.4361 N   0  0  0  0  0  0  0  0  0  0  0  0
   25.5873  -21.5692  -10.3814 N   0  0  0  0  0  0  0  0  0  0  0  0
   26.5098  -21.2447  -11.4445 C   0  0  0  0  0  0  0  0  0  0  0  0
   25.7729  -20.4841  -12.5517 C   0  0  0  0  0  0  0  0  0  0  0  0
   25.8635  -21.3455  -13.7791 C   0  0  0  0  0  0  0  0  0  0  0  0
   25.2149  -20.6716  -14.9921 C   0  0  2  0  0  0  0  0  0  0  0  0
   25.5932  -19.2640  -14.9585 N   0  0  0  0  0  0  0  0  0  0  0  0
   23.7369  -20.8259  -14.9821 C   0  0  0  0  0  0  0  0  0  0  0  0
   23.0117  -19.9527  -14.4099 O   0  0  0  0  0  0  0  0  0  0  0  0
   23.9525  -21.9209   -8.4436 N   0  0  0  0  0  0  0  0  0  0  0  0
   23.1047  -21.9075  -15.5854 C   0  0  2  0  0  0  0  0  0  0  0  0
   21.6119  -22.0585  -15.6568 C   0  0  0  0  0  0  0  0  0  0  0  0
   21.2173  -21.7931  -14.2387 C   0  0  0  0  0  0  0  0  0  0  0  0
   20.2755  -22.6199  -13.5074 C   0  0  0  0  0  0  0  0  0  0  0  0
   19.7843  -22.1451  -12.2007 C   0  0  0  0  0  0  0  0  0  0  0  0
   18.7819  -23.1843  -11.6103 N   0  0  0  0  0  0  0  0  0  0  0  0
   18.4747  -22.7114  -10.2744 C   0  0  0  0  0  0  0  0  0  0  0  0
   21.2544  -20.9880  -16.6215 O   0  0  0  0  0  0  0  0  0  0  0  0
   21.8951  -19.7821  -16.7960 O   0  0  0  0  0  0  0  0  0  0  0  0
  2  1  1  6
  3  2  1  0
  4  5  1  1
  4  2  1  0
  6  4  1  0
  7  6  2  0
  9 10  2  0
  9  8  1  0
 11  9  1  0
 12 11  1  0
 12 13  1  0
 14 13  1  0
 15 14  1  1
 15 16  1  0
 16  6  1  0
 17 15  1  0
 17 18  2  0
 19 17  1  0
 20 19  1  0
 20 26  1  0
 20 21  1  6
 22 21  1  0
 23 22  1  0
 24 23  1  0
 24 25  1  0
 26 27  1  0
 28 26  2  0
M  END
$$$$
