VRK.pdb
     RDKit          3D

 28 27  0  0  1  0  0  0  0  0999 V2000
   26.5102  -21.4010  -18.6383 C   0  0  0  0  0  0  0  0  0  0  0  0
   25.4671  -21.6014  -19.6863 C   0  0  2  0  0  0  0  0  0  0  0  0
   25.7712  -20.7619  -20.9069 C   0  0  0  0  0  0  0  0  0  0  0  0
   24.0723  -21.2875  -19.1825 C   0  0  2  0  0  0  0  0  0  0  0  0
   23.9331  -19.8462  -19.1866 N   0  0  0  0  0  0  0  0  0  0  0  0
   23.8699  -21.7600  -17.7964 C   0  0  0  0  0  0  0  0  0  0  0  0
   24.0076  -22.9786  -17.5429 O   0  0  0  0  0  0  0  0  0  0  0  0
   26.1997  -21.2888   -9.9173 N   0  0  0  0  0  0  0  0  0  0  0  0
   25.0147  -20.7221  -10.4972 C   0  0  0  0  0  0  0  0  0  0  0  0
   24.0574  -20.3737   -9.7385 N   0  0  0  0  0  0  0  0  0  0  0  0
   24.9037  -20.5484  -11.8931 N   0  0  0  0  0  0  0  0  0  0  0  0
   25.5585  -21.4165  -12.8441 C   0  0  0  0  0  0  0  0  0  0  0  0
   25.3845  -20.8549  -14.2589 C   0  0  0  0  0  0  0  0  0  0  0  0
   23.9323  -20.4925  -14.3868 C   0  0  0  0  0  0  0  0  0  0  0  0
   23.2091  -21.3993  -15.3872 C   0  0  2  0  0  0  0  0  0  0  0  0
   23.5253  -20.9082  -16.7231 N   0  0  0  0  0  0  0  0  0  0  0  0
   21.7408  -21.4102  -15.1580 C   0  0  0  0  0  0  0  0  0  0  0  0
   21.0432  -20.3929  -15.4647 O   0  0  0  0  0  0  0  0  0  0  0  0
   23.1565  -20.0070  -10.1018 N   0  0  0  0  0  0  0  0  0  0  0  0
   21.0884  -22.5099  -14.6115 C   0  0  2  0  0  0  0  0  0  0  0  0
   19.6083  -22.5520  -14.3588 C   0  0  0  0  0  0  0  0  0  0  0  0
   19.4259  -23.9604  -13.8895 C   0  0  0  0  0  0  0  0  0  0  0  0
   18.1268  -24.5442  -13.6121 C   0  0  0  0  0  0  0  0  0  0  0  0
   18.0406  -25.9971  -13.3759 C   0  0  0  0  0  0  0  0  0  0  0  0
   16.5518  -26.4015  -13.1456 N   0  0  0  0  0  0  0  0  0  0  0  0
   16.5575  -27.8460  -13.0178 C   0  0  0  0  0  0  0  0  0  0  0  0
   19.4602  -21.5133  -13.3083 O   0  0  0  0  0  0  0  0  0  0  0  0
   18.3482  -20.7417  -13.0571 O   0  0  0  0  0  0  0  0  0  0  0  0
  2  1  1  1
  3  2  1  0
  4  5  1  1
  4  2  1  0
  6  4  1  0
  7  6  2  0
  9 10  2  0
  9  8  1  0
 11  9  1  0
 12 11  1  0
 12 13  1  0
 14 13  1  0
 15 14  1  1
 15 16  1  0
 16  6  1  0
 17 15  1  0
 17 18  2  0
 19 17  1  0
 20 19  1  0
 20 26  1  0
 20 21  1  1
 22 21  1  0
 23 22  1  0
 24 23  1  0
 24 25  1  0
 26 27  1  0
 28 26  2  0
M  END
$$$$
