VRK.pdb
     RDKit          3D

 28 27  0  0  1  0  0  0  0  0999 V2000
   29.0857  -20.9433  -12.9929 C   0  0  0  0  0  0  0  0  0  0  0  0
   29.2650  -20.1427  -14.2393 C   0  0  2  0  0  0  0  0  0  0  0  0
   30.6215  -19.4742  -14.2516 C   0  0  0  0  0  0  0  0  0  0  0  0
   28.1783  -19.1016  -14.4201 C   0  0  2  0  0  0  0  0  0  0  0  0
   28.3624  -18.1102  -13.3808 N   0  0  0  0  0  0  0  0  0  0  0  0
   26.8286  -19.6830  -14.2600 C   0  0  0  0  0  0  0  0  0  0  0  0
   26.3398  -20.3534  -15.1981 O   0  0  0  0  0  0  0  0  0  0  0  0
   23.3572  -21.3387   -6.8028 N   0  0  0  0  0  0  0  0  0  0  0  0
   22.6813  -21.6241   -8.0371 C   0  0  0  0  0  0  0  0  0  0  0  0
   21.4489  -21.9305   -8.0141 N   0  0  0  0  0  0  0  0  0  0  0  0
   23.3681  -21.5671   -9.2685 N   0  0  0  0  0  0  0  0  0  0  0  0
   24.7707  -21.2359   -9.3675 C   0  0  0  0  0  0  0  0  0  0  0  0
   25.1915  -21.2119  -10.8405 C   0  0  0  0  0  0  0  0  0  0  0  0
   24.3564  -20.1481  -11.4943 C   0  0  0  0  0  0  0  0  0  0  0  0
   24.6748  -20.0169  -12.9869 C   0  0  2  0  0  0  0  0  0  0  0  0
   26.0436  -19.5267  -13.0957 N   0  0  0  0  0  0  0  0  0  0  0  0
   23.7258  -19.1023  -13.6733 C   0  0  0  0  0  0  0  0  0  0  0  0
   23.7097  -17.8661  -13.3776 O   0  0  0  0  0  0  0  0  0  0  0  0
   20.9171  -22.1875   -8.8679 N   0  0  0  0  0  0  0  0  0  0  0  0
   22.8389  -19.5539  -14.6445 C   0  0  2  0  0  0  0  0  0  0  0  0
   21.8974  -18.6508  -15.3889 C   0  0  0  0  0  0  0  0  0  0  0  0
   22.2830  -18.9228  -16.8082 C   0  0  0  0  0  0  0  0  0  0  0  0
   21.7089  -18.2155  -17.9377 C   0  0  0  0  0  0  0  0  0  0  0  0
   22.1498  -18.5785  -19.2971 C   0  0  0  0  0  0  0  0  0  0  0  0
   21.4107  -17.6864  -20.3417 N   0  0  0  0  0  0  0  0  0  0  0  0
   21.8382  -18.1730  -21.6391 C   0  0  0  0  0  0  0  0  0  0  0  0
   20.5796  -19.1975  -14.9779 O   0  0  0  0  0  0  0  0  0  0  0  0
   19.3686  -18.5432  -14.9975 O   0  0  0  0  0  0  0  0  0  0  0  0
  2  1  1  1
  3  2  1  0
  4  5  1  1
  4  2  1  0
  6  4  1  0
  7  6  2  0
  9 10  2  0
  9  8  1  0
 11  9  1  0
 12 11  1  0
 12 13  1  0
 14 13  1  0
 15 14  1  1
 15 16  1  0
 16  6  1  0
 17 15  1  0
 17 18  2  0
 19 17  1  0
 20 19  1  0
 20 26  1  0
 20 21  1  6
 22 21  1  0
 23 22  1  0
 24 23  1  0
 24 25  1  0
 26 27  1  0
 28 26  2  0
M  END
$$$$
