VRK.pdb
     RDKit          3D

 28 27  0  0  1  0  0  0  0  0999 V2000
   28.7829  -19.6713  -18.3823 C   0  0  0  0  0  0  0  0  0  0  0  0
   27.5867  -19.9576  -17.5376 C   0  0  2  0  0  0  0  0  0  0  0  0
   26.9686  -18.6712  -17.0373 C   0  0  0  0  0  0  0  0  0  0  0  0
   27.9092  -20.8619  -16.3646 C   0  0  2  0  0  0  0  0  0  0  0  0
   28.4163  -22.1030  -16.9115 N   0  0  0  0  0  0  0  0  0  0  0  0
   26.7055  -21.1753  -15.5657 C   0  0  0  0  0  0  0  0  0  0  0  0
   25.7467  -21.7641  -16.1156 O   0  0  0  0  0  0  0  0  0  0  0  0
   22.2188  -19.6006   -9.8053 N   0  0  0  0  0  0  0  0  0  0  0  0
   22.5759  -20.5488   -8.7879 C   0  0  0  0  0  0  0  0  0  0  0  0
   21.7043  -20.9014   -7.9339 N   0  0  0  0  0  0  0  0  0  0  0  0
   23.8775  -21.0907   -8.7281 N   0  0  0  0  0  0  0  0  0  0  0  0
   24.9190  -20.7294   -9.6616 C   0  0  0  0  0  0  0  0  0  0  0  0
   24.4708  -21.0637  -11.0880 C   0  0  0  0  0  0  0  0  0  0  0  0
   25.6635  -20.8169  -11.9672 C   0  0  0  0  0  0  0  0  0  0  0  0
   25.3460  -21.0894  -13.4407 C   0  0  2  0  0  0  0  0  0  0  0  0
   26.5676  -20.8465  -14.1985 N   0  0  0  0  0  0  0  0  0  0  0  0
   24.2358  -20.2321  -13.9317 C   0  0  0  0  0  0  0  0  0  0  0  0
   24.3701  -18.9682  -13.9488 O   0  0  0  0  0  0  0  0  0  0  0  0
   21.8852  -21.6246   -7.2112 N   0  0  0  0  0  0  0  0  0  0  0  0
   23.0343  -20.7682  -14.3818 C   0  0  2  0  0  0  0  0  0  0  0  0
   21.9096  -19.9350  -14.9269 C   0  0  0  0  0  0  0  0  0  0  0  0
   21.7736  -20.4865  -16.3107 C   0  0  0  0  0  0  0  0  0  0  0  0
   20.6655  -20.1635  -17.1900 C   0  0  0  0  0  0  0  0  0  0  0  0
   20.5848  -20.8336  -18.5008 C   0  0  0  0  0  0  0  0  0  0  0  0
   19.4073  -20.2282  -19.3256 N   0  0  0  0  0  0  0  0  0  0  0  0
   19.4868  -20.8532  -20.6317 C   0  0  0  0  0  0  0  0  0  0  0  0
   20.8066  -20.2862  -13.9971 O   0  0  0  0  0  0  0  0  0  0  0  0
   19.6512  -19.5716  -13.7749 O   0  0  0  0  0  0  0  0  0  0  0  0
  2  1  1  1
  3  2  1  0
  4  5  1  6
  4  2  1  0
  6  4  1  0
  7  6  2  0
  9 10  2  0
  9  8  1  0
 11  9  1  0
 12 11  1  0
 12 13  1  0
 14 13  1  0
 15 14  1  1
 15 16  1  0
 16  6  1  0
 17 15  1  0
 17 18  2  0
 19 17  1  0
 20 19  1  0
 20 26  1  0
 20 21  1  6
 22 21  1  0
 23 22  1  0
 24 23  1  0
 24 25  1  0
 26 27  1  0
 28 26  2  0
M  END
$$$$
