VRK.pdb
     RDKit          3D

 28 27  0  0  1  0  0  0  0  0999 V2000
   25.5890  -15.8784  -20.0988 C   0  0  0  0  0  0  0  0  0  0  0  0
   24.3074  -15.1146  -20.0775 C   0  0  2  0  0  0  0  0  0  0  0  0
   24.5084  -13.7227  -20.6335 C   0  0  0  0  0  0  0  0  0  0  0  0
   23.7065  -15.0304  -18.6885 C   0  0  2  0  0  0  0  0  0  0  0  0
   24.5955  -14.2127  -17.8897 N   0  0  0  0  0  0  0  0  0  0  0  0
   23.6138  -16.3598  -18.0487 C   0  0  0  0  0  0  0  0  0  0  0  0
   22.9013  -17.2422  -18.5798 O   0  0  0  0  0  0  0  0  0  0  0  0
   25.6491  -21.7870  -11.9559 N   0  0  0  0  0  0  0  0  0  0  0  0
   26.2579  -22.1802  -13.1954 C   0  0  0  0  0  0  0  0  0  0  0  0
   26.2774  -23.4092  -13.5155 N   0  0  0  0  0  0  0  0  0  0  0  0
   26.8306  -21.2206  -14.0571 N   0  0  0  0  0  0  0  0  0  0  0  0
   26.5651  -19.8056  -13.9391 C   0  0  0  0  0  0  0  0  0  0  0  0
   25.1768  -19.4929  -14.5069 C   0  0  0  0  0  0  0  0  0  0  0  0
   25.3542  -18.3039  -15.4077 C   0  0  0  0  0  0  0  0  0  0  0  0
   24.0554  -17.9488  -16.1378 C   0  0  2  0  0  0  0  0  0  0  0  0
   24.2900  -16.7020  -16.8563 N   0  0  0  0  0  0  0  0  0  0  0  0
   22.9142  -17.8135  -15.1957 C   0  0  0  0  0  0  0  0  0  0  0  0
   22.9430  -16.9243  -14.2877 O   0  0  0  0  0  0  0  0  0  0  0  0
   26.7435  -23.7594  -14.3746 N   0  0  0  0  0  0  0  0  0  0  0  0
   21.7955  -18.6361  -15.2700 C   0  0  2  0  0  0  0  0  0  0  0  0
   20.5587  -18.4270  -14.4436 C   0  0  0  0  0  0  0  0  0  0  0  0
   19.5800  -17.9755  -15.4807 C   0  0  0  0  0  0  0  0  0  0  0  0
   18.2058  -17.6222  -15.1769 C   0  0  0  0  0  0  0  0  0  0  0  0
   17.3113  -17.2445  -16.2865 C   0  0  0  0  0  0  0  0  0  0  0  0
   15.9472  -16.7510  -15.7131 N   0  0  0  0  0  0  0  0  0  0  0  0
   15.1487  -16.3894  -16.8683 C   0  0  0  0  0  0  0  0  0  0  0  0
   20.3272  -19.7933  -13.9107 O   0  0  0  0  0  0  0  0  0  0  0  0
   19.5892  -20.1353  -12.8001 O   0  0  0  0  0  0  0  0  0  0  0  0
  2  1  1  1
  3  2  1  0
  4  5  1  1
  4  2  1  0
  6  4  1  0
  7  6  2  0
  9 10  2  0
  9  8  1  0
 11  9  1  0
 12 11  1  0
 12 13  1  0
 14 13  1  0
 15 14  1  1
 15 16  1  0
 16  6  1  0
 17 15  1  0
 17 18  2  0
 19 17  1  0
 20 19  1  0
 20 26  1  0
 20 21  1  6
 22 21  1  0
 23 22  1  0
 24 23  1  0
 24 25  1  0
 26 27  1  0
 28 26  2  0
M  END
$$$$
