VRK.pdb
     RDKit          3D

 28 27  0  0  1  0  0  0  0  0999 V2000
   17.3960  -30.9707  -10.6797 C   0  0  0  0  0  0  0  0  0  0  0  0
   18.6644  -31.4965  -10.0954 C   0  0  2  0  0  0  0  0  0  0  0  0
   18.6309  -31.4096   -8.5860 C   0  0  0  0  0  0  0  0  0  0  0  0
   19.8882  -30.7747  -10.6237 C   0  0  2  0  0  0  0  0  0  0  0  0
   21.0456  -31.4065  -10.0255 N   0  0  0  0  0  0  0  0  0  0  0  0
   19.8959  -29.3489  -10.2334 C   0  0  0  0  0  0  0  0  0  0  0  0
   20.3919  -29.0227   -9.1307 O   0  0  0  0  0  0  0  0  0  0  0  0
   21.1637  -23.2730  -15.8040 N   0  0  0  0  0  0  0  0  0  0  0  0
   20.8980  -23.0074  -14.4181 C   0  0  0  0  0  0  0  0  0  0  0  0
   20.8349  -21.8037  -14.0173 N   0  0  0  0  0  0  0  0  0  0  0  0
   20.7061  -24.0637  -13.5024 N   0  0  0  0  0  0  0  0  0  0  0  0
   20.7915  -25.4545  -13.8832 C   0  0  0  0  0  0  0  0  0  0  0  0
   20.8097  -26.3322  -12.6275 C   0  0  0  0  0  0  0  0  0  0  0  0
   19.5060  -26.0799  -11.9250 C   0  0  0  0  0  0  0  0  0  0  0  0
   19.3834  -26.9118  -10.6447 C   0  0  2  0  0  0  0  0  0  0  0  0
   19.3701  -28.3150  -11.0402 N   0  0  0  0  0  0  0  0  0  0  0  0
   18.1592  -26.5635   -9.8776 C   0  0  0  0  0  0  0  0  0  0  0  0
   17.0248  -26.9836  -10.2681 O   0  0  0  0  0  0  0  0  0  0  0  0
   20.7007  -21.5494  -13.0197 N   0  0  0  0  0  0  0  0  0  0  0  0
   18.2069  -25.7821   -8.7284 C   0  0  2  0  0  0  0  0  0  0  0  0
   16.9949  -25.4408   -7.9093 C   0  0  0  0  0  0  0  0  0  0  0  0
   17.5972  -25.2398   -6.5550 C   0  0  0  0  0  0  0  0  0  0  0  0
   17.7816  -26.3157   -5.5992 C   0  0  0  0  0  0  0  0  0  0  0  0
   18.3873  -26.0035   -4.2916 C   0  0  0  0  0  0  0  0  0  0  0  0
   18.4696  -27.3015   -3.4305 N   0  0  0  0  0  0  0  0  0  0  0  0
   18.9966  -26.8824   -2.1462 C   0  0  0  0  0  0  0  0  0  0  0  0
   16.5259  -24.2025   -8.5808 O   0  0  0  0  0  0  0  0  0  0  0  0
   17.2132  -23.4511   -9.5071 O   0  0  0  0  0  0  0  0  0  0  0  0
  2  1  1  6
  3  2  1  0
  4  5  1  1
  4  2  1  0
  6  4  1  0
  7  6  2  0
  9 10  2  0
  9  8  1  0
 11  9  1  0
 12 11  1  0
 12 13  1  0
 14 13  1  0
 15 14  1  6
 15 16  1  0
 16  6  1  0
 17 15  1  0
 17 18  2  0
 19 17  1  0
 20 19  1  0
 20 26  1  0
 20 21  1  6
 22 21  1  0
 23 22  1  0
 24 23  1  0
 24 25  1  0
 26 27  1  0
 28 26  2  0
M  END
$$$$
