VRK.pdb
     RDKit          3D

 28 27  0  0  1  0  0  0  0  0999 V2000
   13.2043   -9.6828   -6.8805 C   0  0  0  0  0  0  0  0  0  0  0  0
   12.2570   -9.3822   -7.9936 C   0  0  2  0  0  0  0  0  0  0  0  0
   11.2844  -10.5241   -8.1872 C   0  0  0  0  0  0  0  0  0  0  0  0
   12.9707   -9.0895   -9.2983 C   0  0  2  0  0  0  0  0  0  0  0  0
   13.6485  -10.3062   -9.6944 N   0  0  0  0  0  0  0  0  0  0  0  0
   13.9909   -8.0313   -9.1407 C   0  0  0  0  0  0  0  0  0  0  0  0
   13.6362   -6.8991   -8.7401 O   0  0  0  0  0  0  0  0  0  0  0  0
   18.5796   -6.7242  -14.2477 N   0  0  0  0  0  0  0  0  0  0  0  0
   18.3282   -8.1307  -14.3899 C   0  0  0  0  0  0  0  0  0  0  0  0
   17.8841   -8.5739  -15.4943 N   0  0  0  0  0  0  0  0  0  0  0  0
   18.5693   -9.0208  -13.3218 N   0  0  0  0  0  0  0  0  0  0  0  0
   18.7285   -8.5788  -11.9558 C   0  0  0  0  0  0  0  0  0  0  0  0
   17.4100   -7.9845  -11.4497 C   0  0  0  0  0  0  0  0  0  0  0  0
   17.6305   -7.6577  -10.0002 C   0  0  0  0  0  0  0  0  0  0  0  0
   16.3483   -7.1499   -9.3336 C   0  0  2  0  0  0  0  0  0  0  0  0
   15.3632   -8.2214   -9.4184 N   0  0  0  0  0  0  0  0  0  0  0  0
   15.8446   -5.9114   -9.9822 C   0  0  0  0  0  0  0  0  0  0  0  0
   15.3004   -5.9721  -11.1294 O   0  0  0  0  0  0  0  0  0  0  0  0
   17.7121   -9.5830  -15.6671 N   0  0  0  0  0  0  0  0  0  0  0  0
   15.9467   -4.6660   -9.3720 C   0  0  1  0  0  0  0  0  0  0  0  0
   15.4207   -3.3993   -9.9844 C   0  0  0  0  0  0  0  0  0  0  0  0
   14.5472   -2.8782   -8.8877 C   0  0  0  0  0  0  0  0  0  0  0  0
   14.0163   -1.5280   -8.8677 C   0  0  0  0  0  0  0  0  0  0  0  0
   13.2293   -1.0953   -7.6983 C   0  0  0  0  0  0  0  0  0  0  0  0
   12.6961    0.3516   -7.9337 N   0  0  0  0  0  0  0  0  0  0  0  0
   12.0715    0.7429   -6.6849 C   0  0  0  0  0  0  0  0  0  0  0  0
   16.6755   -2.6375  -10.2067 O   0  0  0  0  0  0  0  0  0  0  0  0
   16.8366   -1.5165  -10.9894 O   0  0  0  0  0  0  0  0  0  0  0  0
  2  1  1  1
  3  2  1  0
  4  5  1  1
  4  2  1  0
  6  4  1  0
  7  6  2  0
  9 10  2  0
  9  8  1  0
 11  9  1  0
 12 11  1  0
 12 13  1  0
 14 13  1  0
 15 14  1  6
 15 16  1  0
 16  6  1  0
 17 15  1  0
 17 18  2  0
 19 17  1  0
 20 19  1  0
 20 26  1  0
 20 21  1  6
 22 21  1  0
 23 22  1  0
 24 23  1  0
 24 25  1  0
 26 27  1  0
 28 26  2  0
M  END
$$$$
