VRK.pdb
     RDKit          3D

 28 27  0  0  1  0  0  0  0  0999 V2000
   23.7623  -27.7248  -16.0055 C   0  0  0  0  0  0  0  0  0  0  0  0
   22.3805  -27.8707  -16.5494 C   0  0  2  0  0  0  0  0  0  0  0  0
   22.4119  -28.5235  -17.9133 C   0  0  0  0  0  0  0  0  0  0  0  0
   21.6475  -26.5465  -16.6313 C   0  0  2  0  0  0  0  0  0  0  0  0
   22.0394  -25.9200  -17.8766 N   0  0  0  0  0  0  0  0  0  0  0  0
   22.0268  -25.6397  -15.5271 C   0  0  0  0  0  0  0  0  0  0  0  0
   21.7182  -25.9483  -14.3533 O   0  0  0  0  0  0  0  0  0  0  0  0
   27.6583  -22.6258  -16.2989 N   0  0  0  0  0  0  0  0  0  0  0  0
   26.7472  -21.6223  -16.7727 C   0  0  0  0  0  0  0  0  0  0  0  0
   26.6773  -21.3851  -18.0186 N   0  0  0  0  0  0  0  0  0  0  0  0
   25.9325  -20.9017  -15.8737 N   0  0  0  0  0  0  0  0  0  0  0  0
   25.9792  -21.1009  -14.4437 C   0  0  0  0  0  0  0  0  0  0  0  0
   24.6653  -21.7291  -13.9680 C   0  0  0  0  0  0  0  0  0  0  0  0
   24.3499  -22.8245  -14.9462 C   0  0  0  0  0  0  0  0  0  0  0  0
   23.0067  -23.4917  -14.6346 C   0  0  2  0  0  0  0  0  0  0  0  0
   22.7271  -24.4274  -15.7171 N   0  0  0  0  0  0  0  0  0  0  0  0
   21.9148  -22.4928  -14.4991 C   0  0  0  0  0  0  0  0  0  0  0  0
   21.5594  -21.8010  -15.5046 O   0  0  0  0  0  0  0  0  0  0  0  0
   26.0888  -20.6270  -18.4148 N   0  0  0  0  0  0  0  0  0  0  0  0
   21.2545  -22.2817  -13.2937 C   0  0  1  0  0  0  0  0  0  0  0  0
   20.1129  -21.3186  -13.1337 C   0  0  0  0  0  0  0  0  0  0  0  0
   19.4218  -21.8729  -11.9285 C   0  0  0  0  0  0  0  0  0  0  0  0
   18.9618  -23.2460  -11.8371 C   0  0  0  0  0  0  0  0  0  0  0  0
   18.2422  -23.6709  -10.6223 C   0  0  0  0  0  0  0  0  0  0  0  0
   17.8495  -25.1754  -10.7469 N   0  0  0  0  0  0  0  0  0  0  0  0
   17.0638  -25.4705   -9.5644 C   0  0  0  0  0  0  0  0  0  0  0  0
   20.8358  -20.0405  -12.9137 O   0  0  0  0  0  0  0  0  0  0  0  0
   20.3188  -18.7685  -13.0131 O   0  0  0  0  0  0  0  0  0  0  0  0
  2  1  1  6
  3  2  1  0
  4  5  1  6
  4  2  1  0
  6  4  1  0
  7  6  2  0
  9 10  2  0
  9  8  1  0
 11  9  1  0
 12 11  1  0
 12 13  1  0
 14 13  1  0
 15 14  1  6
 15 16  1  0
 16  6  1  0
 17 15  1  0
 17 18  2  0
 19 17  1  0
 20 19  1  0
 20 26  1  0
 20 21  1  6
 22 21  1  0
 23 22  1  0
 24 23  1  0
 24 25  1  0
 26 27  1  0
 28 26  2  0
M  END
$$$$
