DLA.pdb
     RDKit          3D

 22 21  0  0  1  0  0  0  0  0999 V2000
    9.2565  -15.0662   20.5791 N   0  0  0  0  0  0  0  0  0  0  0  0
    8.4732  -15.8131   21.5299 C   0  0  1  0  0  0  0  0  0  0  0  0
    8.6527  -17.2937   21.2322 C   0  0  0  0  0  0  0  0  0  0  0  0
    7.8999  -17.5879   19.9919 C   0  0  0  0  0  0  0  0  0  0  0  0
    6.9386  -16.8747   19.6279 O   0  0  0  0  0  0  0  0  0  0  0  0
    8.9014  -15.4780   22.8986 C   0  0  0  0  0  0  0  0  0  0  0  0
   10.1302  -15.3953   23.1486 O   0  0  0  0  0  0  0  0  0  0  0  0
    8.2735  -18.6762   19.2251 O   0  0  0  0  0  0  0  0  0  0  0  0
    5.9295  -12.3187   26.4158 C   0  0  0  0  0  0  0  0  0  0  0  0
    7.1283  -12.9267   25.7333 C   0  0  1  0  0  0  0  0  0  0  0  0
    8.3544  -12.1831   26.2797 C   0  0  0  0  0  0  0  0  0  0  0  0
    7.3262  -14.3653   26.0543 C   0  0  0  0  0  0  0  0  0  0  0  0
    8.4821  -15.0214   25.3459 C   0  0  2  0  0  0  0  0  0  0  0  0
    8.0151  -15.2392   23.9675 N   0  0  0  0  0  0  0  0  0  0  0  0
    8.7732  -16.3471   25.9470 C   0  0  0  0  0  0  0  0  0  0  0  0
    7.8269  -17.1448   26.1912 O   0  0  0  0  0  0  0  0  0  0  0  0
   11.6583  -18.6555   26.4427 C   0  0  0  0  0  0  0  0  0  0  0  0
   10.3365  -18.0589   26.9225 C   0  0  2  0  0  0  0  0  0  0  0  0
   10.0990  -16.7772   26.2708 N   0  0  0  0  0  0  0  0  0  0  0  0
   10.3603  -17.8726   28.3839 C   0  0  0  0  0  0  0  0  0  0  0  0
   10.3672  -16.6987   28.8848 O   0  0  0  0  0  0  0  0  0  0  0  0
   10.3755  -18.9469   29.2525 O   0  0  0  0  0  0  0  0  0  0  0  0
  2  1  1  6
  3  2  1  0
  3  4  1  0
  4  5  2  0
  6  2  1  0
  6  7  2  0
  8  4  1  0
 10  9  1  1
 10 12  1  0
 10 11  1  0
 13 12  1  1
 13 14  1  0
 14  6  1  0
 15 13  1  0
 16 15  2  0
 18 19  1  0
 18 17  1  6
 19 15  1  0
 20 18  1  0
 21 20  2  0
 22 20  1  0
M  END
$$$$
