DLA.pdb
     RDKit          3D

 22 21  0  0  1  0  0  0  0  0999 V2000
    9.1073  -15.6102   19.8310 N   0  0  0  0  0  0  0  0  0  0  0  0
    8.3021  -16.2087   20.8648 C   0  0  1  0  0  0  0  0  0  0  0  0
    8.4649  -17.7183   20.7777 C   0  0  0  0  0  0  0  0  0  0  0  0
    7.6637  -18.1817   19.6222 C   0  0  0  0  0  0  0  0  0  0  0  0
    8.1539  -18.2470   18.4730 O   0  0  0  0  0  0  0  0  0  0  0  0
    8.7178  -15.6921   22.1799 C   0  0  0  0  0  0  0  0  0  0  0  0
    9.9280  -15.7708   22.5096 O   0  0  0  0  0  0  0  0  0  0  0  0
    6.3461  -18.5482   19.8260 O   0  0  0  0  0  0  0  0  0  0  0  0
    8.5285  -12.2104   26.3845 C   0  0  0  0  0  0  0  0  0  0  0  0
    7.3623  -13.1589   26.2704 C   0  0  1  0  0  0  0  0  0  0  0  0
    6.1075  -12.3338   26.5862 C   0  0  0  0  0  0  0  0  0  0  0  0
    7.1766  -13.7069   24.9004 C   0  0  0  0  0  0  0  0  0  0  0  0
    8.2986  -14.5832   24.4089 C   0  0  2  0  0  0  0  0  0  0  0  0
    7.8392  -15.1052   23.1119 N   0  0  0  0  0  0  0  0  0  0  0  0
    8.4952  -15.7354   25.3239 C   0  0  0  0  0  0  0  0  0  0  0  0
    7.4977  -16.4014   25.7147 O   0  0  0  0  0  0  0  0  0  0  0  0
   11.2046  -18.1056   26.1186 C   0  0  0  0  0  0  0  0  0  0  0  0
    9.9524  -17.3595   26.5750 C   0  0  2  0  0  0  0  0  0  0  0  0
    9.7842  -16.1391   25.7962 N   0  0  0  0  0  0  0  0  0  0  0  0
   10.0512  -17.0221   28.0058 C   0  0  0  0  0  0  0  0  0  0  0  0
   10.1653  -15.8060   28.3758 O   0  0  0  0  0  0  0  0  0  0  0  0
   10.0241  -17.9966   28.9848 O   0  0  0  0  0  0  0  0  0  0  0  0
  2  1  1  6
  3  2  1  0
  3  4  1  0
  4  5  2  0
  6  2  1  0
  6  7  2  0
  8  4  1  0
 10  9  1  6
 10 12  1  0
 10 11  1  0
 13 12  1  1
 13 14  1  0
 14  6  1  0
 15 13  1  0
 16 15  2  0
 18 19  1  0
 18 17  1  6
 19 15  1  0
 20 18  1  0
 21 20  2  0
 22 20  1  0
M  END
$$$$
