DLA.pdb
     RDKit          3D

 22 21  0  0  1  0  0  0  0  0999 V2000
    7.9512  -16.1740   21.6805 N   0  0  0  0  0  0  0  0  0  0  0  0
    9.3482  -16.3309   21.9949 C   0  0  1  0  0  0  0  0  0  0  0  0
   10.1597  -15.7065   20.8702 C   0  0  0  0  0  0  0  0  0  0  0  0
   10.0224  -16.5861   19.6873 C   0  0  0  0  0  0  0  0  0  0  0  0
    9.6714  -17.7816   19.8009 O   0  0  0  0  0  0  0  0  0  0  0  0
    9.6397  -15.6973   23.2920 C   0  0  0  0  0  0  0  0  0  0  0  0
   10.7981  -15.2612   23.5096 O   0  0  0  0  0  0  0  0  0  0  0  0
   10.2898  -16.0675   18.4337 O   0  0  0  0  0  0  0  0  0  0  0  0
    5.9759  -12.7014   26.1075 C   0  0  0  0  0  0  0  0  0  0  0  0
    7.2859  -13.2008   25.5533 C   0  0  1  0  0  0  0  0  0  0  0  0
    8.3237  -12.1138   25.8637 C   0  0  0  0  0  0  0  0  0  0  0  0
    7.7682  -14.4471   26.2057 C   0  0  0  0  0  0  0  0  0  0  0  0
    9.0523  -15.0012   25.6466 C   0  0  2  0  0  0  0  0  0  0  0  0
    8.6948  -15.5424   24.3257 N   0  0  0  0  0  0  0  0  0  0  0  0
    9.5411  -16.1238   26.4858 C   0  0  0  0  0  0  0  0  0  0  0  0
    8.8642  -17.1852   26.5670 O   0  0  0  0  0  0  0  0  0  0  0  0
   12.6789  -16.9990   28.4296 C   0  0  0  0  0  0  0  0  0  0  0  0
   11.2207  -17.1966   28.0202 C   0  0  2  0  0  0  0  0  0  0  0  0
   10.7659  -16.0642   27.2232 N   0  0  0  0  0  0  0  0  0  0  0  0
   10.3684  -17.3336   29.2142 C   0  0  0  0  0  0  0  0  0  0  0  0
    9.7063  -16.3346   29.6527 O   0  0  0  0  0  0  0  0  0  0  0  0
   10.2568  -18.5320   29.8926 O   0  0  0  0  0  0  0  0  0  0  0  0
  2  1  1  6
  3  2  1  0
  3  4  1  0
  4  5  2  0
  6  2  1  0
  6  7  2  0
  8  4  1  0
 10  9  1  1
 10 12  1  0
 10 11  1  0
 13 12  1  1
 13 14  1  0
 14  6  1  0
 15 13  1  0
 16 15  2  0
 18 19  1  0
 18 17  1  1
 19 15  1  0
 20 18  1  0
 21 20  2  0
 22 20  1  0
M  END
$$$$
