DLA.pdb
     RDKit          3D

 22 21  0  0  1  0  0  0  0  0999 V2000
    7.5587  -16.5534   22.2021 N   0  0  0  0  0  0  0  0  0  0  0  0
    8.9203  -16.0839   22.2309 C   0  0  1  0  0  0  0  0  0  0  0  0
    9.0967  -15.0735   21.1079 C   0  0  0  0  0  0  0  0  0  0  0  0
    9.3060  -15.8373   19.8572 C   0  0  0  0  0  0  0  0  0  0  0  0
    8.9124  -17.0193   19.7413 O   0  0  0  0  0  0  0  0  0  0  0  0
    9.2136  -15.4908   23.5467 C   0  0  0  0  0  0  0  0  0  0  0  0
   10.3948  -15.1543   23.8129 O   0  0  0  0  0  0  0  0  0  0  0  0
    9.9511  -15.2241   18.7990 O   0  0  0  0  0  0  0  0  0  0  0  0
    5.5973  -12.2933   25.8606 C   0  0  0  0  0  0  0  0  0  0  0  0
    6.9099  -12.9065   25.4441 C   0  0  1  0  0  0  0  0  0  0  0  0
    7.9582  -11.7916   25.5581 C   0  0  0  0  0  0  0  0  0  0  0  0
    7.3602  -14.0058   26.3387 C   0  0  0  0  0  0  0  0  0  0  0  0
    8.5919  -14.7384   25.8751 C   0  0  2  0  0  0  0  0  0  0  0  0
    8.2462  -15.2699   24.5471 N   0  0  0  0  0  0  0  0  0  0  0  0
    8.8786  -15.8879   26.7694 C   0  0  0  0  0  0  0  0  0  0  0  0
    9.0218  -15.6966   28.0081 O   0  0  0  0  0  0  0  0  0  0  0  0
    8.9645  -19.6546   26.6230 C   0  0  0  0  0  0  0  0  0  0  0  0
    9.4306  -18.3083   27.1736 C   0  0  2  0  0  0  0  0  0  0  0  0
    9.0036  -17.2304   26.2903 N   0  0  0  0  0  0  0  0  0  0  0  0
   10.8982  -18.2888   27.3021 C   0  0  0  0  0  0  0  0  0  0  0  0
   11.5983  -17.4966   26.5871 O   0  0  0  0  0  0  0  0  0  0  0  0
   11.5602  -19.1158   28.1889 O   0  0  0  0  0  0  0  0  0  0  0  0
  2  1  1  1
  3  2  1  0
  3  4  1  0
  4  5  2  0
  6  2  1  0
  6  7  2  0
  8  4  1  0
 10  9  1  1
 10 12  1  0
 10 11  1  0
 13 12  1  1
 13 14  1  0
 14  6  1  0
 15 13  1  0
 16 15  2  0
 18 19  1  0
 18 17  1  6
 19 15  1  0
 20 18  1  0
 21 20  2  0
 22 20  1  0
M  END
$$$$
