DLA.pdb
     RDKit          3D

 22 21  0  0  1  0  0  0  0  0999 V2000
    8.4302  -15.1933   20.3545 N   0  0  0  0  0  0  0  0  0  0  0  0
    7.9076  -15.9657   21.4524 C   0  0  1  0  0  0  0  0  0  0  0  0
    8.2252  -17.4305   21.1944 C   0  0  0  0  0  0  0  0  0  0  0  0
    7.4099  -17.8605   20.0360 C   0  0  0  0  0  0  0  0  0  0  0  0
    6.2008  -18.1558   20.1632 O   0  0  0  0  0  0  0  0  0  0  0  0
    8.4993  -15.4956   22.7165 C   0  0  0  0  0  0  0  0  0  0  0  0
    9.7433  -15.3298   22.7815 O   0  0  0  0  0  0  0  0  0  0  0  0
    8.0050  -17.9347   18.7901 O   0  0  0  0  0  0  0  0  0  0  0  0
    5.7939  -12.1418   26.1740 C   0  0  0  0  0  0  0  0  0  0  0  0
    6.8996  -12.7959   25.3853 C   0  0  1  0  0  0  0  0  0  0  0  0
    8.1182  -11.8714   25.5095 C   0  0  0  0  0  0  0  0  0  0  0  0
    7.3122  -14.1176   25.9280 C   0  0  0  0  0  0  0  0  0  0  0  0
    8.3930  -14.8165   25.1458 C   0  0  2  0  0  0  0  0  0  0  0  0
    7.7562  -15.2134   23.8799 N   0  0  0  0  0  0  0  0  0  0  0  0
    8.8260  -16.0502   25.8485 C   0  0  0  0  0  0  0  0  0  0  0  0
    7.9785  -16.9426   26.1258 O   0  0  0  0  0  0  0  0  0  0  0  0
   12.0482  -17.8538   26.4628 C   0  0  0  0  0  0  0  0  0  0  0  0
   10.5907  -17.5606   26.8132 C   0  0  2  0  0  0  0  0  0  0  0  0
   10.1831  -16.2858   26.2362 N   0  0  0  0  0  0  0  0  0  0  0  0
   10.4147  -17.5193   28.2754 C   0  0  0  0  0  0  0  0  0  0  0  0
   10.1282  -16.4217   28.8602 O   0  0  0  0  0  0  0  0  0  0  0  0
   10.5515  -18.6515   29.0552 O   0  0  0  0  0  0  0  0  0  0  0  0
  2  1  1  6
  3  2  1  0
  3  4  1  0
  4  5  2  0
  6  2  1  0
  6  7  2  0
  8  4  1  0
 10  9  1  1
 10 12  1  0
 10 11  1  0
 13 12  1  1
 13 14  1  0
 14  6  1  0
 15 13  1  0
 16 15  2  0
 18 19  1  0
 18 17  1  1
 19 15  1  0
 20 18  1  0
 21 20  2  0
 22 20  1  0
M  END
$$$$
