DLA.pdb
     RDKit          3D

 22 21  0  0  1  0  0  0  0  0999 V2000
   11.5497  -16.7670   17.8246 N   0  0  0  0  0  0  0  0  0  0  0  0
   12.5314  -15.8645   18.3695 C   0  0  1  0  0  0  0  0  0  0  0  0
   13.0532  -14.9928   17.2377 C   0  0  0  0  0  0  0  0  0  0  0  0
   13.8092  -15.8721   16.3173 C   0  0  0  0  0  0  0  0  0  0  0  0
   13.9819  -17.0853   16.5693 O   0  0  0  0  0  0  0  0  0  0  0  0
   11.9237  -15.0576   19.4412 C   0  0  0  0  0  0  0  0  0  0  0  0
   12.6470  -14.2555   20.0837 O   0  0  0  0  0  0  0  0  0  0  0  0
   14.3324  -15.3330   15.1565 O   0  0  0  0  0  0  0  0  0  0  0  0
    6.9733  -13.0620   18.9015 C   0  0  0  0  0  0  0  0  0  0  0  0
    8.4144  -13.2707   19.2918 C   0  0  1  0  0  0  0  0  0  0  0  0
    8.9862  -11.8758   19.5784 C   0  0  0  0  0  0  0  0  0  0  0  0
    8.5812  -14.0627   20.5394 C   0  0  0  0  0  0  0  0  0  0  0  0
   10.0091  -14.3470   20.9255 C   0  0  2  0  0  0  0  0  0  0  0  0
   10.5638  -15.1221   19.8043 N   0  0  0  0  0  0  0  0  0  0  0  0
   10.0576  -15.1982   22.1407 C   0  0  0  0  0  0  0  0  0  0  0  0
    9.5093  -14.8010   23.2052 O   0  0  0  0  0  0  0  0  0  0  0  0
   10.6316  -18.7378   23.0921 C   0  0  0  0  0  0  0  0  0  0  0  0
   10.7877  -17.2497   23.3993 C   0  0  2  0  0  0  0  0  0  0  0  0
   10.7074  -16.4727   22.1689 N   0  0  0  0  0  0  0  0  0  0  0  0
   12.0805  -16.9967   24.0592 C   0  0  0  0  0  0  0  0  0  0  0  0
   12.9507  -16.2440   23.5070 O   0  0  0  0  0  0  0  0  0  0  0  0
   12.3929  -17.5574   25.2827 O   0  0  0  0  0  0  0  0  0  0  0  0
  2  1  1  6
  3  2  1  0
  3  4  1  0
  4  5  2  0
  6  2  1  0
  6  7  2  0
  8  4  1  0
 10  9  1  1
 10 12  1  0
 10 11  1  0
 13 12  1  6
 13 14  1  0
 14  6  1  0
 15 13  1  0
 16 15  2  0
 18 19  1  0
 18 17  1  6
 19 15  1  0
 20 18  1  0
 21 20  2  0
 22 20  1  0
M  END
$$$$
