DLA.pdb
     RDKit          3D

 22 21  0  0  1  0  0  0  0  0999 V2000
    7.8409  -16.3820   21.8620 N   0  0  0  0  0  0  0  0  0  0  0  0
    9.2382  -16.1402   22.1155 C   0  0  1  0  0  0  0  0  0  0  0  0
    9.7529  -15.1801   21.0541 C   0  0  0  0  0  0  0  0  0  0  0  0
    9.7610  -15.9104   19.7664 C   0  0  0  0  0  0  0  0  0  0  0  0
    9.6495  -17.1558   19.7223 O   0  0  0  0  0  0  0  0  0  0  0  0
    9.4096  -15.5934   23.4722 C   0  0  0  0  0  0  0  0  0  0  0  0
   10.5478  -15.1983   23.8297 O   0  0  0  0  0  0  0  0  0  0  0  0
    9.8953  -15.1933   18.5918 O   0  0  0  0  0  0  0  0  0  0  0  0
    5.6257  -12.4411   25.9839 C   0  0  0  0  0  0  0  0  0  0  0  0
    6.9583  -13.0048   25.5610 C   0  0  1  0  0  0  0  0  0  0  0  0
    8.0216  -12.0358   26.0955 C   0  0  0  0  0  0  0  0  0  0  0  0
    7.2558  -14.3336   26.1589 C   0  0  0  0  0  0  0  0  0  0  0  0
    8.5824  -14.9264   25.7623 C   0  0  2  0  0  0  0  0  0  0  0  0
    8.3692  -15.4797   24.4155 N   0  0  0  0  0  0  0  0  0  0  0  0
    8.9408  -16.0468   26.6676 C   0  0  0  0  0  0  0  0  0  0  0  0
    9.0550  -15.8382   27.9065 O   0  0  0  0  0  0  0  0  0  0  0  0
    9.2893  -19.8075   26.4808 C   0  0  0  0  0  0  0  0  0  0  0  0
    9.5552  -18.4441   27.1162 C   0  0  2  0  0  0  0  0  0  0  0  0
    9.1683  -17.3796   26.1991 N   0  0  0  0  0  0  0  0  0  0  0  0
   10.9823  -18.3081   27.4562 C   0  0  0  0  0  0  0  0  0  0  0  0
   11.7276  -17.5039   26.8031 O   0  0  0  0  0  0  0  0  0  0  0  0
   11.5571  -19.0360   28.4802 O   0  0  0  0  0  0  0  0  0  0  0  0
  2  1  1  6
  3  2  1  0
  3  4  1  0
  4  5  2  0
  6  2  1  0
  6  7  2  0
  8  4  1  0
 10  9  1  1
 10 12  1  0
 10 11  1  0
 13 12  1  1
 13 14  1  0
 14  6  1  0
 15 13  1  0
 16 15  2  0
 18 19  1  0
 18 17  1  6
 19 15  1  0
 20 18  1  0
 21 20  2  0
 22 20  1  0
M  END
$$$$
