DLA.pdb
     RDKit          3D

 22 21  0  0  1  0  0  0  0  0999 V2000
    7.9987  -14.3858   20.3044 N   0  0  0  0  0  0  0  0  0  0  0  0
    7.6567  -15.4328   21.2328 C   0  0  1  0  0  0  0  0  0  0  0  0
    8.1268  -16.7560   20.6485 C   0  0  0  0  0  0  0  0  0  0  0  0
    7.2331  -17.0783   19.5132 C   0  0  0  0  0  0  0  0  0  0  0  0
    6.5419  -16.1964   18.9566 O   0  0  0  0  0  0  0  0  0  0  0  0
    8.2818  -15.1626   22.5386 C   0  0  0  0  0  0  0  0  0  0  0  0
    9.5356  -15.1338   22.6187 O   0  0  0  0  0  0  0  0  0  0  0  0
    7.1665  -18.3845   19.0643 O   0  0  0  0  0  0  0  0  0  0  0  0
    5.7310  -12.0629   26.4164 C   0  0  0  0  0  0  0  0  0  0  0  0
    6.8151  -12.6412   25.5431 C   0  0  1  0  0  0  0  0  0  0  0  0
    8.0717  -11.8012   25.8084 C   0  0  0  0  0  0  0  0  0  0  0  0
    7.1637  -14.0462   25.8840 C   0  0  0  0  0  0  0  0  0  0  0  0
    8.2245  -14.6669   25.0135 C   0  0  2  0  0  0  0  0  0  0  0  0
    7.5609  -14.9297   23.7266 N   0  0  0  0  0  0  0  0  0  0  0  0
    8.6626  -15.9679   25.5783 C   0  0  0  0  0  0  0  0  0  0  0  0
    7.8194  -16.8898   25.7533 O   0  0  0  0  0  0  0  0  0  0  0  0
   11.7499  -17.9631   25.8105 C   0  0  0  0  0  0  0  0  0  0  0  0
   10.4205  -17.5481   26.4378 C   0  0  2  0  0  0  0  0  0  0  0  0
   10.0199  -16.2373   25.9424 N   0  0  0  0  0  0  0  0  0  0  0  0
   10.5389  -17.5058   27.9058 C   0  0  0  0  0  0  0  0  0  0  0  0
   10.3366  -16.4160   28.5385 O   0  0  0  0  0  0  0  0  0  0  0  0
   10.8686  -18.6287   28.6401 O   0  0  0  0  0  0  0  0  0  0  0  0
  2  1  1  6
  3  2  1  0
  3  4  1  0
  4  5  2  0
  6  2  1  0
  6  7  2  0
  8  4  1  0
 10  9  1  1
 10 12  1  0
 10 11  1  0
 13 12  1  1
 13 14  1  0
 14  6  1  0
 15 13  1  0
 16 15  2  0
 18 19  1  0
 18 17  1  6
 19 15  1  0
 20 18  1  0
 21 20  2  0
 22 20  1  0
M  END
$$$$
