DLA.pdb
     RDKit          3D

 22 21  0  0  1  0  0  0  0  0999 V2000
    9.4932  -15.8471   20.1873 N   0  0  0  0  0  0  0  0  0  0  0  0
    8.5280  -16.2600   21.1737 C   0  0  1  0  0  0  0  0  0  0  0  0
    8.5444  -17.7791   21.2456 C   0  0  0  0  0  0  0  0  0  0  0  0
    7.8532  -18.2846   20.0379 C   0  0  0  0  0  0  0  0  0  0  0  0
    8.4733  -18.8958   19.1395 O   0  0  0  0  0  0  0  0  0  0  0  0
    8.8549  -15.6507   22.4741 C   0  0  0  0  0  0  0  0  0  0  0  0
   10.0485  -15.6589   22.8670 O   0  0  0  0  0  0  0  0  0  0  0  0
    6.4931  -18.0724   19.9078 O   0  0  0  0  0  0  0  0  0  0  0  0
    8.2907  -12.0261   26.5001 C   0  0  0  0  0  0  0  0  0  0  0  0
    7.1806  -13.0409   26.3983 C   0  0  1  0  0  0  0  0  0  0  0  0
    5.8738  -12.2700   26.6291 C   0  0  0  0  0  0  0  0  0  0  0  0
    7.0723  -13.6673   25.0538 C   0  0  0  0  0  0  0  0  0  0  0  0
    8.2705  -14.4761   24.6311 C   0  0  2  0  0  0  0  0  0  0  0  0
    7.9070  -15.0482   23.3249 N   0  0  0  0  0  0  0  0  0  0  0  0
    8.4983  -15.5977   25.5763 C   0  0  0  0  0  0  0  0  0  0  0  0
    7.5463  -16.3717   25.8699 O   0  0  0  0  0  0  0  0  0  0  0  0
   11.1909  -17.8150   26.5222 C   0  0  0  0  0  0  0  0  0  0  0  0
    9.9798  -17.0285   27.0199 C   0  0  2  0  0  0  0  0  0  0  0  0
    9.7679  -15.8529   26.1850 N   0  0  0  0  0  0  0  0  0  0  0  0
   10.1809  -16.6107   28.4184 C   0  0  0  0  0  0  0  0  0  0  0  0
   10.2245  -15.3719   28.7221 O   0  0  0  0  0  0  0  0  0  0  0  0
   10.3274  -17.5323   29.4373 O   0  0  0  0  0  0  0  0  0  0  0  0
  2  1  1  6
  3  2  1  0
  3  4  1  0
  4  5  2  0
  6  2  1  0
  6  7  2  0
  8  4  1  0
 10  9  1  6
 10 12  1  0
 10 11  1  0
 13 12  1  1
 13 14  1  0
 14  6  1  0
 15 13  1  0
 16 15  2  0
 18 19  1  0
 18 17  1  6
 19 15  1  0
 20 18  1  0
 21 20  2  0
 22 20  1  0
M  END
$$$$
