YCP.pdb
     RDKit          3D

 26 27  0  0  1  0  0  0  0  0999 V2000
   11.3839  -16.8890   30.6742 O   0  0  0  0  0  0  0  0  0  0  0  0
   10.5446  -16.1795   29.8146 C   0  0  0  0  0  0  0  0  0  0  0  0
    9.9869  -16.7734   28.7188 C   0  0  0  0  0  0  0  0  0  0  0  0
    9.1513  -16.0714   27.8608 C   0  0  0  0  0  0  0  0  0  0  0  0
    8.8622  -14.7473   28.0965 C   0  0  0  0  0  0  0  0  0  0  0  0
    7.9734  -13.9786   27.1946 C   0  0  0  0  0  0  0  0  0  0  0  0
    7.3214  -14.8960   26.1553 C   0  0  2  0  0  0  0  0  0  0  0  0
    7.5871  -16.2810   26.4424 N   0  0  0  0  0  0  0  0  0  0  0  0
    7.8908  -14.4937   24.8365 C   0  0  0  0  0  0  0  0  0  0  0  0
    7.7452  -13.2742   24.5216 O   0  0  0  0  0  0  0  0  0  0  0  0
    9.4175  -14.1277   29.2014 C   0  0  0  0  0  0  0  0  0  0  0  0
   10.2434  -14.8459   30.0374 C   0  0  0  0  0  0  0  0  0  0  0  0
    8.5573  -15.4046   23.9744 N   0  0  0  0  0  0  0  0  0  0  0  0
    9.0498  -14.9574   22.6739 C   0  0  1  0  0  0  0  0  0  0  0  0
   10.3608  -15.7206   22.4816 C   0  0  0  0  0  0  0  0  0  0  0  0
   11.4120  -15.4695   23.9582 S   0  0  0  0  0  0  0  0  0  0  0  0
    8.0988  -15.2998   21.5950 C   0  0  0  0  0  0  0  0  0  0  0  0
    7.1661  -16.0976   21.8651 O   0  0  0  0  0  0  0  0  0  0  0  0
    8.2301  -14.7548   20.3167 N   0  0  0  0  0  0  0  0  0  0  0  0
    9.2661  -13.8781   19.8547 C   0  0  0  0  0  0  0  0  0  0  0  0
    8.4880  -12.9307   18.9605 C   0  0  0  0  0  0  0  0  0  0  0  0
    7.1368  -13.5369   18.7192 C   0  0  0  0  0  0  0  0  0  0  0  0
    7.3427  -14.9693   19.1987 C   0  0  1  0  0  0  0  0  0  0  0  0
    7.9369  -15.7756   18.1303 C   0  0  0  0  0  0  0  0  0  0  0  0
    7.2015  -16.3522   17.1074 O   0  0  0  0  0  0  0  0  0  0  0  0
    9.1778  -15.9670   18.1219 O   0  0  0  0  0  0  0  0  0  0  0  0
  2  3  2  0
  2  1  1  0
  4  3  1  0
  5  4  2  0
  6  5  1  0
  7  9  1  0
  7  6  1  0
  7  8  1  1
  9 10  2  0
 11  5  1  0
 11 12  2  0
 12  2  1  0
 13 14  1  0
 13  9  1  0
 14 15  1  6
 15 16  1  0
 17 19  1  0
 17 14  1  0
 18 17  2  0
 19 20  1  0
 21 20  1  0
 22 21  1  0
 23 22  1  0
 23 19  1  0
 23 24  1  6
 25 24  1  0
 26 24  2  0
M  END
$$$$
