YCP.pdb
     RDKit          3D

 26 27  0  0  1  0  0  0  0  0999 V2000
    5.7628  -10.7131   28.2749 O   0  0  0  0  0  0  0  0  0  0  0  0
    6.2882  -11.7267   27.4728 C   0  0  0  0  0  0  0  0  0  0  0  0
    7.2598  -12.5662   27.9374 C   0  0  0  0  0  0  0  0  0  0  0  0
    7.7855  -13.5760   27.1429 C   0  0  0  0  0  0  0  0  0  0  0  0
    7.3356  -13.7569   25.8555 C   0  0  0  0  0  0  0  0  0  0  0  0
    7.8819  -14.8276   24.9899 C   0  0  0  0  0  0  0  0  0  0  0  0
    6.7630  -15.7347   24.4681 C   0  0  2  0  0  0  0  0  0  0  0  0
    6.4522  -16.7753   25.4124 N   0  0  0  0  0  0  0  0  0  0  0  0
    7.2581  -16.2985   23.1789 C   0  0  0  0  0  0  0  0  0  0  0  0
    7.7006  -17.4856   23.2296 O   0  0  0  0  0  0  0  0  0  0  0  0
    6.3517  -12.9167   25.3665 C   0  0  0  0  0  0  0  0  0  0  0  0
    5.8464  -11.9225   26.1745 C   0  0  0  0  0  0  0  0  0  0  0  0
    7.2428  -15.5674   21.9612 N   0  0  0  0  0  0  0  0  0  0  0  0
    7.7786  -16.1642   20.7403 C   0  0  1  0  0  0  0  0  0  0  0  0
    7.7728  -15.0210   19.7248 C   0  0  0  0  0  0  0  0  0  0  0  0
    8.7829  -13.6435   20.3810 S   0  0  0  0  0  0  0  0  0  0  0  0
    9.1578  -16.6553   20.9456 C   0  0  0  0  0  0  0  0  0  0  0  0
    9.8062  -16.1966   21.9196 O   0  0  0  0  0  0  0  0  0  0  0  0
    9.7236  -17.5994   20.0869 N   0  0  0  0  0  0  0  0  0  0  0  0
    9.1300  -18.1583   18.9078 C   0  0  0  0  0  0  0  0  0  0  0  0
    9.5953  -19.6005   18.9862 C   0  0  0  0  0  0  0  0  0  0  0  0
   10.6840  -19.6737   20.0161 C   0  0  0  0  0  0  0  0  0  0  0  0
   11.0285  -18.2023   20.2171 C   0  0  1  0  0  0  0  0  0  0  0  0
   11.9771  -17.7643   19.1909 C   0  0  0  0  0  0  0  0  0  0  0  0
   11.5962  -17.1534   18.0072 O   0  0  0  0  0  0  0  0  0  0  0  0
   13.2065  -17.9425   19.3738 O   0  0  0  0  0  0  0  0  0  0  0  0
  2  3  2  0
  2  1  1  0
  4  3  1  0
  5  4  2  0
  6  5  1  0
  7  9  1  0
  7  6  1  0
  7  8  1  1
  9 10  2  0
 11  5  1  0
 11 12  2  0
 12  2  1  0
 13 14  1  0
 13  9  1  0
 14 15  1  6
 15 16  1  0
 17 19  1  0
 17 14  1  0
 18 17  2  0
 19 20  1  0
 21 20  1  0
 22 21  1  0
 23 22  1  0
 23 19  1  0
 23 24  1  6
 25 24  1  0
 26 24  2  0
M  END
$$$$
