YCP.pdb
     RDKit          3D

 26 27  0  0  1  0  0  0  0  0999 V2000
   11.9932  -19.8168   29.6434 O   0  0  0  0  0  0  0  0  0  0  0  0
   11.1765  -19.4798   28.5635 C   0  0  0  0  0  0  0  0  0  0  0  0
   10.6648  -18.2211   28.4278 C   0  0  0  0  0  0  0  0  0  0  0  0
    9.8518  -17.8813   27.3551 C   0  0  0  0  0  0  0  0  0  0  0  0
    9.5389  -18.8140   26.3934 C   0  0  0  0  0  0  0  0  0  0  0  0
    8.6734  -18.4739   25.2404 C   0  0  0  0  0  0  0  0  0  0  0  0
    7.2095  -18.3453   25.6733 C   0  0  2  0  0  0  0  0  0  0  0  0
    6.5081  -19.5923   25.5173 N   0  0  0  0  0  0  0  0  0  0  0  0
    6.6193  -17.2769   24.8159 C   0  0  0  0  0  0  0  0  0  0  0  0
    6.1938  -17.6517   23.6818 O   0  0  0  0  0  0  0  0  0  0  0  0
   10.0475  -20.0947   26.5132 C   0  0  0  0  0  0  0  0  0  0  0  0
   10.8518  -20.4068   27.5867 C   0  0  0  0  0  0  0  0  0  0  0  0
    6.5307  -15.9200   25.2264 N   0  0  0  0  0  0  0  0  0  0  0  0
    6.8059  -14.8462   24.2751 C   0  0  1  0  0  0  0  0  0  0  0  0
    7.1019  -13.6290   25.1519 C   0  0  0  0  0  0  0  0  0  0  0  0
    5.5614  -13.1242   26.0007 S   0  0  0  0  0  0  0  0  0  0  0  0
    7.9791  -15.1645   23.4337 C   0  0  0  0  0  0  0  0  0  0  0  0
    8.6897  -16.1471   23.7637 O   0  0  0  0  0  0  0  0  0  0  0  0
    8.2888  -14.4002   22.3075 N   0  0  0  0  0  0  0  0  0  0  0  0
    7.9273  -13.0342   22.0658 C   0  0  0  0  0  0  0  0  0  0  0  0
    7.6166  -13.0589   20.5807 C   0  0  0  0  0  0  0  0  0  0  0  0
    8.1419  -14.3502   20.0257 C   0  0  0  0  0  0  0  0  0  0  0  0
    9.0414  -14.8374   21.1561 C   0  0  1  0  0  0  0  0  0  0  0  0
   10.3616  -14.2120   21.0518 C   0  0  0  0  0  0  0  0  0  0  0  0
   11.3274  -14.6101   20.1417 O   0  0  0  0  0  0  0  0  0  0  0  0
   10.6545  -13.2623   21.8192 O   0  0  0  0  0  0  0  0  0  0  0  0
  2  3  2  0
  2  1  1  0
  4  3  1  0
  5  4  2  0
  6  5  1  0
  7  9  1  0
  7  6  1  0
  7  8  1  6
  9 10  2  0
 11  5  1  0
 11 12  2  0
 12  2  1  0
 13 14  1  0
 13  9  1  0
 14 15  1  1
 15 16  1  0
 17 19  1  0
 17 14  1  0
 18 17  2  0
 19 20  1  0
 21 20  1  0
 22 21  1  0
 23 22  1  0
 23 19  1  0
 23 24  1  6
 25 24  1  0
 26 24  2  0
M  END
$$$$
