YCP.pdb
     RDKit          3D

 26 27  0  0  1  0  0  0  0  0999 V2000
    5.5813  -23.8116   23.4484 O   0  0  0  0  0  0  0  0  0  0  0  0
    6.0725  -22.5167   23.6174 C   0  0  0  0  0  0  0  0  0  0  0  0
    7.2749  -22.1405   23.0909 C   0  0  0  0  0  0  0  0  0  0  0  0
    7.7676  -20.8532   23.2565 C   0  0  0  0  0  0  0  0  0  0  0  0
    7.0488  -19.9163   23.9623 C   0  0  0  0  0  0  0  0  0  0  0  0
    7.5548  -18.5370   24.1516 C   0  0  0  0  0  0  0  0  0  0  0  0
    6.7833  -17.5452   23.2752 C   0  0  2  0  0  0  0  0  0  0  0  0
    7.0534  -17.7638   21.8785 N   0  0  0  0  0  0  0  0  0  0  0  0
    7.2203  -16.1865   23.7088 C   0  0  0  0  0  0  0  0  0  0  0  0
    8.3781  -15.8329   23.3319 O   0  0  0  0  0  0  0  0  0  0  0  0
    5.8284  -20.2779   24.5034 C   0  0  0  0  0  0  0  0  0  0  0  0
    5.3615  -21.5613   24.3251 C   0  0  0  0  0  0  0  0  0  0  0  0
    6.4052  -15.3286   24.4943 N   0  0  0  0  0  0  0  0  0  0  0  0
    7.0182  -14.3744   25.4148 C   0  0  1  0  0  0  0  0  0  0  0  0
    5.8334  -13.6573   26.0628 C   0  0  0  0  0  0  0  0  0  0  0  0
    6.4302  -12.7348   27.5262 S   0  0  0  0  0  0  0  0  0  0  0  0
    7.8204  -15.0659   26.4463 C   0  0  0  0  0  0  0  0  0  0  0  0
    7.5380  -16.2626   26.7061 O   0  0  0  0  0  0  0  0  0  0  0  0
    8.8596  -14.4127   27.1111 N   0  0  0  0  0  0  0  0  0  0  0  0
    9.0352  -12.9975   27.2578 C   0  0  0  0  0  0  0  0  0  0  0  0
   10.5395  -12.8600   27.1138 C   0  0  0  0  0  0  0  0  0  0  0  0
   11.1365  -14.2318   27.2287 C   0  0  0  0  0  0  0  0  0  0  0  0
    9.9700  -15.0383   27.7885 C   0  0  1  0  0  0  0  0  0  0  0  0
    9.9167  -14.8985   29.2454 C   0  0  0  0  0  0  0  0  0  0  0  0
    8.8543  -14.3197   29.9204 O   0  0  0  0  0  0  0  0  0  0  0  0
   10.8752  -15.3192   29.9390 O   0  0  0  0  0  0  0  0  0  0  0  0
  2  3  2  0
  2  1  1  0
  4  3  1  0
  5  4  2  0
  6  5  1  0
  7  9  1  0
  7  6  1  0
  7  8  1  6
  9 10  2  0
 11  5  1  0
 11 12  2  0
 12  2  1  0
 13 14  1  0
 13  9  1  0
 14 15  1  1
 15 16  1  0
 17 19  1  0
 17 14  1  0
 18 17  2  0
 19 20  1  0
 21 20  1  0
 22 21  1  0
 23 22  1  0
 23 19  1  0
 23 24  1  1
 25 24  1  0
 26 24  2  0
M  END
$$$$
