YCP.pdb
     RDKit          3D

 26 27  0  0  1  0  0  0  0  0999 V2000
   10.9736  -15.0060   31.5611 O   0  0  0  0  0  0  0  0  0  0  0  0
   10.5563  -15.3848   30.2847 C   0  0  0  0  0  0  0  0  0  0  0  0
   10.7214  -16.6638   29.8357 C   0  0  0  0  0  0  0  0  0  0  0  0
   10.3078  -17.0452   28.5666 C   0  0  0  0  0  0  0  0  0  0  0  0
    9.7156  -16.1345   27.7224 C   0  0  0  0  0  0  0  0  0  0  0  0
    9.2664  -16.5190   26.3643 C   0  0  0  0  0  0  0  0  0  0  0  0
    7.7528  -16.7539   26.3337 C   0  0  2  0  0  0  0  0  0  0  0  0
    7.4152  -18.0487   26.8639 N   0  0  0  0  0  0  0  0  0  0  0  0
    7.3455  -16.6270   24.9044 C   0  0  0  0  0  0  0  0  0  0  0  0
    7.0815  -17.7139   24.3073 O   0  0  0  0  0  0  0  0  0  0  0  0
    9.5394  -14.8339   28.1589 C   0  0  0  0  0  0  0  0  0  0  0  0
    9.9584  -14.4805   29.4223 C   0  0  0  0  0  0  0  0  0  0  0  0
    7.2535  -15.3765   24.2371 N   0  0  0  0  0  0  0  0  0  0  0  0
    7.1097  -15.3290   22.7842 C   0  0  1  0  0  0  0  0  0  0  0  0
    7.0736  -13.8363   22.4550 C   0  0  0  0  0  0  0  0  0  0  0  0
    8.7035  -13.1049   22.8511 S   0  0  0  0  0  0  0  0  0  0  0  0
    8.2593  -15.9707   22.1116 C   0  0  0  0  0  0  0  0  0  0  0  0
    9.2300  -16.3319   22.8233 O   0  0  0  0  0  0  0  0  0  0  0  0
    8.2679  -16.1711   20.7301 N   0  0  0  0  0  0  0  0  0  0  0  0
    7.3398  -15.6397   19.7755 C   0  0  0  0  0  0  0  0  0  0  0  0
    7.1875  -16.8055   18.8162 C   0  0  0  0  0  0  0  0  0  0  0  0
    8.2861  -17.7845   19.1094 C   0  0  0  0  0  0  0  0  0  0  0  0
    9.2212  -16.9576   19.9846 C   0  0  1  0  0  0  0  0  0  0  0  0
   10.1116  -16.1520   19.1463 C   0  0  0  0  0  0  0  0  0  0  0  0
   10.0416  -14.7709   19.0620 O   0  0  0  0  0  0  0  0  0  0  0  0
   10.9931  -16.7239   18.4588 O   0  0  0  0  0  0  0  0  0  0  0  0
  2  3  2  0
  2  1  1  0
  4  3  1  0
  5  4  2  0
  6  5  1  0
  7  9  1  0
  7  6  1  0
  7  8  1  6
  9 10  2  0
 11  5  1  0
 11 12  2  0
 12  2  1  0
 13 14  1  0
 13  9  1  0
 14 15  1  6
 15 16  1  0
 17 19  1  0
 17 14  1  0
 18 17  2  0
 19 20  1  0
 21 20  1  0
 22 21  1  0
 23 22  1  0
 23 19  1  0
 23 24  1  6
 25 24  1  0
 26 24  2  0
M  END
$$$$
