YCP.pdb
     RDKit          3D

 26 27  0  0  1  0  0  0  0  0999 V2000
   11.4542  -14.7914   31.5821 O   0  0  0  0  0  0  0  0  0  0  0  0
   10.9781  -15.3701   30.4051 C   0  0  0  0  0  0  0  0  0  0  0  0
   10.9923  -16.7236   30.2248 C   0  0  0  0  0  0  0  0  0  0  0  0
   10.5196  -17.3037   29.0555 C   0  0  0  0  0  0  0  0  0  0  0  0
   10.0205  -16.5209   28.0402 C   0  0  0  0  0  0  0  0  0  0  0  0
    9.5108  -17.1180   26.7840 C   0  0  0  0  0  0  0  0  0  0  0  0
    8.0095  -17.4063   26.8841 C   0  0  2  0  0  0  0  0  0  0  0  0
    7.7523  -18.8216   26.9312 N   0  0  0  0  0  0  0  0  0  0  0  0
    7.3891  -16.7792   25.6812 C   0  0  0  0  0  0  0  0  0  0  0  0
    7.1944  -17.5516   24.6947 O   0  0  0  0  0  0  0  0  0  0  0  0
    9.9976  -15.1476   28.2039 C   0  0  0  0  0  0  0  0  0  0  0  0
   10.4723  -14.5965   29.3733 C   0  0  0  0  0  0  0  0  0  0  0  0
    7.0321  -15.4056   25.6255 N   0  0  0  0  0  0  0  0  0  0  0  0
    6.8126  -14.7563   24.3355 C   0  0  1  0  0  0  0  0  0  0  0  0
    7.0231  -13.2685   24.6187 C   0  0  0  0  0  0  0  0  0  0  0  0
    5.9604  -12.7794   26.0257 S   0  0  0  0  0  0  0  0  0  0  0  0
    7.7875  -15.2253   23.3278 C   0  0  0  0  0  0  0  0  0  0  0  0
    8.4254  -16.2798   23.5736 O   0  0  0  0  0  0  0  0  0  0  0  0
    7.9936  -14.5215   22.1401 N   0  0  0  0  0  0  0  0  0  0  0  0
    7.5838  -13.1785   21.8508 C   0  0  0  0  0  0  0  0  0  0  0  0
    7.1621  -13.2944   20.3978 C   0  0  0  0  0  0  0  0  0  0  0  0
    7.6731  -14.6056   19.8772 C   0  0  0  0  0  0  0  0  0  0  0  0
    8.6665  -15.0104   20.9605 C   0  0  1  0  0  0  0  0  0  0  0  0
    9.9604  -14.3679   20.7201 C   0  0  0  0  0  0  0  0  0  0  0  0
   10.9137  -14.8692   19.8485 O   0  0  0  0  0  0  0  0  0  0  0  0
   10.2411  -13.3047   21.3263 O   0  0  0  0  0  0  0  0  0  0  0  0
  2  3  2  0
  2  1  1  0
  4  3  1  0
  5  4  2  0
  6  5  1  0
  7  9  1  0
  7  6  1  0
  7  8  1  6
  9 10  2  0
 11  5  1  0
 11 12  2  0
 12  2  1  0
 13 14  1  0
 13  9  1  0
 14 15  1  1
 15 16  1  0
 17 19  1  0
 17 14  1  0
 18 17  2  0
 19 20  1  0
 21 20  1  0
 22 21  1  0
 23 22  1  0
 23 19  1  0
 23 24  1  6
 25 24  1  0
 26 24  2  0
M  END
$$$$
