YCP.pdb
     RDKit          3D

 26 27  0  0  1  0  0  0  0  0999 V2000
    8.6054  -12.9758   16.2159 O   0  0  0  0  0  0  0  0  0  0  0  0
    8.2905  -13.2605   17.5450 C   0  0  0  0  0  0  0  0  0  0  0  0
    7.0439  -13.0163   18.0459 C   0  0  0  0  0  0  0  0  0  0  0  0
    6.7261  -13.2980   19.3676 C   0  0  0  0  0  0  0  0  0  0  0  0
    7.6691  -13.8353   20.2129 C   0  0  0  0  0  0  0  0  0  0  0  0
    7.3524  -14.1439   21.6267 C   0  0  0  0  0  0  0  0  0  0  0  0
    7.1347  -15.6475   21.8238 C   0  0  2  0  0  0  0  0  0  0  0  0
    5.9241  -16.0877   21.1820 N   0  0  0  0  0  0  0  0  0  0  0  0
    7.0803  -15.8654   23.2985 C   0  0  0  0  0  0  0  0  0  0  0  0
    5.9231  -15.8483   23.8165 O   0  0  0  0  0  0  0  0  0  0  0  0
    8.9378  -14.0900   19.7244 C   0  0  0  0  0  0  0  0  0  0  0  0
    9.2281  -13.8017   18.4094 C   0  0  0  0  0  0  0  0  0  0  0  0
    8.2404  -16.0802   24.0894 N   0  0  0  0  0  0  0  0  0  0  0  0
    8.1152  -16.3263   25.5238 C   0  0  1  0  0  0  0  0  0  0  0  0
    7.3542  -17.6493   25.6169 C   0  0  0  0  0  0  0  0  0  0  0  0
    7.4422  -18.2609   27.3393 S   0  0  0  0  0  0  0  0  0  0  0  0
    9.4423  -16.4568   26.1620 C   0  0  0  0  0  0  0  0  0  0  0  0
   10.3236  -17.1165   25.5559 O   0  0  0  0  0  0  0  0  0  0  0  0
    9.7105  -15.8659   27.3979 N   0  0  0  0  0  0  0  0  0  0  0  0
    8.7784  -15.1885   28.2509 C   0  0  0  0  0  0  0  0  0  0  0  0
    9.6244  -14.0459   28.7811 C   0  0  0  0  0  0  0  0  0  0  0  0
   11.0571  -14.3483   28.4535 C   0  0  0  0  0  0  0  0  0  0  0  0
   10.9888  -15.8214   28.0667 C   0  0  1  0  0  0  0  0  0  0  0  0
   11.0473  -16.6585   29.2669 C   0  0  0  0  0  0  0  0  0  0  0  0
   12.1869  -16.8091   30.0403 O   0  0  0  0  0  0  0  0  0  0  0  0
   10.0205  -17.2821   29.6324 O   0  0  0  0  0  0  0  0  0  0  0  0
  2  3  2  0
  2  1  1  0
  4  3  1  0
  5  4  2  0
  6  5  1  0
  7  9  1  0
  7  6  1  0
  7  8  1  6
  9 10  2  0
 11  5  1  0
 11 12  2  0
 12  2  1  0
 13 14  1  0
 13  9  1  0
 14 15  1  6
 15 16  1  0
 17 19  1  0
 17 14  1  0
 18 17  2  0
 19 20  1  0
 21 20  1  0
 22 21  1  0
 23 22  1  0
 23 19  1  0
 23 24  1  1
 25 24  1  0
 26 24  2  0
M  END
$$$$
