DGG.pdb
     RDKit          3D

 17 16  0  0  1  0  0  0  0  0999 V2000
   16.2302  -12.2501  -14.7082 N   0  0  0  0  0  0  0  0  0  0  0  0
   17.5207  -12.2515  -15.3469 C   0  0  1  0  0  0  0  0  0  0  0  0
   17.5649  -13.1889  -16.5366 C   0  0  0  0  0  0  0  0  0  0  0  0
   17.1748  -14.5597  -16.1786 C   0  0  0  0  0  0  0  0  0  0  0  0
   16.0821  -15.0111  -16.5935 O   0  0  0  0  0  0  0  0  0  0  0  0
   17.9059  -10.8705  -15.7324 C   0  0  0  0  0  0  0  0  0  0  0  0
   17.0393  -10.1002  -16.2386 O   0  0  0  0  0  0  0  0  0  0  0  0
   17.9790  -15.3539  -15.4019 O   0  0  0  0  0  0  0  0  0  0  0  0
   19.2079  -10.3664  -15.5605 N   0  0  0  0  0  0  0  0  0  0  0  0
   19.5784   -8.9962  -15.8554 C   0  0  0  0  0  0  0  0  0  0  0  0
   20.1497   -8.3228  -14.6660 C   0  0  0  0  0  0  0  0  0  0  0  0
   20.0602   -8.9012  -13.5585 O   0  0  0  0  0  0  0  0  0  0  0  0
   20.7823   -7.0618  -14.7587 N   0  0  0  0  0  0  0  0  0  0  0  0
   21.5050   -6.5643  -13.6035 C   0  0  0  0  0  0  0  0  0  0  0  0
   22.2183   -5.3182  -13.9219 C   0  0  0  0  0  0  0  0  0  0  0  0
   22.1427   -4.7912  -15.1963 O   0  0  0  0  0  0  0  0  0  0  0  0
   22.8917   -4.7306  -13.0531 O   0  0  0  0  0  0  0  0  0  0  0  0
  2  1  1  6
  2  3  1  0
  3  4  1  0
  4  8  1  0
  4  5  2  0
  6  7  2  0
  6  2  1  0
  9  6  1  0
 10 11  1  0
 10  9  1  0
 11 13  1  0
 12 11  2  0
 13 14  1  0
 14 15  1  0
 15 17  2  0
 15 16  1  0
M  END
$$$$
