DGG.pdb
     RDKit          3D

 17 16  0  0  1  0  0  0  0  0999 V2000
   20.9241    2.1739  -15.5262 N   0  0  0  0  0  0  0  0  0  0  0  0
   21.6298    1.0836  -16.1480 C   0  0  1  0  0  0  0  0  0  0  0  0
   23.1306    1.2097  -15.9816 C   0  0  0  0  0  0  0  0  0  0  0  0
   23.6375    2.4989  -16.4719 C   0  0  0  0  0  0  0  0  0  0  0  0
   23.5852    2.7482  -17.6988 O   0  0  0  0  0  0  0  0  0  0  0  0
   21.1353   -0.2148  -15.6248 C   0  0  0  0  0  0  0  0  0  0  0  0
   20.9980   -0.3724  -14.3770 O   0  0  0  0  0  0  0  0  0  0  0  0
   24.1655    3.4330  -15.6178 O   0  0  0  0  0  0  0  0  0  0  0  0
   20.8061   -1.2975  -16.4605 N   0  0  0  0  0  0  0  0  0  0  0  0
   20.3431   -2.5779  -15.9624 C   0  0  0  0  0  0  0  0  0  0  0  0
   20.0600   -3.5188  -17.0710 C   0  0  0  0  0  0  0  0  0  0  0  0
   20.0883   -3.0780  -18.2431 O   0  0  0  0  0  0  0  0  0  0  0  0
   19.7640   -4.8805  -16.8321 N   0  0  0  0  0  0  0  0  0  0  0  0
   19.3200   -5.6972  -17.9458 C   0  0  0  0  0  0  0  0  0  0  0  0
   20.4449   -6.0494  -18.8253 C   0  0  0  0  0  0  0  0  0  0  0  0
   20.1982   -6.4947  -20.1092 O   0  0  0  0  0  0  0  0  0  0  0  0
   21.6210   -5.9504  -18.4248 O   0  0  0  0  0  0  0  0  0  0  0  0
  2  1  1  1
  2  3  1  0
  3  4  1  0
  4  8  1  0
  4  5  2  0
  6  7  2  0
  6  2  1  0
  9  6  1  0
 10 11  1  0
 10  9  1  0
 11 13  1  0
 12 11  2  0
 13 14  1  0
 14 15  1  0
 15 17  2  0
 15 16  1  0
M  END
$$$$
