DGG.pdb
     RDKit          3D

 17 16  0  0  1  0  0  0  0  0999 V2000
   19.9972  -10.9331  -16.6964 N   0  0  0  0  0  0  0  0  0  0  0  0
   18.5697  -11.0390  -16.5407 C   0  0  1  0  0  0  0  0  0  0  0  0
   18.1776  -12.2308  -15.6911 C   0  0  0  0  0  0  0  0  0  0  0  0
   18.7255  -13.4901  -16.2140 C   0  0  0  0  0  0  0  0  0  0  0  0
   19.3107  -14.2729  -15.4299 O   0  0  0  0  0  0  0  0  0  0  0  0
   18.0170   -9.7766  -15.9886 C   0  0  0  0  0  0  0  0  0  0  0  0
   16.7873   -9.7088  -15.6989 O   0  0  0  0  0  0  0  0  0  0  0  0
   18.6105  -13.8265  -17.5385 O   0  0  0  0  0  0  0  0  0  0  0  0
   18.8046   -8.6322  -15.7674 N   0  0  0  0  0  0  0  0  0  0  0  0
   18.3053   -7.4315  -15.1263 C   0  0  0  0  0  0  0  0  0  0  0  0
   19.3225   -6.8346  -14.2299 C   0  0  0  0  0  0  0  0  0  0  0  0
   18.9923   -5.8455  -13.5359 O   0  0  0  0  0  0  0  0  0  0  0  0
   20.6350   -7.3533  -14.1465 N   0  0  0  0  0  0  0  0  0  0  0  0
   21.5870   -6.6891  -13.2765 C   0  0  0  0  0  0  0  0  0  0  0  0
   22.0349   -5.4144  -13.8573 C   0  0  0  0  0  0  0  0  0  0  0  0
   21.4564   -4.9510  -15.0227 O   0  0  0  0  0  0  0  0  0  0  0  0
   22.9326   -4.7457  -13.3090 O   0  0  0  0  0  0  0  0  0  0  0  0
  2  1  1  1
  2  3  1  0
  3  4  1  0
  4  8  1  0
  4  5  2  0
  6  7  2  0
  6  2  1  0
  9  6  1  0
 10 11  1  0
 10  9  1  0
 11 13  1  0
 12 11  2  0
 13 14  1  0
 14 15  1  0
 15 17  2  0
 15 16  1  0
M  END
$$$$
