DGG.pdb
     RDKit          3D

 17 16  0  0  1  0  0  0  0  0999 V2000
   19.2054  -12.8988  -16.3688 N   0  0  0  0  0  0  0  0  0  0  0  0
   17.8564  -12.4968  -16.0660 C   0  0  1  0  0  0  0  0  0  0  0  0
   17.2144  -13.3967  -15.0296 C   0  0  0  0  0  0  0  0  0  0  0  0
   17.2758  -14.8146  -15.4105 C   0  0  0  0  0  0  0  0  0  0  0  0
   16.8935  -15.1563  -16.5538 O   0  0  0  0  0  0  0  0  0  0  0  0
   17.8261  -11.0749  -15.6401 C   0  0  0  0  0  0  0  0  0  0  0  0
   16.7266  -10.5495  -15.2999 O   0  0  0  0  0  0  0  0  0  0  0  0
   17.7414  -15.7700  -14.5438 O   0  0  0  0  0  0  0  0  0  0  0  0
   18.9777  -10.2681  -15.5950 N   0  0  0  0  0  0  0  0  0  0  0  0
   18.9684   -8.8885  -15.1495 C   0  0  0  0  0  0  0  0  0  0  0  0
   20.2961   -8.4772  -14.6369 C   0  0  0  0  0  0  0  0  0  0  0  0
   21.1880   -9.3508  -14.5358 O   0  0  0  0  0  0  0  0  0  0  0  0
   20.5677   -7.1399  -14.2671 N   0  0  0  0  0  0  0  0  0  0  0  0
   21.9376   -6.7707  -13.9649 C   0  0  0  0  0  0  0  0  0  0  0  0
   22.0212   -5.3754  -13.5079 C   0  0  0  0  0  0  0  0  0  0  0  0
   23.2424   -4.8468  -13.1381 O   0  0  0  0  0  0  0  0  0  0  0  0
   21.0004   -4.6624  -13.4502 O   0  0  0  0  0  0  0  0  0  0  0  0
  2  1  1  1
  2  3  1  0
  3  4  1  0
  4  8  1  0
  4  5  2  0
  6  7  2  0
  6  2  1  0
  9  6  1  0
 10 11  1  0
 10  9  1  0
 11 13  1  0
 12 11  2  0
 13 14  1  0
 14 15  1  0
 15 17  2  0
 15 16  1  0
M  END
$$$$
