DGG.pdb
     RDKit          3D

 17 16  0  0  1  0  0  0  0  0999 V2000
   22.3711   -6.1970  -16.2589 N   0  0  0  0  0  0  0  0  0  0  0  0
   22.3361   -6.5791  -14.8711 C   0  0  1  0  0  0  0  0  0  0  0  0
   21.3675   -5.7306  -14.0723 C   0  0  0  0  0  0  0  0  0  0  0  0
   21.8061   -4.3316  -13.9727 C   0  0  0  0  0  0  0  0  0  0  0  0
   21.6751   -3.5791  -14.9660 O   0  0  0  0  0  0  0  0  0  0  0  0
   22.0213   -8.0243  -14.7427 C   0  0  0  0  0  0  0  0  0  0  0  0
   22.0002   -8.5580  -13.5958 O   0  0  0  0  0  0  0  0  0  0  0  0
   22.3544   -3.8329  -12.8189 O   0  0  0  0  0  0  0  0  0  0  0  0
   21.7405   -8.8444  -15.8506 N   0  0  0  0  0  0  0  0  0  0  0  0
   21.4546  -10.2616  -15.7421 C   0  0  0  0  0  0  0  0  0  0  0  0
   20.0106  -10.5062  -15.5195 C   0  0  0  0  0  0  0  0  0  0  0  0
   19.2588   -9.5156  -15.3700 O   0  0  0  0  0  0  0  0  0  0  0  0
   19.4774  -11.8148  -15.4740 N   0  0  0  0  0  0  0  0  0  0  0  0
   18.0474  -11.9726  -15.2879 C   0  0  0  0  0  0  0  0  0  0  0  0
   17.3314  -11.8585  -16.5674 C   0  0  0  0  0  0  0  0  0  0  0  0
   16.6452  -12.9473  -17.0687 O   0  0  0  0  0  0  0  0  0  0  0  0
   17.3366  -10.7883  -17.2063 O   0  0  0  0  0  0  0  0  0  0  0  0
  2  1  1  6
  2  3  1  0
  3  4  1  0
  4  8  1  0
  4  5  2  0
  6  7  2  0
  6  2  1  0
  9  6  1  0
 10 11  1  0
 10  9  1  0
 11 13  1  0
 12 11  2  0
 13 14  1  0
 14 15  1  0
 15 17  2  0
 15 16  1  0
M  END
$$$$
