DGG.pdb
     RDKit          3D

 17 16  0  0  1  0  0  0  0  0999 V2000
   21.1008   -9.2663  -18.9524 N   0  0  0  0  0  0  0  0  0  0  0  0
   20.9891   -9.2040  -17.5182 C   0  0  1  0  0  0  0  0  0  0  0  0
   21.0211  -10.5805  -16.8855 C   0  0  0  0  0  0  0  0  0  0  0  0
   19.9469  -11.4481  -17.3882 C   0  0  0  0  0  0  0  0  0  0  0  0
   18.7660  -11.2249  -17.0335 O   0  0  0  0  0  0  0  0  0  0  0  0
   22.0469   -8.3265  -16.9570 C   0  0  0  0  0  0  0  0  0  0  0  0
   23.2482   -8.4886  -17.3193 O   0  0  0  0  0  0  0  0  0  0  0  0
   20.2081  -12.4946  -18.2352 O   0  0  0  0  0  0  0  0  0  0  0  0
   21.7768   -7.3065  -16.0266 N   0  0  0  0  0  0  0  0  0  0  0  0
   22.8001   -6.4450  -15.4675 C   0  0  0  0  0  0  0  0  0  0  0  0
   22.2073   -5.3667  -14.6427 C   0  0  0  0  0  0  0  0  0  0  0  0
   22.9807   -4.5500  -14.0917 O   0  0  0  0  0  0  0  0  0  0  0  0
   20.8091   -5.2466  -14.4706 N   0  0  0  0  0  0  0  0  0  0  0  0
   20.3032   -4.1515  -13.6650 C   0  0  0  0  0  0  0  0  0  0  0  0
   19.8333   -3.0446  -14.5118 C   0  0  0  0  0  0  0  0  0  0  0  0
   19.0275   -2.0619  -13.9711 O   0  0  0  0  0  0  0  0  0  0  0  0
   20.1546   -2.9828  -15.7145 O   0  0  0  0  0  0  0  0  0  0  0  0
  2  1  1  6
  2  3  1  0
  3  4  1  0
  4  8  1  0
  4  5  2  0
  6  7  2  0
  6  2  1  0
  9  6  1  0
 10 11  1  0
 10  9  1  0
 11 13  1  0
 12 11  2  0
 13 14  1  0
 14 15  1  0
 15 17  2  0
 15 16  1  0
M  END
$$$$
