DGG.pdb
     RDKit          3D

 17 16  0  0  1  0  0  0  0  0999 V2000
   18.2392  -11.0421  -18.3159 N   0  0  0  0  0  0  0  0  0  0  0  0
   19.3344  -11.2079  -17.3960 C   0  0  1  0  0  0  0  0  0  0  0  0
   19.9847  -12.5703  -17.5263 C   0  0  0  0  0  0  0  0  0  0  0  0
   19.0870  -13.6565  -17.1096 C   0  0  0  0  0  0  0  0  0  0  0  0
   18.4800  -13.5612  -16.0176 O   0  0  0  0  0  0  0  0  0  0  0  0
   20.3256  -10.1169  -17.5734 C   0  0  0  0  0  0  0  0  0  0  0  0
   20.8340   -9.9162  -18.7144 O   0  0  0  0  0  0  0  0  0  0  0  0
   18.8996  -14.7698  -17.8882 O   0  0  0  0  0  0  0  0  0  0  0  0
   20.7352   -9.2805  -16.5190 N   0  0  0  0  0  0  0  0  0  0  0  0
   21.6733   -8.1878  -16.6857 C   0  0  0  0  0  0  0  0  0  0  0  0
   21.8654   -7.4426  -15.4199 C   0  0  0  0  0  0  0  0  0  0  0  0
   21.1512   -7.7500  -14.4379 O   0  0  0  0  0  0  0  0  0  0  0  0
   22.8236   -6.4095  -15.3043 N   0  0  0  0  0  0  0  0  0  0  0  0
   22.9593   -5.7317  -14.0290 C   0  0  0  0  0  0  0  0  0  0  0  0
   21.8822   -4.7494  -13.8345 C   0  0  0  0  0  0  0  0  0  0  0  0
   20.9072   -4.6004  -14.8013 O   0  0  0  0  0  0  0  0  0  0  0  0
   21.8387   -4.0482  -12.8049 O   0  0  0  0  0  0  0  0  0  0  0  0
  2  1  1  6
  2  3  1  0
  3  4  1  0
  4  8  1  0
  4  5  2  0
  6  7  2  0
  6  2  1  0
  9  6  1  0
 10 11  1  0
 10  9  1  0
 11 13  1  0
 12 11  2  0
 13 14  1  0
 14 15  1  0
 15 17  2  0
 15 16  1  0
M  END
$$$$
