DGG.pdb
     RDKit          3D

 17 16  0  0  1  0  0  0  0  0999 V2000
   21.1925   -9.6549  -18.7306 N   0  0  0  0  0  0  0  0  0  0  0  0
   21.1742   -9.5440  -17.2951 C   0  0  1  0  0  0  0  0  0  0  0  0
   21.2183  -10.8997  -16.6198 C   0  0  0  0  0  0  0  0  0  0  0  0
   20.0380  -11.7162  -16.9354 C   0  0  0  0  0  0  0  0  0  0  0  0
   18.9128  -11.1675  -16.9873 O   0  0  0  0  0  0  0  0  0  0  0  0
   22.2838   -8.6731  -16.8318 C   0  0  0  0  0  0  0  0  0  0  0  0
   23.4788   -8.9905  -17.1000 O   0  0  0  0  0  0  0  0  0  0  0  0
   20.1411  -13.0628  -17.1739 O   0  0  0  0  0  0  0  0  0  0  0  0
   22.0702   -7.4927  -16.0970 N   0  0  0  0  0  0  0  0  0  0  0  0
   23.1449   -6.6471  -15.6155 C   0  0  0  0  0  0  0  0  0  0  0  0
   22.6208   -5.4757  -14.8755 C   0  0  0  0  0  0  0  0  0  0  0  0
   23.4439   -4.6762  -14.3734 O   0  0  0  0  0  0  0  0  0  0  0  0
   21.2328   -5.2498  -14.7294 N   0  0  0  0  0  0  0  0  0  0  0  0
   20.7960   -4.0394  -14.0598 C   0  0  0  0  0  0  0  0  0  0  0  0
   19.3524   -3.8253  -14.2420 C   0  0  0  0  0  0  0  0  0  0  0  0
   18.7450   -2.7242  -13.6708 O   0  0  0  0  0  0  0  0  0  0  0  0
   18.6691   -4.6276  -14.9075 O   0  0  0  0  0  0  0  0  0  0  0  0
  2  1  1  6
  2  3  1  0
  3  4  1  0
  4  8  1  0
  4  5  2  0
  6  7  2  0
  6  2  1  0
  9  6  1  0
 10 11  1  0
 10  9  1  0
 11 13  1  0
 12 11  2  0
 13 14  1  0
 14 15  1  0
 15 17  2  0
 15 16  1  0
M  END
$$$$
