DGG.pdb
     RDKit          3D

 17 16  0  0  1  0  0  0  0  0999 V2000
   20.9504  -11.2956  -16.6159 N   0  0  0  0  0  0  0  0  0  0  0  0
   19.5485  -11.3466  -16.9405 C   0  0  1  0  0  0  0  0  0  0  0  0
   18.8848  -12.5962  -16.3985 C   0  0  0  0  0  0  0  0  0  0  0  0
   19.4022  -13.8183  -17.0294 C   0  0  0  0  0  0  0  0  0  0  0  0
   19.9802  -14.6738  -16.3193 O   0  0  0  0  0  0  0  0  0  0  0  0
   18.8640  -10.1197  -16.4607 C   0  0  0  0  0  0  0  0  0  0  0  0
   17.6522   -9.9223  -16.7660 O   0  0  0  0  0  0  0  0  0  0  0  0
   19.2666  -14.0425  -18.3756 O   0  0  0  0  0  0  0  0  0  0  0  0
   19.5054   -9.1488  -15.6701 N   0  0  0  0  0  0  0  0  0  0  0  0
   18.8282   -7.9876  -15.1270 C   0  0  0  0  0  0  0  0  0  0  0  0
   19.7280   -7.1950  -14.2571 C   0  0  0  0  0  0  0  0  0  0  0  0
   19.2477   -6.2107  -13.6493 O   0  0  0  0  0  0  0  0  0  0  0  0
   21.0943   -7.5251  -14.1047 N   0  0  0  0  0  0  0  0  0  0  0  0
   21.9288   -6.6583  -13.2945 C   0  0  0  0  0  0  0  0  0  0  0  0
   22.1625   -5.3706  -13.9654 C   0  0  0  0  0  0  0  0  0  0  0  0
   22.9375   -4.4074  -13.3498 O   0  0  0  0  0  0  0  0  0  0  0  0
   21.6681   -5.1377  -15.0856 O   0  0  0  0  0  0  0  0  0  0  0  0
  2  1  1  1
  2  3  1  0
  3  4  1  0
  4  8  1  0
  4  5  2  0
  6  7  2  0
  6  2  1  0
  9  6  1  0
 10 11  1  0
 10  9  1  0
 11 13  1  0
 12 11  2  0
 13 14  1  0
 14 15  1  0
 15 17  2  0
 15 16  1  0
M  END
$$$$
