DGG.pdb
     RDKit          3D

 17 16  0  0  1  0  0  0  0  0999 V2000
   28.0160   -8.0420  -19.1546 N   0  0  0  0  0  0  0  0  0  0  0  0
   27.8476   -9.2799  -18.4387 C   0  0  1  0  0  0  0  0  0  0  0  0
   28.8603   -9.4328  -17.3220 C   0  0  0  0  0  0  0  0  0  0  0  0
   30.2431   -9.4063  -17.8185 C   0  0  0  0  0  0  0  0  0  0  0  0
   30.5337  -10.0566  -18.8494 O   0  0  0  0  0  0  0  0  0  0  0  0
   26.4584   -9.3943  -17.9277 C   0  0  0  0  0  0  0  0  0  0  0  0
   26.1084  -10.4367  -17.3019 O   0  0  0  0  0  0  0  0  0  0  0  0
   31.2203   -8.6868  -17.1797 O   0  0  0  0  0  0  0  0  0  0  0  0
   25.4948   -8.3852  -18.1071 N   0  0  0  0  0  0  0  0  0  0  0  0
   24.1522   -8.4585  -17.5650 C   0  0  0  0  0  0  0  0  0  0  0  0
   24.0430   -7.7134  -16.2893 C   0  0  0  0  0  0  0  0  0  0  0  0
   24.8598   -7.9785  -15.3774 O   0  0  0  0  0  0  0  0  0  0  0  0
   23.0507   -6.7266  -16.0881 N   0  0  0  0  0  0  0  0  0  0  0  0
   23.1123   -5.9195  -14.8844 C   0  0  0  0  0  0  0  0  0  0  0  0
   22.0537   -4.8987  -14.8769 C   0  0  0  0  0  0  0  0  0  0  0  0
   21.9800   -3.9947  -13.8353 O   0  0  0  0  0  0  0  0  0  0  0  0
   21.2201   -4.8396  -15.8018 O   0  0  0  0  0  0  0  0  0  0  0  0
  2  1  1  1
  2  3  1  0
  3  4  1  0
  4  8  1  0
  4  5  2  0
  6  7  2  0
  6  2  1  0
  9  6  1  0
 10 11  1  0
 10  9  1  0
 11 13  1  0
 12 11  2  0
 13 14  1  0
 14 15  1  0
 15 17  2  0
 15 16  1  0
M  END
$$$$
