EMI.pdb
     RDKit          3D

 26 25  0  0  1  0  0  0  0  0999 V2000
   20.2116  -19.7999  -11.9012 N   0  0  0  0  0  0  0  0  0  0  0  0
   21.1151  -20.6781  -12.6201 C   0  0  1  0  0  0  0  0  0  0  0  0
   20.5061  -20.9890  -13.9401 C   0  0  0  0  0  0  0  0  0  0  0  0
   19.3728  -21.9593  -13.9230 C   0  0  0  0  0  0  0  0  0  0  0  0
   19.9012  -23.3314  -13.7431 C   0  0  0  0  0  0  0  0  0  0  0  0
   21.1320  -23.5227  -13.6264 O   0  0  0  0  0  0  0  0  0  0  0  0
   22.4914  -20.1894  -12.6357 C   0  0  0  0  0  0  0  0  0  0  0  0
   22.7603  -18.9748  -12.8087 O   0  0  0  0  0  0  0  0  0  0  0  0
   19.0521  -24.4218  -13.7006 O   0  0  0  0  0  0  0  0  0  0  0  0
   26.2376  -20.2065   -7.1631 C   0  0  0  0  0  0  0  0  0  0  0  0
   26.6017  -21.0798   -8.7217 S   0  0  0  0  0  0  0  0  0  0  0  0
   25.5286  -20.4478  -10.0329 C   0  0  0  0  0  0  0  0  0  0  0  0
   25.8278  -21.1462  -11.3621 C   0  0  0  0  0  0  0  0  0  0  0  0
   24.9790  -20.5468  -12.4604 C   0  0  2  0  0  0  0  0  0  0  0  0
   23.6362  -21.0516  -12.4562 N   0  0  0  0  0  0  0  0  0  0  0  0
   25.6237  -20.8997  -13.7445 C   0  0  0  0  0  0  0  0  0  0  0  0
   25.3551  -21.9429  -14.3902 O   0  0  0  0  0  0  0  0  0  0  0  0
   27.7204  -16.4982  -16.3853 C   0  0  0  0  0  0  0  0  0  0  0  0
   27.0489  -17.7710  -16.0362 C   0  0  0  0  0  0  0  0  0  0  0  0
   27.8546  -19.0013  -15.9745 C   0  0  2  0  0  0  0  0  0  0  0  0
   28.6164  -19.1140  -17.3107 C   0  0  0  0  0  0  0  0  0  0  0  0
   27.2450  -20.2892  -15.5918 C   0  0  2  0  0  0  0  0  0  0  0  0
   26.5957  -20.0242  -14.2845 N   0  0  0  0  0  0  0  0  0  0  0  0
   28.0623  -21.4626  -15.4061 C   0  0  0  0  0  0  0  0  0  0  0  0
   28.7413  -21.6642  -14.3759 O   0  0  0  0  0  0  0  0  0  0  0  0
   28.1632  -22.4833  -16.3749 O   0  0  0  0  0  0  0  0  0  0  0  0
  2  7  1  0
  2  1  1  6
  3  2  1  0
  4  3  1  0
  5  9  1  0
  5  4  1  0
  6  5  2  0
  7  8  2  0
 10 11  1  0
 11 12  1  0
 13 12  1  0
 14 13  1  1
 15 14  1  0
 15  7  1  0
 16 17  2  0
 16 14  1  0
 19 18  1  0
 19 20  1  0
 20 22  1  0
 20 21  1  6
 22 24  1  0
 22 23  1  1
 23 16  1  0
 24 26  1  0
 25 24  2  0
M  END
$$$$
