EMI.pdb
     RDKit          3D

 26 25  0  0  1  0  0  0  0  0999 V2000
   28.0445  -20.3598  -15.5244 N   0  0  0  0  0  0  0  0  0  0  0  0
   26.8983  -21.2177  -15.7585 C   0  0  1  0  0  0  0  0  0  0  0  0
   27.3424  -22.3672  -16.5899 C   0  0  0  0  0  0  0  0  0  0  0  0
   28.0158  -22.0205  -17.8754 C   0  0  0  0  0  0  0  0  0  0  0  0
   29.4817  -22.1638  -17.7184 C   0  0  0  0  0  0  0  0  0  0  0  0
   30.2530  -21.2910  -18.1751 O   0  0  0  0  0  0  0  0  0  0  0  0
   26.1700  -21.5411  -14.5344 C   0  0  0  0  0  0  0  0  0  0  0  0
   25.1180  -22.2270  -14.5519 O   0  0  0  0  0  0  0  0  0  0  0  0
   30.0251  -23.2568  -17.0689 O   0  0  0  0  0  0  0  0  0  0  0  0
   28.0320  -20.7493   -8.1030 C   0  0  0  0  0  0  0  0  0  0  0  0
   26.2619  -20.3121   -8.0938 S   0  0  0  0  0  0  0  0  0  0  0  0
   25.4849  -20.9083   -9.6141 C   0  0  0  0  0  0  0  0  0  0  0  0
   26.4088  -20.6923  -10.8158 C   0  0  0  0  0  0  0  0  0  0  0  0
   25.7505  -21.2177  -12.0715 C   0  0  2  0  0  0  0  0  0  0  0  0
   26.5954  -21.1039  -13.2251 N   0  0  0  0  0  0  0  0  0  0  0  0
   24.5281  -20.4123  -12.2866 C   0  0  0  0  0  0  0  0  0  0  0  0
   24.5335  -19.1608  -12.3919 O   0  0  0  0  0  0  0  0  0  0  0  0
   20.3362  -20.0108  -16.1048 C   0  0  0  0  0  0  0  0  0  0  0  0
   20.5498  -19.8576  -14.6475 C   0  0  0  0  0  0  0  0  0  0  0  0
   21.7330  -20.4851  -14.0368 C   0  0  2  0  0  0  0  0  0  0  0  0
   21.7263  -21.9701  -14.4531 C   0  0  0  0  0  0  0  0  0  0  0  0
   22.0160  -20.3306  -12.5971 C   0  0  2  0  0  0  0  0  0  0  0  0
   23.2810  -21.0747  -12.3805 N   0  0  0  0  0  0  0  0  0  0  0  0
   21.0862  -20.8189  -11.6090 C   0  0  0  0  0  0  0  0  0  0  0  0
   21.1344  -21.9773  -11.1414 O   0  0  0  0  0  0  0  0  0  0  0  0
   20.0420  -20.0268  -11.0865 O   0  0  0  0  0  0  0  0  0  0  0  0
  2  7  1  0
  2  1  1  1
  3  2  1  0
  4  3  1  0
  5  9  1  0
  5  4  1  0
  6  5  2  0
  7  8  2  0
 10 11  1  0
 11 12  1  0
 13 12  1  0
 14 13  1  1
 15 14  1  0
 15  7  1  0
 16 17  2  0
 16 14  1  0
 19 18  1  0
 19 20  1  0
 20 22  1  0
 20 21  1  1
 22 24  1  0
 22 23  1  1
 23 16  1  0
 24 26  1  0
 25 24  2  0
M  END
$$$$
