EMI.pdb
     RDKit          3D

 26 25  0  0  1  0  0  0  0  0999 V2000
   27.5019  -22.2241  -14.6683 N   0  0  0  0  0  0  0  0  0  0  0  0
   27.0955  -21.0339  -13.9451 C   0  0  1  0  0  0  0  0  0  0  0  0
   26.1769  -20.2542  -14.8157 C   0  0  0  0  0  0  0  0  0  0  0  0
   26.8292  -19.3525  -15.8095 C   0  0  0  0  0  0  0  0  0  0  0  0
   25.7890  -18.6757  -16.6184 C   0  0  0  0  0  0  0  0  0  0  0  0
   24.5782  -18.9218  -16.4218 O   0  0  0  0  0  0  0  0  0  0  0  0
   26.6243  -21.3227  -12.5931 C   0  0  0  0  0  0  0  0  0  0  0  0
   25.8620  -22.2910  -12.3508 O   0  0  0  0  0  0  0  0  0  0  0  0
   26.1311  -17.7647  -17.6006 O   0  0  0  0  0  0  0  0  0  0  0  0
   26.7900  -20.2058   -4.7355 C   0  0  0  0  0  0  0  0  0  0  0  0
   27.5228  -19.7174   -6.3320 S   0  0  0  0  0  0  0  0  0  0  0  0
   26.5892  -20.4762   -7.6822 C   0  0  0  0  0  0  0  0  0  0  0  0
   27.2550  -20.1881   -9.0305 C   0  0  0  0  0  0  0  0  0  0  0  0
   26.4041  -20.7392  -10.1523 C   0  0  2  0  0  0  0  0  0  0  0  0
   26.9922  -20.5290  -11.4437 N   0  0  0  0  0  0  0  0  0  0  0  0
   25.1042  -20.0351  -10.0931 C   0  0  0  0  0  0  0  0  0  0  0  0
   24.9962  -18.7856  -10.0264 O   0  0  0  0  0  0  0  0  0  0  0  0
   21.6352  -19.4559  -14.1885 C   0  0  0  0  0  0  0  0  0  0  0  0
   21.5753  -19.4519  -12.7089 C   0  0  0  0  0  0  0  0  0  0  0  0
   22.6055  -20.1878  -11.9580 C   0  0  2  0  0  0  0  0  0  0  0  0
   22.6511  -21.6189  -12.5309 C   0  0  0  0  0  0  0  0  0  0  0  0
   22.6070  -20.1980  -10.4826 C   0  0  2  0  0  0  0  0  0  0  0  0
   23.9123  -20.7979  -10.1120 N   0  0  0  0  0  0  0  0  0  0  0  0
   21.6036  -20.9317   -9.7518 C   0  0  0  0  0  0  0  0  0  0  0  0
   20.3971  -20.6046   -9.7351 O   0  0  0  0  0  0  0  0  0  0  0  0
   21.9017  -22.0832   -8.9929 O   0  0  0  0  0  0  0  0  0  0  0  0
  2  7  1  0
  2  1  1  6
  3  2  1  0
  4  3  1  0
  5  9  1  0
  5  4  1  0
  6  5  2  0
  7  8  2  0
 10 11  1  0
 11 12  1  0
 13 12  1  0
 14 13  1  1
 15 14  1  0
 15  7  1  0
 16 17  2  0
 16 14  1  0
 19 18  1  0
 19 20  1  0
 20 22  1  0
 20 21  1  6
 22 24  1  0
 22 23  1  6
 23 16  1  0
 24 26  1  0
 25 24  2  0
M  END
$$$$
