EMI.pdb
     RDKit          3D

 26 25  0  0  1  0  0  0  0  0999 V2000
   25.9318  -22.9435  -17.8775 N   0  0  0  0  0  0  0  0  0  0  0  0
   26.6547  -23.1685  -16.6401 C   0  0  1  0  0  0  0  0  0  0  0  0
   28.0630  -23.5012  -16.9804 C   0  0  0  0  0  0  0  0  0  0  0  0
   28.4192  -24.9495  -16.9389 C   0  0  0  0  0  0  0  0  0  0  0  0
   27.4481  -25.7194  -17.7504 C   0  0  0  0  0  0  0  0  0  0  0  0
   27.4967  -25.6769  -18.9997 O   0  0  0  0  0  0  0  0  0  0  0  0
   26.4546  -22.1023  -15.6621 C   0  0  0  0  0  0  0  0  0  0  0  0
   27.0582  -21.0042  -15.7475 O   0  0  0  0  0  0  0  0  0  0  0  0
   26.4745  -26.4956  -17.1492 O   0  0  0  0  0  0  0  0  0  0  0  0
   21.4254  -18.7646  -14.9028 C   0  0  0  0  0  0  0  0  0  0  0  0
   21.8535  -18.8512  -13.1326 S   0  0  0  0  0  0  0  0  0  0  0  0
   23.5563  -19.4324  -12.9510 C   0  0  0  0  0  0  0  0  0  0  0  0
   23.8179  -20.6366  -13.8597 C   0  0  0  0  0  0  0  0  0  0  0  0
   25.2436  -21.1100  -13.6884 C   0  0  2  0  0  0  0  0  0  0  0  0
   25.5594  -22.2241  -14.5351 N   0  0  0  0  0  0  0  0  0  0  0  0
   25.3947  -21.5196  -12.2747 C   0  0  0  0  0  0  0  0  0  0  0  0
   24.9112  -22.5797  -11.8058 O   0  0  0  0  0  0  0  0  0  0  0  0
   30.1364  -20.2442   -9.9033 C   0  0  0  0  0  0  0  0  0  0  0  0
   28.8608  -20.9094  -10.2543 C   0  0  0  0  0  0  0  0  0  0  0  0
   27.6210  -20.4442   -9.6116 C   0  0  2  0  0  0  0  0  0  0  0  0
   27.8582  -20.4769   -8.0881 C   0  0  0  0  0  0  0  0  0  0  0  0
   26.3154  -21.0329   -9.9661 C   0  0  2  0  0  0  0  0  0  0  0  0
   26.1200  -20.6820  -11.3943 N   0  0  0  0  0  0  0  0  0  0  0  0
   25.1143  -20.6228   -9.2817 C   0  0  0  0  0  0  0  0  0  0  0  0
   24.5396  -19.5354   -9.5057 O   0  0  0  0  0  0  0  0  0  0  0  0
   24.4864  -21.4178   -8.2996 O   0  0  0  0  0  0  0  0  0  0  0  0
  2  7  1  0
  2  1  1  6
  3  2  1  0
  4  3  1  0
  5  9  1  0
  5  4  1  0
  6  5  2  0
  7  8  2  0
 10 11  1  0
 11 12  1  0
 13 12  1  0
 14 13  1  1
 15 14  1  0
 15  7  1  0
 16 17  2  0
 16 14  1  0
 19 18  1  0
 19 20  1  0
 20 22  1  0
 20 21  1  1
 22 24  1  0
 22 23  1  6
 23 16  1  0
 24 26  1  0
 25 24  2  0
M  END
$$$$
