EMI.pdb
     RDKit          3D

 26 25  0  0  1  0  0  0  0  0999 V2000
   21.5112  -22.5119  -13.6145 N   0  0  0  0  0  0  0  0  0  0  0  0
   21.5693  -21.0792  -13.8344 C   0  0  1  0  0  0  0  0  0  0  0  0
   20.2091  -20.5214  -13.6143 C   0  0  0  0  0  0  0  0  0  0  0  0
   19.1262  -21.5194  -13.3740 C   0  0  0  0  0  0  0  0  0  0  0  0
   19.0840  -21.8639  -11.9340 C   0  0  0  0  0  0  0  0  0  0  0  0
   19.2603  -20.9781  -11.0684 O   0  0  0  0  0  0  0  0  0  0  0  0
   22.6628  -20.4362  -13.1103 C   0  0  0  0  0  0  0  0  0  0  0  0
   22.8457  -19.1944  -13.1547 O   0  0  0  0  0  0  0  0  0  0  0  0
   18.8508  -23.1620  -11.5186 O   0  0  0  0  0  0  0  0  0  0  0  0
   25.0273  -21.1014   -7.2881 C   0  0  0  0  0  0  0  0  0  0  0  0
   26.5988  -20.6185   -8.0765 S   0  0  0  0  0  0  0  0  0  0  0  0
   26.3055  -20.2269   -9.8175 C   0  0  0  0  0  0  0  0  0  0  0  0
   25.0521  -20.9413  -10.3301 C   0  0  0  0  0  0  0  0  0  0  0  0
   24.7916  -20.5542  -11.7683 C   0  0  2  0  0  0  0  0  0  0  0  0
   23.6072  -21.1667  -12.2975 N   0  0  0  0  0  0  0  0  0  0  0  0
   25.9611  -21.0049  -12.5546 C   0  0  0  0  0  0  0  0  0  0  0  0
   26.3974  -22.1824  -12.5330 O   0  0  0  0  0  0  0  0  0  0  0  0
   26.1398  -22.1990  -17.7244 C   0  0  0  0  0  0  0  0  0  0  0  0
   27.1083  -21.6678  -16.7381 C   0  0  0  0  0  0  0  0  0  0  0  0
   26.5939  -21.0383  -15.5110 C   0  0  2  0  0  0  0  0  0  0  0  0
   25.5539  -19.9842  -15.9418 C   0  0  0  0  0  0  0  0  0  0  0  0
   27.5142  -20.5012  -14.4906 C   0  0  2  0  0  0  0  0  0  0  0  0
   26.6322  -20.0701  -13.3783 N   0  0  0  0  0  0  0  0  0  0  0  0
   28.3666  -19.3770  -14.7887 C   0  0  0  0  0  0  0  0  0  0  0  0
   28.0455  -18.1940  -14.5426 O   0  0  0  0  0  0  0  0  0  0  0  0
   29.6375  -19.5198  -15.3844 O   0  0  0  0  0  0  0  0  0  0  0  0
  2  7  1  0
  2  1  1  1
  3  2  1  0
  4  3  1  0
  5  9  1  0
  5  4  1  0
  6  5  2  0
  7  8  2  0
 10 11  1  0
 11 12  1  0
 13 12  1  0
 14 13  1  1
 15 14  1  0
 15  7  1  0
 16 17  2  0
 16 14  1  0
 19 18  1  0
 19 20  1  0
 20 22  1  0
 20 21  1  6
 22 24  1  0
 22 23  1  1
 23 16  1  0
 24 26  1  0
 25 24  2  0
M  END
$$$$
