EMI.pdb
     RDKit          3D

 26 25  0  0  1  0  0  0  0  0999 V2000
   28.2721  -22.3180  -15.3239 N   0  0  0  0  0  0  0  0  0  0  0  0
   28.1354  -21.2112  -14.3961 C   0  0  1  0  0  0  0  0  0  0  0  0
   28.2336  -19.9448  -15.1684 C   0  0  0  0  0  0  0  0  0  0  0  0
   27.0453  -19.5945  -16.0000 C   0  0  0  0  0  0  0  0  0  0  0  0
   26.3116  -18.4754  -15.3649 C   0  0  0  0  0  0  0  0  0  0  0  0
   25.0691  -18.5319  -15.2303 O   0  0  0  0  0  0  0  0  0  0  0  0
   26.9804  -21.3485  -13.5126 C   0  0  0  0  0  0  0  0  0  0  0  0
   25.9965  -22.0674  -13.8168 O   0  0  0  0  0  0  0  0  0  0  0  0
   26.9789  -17.3527  -14.9108 O   0  0  0  0  0  0  0  0  0  0  0  0
   28.6954  -20.7402   -6.7956 C   0  0  0  0  0  0  0  0  0  0  0  0
   27.2819  -19.9856   -7.6656 S   0  0  0  0  0  0  0  0  0  0  0  0
   27.0462  -20.8061   -9.2598 C   0  0  0  0  0  0  0  0  0  0  0  0
   25.9137  -20.1431  -10.0485 C   0  0  0  0  0  0  0  0  0  0  0  0
   25.7398  -20.8372  -11.3805 C   0  0  2  0  0  0  0  0  0  0  0  0
   26.8793  -20.6780  -12.2373 N   0  0  0  0  0  0  0  0  0  0  0  0
   24.5576  -20.2307  -12.0314 C   0  0  0  0  0  0  0  0  0  0  0  0
   24.5991  -19.1545  -12.6774 O   0  0  0  0  0  0  0  0  0  0  0  0
   21.1520  -21.2827  -16.2724 C   0  0  0  0  0  0  0  0  0  0  0  0
   21.0702  -20.6599  -14.9314 C   0  0  0  0  0  0  0  0  0  0  0  0
   22.1286  -20.9517  -13.9510 C   0  0  2  0  0  0  0  0  0  0  0  0
   22.2866  -22.4848  -13.8947 C   0  0  0  0  0  0  0  0  0  0  0  0
   22.0928  -20.3640  -12.5982 C   0  0  2  0  0  0  0  0  0  0  0  0
   23.3085  -20.8879  -11.9283 N   0  0  0  0  0  0  0  0  0  0  0  0
   20.9920  -20.6364  -11.7075 C   0  0  0  0  0  0  0  0  0  0  0  0
   19.8597  -20.1253  -11.8471 O   0  0  0  0  0  0  0  0  0  0  0  0
   21.1025  -21.5054  -10.6014 O   0  0  0  0  0  0  0  0  0  0  0  0
  2  7  1  0
  2  1  1  6
  3  2  1  0
  4  3  1  0
  5  9  1  0
  5  4  1  0
  6  5  2  0
  7  8  2  0
 10 11  1  0
 11 12  1  0
 13 12  1  0
 14 13  1  1
 15 14  1  0
 15  7  1  0
 16 17  2  0
 16 14  1  0
 19 18  1  0
 19 20  1  0
 20 22  1  0
 20 21  1  1
 22 24  1  0
 22 23  1  1
 23 16  1  0
 24 26  1  0
 25 24  2  0
M  END
$$$$
