HPT.pdb
     RDKit          3D

 25 26  0  0  1  0  0  0  0  0999 V2000
   10.5685  -15.0951   15.3635 N   0  0  0  0  0  0  0  0  0  0  0  0
    9.4702  -14.9264   16.2853 C   0  0  1  0  0  0  0  0  0  0  0  0
    8.4397  -16.0301   16.1150 C   0  0  0  0  0  0  0  0  0  0  0  0
    7.8955  -16.1051   14.7373 C   0  0  0  0  0  0  0  0  0  0  0  0
    7.5190  -15.0384   13.9519 C   0  0  0  0  0  0  0  0  0  0  0  0
    7.0756  -15.4495   12.7573 N   0  0  0  0  0  0  0  0  0  0  0  0
    7.1671  -16.7974   12.7723 C   0  0  0  0  0  0  0  0  0  0  0  0
    7.6604  -17.1926   13.9632 N   0  0  0  0  0  0  0  0  0  0  0  0
    9.8819  -14.7679   17.6878 C   0  0  0  0  0  0  0  0  0  0  0  0
   11.0157  -15.2197   18.0002 O   0  0  0  0  0  0  0  0  0  0  0  0
    9.0903  -14.1418   18.7176 N   0  0  0  0  0  0  0  0  0  0  0  0
    7.7862  -13.6125   18.4632 C   0  0  0  0  0  0  0  0  0  0  0  0
    7.3237  -13.0370   19.7755 C   0  0  0  0  0  0  0  0  0  0  0  0
    8.6131  -12.8237   20.5705 C   0  0  0  0  0  0  0  0  0  0  0  0
    9.4304  -13.9539   20.0790 C   0  0  1  0  0  0  0  0  0  0  0  0
    9.3530  -15.1878   20.8993 C   0  0  0  0  0  0  0  0  0  0  0  0
    8.3185  -15.9007   20.9268 O   0  0  0  0  0  0  0  0  0  0  0  0
   11.0768  -17.9786   20.2871 C   0  0  0  0  0  0  0  0  0  0  0  0
   11.4986  -17.8135   21.7293 C   0  0  1  0  0  0  0  0  0  0  0  0
   12.7447  -17.1614   21.7167 O   0  0  0  0  0  0  0  0  0  0  0  0
   10.5404  -16.8467   22.3971 C   0  0  2  0  0  0  0  0  0  0  0  0
   10.4508  -15.5977   21.6776 N   0  0  0  0  0  0  0  0  0  0  0  0
   10.8571  -16.6704   23.8255 C   0  0  0  0  0  0  0  0  0  0  0  0
   11.2135  -15.5441   24.2307 O   0  0  0  0  0  0  0  0  0  0  0  0
   10.7670  -17.7100   24.7013 O   0  0  0  0  0  0  0  0  0  0  0  0
  2  1  1  6
  3  2  1  0
  4  3  1  0
  5  4  2  0
  6  7  1  0
  6  5  1  0
  7  8  2  0
  8  4  1  0
  9  2  1  0
  9 11  1  0
 10  9  2  0
 11 15  1  0
 12 11  1  0
 12 13  1  0
 13 14  1  0
 15 16  1  1
 15 14  1  0
 16 17  2  0
 19 18  1  6
 19 20  1  0
 19 21  1  0
 21 22  1  6
 22 16  1  0
 23 25  1  0
 23 21  1  0
 24 23  2  0
M  END
$$$$
