HPT.pdb
     RDKit          3D

 25 26  0  0  1  0  0  0  0  0999 V2000
    8.1886  -15.4262   21.1742 N   0  0  0  0  0  0  0  0  0  0  0  0
    7.5883  -15.5749   22.4788 C   0  0  1  0  0  0  0  0  0  0  0  0
    7.2540  -17.0296   22.7637 C   0  0  0  0  0  0  0  0  0  0  0  0
    6.3877  -17.6376   21.7246 C   0  0  0  0  0  0  0  0  0  0  0  0
    5.1784  -17.1475   21.2844 C   0  0  0  0  0  0  0  0  0  0  0  0
    4.6559  -17.9311   20.3328 N   0  0  0  0  0  0  0  0  0  0  0  0
    5.5385  -18.9388   20.1571 C   0  0  0  0  0  0  0  0  0  0  0  0
    6.5808  -18.7629   20.9941 N   0  0  0  0  0  0  0  0  0  0  0  0
    8.3617  -14.9631   23.5693 C   0  0  0  0  0  0  0  0  0  0  0  0
    9.6051  -15.1662   23.5655 O   0  0  0  0  0  0  0  0  0  0  0  0
    7.8057  -14.1590   24.6292 N   0  0  0  0  0  0  0  0  0  0  0  0
    6.4364  -13.7458   24.6368 C   0  0  0  0  0  0  0  0  0  0  0  0
    6.2742  -12.9179   25.8841 C   0  0  0  0  0  0  0  0  0  0  0  0
    7.6985  -12.4903   26.2423 C   0  0  0  0  0  0  0  0  0  0  0  0
    8.4643  -13.6689   25.7827 C   0  0  1  0  0  0  0  0  0  0  0  0
    8.7151  -14.6984   26.8212 C   0  0  0  0  0  0  0  0  0  0  0  0
    7.8404  -15.5417   27.1424 O   0  0  0  0  0  0  0  0  0  0  0  0
   12.8010  -15.0633   27.9868 C   0  0  0  0  0  0  0  0  0  0  0  0
   11.9149  -16.2271   27.6056 C   0  0  1  0  0  0  0  0  0  0  0  0
   12.3573  -17.3360   28.3491 O   0  0  0  0  0  0  0  0  0  0  0  0
   10.5116  -15.9386   28.1017 C   0  0  2  0  0  0  0  0  0  0  0  0
    9.9556  -14.7587   27.4818 N   0  0  0  0  0  0  0  0  0  0  0  0
   10.4549  -15.9004   29.5738 C   0  0  0  0  0  0  0  0  0  0  0  0
   10.1784  -14.8219   30.1398 O   0  0  0  0  0  0  0  0  0  0  0  0
   10.6979  -17.0151   30.3182 O   0  0  0  0  0  0  0  0  0  0  0  0
  2  1  1  6
  3  2  1  0
  4  3  1  0
  5  4  2  0
  6  7  1  0
  6  5  1  0
  7  8  2  0
  8  4  1  0
  9  2  1  0
  9 11  1  0
 10  9  2  0
 11 15  1  0
 12 11  1  0
 12 13  1  0
 13 14  1  0
 15 16  1  1
 15 14  1  0
 16 17  2  0
 19 18  1  1
 19 20  1  0
 19 21  1  0
 21 22  1  6
 22 16  1  0
 23 25  1  0
 23 21  1  0
 24 23  2  0
M  END
$$$$
