HPT.pdb
     RDKit          3D

 25 26  0  0  1  0  0  0  0  0999 V2000
    9.8347  -15.0134   21.1350 N   0  0  0  0  0  0  0  0  0  0  0  0
    8.7969  -14.3789   21.9129 C   0  0  1  0  0  0  0  0  0  0  0  0
    7.4384  -14.5503   21.2542 C   0  0  0  0  0  0  0  0  0  0  0  0
    7.4571  -14.2443   19.8030 C   0  0  0  0  0  0  0  0  0  0  0  0
    7.6429  -13.0034   19.2354 C   0  0  0  0  0  0  0  0  0  0  0  0
    7.6115  -13.0730   17.8987 N   0  0  0  0  0  0  0  0  0  0  0  0
    7.4029  -14.3741   17.6005 C   0  0  0  0  0  0  0  0  0  0  0  0
    7.3099  -15.0795   18.7457 N   0  0  0  0  0  0  0  0  0  0  0  0
    8.7779  -14.7779   23.3279 C   0  0  0  0  0  0  0  0  0  0  0  0
    9.6292  -15.6344   23.6868 O   0  0  0  0  0  0  0  0  0  0  0  0
    7.8656  -14.2663   24.3205 N   0  0  0  0  0  0  0  0  0  0  0  0
    6.6868  -13.5358   23.9704 C   0  0  0  0  0  0  0  0  0  0  0  0
    6.0382  -13.1699   25.2791 C   0  0  0  0  0  0  0  0  0  0  0  0
    7.1675  -13.2802   26.3050 C   0  0  0  0  0  0  0  0  0  0  0  0
    7.9572  -14.3893   25.7279 C   0  0  1  0  0  0  0  0  0  0  0  0
    7.6142  -15.7380   26.2424 C   0  0  0  0  0  0  0  0  0  0  0  0
    6.4461  -16.1961   26.1719 O   0  0  0  0  0  0  0  0  0  0  0  0
    8.1130  -18.5054   24.8637 C   0  0  0  0  0  0  0  0  0  0  0  0
    8.8346  -18.8898   26.1352 C   0  0  1  0  0  0  0  0  0  0  0  0
   10.2021  -18.6438   25.9172 O   0  0  0  0  0  0  0  0  0  0  0  0
    8.4173  -17.9260   27.2286 C   0  0  2  0  0  0  0  0  0  0  0  0
    8.6012  -16.5503   26.8297 N   0  0  0  0  0  0  0  0  0  0  0  0
    9.0669  -18.2485   28.5114 C   0  0  0  0  0  0  0  0  0  0  0  0
    9.8415  -17.4129   29.0231 O   0  0  0  0  0  0  0  0  0  0  0  0
    8.8359  -19.4346   29.1405 O   0  0  0  0  0  0  0  0  0  0  0  0
  2  1  1  6
  3  2  1  0
  4  3  1  0
  5  4  2  0
  6  7  1  0
  6  5  1  0
  7  8  2  0
  8  4  1  0
  9  2  1  0
  9 11  1  0
 10  9  2  0
 11 15  1  0
 12 11  1  0
 12 13  1  0
 13 14  1  0
 15 16  1  1
 15 14  1  0
 16 17  2  0
 19 18  1  6
 19 20  1  0
 19 21  1  0
 21 22  1  6
 22 16  1  0
 23 25  1  0
 23 21  1  0
 24 23  2  0
M  END
$$$$
