HPT.pdb
     RDKit          3D

 25 26  0  0  1  0  0  0  0  0999 V2000
   10.0115  -14.8930   20.8414 N   0  0  0  0  0  0  0  0  0  0  0  0
    8.9243  -14.3717   21.6356 C   0  0  1  0  0  0  0  0  0  0  0  0
    7.5806  -14.7171   21.0158 C   0  0  0  0  0  0  0  0  0  0  0  0
    7.5071  -14.3837   19.5724 C   0  0  0  0  0  0  0  0  0  0  0  0
    7.6403  -13.1296   19.0191 C   0  0  0  0  0  0  0  0  0  0  0  0
    7.5292  -13.1746   17.6856 N   0  0  0  0  0  0  0  0  0  0  0  0
    7.3219  -14.4730   17.3750 C   0  0  0  0  0  0  0  0  0  0  0  0
    7.3085  -15.2011   18.5096 N   0  0  0  0  0  0  0  0  0  0  0  0
    8.9874  -14.7420   23.0570 C   0  0  0  0  0  0  0  0  0  0  0  0
    9.9349  -15.4959   23.4049 O   0  0  0  0  0  0  0  0  0  0  0  0
    8.0536  -14.3104   24.0675 N   0  0  0  0  0  0  0  0  0  0  0  0
    6.8517  -13.6049   23.7459 C   0  0  0  0  0  0  0  0  0  0  0  0
    6.1852  -13.3249   25.0667 C   0  0  0  0  0  0  0  0  0  0  0  0
    7.3133  -13.4455   26.0928 C   0  0  0  0  0  0  0  0  0  0  0  0
    8.1434  -14.4977   25.4680 C   0  0  1  0  0  0  0  0  0  0  0  0
    7.8451  -15.8806   25.9152 C   0  0  0  0  0  0  0  0  0  0  0  0
    6.8011  -16.4815   25.5571 O   0  0  0  0  0  0  0  0  0  0  0  0
    8.9380  -18.3557   24.6031 C   0  0  0  0  0  0  0  0  0  0  0  0
    9.4724  -18.7602   25.9580 C   0  0  1  0  0  0  0  0  0  0  0  0
   10.7984  -18.2963   26.0275 O   0  0  0  0  0  0  0  0  0  0  0  0
    8.7146  -17.9858   27.0185 C   0  0  2  0  0  0  0  0  0  0  0  0
    8.7357  -16.5646   26.7624 N   0  0  0  0  0  0  0  0  0  0  0  0
    9.1714  -18.3363   28.3750 C   0  0  0  0  0  0  0  0  0  0  0  0
    9.7121  -17.4558   29.0767 O   0  0  0  0  0  0  0  0  0  0  0  0
    9.0133  -19.5960   28.8689 O   0  0  0  0  0  0  0  0  0  0  0  0
  2  1  1  6
  3  2  1  0
  4  3  1  0
  5  4  2  0
  6  7  1  0
  6  5  1  0
  7  8  2  0
  8  4  1  0
  9  2  1  0
  9 11  1  0
 10  9  2  0
 11 15  1  0
 12 11  1  0
 12 13  1  0
 13 14  1  0
 15 16  1  6
 15 14  1  0
 16 17  2  0
 19 18  1  6
 19 20  1  0
 19 21  1  0
 21 22  1  6
 22 16  1  0
 23 25  1  0
 23 21  1  0
 24 23  2  0
M  END
$$$$
