HPT.pdb
     RDKit          3D

 25 26  0  0  1  0  0  0  0  0999 V2000
   10.0489  -14.9166   14.9625 N   0  0  0  0  0  0  0  0  0  0  0  0
    9.0736  -15.1241   16.0066 C   0  0  1  0  0  0  0  0  0  0  0  0
    8.4460  -16.5039   15.9015 C   0  0  0  0  0  0  0  0  0  0  0  0
    7.9215  -16.7984   14.5456 C   0  0  0  0  0  0  0  0  0  0  0  0
    7.0121  -16.0400   13.8425 C   0  0  0  0  0  0  0  0  0  0  0  0
    6.7546  -16.5803   12.6449 N   0  0  0  0  0  0  0  0  0  0  0  0
    7.5067  -17.7005   12.5746 C   0  0  0  0  0  0  0  0  0  0  0  0
    8.2092  -17.8323   13.7178 N   0  0  0  0  0  0  0  0  0  0  0  0
    9.5754  -14.8483   17.3608 C   0  0  0  0  0  0  0  0  0  0  0  0
   10.7992  -15.0653   17.5669 O   0  0  0  0  0  0  0  0  0  0  0  0
    8.7769  -14.3552   18.4555 N   0  0  0  0  0  0  0  0  0  0  0  0
    7.3869  -14.0507   18.3108 C   0  0  0  0  0  0  0  0  0  0  0  0
    6.9431  -13.5511   19.6602 C   0  0  0  0  0  0  0  0  0  0  0  0
    8.2393  -13.1221   20.3499 C   0  0  0  0  0  0  0  0  0  0  0  0
    9.1900  -14.1046   19.7863 C   0  0  1  0  0  0  0  0  0  0  0  0
    9.3844  -15.3288   20.6016 C   0  0  0  0  0  0  0  0  0  0  0  0
    8.6616  -16.3458   20.4517 O   0  0  0  0  0  0  0  0  0  0  0  0
   12.5972  -18.1531   22.8340 C   0  0  0  0  0  0  0  0  0  0  0  0
   12.2699  -16.8830   22.0824 C   0  0  1  0  0  0  0  0  0  0  0  0
   12.4035  -17.1747   20.7130 O   0  0  0  0  0  0  0  0  0  0  0  0
   10.8006  -16.5726   22.2906 C   0  0  2  0  0  0  0  0  0  0  0  0
   10.3973  -15.3840   21.5763 N   0  0  0  0  0  0  0  0  0  0  0  0
   10.4530  -16.5336   23.7221 C   0  0  0  0  0  0  0  0  0  0  0  0
   10.4138  -15.4294   24.3043 O   0  0  0  0  0  0  0  0  0  0  0  0
   10.1765  -17.6753   24.4121 O   0  0  0  0  0  0  0  0  0  0  0  0
  2  1  1  6
  3  2  1  0
  4  3  1  0
  5  4  2  0
  6  7  1  0
  6  5  1  0
  7  8  2  0
  8  4  1  0
  9  2  1  0
  9 11  1  0
 10  9  2  0
 11 15  1  0
 12 11  1  0
 12 13  1  0
 13 14  1  0
 15 16  1  1
 15 14  1  0
 16 17  2  0
 19 18  1  1
 19 20  1  0
 19 21  1  0
 21 22  1  1
 22 16  1  0
 23 25  1  0
 23 21  1  0
 24 23  2  0
M  END
$$$$
