HPT.pdb
     RDKit          3D

 25 26  0  0  1  0  0  0  0  0999 V2000
   10.8944  -15.4483   16.0546 N   0  0  0  0  0  0  0  0  0  0  0  0
    9.7269  -15.0183   16.7871 C   0  0  1  0  0  0  0  0  0  0  0  0
    8.5052  -15.8321   16.3944 C   0  0  0  0  0  0  0  0  0  0  0  0
    8.1869  -15.7359   14.9489 C   0  0  0  0  0  0  0  0  0  0  0  0
    8.1680  -14.5837   14.1949 C   0  0  0  0  0  0  0  0  0  0  0  0
    7.8489  -14.8442   12.9209 N   0  0  0  0  0  0  0  0  0  0  0  0
    7.6595  -16.1801   12.8524 C   0  0  0  0  0  0  0  0  0  0  0  0
    7.8628  -16.7174   14.0722 N   0  0  0  0  0  0  0  0  0  0  0  0
    9.9147  -14.9740   18.2446 C   0  0  0  0  0  0  0  0  0  0  0  0
   10.9158  -15.5841   18.7059 O   0  0  0  0  0  0  0  0  0  0  0  0
    9.0455  -14.2921   19.1713 N   0  0  0  0  0  0  0  0  0  0  0  0
    7.8265  -13.6685   18.7580 C   0  0  0  0  0  0  0  0  0  0  0  0
    7.2432  -13.0613   20.0064 C   0  0  0  0  0  0  0  0  0  0  0  0
    8.4324  -12.9436   20.9612 C   0  0  0  0  0  0  0  0  0  0  0  0
    9.2216  -14.1303   20.5668 C   0  0  1  0  0  0  0  0  0  0  0  0
    8.9506  -15.3556   21.3583 C   0  0  0  0  0  0  0  0  0  0  0  0
    7.8970  -16.0231   21.2052 O   0  0  0  0  0  0  0  0  0  0  0  0
   10.2394  -18.3293   21.0300 C   0  0  0  0  0  0  0  0  0  0  0  0
   10.6354  -18.1349   22.4758 C   0  0  1  0  0  0  0  0  0  0  0  0
   11.9445  -17.6207   22.4734 O   0  0  0  0  0  0  0  0  0  0  0  0
    9.7688  -17.0380   23.0628 C   0  0  2  0  0  0  0  0  0  0  0  0
    9.8790  -15.8086   22.3132 N   0  0  0  0  0  0  0  0  0  0  0  0
   10.0208  -16.8618   24.5039 C   0  0  0  0  0  0  0  0  0  0  0  0
   10.4982  -15.7799   24.9059 O   0  0  0  0  0  0  0  0  0  0  0  0
    9.7426  -17.8540   25.3951 O   0  0  0  0  0  0  0  0  0  0  0  0
  2  1  1  6
  3  2  1  0
  4  3  1  0
  5  4  2  0
  6  7  1  0
  6  5  1  0
  7  8  2  0
  8  4  1  0
  9  2  1  0
  9 11  1  0
 10  9  2  0
 11 15  1  0
 12 11  1  0
 12 13  1  0
 13 14  1  0
 15 16  1  1
 15 14  1  0
 16 17  2  0
 19 18  1  6
 19 20  1  0
 19 21  1  0
 21 22  1  6
 22 16  1  0
 23 25  1  0
 23 21  1  0
 24 23  2  0
M  END
$$$$
