HPT.pdb
     RDKit          3D

 25 26  0  0  1  0  0  0  0  0999 V2000
   10.6564  -15.9487   16.1383 N   0  0  0  0  0  0  0  0  0  0  0  0
    9.5635  -15.2736   16.7974 C   0  0  1  0  0  0  0  0  0  0  0  0
    8.2516  -16.0051   16.5680 C   0  0  0  0  0  0  0  0  0  0  0  0
    8.2146  -17.3410   17.2114 C   0  0  0  0  0  0  0  0  0  0  0  0
    9.2542  -17.9537   17.8750 C   0  0  0  0  0  0  0  0  0  0  0  0
    8.8886  -19.1528   18.3451 N   0  0  0  0  0  0  0  0  0  0  0  0
    7.5980  -19.3157   17.9805 C   0  0  0  0  0  0  0  0  0  0  0  0
    7.1916  -18.2260   17.2984 N   0  0  0  0  0  0  0  0  0  0  0  0
    9.7994  -14.9981   18.2223 C   0  0  0  0  0  0  0  0  0  0  0  0
   10.8323  -15.5062   18.7344 O   0  0  0  0  0  0  0  0  0  0  0  0
    8.9434  -14.1995   19.0642 N   0  0  0  0  0  0  0  0  0  0  0  0
    7.7745  -13.5448   18.5634 C   0  0  0  0  0  0  0  0  0  0  0  0
    7.1901  -12.8111   19.7412 C   0  0  0  0  0  0  0  0  0  0  0  0
    8.3555  -12.6837   20.7239 C   0  0  0  0  0  0  0  0  0  0  0  0
    9.0872  -13.9388   20.4483 C   0  0  1  0  0  0  0  0  0  0  0  0
    8.7239  -15.0819   21.3217 C   0  0  0  0  0  0  0  0  0  0  0  0
    7.7334  -15.8148   21.0749 O   0  0  0  0  0  0  0  0  0  0  0  0
   11.9837  -16.7273   21.7989 C   0  0  0  0  0  0  0  0  0  0  0  0
   10.6702  -17.4625   21.9376 C   0  0  1  0  0  0  0  0  0  0  0  0
   10.9572  -18.6966   22.5483 O   0  0  0  0  0  0  0  0  0  0  0  0
    9.8062  -16.7091   22.9298 C   0  0  2  0  0  0  0  0  0  0  0  0
    9.4896  -15.3794   22.4636 N   0  0  0  0  0  0  0  0  0  0  0  0
   10.3944  -16.7240   24.2808 C   0  0  0  0  0  0  0  0  0  0  0  0
   10.6058  -17.8229   24.8355 O   0  0  0  0  0  0  0  0  0  0  0  0
   10.7075  -15.5661   24.9266 O   0  0  0  0  0  0  0  0  0  0  0  0
  2  1  1  1
  3  2  1  0
  4  3  1  0
  5  4  2  0
  6  7  1  0
  6  5  1  0
  7  8  2  0
  8  4  1  0
  9  2  1  0
  9 11  1  0
 10  9  2  0
 11 15  1  0
 12 11  1  0
 12 13  1  0
 13 14  1  0
 15 16  1  1
 15 14  1  0
 16 17  2  0
 19 18  1  1
 19 20  1  0
 19 21  1  0
 21 22  1  6
 22 16  1  0
 23 25  1  0
 23 21  1  0
 24 23  2  0
M  END
$$$$
