CLF.pdb
     RDKit          3D

 26 26  0  0  1  0  0  0  0  0999 V2000
    8.6455  -20.5254   19.8855 N   0  0  0  0  0  0  0  0  0  0  0  0
    8.0446  -19.6496   20.8600 C   0  0  1  0  0  0  0  0  0  0  0  0
    8.0214  -20.3072   22.2226 C   0  0  0  0  0  0  0  0  0  0  0  0
    7.2720  -21.9475   22.0312 S   0  0  0  0  0  0  0  0  0  0  0  0
    8.7426  -18.3647   20.8578 C   0  0  0  0  0  0  0  0  0  0  0  0
    9.9741  -18.2302   20.6200 O   0  0  0  0  0  0  0  0  0  0  0  0
    6.9536  -12.4041   21.3195 C   0  0  0  0  0  0  0  0  0  0  0  0
    8.0233  -13.4321   21.1634 C   0  0  2  0  0  0  0  0  0  0  0  0
    8.6642  -13.2334   19.8016 C   0  0  0  0  0  0  0  0  0  0  0  0
    7.5355  -14.8411   21.2229 C   0  0  0  0  0  0  0  0  0  0  0  0
    8.6408  -15.8669   21.1268 C   0  0  2  0  0  0  0  0  0  0  0  0
    8.0334  -17.1775   21.1335 N   0  0  0  0  0  0  0  0  0  0  0  0
    9.4761  -15.7074   22.3424 C   0  0  0  0  0  0  0  0  0  0  0  0
   10.6194  -15.2144   22.2141 O   0  0  0  0  0  0  0  0  0  0  0  0
    9.0087  -16.0967   23.6170 N   0  0  0  0  0  0  0  0  0  0  0  0
    9.7473  -15.8579   24.8646 C   0  0  1  0  0  0  0  0  0  0  0  0
    9.9464  -14.3945   25.0094 C   0  0  0  0  0  0  0  0  0  0  0  0
    8.7027  -13.7305   25.4230 C   0  0  0  0  0  0  0  0  0  0  0  0
    7.6591  -13.5136   24.5564 C   0  0  0  0  0  0  0  0  0  0  0  0
    6.4932  -12.8879   24.9758 C   0  0  0  0  0  0  0  0  0  0  0  0
    6.3873  -12.4787   26.2885 C   0  0  0  0  0  0  0  0  0  0  0  0
    7.4261  -12.6883   27.1733 C   0  0  0  0  0  0  0  0  0  0  0  0
    8.5876  -13.3138   26.7479 C   0  0  0  0  0  0  0  0  0  0  0  0
    9.0480  -16.4632   26.0132 C   0  0  0  0  0  0  0  0  0  0  0  0
    7.8850  -17.2185   25.7625 O   0  0  0  0  0  0  0  0  0  0  0  0
    9.4120  -16.3569   27.1978 O   0  0  0  0  0  0  0  0  0  0  0  0
  2  5  1  0
  2  1  1  6
  3  2  1  0
  4  3  1  0
  5  6  2  0
  8  7  1  6
  8  9  1  0
 10  8  1  0
 11 10  1  1
 12 11  1  0
 12  5  1  0
 13 11  1  0
 13 14  2  0
 15 13  1  0
 16 15  1  0
 16 24  1  0
 16 17  1  1
 18 19  2  0
 18 17  1  0
 20 19  1  0
 21 20  2  0
 22 21  1  0
 22 23  2  0
 23 18  1  0
 24 26  2  0
 24 25  1  0
M  END
$$$$
