CLF.pdb
     RDKit          3D

 26 26  0  0  1  0  0  0  0  0999 V2000
    6.3454  -19.8039   21.5593 N   0  0  0  0  0  0  0  0  0  0  0  0
    5.8967  -18.4749   21.8911 C   0  0  1  0  0  0  0  0  0  0  0  0
    5.0635  -18.4951   23.1541 C   0  0  0  0  0  0  0  0  0  0  0  0
    5.9432  -19.5020   24.3795 S   0  0  0  0  0  0  0  0  0  0  0  0
    7.0487  -17.5789   21.9813 C   0  0  0  0  0  0  0  0  0  0  0  0
    8.2286  -17.9656   22.2035 O   0  0  0  0  0  0  0  0  0  0  0  0
    7.7739  -12.1657   19.5748 C   0  0  0  0  0  0  0  0  0  0  0  0
    8.3070  -13.3998   20.2217 C   0  0  2  0  0  0  0  0  0  0  0  0
    8.3798  -14.4856   19.1631 C   0  0  0  0  0  0  0  0  0  0  0  0
    7.4644  -13.9227   21.3366 C   0  0  0  0  0  0  0  0  0  0  0  0
    7.9564  -15.2355   21.9003 C   0  0  2  0  0  0  0  0  0  0  0  0
    6.8748  -16.1893   21.8159 N   0  0  0  0  0  0  0  0  0  0  0  0
    8.2838  -14.9902   23.3263 C   0  0  0  0  0  0  0  0  0  0  0  0
    7.7806  -13.9898   23.8853 O   0  0  0  0  0  0  0  0  0  0  0  0
    9.1387  -15.8527   24.0475 N   0  0  0  0  0  0  0  0  0  0  0  0
    9.4714  -15.6714   25.4671 C   0  0  1  0  0  0  0  0  0  0  0  0
    8.2035  -15.6421   26.2376 C   0  0  0  0  0  0  0  0  0  0  0  0
    7.7180  -14.2653   26.4040 C   0  0  0  0  0  0  0  0  0  0  0  0
    8.5664  -13.2028   26.6002 C   0  0  0  0  0  0  0  0  0  0  0  0
    8.0801  -11.9114   26.7495 C   0  0  0  0  0  0  0  0  0  0  0  0
    6.7186  -11.6979   26.6990 C   0  0  0  0  0  0  0  0  0  0  0  0
    5.8512  -12.7539   26.5027 C   0  0  0  0  0  0  0  0  0  0  0  0
    6.3434  -14.0410   26.3543 C   0  0  0  0  0  0  0  0  0  0  0  0
   10.4033  -16.7182   25.9261 C   0  0  0  0  0  0  0  0  0  0  0  0
   10.7951  -17.7113   25.0062 O   0  0  0  0  0  0  0  0  0  0  0  0
   10.8747  -16.7901   27.0749 O   0  0  0  0  0  0  0  0  0  0  0  0
  2  5  1  0
  2  1  1  1
  3  2  1  0
  4  3  1  0
  5  6  2  0
  8  7  1  6
  8  9  1  0
 10  8  1  0
 11 10  1  1
 12 11  1  0
 12  5  1  0
 13 11  1  0
 13 14  2  0
 15 13  1  0
 16 15  1  0
 16 24  1  0
 16 17  1  1
 18 19  2  0
 18 17  1  0
 20 19  1  0
 21 20  2  0
 22 21  1  0
 22 23  2  0
 23 18  1  0
 24 26  2  0
 24 25  1  0
M  END
$$$$
