CLF.pdb
     RDKit          3D

 26 26  0  0  1  0  0  0  0  0999 V2000
    7.1043  -19.5030   20.4249 N   0  0  0  0  0  0  0  0  0  0  0  0
    6.9028  -18.6251   21.5502 C   0  0  1  0  0  0  0  0  0  0  0  0
    6.6744  -19.4251   22.8141 C   0  0  0  0  0  0  0  0  0  0  0  0
    4.8837  -19.5483   23.0733 S   0  0  0  0  0  0  0  0  0  0  0  0
    8.0304  -17.7000   21.6558 C   0  0  0  0  0  0  0  0  0  0  0  0
    9.2320  -18.0248   21.4513 O   0  0  0  0  0  0  0  0  0  0  0  0
    8.7288  -13.9179   19.4035 C   0  0  0  0  0  0  0  0  0  0  0  0
    7.7071  -13.8525   20.4886 C   0  0  2  0  0  0  0  0  0  0  0  0
    7.0444  -12.4882   20.4219 C   0  0  0  0  0  0  0  0  0  0  0  0
    8.2611  -14.0100   21.8651 C   0  0  0  0  0  0  0  0  0  0  0  0
    8.8607  -15.3730   22.1219 C   0  0  2  0  0  0  0  0  0  0  0  0
    7.8055  -16.3525   22.0054 N   0  0  0  0  0  0  0  0  0  0  0  0
    9.3656  -15.3597   23.5168 C   0  0  0  0  0  0  0  0  0  0  0  0
   10.3723  -14.6623   23.7751 O   0  0  0  0  0  0  0  0  0  0  0  0
    8.7387  -16.1086   24.5371 N   0  0  0  0  0  0  0  0  0  0  0  0
    9.1557  -16.0769   25.9457 C   0  0  1  0  0  0  0  0  0  0  0  0
    7.9556  -15.8068   26.7757 C   0  0  0  0  0  0  0  0  0  0  0  0
    7.4914  -14.4240   26.5992 C   0  0  0  0  0  0  0  0  0  0  0  0
    6.2299  -14.1216   26.1471 C   0  0  0  0  0  0  0  0  0  0  0  0
    5.8162  -12.8055   25.9944 C   0  0  0  0  0  0  0  0  0  0  0  0
    6.6931  -11.7872   26.3041 C   0  0  0  0  0  0  0  0  0  0  0  0
    7.9647  -12.0726   26.7596 C   0  0  0  0  0  0  0  0  0  0  0  0
    8.3714  -13.3890   26.9098 C   0  0  0  0  0  0  0  0  0  0  0  0
    9.8470  -17.3255   26.3171 C   0  0  0  0  0  0  0  0  0  0  0  0
   10.0319  -18.3060   25.3220 O   0  0  0  0  0  0  0  0  0  0  0  0
   10.2844  -17.5797   27.4534 O   0  0  0  0  0  0  0  0  0  0  0  0
  2  5  1  0
  2  1  1  6
  3  2  1  0
  4  3  1  0
  5  6  2  0
  8  7  1  6
  8  9  1  0
 10  8  1  0
 11 10  1  1
 12 11  1  0
 12  5  1  0
 13 11  1  0
 13 14  2  0
 15 13  1  0
 16 15  1  0
 16 24  1  0
 16 17  1  1
 18 19  2  0
 18 17  1  0
 20 19  1  0
 21 20  2  0
 22 21  1  0
 22 23  2  0
 23 18  1  0
 24 26  2  0
 24 25  1  0
M  END
$$$$
