CLF.pdb
     RDKit          3D

 26 26  0  0  1  0  0  0  0  0999 V2000
    7.6664  -18.5784   20.1424 N   0  0  0  0  0  0  0  0  0  0  0  0
    7.3245  -18.4169   21.5333 C   0  0  1  0  0  0  0  0  0  0  0  0
    7.7939  -19.6095   22.3379 C   0  0  0  0  0  0  0  0  0  0  0  0
    9.6059  -19.6430   22.2689 S   0  0  0  0  0  0  0  0  0  0  0  0
    7.8627  -17.1491   22.0244 C   0  0  0  0  0  0  0  0  0  0  0  0
    8.8110  -16.5243   21.4753 O   0  0  0  0  0  0  0  0  0  0  0  0
    7.9920  -12.6982   24.9987 C   0  0  0  0  0  0  0  0  0  0  0  0
    6.7457  -13.5027   25.1572 C   0  0  2  0  0  0  0  0  0  0  0  0
    6.2584  -13.3293   26.5846 C   0  0  0  0  0  0  0  0  0  0  0  0
    6.9244  -14.9657   24.9240 C   0  0  0  0  0  0  0  0  0  0  0  0
    7.7637  -15.2849   23.7087 C   0  0  2  0  0  0  0  0  0  0  0  0
    7.3173  -16.5530   23.1802 N   0  0  0  0  0  0  0  0  0  0  0  0
    9.1639  -15.4160   24.1810 C   0  0  0  0  0  0  0  0  0  0  0  0
   10.0249  -14.6447   23.7010 O   0  0  0  0  0  0  0  0  0  0  0  0
    9.5316  -16.3800   25.1454 N   0  0  0  0  0  0  0  0  0  0  0  0
   10.9229  -16.6753   25.5142 C   0  0  1  0  0  0  0  0  0  0  0  0
   11.5185  -15.4439   26.0896 C   0  0  0  0  0  0  0  0  0  0  0  0
   10.8195  -15.0432   27.3182 C   0  0  0  0  0  0  0  0  0  0  0  0
    9.9902  -13.9493   27.3716 C   0  0  0  0  0  0  0  0  0  0  0  0
    9.3384  -13.5966   28.5452 C   0  0  0  0  0  0  0  0  0  0  0  0
    9.5314  -14.3631   29.6753 C   0  0  0  0  0  0  0  0  0  0  0  0
   10.3614  -15.4657   29.6400 C   0  0  0  0  0  0  0  0  0  0  0  0
   11.0092  -15.8124   28.4648 C   0  0  0  0  0  0  0  0  0  0  0  0
   10.9904  -17.8317   26.4270 C   0  0  0  0  0  0  0  0  0  0  0  0
    9.7877  -18.4821   26.7682 O   0  0  0  0  0  0  0  0  0  0  0  0
   12.0394  -18.2808   26.9219 O   0  0  0  0  0  0  0  0  0  0  0  0
  2  5  1  0
  2  1  1  6
  3  2  1  0
  4  3  1  0
  5  6  2  0
  8  7  1  1
  8  9  1  0
 10  8  1  0
 11 10  1  1
 12 11  1  0
 12  5  1  0
 13 11  1  0
 13 14  2  0
 15 13  1  0
 16 15  1  0
 16 24  1  0
 16 17  1  1
 18 19  2  0
 18 17  1  0
 20 19  1  0
 21 20  2  0
 22 21  1  0
 22 23  2  0
 23 18  1  0
 24 26  2  0
 24 25  1  0
M  END
$$$$
