CLF.pdb
     RDKit          3D

 26 26  0  0  1  0  0  0  0  0999 V2000
    7.6870  -19.7066   20.2211 N   0  0  0  0  0  0  0  0  0  0  0  0
    7.2221  -18.6101   21.0331 C   0  0  1  0  0  0  0  0  0  0  0  0
    6.5726  -19.1246   22.2993 C   0  0  0  0  0  0  0  0  0  0  0  0
    7.8717  -19.8693   23.3226 S   0  0  0  0  0  0  0  0  0  0  0  0
    8.3292  -17.6907   21.2922 C   0  0  0  0  0  0  0  0  0  0  0  0
    9.5466  -18.0126   21.2189 O   0  0  0  0  0  0  0  0  0  0  0  0
    8.7378  -13.7136   19.3019 C   0  0  0  0  0  0  0  0  0  0  0  0
    7.8031  -13.7212   20.4646 C   0  0  2  0  0  0  0  0  0  0  0  0
    7.1659  -12.3464   20.5583 C   0  0  0  0  0  0  0  0  0  0  0  0
    8.4568  -13.9977   21.7772 C   0  0  0  0  0  0  0  0  0  0  0  0
    9.0973  -15.3640   21.8564 C   0  0  2  0  0  0  0  0  0  0  0  0
    8.0645  -16.3523   21.6489 N   0  0  0  0  0  0  0  0  0  0  0  0
    9.6383  -15.5012   23.2309 C   0  0  0  0  0  0  0  0  0  0  0  0
   10.7913  -15.0708   23.4587 O   0  0  0  0  0  0  0  0  0  0  0  0
    8.8854  -16.0992   24.2655 N   0  0  0  0  0  0  0  0  0  0  0  0
    9.4145  -16.3654   25.6101 C   0  0  1  0  0  0  0  0  0  0  0  0
    9.6448  -15.0620   26.2812 C   0  0  0  0  0  0  0  0  0  0  0  0
    8.4064  -14.2739   26.3439 C   0  0  0  0  0  0  0  0  0  0  0  0
    7.1616  -14.8476   26.2505 C   0  0  0  0  0  0  0  0  0  0  0  0
    6.0078  -14.0790   26.3179 C   0  0  0  0  0  0  0  0  0  0  0  0
    6.1204  -12.7143   26.4816 C   0  0  0  0  0  0  0  0  0  0  0  0
    7.3631  -12.1207   26.5771 C   0  0  0  0  0  0  0  0  0  0  0  0
    8.5113  -12.8941   26.5091 C   0  0  0  0  0  0  0  0  0  0  0  0
    8.5098  -17.2527   26.3646 C   0  0  0  0  0  0  0  0  0  0  0  0
    8.8812  -17.6275   27.6713 O   0  0  0  0  0  0  0  0  0  0  0  0
    7.4327  -17.6980   25.9302 O   0  0  0  0  0  0  0  0  0  0  0  0
  2  5  1  0
  2  1  1  1
  3  2  1  0
  4  3  1  0
  5  6  2  0
  8  7  1  6
  8  9  1  0
 10  8  1  0
 11 10  1  1
 12 11  1  0
 12  5  1  0
 13 11  1  0
 13 14  2  0
 15 13  1  0
 16 15  1  0
 16 24  1  0
 16 17  1  1
 18 19  2  0
 18 17  1  0
 20 19  1  0
 21 20  2  0
 22 21  1  0
 22 23  2  0
 23 18  1  0
 24 26  2  0
 24 25  1  0
M  END
$$$$
