CLF.pdb
     RDKit          3D

 26 26  0  0  1  0  0  0  0  0999 V2000
    6.4991  -19.4039   20.3577 N   0  0  0  0  0  0  0  0  0  0  0  0
    6.4526  -18.5174   21.4933 C   0  0  1  0  0  0  0  0  0  0  0  0
    6.2821  -19.3039   22.7748 C   0  0  0  0  0  0  0  0  0  0  0  0
    5.8035  -18.1377   24.0786 S   0  0  0  0  0  0  0  0  0  0  0  0
    7.6428  -17.6680   21.4987 C   0  0  0  0  0  0  0  0  0  0  0  0
    8.7891  -18.0559   21.1428 O   0  0  0  0  0  0  0  0  0  0  0  0
    8.7099  -14.1319   19.2406 C   0  0  0  0  0  0  0  0  0  0  0  0
    7.6883  -13.8550   20.2919 C   0  0  2  0  0  0  0  0  0  0  0  0
    7.2517  -12.4082   20.1467 C   0  0  0  0  0  0  0  0  0  0  0  0
    8.1805  -14.0319   21.6894 C   0  0  0  0  0  0  0  0  0  0  0  0
    8.6784  -15.4283   21.9816 C   0  0  2  0  0  0  0  0  0  0  0  0
    7.5481  -16.3256   21.9204 N   0  0  0  0  0  0  0  0  0  0  0  0
    9.2143  -15.4082   23.3648 C   0  0  0  0  0  0  0  0  0  0  0  0
   10.2669  -14.7670   23.5823 O   0  0  0  0  0  0  0  0  0  0  0  0
    8.5661  -16.0893   24.4187 N   0  0  0  0  0  0  0  0  0  0  0  0
    9.0438  -16.0852   25.8082 C   0  0  1  0  0  0  0  0  0  0  0  0
    7.8856  -15.8061   26.6929 C   0  0  0  0  0  0  0  0  0  0  0  0
    7.4087  -14.4272   26.5197 C   0  0  0  0  0  0  0  0  0  0  0  0
    8.1620  -13.3357   26.8781 C   0  0  0  0  0  0  0  0  0  0  0  0
    7.6880  -12.0435   26.6985 C   0  0  0  0  0  0  0  0  0  0  0  0
    6.4364  -11.8590   26.1495 C   0  0  0  0  0  0  0  0  0  0  0  0
    5.6655  -12.9443   25.7837 C   0  0  0  0  0  0  0  0  0  0  0  0
    6.1448  -14.2320   25.9657 C   0  0  0  0  0  0  0  0  0  0  0  0
    9.7277  -17.3510   26.1324 C   0  0  0  0  0  0  0  0  0  0  0  0
   10.2621  -17.5068   27.4270 O   0  0  0  0  0  0  0  0  0  0  0  0
    9.8682  -18.3007   25.3417 O   0  0  0  0  0  0  0  0  0  0  0  0
  2  5  1  0
  2  1  1  6
  3  2  1  0
  4  3  1  0
  5  6  2  0
  8  7  1  6
  8  9  1  0
 10  8  1  0
 11 10  1  1
 12 11  1  0
 12  5  1  0
 13 11  1  0
 13 14  2  0
 15 13  1  0
 16 15  1  0
 16 24  1  0
 16 17  1  1
 18 19  2  0
 18 17  1  0
 20 19  1  0
 21 20  2  0
 22 21  1  0
 22 23  2  0
 23 18  1  0
 24 26  2  0
 24 25  1  0
M  END
$$$$
