CLF.pdb
     RDKit          3D

 26 26  0  0  1  0  0  0  0  0999 V2000
    6.3041  -20.2535   22.2847 N   0  0  0  0  0  0  0  0  0  0  0  0
    6.0234  -18.9111   22.7281 C   0  0  1  0  0  0  0  0  0  0  0  0
    5.7302  -18.8921   24.2125 C   0  0  0  0  0  0  0  0  0  0  0  0
    7.2973  -19.1502   25.0880 S   0  0  0  0  0  0  0  0  0  0  0  0
    7.1299  -18.0317   22.3533 C   0  0  0  0  0  0  0  0  0  0  0  0
    8.2825  -18.4396   22.0432 O   0  0  0  0  0  0  0  0  0  0  0  0
    7.5139  -12.0184   20.7926 C   0  0  0  0  0  0  0  0  0  0  0  0
    8.1489  -13.3558   20.9758 C   0  0  2  0  0  0  0  0  0  0  0  0
    8.5949  -13.8498   19.6114 C   0  0  0  0  0  0  0  0  0  0  0  0
    7.2426  -14.3934   21.5490 C   0  0  0  0  0  0  0  0  0  0  0  0
    7.9337  -15.7060   21.8366 C   0  0  2  0  0  0  0  0  0  0  0  0
    6.9402  -16.6346   22.3238 N   0  0  0  0  0  0  0  0  0  0  0  0
    8.9236  -15.4396   22.9090 C   0  0  0  0  0  0  0  0  0  0  0  0
   10.0200  -14.9282   22.5883 O   0  0  0  0  0  0  0  0  0  0  0  0
    8.6515  -15.7493   24.2598 N   0  0  0  0  0  0  0  0  0  0  0  0
    9.6012  -15.5181   25.3569 C   0  0  1  0  0  0  0  0  0  0  0  0
    8.8282  -15.1194   26.5593 C   0  0  0  0  0  0  0  0  0  0  0  0
    8.1566  -13.8291   26.3518 C   0  0  0  0  0  0  0  0  0  0  0  0
    6.8012  -13.7267   26.1536 C   0  0  0  0  0  0  0  0  0  0  0  0
    6.1923  -12.4937   25.9650 C   0  0  0  0  0  0  0  0  0  0  0  0
    6.9687  -11.3540   25.9778 C   0  0  0  0  0  0  0  0  0  0  0  0
    8.3324  -11.4381   26.1755 C   0  0  0  0  0  0  0  0  0  0  0  0
    8.9341  -12.6725   26.3633 C   0  0  0  0  0  0  0  0  0  0  0  0
   10.4457  -16.7063   25.5798 C   0  0  0  0  0  0  0  0  0  0  0  0
   10.2649  -17.8200   24.7355 O   0  0  0  0  0  0  0  0  0  0  0  0
   11.3148  -16.7994   26.4648 O   0  0  0  0  0  0  0  0  0  0  0  0
  2  5  1  0
  2  1  1  1
  3  2  1  0
  4  3  1  0
  5  6  2  0
  8  7  1  6
  8  9  1  0
 10  8  1  0
 11 10  1  1
 12 11  1  0
 12  5  1  0
 13 11  1  0
 13 14  2  0
 15 13  1  0
 16 15  1  0
 16 24  1  0
 16 17  1  1
 18 19  2  0
 18 17  1  0
 20 19  1  0
 21 20  2  0
 22 21  1  0
 22 23  2  0
 23 18  1  0
 24 26  2  0
 24 25  1  0
M  END
$$$$
