CLF.pdb
     RDKit          3D

 26 26  0  0  1  0  0  0  0  0999 V2000
    6.4533  -19.1916   20.2223 N   0  0  0  0  0  0  0  0  0  0  0  0
    6.4479  -18.2981   21.3533 C   0  0  1  0  0  0  0  0  0  0  0  0
    6.3070  -19.0754   22.6440 C   0  0  0  0  0  0  0  0  0  0  0  0
    4.5619  -19.5353   22.8237 S   0  0  0  0  0  0  0  0  0  0  0  0
    7.6457  -17.4601   21.3193 C   0  0  0  0  0  0  0  0  0  0  0  0
    8.7804  -17.8646   20.9450 O   0  0  0  0  0  0  0  0  0  0  0  0
    8.6461  -13.8063   19.1308 C   0  0  0  0  0  0  0  0  0  0  0  0
    7.6923  -13.6233   20.2632 C   0  0  2  0  0  0  0  0  0  0  0  0
    7.1804  -12.1949   20.2140 C   0  0  0  0  0  0  0  0  0  0  0  0
    8.2927  -13.8334   21.6129 C   0  0  0  0  0  0  0  0  0  0  0  0
    8.7300  -15.2579   21.8638 C   0  0  2  0  0  0  0  0  0  0  0  0
    7.5726  -16.1103   21.7212 N   0  0  0  0  0  0  0  0  0  0  0  0
    9.2110  -15.3146   23.2660 C   0  0  0  0  0  0  0  0  0  0  0  0
   10.3011  -14.7642   23.5404 O   0  0  0  0  0  0  0  0  0  0  0  0
    8.4708  -15.9684   24.2757 N   0  0  0  0  0  0  0  0  0  0  0  0
    8.8877  -16.0287   25.6833 C   0  0  1  0  0  0  0  0  0  0  0  0
    7.7179  -15.6771   26.5259 C   0  0  0  0  0  0  0  0  0  0  0  0
    7.4851  -14.2263   26.5279 C   0  0  0  0  0  0  0  0  0  0  0  0
    8.4969  -13.3173   26.7204 C   0  0  0  0  0  0  0  0  0  0  0  0
    8.2489  -11.9516   26.7124 C   0  0  0  0  0  0  0  0  0  0  0  0
    6.9602  -11.5058   26.5069 C   0  0  0  0  0  0  0  0  0  0  0  0
    5.9310  -12.4050   26.3119 C   0  0  0  0  0  0  0  0  0  0  0  0
    6.1855  -13.7674   26.3210 C   0  0  0  0  0  0  0  0  0  0  0  0
    9.4572  -17.3501   26.0065 C   0  0  0  0  0  0  0  0  0  0  0  0
    9.9705  -17.5553   27.3027 O   0  0  0  0  0  0  0  0  0  0  0  0
    9.5176  -18.3064   25.2135 O   0  0  0  0  0  0  0  0  0  0  0  0
  2  5  1  0
  2  1  1  6
  3  2  1  0
  4  3  1  0
  5  6  2  0
  8  7  1  6
  8  9  1  0
 10  8  1  0
 11 10  1  1
 12 11  1  0
 12  5  1  0
 13 11  1  0
 13 14  2  0
 15 13  1  0
 16 15  1  0
 16 24  1  0
 16 17  1  1
 18 19  2  0
 18 17  1  0
 20 19  1  0
 21 20  2  0
 22 21  1  0
 22 23  2  0
 23 18  1  0
 24 26  2  0
 24 25  1  0
M  END
$$$$
