IEK.pdb
     RDKit          3D

 27 26  0  0  1  0  0  0  0  0999 V2000
    6.0633  -11.4513   26.1651 C   0  0  0  0  0  0  0  0  0  0  0  0
    6.2901  -12.5397   27.2029 C   0  0  0  0  0  0  0  0  0  0  0  0
    7.1734  -13.6387   26.6345 C   0  0  2  0  0  0  0  0  0  0  0  0
    8.4578  -13.0590   26.0913 C   0  0  0  0  0  0  0  0  0  0  0  0
    6.4821  -14.4857   25.6126 C   0  0  2  0  0  0  0  0  0  0  0  0
    5.3166  -15.0946   26.2274 N   0  0  0  0  0  0  0  0  0  0  0  0
    7.4190  -15.4846   25.0374 C   0  0  0  0  0  0  0  0  0  0  0  0
    7.7462  -16.5093   25.6877 O   0  0  0  0  0  0  0  0  0  0  0  0
    8.0028  -15.3504   23.7294 N   0  0  0  0  0  0  0  0  0  0  0  0
    8.8735  -16.3290   23.1729 C   0  0  1  0  0  0  0  0  0  0  0  0
    9.0620  -16.2820   21.6888 C   0  0  0  0  0  0  0  0  0  0  0  0
    9.9384  -17.3438   21.1007 C   0  0  0  0  0  0  0  0  0  0  0  0
   10.1145  -17.2912   19.6522 C   0  0  0  0  0  0  0  0  0  0  0  0
    9.4784  -18.1270   18.9257 O   0  0  0  0  0  0  0  0  0  0  0  0
   10.2395  -16.2778   23.8000 C   0  0  0  0  0  0  0  0  0  0  0  0
   10.8331  -15.1860   23.9637 O   0  0  0  0  0  0  0  0  0  0  0  0
   10.9536  -16.3572   19.0617 O   0  0  0  0  0  0  0  0  0  0  0  0
   10.8163  -17.5009   24.1941 N   0  0  0  0  0  0  0  0  0  0  0  0
   12.1977  -17.4971   24.8509 C   0  0  1  0  0  0  0  0  0  0  0  0
   12.0967  -18.5809   25.8618 C   0  0  0  0  0  0  0  0  0  0  0  0
   11.7426  -18.3562   27.2544 C   0  0  0  0  0  0  0  0  0  0  0  0
   11.6395  -19.4905   28.1966 C   0  0  0  0  0  0  0  0  0  0  0  0
   11.2409  -19.1272   29.5944 C   0  0  0  0  0  0  0  0  0  0  0  0
   11.2315  -20.3395   30.3977 N   0  0  0  0  0  0  0  0  0  0  0  0
   13.1046  -17.7699   23.7194 C   0  0  0  0  0  0  0  0  0  0  0  0
   12.7591  -18.2731   22.6417 O   0  0  0  0  0  0  0  0  0  0  0  0
   14.4920  -17.4615   23.7878 O   0  0  0  0  0  0  0  0  0  0  0  0
  1  2  1  0
  2  3  1  0
  3  4  1  6
  5  3  1  0
  5  6  1  1
  7  5  1  0
  7  8  2  0
  9  7  1  0
 10  9  1  0
 10 11  1  6
 12 11  1  0
 12 13  1  0
 13 14  2  0
 15 10  1  0
 16 15  2  0
 17 13  1  0
 18 15  1  0
 19 25  1  0
 19 18  1  0
 19 20  1  1
 21 20  1  0
 21 22  1  0
 23 22  1  0
 23 24  1  0
 25 27  1  0
 26 25  2  0
M  END
$$$$
