IEK.pdb
     RDKit          3D

 27 26  0  0  1  0  0  0  0  0999 V2000
    7.1831  -11.9303   19.1754 C   0  0  0  0  0  0  0  0  0  0  0  0
    7.7575  -13.2649   18.7260 C   0  0  0  0  0  0  0  0  0  0  0  0
    8.1212  -14.1183   19.9303 C   0  0  2  0  0  0  0  0  0  0  0  0
    9.1648  -13.4264   20.7748 C   0  0  0  0  0  0  0  0  0  0  0  0
    8.5465  -15.5063   19.5665 C   0  0  2  0  0  0  0  0  0  0  0  0
    7.5041  -16.1134   18.7589 N   0  0  0  0  0  0  0  0  0  0  0  0
    8.8650  -16.2944   20.7845 C   0  0  0  0  0  0  0  0  0  0  0  0
    7.9638  -16.6069   21.6030 O   0  0  0  0  0  0  0  0  0  0  0  0
   10.1946  -16.7419   21.1039 N   0  0  0  0  0  0  0  0  0  0  0  0
   10.5155  -17.3783   22.3357 C   0  0  1  0  0  0  0  0  0  0  0  0
   11.7906  -18.1616   22.3652 C   0  0  0  0  0  0  0  0  0  0  0  0
   12.0048  -19.1171   21.2327 C   0  0  0  0  0  0  0  0  0  0  0  0
   13.3844  -19.2629   20.7774 C   0  0  0  0  0  0  0  0  0  0  0  0
   14.1051  -20.1855   21.2877 O   0  0  0  0  0  0  0  0  0  0  0  0
   10.5675  -16.3945   23.4721 C   0  0  0  0  0  0  0  0  0  0  0  0
   11.4757  -15.5330   23.5377 O   0  0  0  0  0  0  0  0  0  0  0  0
   13.9165  -18.4227   19.8099 O   0  0  0  0  0  0  0  0  0  0  0  0
    9.5573  -16.4819   24.4497 N   0  0  0  0  0  0  0  0  0  0  0  0
    9.5964  -15.5342   25.6498 C   0  0  1  0  0  0  0  0  0  0  0  0
    8.3722  -14.7115   25.4735 C   0  0  0  0  0  0  0  0  0  0  0  0
    8.0053  -13.6109   26.3507 C   0  0  0  0  0  0  0  0  0  0  0  0
    6.7646  -12.8428   26.1149 C   0  0  0  0  0  0  0  0  0  0  0  0
    6.5588  -11.6660   27.0191 C   0  0  0  0  0  0  0  0  0  0  0  0
    5.2788  -11.0570   26.6941 N   0  0  0  0  0  0  0  0  0  0  0  0
    9.5787  -16.4560   26.8019 C   0  0  0  0  0  0  0  0  0  0  0  0
    9.1532  -17.6187   26.7708 O   0  0  0  0  0  0  0  0  0  0  0  0
   10.0687  -16.0603   28.0778 O   0  0  0  0  0  0  0  0  0  0  0  0
  1  2  1  0
  2  3  1  0
  3  4  1  6
  5  3  1  0
  5  6  1  1
  7  5  1  0
  7  8  2  0
  9  7  1  0
 10  9  1  0
 10 11  1  6
 12 11  1  0
 12 13  1  0
 13 14  2  0
 15 10  1  0
 16 15  2  0
 17 13  1  0
 18 15  1  0
 19 25  1  0
 19 18  1  0
 19 20  1  1
 21 20  1  0
 21 22  1  0
 23 22  1  0
 23 24  1  0
 25 27  1  0
 26 25  2  0
M  END
$$$$
