IEK.pdb
     RDKit          3D

 27 26  0  0  1  0  0  0  0  0999 V2000
    6.3804  -11.4036   26.7670 C   0  0  0  0  0  0  0  0  0  0  0  0
    5.8163  -12.6678   26.1373 C   0  0  0  0  0  0  0  0  0  0  0  0
    6.9423  -13.5690   25.6567 C   0  0  2  0  0  0  0  0  0  0  0  0
    7.8600  -12.8180   24.7214 C   0  0  0  0  0  0  0  0  0  0  0  0
    6.4588  -14.8437   25.0396 C   0  0  2  0  0  0  0  0  0  0  0  0
    5.6266  -15.5390   26.0045 N   0  0  0  0  0  0  0  0  0  0  0  0
    7.6024  -15.6650   24.5663 C   0  0  0  0  0  0  0  0  0  0  0  0
    8.2362  -16.4045   25.3608 O   0  0  0  0  0  0  0  0  0  0  0  0
    8.0527  -15.6693   23.1999 N   0  0  0  0  0  0  0  0  0  0  0  0
    9.1356  -16.4762   22.7507 C   0  0  1  0  0  0  0  0  0  0  0  0
    9.3019  -16.5976   21.2682 C   0  0  0  0  0  0  0  0  0  0  0  0
   10.3652  -17.5410   20.7983 C   0  0  0  0  0  0  0  0  0  0  0  0
   10.4641  -17.7166   19.3521 C   0  0  0  0  0  0  0  0  0  0  0  0
    9.4628  -17.4002   18.6253 O   0  0  0  0  0  0  0  0  0  0  0  0
   10.4491  -16.0055   23.3120 C   0  0  0  0  0  0  0  0  0  0  0  0
   10.8166  -14.8144   23.1801 O   0  0  0  0  0  0  0  0  0  0  0  0
   11.6170  -18.2169   18.7642 O   0  0  0  0  0  0  0  0  0  0  0  0
   11.2400  -16.9541   23.9891 N   0  0  0  0  0  0  0  0  0  0  0  0
   12.4888  -16.4860   24.7383 C   0  0  1  0  0  0  0  0  0  0  0  0
   12.4627  -17.2967   25.9828 C   0  0  0  0  0  0  0  0  0  0  0  0
   11.9354  -16.8150   27.2498 C   0  0  0  0  0  0  0  0  0  0  0  0
   11.8921  -17.7013   28.4320 C   0  0  0  0  0  0  0  0  0  0  0  0
   11.4558  -17.0466   29.7070 C   0  0  0  0  0  0  0  0  0  0  0  0
   11.4143  -18.0586   30.7506 N   0  0  0  0  0  0  0  0  0  0  0  0
   13.5800  -16.8055   23.7979 C   0  0  0  0  0  0  0  0  0  0  0  0
   13.4989  -17.6246   22.8724 O   0  0  0  0  0  0  0  0  0  0  0  0
   14.8500  -16.1706   23.8898 O   0  0  0  0  0  0  0  0  0  0  0  0
  1  2  1  0
  2  3  1  0
  3  4  1  6
  5  3  1  0
  5  6  1  1
  7  5  1  0
  7  8  2  0
  9  7  1  0
 10  9  1  0
 10 11  1  6
 12 11  1  0
 12 13  1  0
 13 14  2  0
 15 10  1  0
 16 15  2  0
 17 13  1  0
 18 15  1  0
 19 25  1  0
 19 18  1  0
 19 20  1  1
 21 20  1  0
 21 22  1  0
 23 22  1  0
 23 24  1  0
 25 27  1  0
 26 25  2  0
M  END
$$$$
