IEK.pdb
     RDKit          3D

 27 26  0  0  1  0  0  0  0  0999 V2000
    6.0047  -11.4426   26.1124 C   0  0  0  0  0  0  0  0  0  0  0  0
    6.3693  -12.0509   24.7670 C   0  0  0  0  0  0  0  0  0  0  0  0
    7.0829  -13.3791   24.9614 C   0  0  2  0  0  0  0  0  0  0  0  0
    8.2638  -13.2158   25.8886 C   0  0  0  0  0  0  0  0  0  0  0  0
    7.4852  -14.0295   23.6750 C   0  0  2  0  0  0  0  0  0  0  0  0
    6.3195  -14.1135   22.8141 N   0  0  0  0  0  0  0  0  0  0  0  0
    8.1114  -15.3524   23.9286 C   0  0  0  0  0  0  0  0  0  0  0  0
    7.4183  -16.3312   24.3046 O   0  0  0  0  0  0  0  0  0  0  0  0
    9.5197  -15.5976   23.7667 N   0  0  0  0  0  0  0  0  0  0  0  0
   10.1234  -16.8465   24.0847 C   0  0  1  0  0  0  0  0  0  0  0  0
   11.4893  -17.0856   23.5214 C   0  0  0  0  0  0  0  0  0  0  0  0
   11.5987  -17.0760   22.0284 C   0  0  0  0  0  0  0  0  0  0  0  0
   12.9564  -17.0854   21.4912 C   0  0  0  0  0  0  0  0  0  0  0  0
   13.5375  -18.2082   21.3106 O   0  0  0  0  0  0  0  0  0  0  0  0
   10.2079  -17.0600   25.5711 C   0  0  0  0  0  0  0  0  0  0  0  0
   10.6698  -16.1712   26.3246 O   0  0  0  0  0  0  0  0  0  0  0  0
   13.6158  -15.9053   21.1786 O   0  0  0  0  0  0  0  0  0  0  0  0
    9.7463  -18.2917   26.0747 N   0  0  0  0  0  0  0  0  0  0  0  0
    9.6207  -18.4794   27.5876 C   0  0  1  0  0  0  0  0  0  0  0  0
    8.3739  -19.2743   27.7293 C   0  0  0  0  0  0  0  0  0  0  0  0
    8.3519  -20.7176   27.9078 C   0  0  0  0  0  0  0  0  0  0  0  0
    7.0688  -21.4500   27.9546 C   0  0  0  0  0  0  0  0  0  0  0  0
    7.1744  -22.9047   28.2977 C   0  0  0  0  0  0  0  0  0  0  0  0
    5.8319  -23.4613   28.3510 N   0  0  0  0  0  0  0  0  0  0  0  0
   10.8662  -19.1880   27.9393 C   0  0  0  0  0  0  0  0  0  0  0  0
   11.6029  -19.7674   27.1296 O   0  0  0  0  0  0  0  0  0  0  0  0
   11.3276  -19.2574   29.2835 O   0  0  0  0  0  0  0  0  0  0  0  0
  1  2  1  0
  2  3  1  0
  3  4  1  1
  5  3  1  0
  5  6  1  6
  7  5  1  0
  7  8  2  0
  9  7  1  0
 10  9  1  0
 10 11  1  1
 12 11  1  0
 12 13  1  0
 13 14  2  0
 15 10  1  0
 16 15  2  0
 17 13  1  0
 18 15  1  0
 19 25  1  0
 19 18  1  0
 19 20  1  6
 21 20  1  0
 21 22  1  0
 23 22  1  0
 23 24  1  0
 25 27  1  0
 26 25  2  0
M  END
$$$$
