IEK.pdb
     RDKit          3D

 27 26  0  0  1  0  0  0  0  0999 V2000
    6.3499  -13.0839   20.8295 C   0  0  0  0  0  0  0  0  0  0  0  0
    7.1220  -14.0464   19.9405 C   0  0  0  0  0  0  0  0  0  0  0  0
    8.1843  -14.7766   20.7463 C   0  0  2  0  0  0  0  0  0  0  0  0
    9.0444  -13.7932   21.5039 C   0  0  0  0  0  0  0  0  0  0  0  0
    9.0171  -15.7080   19.9226 C   0  0  2  0  0  0  0  0  0  0  0  0
    8.1350  -16.6356   19.2381 N   0  0  0  0  0  0  0  0  0  0  0  0
   10.0307  -16.3918   20.7660 C   0  0  0  0  0  0  0  0  0  0  0  0
    9.7204  -17.3909   21.4627 O   0  0  0  0  0  0  0  0  0  0  0  0
   11.4031  -15.9669   20.8427 N   0  0  0  0  0  0  0  0  0  0  0  0
   12.3818  -16.6652   21.6042 C   0  0  1  0  0  0  0  0  0  0  0  0
   13.8036  -16.2420   21.4046 C   0  0  0  0  0  0  0  0  0  0  0  0
   14.8395  -17.0475   22.1254 C   0  0  0  0  0  0  0  0  0  0  0  0
   16.2241  -16.6339   21.9163 C   0  0  0  0  0  0  0  0  0  0  0  0
   16.4862  -15.3869   21.8315 O   0  0  0  0  0  0  0  0  0  0  0  0
   12.0950  -16.5911   23.0787 C   0  0  0  0  0  0  0  0  0  0  0  0
   11.7648  -15.5085   23.6175 O   0  0  0  0  0  0  0  0  0  0  0  0
   17.2462  -17.5661   21.8093 O   0  0  0  0  0  0  0  0  0  0  0  0
   12.2104  -17.7828   23.8205 N   0  0  0  0  0  0  0  0  0  0  0  0
   11.9904  -17.7440   25.3338 C   0  0  1  0  0  0  0  0  0  0  0  0
   11.3292  -19.0441   25.6149 C   0  0  0  0  0  0  0  0  0  0  0  0
   11.0855  -19.5534   26.9553 C   0  0  0  0  0  0  0  0  0  0  0  0
   10.5114  -20.9008   27.1549 C   0  0  0  0  0  0  0  0  0  0  0  0
   10.2025  -21.2607   28.5761 C   0  0  0  0  0  0  0  0  0  0  0  0
    9.6534  -22.6071   28.5986 N   0  0  0  0  0  0  0  0  0  0  0  0
   13.3597  -17.6026   25.8652 C   0  0  0  0  0  0  0  0  0  0  0  0
   13.6485  -17.0592   26.9401 O   0  0  0  0  0  0  0  0  0  0  0  0
   14.4876  -18.1003   25.1549 O   0  0  0  0  0  0  0  0  0  0  0  0
  1  2  1  0
  2  3  1  0
  3  4  1  6
  5  3  1  0
  5  6  1  1
  7  5  1  0
  7  8  2  0
  9  7  1  0
 10  9  1  0
 10 11  1  1
 12 11  1  0
 12 13  1  0
 13 14  2  0
 15 10  1  0
 16 15  2  0
 17 13  1  0
 18 15  1  0
 19 25  1  0
 19 18  1  0
 19 20  1  1
 21 20  1  0
 21 22  1  0
 23 22  1  0
 23 24  1  0
 25 27  1  0
 26 25  2  0
M  END
$$$$
