IEK.pdb
     RDKit          3D

 27 26  0  0  1  0  0  0  0  0999 V2000
    7.0041  -11.4552   27.4226 C   0  0  0  0  0  0  0  0  0  0  0  0
    6.1969  -12.4262   26.5747 C   0  0  0  0  0  0  0  0  0  0  0  0
    7.1138  -13.4451   25.9173 C   0  0  2  0  0  0  0  0  0  0  0  0
    8.1305  -12.7549   25.0395 C   0  0  0  0  0  0  0  0  0  0  0  0
    6.3760  -14.5081   25.1654 C   0  0  2  0  0  0  0  0  0  0  0  0
    5.4538  -15.1634   26.0749 N   0  0  0  0  0  0  0  0  0  0  0  0
    7.3256  -15.4544   24.5259 C   0  0  0  0  0  0  0  0  0  0  0  0
    7.8985  -16.3463   25.2013 O   0  0  0  0  0  0  0  0  0  0  0  0
    7.6479  -15.4151   23.1243 N   0  0  0  0  0  0  0  0  0  0  0  0
    8.5656  -16.3206   22.5217 C   0  0  1  0  0  0  0  0  0  0  0  0
    8.7623  -16.1807   21.0445 C   0  0  0  0  0  0  0  0  0  0  0  0
    9.6794  -17.1754   20.4034 C   0  0  0  0  0  0  0  0  0  0  0  0
    9.8313  -17.0580   18.9560 C   0  0  0  0  0  0  0  0  0  0  0  0
    8.7851  -16.9084   18.2390 O   0  0  0  0  0  0  0  0  0  0  0  0
    9.9236  -16.2445   23.1637 C   0  0  0  0  0  0  0  0  0  0  0  0
   10.5123  -15.1460   23.2983 O   0  0  0  0  0  0  0  0  0  0  0  0
   11.0816  -17.1066   18.3564 O   0  0  0  0  0  0  0  0  0  0  0  0
   10.4984  -17.4520   23.6057 N   0  0  0  0  0  0  0  0  0  0  0  0
   11.7643  -17.4059   24.4631 C   0  0  1  0  0  0  0  0  0  0  0  0
   11.4661  -18.3601   25.5617 C   0  0  0  0  0  0  0  0  0  0  0  0
   12.3962  -18.6722   26.6354 C   0  0  0  0  0  0  0  0  0  0  0  0
   12.0539  -19.6849   27.6563 C   0  0  0  0  0  0  0  0  0  0  0  0
   13.0197  -19.7964   28.7963 C   0  0  0  0  0  0  0  0  0  0  0  0
   12.5527  -20.8430   29.6915 N   0  0  0  0  0  0  0  0  0  0  0  0
   12.8183  -17.8330   23.5228 C   0  0  0  0  0  0  0  0  0  0  0  0
   12.6306  -18.5414   22.5244 O   0  0  0  0  0  0  0  0  0  0  0  0
   14.1757  -17.4458   23.7022 O   0  0  0  0  0  0  0  0  0  0  0  0
  1  2  1  0
  2  3  1  0
  3  4  1  6
  5  3  1  0
  5  6  1  1
  7  5  1  0
  7  8  2  0
  9  7  1  0
 10  9  1  0
 10 11  1  6
 12 11  1  0
 12 13  1  0
 13 14  2  0
 15 10  1  0
 16 15  2  0
 17 13  1  0
 18 15  1  0
 19 25  1  0
 19 18  1  0
 19 20  1  1
 21 20  1  0
 21 22  1  0
 23 22  1  0
 23 24  1  0
 25 27  1  0
 26 25  2  0
M  END
$$$$
