IEK.pdb
     RDKit          3D

 27 26  0  0  1  0  0  0  0  0999 V2000
    6.4725  -11.4449   26.6319 C   0  0  0  0  0  0  0  0  0  0  0  0
    5.9542  -12.6579   25.8749 C   0  0  0  0  0  0  0  0  0  0  0  0
    7.0680  -13.6726   25.6727 C   0  0  2  0  0  0  0  0  0  0  0  0
    8.2539  -13.0300   24.9933 C   0  0  0  0  0  0  0  0  0  0  0  0
    6.6239  -14.9033   24.9462 C   0  0  2  0  0  0  0  0  0  0  0  0
    5.5037  -15.4853   25.6627 N   0  0  0  0  0  0  0  0  0  0  0  0
    7.7554  -15.8506   24.7772 C   0  0  0  0  0  0  0  0  0  0  0  0
    8.0922  -16.6239   25.7091 O   0  0  0  0  0  0  0  0  0  0  0  0
    8.5254  -15.9448   23.5655 N   0  0  0  0  0  0  0  0  0  0  0  0
    9.5019  -16.9581   23.3529 C   0  0  1  0  0  0  0  0  0  0  0  0
   10.0935  -17.0316   21.9800 C   0  0  0  0  0  0  0  0  0  0  0  0
    9.2259  -16.5465   20.8605 C   0  0  0  0  0  0  0  0  0  0  0  0
    9.8088  -16.6286   19.5243 C   0  0  0  0  0  0  0  0  0  0  0  0
   11.0254  -16.9989   19.4069 O   0  0  0  0  0  0  0  0  0  0  0  0
   10.6423  -16.8433   24.3267 C   0  0  0  0  0  0  0  0  0  0  0  0
   11.1261  -15.7258   24.6240 O   0  0  0  0  0  0  0  0  0  0  0  0
    9.0679  -16.3132   18.3943 O   0  0  0  0  0  0  0  0  0  0  0  0
   11.1366  -18.0372   24.8871 N   0  0  0  0  0  0  0  0  0  0  0  0
   12.2014  -17.9624   25.9828 C   0  0  1  0  0  0  0  0  0  0  0  0
   11.6848  -18.8885   27.0230 C   0  0  0  0  0  0  0  0  0  0  0  0
   12.4469  -19.2950   28.1932 C   0  0  0  0  0  0  0  0  0  0  0  0
   11.9064  -20.3030   29.1296 C   0  0  0  0  0  0  0  0  0  0  0  0
   12.7985  -20.6486   30.2827 C   0  0  0  0  0  0  0  0  0  0  0  0
   12.1967  -21.7534   31.0122 N   0  0  0  0  0  0  0  0  0  0  0  0
   13.4245  -18.4093   25.2889 C   0  0  0  0  0  0  0  0  0  0  0  0
   13.4528  -19.2376   24.3685 O   0  0  0  0  0  0  0  0  0  0  0  0
   14.7061  -17.9004   25.6398 O   0  0  0  0  0  0  0  0  0  0  0  0
  1  2  1  0
  2  3  1  0
  3  4  1  6
  5  3  1  0
  5  6  1  1
  7  5  1  0
  7  8  2  0
  9  7  1  0
 10  9  1  0
 10 11  1  6
 12 11  1  0
 12 13  1  0
 13 14  2  0
 15 10  1  0
 16 15  2  0
 17 13  1  0
 18 15  1  0
 19 25  1  0
 19 18  1  0
 19 20  1  1
 21 20  1  0
 21 22  1  0
 23 22  1  0
 23 24  1  0
 25 27  1  0
 26 25  2  0
M  END
$$$$
