NEI.pdb
     RDKit          3D

 26 25  0  0  1  0  0  0  0  0999 V2000
   27.9076  -22.3475  -16.5511 N   0  0  0  0  0  0  0  0  0  0  0  0
   28.8196  -22.0647  -15.4783 C   0  0  0  0  0  0  0  0  0  0  0  0
   29.9581  -22.5951  -15.5101 O   0  0  0  0  0  0  0  0  0  0  0  0
   28.3765  -21.1668  -14.3906 C   0  0  0  0  0  0  0  0  0  0  0  0
   26.9280  -20.7684  -14.6247 C   0  0  2  0  0  0  0  0  0  0  0  0
   26.8522  -19.7274  -15.6150 N   0  0  0  0  0  0  0  0  0  0  0  0
   26.4329  -20.2691  -13.2958 C   0  0  0  0  0  0  0  0  0  0  0  0
   26.8661  -19.1350  -12.8945 O   0  0  0  0  0  0  0  0  0  0  0  0
   25.5348  -21.0381  -12.5510 N   0  0  0  0  0  0  0  0  0  0  0  0
   24.9055  -20.4825  -11.3488 C   0  0  1  0  0  0  0  0  0  0  0  0
   23.4377  -20.6974  -11.5564 C   0  0  0  0  0  0  0  0  0  0  0  0
   22.7704  -19.8685  -12.5895 C   0  0  0  0  0  0  0  0  0  0  0  0
   21.3041  -20.2067  -12.5340 C   0  0  0  0  0  0  0  0  0  0  0  0
   20.5521  -19.6193  -13.3406 O   0  0  0  0  0  0  0  0  0  0  0  0
   25.4780  -21.0704  -10.1396 C   0  0  0  0  0  0  0  0  0  0  0  0
   25.9500  -22.2356  -10.2158 O   0  0  0  0  0  0  0  0  0  0  0  0
   20.7644  -21.1211  -11.6492 O   0  0  0  0  0  0  0  0  0  0  0  0
   28.9060  -18.6720   -6.6910 C   0  0  0  0  0  0  0  0  0  0  0  0
   28.1463  -19.7231   -7.4620 C   0  0  0  0  0  0  0  0  0  0  0  0
   26.7921  -20.0139   -6.8536 C   0  0  2  0  0  0  0  0  0  0  0  0
   26.9966  -20.4866   -5.4559 C   0  0  0  0  0  0  0  0  0  0  0  0
   25.9839  -20.9918   -7.6903 C   0  0  2  0  0  0  0  0  0  0  0  0
   25.5125  -20.3597   -8.9137 N   0  0  0  0  0  0  0  0  0  0  0  0
   24.8310  -21.4251   -6.8843 C   0  0  0  0  0  0  0  0  0  0  0  0
   23.6601  -20.9666   -7.0567 O   0  0  0  0  0  0  0  0  0  0  0  0
   24.9407  -22.3688   -5.8754 O   0  0  0  0  0  0  0  0  0  0  0  0
  2  1  1  0
  2  4  1  0
  3  2  2  0
  5  6  1  6
  5  4  1  0
  7  5  1  0
  8  7  2  0
  9  7  1  0
 10  9  1  0
 11 12  1  0
 10 11  1  6
 13 12  1  0
 13 17  1  0
 14 13  2  0
 15 23  1  0
 15 10  1  0
 16 15  2  0
 19 18  1  0
 20 22  1  0
 20 19  1  0
 20 21  1  1
 22 23  1  6
 24 22  1  0
 25 24  2  0
 26 24  1  0
M  END
$$$$
