NEI.pdb
     RDKit          3D

 26 25  0  0  1  0  0  0  0  0999 V2000
   15.1735  -12.9941  -15.3341 N   0  0  0  0  0  0  0  0  0  0  0  0
   16.4487  -12.7887  -14.7062 C   0  0  0  0  0  0  0  0  0  0  0  0
   16.8264  -13.6181  -13.8413 O   0  0  0  0  0  0  0  0  0  0  0  0
   17.2532  -11.6143  -15.1053 C   0  0  0  0  0  0  0  0  0  0  0  0
   16.4775  -10.7947  -16.1241 C   0  0  2  0  0  0  0  0  0  0  0  0
   16.4744  -11.4604  -17.3996 N   0  0  0  0  0  0  0  0  0  0  0  0
   17.2049   -9.4822  -16.2160 C   0  0  0  0  0  0  0  0  0  0  0  0
   18.2814   -9.4527  -16.9055 O   0  0  0  0  0  0  0  0  0  0  0  0
   16.6995   -8.3559  -15.5614 N   0  0  0  0  0  0  0  0  0  0  0  0
   17.3750   -7.0608  -15.6895 C   0  0  1  0  0  0  0  0  0  0  0  0
   16.2845   -6.0473  -15.5243 C   0  0  0  0  0  0  0  0  0  0  0  0
   15.2973   -5.9280  -16.6247 C   0  0  0  0  0  0  0  0  0  0  0  0
   13.9740   -5.6013  -15.9845 C   0  0  0  0  0  0  0  0  0  0  0  0
   14.0015   -5.1120  -14.8351 O   0  0  0  0  0  0  0  0  0  0  0  0
   18.4946   -6.9604  -14.7557 C   0  0  0  0  0  0  0  0  0  0  0  0
   18.3153   -7.3565  -13.5737 O   0  0  0  0  0  0  0  0  0  0  0  0
   12.7549   -5.8130  -16.6004 O   0  0  0  0  0  0  0  0  0  0  0  0
   22.8234   -9.4822  -14.9567 C   0  0  0  0  0  0  0  0  0  0  0  0
   21.6504   -8.6078  -14.5879 C   0  0  0  0  0  0  0  0  0  0  0  0
   22.0183   -7.1409  -14.5493 C   0  0  2  0  0  0  0  0  0  0  0  0
   23.1602   -6.9674  -13.6086 C   0  0  0  0  0  0  0  0  0  0  0  0
   20.8312   -6.2595  -14.1982 C   0  0  2  0  0  0  0  0  0  0  0  0
   19.7508   -6.4405  -15.1567 N   0  0  0  0  0  0  0  0  0  0  0  0
   21.2872   -4.8603  -14.2288 C   0  0  0  0  0  0  0  0  0  0  0  0
   22.0988   -4.3827  -13.3779 O   0  0  0  0  0  0  0  0  0  0  0  0
   20.8621   -3.9598  -15.1927 O   0  0  0  0  0  0  0  0  0  0  0  0
  2  1  1  0
  2  4  1  0
  3  2  2  0
  5  6  1  6
  5  4  1  0
  7  5  1  0
  8  7  2  0
  9  7  1  0
 10  9  1  0
 11 12  1  0
 10 11  1  1
 13 12  1  0
 13 17  1  0
 14 13  2  0
 15 23  1  0
 15 10  1  0
 16 15  2  0
 19 18  1  0
 20 22  1  0
 20 19  1  0
 20 21  1  1
 22 23  1  6
 24 22  1  0
 25 24  2  0
 26 24  1  0
M  END
$$$$
