NEI.pdb
     RDKit          3D

 26 25  0  0  1  0  0  0  0  0999 V2000
   14.8295  -13.0906  -14.5530 N   0  0  0  0  0  0  0  0  0  0  0  0
   16.0583  -13.5566  -15.1322 C   0  0  0  0  0  0  0  0  0  0  0  0
   16.2249  -14.7956  -15.2568 O   0  0  0  0  0  0  0  0  0  0  0  0
   17.0660  -12.5595  -15.5519 C   0  0  0  0  0  0  0  0  0  0  0  0
   16.4640  -11.6498  -16.6109 C   0  0  2  0  0  0  0  0  0  0  0  0
   16.4441  -12.3160  -17.8860 N   0  0  0  0  0  0  0  0  0  0  0  0
   17.3631  -10.4457  -16.6590 C   0  0  0  0  0  0  0  0  0  0  0  0
   18.5390  -10.6077  -17.1346 O   0  0  0  0  0  0  0  0  0  0  0  0
   16.9029   -9.2111  -16.1939 N   0  0  0  0  0  0  0  0  0  0  0  0
   17.7658   -8.0274  -16.2605 C   0  0  1  0  0  0  0  0  0  0  0  0
   16.8299   -6.8679  -16.1080 C   0  0  0  0  0  0  0  0  0  0  0  0
   17.4298   -5.5119  -16.0745 C   0  0  0  0  0  0  0  0  0  0  0  0
   16.3209   -4.5576  -15.7178 C   0  0  0  0  0  0  0  0  0  0  0  0
   16.6439   -3.3786  -15.4592 O   0  0  0  0  0  0  0  0  0  0  0  0
   18.8487   -8.1141  -15.2831 C   0  0  0  0  0  0  0  0  0  0  0  0
   18.5830   -8.5901  -14.1477 O   0  0  0  0  0  0  0  0  0  0  0  0
   14.9883   -4.9204  -15.6667 O   0  0  0  0  0  0  0  0  0  0  0  0
   23.2430  -10.0471  -13.2476 C   0  0  0  0  0  0  0  0  0  0  0  0
   23.4866   -8.9662  -14.2717 C   0  0  0  0  0  0  0  0  0  0  0  0
   22.3148   -8.7931  -15.2127 C   0  0  2  0  0  0  0  0  0  0  0  0
   22.8350   -8.3366  -16.5318 C   0  0  0  0  0  0  0  0  0  0  0  0
   21.2556   -7.8619  -14.6467 C   0  0  2  0  0  0  0  0  0  0  0  0
   20.1636   -7.6845  -15.5926 N   0  0  0  0  0  0  0  0  0  0  0  0
   21.8952   -6.5625  -14.3839 C   0  0  0  0  0  0  0  0  0  0  0  0
   22.6388   -6.3532  -13.3768 O   0  0  0  0  0  0  0  0  0  0  0  0
   21.7317   -5.4697  -15.2202 O   0  0  0  0  0  0  0  0  0  0  0  0
  2  1  1  0
  2  4  1  0
  3  2  2  0
  5  6  1  6
  5  4  1  0
  7  5  1  0
  8  7  2  0
  9  7  1  0
 10  9  1  0
 11 12  1  0
 10 11  1  1
 13 12  1  0
 13 17  1  0
 14 13  2  0
 15 23  1  0
 15 10  1  0
 16 15  2  0
 19 18  1  0
 20 22  1  0
 20 19  1  0
 20 21  1  6
 22 23  1  6
 24 22  1  0
 25 24  2  0
 26 24  1  0
M  END
$$$$
