NEI.pdb
     RDKit          3D

 26 25  0  0  1  0  0  0  0  0999 V2000
   19.4336  -24.1548   -8.5107 N   0  0  0  0  0  0  0  0  0  0  0  0
   18.2976  -23.5782   -7.8478 C   0  0  0  0  0  0  0  0  0  0  0  0
   17.9996  -22.3855   -8.1072 O   0  0  0  0  0  0  0  0  0  0  0  0
   17.5358  -24.4124   -6.8941 C   0  0  0  0  0  0  0  0  0  0  0  0
   18.1280  -25.8123   -6.8645 C   0  0  2  0  0  0  0  0  0  0  0  0
   17.7282  -26.5465   -8.0355 N   0  0  0  0  0  0  0  0  0  0  0  0
   17.5708  -26.4540   -5.6242 C   0  0  0  0  0  0  0  0  0  0  0  0
   16.3002  -26.5705   -5.5417 O   0  0  0  0  0  0  0  0  0  0  0  0
   18.4339  -26.8951   -4.6177 N   0  0  0  0  0  0  0  0  0  0  0  0
   17.9093  -27.6339   -3.4649 C   0  0  1  0  0  0  0  0  0  0  0  0
   18.6510  -28.9352   -3.4802 C   0  0  0  0  0  0  0  0  0  0  0  0
   18.3537  -29.8981   -2.3921 C   0  0  0  0  0  0  0  0  0  0  0  0
   19.2701  -31.0757   -2.5948 C   0  0  0  0  0  0  0  0  0  0  0  0
   20.4428  -30.9646   -2.1781 O   0  0  0  0  0  0  0  0  0  0  0  0
   18.0217  -26.8427   -2.2415 C   0  0  0  0  0  0  0  0  0  0  0  0
   19.0508  -26.1326   -2.0898 O   0  0  0  0  0  0  0  0  0  0  0  0
   18.8787  -32.2511   -3.2077 O   0  0  0  0  0  0  0  0  0  0  0  0
   13.6156  -24.6619    0.3124 C   0  0  0  0  0  0  0  0  0  0  0  0
   14.9872  -24.9178   -0.2618 C   0  0  0  0  0  0  0  0  0  0  0  0
   15.8196  -25.8205    0.6220 C   0  0  2  0  0  0  0  0  0  0  0  0
   15.9381  -25.1848    1.9639 C   0  0  0  0  0  0  0  0  0  0  0  0
   17.1705  -26.1424    0.0050 C   0  0  2  0  0  0  0  0  0  0  0  0
   17.0082  -26.8603   -1.2508 N   0  0  0  0  0  0  0  0  0  0  0  0
   17.9108  -26.9827    0.9603 C   0  0  0  0  0  0  0  0  0  0  0  0
   17.7259  -28.2342    1.0623 O   0  0  0  0  0  0  0  0  0  0  0  0
   18.8669  -26.4664    1.8203 O   0  0  0  0  0  0  0  0  0  0  0  0
  2  1  1  0
  2  4  1  0
  3  2  2  0
  5  6  1  6
  5  4  1  0
  7  5  1  0
  8  7  2  0
  9  7  1  0
 10  9  1  0
 11 12  1  0
 10 11  1  1
 13 12  1  0
 13 17  1  0
 14 13  2  0
 15 23  1  0
 15 10  1  0
 16 15  2  0
 19 18  1  0
 20 22  1  0
 20 19  1  0
 20 21  1  1
 22 23  1  6
 24 22  1  0
 25 24  2  0
 26 24  1  0
M  END
$$$$
