NEI.pdb
     RDKit          3D

 26 25  0  0  1  0  0  0  0  0999 V2000
   14.4358  -12.4442  -16.0767 N   0  0  0  0  0  0  0  0  0  0  0  0
   15.3100  -12.2552  -14.9530 C   0  0  0  0  0  0  0  0  0  0  0  0
   15.1085  -12.9422  -13.9205 O   0  0  0  0  0  0  0  0  0  0  0  0
   16.4011  -11.2638  -15.0638 C   0  0  0  0  0  0  0  0  0  0  0  0
   16.2394  -10.4789  -16.3559 C   0  0  2  0  0  0  0  0  0  0  0  0
   16.4942  -11.3282  -17.4890 N   0  0  0  0  0  0  0  0  0  0  0  0
   17.2599   -9.3772  -16.2826 C   0  0  0  0  0  0  0  0  0  0  0  0
   18.4684   -9.6736  -16.5768 O   0  0  0  0  0  0  0  0  0  0  0  0
   16.8718   -8.0895  -15.9036 N   0  0  0  0  0  0  0  0  0  0  0  0
   17.8343   -6.9841  -15.9469 C   0  0  1  0  0  0  0  0  0  0  0  0
   16.9937   -5.7573  -16.1251 C   0  0  0  0  0  0  0  0  0  0  0  0
   16.3327   -5.5731  -17.4400 C   0  0  0  0  0  0  0  0  0  0  0  0
   15.4707   -4.3441  -17.3220 C   0  0  0  0  0  0  0  0  0  0  0  0
   14.2846   -4.5109  -16.9664 O   0  0  0  0  0  0  0  0  0  0  0  0
   18.7057   -7.0032  -14.7740 C   0  0  0  0  0  0  0  0  0  0  0  0
   18.1886   -7.2756  -13.6583 O   0  0  0  0  0  0  0  0  0  0  0  0
   15.9250   -3.0650  -17.5829 O   0  0  0  0  0  0  0  0  0  0  0  0
   23.5703   -9.3984  -12.5555 C   0  0  0  0  0  0  0  0  0  0  0  0
   22.7632   -8.1236  -12.5607 C   0  0  0  0  0  0  0  0  0  0  0  0
   21.8069   -8.0551  -13.7310 C   0  0  2  0  0  0  0  0  0  0  0  0
   22.5926   -8.1966  -14.9886 C   0  0  0  0  0  0  0  0  0  0  0  0
   20.9600   -6.7935  -13.7084 C   0  0  2  0  0  0  0  0  0  0  0  0
   20.0930   -6.7311  -14.8759 N   0  0  0  0  0  0  0  0  0  0  0  0
   21.8742   -5.6398  -13.7118 C   0  0  0  0  0  0  0  0  0  0  0  0
   22.1537   -4.9870  -14.7638 O   0  0  0  0  0  0  0  0  0  0  0  0
   22.4979   -5.1810  -12.5626 O   0  0  0  0  0  0  0  0  0  0  0  0
  2  1  1  0
  2  4  1  0
  3  2  2  0
  5  6  1  6
  5  4  1  0
  7  5  1  0
  8  7  2  0
  9  7  1  0
 10  9  1  0
 11 12  1  0
 10 11  1  1
 13 12  1  0
 13 17  1  0
 14 13  2  0
 15 23  1  0
 15 10  1  0
 16 15  2  0
 19 18  1  0
 20 22  1  0
 20 19  1  0
 20 21  1  6
 22 23  1  6
 24 22  1  0
 25 24  2  0
 26 24  1  0
M  END
$$$$
