NEI.pdb
     RDKit          3D

 26 25  0  0  1  0  0  0  0  0999 V2000
   16.0782  -13.7777  -19.5456 N   0  0  0  0  0  0  0  0  0  0  0  0
   16.8063  -13.1027  -18.5079 C   0  0  0  0  0  0  0  0  0  0  0  0
   17.3921  -13.7998  -17.6422 O   0  0  0  0  0  0  0  0  0  0  0  0
   16.8309  -11.6244  -18.5070 C   0  0  0  0  0  0  0  0  0  0  0  0
   16.7242  -11.1196  -17.0769 C   0  0  2  0  0  0  0  0  0  0  0  0
   15.3510  -10.8435  -16.7480 N   0  0  0  0  0  0  0  0  0  0  0  0
   17.5397   -9.8570  -17.0387 C   0  0  0  0  0  0  0  0  0  0  0  0
   18.6986   -9.8882  -17.5782 O   0  0  0  0  0  0  0  0  0  0  0  0
   17.0238   -8.7103  -16.4294 N   0  0  0  0  0  0  0  0  0  0  0  0
   17.8291   -7.4872  -16.3536 C   0  0  1  0  0  0  0  0  0  0  0  0
   16.8267   -6.3819  -16.2223 C   0  0  0  0  0  0  0  0  0  0  0  0
   17.3399   -5.0419  -15.8474 C   0  0  0  0  0  0  0  0  0  0  0  0
   17.4248   -4.2402  -17.1193 C   0  0  0  0  0  0  0  0  0  0  0  0
   16.3676   -3.7242  -17.5403 O   0  0  0  0  0  0  0  0  0  0  0  0
   18.8260   -7.5825  -15.2894 C   0  0  0  0  0  0  0  0  0  0  0  0
   18.4516   -8.0112  -14.1659 O   0  0  0  0  0  0  0  0  0  0  0  0
   18.5974   -4.0523  -17.8265 O   0  0  0  0  0  0  0  0  0  0  0  0
   24.0058   -9.8453  -13.8233 C   0  0  0  0  0  0  0  0  0  0  0  0
   23.2296   -8.5588  -13.6859 C   0  0  0  0  0  0  0  0  0  0  0  0
   22.2015   -8.3894  -14.7828 C   0  0  2  0  0  0  0  0  0  0  0  0
   22.9173   -8.1047  -16.0578 C   0  0  0  0  0  0  0  0  0  0  0  0
   21.1670   -7.3295  -14.4426 C   0  0  2  0  0  0  0  0  0  0  0  0
   20.1775   -7.2127  -15.5036 N   0  0  0  0  0  0  0  0  0  0  0  0
   21.8736   -6.0478  -14.2850 C   0  0  0  0  0  0  0  0  0  0  0  0
   21.9390   -5.1804  -15.2093 O   0  0  0  0  0  0  0  0  0  0  0  0
   22.5206   -5.6940  -13.1117 O   0  0  0  0  0  0  0  0  0  0  0  0
  2  1  1  0
  2  4  1  0
  3  2  2  0
  5  6  1  6
  5  4  1  0
  7  5  1  0
  8  7  2  0
  9  7  1  0
 10  9  1  0
 11 12  1  0
 10 11  1  1
 13 12  1  0
 13 17  1  0
 14 13  2  0
 15 23  1  0
 15 10  1  0
 16 15  2  0
 19 18  1  0
 20 22  1  0
 20 19  1  0
 20 21  1  6
 22 23  1  6
 24 22  1  0
 25 24  2  0
 26 24  1  0
M  END
$$$$
