RGQ.pdb
     RDKit          3D

 25 24  0  0  1  0  0  0  0  0999 V2000
   30.2663  -21.8483   -9.6823 N   0  0  0  0  0  0  0  0  0  0  0  0
   29.8184  -21.8534  -11.0539 C   0  0  0  0  0  0  0  0  0  0  0  0
   30.6263  -22.2128  -11.9872 N   0  0  0  0  0  0  0  0  0  0  0  0
   28.5029  -21.4689  -11.3936 N   0  0  0  0  0  0  0  0  0  0  0  0
   28.0490  -21.4888  -12.7603 C   0  0  0  0  0  0  0  0  0  0  0  0
   27.9172  -20.0729  -13.2087 C   0  0  0  0  0  0  0  0  0  0  0  0
   26.5415  -19.5418  -13.3106 C   0  0  0  0  0  0  0  0  0  0  0  0
   25.6216  -20.1927  -14.2774 C   0  0  2  0  0  0  0  0  0  0  0  0
   25.7325  -19.6789  -15.6106 N   0  0  0  0  0  0  0  0  0  0  0  0
   24.2220  -19.8954  -13.7989 C   0  0  0  0  0  0  0  0  0  0  0  0
   23.8760  -18.6996  -13.6090 O   0  0  0  0  0  0  0  0  0  0  0  0
   30.3679  -22.2055  -12.9816 N   0  0  0  0  0  0  0  0  0  0  0  0
   23.2882  -20.9220  -13.5577 C   0  0  0  0  0  0  0  0  0  0  0  0
   21.9605  -20.6479  -12.9913 C   0  0  0  0  0  0  0  0  0  0  0  0
   21.2212  -21.9269  -12.8225 O   0  0  0  0  0  0  0  0  0  0  0  0
   21.3894  -22.8538  -13.6490 N   0  0  0  0  0  0  0  0  0  0  0  0
   18.9975  -23.4810   -7.4079 C   0  0  0  0  0  0  0  0  0  0  0  0
   18.5456  -24.6326   -8.1260 O   0  0  0  0  0  0  0  0  0  0  0  0
   17.9786  -25.6118   -7.5380 C   0  0  0  0  0  0  0  0  0  0  0  0
   18.7384  -24.6768   -9.5873 C   0  0  0  0  0  0  0  0  0  0  0  0
   19.3784  -23.4643  -10.1057 C   0  0  2  0  0  0  0  0  0  0  0  0
   19.6754  -23.4272  -11.5790 N   0  0  0  0  0  0  0  0  0  0  0  0
   20.3384  -22.0887  -11.7375 C   0  0  0  0  0  0  0  0  0  0  0  0
   18.4782  -23.4532  -12.4240 O   0  0  0  0  0  0  0  0  0  0  0  0
   17.9975  -24.5908  -13.0794 O   0  0  0  0  0  0  0  0  0  0  0  0
  1  2  1  0
  2  3  2  0
  4  5  1  0
  4  2  1  0
  6  7  1  0
  6  5  1  0
  7  8  1  0
  8 10  1  0
  8  9  1  6
 10 12  1  0
 11 10  2  0
 12 13  1  0
 14 15  2  0
 14 13  1  0
 16 17  1  0
 17 19  1  0
 17 18  2  0
 19 20  1  0
 21 20  1  1
 21 23  1  0
 21 22  1  0
 22 14  1  0
 23 24  1  0
 25 23  2  0
M  END
$$$$
