RGQ.pdb
     RDKit          3D

 25 24  0  0  1  0  0  0  0  0999 V2000
   27.8069  -29.8714  -16.5416 N   0  0  0  0  0  0  0  0  0  0  0  0
   28.9783  -30.0114  -17.3725 C   0  0  0  0  0  0  0  0  0  0  0  0
   29.3598  -31.1814  -17.7448 N   0  0  0  0  0  0  0  0  0  0  0  0
   29.7183  -28.8826  -17.7870 N   0  0  0  0  0  0  0  0  0  0  0  0
   29.4153  -27.5666  -17.2861 C   0  0  0  0  0  0  0  0  0  0  0  0
   28.5111  -26.9094  -18.2729 C   0  0  0  0  0  0  0  0  0  0  0  0
   27.9622  -25.5928  -17.8852 C   0  0  0  0  0  0  0  0  0  0  0  0
   28.9168  -24.4655  -17.7356 C   0  0  2  0  0  0  0  0  0  0  0  0
   30.2538  -24.8819  -17.4311 N   0  0  0  0  0  0  0  0  0  0  0  0
   28.4270  -23.6458  -16.5674 C   0  0  0  0  0  0  0  0  0  0  0  0
   29.2327  -23.3349  -15.6511 O   0  0  0  0  0  0  0  0  0  0  0  0
   30.2096  -31.3401  -18.2999 N   0  0  0  0  0  0  0  0  0  0  0  0
   27.0885  -23.2173  -16.4729 C   0  0  0  0  0  0  0  0  0  0  0  0
   26.6323  -22.3235  -15.3998 C   0  0  0  0  0  0  0  0  0  0  0  0
   25.2024  -21.9788  -15.6177 O   0  0  0  0  0  0  0  0  0  0  0  0
   24.6565  -22.2599  -16.7103 N   0  0  0  0  0  0  0  0  0  0  0  0
   21.7425  -19.7965  -11.0382 C   0  0  0  0  0  0  0  0  0  0  0  0
   20.7397  -19.8046  -12.0581 O   0  0  0  0  0  0  0  0  0  0  0  0
   19.5313  -19.4774  -11.8155 C   0  0  0  0  0  0  0  0  0  0  0  0
   21.1244  -20.1965  -13.4266 C   0  0  0  0  0  0  0  0  0  0  0  0
   22.5360  -20.5791  -13.5247 C   0  0  2  0  0  0  0  0  0  0  0  0
   23.0285  -21.0270  -14.8727 N   0  0  0  0  0  0  0  0  0  0  0  0
   24.4717  -21.3401  -14.5975 C   0  0  0  0  0  0  0  0  0  0  0  0
   22.9696  -19.9834  -15.9000 O   0  0  0  0  0  0  0  0  0  0  0  0
   23.9161  -18.9650  -16.0479 O   0  0  0  0  0  0  0  0  0  0  0  0
  1  2  1  0
  2  3  2  0
  4  5  1  0
  4  2  1  0
  6  7  1  0
  6  5  1  0
  7  8  1  0
  8 10  1  0
  8  9  1  1
 10 12  1  0
 11 10  2  0
 12 13  1  0
 14 15  2  0
 14 13  1  0
 16 17  1  0
 17 19  1  0
 17 18  2  0
 19 20  1  0
 21 20  1  1
 21 23  1  0
 21 22  1  0
 22 14  1  0
 23 24  1  0
 25 23  2  0
M  END
$$$$
