RGQ.pdb
     RDKit          3D

 25 24  0  0  1  0  0  0  0  0999 V2000
   21.3603  -22.3148   -9.1401 N   0  0  0  0  0  0  0  0  0  0  0  0
   21.9799  -21.1129   -8.6364 C   0  0  0  0  0  0  0  0  0  0  0  0
   21.4311  -20.4707   -7.6671 N   0  0  0  0  0  0  0  0  0  0  0  0
   23.1836  -20.6250   -9.1901 N   0  0  0  0  0  0  0  0  0  0  0  0
   23.8524  -21.3253  -10.2563 C   0  0  0  0  0  0  0  0  0  0  0  0
   25.3162  -21.2726   -9.9774 C   0  0  0  0  0  0  0  0  0  0  0  0
   26.1996  -21.0615  -11.1435 C   0  0  0  0  0  0  0  0  0  0  0  0
   25.6793  -21.4448  -12.4802 C   0  0  2  0  0  0  0  0  0  0  0  0
   25.8681  -22.8302  -12.7942 N   0  0  0  0  0  0  0  0  0  0  0  0
   26.4683  -20.6465  -13.4886 C   0  0  0  0  0  0  0  0  0  0  0  0
   27.6327  -21.0164  -13.7932 O   0  0  0  0  0  0  0  0  0  0  0  0
   21.8418  -19.6230   -7.2570 N   0  0  0  0  0  0  0  0  0  0  0  0
   25.9366  -19.4947  -14.1006 C   0  0  0  0  0  0  0  0  0  0  0  0
   26.6637  -18.7652  -15.1484 C   0  0  0  0  0  0  0  0  0  0  0  0
   25.7916  -17.6959  -15.7026 O   0  0  0  0  0  0  0  0  0  0  0  0
   24.6349  -17.5405  -15.2458 N   0  0  0  0  0  0  0  0  0  0  0  0
   27.3164  -13.2824  -19.9440 C   0  0  0  0  0  0  0  0  0  0  0  0
   27.9754  -13.5411  -18.7012 O   0  0  0  0  0  0  0  0  0  0  0  0
   29.0658  -12.9606  -18.3847 C   0  0  0  0  0  0  0  0  0  0  0  0
   27.3661  -14.5017  -17.7628 C   0  0  0  0  0  0  0  0  0  0  0  0
   26.1686  -15.1422  -18.3146 C   0  0  2  0  0  0  0  0  0  0  0  0
   25.2976  -15.9016  -17.3528 N   0  0  0  0  0  0  0  0  0  0  0  0
   26.2694  -16.8662  -16.7351 C   0  0  0  0  0  0  0  0  0  0  0  0
   24.2319  -16.6707  -18.0015 O   0  0  0  0  0  0  0  0  0  0  0  0
   22.8654  -16.4382  -17.8186 O   0  0  0  0  0  0  0  0  0  0  0  0
  1  2  1  0
  2  3  2  0
  4  5  1  0
  4  2  1  0
  6  7  1  0
  6  5  1  0
  7  8  1  0
  8 10  1  0
  8  9  1  6
 10 12  1  0
 11 10  2  0
 12 13  1  0
 14 15  2  0
 14 13  1  0
 16 17  1  0
 17 19  1  0
 17 18  2  0
 19 20  1  0
 21 20  1  1
 21 23  1  0
 21 22  1  0
 22 14  1  0
 23 24  1  0
 25 23  2  0
M  END
$$$$
