RGQ.pdb
     RDKit          3D

 25 24  0  0  1  0  0  0  0  0999 V2000
   31.9176  -21.0977  -10.4430 N   0  0  0  0  0  0  0  0  0  0  0  0
   31.6910  -21.8991  -11.6214 C   0  0  0  0  0  0  0  0  0  0  0  0
   32.6279  -22.6598  -12.0650 N   0  0  0  0  0  0  0  0  0  0  0  0
   30.4540  -21.8641  -12.3011 N   0  0  0  0  0  0  0  0  0  0  0  0
   29.4488  -20.8866  -11.9716 C   0  0  0  0  0  0  0  0  0  0  0  0
   28.2400  -21.6264  -11.5082 C   0  0  0  0  0  0  0  0  0  0  0  0
   27.0282  -20.8162  -11.2632 C   0  0  0  0  0  0  0  0  0  0  0  0
   25.8380  -21.5077  -10.7068 C   0  0  2  0  0  0  0  0  0  0  0  0
   25.7245  -22.8758  -11.1180 N   0  0  0  0  0  0  0  0  0  0  0  0
   24.6320  -20.7778  -11.2446 C   0  0  0  0  0  0  0  0  0  0  0  0
   24.5513  -19.5296  -11.0999 O   0  0  0  0  0  0  0  0  0  0  0  0
   32.5459  -23.1929  -12.9394 N   0  0  0  0  0  0  0  0  0  0  0  0
   23.5901  -21.4564  -11.9064 C   0  0  0  0  0  0  0  0  0  0  0  0
   22.4687  -20.7405  -12.5296 C   0  0  0  0  0  0  0  0  0  0  0  0
   22.4624  -21.0085  -13.9922 O   0  0  0  0  0  0  0  0  0  0  0  0
   22.8061  -22.1364  -14.4171 N   0  0  0  0  0  0  0  0  0  0  0  0
   20.8134  -16.6621  -18.0301 C   0  0  0  0  0  0  0  0  0  0  0  0
   20.7622  -17.7911  -18.9068 O   0  0  0  0  0  0  0  0  0  0  0  0
   20.4228  -17.6772  -20.1307 C   0  0  0  0  0  0  0  0  0  0  0  0
   21.1205  -19.1185  -18.3738 C   0  0  0  0  0  0  0  0  0  0  0  0
   21.5320  -19.0662  -16.9679 C   0  0  2  0  0  0  0  0  0  0  0  0
   21.9998  -20.3528  -16.3465 N   0  0  0  0  0  0  0  0  0  0  0  0
   22.0711  -19.9960  -14.8890 C   0  0  0  0  0  0  0  0  0  0  0  0
   23.3340  -20.7705  -16.7860 O   0  0  0  0  0  0  0  0  0  0  0  0
   23.5771  -21.6856  -17.8148 O   0  0  0  0  0  0  0  0  0  0  0  0
  1  2  1  0
  2  3  2  0
  4  5  1  0
  4  2  1  0
  6  7  1  0
  6  5  1  0
  7  8  1  0
  8 10  1  0
  8  9  1  6
 10 12  1  0
 11 10  2  0
 12 13  1  0
 14 15  2  0
 14 13  1  0
 16 17  1  0
 17 19  1  0
 17 18  2  0
 19 20  1  0
 21 20  1  1
 21 23  1  0
 21 22  1  0
 22 14  1  0
 23 24  1  0
 25 23  2  0
M  END
$$$$
