RGQ.pdb
     RDKit          3D

 25 24  0  0  1  0  0  0  0  0999 V2000
   26.0188  -23.1367  -16.1367 N   0  0  0  0  0  0  0  0  0  0  0  0
   27.4590  -23.1724  -16.0561 C   0  0  0  0  0  0  0  0  0  0  0  0
   28.0743  -24.2987  -16.1345 N   0  0  0  0  0  0  0  0  0  0  0  0
   28.2105  -21.9885  -15.8916 N   0  0  0  0  0  0  0  0  0  0  0  0
   27.5740  -20.6965  -15.8778 C   0  0  0  0  0  0  0  0  0  0  0  0
   28.4120  -19.7761  -16.6988 C   0  0  0  0  0  0  0  0  0  0  0  0
   27.9434  -18.3780  -16.8021 C   0  0  0  0  0  0  0  0  0  0  0  0
   26.7919  -18.1017  -17.6976 C   0  0  2  0  0  0  0  0  0  0  0  0
   27.1115  -17.2348  -18.7930 N   0  0  0  0  0  0  0  0  0  0  0  0
   25.7582  -17.3954  -16.8556 C   0  0  0  0  0  0  0  0  0  0  0  0
   25.8956  -16.1677  -16.6116 O   0  0  0  0  0  0  0  0  0  0  0  0
   29.0890  -24.3899  -16.0017 N   0  0  0  0  0  0  0  0  0  0  0  0
   24.6398  -18.0736  -16.3329 C   0  0  0  0  0  0  0  0  0  0  0  0
   23.5899  -17.3754  -15.5787 C   0  0  0  0  0  0  0  0  0  0  0  0
   22.2562  -17.8588  -16.0244 O   0  0  0  0  0  0  0  0  0  0  0  0
   22.1802  -18.7138  -16.9377 N   0  0  0  0  0  0  0  0  0  0  0  0
   18.6155  -20.6355  -13.8269 C   0  0  0  0  0  0  0  0  0  0  0  0
   17.4858  -19.9350  -14.3552 O   0  0  0  0  0  0  0  0  0  0  0  0
   16.3676  -20.5149  -14.5533 C   0  0  0  0  0  0  0  0  0  0  0  0
   17.6252  -18.5010  -14.6696 C   0  0  0  0  0  0  0  0  0  0  0  0
   19.0139  -18.0401  -14.5827 C   0  0  1  0  0  0  0  0  0  0  0  0
   19.7742  -17.9201  -15.8742 N   0  0  0  0  0  0  0  0  0  0  0  0
   21.0892  -17.3542  -15.4192 C   0  0  0  0  0  0  0  0  0  0  0  0
   19.1736  -16.9841  -16.8287 O   0  0  0  0  0  0  0  0  0  0  0  0
   18.2034  -17.3321  -17.7735 O   0  0  0  0  0  0  0  0  0  0  0  0
  1  2  1  0
  2  3  2  0
  4  5  1  0
  4  2  1  0
  6  7  1  0
  6  5  1  0
  7  8  1  0
  8 10  1  0
  8  9  1  6
 10 12  1  0
 11 10  2  0
 12 13  1  0
 14 15  2  0
 14 13  1  0
 16 17  1  0
 17 19  1  0
 17 18  2  0
 19 20  1  0
 21 20  1  1
 21 23  1  0
 21 22  1  0
 22 14  1  0
 23 24  1  0
 25 23  2  0
M  END
$$$$
