RGQ.pdb
     RDKit          3D

 25 24  0  0  1  0  0  0  0  0999 V2000
   30.0606  -24.4036  -17.0040 N   0  0  0  0  0  0  0  0  0  0  0  0
   28.7420  -24.9252  -16.7371 C   0  0  0  0  0  0  0  0  0  0  0  0
   28.6123  -26.0873  -16.2024 N   0  0  0  0  0  0  0  0  0  0  0  0
   27.5847  -24.1808  -17.0533 N   0  0  0  0  0  0  0  0  0  0  0  0
   27.6787  -22.8549  -17.6081 C   0  0  0  0  0  0  0  0  0  0  0  0
   28.2719  -21.9732  -16.5622 C   0  0  0  0  0  0  0  0  0  0  0  0
   27.4074  -20.8894  -16.0495 C   0  0  0  0  0  0  0  0  0  0  0  0
   25.9985  -20.8528  -16.5166 C   0  0  2  0  0  0  0  0  0  0  0  0
   25.7340  -19.8088  -17.4619 N   0  0  0  0  0  0  0  0  0  0  0  0
   25.1535  -20.5766  -15.2975 C   0  0  0  0  0  0  0  0  0  0  0  0
   25.3259  -21.2665  -14.2583 O   0  0  0  0  0  0  0  0  0  0  0  0
   27.6992  -26.5361  -16.0591 N   0  0  0  0  0  0  0  0  0  0  0  0
   24.1734  -19.5650  -15.2897 C   0  0  0  0  0  0  0  0  0  0  0  0
   23.3152  -19.3230  -14.1220 C   0  0  0  0  0  0  0  0  0  0  0  0
   21.9718  -19.9124  -14.3649 O   0  0  0  0  0  0  0  0  0  0  0  0
   21.8742  -21.1171  -14.6965 N   0  0  0  0  0  0  0  0  0  0  0  0
   16.8490  -16.6473  -13.4829 C   0  0  0  0  0  0  0  0  0  0  0  0
   16.2349  -17.9096  -13.7574 O   0  0  0  0  0  0  0  0  0  0  0  0
   14.9688  -18.0601  -13.7358 C   0  0  0  0  0  0  0  0  0  0  0  0
   17.0970  -19.0614  -14.0806 C   0  0  0  0  0  0  0  0  0  0  0  0
   18.5234  -18.7440  -13.9661 C   0  0  1  0  0  0  0  0  0  0  0  0
   19.4929  -19.7609  -14.5014 N   0  0  0  0  0  0  0  0  0  0  0  0
   20.8200  -19.1153  -14.2213 C   0  0  0  0  0  0  0  0  0  0  0  0
   19.3813  -19.9805  -15.9461 O   0  0  0  0  0  0  0  0  0  0  0  0
   18.6904  -21.0449  -16.5331 O   0  0  0  0  0  0  0  0  0  0  0  0
  1  2  1  0
  2  3  2  0
  4  5  1  0
  4  2  1  0
  6  7  1  0
  6  5  1  0
  7  8  1  0
  8 10  1  0
  8  9  1  6
 10 12  1  0
 11 10  2  0
 12 13  1  0
 14 15  2  0
 14 13  1  0
 16 17  1  0
 17 19  1  0
 17 18  2  0
 19 20  1  0
 21 20  1  1
 21 23  1  0
 21 22  1  0
 22 14  1  0
 23 24  1  0
 25 23  2  0
M  END
$$$$
