RGQ.pdb
     RDKit          3D

 25 24  0  0  1  0  0  0  0  0999 V2000
   18.6471  -27.1258  -11.2179 N   0  0  0  0  0  0  0  0  0  0  0  0
   19.5060  -27.8791  -10.3365 C   0  0  0  0  0  0  0  0  0  0  0  0
   20.4718  -28.5723  -10.8262 N   0  0  0  0  0  0  0  0  0  0  0  0
   19.3057  -27.8702   -8.9388 N   0  0  0  0  0  0  0  0  0  0  0  0
   18.4139  -26.9243   -8.3187 C   0  0  0  0  0  0  0  0  0  0  0  0
   18.4158  -27.2017   -6.8536 C   0  0  0  0  0  0  0  0  0  0  0  0
   17.5526  -26.3379   -6.0208 C   0  0  0  0  0  0  0  0  0  0  0  0
   17.2970  -24.9551   -6.4973 C   0  0  2  0  0  0  0  0  0  0  0  0
   18.4812  -24.2623   -6.9110 N   0  0  0  0  0  0  0  0  0  0  0  0
   16.7245  -24.1999   -5.3233 C   0  0  0  0  0  0  0  0  0  0  0  0
   17.3354  -23.1914   -4.8814 O   0  0  0  0  0  0  0  0  0  0  0  0
   21.0911  -29.1524  -10.2470 N   0  0  0  0  0  0  0  0  0  0  0  0
   15.5213  -24.5931   -4.7054 C   0  0  0  0  0  0  0  0  0  0  0  0
   14.8075  -23.7176   -3.7660 C   0  0  0  0  0  0  0  0  0  0  0  0
   15.4303  -23.8242   -2.4199 O   0  0  0  0  0  0  0  0  0  0  0  0
   16.3582  -24.6449   -2.2296 N   0  0  0  0  0  0  0  0  0  0  0  0
   14.5761  -19.4965    1.8018 C   0  0  0  0  0  0  0  0  0  0  0  0
   15.3769  -20.3802    2.5914 O   0  0  0  0  0  0  0  0  0  0  0  0
   15.7775  -20.0618    3.7594 C   0  0  0  0  0  0  0  0  0  0  0  0
   15.7383  -21.6968    2.0343 C   0  0  0  0  0  0  0  0  0  0  0  0
   15.2804  -21.8660    0.6522 C   0  0  1  0  0  0  0  0  0  0  0  0
   15.6499  -23.1508   -0.0356 N   0  0  0  0  0  0  0  0  0  0  0  0
   14.9749  -23.0044   -1.3696 C   0  0  0  0  0  0  0  0  0  0  0  0
   15.1184  -24.3476    0.6226 O   0  0  0  0  0  0  0  0  0  0  0  0
   13.8319  -24.8561    0.4198 O   0  0  0  0  0  0  0  0  0  0  0  0
  1  2  1  0
  2  3  2  0
  4  5  1  0
  4  2  1  0
  6  7  1  0
  6  5  1  0
  7  8  1  0
  8 10  1  0
  8  9  1  1
 10 12  1  0
 11 10  2  0
 12 13  1  0
 14 15  2  0
 14 13  1  0
 16 17  1  0
 17 19  1  0
 17 18  2  0
 19 20  1  0
 21 20  1  6
 21 23  1  0
 21 22  1  0
 22 14  1  0
 23 24  1  0
 25 23  2  0
M  END
$$$$
