RGQ.pdb
     RDKit          3D

 25 24  0  0  1  0  0  0  0  0999 V2000
   26.1601  -20.8841   -9.4424 N   0  0  0  0  0  0  0  0  0  0  0  0
   25.1148  -20.9240  -10.4362 C   0  0  0  0  0  0  0  0  0  0  0  0
   23.9001  -21.1423  -10.0756 N   0  0  0  0  0  0  0  0  0  0  0  0
   25.4009  -20.7274  -11.8048 N   0  0  0  0  0  0  0  0  0  0  0  0
   26.5574  -21.3271  -12.4191 C   0  0  0  0  0  0  0  0  0  0  0  0
   27.5967  -20.2658  -12.5478 C   0  0  0  0  0  0  0  0  0  0  0  0
   27.6773  -19.5808  -13.8552 C   0  0  0  0  0  0  0  0  0  0  0  0
   27.3408  -20.3689  -15.0677 C   0  0  2  0  0  0  0  0  0  0  0  0
   28.4876  -20.8963  -15.7462 N   0  0  0  0  0  0  0  0  0  0  0  0
   26.6581  -19.4164  -16.0180 C   0  0  0  0  0  0  0  0  0  0  0  0
   27.3390  -18.5302  -16.5982 O   0  0  0  0  0  0  0  0  0  0  0  0
   23.1227  -21.2039  -10.7444 N   0  0  0  0  0  0  0  0  0  0  0  0
   25.2752  -19.4912  -16.2751 C   0  0  0  0  0  0  0  0  0  0  0  0
   24.4839  -18.3032  -16.6233 C   0  0  0  0  0  0  0  0  0  0  0  0
   23.2583  -18.2615  -15.7824 O   0  0  0  0  0  0  0  0  0  0  0  0
   23.2715  -18.7798  -14.6414 N   0  0  0  0  0  0  0  0  0  0  0  0
   17.1515  -14.6281  -14.6113 C   0  0  0  0  0  0  0  0  0  0  0  0
   18.2985  -14.9947  -15.3831 O   0  0  0  0  0  0  0  0  0  0  0  0
   19.0096  -14.1244  -15.9855 C   0  0  0  0  0  0  0  0  0  0  0  0
   18.6658  -16.4200  -15.4729 C   0  0  0  0  0  0  0  0  0  0  0  0
   19.9986  -16.6206  -16.0491 C   0  0  1  0  0  0  0  0  0  0  0  0
   20.8874  -17.6290  -15.3756 N   0  0  0  0  0  0  0  0  0  0  0  0
   22.0928  -17.6412  -16.2719 C   0  0  0  0  0  0  0  0  0  0  0  0
   20.3247  -18.9817  -15.3391 O   0  0  0  0  0  0  0  0  0  0  0  0
   19.5157  -19.4741  -14.3104 O   0  0  0  0  0  0  0  0  0  0  0  0
  1  2  1  0
  2  3  2  0
  4  5  1  0
  4  2  1  0
  6  7  1  0
  6  5  1  0
  7  8  1  0
  8 10  1  0
  8  9  1  6
 10 12  1  0
 11 10  2  0
 12 13  1  0
 14 15  2  0
 14 13  1  0
 16 17  1  0
 17 19  1  0
 17 18  2  0
 19 20  1  0
 21 20  1  1
 21 23  1  0
 21 22  1  0
 22 14  1  0
 23 24  1  0
 25 23  2  0
M  END
$$$$
