IFI.pdb
     RDKit          3D

 28 28  0  0  1  0  0  0  0  0999 V2000
   17.4398  -10.2099  -20.3709 C   0  0  0  0  0  0  0  0  0  0  0  0
   17.2365  -10.9685  -19.1025 C   0  0  0  0  0  0  0  0  0  0  0  0
   18.0446  -10.4676  -17.9316 C   0  0  2  0  0  0  0  0  0  0  0  0
   17.8516   -8.9795  -17.8350 C   0  0  0  0  0  0  0  0  0  0  0  0
   19.4647  -10.8842  -18.0968 C   0  0  2  0  0  0  0  0  0  0  0  0
   19.5199  -12.3037  -18.3530 N   0  0  0  0  0  0  0  0  0  0  0  0
   20.3208  -10.4963  -16.9422 C   0  0  0  0  0  0  0  0  0  0  0  0
   20.0797  -11.0225  -15.8416 O   0  0  0  0  0  0  0  0  0  0  0  0
   21.3713   -9.5765  -17.0424 N   0  0  0  0  0  0  0  0  0  0  0  0
   22.2320   -9.1661  -15.9645 C   0  0  1  0  0  0  0  0  0  0  0  0
   23.6778   -9.4447  -16.1923 C   0  0  0  0  0  0  0  0  0  0  0  0
   24.0525  -10.8361  -16.3331 C   0  0  0  0  0  0  0  0  0  0  0  0
   24.2861  -11.6305  -15.2367 C   0  0  0  0  0  0  0  0  0  0  0  0
   24.6397  -12.9494  -15.4089 C   0  0  0  0  0  0  0  0  0  0  0  0
   24.7719  -13.5185  -16.6646 C   0  0  0  0  0  0  0  0  0  0  0  0
   24.5364  -12.7168  -17.7567 C   0  0  0  0  0  0  0  0  0  0  0  0
   24.1781  -11.3809  -17.5951 C   0  0  0  0  0  0  0  0  0  0  0  0
   22.0904   -7.6692  -15.8614 C   0  0  0  0  0  0  0  0  0  0  0  0
   22.1279   -6.9808  -16.9152 O   0  0  0  0  0  0  0  0  0  0  0  0
   18.6568   -3.3083  -15.0371 C   0  0  0  0  0  0  0  0  0  0  0  0
   20.0677   -3.6826  -14.6099 C   0  0  0  0  0  0  0  0  0  0  0  0
   20.3030   -5.1674  -14.7301 C   0  0  2  0  0  0  0  0  0  0  0  0
   19.3505   -5.8968  -13.8214 C   0  0  0  0  0  0  0  0  0  0  0  0
   21.7275   -5.5508  -14.5299 C   0  0  2  0  0  0  0  0  0  0  0  0
   21.9176   -7.0067  -14.6354 N   0  0  0  0  0  0  0  0  0  0  0  0
   22.3102   -5.0979  -13.2566 C   0  0  0  0  0  0  0  0  0  0  0  0
   22.5811   -3.9030  -12.9984 O   0  0  0  0  0  0  0  0  0  0  0  0
   22.5864   -6.0242  -12.2658 O   0  0  0  0  0  0  0  0  0  0  0  0
  1  2  1  0
  3  5  1  0
  3  4  1  6
  3  2  1  0
  5  6  1  1
  7  8  2  0
  7  5  1  0
  9  7  1  0
 10  9  1  0
 11 12  1  0
 10 11  1  6
 12 13  2  0
 12 17  1  0
 13 14  1  0
 14 15  2  0
 16 15  1  0
 17 16  2  0
 18 19  2  0
 18 10  1  0
 20 21  1  0
 21 22  1  0
 22 24  1  0
 22 23  1  1
 24 26  1  0
 24 25  1  1
 25 18  1  0
 26 28  1  0
 27 26  2  0
M  END
$$$$
